[H]C1=C([H])C([H])(F)C([H])([H])C([H])=C1N([H])C(=O)C1(C(=O)N([H])c2c([H])c([H])c(Oc3c([H])c([H])nc4c([H])c(OC([H])([H])C([H])([H])C([H])([H])N5C([H])([H])C([H])([H])OC([H])([H])C5([H])[H])c(OC([H])([H])[H])c([H])c34)c(F)c2[H])C([H])([H])C1([H])[H]
     RDKit          3D

 82 87  0  0  0  0  0  0  0  0999 V2000
    3.9666    3.0495   -1.7322 C   0  0  0  0  0  0  0  0  0  0  0  0
    4.8184    1.9472   -1.5191 O   0  0  0  0  0  0  0  0  0  0  0  0
    4.2779    0.7150   -1.2054 C   0  0  0  0  0  0  0  0  0  0  0  0
    2.9355    0.4830   -1.0834 C   0  0  0  0  0  0  0  0  0  0  0  0
    2.5057   -0.7878   -0.7673 C   0  0  0  0  0  0  0  0  0  0  0  0
    1.1302   -1.0757   -0.6337 C   0  0  0  0  0  0  0  0  0  0  0  0
    0.2693   -0.0306   -0.8259 O   0  0  0  0  0  0  0  0  0  0  0  0
   -1.0898   -0.1642   -0.6451 C   0  0  0  0  0  0  0  0  0  0  0  0
   -1.9847   -0.0120   -1.6950 C   0  0  0  0  0  0  0  0  0  0  0  0
   -3.3381   -0.1282   -1.5809 C   0  0  0  0  0  0  0  0  0  0  0  0
   -3.8905   -0.4214   -0.3289 C   0  0  0  0  0  0  0  0  0  0  0  0
   -5.3238   -0.4986   -0.2135 N   0  0  0  0  0  0  0  0  0  0  0  0
   -5.9613   -1.3830    0.6262 C   0  0  0  0  0  0  0  0  0  0  0  0
   -5.1921   -2.1849    1.2964 O   0  0  0  0  0  0  0  0  0  0  0  0
   -7.4011   -1.5958    0.9101 C   0  0  0  0  0  0  0  0  0  0  0  0
   -7.6820   -2.4618    2.1265 C   0  0  0  0  0  0  0  0  0  0  0  0
   -7.8126   -3.1190    0.8294 C   0  0  0  0  0  0  0  0  0  0  0  0
   -8.4706   -0.6963    0.4763 C   0  0  0  0  0  0  0  0  0  0  0  0
   -9.6747   -1.1656    0.7176 O   0  0  0  0  0  0  0  0  0  0  0  0
   -8.4814    0.5528   -0.1324 N   0  0  0  0  0  0  0  0  0  0  0  0
   -9.7446    1.2195   -0.4499 C   0  0  0  0  0  0  0  0  0  0  0  0
   -9.9496    2.4040    0.0799 C   0  0  0  0  0  0  0  0  0  0  0  0
  -11.1350    3.2347   -0.1097 C   0  0  0  0  0  0  0  0  0  0  0  0
  -12.2008    2.6387   -0.9439 C   0  0  0  0  0  0  0  0  0  0  0  0
  -12.4721    3.4850   -2.0494 F   0  0  0  0  0  0  0  0  0  0  0  0
  -11.8730    1.3187   -1.4859 C   0  0  0  0  0  0  0  0  0  0  0  0
  -10.7586    0.6480   -1.2759 C   0  0  0  0  0  0  0  0  0  0  0  0
   -3.0432   -0.5784    0.7341 C   0  0  0  0  0  0  0  0  0  0  0  0
   -1.6522   -0.4525    0.5863 C   0  0  0  0  0  0  0  0  0  0  0  0
   -0.8827   -0.5957    1.6903 F   0  0  0  0  0  0  0  0  0  0  0  0
    0.7223   -2.3515   -0.3227 C   0  0  0  0  0  0  0  0  0  0  0  0
    1.6378   -3.3635   -0.1352 C   0  0  0  0  0  0  0  0  0  0  0  0
    2.9451   -3.0865   -0.2619 N   0  0  0  0  0  0  0  0  0  0  0  0
    3.3732   -1.8309   -0.5703 C   0  0  0  0  0  0  0  0  0  0  0  0
    4.7330   -1.5901   -0.6954 C   0  0  0  0  0  0  0  0  0  0  0  0
    5.1920   -0.3333   -1.0085 C   0  0  0  0  0  0  0  0  0  0  0  0
    6.5206   -0.0853   -1.1253 O   0  0  0  0  0  0  0  0  0  0  0  0
    7.5310   -0.9938   -0.8772 C   0  0  0  0  0  0  0  0  0  0  0  0
    7.6262   -1.3701    0.5948 C   0  0  0  0  0  0  0  0  0  0  0  0
    7.9359   -0.0985    1.3961 C   0  0  0  0  0  0  0  0  0  0  0  0
    9.1945    0.4265    0.9288 N   0  0  0  0  0  0  0  0  0  0  0  0
    9.4053    1.7864    1.4776 C   0  0  0  0  0  0  0  0  0  0  0  0
   10.8161    2.1639    1.0165 C   0  0  0  0  0  0  0  0  0  0  0  0
   11.2632    1.3549   -0.0281 O   0  0  0  0  0  0  0  0  0  0  0  0
   11.4615    0.0232    0.3872 C   0  0  0  0  0  0  0  0  0  0  0  0
   10.3466   -0.3576    1.3702 C   0  0  0  0  0  0  0  0  0  0  0  0
    4.5770    3.9509   -1.9692 H   0  0  0  0  0  0  0  0  0  0  0  0
    3.3066    3.2216   -0.8582 H   0  0  0  0  0  0  0  0  0  0  0  0
    3.3086    2.7911   -2.5987 H   0  0  0  0  0  0  0  0  0  0  0  0
    2.2243    1.2761   -1.2311 H   0  0  0  0  0  0  0  0  0  0  0  0
   -1.5528    0.2161   -2.6750 H   0  0  0  0  0  0  0  0  0  0  0  0
   -4.0246   -0.0039   -2.4200 H   0  0  0  0  0  0  0  0  0  0  0  0
   -5.8260    0.1518   -0.8369 H   0  0  0  0  0  0  0  0  0  0  0  0
   -6.8106   -2.7138    2.7607 H   0  0  0  0  0  0  0  0  0  0  0  0
   -8.5985   -2.2800    2.7131 H   0  0  0  0  0  0  0  0  0  0  0  0
   -7.0275   -3.7752    0.4011 H   0  0  0  0  0  0  0  0  0  0  0  0
   -8.7992   -3.3162    0.3639 H   0  0  0  0  0  0  0  0  0  0  0  0
   -7.6334    1.0911   -0.3743 H   0  0  0  0  0  0  0  0  0  0  0  0
   -9.1652    2.8388    0.7401 H   0  0  0  0  0  0  0  0  0  0  0  0
  -11.5358    3.5321    0.9159 H   0  0  0  0  0  0  0  0  0  0  0  0
  -10.8538    4.2484   -0.5572 H   0  0  0  0  0  0  0  0  0  0  0  0
  -13.1586    2.5647   -0.3407 H   0  0  0  0  0  0  0  0  0  0  0  0
  -12.6648    0.8691   -2.1323 H   0  0  0  0  0  0  0  0  0  0  0  0
  -10.6018   -0.3227   -1.7168 H   0  0  0  0  0  0  0  0  0  0  0  0
   -3.4037   -0.7893    1.7394 H   0  0  0  0  0  0  0  0  0  0  0  0
   -0.3200   -2.5956   -0.2356 H   0  0  0  0  0  0  0  0  0  0  0  0
    1.2680   -4.3480    0.1079 H   0  0  0  0  0  0  0  0  0  0  0  0
    5.3620   -2.4538   -0.5623 H   0  0  0  0  0  0  0  0  0  0  0  0
    7.4424   -1.9223   -1.5038 H   0  0  0  0  0  0  0  0  0  0  0  0
    8.4920   -0.5348   -1.2249 H   0  0  0  0  0  0  0  0  0  0  0  0
    6.7751   -1.8921    1.0071 H   0  0  0  0  0  0  0  0  0  0  0  0
    8.4922   -2.0400    0.6815 H   0  0  0  0  0  0  0  0  0  0  0  0
    7.1233    0.6400    1.3255 H   0  0  0  0  0  0  0  0  0  0  0  0
    8.0487   -0.4301    2.4644 H   0  0  0  0  0  0  0  0  0  0  0  0
    9.4079    1.7624    2.5778 H   0  0  0  0  0  0  0  0  0  0  0  0
    8.6320    2.4413    1.0296 H   0  0  0  0  0  0  0  0  0  0  0  0
   11.5508    2.0414    1.8480 H   0  0  0  0  0  0  0  0  0  0  0  0
   10.8264    3.2054    0.6080 H   0  0  0  0  0  0  0  0  0  0  0  0
   11.3001   -0.6008   -0.5146 H   0  0  0  0  0  0  0  0  0  0  0  0
   12.4569   -0.1361    0.8078 H   0  0  0  0  0  0  0  0  0  0  0  0
   10.1090   -1.3943    1.4038 H   0  0  0  0  0  0  0  0  0  0  0  0
   10.6797    0.0679    2.3647 H   0  0  0  0  0  0  0  0  0  0  0  0
  1  2  1  0
  2  3  1  0
  3  4  2  0
  4  5  1  0
  5  6  2  0
  6  7  1  0
  7  8  1  0
  8  9  2  0
  9 10  1  0
 10 11  2  0
 11 12  1  0
 12 13  1  0
 13 14  2  0
 13 15  1  0
 15 16  1  0
 16 17  1  0
 15 18  1  0
 18 19  2  0
 18 20  1  0
 20 21  1  0
 21 22  2  0
 22 23  1  0
 23 24  1  0
 24 25  1  0
 24 26  1  0
 26 27  2  0
 11 28  1  0
 28 29  2  0
 29 30  1  0
  6 31  1  0
 31 32  2  0
 32 33  1  0
 33 34  2  0
 34 35  1  0
 35 36  2  0
 36 37  1  0
 37 38  1  0
 38 39  1  0
 39 40  1  0
 40 41  1  0
 41 42  1  0
 42 43  1  0
 43 44  1  0
 44 45  1  0
 45 46  1  0
 36  3  1  0
 46 41  1  0
 34  5  1  0
 29  8  1  0
 17 15  1  0
 27 21  1  0
  1 47  1  0
  1 48  1  0
  1 49  1  0
  4 50  1  0
  9 51  1  0
 10 52  1  0
 12 53  1  0
 16 54  1  0
 16 55  1  0
 17 56  1  0
 17 57  1  0
 20 58  1  0
 22 59  1  0
 23 60  1  0
 23 61  1  0
 24 62  1  0
 26 63  1  0
 27 64  1  0
 28 65  1  0
 31 66  1  0
 32 67  1  0
 35 68  1  0
 38 69  1  0
 38 70  1  0
 39 71  1  0
 39 72  1  0
 40 73  1  0
 40 74  1  0
 42 75  1  0
 42 76  1  0
 43 77  1  0
 43 78  1  0
 45 79  1  0
 45 80  1  0
 46 81  1  0
 46 82  1  0
M  END
$$$$
[H]N=C(N([H])[H])N([H])C([H])([H])C([H])([H])C([H])([H])[C@@]([H])(C(=O)c1nc2c([H])c([H])c([H])c([H])c2o1)N([H])C(=O)[C@@]([H])(N([H])C(=O)[C@@]1([H])N(C(=O)[C@]([H])(N([H])C(=O)OC([H])([H])c2c([H])c([H])c([H])c([H])c2[H])C([H])([H])c2c([H])c([H])c([H])c([H])c2[H])C([H])([H])C([H])([H])C1([H])[H])C([H])([H])C([H])([H])C([H])([H])N([H])C(=N[H])N([H])[H]
     RDKit          3D

110114  0  0  0  0  0  0  0  0999 V2000
    0.4798   -2.7401    7.8275 N   0  0  0  0  0  0  0  0  0  0  0  0
    1.5671   -2.7963    6.9246 C   0  0  0  0  0  0  0  0  0  0  0  0
    2.7519   -3.0576    7.3496 N   0  0  0  0  0  0  0  0  0  0  0  0
    1.3448   -2.5591    5.5378 N   0  0  0  0  0  0  0  0  0  0  0  0
    2.4772   -2.5319    4.6393 C   0  0  0  0  0  0  0  0  0  0  0  0
    2.1087   -2.2813    3.2119 C   0  0  0  0  0  0  0  0  0  0  0  0
    1.4042   -0.9594    2.9977 C   0  0  0  0  0  0  0  0  0  0  0  0
    1.0718   -0.7331    1.5449 C   0  0  2  0  0  0  0  0  0  0  0  0
    0.1987   -1.7537    1.0434 N   0  0  0  0  0  0  0  0  0  0  0  0
   -0.8927   -1.3991    0.1380 C   0  0  0  0  0  0  0  0  0  0  0  0
   -0.9292   -0.1814   -0.1179 O   0  0  0  0  0  0  0  0  0  0  0  0
   -1.7618   -2.4648   -0.3329 C   0  0  2  0  0  0  0  0  0  0  0  0
   -0.8771   -3.6959   -0.5026 C   0  0  0  0  0  0  0  0  0  0  0  0
   -1.7499   -4.5463   -1.4202 C   0  0  0  0  0  0  0  0  0  0  0  0
   -2.2001   -3.5005   -2.3847 C   0  0  0  0  0  0  0  0  0  0  0  0
   -2.5418   -2.3194   -1.4955 N   0  0  0  0  0  0  0  0  0  0  0  0
   -3.4814   -1.4113   -1.9913 C   0  0  0  0  0  0  0  0  0  0  0  0
   -4.0569   -1.7327   -3.1391 O   0  0  0  0  0  0  0  0  0  0  0  0
   -3.9853   -0.1400   -1.4954 C   0  0  1  0  0  0  0  0  0  0  0  0
   -3.4249    1.0772   -2.2423 C   0  0  0  0  0  0  0  0  0  0  0  0
   -3.7095    1.1400   -3.6574 C   0  0  0  0  0  0  0  0  0  0  0  0
   -4.8548    1.7453   -4.1184 C   0  0  0  0  0  0  0  0  0  0  0  0
   -5.1559    1.8521   -5.4598 C   0  0  0  0  0  0  0  0  0  0  0  0
   -4.2804    1.3346   -6.3808 C   0  0  0  0  0  0  0  0  0  0  0  0
   -3.1327    0.7262   -5.9545 C   0  0  0  0  0  0  0  0  0  0  0  0
   -2.8454    0.6276   -4.5917 C   0  0  0  0  0  0  0  0  0  0  0  0
   -5.4554   -0.0582   -1.6298 N   0  0  0  0  0  0  0  0  0  0  0  0
   -6.2441    0.6703   -0.7354 C   0  0  0  0  0  0  0  0  0  0  0  0
   -5.7000    1.2845    0.2110 O   0  0  0  0  0  0  0  0  0  0  0  0
   -7.6030    0.7296   -0.8772 O   0  0  0  0  0  0  0  0  0  0  0  0
   -8.4858    1.4405   -0.0773 C   0  0  0  0  0  0  0  0  0  0  0  0
   -8.5039    1.1276    1.3471 C   0  0  0  0  0  0  0  0  0  0  0  0
   -7.9619   -0.0215    1.8631 C   0  0  0  0  0  0  0  0  0  0  0  0
   -7.9720   -0.2996    3.2355 C   0  0  0  0  0  0  0  0  0  0  0  0
   -8.5606    0.6519    4.0408 C   0  0  0  0  0  0  0  0  0  0  0  0
   -9.1168    1.8200    3.5601 C   0  0  0  0  0  0  0  0  0  0  0  0
   -9.0745    2.0328    2.2057 C   0  0  0  0  0  0  0  0  0  0  0  0
    2.4096   -0.7124    0.8415 C   0  0  0  0  0  0  0  0  0  0  0  0
    2.7579   -1.6029    0.0385 O   0  0  0  0  0  0  0  0  0  0  0  0
    3.2488    0.3705    1.1342 N   0  0  0  0  0  0  0  0  0  0  0  0
    4.5720    0.5690    0.5593 C   0  0  1  0  0  0  0  0  0  0  0  0
    4.4948    1.6950   -0.4844 C   0  0  0  0  0  0  0  0  0  0  0  0
    3.5226    1.2886   -1.5523 C   0  0  0  0  0  0  0  0  0  0  0  0
    3.3452    2.3021   -2.6543 C   0  0  0  0  0  0  0  0  0  0  0  0
    2.3900    1.7759   -3.6109 N   0  0  0  0  0  0  0  0  0  0  0  0
    1.9596    2.4648   -4.7655 C   0  0  0  0  0  0  0  0  0  0  0  0
    2.7205    3.5737   -5.2209 N   0  0  0  0  0  0  0  0  0  0  0  0
    0.9063    2.1303   -5.4274 N   0  0  0  0  0  0  0  0  0  0  0  0
    5.5541    0.8689    1.6145 C   0  0  0  0  0  0  0  0  0  0  0  0
    5.1854    0.9653    2.8448 O   0  0  0  0  0  0  0  0  0  0  0  0
    6.9618    1.0610    1.2838 C   0  0  0  0  0  0  0  0  0  0  0  0
    7.6009    0.9997    0.1162 N   0  0  0  0  0  0  0  0  0  0  0  0
    8.9112    1.2453    0.2486 C   0  0  0  0  0  0  0  0  0  0  0  0
    9.9911    1.3089   -0.5863 C   0  0  0  0  0  0  0  0  0  0  0  0
   11.2726    1.5994   -0.1102 C   0  0  0  0  0  0  0  0  0  0  0  0
   11.4324    1.8250    1.2382 C   0  0  0  0  0  0  0  0  0  0  0  0
   10.3357    1.7589    2.0767 C   0  0  0  0  0  0  0  0  0  0  0  0
    9.0777    1.4727    1.6051 C   0  0  0  0  0  0  0  0  0  0  0  0
    7.9065    1.3540    2.1749 O   0  0  0  0  0  0  0  0  0  0  0  0
    0.6725   -2.7655    8.8511 H   0  0  0  0  0  0  0  0  0  0  0  0
   -0.4809   -2.6750    7.4583 H   0  0  0  0  0  0  0  0  0  0  0  0
    3.5286   -3.0949    6.6816 H   0  0  0  0  0  0  0  0  0  0  0  0
    0.3896   -2.4035    5.1432 H   0  0  0  0  0  0  0  0  0  0  0  0
    3.2301   -1.7844    5.0056 H   0  0  0  0  0  0  0  0  0  0  0  0
    2.9773   -3.5380    4.6595 H   0  0  0  0  0  0  0  0  0  0  0  0
    3.0845   -2.2092    2.6490 H   0  0  0  0  0  0  0  0  0  0  0  0
    1.5766   -3.1221    2.7661 H   0  0  0  0  0  0  0  0  0  0  0  0
    0.4607   -0.8785    3.5801 H   0  0  0  0  0  0  0  0  0  0  0  0
    2.0330   -0.1042    3.3376 H   0  0  0  0  0  0  0  0  0  0  0  0
    0.6358    0.2911    1.4410 H   0  0  0  0  0  0  0  0  0  0  0  0
    0.2866   -2.7513    1.2791 H   0  0  0  0  0  0  0  0  0  0  0  0
   -2.4257   -2.7450    0.5663 H   0  0  0  0  0  0  0  0  0  0  0  0
   -0.7637   -4.2417    0.4389 H   0  0  0  0  0  0  0  0  0  0  0  0
    0.1060   -3.4557   -0.9263 H   0  0  0  0  0  0  0  0  0  0  0  0
   -1.1707   -5.3523   -1.8944 H   0  0  0  0  0  0  0  0  0  0  0  0
   -2.5831   -4.9365   -0.8106 H   0  0  0  0  0  0  0  0  0  0  0  0
   -1.4214   -3.1837   -3.0982 H   0  0  0  0  0  0  0  0  0  0  0  0
   -3.1300   -3.8525   -2.8665 H   0  0  0  0  0  0  0  0  0  0  0  0
   -3.7504    0.0374   -0.4572 H   0  0  0  0  0  0  0  0  0  0  0  0
   -3.8266    1.9594   -1.6621 H   0  0  0  0  0  0  0  0  0  0  0  0
   -2.3468    1.0982   -2.0718 H   0  0  0  0  0  0  0  0  0  0  0  0
   -5.5818    2.1757   -3.4167 H   0  0  0  0  0  0  0  0  0  0  0  0
   -6.0551    2.3287   -5.8305 H   0  0  0  0  0  0  0  0  0  0  0  0
   -4.5166    1.4179   -7.4374 H   0  0  0  0  0  0  0  0  0  0  0  0
   -2.4233    0.3100   -6.6692 H   0  0  0  0  0  0  0  0  0  0  0  0
   -1.9198    0.1306   -4.3409 H   0  0  0  0  0  0  0  0  0  0  0  0
   -5.9025   -0.5593   -2.4177 H   0  0  0  0  0  0  0  0  0  0  0  0
   -9.5132    1.2740   -0.5386 H   0  0  0  0  0  0  0  0  0  0  0  0
   -8.3109    2.5367   -0.2825 H   0  0  0  0  0  0  0  0  0  0  0  0
   -7.5009   -0.7659    1.2087 H   0  0  0  0  0  0  0  0  0  0  0  0
   -7.5316   -1.2257    3.6098 H   0  0  0  0  0  0  0  0  0  0  0  0
   -8.5815    0.4599    5.1263 H   0  0  0  0  0  0  0  0  0  0  0  0
   -9.5718    2.5449    4.2492 H   0  0  0  0  0  0  0  0  0  0  0  0
   -9.5020    2.9376    1.8124 H   0  0  0  0  0  0  0  0  0  0  0  0
    2.9441    1.1124    1.8015 H   0  0  0  0  0  0  0  0  0  0  0  0
    4.8630   -0.3383    0.0261 H   0  0  0  0  0  0  0  0  0  0  0  0
    5.4869    1.8910   -0.9006 H   0  0  0  0  0  0  0  0  0  0  0  0
    4.0961    2.6279   -0.0121 H   0  0  0  0  0  0  0  0  0  0  0  0
    2.5338    1.1183   -1.0327 H   0  0  0  0  0  0  0  0  0  0  0  0
    3.8620    0.3278   -1.9871 H   0  0  0  0  0  0  0  0  0  0  0  0
    2.8731    3.2134   -2.2312 H   0  0  0  0  0  0  0  0  0  0  0  0
    4.2979    2.5803   -3.1306 H   0  0  0  0  0  0  0  0  0  0  0  0
    1.9844    0.8349   -3.4560 H   0  0  0  0  0  0  0  0  0  0  0  0
    3.5158    3.4439   -5.8796 H   0  0  0  0  0  0  0  0  0  0  0  0
    2.4643    4.5193   -4.8819 H   0  0  0  0  0  0  0  0  0  0  0  0
    0.6126    2.6443   -6.2616 H   0  0  0  0  0  0  0  0  0  0  0  0
    9.8447    1.1288   -1.6414 H   0  0  0  0  0  0  0  0  0  0  0  0
   12.1310    1.6516   -0.7657 H   0  0  0  0  0  0  0  0  0  0  0  0
   12.4410    2.0553    1.6194 H   0  0  0  0  0  0  0  0  0  0  0  0
   10.4753    1.9408    3.1523 H   0  0  0  0  0  0  0  0  0  0  0  0
  1  2  1  0
  2  3  2  3
  2  4  1  0
  4  5  1  0
  5  6  1  0
  6  7  1  0
  7  8  1  0
  8  9  1  0
  9 10  1  0
 10 11  2  0
 10 12  1  0
 12 13  1  0
 13 14  1  0
 14 15  1  0
 15 16  1  0
 16 17  1  0
 17 18  2  0
 17 19  1  0
 19 20  1  0
 20 21  1  0
 21 22  2  0
 22 23  1  0
 23 24  2  0
 24 25  1  0
 25 26  2  0
 19 27  1  0
 27 28  1  0
 28 29  2  0
 28 30  1  0
 30 31  1  0
 31 32  1  0
 32 33  2  0
 33 34  1  0
 34 35  2  0
 35 36  1  0
 36 37  2  0
  8 38  1  0
 38 39  2  0
 38 40  1  0
 40 41  1  0
 41 42  1  0
 42 43  1  0
 43 44  1  0
 44 45  1  0
 45 46  1  0
 46 47  1  0
 46 48  2  3
 41 49  1  0
 49 50  2  0
 49 51  1  0
 51 52  2  0
 52 53  1  0
 53 54  2  0
 54 55  1  0
 55 56  2  0
 56 57  1  0
 57 58  2  0
 58 59  1  0
 16 12  1  0
 26 21  1  0
 37 32  1  0
 59 51  1  0
 58 53  1  0
  1 60  1  0
  1 61  1  0
  3 62  1  0
  4 63  1  0
  5 64  1  0
  5 65  1  0
  6 66  1  0
  6 67  1  0
  7 68  1  0
  7 69  1  0
  8 70  1  1
  9 71  1  0
 12 72  1  1
 13 73  1  0
 13 74  1  0
 14 75  1  0
 14 76  1  0
 15 77  1  0
 15 78  1  0
 19 79  1  1
 20 80  1  0
 20 81  1  0
 22 82  1  0
 23 83  1  0
 24 84  1  0
 25 85  1  0
 26 86  1  0
 27 87  1  0
 31 88  1  0
 31 89  1  0
 33 90  1  0
 34 91  1  0
 35 92  1  0
 36 93  1  0
 37 94  1  0
 40 95  1  0
 41 96  1  6
 42 97  1  0
 42 98  1  0
 43 99  1  0
 43100  1  0
 44101  1  0
 44102  1  0
 45103  1  0
 47104  1  0
 47105  1  0
 48106  1  0
 54107  1  0
 55108  1  0
 56109  1  0
 57110  1  0
M  END
$$$$
[H]O[C@]([H])(C([H])([H])[H])[C@]([H])(C(=O)N([H])[C@]([H])(C(=O)N([H])[C@]([H])(C(=O)N([H])[C@]([H])(C(=O)c1nc2c([H])c([H])c([H])c([H])c2s1)C([H])([H])C([H])([H])C([H])([H])C([H])([H])N([H])[H])C([H])([H])C([H])([H])C([H])([H])N=C(N([H])[H])N([H])[H])C([H])([H])c1c([H])c([H])c([H])c([H])c1[H])N([H])[H]
     RDKit          3D

 92 94  0  0  0  0  0  0  0  0999 V2000
   -3.7365   -1.9292   -4.1958 C   0  0  0  0  0  0  0  0  0  0  0  0
   -2.9663   -2.9169   -3.3832 C   0  0  1  0  0  0  0  0  0  0  0  0
   -1.5955   -2.8705   -3.6082 O   0  0  0  0  0  0  0  0  0  0  0  0
   -3.3438   -2.8573   -1.9320 C   0  0  1  0  0  0  0  0  0  0  0  0
   -2.7459   -4.0108   -1.2346 N   0  0  0  0  0  0  0  0  0  0  0  0
   -2.9569   -1.6565   -1.2093 C   0  0  0  0  0  0  0  0  0  0  0  0
   -2.0699   -1.7064   -0.3029 O   0  0  0  0  0  0  0  0  0  0  0  0
   -3.5004   -0.3426   -1.4113 N   0  0  0  0  0  0  0  0  0  0  0  0
   -3.1297    0.8245   -0.7005 C   0  0  1  0  0  0  0  0  0  0  0  0
   -3.2107    0.7604    0.8002 C   0  0  0  0  0  0  0  0  0  0  0  0
   -4.6077    0.4707    1.2868 C   0  0  0  0  0  0  0  0  0  0  0  0
   -5.0629   -0.7805    1.5905 C   0  0  0  0  0  0  0  0  0  0  0  0
   -6.3800   -0.9904    2.0286 C   0  0  0  0  0  0  0  0  0  0  0  0
   -7.2463    0.0649    2.1622 C   0  0  0  0  0  0  0  0  0  0  0  0
   -6.7985    1.3282    1.8593 C   0  0  0  0  0  0  0  0  0  0  0  0
   -5.4947    1.5371    1.4255 C   0  0  0  0  0  0  0  0  0  0  0  0
   -1.7609    1.2590   -1.0772 C   0  0  0  0  0  0  0  0  0  0  0  0
   -1.4714    1.0944   -2.3139 O   0  0  0  0  0  0  0  0  0  0  0  0
   -0.8191    1.8122   -0.1867 N   0  0  0  0  0  0  0  0  0  0  0  0
    0.5023    2.2436   -0.5742 C   0  0  1  0  0  0  0  0  0  0  0  0
    1.0029    3.3339    0.2592 C   0  0  0  0  0  0  0  0  0  0  0  0
    0.2579    4.6236    0.2915 C   0  0  0  0  0  0  0  0  0  0  0  0
   -1.1476    4.6000    0.7791 C   0  0  0  0  0  0  0  0  0  0  0  0
   -1.5960    6.0222    0.7746 N   0  0  0  0  0  0  0  0  0  0  0  0
   -1.4633    6.6732    1.8481 C   0  0  0  0  0  0  0  0  0  0  0  0
   -1.8816    8.0345    1.8801 N   0  0  0  0  0  0  0  0  0  0  0  0
   -0.9054    6.0512    2.9993 N   0  0  0  0  0  0  0  0  0  0  0  0
    1.3965    1.0143   -0.5967 C   0  0  0  0  0  0  0  0  0  0  0  0
    0.7810   -0.0290   -0.9046 O   0  0  0  0  0  0  0  0  0  0  0  0
    2.7522    1.0087   -0.3125 N   0  0  0  0  0  0  0  0  0  0  0  0
    3.7148   -0.0399   -0.3083 C   0  0  1  0  0  0  0  0  0  0  0  0
    3.7868   -0.6499    1.0453 C   0  0  0  0  0  0  0  0  0  0  0  0
    2.4704   -1.2409    1.5229 C   0  0  0  0  0  0  0  0  0  0  0  0
    2.6307   -1.8677    2.8994 C   0  0  0  0  0  0  0  0  0  0  0  0
    3.0713   -0.8864    3.9384 C   0  0  0  0  0  0  0  0  0  0  0  0
    2.0948    0.1945    4.0498 N   0  0  0  0  0  0  0  0  0  0  0  0
    3.6562   -0.9394   -1.4584 C   0  0  0  0  0  0  0  0  0  0  0  0
    2.8075   -0.8973   -2.3819 O   0  0  0  0  0  0  0  0  0  0  0  0
    4.6629   -2.0158   -1.6140 C   0  0  0  0  0  0  0  0  0  0  0  0
    4.7322   -2.9138   -2.5825 N   0  0  0  0  0  0  0  0  0  0  0  0
    5.6953   -3.7786   -2.6034 C   0  0  0  0  0  0  0  0  0  0  0  0
    5.8774   -4.7807   -3.5908 C   0  0  0  0  0  0  0  0  0  0  0  0
    6.9395   -5.6321   -3.5079 C   0  0  0  0  0  0  0  0  0  0  0  0
    7.8709   -5.5887   -2.5088 C   0  0  0  0  0  0  0  0  0  0  0  0
    7.7059   -4.6165   -1.5385 C   0  0  0  0  0  0  0  0  0  0  0  0
    6.6223   -3.7292   -1.6024 C   0  0  0  0  0  0  0  0  0  0  0  0
    6.0389   -2.4161   -0.6759 S   0  0  0  0  0  0  0  0  0  0  0  0
   -4.7742   -1.8678   -3.8759 H   0  0  0  0  0  0  0  0  0  0  0  0
   -3.6973   -2.3089   -5.2641 H   0  0  0  0  0  0  0  0  0  0  0  0
   -3.1792   -0.9673   -4.2122 H   0  0  0  0  0  0  0  0  0  0  0  0
   -3.2953   -3.9404   -3.7412 H   0  0  0  0  0  0  0  0  0  0  0  0
   -1.2056   -3.6875   -3.2141 H   0  0  0  0  0  0  0  0  0  0  0  0
   -4.4453   -3.0084   -1.8605 H   0  0  0  0  0  0  0  0  0  0  0  0
   -3.3821   -4.2686   -0.4289 H   0  0  0  0  0  0  0  0  0  0  0  0
   -1.8542   -3.6614   -0.8129 H   0  0  0  0  0  0  0  0  0  0  0  0
   -4.2385   -0.3049   -2.1632 H   0  0  0  0  0  0  0  0  0  0  0  0
   -3.8352    1.6422   -1.0679 H   0  0  0  0  0  0  0  0  0  0  0  0
   -2.9705    1.7806    1.2451 H   0  0  0  0  0  0  0  0  0  0  0  0
   -2.4619    0.0945    1.2565 H   0  0  0  0  0  0  0  0  0  0  0  0
   -4.3881   -1.6344    1.5028 H   0  0  0  0  0  0  0  0  0  0  0  0
   -6.6934   -2.0117    2.2592 H   0  0  0  0  0  0  0  0  0  0  0  0
   -8.2786   -0.1029    2.5081 H   0  0  0  0  0  0  0  0  0  0  0  0
   -7.4876    2.1523    1.9672 H   0  0  0  0  0  0  0  0  0  0  0  0
   -5.1209    2.5333    1.1819 H   0  0  0  0  0  0  0  0  0  0  0  0
   -1.0583    1.9269    0.8401 H   0  0  0  0  0  0  0  0  0  0  0  0
    0.4590    2.4966   -1.6790 H   0  0  0  0  0  0  0  0  0  0  0  0
    2.1080    3.5701    0.0403 H   0  0  0  0  0  0  0  0  0  0  0  0
    1.0854    3.0194    1.3577 H   0  0  0  0  0  0  0  0  0  0  0  0
    0.2195    5.0084   -0.7824 H   0  0  0  0  0  0  0  0  0  0  0  0
    0.8578    5.4265    0.8234 H   0  0  0  0  0  0  0  0  0  0  0  0
   -1.8049    4.0830    0.0211 H   0  0  0  0  0  0  0  0  0  0  0  0
   -1.2286    4.1462    1.7603 H   0  0  0  0  0  0  0  0  0  0  0  0
   -1.2936    8.7303    2.3661 H   0  0  0  0  0  0  0  0  0  0  0  0
   -2.7641    8.3333    1.4217 H   0  0  0  0  0  0  0  0  0  0  0  0
    0.1018    6.2885    3.2143 H   0  0  0  0  0  0  0  0  0  0  0  0
   -1.4577    5.3945    3.6026 H   0  0  0  0  0  0  0  0  0  0  0  0
    3.1710    1.9699   -0.0300 H   0  0  0  0  0  0  0  0  0  0  0  0
    4.7428    0.4822   -0.4498 H   0  0  0  0  0  0  0  0  0  0  0  0
    3.9940    0.1672    1.8226 H   0  0  0  0  0  0  0  0  0  0  0  0
    4.6095   -1.3612    1.2237 H   0  0  0  0  0  0  0  0  0  0  0  0
    2.0208   -1.9597    0.8508 H   0  0  0  0  0  0  0  0  0  0  0  0
    1.7289   -0.4045    1.7066 H   0  0  0  0  0  0  0  0  0  0  0  0
    3.3589   -2.6933    2.7890 H   0  0  0  0  0  0  0  0  0  0  0  0
    1.6364   -2.2514    3.1954 H   0  0  0  0  0  0  0  0  0  0  0  0
    3.0877   -1.4550    4.9164 H   0  0  0  0  0  0  0  0  0  0  0  0
    4.0772   -0.4768    3.8100 H   0  0  0  0  0  0  0  0  0  0  0  0
    1.9899    0.4153    5.0624 H   0  0  0  0  0  0  0  0  0  0  0  0
    1.1910   -0.1030    3.6377 H   0  0  0  0  0  0  0  0  0  0  0  0
    5.1891   -4.8897   -4.4188 H   0  0  0  0  0  0  0  0  0  0  0  0
    7.0489   -6.3932   -4.2927 H   0  0  0  0  0  0  0  0  0  0  0  0
    8.6808   -6.2893   -2.5056 H   0  0  0  0  0  0  0  0  0  0  0  0
    8.3776   -4.4879   -0.7079 H   0  0  0  0  0  0  0  0  0  0  0  0
  1  2  1  0
  2  3  1  0
  2  4  1  0
  4  5  1  0
  4  6  1  0
  6  7  2  0
  6  8  1  0
  8  9  1  0
  9 10  1  0
 10 11  1  0
 11 12  2  0
 12 13  1  0
 13 14  2  0
 14 15  1  0
 15 16  2  0
  9 17  1  0
 17 18  2  0
 17 19  1  0
 19 20  1  0
 20 21  1  0
 21 22  1  0
 22 23  1  0
 23 24  1  0
 24 25  2  3
 25 26  1  0
 25 27  1  0
 20 28  1  0
 28 29  2  0
 28 30  1  0
 30 31  1  0
 31 32  1  0
 32 33  1  0
 33 34  1  0
 34 35  1  0
 35 36  1  0
 31 37  1  0
 37 38  2  0
 37 39  1  0
 39 40  2  0
 40 41  1  0
 41 42  2  0
 42 43  1  0
 43 44  2  0
 44 45  1  0
 45 46  2  0
 46 47  1  0
 16 11  1  0
 47 39  1  0
 46 41  1  0
  1 48  1  0
  1 49  1  0
  1 50  1  0
  2 51  1  6
  3 52  1  0
  4 53  1  6
  5 54  1  0
  5 55  1  0
  8 56  1  0
  9 57  1  6
 10 58  1  0
 10 59  1  0
 12 60  1  0
 13 61  1  0
 14 62  1  0
 15 63  1  0
 16 64  1  0
 19 65  1  0
 20 66  1  6
 21 67  1  0
 21 68  1  0
 22 69  1  0
 22 70  1  0
 23 71  1  0
 23 72  1  0
 26 73  1  0
 26 74  1  0
 27 75  1  0
 27 76  1  0
 30 77  1  0
 31 78  1  6
 32 79  1  0
 32 80  1  0
 33 81  1  0
 33 82  1  0
 34 83  1  0
 34 84  1  0
 35 85  1  0
 35 86  1  0
 36 87  1  0
 36 88  1  0
 42 89  1  0
 43 90  1  0
 44 91  1  0
 45 92  1  0
M  END
$$$$
[H]c1nc(N2C([H])([H])[C@@]3([H])N(C([H])([H])[H])C([H])([H])[C@@]2([H])C3([H])[H])c([H])nc1-c1c([H])c([H])c([H])c(F)c1[H]
     RDKit          2D

 38 41  0  0  0  0  0  0  0  0999 V2000
    2.7760    0.0000    0.0000 C   0  0  0  0  0  0  0  0  0  0  0  0
    1.2760    0.0000    0.0000 N   0  0  0  0  0  0  0  0  0  0  0  0
    0.3943    1.2135    0.0000 C   0  0  0  0  0  0  0  0  0  0  0  0
   -1.0323    0.7500    0.0000 C   0  0  0  0  0  0  0  0  0  0  0  0
   -1.0323   -0.7500    0.0000 C   0  0  0  0  0  0  0  0  0  0  0  0
    0.3943   -1.2135    0.0000 C   0  0  0  0  0  0  0  0  0  0  0  0
   -1.0323   -1.6771    0.0000 C   0  0  0  0  0  0  0  0  0  0  0  0
   -1.9140   -0.4635    0.0000 N   0  0  0  0  0  0  0  0  0  0  0  0
   -3.4140   -0.4635    0.0000 C   0  0  0  0  0  0  0  0  0  0  0  0
   -4.1640    0.8355    0.0000 C   0  0  0  0  0  0  0  0  0  0  0  0
   -5.6640    0.8355    0.0000 N   0  0  0  0  0  0  0  0  0  0  0  0
   -6.4140   -0.4635    0.0000 C   0  0  0  0  0  0  0  0  0  0  0  0
   -5.6640   -1.7626    0.0000 C   0  0  0  0  0  0  0  0  0  0  0  0
   -4.1640   -1.7626    0.0000 N   0  0  0  0  0  0  0  0  0  0  0  0
   -7.9140   -0.4635    0.0000 C   0  0  0  0  0  0  0  0  0  0  0  0
   -8.6640    0.8355    0.0000 C   0  0  0  0  0  0  0  0  0  0  0  0
  -10.1640    0.8355    0.0000 C   0  0  0  0  0  0  0  0  0  0  0  0
  -10.9140   -0.4635    0.0000 C   0  0  0  0  0  0  0  0  0  0  0  0
  -10.1640   -1.7626    0.0000 C   0  0  0  0  0  0  0  0  0  0  0  0
  -10.9140   -3.0616    0.0000 F   0  0  0  0  0  0  0  0  0  0  0  0
   -8.6640   -1.7626    0.0000 C   0  0  0  0  0  0  0  0  0  0  0  0
    4.2760    0.0000    0.0000 H   0  0  0  0  0  0  0  0  0  0  0  0
    2.7760   -1.5000    0.0000 H   0  0  0  0  0  0  0  0  0  0  0  0
    2.7760    1.5000    0.0000 H   0  0  0  0  0  0  0  0  0  0  0  0
   -0.2158    2.5838    0.0000 H   0  0  0  0  0  0  0  0  0  0  0  0
    1.6933    1.9635    0.0000 H   0  0  0  0  0  0  0  0  0  0  0  0
   -2.2458    1.6317    0.0000 H   0  0  0  0  0  0  0  0  0  0  0  0
   -1.3818   -1.4665    0.0000 H   0  0  0  0  0  0  0  0  0  0  0  0
   -2.5177   -0.9588    0.0000 H   0  0  0  0  0  0  0  0  0  0  0  0
    0.8578   -2.6401    0.0000 H   0  0  0  0  0  0  0  0  0  0  0  0
   -0.4222   -3.0474    0.0000 H   0  0  0  0  0  0  0  0  0  0  0  0
   -2.3313   -2.4271    0.0000 H   0  0  0  0  0  0  0  0  0  0  0  0
   -3.4140    2.1346    0.0000 H   0  0  0  0  0  0  0  0  0  0  0  0
   -6.4140   -3.0616    0.0000 H   0  0  0  0  0  0  0  0  0  0  0  0
   -7.9140    2.1346    0.0000 H   0  0  0  0  0  0  0  0  0  0  0  0
  -10.9140    2.1346    0.0000 H   0  0  0  0  0  0  0  0  0  0  0  0
  -12.4140   -0.4635    0.0000 H   0  0  0  0  0  0  0  0  0  0  0  0
   -7.9140   -3.0616    0.0000 H   0  0  0  0  0  0  0  0  0  0  0  0
  1  2  1  0
  2  3  1  0
  3  4  1  0
  4  5  1  0
  5  6  1  0
  6  7  1  0
  7  8  1  0
  8  9  1  0
  9 10  2  0
 10 11  1  0
 11 12  2  0
 12 13  1  0
 13 14  2  0
 12 15  1  0
 15 16  2  0
 16 17  1  0
 17 18  2  0
 18 19  1  0
 19 20  1  0
 19 21  2  0
  6  2  1  0
 14  9  1  0
 21 15  1  0
  8  4  1  0
  1 22  1  0
  1 23  1  0
  1 24  1  0
  3 25  1  0
  3 26  1  0
  4 27  1  6
  5 28  1  0
  5 29  1  0
  6 30  1  1
  7 31  1  0
  7 32  1  0
 10 33  1  0
 13 34  1  0
 16 35  1  0
 17 36  1  0
 18 37  1  0
 21 38  1  0
M  END
$$$$
[H]OC(=O)[C@@]([H])(N([H])C(=O)[C@@]([H])(N([H])C(=O)c1c([H])c(OC([H])([H])[H])c(OC([H])([H])[H])c(OC([H])([H])[H])c1[H])C([H])([H])c1c([H])c([H])c([H])c([H])c1[H])C([H])([H])c1c([H])c([H])c(O[H])c([H])c1[H]
     RDKit          3D

 68 70  0  0  0  0  0  0  0  0999 V2000
   -4.5982   -1.5423   -3.0549 C   0  0  0  0  0  0  0  0  0  0  0  0
   -5.4120   -1.5039   -1.8995 O   0  0  0  0  0  0  0  0  0  0  0  0
   -4.8587   -1.0043   -0.7305 C   0  0  0  0  0  0  0  0  0  0  0  0
   -3.5349   -0.5508   -0.6937 C   0  0  0  0  0  0  0  0  0  0  0  0
   -3.0055   -0.0585    0.4774 C   0  0  0  0  0  0  0  0  0  0  0  0
   -3.7855   -0.0112    1.6260 C   0  0  0  0  0  0  0  0  0  0  0  0
   -5.0840   -0.4511    1.6087 C   0  0  0  0  0  0  0  0  0  0  0  0
   -5.8825   -0.4138    2.7424 O   0  0  0  0  0  0  0  0  0  0  0  0
   -5.3633    0.0841    3.9414 C   0  0  0  0  0  0  0  0  0  0  0  0
   -5.5968   -0.9395    0.4309 C   0  0  0  0  0  0  0  0  0  0  0  0
   -6.9125   -1.3831    0.4201 O   0  0  0  0  0  0  0  0  0  0  0  0
   -7.1782   -2.7497    0.7243 C   0  0  0  0  0  0  0  0  0  0  0  0
   -1.6444    0.4191    0.5261 C   0  0  0  0  0  0  0  0  0  0  0  0
   -1.0729    0.5454    1.6320 O   0  0  0  0  0  0  0  0  0  0  0  0
   -0.9699    0.7404   -0.6732 N   0  0  0  0  0  0  0  0  0  0  0  0
    0.3949    1.2184   -0.6877 C   0  0  1  0  0  0  0  0  0  0  0  0
    0.5676    2.5816   -0.0519 C   0  0  0  0  0  0  0  0  0  0  0  0
   -0.2358    3.5784   -0.7828 C   0  0  0  0  0  0  0  0  0  0  0  0
   -1.5037    3.9025   -0.3794 C   0  0  0  0  0  0  0  0  0  0  0  0
   -2.2345    4.8431   -1.1078 C   0  0  0  0  0  0  0  0  0  0  0  0
   -1.6855    5.4297   -2.2085 C   0  0  0  0  0  0  0  0  0  0  0  0
   -0.4080    5.1090   -2.6220 C   0  0  0  0  0  0  0  0  0  0  0  0
    0.3036    4.1772   -1.8927 C   0  0  0  0  0  0  0  0  0  0  0  0
    1.3185    0.1975   -0.1577 C   0  0  0  0  0  0  0  0  0  0  0  0
    0.8988   -0.9145    0.2010 O   0  0  0  0  0  0  0  0  0  0  0  0
    2.6931    0.4823   -0.0552 N   0  0  0  0  0  0  0  0  0  0  0  0
    3.6701   -0.4794    0.4593 C   0  0  1  0  0  0  0  0  0  0  0  0
    4.6017   -0.8221   -0.6663 C   0  0  0  0  0  0  0  0  0  0  0  0
    5.6709   -1.7825   -0.3629 C   0  0  0  0  0  0  0  0  0  0  0  0
    6.9313   -1.4046    0.0101 C   0  0  0  0  0  0  0  0  0  0  0  0
    7.8850   -2.3432    0.2783 C   0  0  0  0  0  0  0  0  0  0  0  0
    7.6545   -3.7013    0.1953 C   0  0  0  0  0  0  0  0  0  0  0  0
    8.6255   -4.6292    0.4686 O   0  0  0  0  0  0  0  0  0  0  0  0
    6.3701   -4.0619   -0.1845 C   0  0  0  0  0  0  0  0  0  0  0  0
    5.4084   -3.1387   -0.4552 C   0  0  0  0  0  0  0  0  0  0  0  0
    4.3367    0.0039    1.6486 C   0  0  0  0  0  0  0  0  0  0  0  0
    5.2228   -0.7621    2.3584 O   0  0  0  0  0  0  0  0  0  0  0  0
    4.1099    1.1709    2.0742 O   0  0  0  0  0  0  0  0  0  0  0  0
   -3.7634   -2.2787   -2.9240 H   0  0  0  0  0  0  0  0  0  0  0  0
   -4.1567   -0.5678   -3.2969 H   0  0  0  0  0  0  0  0  0  0  0  0
   -5.2125   -1.8508   -3.9307 H   0  0  0  0  0  0  0  0  0  0  0  0
   -2.9772   -0.6201   -1.6283 H   0  0  0  0  0  0  0  0  0  0  0  0
   -3.3203    0.3855    2.5240 H   0  0  0  0  0  0  0  0  0  0  0  0
   -6.2309    0.3746    4.5941 H   0  0  0  0  0  0  0  0  0  0  0  0
   -4.8053    1.0332    3.7603 H   0  0  0  0  0  0  0  0  0  0  0  0
   -4.6854   -0.6256    4.4456 H   0  0  0  0  0  0  0  0  0  0  0  0
   -7.1841   -3.3652   -0.1873 H   0  0  0  0  0  0  0  0  0  0  0  0
   -6.3743   -3.1679    1.3810 H   0  0  0  0  0  0  0  0  0  0  0  0
   -8.1247   -2.8824    1.2626 H   0  0  0  0  0  0  0  0  0  0  0  0
   -1.4587    0.6400   -1.5982 H   0  0  0  0  0  0  0  0  0  0  0  0
    0.6305    1.4193   -1.7875 H   0  0  0  0  0  0  0  0  0  0  0  0
    0.1691    2.5428    0.9814 H   0  0  0  0  0  0  0  0  0  0  0  0
    1.6363    2.8789   -0.0126 H   0  0  0  0  0  0  0  0  0  0  0  0
   -1.9936    3.4812    0.4885 H   0  0  0  0  0  0  0  0  0  0  0  0
   -3.2233    5.0954   -0.7928 H   0  0  0  0  0  0  0  0  0  0  0  0
   -2.2701    6.1606   -2.7637 H   0  0  0  0  0  0  0  0  0  0  0  0
    0.0015    5.5910   -3.4994 H   0  0  0  0  0  0  0  0  0  0  0  0
    1.3014    3.9559   -2.2527 H   0  0  0  0  0  0  0  0  0  0  0  0
    3.0643    1.3896   -0.3427 H   0  0  0  0  0  0  0  0  0  0  0  0
    3.0903   -1.4136    0.7124 H   0  0  0  0  0  0  0  0  0  0  0  0
    5.0810    0.1500   -0.9854 H   0  0  0  0  0  0  0  0  0  0  0  0
    4.0101   -1.1937   -1.5501 H   0  0  0  0  0  0  0  0  0  0  0  0
    7.1695   -0.3640    0.0916 H   0  0  0  0  0  0  0  0  0  0  0  0
    8.8919   -2.0436    0.5763 H   0  0  0  0  0  0  0  0  0  0  0  0
    8.4662   -5.6082    0.4108 H   0  0  0  0  0  0  0  0  0  0  0  0
    6.1492   -5.1227   -0.2614 H   0  0  0  0  0  0  0  0  0  0  0  0
    4.4238   -3.4628   -0.7473 H   0  0  0  0  0  0  0  0  0  0  0  0
    5.9988   -0.3664    2.8609 H   0  0  0  0  0  0  0  0  0  0  0  0
  1  2  1  0
  2  3  1  0
  3  4  2  0
  4  5  1  0
  5  6  2  0
  6  7  1  0
  7  8  1  0
  8  9  1  0
  7 10  2  0
 10 11  1  0
 11 12  1  0
  5 13  1  0
 13 14  2  0
 13 15  1  0
 15 16  1  0
 16 17  1  0
 17 18  1  0
 18 19  2  0
 19 20  1  0
 20 21  2  0
 21 22  1  0
 22 23  2  0
 16 24  1  0
 24 25  2  0
 24 26  1  0
 26 27  1  0
 27 28  1  0
 28 29  1  0
 29 30  2  0
 30 31  1  0
 31 32  2  0
 32 33  1  0
 32 34  1  0
 34 35  2  0
 27 36  1  0
 36 37  1  0
 36 38  2  0
 10  3  1  0
 23 18  1  0
 35 29  1  0
  1 39  1  0
  1 40  1  0
  1 41  1  0
  4 42  1  0
  6 43  1  0
  9 44  1  0
  9 45  1  0
  9 46  1  0
 12 47  1  0
 12 48  1  0
 12 49  1  0
 15 50  1  0
 16 51  1  6
 17 52  1  0
 17 53  1  0
 19 54  1  0
 20 55  1  0
 21 56  1  0
 22 57  1  0
 23 58  1  0
 26 59  1  0
 27 60  1  1
 28 61  1  0
 28 62  1  0
 30 63  1  0
 31 64  1  0
 33 65  1  0
 34 66  1  0
 35 67  1  0
 37 68  1  0
M  END
$$$$
[H]OC(C([H])([H])[H])(C([H])([H])[H])C([H])([H])C([H])([H])N([H])S(=O)(=O)c1c([H])c([H])c(C([H])([H])[H])c(-c2c([H])nc(N([H])[H])c(-c3oc(C([H])([H])[H])nc3[H])c2[H])c1[H]
     RDKit          3D

 56 58  0  0  0  0  0  0  0  0999 V2000
    8.6602    1.8248   -0.2818 C   0  0  0  0  0  0  0  0  0  0  0  0
    7.2388    1.3730   -0.4630 C   0  0  0  0  0  0  0  0  0  0  0  0
    6.4868    1.6784   -1.5187 N   0  0  0  0  0  0  0  0  0  0  0  0
    5.2679    1.1103   -1.3557 C   0  0  0  0  0  0  0  0  0  0  0  0
    5.3068    0.4493   -0.1635 C   0  0  0  0  0  0  0  0  0  0  0  0
    6.5100    0.6440    0.3207 O   0  0  0  0  0  0  0  0  0  0  0  0
    4.2321   -0.3212    0.4555 C   0  0  0  0  0  0  0  0  0  0  0  0
    2.9951   -0.4728   -0.1282 C   0  0  0  0  0  0  0  0  0  0  0  0
    1.9817   -1.2009    0.4583 C   0  0  0  0  0  0  0  0  0  0  0  0
    2.2087   -1.7999    1.6712 C   0  0  0  0  0  0  0  0  0  0  0  0
    3.4131   -1.6540    2.2421 N   0  0  0  0  0  0  0  0  0  0  0  0
    4.4055   -0.9485    1.6807 C   0  0  0  0  0  0  0  0  0  0  0  0
    5.6813   -0.7990    2.2945 N   0  0  0  0  0  0  0  0  0  0  0  0
    0.7052   -1.2982   -0.2221 C   0  0  0  0  0  0  0  0  0  0  0  0
    0.1040   -0.1288   -0.6761 C   0  0  0  0  0  0  0  0  0  0  0  0
   -1.1138   -0.1426   -1.3221 C   0  0  0  0  0  0  0  0  0  0  0  0
   -1.7167   -1.3708   -1.5016 C   0  0  0  0  0  0  0  0  0  0  0  0
   -1.1179   -2.5276   -1.0504 C   0  0  0  0  0  0  0  0  0  0  0  0
    0.1126   -2.5250   -0.3967 C   0  0  0  0  0  0  0  0  0  0  0  0
    0.7179   -3.8144    0.0607 C   0  0  0  0  0  0  0  0  0  0  0  0
   -1.8661    1.3419   -1.8927 S   0  0  0  0  0  0  0  0  0  0  0  0
   -2.6336    1.1275   -3.1502 O   0  0  0  0  0  0  0  0  0  0  0  0
   -0.7557    2.3243   -2.1421 O   0  0  0  0  0  0  0  0  0  0  0  0
   -2.8841    2.0239   -0.6716 N   0  0  0  0  0  0  0  0  0  0  0  0
   -3.9637    1.1226   -0.3186 C   0  0  0  0  0  0  0  0  0  0  0  0
   -4.7907    1.8073    0.7492 C   0  0  0  0  0  0  0  0  0  0  0  0
   -5.9324    0.8967    1.1471 C   0  0  0  0  0  0  0  0  0  0  0  0
   -6.8052    1.4938    2.2012 C   0  0  0  0  0  0  0  0  0  0  0  0
   -6.7578    0.4996   -0.0444 C   0  0  0  0  0  0  0  0  0  0  0  0
   -5.3540   -0.2612    1.6763 O   0  0  0  0  0  0  0  0  0  0  0  0
    8.7601    2.9108   -0.4026 H   0  0  0  0  0  0  0  0  0  0  0  0
    9.3181    1.2489   -0.9687 H   0  0  0  0  0  0  0  0  0  0  0  0
    8.9698    1.5503    0.7513 H   0  0  0  0  0  0  0  0  0  0  0  0
    4.4334    1.1642   -2.0247 H   0  0  0  0  0  0  0  0  0  0  0  0
    2.8752    0.0248   -1.0880 H   0  0  0  0  0  0  0  0  0  0  0  0
    1.4177   -2.3881    2.1770 H   0  0  0  0  0  0  0  0  0  0  0  0
    5.8407   -0.1465    3.0855 H   0  0  0  0  0  0  0  0  0  0  0  0
    6.4864   -1.3549    1.9488 H   0  0  0  0  0  0  0  0  0  0  0  0
    0.5728    0.8415   -0.5383 H   0  0  0  0  0  0  0  0  0  0  0  0
   -2.6735   -1.3845   -2.0085 H   0  0  0  0  0  0  0  0  0  0  0  0
   -1.5850   -3.5020   -1.1869 H   0  0  0  0  0  0  0  0  0  0  0  0
    0.3844   -4.5934   -0.6921 H   0  0  0  0  0  0  0  0  0  0  0  0
    1.8208   -3.8225   -0.0249 H   0  0  0  0  0  0  0  0  0  0  0  0
    0.3198   -4.1660    1.0151 H   0  0  0  0  0  0  0  0  0  0  0  0
   -2.3305    2.2074    0.1803 H   0  0  0  0  0  0  0  0  0  0  0  0
   -4.5558    0.9094   -1.2131 H   0  0  0  0  0  0  0  0  0  0  0  0
   -3.5269    0.2173    0.1515 H   0  0  0  0  0  0  0  0  0  0  0  0
   -4.1664    1.9847    1.6401 H   0  0  0  0  0  0  0  0  0  0  0  0
   -5.1566    2.7973    0.4032 H   0  0  0  0  0  0  0  0  0  0  0  0
   -7.3962    2.3647    1.8216 H   0  0  0  0  0  0  0  0  0  0  0  0
   -6.2420    1.8055    3.0948 H   0  0  0  0  0  0  0  0  0  0  0  0
   -7.5362    0.7364    2.5217 H   0  0  0  0  0  0  0  0  0  0  0  0
   -6.9295    1.3728   -0.7237 H   0  0  0  0  0  0  0  0  0  0  0  0
   -7.7423    0.1168    0.2478 H   0  0  0  0  0  0  0  0  0  0  0  0
   -6.2019   -0.2985   -0.5891 H   0  0  0  0  0  0  0  0  0  0  0  0
   -5.4923   -1.0490    1.0909 H   0  0  0  0  0  0  0  0  0  0  0  0
  1  2  1  0
  2  3  2  0
  3  4  1  0
  4  5  2  0
  5  6  1  0
  5  7  1  0
  7  8  2  0
  8  9  1  0
  9 10  2  0
 10 11  1  0
 11 12  2  0
 12 13  1  0
  9 14  1  0
 14 15  2  0
 15 16  1  0
 16 17  2  0
 17 18  1  0
 18 19  2  0
 19 20  1  0
 16 21  1  0
 21 22  2  0
 21 23  2  0
 21 24  1  0
 24 25  1  0
 25 26  1  0
 26 27  1  0
 27 28  1  0
 27 29  1  0
 27 30  1  0
  6  2  1  0
 12  7  1  0
 19 14  1  0
  1 31  1  0
  1 32  1  0
  1 33  1  0
  4 34  1  0
  8 35  1  0
 10 36  1  0
 13 37  1  0
 13 38  1  0
 15 39  1  0
 17 40  1  0
 18 41  1  0
 20 42  1  0
 20 43  1  0
 20 44  1  0
 24 45  1  0
 25 46  1  0
 25 47  1  0
 26 48  1  0
 26 49  1  0
 28 50  1  0
 28 51  1  0
 28 52  1  0
 29 53  1  0
 29 54  1  0
 29 55  1  0
 30 56  1  0
M  END
$$$$
[H]OC1([H])C([H])([H])C([H])([H])N(C([H])([H])C([H])([H])C([H])([H])Oc2c(OC([H])([H])[H])c([H])c3c(Oc4c([H])c([H])c(N([H])C(=O)C5(C(=O)N([H])C6=C([H])C([H])([H])C([H])(F)C([H])=C6[H])C([H])([H])C5([H])[H])c([H])c4F)c([H])c([H])nc3c2[H])C([H])([H])C1([H])[H]
     RDKit          3D

 85 90  0  0  0  0  0  0  0  0999 V2000
    0.6026    1.3556    1.4476 C   0  0  0  0  0  0  0  0  0  0  0  0
    1.8386    1.0648    0.8400 O   0  0  0  0  0  0  0  0  0  0  0  0
    2.2602   -0.2078    0.5147 C   0  0  0  0  0  0  0  0  0  0  0  0
    1.4788   -1.2928    0.7710 C   0  0  0  0  0  0  0  0  0  0  0  0
    1.8760   -2.5832    0.4545 C   0  0  0  0  0  0  0  0  0  0  0  0
    1.0771   -3.6548    0.7350 C   0  0  0  0  0  0  0  0  0  0  0  0
   -0.1439   -3.6151    1.3165 O   0  0  0  0  0  0  0  0  0  0  0  0
   -1.3548   -3.1125    1.0520 C   0  0  0  0  0  0  0  0  0  0  0  0
   -2.0628   -2.2686    1.9128 C   0  0  0  0  0  0  0  0  0  0  0  0
   -3.3016   -1.7517    1.6527 C   0  0  0  0  0  0  0  0  0  0  0  0
   -3.9341   -2.0734    0.4430 C   0  0  0  0  0  0  0  0  0  0  0  0
   -5.1963   -1.4979    0.1959 N   0  0  0  0  0  0  0  0  0  0  0  0
   -6.2028   -2.0959   -0.5781 C   0  0  0  0  0  0  0  0  0  0  0  0
   -5.9668   -3.2698   -1.0851 O   0  0  0  0  0  0  0  0  0  0  0  0
   -7.5404   -1.5311   -0.8936 C   0  0  0  0  0  0  0  0  0  0  0  0
   -8.6481   -2.5423   -0.9143 C   0  0  0  0  0  0  0  0  0  0  0  0
   -8.0882   -2.0248   -2.2062 C   0  0  0  0  0  0  0  0  0  0  0  0
   -7.9394   -0.1858   -0.4590 C   0  0  0  0  0  0  0  0  0  0  0  0
   -7.0283    0.6768   -0.2065 O   0  0  0  0  0  0  0  0  0  0  0  0
   -9.2921    0.2108   -0.3059 N   0  0  0  0  0  0  0  0  0  0  0  0
   -9.5920    1.5442    0.1273 C   0  0  0  0  0  0  0  0  0  0  0  0
  -10.2749    1.7401    1.2240 C   0  0  0  0  0  0  0  0  0  0  0  0
  -10.6237    3.0607    1.7329 C   0  0  0  0  0  0  0  0  0  0  0  0
  -10.1294    4.2390    0.9949 C   0  0  0  0  0  0  0  0  0  0  0  0
  -11.2319    5.0259    0.6202 F   0  0  0  0  0  0  0  0  0  0  0  0
   -9.3700    3.9472   -0.2351 C   0  0  0  0  0  0  0  0  0  0  0  0
   -9.1378    2.7085   -0.6084 C   0  0  0  0  0  0  0  0  0  0  0  0
   -3.2848   -2.8867   -0.4221 C   0  0  0  0  0  0  0  0  0  0  0  0
   -2.0226   -3.4112   -0.1521 C   0  0  0  0  0  0  0  0  0  0  0  0
   -1.4170   -4.2155   -1.0384 F   0  0  0  0  0  0  0  0  0  0  0  0
    1.5700   -4.9501    0.3871 C   0  0  0  0  0  0  0  0  0  0  0  0
    2.7786   -5.0800   -0.1940 C   0  0  0  0  0  0  0  0  0  0  0  0
    3.5487   -4.0162   -0.4613 N   0  0  0  0  0  0  0  0  0  0  0  0
    3.1158   -2.7787   -0.1464 C   0  0  0  0  0  0  0  0  0  0  0  0
    3.9048   -1.6678   -0.4046 C   0  0  0  0  0  0  0  0  0  0  0  0
    3.5213   -0.3963   -0.0944 C   0  0  0  0  0  0  0  0  0  0  0  0
    4.2702    0.6904   -0.3250 O   0  0  0  0  0  0  0  0  0  0  0  0
    5.5427    0.7809   -0.8313 C   0  0  0  0  0  0  0  0  0  0  0  0
    6.5547    0.1877    0.0881 C   0  0  0  0  0  0  0  0  0  0  0  0
    7.9792    0.2589   -0.4382 C   0  0  0  0  0  0  0  0  0  0  0  0
    8.3667    1.6210   -0.6392 N   0  0  0  0  0  0  0  0  0  0  0  0
    8.5059    2.3648    0.5768 C   0  0  0  0  0  0  0  0  0  0  0  0
    9.5461    3.4476    0.3712 C   0  0  0  0  0  0  0  0  0  0  0  0
   10.8810    2.7702    0.1585 C   0  0  0  0  0  0  0  0  0  0  0  0
   11.8937    3.6916    0.0519 O   0  0  0  0  0  0  0  0  0  0  0  0
   10.7807    1.8201   -1.0166 C   0  0  0  0  0  0  0  0  0  0  0  0
    9.3890    1.8238   -1.6129 C   0  0  0  0  0  0  0  0  0  0  0  0
   -0.2599    1.0548    0.8160 H   0  0  0  0  0  0  0  0  0  0  0  0
    0.4986    0.8244    2.4153 H   0  0  0  0  0  0  0  0  0  0  0  0
    0.5457    2.4641    1.6062 H   0  0  0  0  0  0  0  0  0  0  0  0
    0.5184   -1.2040    1.2367 H   0  0  0  0  0  0  0  0  0  0  0  0
   -1.5534   -2.0249    2.8605 H   0  0  0  0  0  0  0  0  0  0  0  0
   -3.8293   -1.0985    2.3405 H   0  0  0  0  0  0  0  0  0  0  0  0
   -5.3736   -0.5516    0.6487 H   0  0  0  0  0  0  0  0  0  0  0  0
   -9.6561   -2.3223   -0.5722 H   0  0  0  0  0  0  0  0  0  0  0  0
   -8.3500   -3.6166   -0.6999 H   0  0  0  0  0  0  0  0  0  0  0  0
   -8.7947   -1.3947   -2.7932 H   0  0  0  0  0  0  0  0  0  0  0  0
   -7.4812   -2.6890   -2.8478 H   0  0  0  0  0  0  0  0  0  0  0  0
  -10.0794   -0.4141   -0.4953 H   0  0  0  0  0  0  0  0  0  0  0  0
  -10.6201    0.8798    1.8199 H   0  0  0  0  0  0  0  0  0  0  0  0
  -11.7455    3.0909    1.8707 H   0  0  0  0  0  0  0  0  0  0  0  0
  -10.2456    3.1086    2.7950 H   0  0  0  0  0  0  0  0  0  0  0  0
   -9.4707    4.8564    1.6795 H   0  0  0  0  0  0  0  0  0  0  0  0
   -9.0024    4.7944   -0.8333 H   0  0  0  0  0  0  0  0  0  0  0  0
   -8.5636    2.5639   -1.5351 H   0  0  0  0  0  0  0  0  0  0  0  0
   -3.7281   -3.1437   -1.3815 H   0  0  0  0  0  0  0  0  0  0  0  0
    0.9293   -5.7875    0.6150 H   0  0  0  0  0  0  0  0  0  0  0  0
    3.1060   -6.1006   -0.4392 H   0  0  0  0  0  0  0  0  0  0  0  0
    4.8473   -1.8959   -0.9088 H   0  0  0  0  0  0  0  0  0  0  0  0
    5.7483    1.8777   -1.0128 H   0  0  0  0  0  0  0  0  0  0  0  0
    5.5508    0.2471   -1.8338 H   0  0  0  0  0  0  0  0  0  0  0  0
    6.3210   -0.8421    0.3433 H   0  0  0  0  0  0  0  0  0  0  0  0
    6.4931    0.7833    1.0440 H   0  0  0  0  0  0  0  0  0  0  0  0
    8.5994   -0.2738    0.3170 H   0  0  0  0  0  0  0  0  0  0  0  0
    8.0413   -0.2973   -1.3766 H   0  0  0  0  0  0  0  0  0  0  0  0
    7.5437    2.9221    0.7799 H   0  0  0  0  0  0  0  0  0  0  0  0
    8.7866    1.7258    1.4472 H   0  0  0  0  0  0  0  0  0  0  0  0
    9.6584    4.0510    1.3143 H   0  0  0  0  0  0  0  0  0  0  0  0
    9.2373    4.0943   -0.4478 H   0  0  0  0  0  0  0  0  0  0  0  0
   11.0791    2.1479    1.0655 H   0  0  0  0  0  0  0  0  0  0  0  0
   12.5985    3.4859   -0.5954 H   0  0  0  0  0  0  0  0  0  0  0  0
   11.1147    0.7974   -0.7851 H   0  0  0  0  0  0  0  0  0  0  0  0
   11.4700    2.2135   -1.8061 H   0  0  0  0  0  0  0  0  0  0  0  0
    9.3548    0.9937   -2.3516 H   0  0  0  0  0  0  0  0  0  0  0  0
    9.2127    2.7590   -2.2104 H   0  0  0  0  0  0  0  0  0  0  0  0
  1  2  1  0
  2  3  1  0
  3  4  2  0
  4  5  1  0
  5  6  2  0
  6  7  1  0
  7  8  1  0
  8  9  2  0
  9 10  1  0
 10 11  2  0
 11 12  1  0
 12 13  1  0
 13 14  2  0
 13 15  1  0
 15 16  1  0
 16 17  1  0
 15 18  1  0
 18 19  2  0
 18 20  1  0
 20 21  1  0
 21 22  2  0
 22 23  1  0
 23 24  1  0
 24 25  1  0
 24 26  1  0
 26 27  2  0
 11 28  1  0
 28 29  2  0
 29 30  1  0
  6 31  1  0
 31 32  2  0
 32 33  1  0
 33 34  2  0
 34 35  1  0
 35 36  2  0
 36 37  1  0
 37 38  1  0
 38 39  1  0
 39 40  1  0
 40 41  1  0
 41 42  1  0
 42 43  1  0
 43 44  1  0
 44 45  1  0
 44 46  1  0
 46 47  1  0
 36  3  1  0
 47 41  1  0
 34  5  1  0
 29  8  1  0
 17 15  1  0
 27 21  1  0
  1 48  1  0
  1 49  1  0
  1 50  1  0
  4 51  1  0
  9 52  1  0
 10 53  1  0
 12 54  1  0
 16 55  1  0
 16 56  1  0
 17 57  1  0
 17 58  1  0
 20 59  1  0
 22 60  1  0
 23 61  1  0
 23 62  1  0
 24 63  1  0
 26 64  1  0
 27 65  1  0
 28 66  1  0
 31 67  1  0
 32 68  1  0
 35 69  1  0
 38 70  1  0
 38 71  1  0
 39 72  1  0
 39 73  1  0
 40 74  1  0
 40 75  1  0
 42 76  1  0
 42 77  1  0
 43 78  1  0
 43 79  1  0
 44 80  1  0
 45 81  1  0
 46 82  1  0
 46 83  1  0
 47 84  1  0
 47 85  1  0
M  END
$$$$
[H]OC(=O)C([H])([H])C([H])(C(=O)C([H])([H])F)N([H])C(=O)[C@@]([H])(N([H])C(=O)OC([H])([H])c1c([H])c([H])c([H])c([H])c1[H])C([H])(C([H])([H])[H])C([H])([H])[H]
     RDKit          3D

 50 50  0  0  0  0  0  0  0  0999 V2000
    1.7723   -2.4070    0.2860 C   0  0  0  0  0  0  0  0  0  0  0  0
    0.4374   -1.9519    0.8431 C   0  0  0  0  0  0  0  0  0  0  0  0
    0.3678   -2.0594    2.3436 C   0  0  0  0  0  0  0  0  0  0  0  0
    0.0436   -0.6028    0.3349 C   0  0  2  0  0  0  0  0  0  0  0  0
    1.0157    0.4111    0.6914 N   0  0  0  0  0  0  0  0  0  0  0  0
    1.7075    1.2085   -0.2319 C   0  0  0  0  0  0  0  0  0  0  0  0
    1.5008    1.0702   -1.4531 O   0  0  0  0  0  0  0  0  0  0  0  0
    2.6150    2.1460    0.1928 O   0  0  0  0  0  0  0  0  0  0  0  0
    3.3607    2.9997   -0.6323 C   0  0  0  0  0  0  0  0  0  0  0  0
    4.2496    2.3052   -1.5878 C   0  0  0  0  0  0  0  0  0  0  0  0
    4.7958    2.9760   -2.6762 C   0  0  0  0  0  0  0  0  0  0  0  0
    5.6229    2.3409   -3.5640 C   0  0  0  0  0  0  0  0  0  0  0  0
    5.9457    1.0202   -3.4159 C   0  0  0  0  0  0  0  0  0  0  0  0
    5.4278    0.3306   -2.3589 C   0  0  0  0  0  0  0  0  0  0  0  0
    4.5894    0.9764   -1.4601 C   0  0  0  0  0  0  0  0  0  0  0  0
   -1.3240   -0.2245    0.7018 C   0  0  0  0  0  0  0  0  0  0  0  0
   -1.4869    0.9031    1.2602 O   0  0  0  0  0  0  0  0  0  0  0  0
   -2.4637   -1.0226    0.4772 N   0  0  0  0  0  0  0  0  0  0  0  0
   -3.8277   -0.6171    0.8486 C   0  0  0  0  0  0  0  0  0  0  0  0
   -4.2535   -1.6032    1.9133 C   0  0  0  0  0  0  0  0  0  0  0  0
   -5.5974   -1.4154    2.4478 C   0  0  0  0  0  0  0  0  0  0  0  0
   -5.8553   -0.4125    3.3579 O   0  0  0  0  0  0  0  0  0  0  0  0
   -6.5289   -2.1684    2.0808 O   0  0  0  0  0  0  0  0  0  0  0  0
   -4.6927   -0.5982   -0.3509 C   0  0  0  0  0  0  0  0  0  0  0  0
   -4.2933   -1.0822   -1.4322 O   0  0  0  0  0  0  0  0  0  0  0  0
   -6.0632   -0.0314   -0.4266 C   0  0  0  0  0  0  0  0  0  0  0  0
   -5.8930    1.2267   -1.0518 F   0  0  0  0  0  0  0  0  0  0  0  0
    2.5229   -2.6064    1.0710 H   0  0  0  0  0  0  0  0  0  0  0  0
    2.1452   -1.6151   -0.4000 H   0  0  0  0  0  0  0  0  0  0  0  0
    1.6660   -3.3300   -0.3184 H   0  0  0  0  0  0  0  0  0  0  0  0
   -0.3223   -2.6861    0.4576 H   0  0  0  0  0  0  0  0  0  0  0  0
    0.2238   -1.0323    2.7702 H   0  0  0  0  0  0  0  0  0  0  0  0
   -0.5226   -2.6456    2.6939 H   0  0  0  0  0  0  0  0  0  0  0  0
    1.2556   -2.5619    2.7709 H   0  0  0  0  0  0  0  0  0  0  0  0
    0.0637   -0.6379   -0.7942 H   0  0  0  0  0  0  0  0  0  0  0  0
    1.2042    0.5469    1.7055 H   0  0  0  0  0  0  0  0  0  0  0  0
    2.6492    3.6587   -1.1987 H   0  0  0  0  0  0  0  0  0  0  0  0
    3.9791    3.6495    0.0547 H   0  0  0  0  0  0  0  0  0  0  0  0
    4.5370    4.0281   -2.7913 H   0  0  0  0  0  0  0  0  0  0  0  0
    6.0228    2.8970   -4.3918 H   0  0  0  0  0  0  0  0  0  0  0  0
    6.5976    0.5146   -4.1145 H   0  0  0  0  0  0  0  0  0  0  0  0
    5.6698   -0.7011   -2.2307 H   0  0  0  0  0  0  0  0  0  0  0  0
    4.2052    0.3769   -0.6327 H   0  0  0  0  0  0  0  0  0  0  0  0
   -2.3513   -1.9434    0.0301 H   0  0  0  0  0  0  0  0  0  0  0  0
   -3.8572    0.3899    1.3051 H   0  0  0  0  0  0  0  0  0  0  0  0
   -4.0560   -2.6456    1.5722 H   0  0  0  0  0  0  0  0  0  0  0  0
   -3.5434   -1.4184    2.7747 H   0  0  0  0  0  0  0  0  0  0  0  0
   -6.0170    0.5454    3.0582 H   0  0  0  0  0  0  0  0  0  0  0  0
   -6.5200    0.1820    0.5486 H   0  0  0  0  0  0  0  0  0  0  0  0
   -6.7245   -0.6257   -1.0780 H   0  0  0  0  0  0  0  0  0  0  0  0
  1  2  1  0
  2  3  1  0
  2  4  1  0
  4  5  1  0
  5  6  1  0
  6  7  2  0
  6  8  1  0
  8  9  1  0
  9 10  1  0
 10 11  2  0
 11 12  1  0
 12 13  2  0
 13 14  1  0
 14 15  2  0
  4 16  1  0
 16 17  2  0
 16 18  1  0
 18 19  1  0
 19 20  1  0
 20 21  1  0
 21 22  1  0
 21 23  2  0
 19 24  1  0
 24 25  2  0
 24 26  1  0
 26 27  1  0
 15 10  1  0
  1 28  1  0
  1 29  1  0
  1 30  1  0
  2 31  1  0
  3 32  1  0
  3 33  1  0
  3 34  1  0
  4 35  1  6
  5 36  1  0
  9 37  1  0
  9 38  1  0
 11 39  1  0
 12 40  1  0
 13 41  1  0
 14 42  1  0
 15 43  1  0
 18 44  1  0
 19 45  1  0
 20 46  1  0
 20 47  1  0
 22 48  1  0
 26 49  1  0
 26 50  1  0
M  END
$$$$
[H]c1nc(N([H])c2c([H])c([H])c(N3C([H])([H])C([H])([H])C([H])(N4C([H])([H])C([H])([H])N([H])[C@@]([H])(C([H])([H])[H])C4([H])[H])C([H])([H])C3([H])[H])c([H])c2OC([H])([H])[H])nc(N([H])c2c([H])c([H])c([H])c([H])c2S(=O)(=O)C([H])(C([H])([H])[H])C([H])([H])[H])c1Cl
     RDKit          3D

 82 86  0  0  0  0  0  0  0  0999 V2000
    0.1182    0.1013   -4.0281 C   0  0  0  0  0  0  0  0  0  0  0  0
   -0.5083    0.1798   -2.7700 O   0  0  0  0  0  0  0  0  0  0  0  0
    0.2995    0.3306   -1.6354 C   0  0  0  0  0  0  0  0  0  0  0  0
    1.6647    0.4054   -1.7222 C   0  0  0  0  0  0  0  0  0  0  0  0
    2.4886    0.5536   -0.6373 C   0  0  0  0  0  0  0  0  0  0  0  0
    1.9102    0.6309    0.6085 C   0  0  0  0  0  0  0  0  0  0  0  0
    0.5063    0.5550    0.7157 C   0  0  0  0  0  0  0  0  0  0  0  0
   -0.3094    0.4087   -0.3631 C   0  0  0  0  0  0  0  0  0  0  0  0
   -1.6922    0.3547   -0.2960 N   0  0  0  0  0  0  0  0  0  0  0  0
   -2.4968    0.3536    0.8650 C   0  0  0  0  0  0  0  0  0  0  0  0
   -2.0625    0.3886    2.1298 N   0  0  0  0  0  0  0  0  0  0  0  0
   -2.8487    0.3983    3.2052 C   0  0  0  0  0  0  0  0  0  0  0  0
   -4.2123    0.3714    3.0233 C   0  0  0  0  0  0  0  0  0  0  0  0
   -5.2854    0.3791    4.3792 Cl  0  0  0  0  0  0  0  0  0  0  0  0
   -4.7293    0.3348    1.7283 C   0  0  0  0  0  0  0  0  0  0  0  0
   -6.1395    0.3109    1.5321 N   0  0  0  0  0  0  0  0  0  0  0  0
   -6.9034    0.2798    0.3832 C   0  0  0  0  0  0  0  0  0  0  0  0
   -6.3504    0.3134   -0.8723 C   0  0  0  0  0  0  0  0  0  0  0  0
   -7.1484    0.2993   -2.0251 C   0  0  0  0  0  0  0  0  0  0  0  0
   -8.5031    0.2513   -1.8981 C   0  0  0  0  0  0  0  0  0  0  0  0
   -9.0548    0.2173   -0.6269 C   0  0  0  0  0  0  0  0  0  0  0  0
   -8.2953    0.2297    0.5149 C   0  0  0  0  0  0  0  0  0  0  0  0
   -9.0743    0.1923    2.0647 S   0  0  0  0  0  0  0  0  0  0  0  0
   -8.8049    1.5210    2.7472 O   0  0  0  0  0  0  0  0  0  0  0  0
   -8.6581   -0.9761    2.9181 O   0  0  0  0  0  0  0  0  0  0  0  0
  -10.8308    0.0355    1.8458 C   0  0  0  0  0  0  0  0  0  0  0  0
  -11.1383   -1.3233    1.2709 C   0  0  0  0  0  0  0  0  0  0  0  0
  -11.5058    0.0746    3.2380 C   0  0  0  0  0  0  0  0  0  0  0  0
   -3.8597    0.3280    0.7499 N   0  0  0  0  0  0  0  0  0  0  0  0
    3.9353    0.6392   -0.7347 N   0  0  0  0  0  0  0  0  0  0  0  0
    4.6150    0.3727   -1.9647 C   0  0  0  0  0  0  0  0  0  0  0  0
    5.9952   -0.1907   -1.8931 C   0  0  0  0  0  0  0  0  0  0  0  0
    6.5811   -0.1242   -0.5416 C   0  0  0  0  0  0  0  0  0  0  0  0
    6.1195    1.1567    0.1428 C   0  0  0  0  0  0  0  0  0  0  0  0
    4.6610    1.0313    0.4394 C   0  0  0  0  0  0  0  0  0  0  0  0
    7.9838   -0.2926   -0.4373 N   0  0  0  0  0  0  0  0  0  0  0  0
    8.7780    0.7147   -1.1102 C   0  0  0  0  0  0  0  0  0  0  0  0
   10.2567    0.4579   -0.7961 C   0  0  0  0  0  0  0  0  0  0  0  0
   10.3357   -0.3535    0.4035 N   0  0  0  0  0  0  0  0  0  0  0  0
    9.8426   -1.6813    0.0473 C   0  0  1  0  0  0  0  0  0  0  0  0
    9.5331   -2.3649    1.3732 C   0  0  0  0  0  0  0  0  0  0  0  0
    8.5211   -1.5729   -0.7289 C   0  0  0  0  0  0  0  0  0  0  0  0
    0.9472   -0.6561   -4.0310 H   0  0  0  0  0  0  0  0  0  0  0  0
    0.5652    1.0578   -4.3658 H   0  0  0  0  0  0  0  0  0  0  0  0
   -0.5880   -0.2654   -4.8106 H   0  0  0  0  0  0  0  0  0  0  0  0
    2.1162    0.3507   -2.7288 H   0  0  0  0  0  0  0  0  0  0  0  0
    2.5101    0.7505    1.5092 H   0  0  0  0  0  0  0  0  0  0  0  0
    0.1631    0.6280    1.7342 H   0  0  0  0  0  0  0  0  0  0  0  0
   -2.2635    0.3069   -1.2185 H   0  0  0  0  0  0  0  0  0  0  0  0
   -2.4462    0.4272    4.2179 H   0  0  0  0  0  0  0  0  0  0  0  0
   -6.7012    0.3259    2.4584 H   0  0  0  0  0  0  0  0  0  0  0  0
   -5.2989    0.3517   -1.0741 H   0  0  0  0  0  0  0  0  0  0  0  0
   -6.6393    0.3273   -2.9888 H   0  0  0  0  0  0  0  0  0  0  0  0
   -9.1324    0.2396   -2.7714 H   0  0  0  0  0  0  0  0  0  0  0  0
  -10.1551    0.1939   -0.5370 H   0  0  0  0  0  0  0  0  0  0  0  0
  -11.2547    0.8271    1.2284 H   0  0  0  0  0  0  0  0  0  0  0  0
  -11.8448   -1.2596    0.4145 H   0  0  0  0  0  0  0  0  0  0  0  0
  -10.1661   -1.7957    0.9485 H   0  0  0  0  0  0  0  0  0  0  0  0
  -11.5123   -1.9964    2.0689 H   0  0  0  0  0  0  0  0  0  0  0  0
  -11.4114    1.1165    3.5923 H   0  0  0  0  0  0  0  0  0  0  0  0
  -10.9455   -0.6425    3.8612 H   0  0  0  0  0  0  0  0  0  0  0  0
  -12.5391   -0.2478    3.0423 H   0  0  0  0  0  0  0  0  0  0  0  0
    3.9230   -0.3519   -2.5226 H   0  0  0  0  0  0  0  0  0  0  0  0
    4.5746    1.3032   -2.6158 H   0  0  0  0  0  0  0  0  0  0  0  0
    5.9451   -1.2410   -2.2819 H   0  0  0  0  0  0  0  0  0  0  0  0
    6.6268    0.4324   -2.5965 H   0  0  0  0  0  0  0  0  0  0  0  0
    6.1120   -0.9528    0.0676 H   0  0  0  0  0  0  0  0  0  0  0  0
    6.3004    2.0571   -0.4456 H   0  0  0  0  0  0  0  0  0  0  0  0
    6.6518    1.1559    1.1357 H   0  0  0  0  0  0  0  0  0  0  0  0
    4.4610    0.2733    1.2542 H   0  0  0  0  0  0  0  0  0  0  0  0
    4.2039    1.9686    0.8184 H   0  0  0  0  0  0  0  0  0  0  0  0
    8.4970    1.7363   -0.7405 H   0  0  0  0  0  0  0  0  0  0  0  0
    8.6961    0.6468   -2.2136 H   0  0  0  0  0  0  0  0  0  0  0  0
   10.7367   -0.0932   -1.6345 H   0  0  0  0  0  0  0  0  0  0  0  0
   10.7314    1.4376   -0.6370 H   0  0  0  0  0  0  0  0  0  0  0  0
    9.7197    0.1094    1.1181 H   0  0  0  0  0  0  0  0  0  0  0  0
   10.6164   -2.2065   -0.5273 H   0  0  0  0  0  0  0  0  0  0  0  0
   10.4563   -2.4885    1.9478 H   0  0  0  0  0  0  0  0  0  0  0  0
    8.8866   -1.6623    1.9570 H   0  0  0  0  0  0  0  0  0  0  0  0
    9.0389   -3.3392    1.2043 H   0  0  0  0  0  0  0  0  0  0  0  0
    8.7614   -1.6835   -1.8086 H   0  0  0  0  0  0  0  0  0  0  0  0
    7.9239   -2.4329   -0.4376 H   0  0  0  0  0  0  0  0  0  0  0  0
  1  2  1  0
  2  3  1  0
  3  4  2  0
  4  5  1  0
  5  6  2  0
  6  7  1  0
  7  8  2  0
  8  9  1  0
  9 10  1  0
 10 11  2  0
 11 12  1  0
 12 13  2  0
 13 14  1  0
 13 15  1  0
 15 16  1  0
 16 17  1  0
 17 18  2  0
 18 19  1  0
 19 20  2  0
 20 21  1  0
 21 22  2  0
 22 23  1  0
 23 24  2  0
 23 25  2  0
 23 26  1  0
 26 27  1  0
 26 28  1  0
 15 29  2  0
  5 30  1  0
 30 31  1  0
 31 32  1  0
 32 33  1  0
 33 34  1  0
 34 35  1  0
 33 36  1  0
 36 37  1  0
 37 38  1  0
 38 39  1  0
 39 40  1  0
 40 41  1  0
 40 42  1  0
  8  3  1  0
 29 10  1  0
 35 30  1  0
 42 36  1  0
 22 17  1  0
  1 43  1  0
  1 44  1  0
  1 45  1  0
  4 46  1  0
  6 47  1  0
  7 48  1  0
  9 49  1  0
 12 50  1  0
 16 51  1  0
 18 52  1  0
 19 53  1  0
 20 54  1  0
 21 55  1  0
 26 56  1  0
 27 57  1  0
 27 58  1  0
 27 59  1  0
 28 60  1  0
 28 61  1  0
 28 62  1  0
 31 63  1  0
 31 64  1  0
 32 65  1  0
 32 66  1  0
 33 67  1  0
 34 68  1  0
 34 69  1  0
 35 70  1  0
 35 71  1  0
 37 72  1  0
 37 73  1  0
 38 74  1  0
 38 75  1  0
 39 76  1  0
 40 77  1  6
 41 78  1  0
 41 79  1  0
 41 80  1  0
 42 81  1  0
 42 82  1  0
M  END
$$$$
[H]N=C(N([H])[H])N([H])C([H])([H])C([H])([H])C([H])([H])[C@@]([H])(C(=O)N([H])[C@]([H])(C(=O)N([H])[C@]([H])(C(=O)N([H])[H])C([H])([H])c1c([H])c([H])c([H])c([H])c1[H])C([H])([H])C(=N[H])N([H])[H])N([H])C(=O)[C@@]([H])(N([H])C(=O)[C@@]([H])(N([H])C(=O)OC([H])([H])c1c([H])c([H])c([H])c([H])c1[H])C([H])([H])C([H])([H])C([H])([H])N([H])C(=N[H])N([H])[H])C([H])([H])c1c([H])c([H])c([H])c([H])c1[H]
     RDKit          2D

121123  0  0  0  0  0  0  0  0999 V2000
    8.5981    8.3038    0.0000 N   0  0  0  0  0  0  0  0  0  0  0  0
    7.2990    9.0538    0.0000 C   0  0  0  0  0  0  0  0  0  0  0  0
    7.2990   10.5538    0.0000 N   0  0  0  0  0  0  0  0  0  0  0  0
    6.0000    8.3038    0.0000 N   0  0  0  0  0  0  0  0  0  0  0  0
    6.0000    6.8038    0.0000 C   0  0  0  0  0  0  0  0  0  0  0  0
    6.0000    5.3038    0.0000 C   0  0  0  0  0  0  0  0  0  0  0  0
    6.0000    3.8038    0.0000 C   0  0  0  0  0  0  0  0  0  0  0  0
    6.0000    2.3038    0.0000 C   0  0  0  0  0  0  0  0  0  0  0  0
    7.5000    2.3038    0.0000 N   0  0  0  0  0  0  0  0  0  0  0  0
    8.2500    3.6029    0.0000 C   0  0  0  0  0  0  0  0  0  0  0  0
    7.6639    4.9837    0.0000 O   0  0  0  0  0  0  0  0  0  0  0  0
    9.7500    3.6029    0.0000 O   0  0  0  0  0  0  0  0  0  0  0  0
   10.5000    4.9019    0.0000 C   0  0  0  0  0  0  0  0  0  0  0  0
   11.2500    6.2010    0.0000 C   0  0  0  0  0  0  0  0  0  0  0  0
   10.5000    7.5000    0.0000 C   0  0  0  0  0  0  0  0  0  0  0  0
   11.2500    8.7990    0.0000 C   0  0  0  0  0  0  0  0  0  0  0  0
   12.7500    8.7990    0.0000 C   0  0  0  0  0  0  0  0  0  0  0  0
   13.5000    7.5000    0.0000 C   0  0  0  0  0  0  0  0  0  0  0  0
   12.7500    6.2010    0.0000 C   0  0  0  0  0  0  0  0  0  0  0  0
    6.0000    0.8038    0.0000 C   0  0  0  0  0  0  0  0  0  0  0  0
    5.2337    0.5842    0.0000 O   0  0  0  0  0  0  0  0  0  0  0  0
    7.2990    0.0538    0.0000 N   0  0  0  0  0  0  0  0  0  0  0  0
    7.2990   -1.4462    0.0000 C   0  0  0  0  0  0  0  0  0  0  0  0
    8.7990   -1.4462    0.0000 C   0  0  0  0  0  0  0  0  0  0  0  0
   10.2990   -1.4462    0.0000 C   0  0  0  0  0  0  0  0  0  0  0  0
   11.0490   -0.1471    0.0000 C   0  0  0  0  0  0  0  0  0  0  0  0
   12.5490   -0.1471    0.0000 C   0  0  0  0  0  0  0  0  0  0  0  0
   13.2990   -1.4462    0.0000 C   0  0  0  0  0  0  0  0  0  0  0  0
   12.5490   -2.7452    0.0000 C   0  0  0  0  0  0  0  0  0  0  0  0
   11.0490   -2.7452    0.0000 C   0  0  0  0  0  0  0  0  0  0  0  0
    5.7990   -1.4462    0.0000 C   0  0  0  0  0  0  0  0  0  0  0  0
    4.8963   -2.6441    0.0000 O   0  0  0  0  0  0  0  0  0  0  0  0
    5.0490   -0.1471    0.0000 N   0  0  0  0  0  0  0  0  0  0  0  0
    3.5490   -0.1471    0.0000 C   0  0  0  0  0  0  0  0  0  0  0  0
    3.5490    1.3529    0.0000 C   0  0  0  0  0  0  0  0  0  0  0  0
    3.5490    2.8529    0.0000 C   0  0  0  0  0  0  0  0  0  0  0  0
    3.5490    4.3529    0.0000 C   0  0  0  0  0  0  0  0  0  0  0  0
    3.5490    5.8529    0.0000 N   0  0  0  0  0  0  0  0  0  0  0  0
    2.2500    6.6029    0.0000 C   0  0  0  0  0  0  0  0  0  0  0  0
    0.9510    5.8529    0.0000 N   0  0  0  0  0  0  0  0  0  0  0  0
    2.2500    8.1029    0.0000 N   0  0  0  0  0  0  0  0  0  0  0  0
    3.5490   -1.6471    0.0000 C   0  0  0  0  0  0  0  0  0  0  0  0
    4.7470   -2.5499    0.0000 O   0  0  0  0  0  0  0  0  0  0  0  0
    2.2500   -2.3971    0.0000 N   0  0  0  0  0  0  0  0  0  0  0  0
    2.2500   -3.8971    0.0000 C   0  0  0  0  0  0  0  0  0  0  0  0
    0.7500   -3.8971    0.0000 C   0  0  0  0  0  0  0  0  0  0  0  0
   -0.7500   -3.8971    0.0000 C   0  0  0  0  0  0  0  0  0  0  0  0
   -1.5000   -2.5981    0.0000 N   0  0  0  0  0  0  0  0  0  0  0  0
   -1.5000   -5.1962    0.0000 N   0  0  0  0  0  0  0  0  0  0  0  0
    3.7500   -3.8971    0.0000 C   0  0  0  0  0  0  0  0  0  0  0  0
    4.3361   -2.5163    0.0000 O   0  0  0  0  0  0  0  0  0  0  0  0
    4.5000   -5.1962    0.0000 N   0  0  0  0  0  0  0  0  0  0  0  0
    6.0000   -5.1962    0.0000 C   0  0  0  0  0  0  0  0  0  0  0  0
    6.0000   -6.6962    0.0000 C   0  0  0  0  0  0  0  0  0  0  0  0
    6.0000   -8.1962    0.0000 C   0  0  0  0  0  0  0  0  0  0  0  0
    4.7010   -8.9462    0.0000 C   0  0  0  0  0  0  0  0  0  0  0  0
    4.7010  -10.4462    0.0000 C   0  0  0  0  0  0  0  0  0  0  0  0
    6.0000  -11.1962    0.0000 C   0  0  0  0  0  0  0  0  0  0  0  0
    7.2990  -10.4462    0.0000 C   0  0  0  0  0  0  0  0  0  0  0  0
    7.2990   -8.9462    0.0000 C   0  0  0  0  0  0  0  0  0  0  0  0
    6.0000   -3.6962    0.0000 C   0  0  0  0  0  0  0  0  0  0  0  0
    7.2990   -2.9462    0.0000 N   0  0  0  0  0  0  0  0  0  0  0  0
    4.6192   -3.1101    0.0000 O   0  0  0  0  0  0  0  0  0  0  0  0
    9.8971    9.0538    0.0000 H   0  0  0  0  0  0  0  0  0  0  0  0
    8.4152    6.8150    0.0000 H   0  0  0  0  0  0  0  0  0  0  0  0
    8.5981   11.3038    0.0000 H   0  0  0  0  0  0  0  0  0  0  0  0
    4.7010    9.0538    0.0000 H   0  0  0  0  0  0  0  0  0  0  0  0
    4.5112    6.9867    0.0000 H   0  0  0  0  0  0  0  0  0  0  0  0
    7.5000    6.8038    0.0000 H   0  0  0  0  0  0  0  0  0  0  0  0
    4.5000    5.3038    0.0000 H   0  0  0  0  0  0  0  0  0  0  0  0
    7.4888    5.4867    0.0000 H   0  0  0  0  0  0  0  0  0  0  0  0
    7.4554    4.1668    0.0000 H   0  0  0  0  0  0  0  0  0  0  0  0
    4.5112    3.9867    0.0000 H   0  0  0  0  0  0  0  0  0  0  0  0
    4.5112    2.4867    0.0000 H   0  0  0  0  0  0  0  0  0  0  0  0
    8.4028    1.1059    0.0000 H   0  0  0  0  0  0  0  0  0  0  0  0
   11.7990    4.1519    0.0000 H   0  0  0  0  0  0  0  0  0  0  0  0
    9.2010    5.6519    0.0000 H   0  0  0  0  0  0  0  0  0  0  0  0
    9.0997    6.9623    0.0000 H   0  0  0  0  0  0  0  0  0  0  0  0
   10.5000   10.0981    0.0000 H   0  0  0  0  0  0  0  0  0  0  0  0
   13.5000   10.0981    0.0000 H   0  0  0  0  0  0  0  0  0  0  0  0
   15.0000    7.5000    0.0000 H   0  0  0  0  0  0  0  0  0  0  0  0
   13.5000    4.9019    0.0000 H   0  0  0  0  0  0  0  0  0  0  0  0
    8.5981    0.8038    0.0000 H   0  0  0  0  0  0  0  0  0  0  0  0
    7.6620   -2.9016    0.0000 H   0  0  0  0  0  0  0  0  0  0  0  0
    8.9819    0.0427    0.0000 H   0  0  0  0  0  0  0  0  0  0  0  0
    8.9819   -2.9350    0.0000 H   0  0  0  0  0  0  0  0  0  0  0  0
   10.2990    1.1519    0.0000 H   0  0  0  0  0  0  0  0  0  0  0  0
   13.2990    1.1519    0.0000 H   0  0  0  0  0  0  0  0  0  0  0  0
   14.7990   -1.4462    0.0000 H   0  0  0  0  0  0  0  0  0  0  0  0
   13.2990   -4.0442    0.0000 H   0  0  0  0  0  0  0  0  0  0  0  0
   10.2990   -4.0442    0.0000 H   0  0  0  0  0  0  0  0  0  0  0  0
    5.6351    1.2337    0.0000 H   0  0  0  0  0  0  0  0  0  0  0  0
    2.0490   -0.1471    0.0000 H   0  0  0  0  0  0  0  0  0  0  0  0
    2.0490    1.3529    0.0000 H   0  0  0  0  0  0  0  0  0  0  0  0
    5.0379    1.5357    0.0000 H   0  0  0  0  0  0  0  0  0  0  0  0
    5.0379    3.0357    0.0000 H   0  0  0  0  0  0  0  0  0  0  0  0
    2.0490    2.8529    0.0000 H   0  0  0  0  0  0  0  0  0  0  0  0
    5.0379    4.5357    0.0000 H   0  0  0  0  0  0  0  0  0  0  0  0
    2.0490    4.3529    0.0000 H   0  0  0  0  0  0  0  0  0  0  0  0
    4.7470    6.7556    0.0000 H   0  0  0  0  0  0  0  0  0  0  0  0
   -0.3481    6.6029    0.0000 H   0  0  0  0  0  0  0  0  0  0  0  0
    0.9510    4.3529    0.0000 H   0  0  0  0  0  0  0  0  0  0  0  0
    0.9510    8.8529    0.0000 H   0  0  0  0  0  0  0  0  0  0  0  0
    1.0521   -1.4944    0.0000 H   0  0  0  0  0  0  0  0  0  0  0  0
    2.2500   -5.3971    0.0000 H   0  0  0  0  0  0  0  0  0  0  0  0
    0.5672   -2.4083    0.0000 H   0  0  0  0  0  0  0  0  0  0  0  0
    0.7500   -5.3971    0.0000 H   0  0  0  0  0  0  0  0  0  0  0  0
   -3.0000   -2.5981    0.0000 H   0  0  0  0  0  0  0  0  0  0  0  0
   -0.7500   -1.2990    0.0000 H   0  0  0  0  0  0  0  0  0  0  0  0
   -3.0000   -5.1962    0.0000 H   0  0  0  0  0  0  0  0  0  0  0  0
    3.5972   -6.3941    0.0000 H   0  0  0  0  0  0  0  0  0  0  0  0
    7.5000   -5.1962    0.0000 H   0  0  0  0  0  0  0  0  0  0  0  0
    4.5112   -6.8790    0.0000 H   0  0  0  0  0  0  0  0  0  0  0  0
    7.5000   -6.6962    0.0000 H   0  0  0  0  0  0  0  0  0  0  0  0
    3.4019   -8.1962    0.0000 H   0  0  0  0  0  0  0  0  0  0  0  0
    3.4019  -11.1962    0.0000 H   0  0  0  0  0  0  0  0  0  0  0  0
    6.0000  -12.6962    0.0000 H   0  0  0  0  0  0  0  0  0  0  0  0
    8.5981  -11.1962    0.0000 H   0  0  0  0  0  0  0  0  0  0  0  0
    8.5981   -8.1962    0.0000 H   0  0  0  0  0  0  0  0  0  0  0  0
    7.6620   -1.4907    0.0000 H   0  0  0  0  0  0  0  0  0  0  0  0
    8.4970   -3.8489    0.0000 H   0  0  0  0  0  0  0  0  0  0  0  0
  1  2  1  0
  2  3  2  3
  2  4  1  0
  4  5  1  0
  5  6  1  0
  6  7  1  0
  7  8  1  0
  8  9  1  0
  9 10  1  0
 10 11  2  0
 10 12  1  0
 12 13  1  0
 13 14  1  0
 14 15  2  0
 15 16  1  0
 16 17  2  0
 17 18  1  0
 18 19  2  0
  8 20  1  0
 20 21  2  0
 20 22  1  0
 22 23  1  0
 23 24  1  0
 24 25  1  0
 25 26  2  0
 26 27  1  0
 27 28  2  0
 28 29  1  0
 29 30  2  0
 23 31  1  0
 31 32  2  0
 31 33  1  0
 33 34  1  0
 34 35  1  0
 35 36  1  0
 36 37  1  0
 37 38  1  0
 38 39  1  0
 39 40  1  0
 39 41  2  3
 34 42  1  0
 42 43  2  0
 42 44  1  0
 44 45  1  0
 45 46  1  0
 46 47  1  0
 47 48  1  0
 47 49  2  3
 45 50  1  0
 50 51  2  0
 50 52  1  0
 52 53  1  0
 53 54  1  0
 54 55  1  0
 55 56  2  0
 56 57  1  0
 57 58  2  0
 58 59  1  0
 59 60  2  0
 53 61  1  0
 61 62  1  0
 61 63  2  0
 19 14  1  0
 30 25  1  0
 60 55  1  0
  1 64  1  0
  1 65  1  0
  3 66  1  0
  4 67  1  0
  5 68  1  0
  5 69  1  0
  6 70  1  0
  6 71  1  0
  7 72  1  0
  7 73  1  0
  8 74  1  1
  9 75  1  0
 13 76  1  0
 13 77  1  0
 15 78  1  0
 16 79  1  0
 17 80  1  0
 18 81  1  0
 19 82  1  0
 22 83  1  0
 23 84  1  6
 24 85  1  0
 24 86  1  0
 26 87  1  0
 27 88  1  0
 28 89  1  0
 29 90  1  0
 30 91  1  0
 33 92  1  0
 34 93  1  1
 35 94  1  0
 35 95  1  0
 36 96  1  0
 36 97  1  0
 37 98  1  0
 37 99  1  0
 38100  1  0
 40101  1  0
 40102  1  0
 41103  1  0
 44104  1  0
 45105  1  1
 46106  1  0
 46107  1  0
 48108  1  0
 48109  1  0
 49110  1  0
 52111  1  0
 53112  1  1
 54113  1  0
 54114  1  0
 56115  1  0
 57116  1  0
 58117  1  0
 59118  1  0
 60119  1  0
 62120  1  0
 62121  1  0
M  END
$$$$
[H]c1c([H])c([H])c2c(c1[H])c1c3c(c4c5c([H])c([H])c([H])c([H])c5n5c4c1n2[C@]1([H])O[C@]5(C([H])([H])[H])[C@]([H])(OC([H])([H])[H])[C@@]([H])(N([H])C([H])([H])[H])C1([H])[H])C([H])([H])N([H])C3=O
     RDKit          3D

 61 68  0  0  0  0  0  0  0  0999 V2000
   -4.6729    2.4704    0.6701 C   0  0  0  0  0  0  0  0  0  0  0  0
   -3.9561    1.2431    0.7989 N   0  0  0  0  0  0  0  0  0  0  0  0
   -3.1827    0.9142   -0.3838 C   0  0  1  0  0  0  0  0  0  0  0  0
   -2.1402    2.0723   -0.5185 C   0  0  0  0  0  0  0  0  0  0  0  0
   -0.9578    1.3809   -0.4239 C   0  0  1  0  0  0  0  0  0  0  0  0
   -1.0012    0.5004   -1.5008 O   0  0  0  0  0  0  0  0  0  0  0  0
   -1.3700   -0.7676   -0.9505 C   0  0  2  0  0  0  0  0  0  0  0  0
   -1.7787   -1.5242   -2.2382 C   0  0  0  0  0  0  0  0  0  0  0  0
   -2.4988   -0.4528   -0.0976 C   0  0  2  0  0  0  0  0  0  0  0  0
   -3.5516   -1.3395   -0.4711 O   0  0  0  0  0  0  0  0  0  0  0  0
   -4.0462   -2.0650    0.5660 C   0  0  0  0  0  0  0  0  0  0  0  0
   -0.1182   -1.2988   -0.4529 N   0  0  0  0  0  0  0  0  0  0  0  0
    0.2026   -2.6147   -0.3684 C   0  0  0  0  0  0  0  0  0  0  0  0
   -0.5266   -3.7517   -0.5683 C   0  0  0  0  0  0  0  0  0  0  0  0
    0.0524   -5.0036   -0.4051 C   0  0  0  0  0  0  0  0  0  0  0  0
    1.3926   -5.1477   -0.0325 C   0  0  0  0  0  0  0  0  0  0  0  0
    2.1371   -4.0052    0.1725 C   0  0  0  0  0  0  0  0  0  0  0  0
    1.5289   -2.7803    0.0012 C   0  0  0  0  0  0  0  0  0  0  0  0
    2.0485   -1.5465    0.1558 C   0  0  0  0  0  0  0  0  0  0  0  0
    3.3025   -1.0014    0.4712 C   0  0  0  0  0  0  0  0  0  0  0  0
    4.5400   -1.7303    0.7940 C   0  0  0  0  0  0  0  0  0  0  0  0
    5.5206   -0.7063    1.0489 N   0  0  0  0  0  0  0  0  0  0  0  0
    4.9204    0.5944    0.8755 C   0  0  0  0  0  0  0  0  0  0  0  0
    5.6103    1.6121    1.0433 O   0  0  0  0  0  0  0  0  0  0  0  0
    3.5413    0.3604    0.5176 C   0  0  0  0  0  0  0  0  0  0  0  0
    2.5227    1.2647    0.2507 C   0  0  0  0  0  0  0  0  0  0  0  0
    2.3682    2.6229    0.2472 C   0  0  0  0  0  0  0  0  0  0  0  0
    3.2205    3.6549    0.4650 C   0  0  0  0  0  0  0  0  0  0  0  0
    2.7083    4.9621    0.3758 C   0  0  0  0  0  0  0  0  0  0  0  0
    1.3816    5.1770    0.0757 C   0  0  0  0  0  0  0  0  0  0  0  0
    0.5187    4.1120   -0.1455 C   0  0  0  0  0  0  0  0  0  0  0  0
    1.0401    2.8494   -0.0530 C   0  0  0  0  0  0  0  0  0  0  0  0
    0.3949    1.7020   -0.2301 N   0  0  0  0  0  0  0  0  0  0  0  0
    1.3072    0.7097   -0.0536 C   0  0  0  0  0  0  0  0  0  0  0  0
    1.0653   -0.6739   -0.1093 C   0  0  0  0  0  0  0  0  0  0  0  0
   -4.1378    3.2896    1.1811 H   0  0  0  0  0  0  0  0  0  0  0  0
   -4.9117    2.6802   -0.3866 H   0  0  0  0  0  0  0  0  0  0  0  0
   -5.6527    2.3385    1.2050 H   0  0  0  0  0  0  0  0  0  0  0  0
   -3.2976    1.2798    1.6344 H   0  0  0  0  0  0  0  0  0  0  0  0
   -3.8488    0.8666   -1.2338 H   0  0  0  0  0  0  0  0  0  0  0  0
   -2.3900    2.5503   -1.5008 H   0  0  0  0  0  0  0  0  0  0  0  0
   -2.3278    2.8494    0.2401 H   0  0  0  0  0  0  0  0  0  0  0  0
   -1.1232    0.8155    0.6063 H   0  0  0  0  0  0  0  0  0  0  0  0
   -2.0290   -0.8100   -3.0632 H   0  0  0  0  0  0  0  0  0  0  0  0
   -0.9380   -2.1222   -2.6367 H   0  0  0  0  0  0  0  0  0  0  0  0
   -2.6973   -2.1123   -2.1005 H   0  0  0  0  0  0  0  0  0  0  0  0
   -2.3910   -0.6283    0.9834 H   0  0  0  0  0  0  0  0  0  0  0  0
   -3.2245   -2.6856    1.0089 H   0  0  0  0  0  0  0  0  0  0  0  0
   -4.7508   -2.8108    0.1278 H   0  0  0  0  0  0  0  0  0  0  0  0
   -4.5876   -1.5274    1.3339 H   0  0  0  0  0  0  0  0  0  0  0  0
   -1.5381   -3.7221   -0.8394 H   0  0  0  0  0  0  0  0  0  0  0  0
   -0.5262   -5.8823   -0.5635 H   0  0  0  0  0  0  0  0  0  0  0  0
    1.8193   -6.1363    0.0880 H   0  0  0  0  0  0  0  0  0  0  0  0
    3.1750   -4.0914    0.4618 H   0  0  0  0  0  0  0  0  0  0  0  0
    4.3470   -2.2880    1.7377 H   0  0  0  0  0  0  0  0  0  0  0  0
    4.8560   -2.4302   -0.0043 H   0  0  0  0  0  0  0  0  0  0  0  0
    6.5043   -0.9356    1.3160 H   0  0  0  0  0  0  0  0  0  0  0  0
    4.2542    3.5201    0.6968 H   0  0  0  0  0  0  0  0  0  0  0  0
    3.4136    5.7638    0.5555 H   0  0  0  0  0  0  0  0  0  0  0  0
    0.9998    6.1818    0.0099 H   0  0  0  0  0  0  0  0  0  0  0  0
   -0.5210    4.2535   -0.3844 H   0  0  0  0  0  0  0  0  0  0  0  0
  1  2  1  0
  2  3  1  0
  3  4  1  0
  4  5  1  0
  5  6  1  0
  6  7  1  0
  7  8  1  6
  7  9  1  0
  9 10  1  0
 10 11  1  0
  7 12  1  0
 12 13  1  0
 13 14  2  0
 14 15  1  0
 15 16  2  0
 16 17  1  0
 17 18  2  0
 18 19  1  0
 19 20  2  0
 20 21  1  0
 21 22  1  0
 22 23  1  0
 23 24  2  0
 23 25  1  0
 25 26  2  0
 26 27  1  0
 27 28  2  0
 28 29  1  0
 29 30  2  0
 30 31  1  0
 31 32  2  0
 32 33  1  0
 33 34  1  0
 34 35  2  0
  9  3  1  0
 35 12  1  0
 33  5  1  0
 18 13  1  0
 35 19  1  0
 25 20  1  0
 34 26  1  0
 32 27  1  0
  1 36  1  0
  1 37  1  0
  1 38  1  0
  2 39  1  0
  3 40  1  6
  4 41  1  0
  4 42  1  0
  5 43  1  1
  8 44  1  0
  8 45  1  0
  8 46  1  0
  9 47  1  1
 11 48  1  0
 11 49  1  0
 11 50  1  0
 14 51  1  0
 15 52  1  0
 16 53  1  0
 17 54  1  0
 21 55  1  0
 21 56  1  0
 22 57  1  0
 28 58  1  0
 29 59  1  0
 30 60  1  0
 31 61  1  0
M  END
$$$$
[H]Oc1c([H])c([H])c2c(c1[H])C([H])([H])C([H])([H])[C@]1([H])[C@]2([H])C([H])([H])C([H])([H])[C@]2(C([H])([H])[H])[C@@]([H])(N([H])C(=O)OC(C([H])([H])[H])(C([H])([H])[H])C([H])([H])[H])C([H])([H])C([H])([H])[C@@]21[H]
     RDKit          3D

 60 63  0  0  0  0  0  0  0  0999 V2000
   -6.7282   -0.8666    0.7190 C   0  0  0  0  0  0  0  0  0  0  0  0
   -5.4555   -1.0128   -0.1222 C   0  0  0  0  0  0  0  0  0  0  0  0
   -5.0902   -2.4824   -0.0954 C   0  0  0  0  0  0  0  0  0  0  0  0
   -5.7870   -0.6014   -1.5230 C   0  0  0  0  0  0  0  0  0  0  0  0
   -4.4848   -0.1980    0.4809 O   0  0  0  0  0  0  0  0  0  0  0  0
   -3.1859   -0.0527    0.0180 C   0  0  0  0  0  0  0  0  0  0  0  0
   -2.8654   -0.6973   -1.0106 O   0  0  0  0  0  0  0  0  0  0  0  0
   -2.2647    0.7877    0.6804 N   0  0  0  0  0  0  0  0  0  0  0  0
   -0.8977    0.9730    0.2367 C   0  0  1  0  0  0  0  0  0  0  0  0
   -0.6172    2.4282   -0.1030 C   0  0  0  0  0  0  0  0  0  0  0  0
    0.6815    2.7922    0.5654 C   0  0  0  0  0  0  0  0  0  0  0  0
    1.3121    1.4936    0.9713 C   0  0  2  0  0  0  0  0  0  0  0  0
    2.2842    0.9274    0.0271 C   0  0  2  0  0  0  0  0  0  0  0  0
    2.1483    1.3019   -1.4013 C   0  0  0  0  0  0  0  0  0  0  0  0
    3.3703    0.8489   -2.1587 C   0  0  0  0  0  0  0  0  0  0  0  0
    4.1410   -0.2266   -1.4900 C   0  0  0  0  0  0  0  0  0  0  0  0
    5.4233   -0.4917   -1.9875 C   0  0  0  0  0  0  0  0  0  0  0  0
    6.1502   -1.4894   -1.3767 C   0  0  0  0  0  0  0  0  0  0  0  0
    7.4289   -1.7866   -1.8382 O   0  0  0  0  0  0  0  0  0  0  0  0
    5.6802   -2.2256   -0.3165 C   0  0  0  0  0  0  0  0  0  0  0  0
    4.4210   -1.9662    0.1732 C   0  0  0  0  0  0  0  0  0  0  0  0
    3.6698   -0.9709   -0.4203 C   0  0  0  0  0  0  0  0  0  0  0  0
    2.3116   -0.6114    0.0282 C   0  0  1  0  0  0  0  0  0  0  0  0
    1.8990   -1.1092    1.3565 C   0  0  0  0  0  0  0  0  0  0  0  0
    0.3975   -0.7962    1.4677 C   0  0  0  0  0  0  0  0  0  0  0  0
    0.1169    0.6446    1.2902 C   0  0  2  0  0  0  0  0  0  0  0  0
   -0.4463    1.1651    2.6200 C   0  0  0  0  0  0  0  0  0  0  0  0
   -7.5507   -1.2666    0.0998 H   0  0  0  0  0  0  0  0  0  0  0  0
   -6.5818   -1.5414    1.6041 H   0  0  0  0  0  0  0  0  0  0  0  0
   -6.8849    0.1858    1.0344 H   0  0  0  0  0  0  0  0  0  0  0  0
   -4.5080   -2.7946   -0.9743 H   0  0  0  0  0  0  0  0  0  0  0  0
   -6.0603   -3.0487   -0.1572 H   0  0  0  0  0  0  0  0  0  0  0  0
   -4.6337   -2.7515    0.8646 H   0  0  0  0  0  0  0  0  0  0  0  0
   -5.5777    0.4705   -1.7292 H   0  0  0  0  0  0  0  0  0  0  0  0
   -5.2758   -1.2376   -2.2978 H   0  0  0  0  0  0  0  0  0  0  0  0
   -6.8722   -0.7612   -1.6942 H   0  0  0  0  0  0  0  0  0  0  0  0
   -2.5733    1.3008    1.5262 H   0  0  0  0  0  0  0  0  0  0  0  0
   -0.7807    0.3366   -0.6787 H   0  0  0  0  0  0  0  0  0  0  0  0
   -0.5913    2.5269   -1.1992 H   0  0  0  0  0  0  0  0  0  0  0  0
   -1.4682    3.0764    0.2438 H   0  0  0  0  0  0  0  0  0  0  0  0
    1.3191    3.4617   -0.0069 H   0  0  0  0  0  0  0  0  0  0  0  0
    0.3967    3.3689    1.4959 H   0  0  0  0  0  0  0  0  0  0  0  0
    1.8218    1.6878    1.9624 H   0  0  0  0  0  0  0  0  0  0  0  0
    3.3163    1.2666    0.3459 H   0  0  0  0  0  0  0  0  0  0  0  0
    1.9620    2.3711   -1.5997 H   0  0  0  0  0  0  0  0  0  0  0  0
    1.2912    0.7029   -1.8266 H   0  0  0  0  0  0  0  0  0  0  0  0
    4.0719    1.7252   -2.2345 H   0  0  0  0  0  0  0  0  0  0  0  0
    3.1172    0.5253   -3.1945 H   0  0  0  0  0  0  0  0  0  0  0  0
    5.8206    0.0800   -2.8304 H   0  0  0  0  0  0  0  0  0  0  0  0
    8.1934   -1.2768   -1.4126 H   0  0  0  0  0  0  0  0  0  0  0  0
    6.2719   -3.0166    0.1583 H   0  0  0  0  0  0  0  0  0  0  0  0
    3.9822   -2.4961    0.9975 H   0  0  0  0  0  0  0  0  0  0  0  0
    1.5706   -0.9505   -0.7271 H   0  0  0  0  0  0  0  0  0  0  0  0
    2.3736   -0.4872    2.1608 H   0  0  0  0  0  0  0  0  0  0  0  0
    2.0406   -2.1825    1.4946 H   0  0  0  0  0  0  0  0  0  0  0  0
   -0.1044   -1.3860    0.6539 H   0  0  0  0  0  0  0  0  0  0  0  0
    0.0260   -1.2348    2.4153 H   0  0  0  0  0  0  0  0  0  0  0  0
    0.3931    1.2506    3.3415 H   0  0  0  0  0  0  0  0  0  0  0  0
   -0.9288    2.1195    2.4072 H   0  0  0  0  0  0  0  0  0  0  0  0
   -1.1890    0.3964    2.9656 H   0  0  0  0  0  0  0  0  0  0  0  0
  1  2  1  0
  2  3  1  0
  2  4  1  0
  2  5  1  0
  5  6  1  0
  6  7  2  0
  6  8  1  0
  8  9  1  0
  9 10  1  0
 10 11  1  0
 11 12  1  0
 12 13  1  0
 13 14  1  0
 14 15  1  0
 15 16  1  0
 16 17  2  0
 17 18  1  0
 18 19  1  0
 18 20  2  0
 20 21  1  0
 21 22  2  0
 22 23  1  0
 23 24  1  0
 24 25  1  0
 25 26  1  0
 26 27  1  1
 26  9  1  0
 26 12  1  0
 23 13  1  0
 22 16  1  0
  1 28  1  0
  1 29  1  0
  1 30  1  0
  3 31  1  0
  3 32  1  0
  3 33  1  0
  4 34  1  0
  4 35  1  0
  4 36  1  0
  8 37  1  0
  9 38  1  6
 10 39  1  0
 10 40  1  0
 11 41  1  0
 11 42  1  0
 12 43  1  1
 13 44  1  1
 14 45  1  0
 14 46  1  0
 15 47  1  0
 15 48  1  0
 17 49  1  0
 19 50  1  0
 20 51  1  0
 21 52  1  0
 23 53  1  6
 24 54  1  0
 24 55  1  0
 25 56  1  0
 25 57  1  0
 27 58  1  0
 27 59  1  0
 27 60  1  0
M  END
$$$$
[H]O[C@@]([H])(C([H])([H])C(=O)N([H])[C@]([H])(C(=O)N([H])[C@]([H])(C(=O)N([H])[H])C([H])([H])C([H])(C([H])([H])[H])C([H])([H])[H])C([H])([H])[H])[C@@]([H])(N([H])C(=O)[C@@]([H])(N([H])C(=O)[C@@]([H])(N([H])C(=O)C([H])([H])C([H])(C([H])([H])[H])C([H])([H])[H])C([H])(C([H])([H])[H])C([H])([H])[H])C([H])(C([H])([H])[H])C([H])([H])[H])C([H])([H])C([H])(C([H])([H])[H])C([H])([H])[H]
     RDKit          3D

105104  0  0  0  0  0  0  0  0999 V2000
    9.2830   -1.1846   -3.2197 C   0  0  0  0  0  0  0  0  0  0  0  0
    8.6587   -1.8090   -1.9611 C   0  0  0  0  0  0  0  0  0  0  0  0
    8.5723   -0.8091   -0.8515 C   0  0  0  0  0  0  0  0  0  0  0  0
    7.3649   -2.4789   -2.2953 C   0  0  0  0  0  0  0  0  0  0  0  0
    6.2984   -1.6538   -2.9000 C   0  0  2  0  0  0  0  0  0  0  0  0
    5.7583   -0.5514   -2.1957 N   0  0  0  0  0  0  0  0  0  0  0  0
    5.1408   -0.5360   -0.9200 C   0  0  0  0  0  0  0  0  0  0  0  0
    5.0363   -1.6155   -0.2689 O   0  0  0  0  0  0  0  0  0  0  0  0
    4.5966    0.6763   -0.2848 C   0  0  2  0  0  0  0  0  0  0  0  0
    5.7323    1.7037   -0.1985 C   0  0  0  0  0  0  0  0  0  0  0  0
    4.0379    0.4351    1.0084 N   0  0  0  0  0  0  0  0  0  0  0  0
    3.0300    1.3191    1.5419 C   0  0  0  0  0  0  0  0  0  0  0  0
    2.7221    2.2668    0.7868 O   0  0  0  0  0  0  0  0  0  0  0  0
    2.4828    1.0346    2.8830 C   0  0  0  0  0  0  0  0  0  0  0  0
    1.6053    2.0984    3.4221 C   0  0  2  0  0  0  0  0  0  0  0  0
    1.2437    1.6666    4.7390 O   0  0  0  0  0  0  0  0  0  0  0  0
    0.3921    2.3312    2.6281 C   0  0  2  0  0  0  0  0  0  0  0  0
   -0.4558    3.4877    3.0660 C   0  0  0  0  0  0  0  0  0  0  0  0
   -1.0335    3.5130    4.4094 C   0  0  0  0  0  0  0  0  0  0  0  0
   -1.9920    2.3964    4.7405 C   0  0  0  0  0  0  0  0  0  0  0  0
   -1.8199    4.8355    4.5288 C   0  0  0  0  0  0  0  0  0  0  0  0
   -0.4307    1.1336    2.5453 N   0  0  0  0  0  0  0  0  0  0  0  0
   -1.0124    0.6544    1.3611 C   0  0  0  0  0  0  0  0  0  0  0  0
   -0.8008    1.3074    0.3073 O   0  0  0  0  0  0  0  0  0  0  0  0
   -1.8332   -0.5417    1.3307 C   0  0  1  0  0  0  0  0  0  0  0  0
   -2.4060   -0.7218   -0.0172 N   0  0  0  0  0  0  0  0  0  0  0  0
   -3.7277   -0.3275   -0.2912 C   0  0  0  0  0  0  0  0  0  0  0  0
   -4.4685    0.2087    0.6132 O   0  0  0  0  0  0  0  0  0  0  0  0
   -4.2910   -0.5283   -1.6411 C   0  0  1  0  0  0  0  0  0  0  0  0
   -5.6332   -0.0011   -1.6976 N   0  0  0  0  0  0  0  0  0  0  0  0
   -6.8295   -0.6997   -1.7006 C   0  0  0  0  0  0  0  0  0  0  0  0
   -6.8192   -1.9553   -1.6399 O   0  0  0  0  0  0  0  0  0  0  0  0
   -8.1234   -0.0051   -1.7710 C   0  0  0  0  0  0  0  0  0  0  0  0
   -9.3205   -0.9045   -1.5378 C   0  0  0  0  0  0  0  0  0  0  0  0
   -9.2723   -1.5333   -0.1716 C   0  0  0  0  0  0  0  0  0  0  0  0
   -9.5290   -1.9118   -2.6183 C   0  0  0  0  0  0  0  0  0  0  0  0
   -3.4138   -0.0987   -2.7537 C   0  0  0  0  0  0  0  0  0  0  0  0
   -4.1217   -0.3712   -4.0798 C   0  0  0  0  0  0  0  0  0  0  0  0
   -2.8898    1.2960   -2.6836 C   0  0  0  0  0  0  0  0  0  0  0  0
   -1.2911   -1.8049    1.8643 C   0  0  0  0  0  0  0  0  0  0  0  0
   -0.0319   -2.3290    1.2306 C   0  0  0  0  0  0  0  0  0  0  0  0
   -1.2003   -1.9355    3.3504 C   0  0  0  0  0  0  0  0  0  0  0  0
    5.1942   -2.5763   -3.3161 C   0  0  0  0  0  0  0  0  0  0  0  0
    5.4169   -3.7876   -4.0020 N   0  0  0  0  0  0  0  0  0  0  0  0
    4.0183   -2.2466   -3.0354 O   0  0  0  0  0  0  0  0  0  0  0  0
    8.7044   -0.2671   -3.3982 H   0  0  0  0  0  0  0  0  0  0  0  0
   10.3026   -0.8482   -2.9151 H   0  0  0  0  0  0  0  0  0  0  0  0
    9.2962   -1.8869   -4.0597 H   0  0  0  0  0  0  0  0  0  0  0  0
    9.3565   -2.6620   -1.6340 H   0  0  0  0  0  0  0  0  0  0  0  0
    9.6320   -0.6460   -0.4913 H   0  0  0  0  0  0  0  0  0  0  0  0
    8.1893    0.1465   -1.2587 H   0  0  0  0  0  0  0  0  0  0  0  0
    8.0278   -1.2087    0.0096 H   0  0  0  0  0  0  0  0  0  0  0  0
    7.0315   -3.0265   -1.3771 H   0  0  0  0  0  0  0  0  0  0  0  0
    7.6444   -3.3318   -2.9961 H   0  0  0  0  0  0  0  0  0  0  0  0
    6.6905   -1.2710   -3.9215 H   0  0  0  0  0  0  0  0  0  0  0  0
    5.7894    0.4350   -2.6469 H   0  0  0  0  0  0  0  0  0  0  0  0
    3.8124    1.2066   -0.8806 H   0  0  0  0  0  0  0  0  0  0  0  0
    6.0100    1.9587   -1.2206 H   0  0  0  0  0  0  0  0  0  0  0  0
    5.3939    2.5958    0.3768 H   0  0  0  0  0  0  0  0  0  0  0  0
    6.6037    1.3115    0.3515 H   0  0  0  0  0  0  0  0  0  0  0  0
    4.3363   -0.3622    1.5786 H   0  0  0  0  0  0  0  0  0  0  0  0
    1.8804    0.0681    2.7314 H   0  0  0  0  0  0  0  0  0  0  0  0
    3.3435    0.7910    3.5666 H   0  0  0  0  0  0  0  0  0  0  0  0
    2.2261    2.9975    3.6020 H   0  0  0  0  0  0  0  0  0  0  0  0
    1.1030    0.6832    4.6681 H   0  0  0  0  0  0  0  0  0  0  0  0
    0.6481    2.5495    1.5790 H   0  0  0  0  0  0  0  0  0  0  0  0
    0.0792    4.4594    2.8956 H   0  0  0  0  0  0  0  0  0  0  0  0
   -1.3133    3.5370    2.3261 H   0  0  0  0  0  0  0  0  0  0  0  0
   -0.2909    3.6153    5.2396 H   0  0  0  0  0  0  0  0  0  0  0  0
   -2.8621    2.7816    5.3581 H   0  0  0  0  0  0  0  0  0  0  0  0
   -2.5053    1.9854    3.8317 H   0  0  0  0  0  0  0  0  0  0  0  0
   -1.5560    1.6025    5.3769 H   0  0  0  0  0  0  0  0  0  0  0  0
   -1.1564    5.5947    4.0145 H   0  0  0  0  0  0  0  0  0  0  0  0
   -1.9651    5.1311    5.5728 H   0  0  0  0  0  0  0  0  0  0  0  0
   -2.7156    4.7607    3.9104 H   0  0  0  0  0  0  0  0  0  0  0  0
   -0.5813    0.6139    3.4328 H   0  0  0  0  0  0  0  0  0  0  0  0
   -2.7378   -0.3024    1.9759 H   0  0  0  0  0  0  0  0  0  0  0  0
   -1.8166   -1.1377   -0.7375 H   0  0  0  0  0  0  0  0  0  0  0  0
   -4.4235   -1.6520   -1.7291 H   0  0  0  0  0  0  0  0  0  0  0  0
   -5.6669    1.0594   -1.7398 H   0  0  0  0  0  0  0  0  0  0  0  0
   -8.1334    0.7662   -0.9616 H   0  0  0  0  0  0  0  0  0  0  0  0
   -8.1754    0.4662   -2.7841 H   0  0  0  0  0  0  0  0  0  0  0  0
  -10.2077   -0.2153   -1.5551 H   0  0  0  0  0  0  0  0  0  0  0  0
   -8.6530   -2.4239   -0.0839 H   0  0  0  0  0  0  0  0  0  0  0  0
   -8.7962   -0.7661    0.5039 H   0  0  0  0  0  0  0  0  0  0  0  0
  -10.3074   -1.6359    0.2174 H   0  0  0  0  0  0  0  0  0  0  0  0
   -9.0029   -2.8553   -2.3217 H   0  0  0  0  0  0  0  0  0  0  0  0
   -9.2378   -1.5622   -3.6181 H   0  0  0  0  0  0  0  0  0  0  0  0
  -10.6196   -2.1915   -2.6904 H   0  0  0  0  0  0  0  0  0  0  0  0
   -2.5262   -0.7925   -2.7582 H   0  0  0  0  0  0  0  0  0  0  0  0
   -4.4589   -1.4211   -4.1090 H   0  0  0  0  0  0  0  0  0  0  0  0
   -4.9715    0.3382   -4.2138 H   0  0  0  0  0  0  0  0  0  0  0  0
   -3.4619   -0.2077   -4.9586 H   0  0  0  0  0  0  0  0  0  0  0  0
   -3.3580    1.9897   -3.4406 H   0  0  0  0  0  0  0  0  0  0  0  0
   -1.7974    1.3377   -2.9381 H   0  0  0  0  0  0  0  0  0  0  0  0
   -2.9323    1.7335   -1.6459 H   0  0  0  0  0  0  0  0  0  0  0  0
   -2.0751   -2.5989    1.5656 H   0  0  0  0  0  0  0  0  0  0  0  0
    0.0044   -2.2688    0.1400 H   0  0  0  0  0  0  0  0  0  0  0  0
    0.9048   -1.9376    1.7179 H   0  0  0  0  0  0  0  0  0  0  0  0
    0.0079   -3.4341    1.4780 H   0  0  0  0  0  0  0  0  0  0  0  0
   -1.4160   -2.9834    3.6995 H   0  0  0  0  0  0  0  0  0  0  0  0
   -1.9388   -1.2723    3.8505 H   0  0  0  0  0  0  0  0  0  0  0  0
   -0.2023   -1.7104    3.7479 H   0  0  0  0  0  0  0  0  0  0  0  0
    5.1655   -3.9202   -5.0254 H   0  0  0  0  0  0  0  0  0  0  0  0
    5.8415   -4.6018   -3.5121 H   0  0  0  0  0  0  0  0  0  0  0  0
  1  2  1  0
  2  3  1  0
  2  4  1  0
  4  5  1  0
  5  6  1  0
  6  7  1  0
  7  8  2  0
  7  9  1  0
  9 10  1  0
  9 11  1  0
 11 12  1  0
 12 13  2  0
 12 14  1  0
 14 15  1  0
 15 16  1  0
 15 17  1  0
 17 18  1  0
 18 19  1  0
 19 20  1  0
 19 21  1  0
 17 22  1  0
 22 23  1  0
 23 24  2  0
 23 25  1  0
 25 26  1  0
 26 27  1  0
 27 28  2  0
 27 29  1  0
 29 30  1  0
 30 31  1  0
 31 32  2  0
 31 33  1  0
 33 34  1  0
 34 35  1  0
 34 36  1  0
 29 37  1  0
 37 38  1  0
 37 39  1  0
 25 40  1  0
 40 41  1  0
 40 42  1  0
  5 43  1  0
 43 44  1  0
 43 45  2  0
  1 46  1  0
  1 47  1  0
  1 48  1  0
  2 49  1  0
  3 50  1  0
  3 51  1  0
  3 52  1  0
  4 53  1  0
  4 54  1  0
  5 55  1  6
  6 56  1  0
  9 57  1  6
 10 58  1  0
 10 59  1  0
 10 60  1  0
 11 61  1  0
 14 62  1  0
 14 63  1  0
 15 64  1  1
 16 65  1  0
 17 66  1  6
 18 67  1  0
 18 68  1  0
 19 69  1  0
 20 70  1  0
 20 71  1  0
 20 72  1  0
 21 73  1  0
 21 74  1  0
 21 75  1  0
 22 76  1  0
 25 77  1  1
 26 78  1  0
 29 79  1  6
 30 80  1  0
 33 81  1  0
 33 82  1  0
 34 83  1  0
 35 84  1  0
 35 85  1  0
 35 86  1  0
 36 87  1  0
 36 88  1  0
 36 89  1  0
 37 90  1  0
 38 91  1  0
 38 92  1  0
 38 93  1  0
 39 94  1  0
 39 95  1  0
 39 96  1  0
 40 97  1  0
 41 98  1  0
 41 99  1  0
 41100  1  0
 42101  1  0
 42102  1  0
 42103  1  0
 44104  1  0
 44105  1  0
M  END
$$$$
[H]O[C@]1([H])[C@@]([H])(C([H])([H])OP(=O)(O[H])OP(=O)(O[H])OP(=O)(O[H])O[H])O[C@@]([H])(n2c([H])c([H])c(=O)n([H])c2=S)[C@]1([H])O[H]
     RDKit          3D

 44 45  0  0  0  0  0  0  0  0999 V2000
   -0.5348    2.7403    0.7954 O   0  0  0  0  0  0  0  0  0  0  0  0
   -1.4728    1.7454    0.6365 C   0  0  1  0  0  0  0  0  0  0  0  0
   -2.1744    1.8425   -0.7377 C   0  0  1  0  0  0  0  0  0  0  0  0
   -1.0104    1.9857   -1.5803 O   0  0  0  0  0  0  0  0  0  0  0  0
   -2.7077    0.5469   -0.9227 C   0  0  1  0  0  0  0  0  0  0  0  0
   -1.9381   -0.3269   -0.0880 O   0  0  0  0  0  0  0  0  0  0  0  0
   -0.8717    0.3895    0.3186 C   0  0  2  0  0  0  0  0  0  0  0  0
   -0.0398   -0.0925    1.4398 C   0  0  0  0  0  0  0  0  0  0  0  0
    0.5113   -1.3501    1.0577 O   0  0  0  0  0  0  0  0  0  0  0  0
    1.9935   -1.0596    0.2934 P   0  0  0  0  0  0  0  0  0  0  0  0
    1.6926   -1.3070   -1.4083 O   0  0  0  0  0  0  0  0  0  0  0  0
    2.4990    0.3374    0.5085 O   0  0  0  0  0  0  0  0  0  0  0  0
    3.1471   -2.1723    0.6956 O   0  0  0  0  0  0  0  0  0  0  0  0
    4.6609   -1.7356    0.0331 P   0  0  0  0  0  0  0  0  0  0  0  0
    4.5879   -1.4525   -1.6142 O   0  0  0  0  0  0  0  0  0  0  0  0
    5.6169   -2.8482    0.3078 O   0  0  0  0  0  0  0  0  0  0  0  0
    5.1551   -0.3476    0.8670 O   0  0  0  0  0  0  0  0  0  0  0  0
    6.7603    0.0468    0.5161 P   0  0  0  0  0  0  0  0  0  0  0  0
    7.8226   -0.8929    1.4491 O   0  0  0  0  0  0  0  0  0  0  0  0
    7.0509    1.6681    0.9241 O   0  0  0  0  0  0  0  0  0  0  0  0
    7.0206   -0.1687   -0.9664 O   0  0  0  0  0  0  0  0  0  0  0  0
   -4.0212    0.0748   -0.7166 N   0  0  0  0  0  0  0  0  0  0  0  0
   -4.2592   -1.1849   -1.1157 C   0  0  0  0  0  0  0  0  0  0  0  0
   -5.4666   -1.8013   -1.0480 C   0  0  0  0  0  0  0  0  0  0  0  0
   -6.5401   -1.1050   -0.5289 C   0  0  0  0  0  0  0  0  0  0  0  0
   -7.7043   -1.6174   -0.4568 O   0  0  0  0  0  0  0  0  0  0  0  0
   -6.3057    0.1480   -0.1088 N   0  0  0  0  0  0  0  0  0  0  0  0
   -5.0563    0.6994   -0.2151 C   0  0  0  0  0  0  0  0  0  0  0  0
   -4.9353    2.2197    0.2423 S   0  0  0  0  0  0  0  0  0  0  0  0
   -0.7550    3.1650    1.6842 H   0  0  0  0  0  0  0  0  0  0  0  0
   -2.1371    1.5972    1.4706 H   0  0  0  0  0  0  0  0  0  0  0  0
   -2.6519    2.7716   -0.9318 H   0  0  0  0  0  0  0  0  0  0  0  0
   -0.9800    1.2513   -2.2425 H   0  0  0  0  0  0  0  0  0  0  0  0
   -2.4160    0.1741   -1.9599 H   0  0  0  0  0  0  0  0  0  0  0  0
   -0.1417    0.5416   -0.5584 H   0  0  0  0  0  0  0  0  0  0  0  0
   -0.7084   -0.3520    2.3146 H   0  0  0  0  0  0  0  0  0  0  0  0
    0.6975    0.6161    1.7548 H   0  0  0  0  0  0  0  0  0  0  0  0
    2.1157   -0.6109   -1.9130 H   0  0  0  0  0  0  0  0  0  0  0  0
    4.5330   -0.4877   -1.8556 H   0  0  0  0  0  0  0  0  0  0  0  0
    7.7759   -1.8545    1.2038 H   0  0  0  0  0  0  0  0  0  0  0  0
    7.3848    2.1766    0.1334 H   0  0  0  0  0  0  0  0  0  0  0  0
   -3.4444   -1.8175   -1.5201 H   0  0  0  0  0  0  0  0  0  0  0  0
   -5.6523   -2.8170   -1.3777 H   0  0  0  0  0  0  0  0  0  0  0  0
   -7.1002    0.6640    0.3202 H   0  0  0  0  0  0  0  0  0  0  0  0
  1  2  1  0
  2  3  1  0
  3  4  1  0
  3  5  1  0
  5  6  1  0
  6  7  1  0
  7  8  1  0
  8  9  1  0
  9 10  1  0
 10 11  1  0
 10 12  2  0
 10 13  1  0
 13 14  1  0
 14 15  1  0
 14 16  2  0
 14 17  1  0
 17 18  1  0
 18 19  1  0
 18 20  1  0
 18 21  2  0
  5 22  1  0
 22 23  1  0
 23 24  2  0
 24 25  1  0
 25 26  2  0
 25 27  1  0
 27 28  1  0
 28 29  2  0
  7  2  1  0
 28 22  1  0
  1 30  1  0
  2 31  1  1
  3 32  1  1
  4 33  1  0
  5 34  1  6
  7 35  1  6
  8 36  1  0
  8 37  1  0
 11 38  1  0
 15 39  1  0
 19 40  1  0
 20 41  1  0
 23 42  1  0
 24 43  1  0
 27 44  1  0
M  END
$$$$
[H]c1nc2c(nc([H])c(=O)n2[H])c(Oc2c([H])c([H])c(N([H])C(=O)N([H])c3c([H])c(C(C([H])([H])[H])(C([H])([H])[H])C([H])([H])[H])nn3-c3c([H])c([H])c(OC([H])([H])[H])c([H])c3[H])c3c([H])c([H])c([H])c([H])c23)c1[H]
     RDKit          3D

 72 77  0  0  0  0  0  0  0  0999 V2000
   -5.1485    6.2319   -1.4754 C   0  0  0  0  0  0  0  0  0  0  0  0
   -5.2814    5.0522   -2.2976 O   0  0  0  0  0  0  0  0  0  0  0  0
   -5.0233    3.8127   -1.7209 C   0  0  0  0  0  0  0  0  0  0  0  0
   -4.6121    3.6866   -0.4155 C   0  0  0  0  0  0  0  0  0  0  0  0
   -4.3702    2.4664    0.1584 C   0  0  0  0  0  0  0  0  0  0  0  0
   -4.5135    1.3176   -0.5218 C   0  0  0  0  0  0  0  0  0  0  0  0
   -4.9297    1.4170   -1.8771 C   0  0  0  0  0  0  0  0  0  0  0  0
   -5.1767    2.6579   -2.4504 C   0  0  0  0  0  0  0  0  0  0  0  0
   -4.3540    0.0232    0.0620 N   0  0  0  0  0  0  0  0  0  0  0  0
   -5.4522   -0.7221    0.2962 N   0  0  0  0  0  0  0  0  0  0  0  0
   -5.1548   -1.8679    0.8495 C   0  0  0  0  0  0  0  0  0  0  0  0
   -3.7813   -1.8573    0.9863 C   0  0  0  0  0  0  0  0  0  0  0  0
   -3.2545   -0.6207    0.4671 C   0  0  0  0  0  0  0  0  0  0  0  0
   -1.8810   -0.4983    0.3884 N   0  0  0  0  0  0  0  0  0  0  0  0
   -1.0655    0.3675   -0.4308 C   0  0  0  0  0  0  0  0  0  0  0  0
   -1.6012    1.1091   -1.2349 O   0  0  0  0  0  0  0  0  0  0  0  0
    0.3158    0.3383   -0.2974 N   0  0  0  0  0  0  0  0  0  0  0  0
    1.6429    0.3157   -0.1752 C   0  0  0  0  0  0  0  0  0  0  0  0
    2.4008    1.4529   -0.5463 C   0  0  0  0  0  0  0  0  0  0  0  0
    3.7237    1.5280   -0.3982 C   0  0  0  0  0  0  0  0  0  0  0  0
    4.4334    0.4368    0.1503 C   0  0  0  0  0  0  0  0  0  0  0  0
    5.7870    0.6864    0.2057 O   0  0  0  0  0  0  0  0  0  0  0  0
    6.7849    0.1516   -0.5506 C   0  0  0  0  0  0  0  0  0  0  0  0
    6.6911   -0.8769   -1.4339 C   0  0  0  0  0  0  0  0  0  0  0  0
    7.7958   -1.3436   -2.1707 C   0  0  0  0  0  0  0  0  0  0  0  0
    8.9621   -0.7415   -1.9867 N   0  0  0  0  0  0  0  0  0  0  0  0
    9.1116    0.2926   -1.1223 C   0  0  0  0  0  0  0  0  0  0  0  0
   10.3210    0.8882   -1.0250 N   0  0  0  0  0  0  0  0  0  0  0  0
   10.4976    1.9366   -0.2032 C   0  0  0  0  0  0  0  0  0  0  0  0
   11.6159    2.5067   -0.1157 O   0  0  0  0  0  0  0  0  0  0  0  0
    9.3915    2.3905    0.5414 C   0  0  0  0  0  0  0  0  0  0  0  0
    8.2003    1.7984    0.4356 N   0  0  0  0  0  0  0  0  0  0  0  0
    8.0489    0.7509   -0.3982 C   0  0  0  0  0  0  0  0  0  0  0  0
    3.7456   -0.6530    0.5200 C   0  0  0  0  0  0  0  0  0  0  0  0
    4.4464   -1.7085    1.0917 C   0  0  0  0  0  0  0  0  0  0  0  0
    3.8154   -2.8434    1.5129 C   0  0  0  0  0  0  0  0  0  0  0  0
    2.4597   -2.9194    1.3651 C   0  0  0  0  0  0  0  0  0  0  0  0
    1.7586   -1.8812    0.8004 C   0  0  0  0  0  0  0  0  0  0  0  0
    2.3677   -0.7263    0.3660 C   0  0  0  0  0  0  0  0  0  0  0  0
   -6.0302   -3.0302    1.2522 C   0  0  0  0  0  0  0  0  0  0  0  0
   -7.3181   -3.0055    0.4272 C   0  0  0  0  0  0  0  0  0  0  0  0
   -5.3302   -4.3405    0.9722 C   0  0  0  0  0  0  0  0  0  0  0  0
   -6.3821   -2.9770    2.6908 C   0  0  0  0  0  0  0  0  0  0  0  0
   -4.1233    6.4052   -1.1982 H   0  0  0  0  0  0  0  0  0  0  0  0
   -5.4299    7.0810   -2.1572 H   0  0  0  0  0  0  0  0  0  0  0  0
   -5.7751    6.1634   -0.5693 H   0  0  0  0  0  0  0  0  0  0  0  0
   -4.4773    4.6434    0.1192 H   0  0  0  0  0  0  0  0  0  0  0  0
   -4.0775    2.4880    1.2003 H   0  0  0  0  0  0  0  0  0  0  0  0
   -5.0460    0.4887   -2.3927 H   0  0  0  0  0  0  0  0  0  0  0  0
   -5.5186    2.6876   -3.4862 H   0  0  0  0  0  0  0  0  0  0  0  0
   -3.2396   -2.6523    1.4112 H   0  0  0  0  0  0  0  0  0  0  0  0
   -1.3295   -1.1379    1.0767 H   0  0  0  0  0  0  0  0  0  0  0  0
    0.4301    0.7515   -1.6111 H   0  0  0  0  0  0  0  0  0  0  0  0
    1.8307    2.2987   -0.9775 H   0  0  0  0  0  0  0  0  0  0  0  0
    4.3120    2.3972   -0.6848 H   0  0  0  0  0  0  0  0  0  0  0  0
    5.7565   -1.3432   -1.6231 H   0  0  0  0  0  0  0  0  0  0  0  0
    7.6624   -2.1662   -2.8732 H   0  0  0  0  0  0  0  0  0  0  0  0
   11.1207    0.5356   -1.5878 H   0  0  0  0  0  0  0  0  0  0  0  0
    9.5921    3.2252    1.1754 H   0  0  0  0  0  0  0  0  0  0  0  0
    5.5308   -1.6576    1.2623 H   0  0  0  0  0  0  0  0  0  0  0  0
    4.3610   -3.6651    1.9604 H   0  0  0  0  0  0  0  0  0  0  0  0
    1.8941   -3.7528    1.6919 H   0  0  0  0  0  0  0  0  0  0  0  0
    0.7028   -1.9648    0.6647 H   0  0  0  0  0  0  0  0  0  0  0  0
   -7.9166   -3.9099    0.6408 H   0  0  0  0  0  0  0  0  0  0  0  0
   -7.0866   -2.8670   -0.6285 H   0  0  0  0  0  0  0  0  0  0  0  0
   -7.9428   -2.1561    0.7466 H   0  0  0  0  0  0  0  0  0  0  0  0
   -4.3061   -4.3632    1.4266 H   0  0  0  0  0  0  0  0  0  0  0  0
   -5.1869   -4.4345   -0.1227 H   0  0  0  0  0  0  0  0  0  0  0  0
   -5.8896   -5.1825    1.3920 H   0  0  0  0  0  0  0  0  0  0  0  0
   -6.5953   -3.9989    3.0352 H   0  0  0  0  0  0  0  0  0  0  0  0
   -7.3316   -2.3635    2.8482 H   0  0  0  0  0  0  0  0  0  0  0  0
   -5.5784   -2.5527    3.3106 H   0  0  0  0  0  0  0  0  0  0  0  0
  1  2  1  0
  2  3  1  0
  3  4  2  0
  4  5  1  0
  5  6  2  0
  6  7  1  0
  7  8  2  0
  6  9  1  0
  9 10  1  0
 10 11  2  0
 11 12  1  0
 12 13  2  0
 13 14  1  0
 14 15  1  0
 15 16  2  0
 15 17  1  0
 17 18  1  0
 18 19  2  0
 19 20  1  0
 20 21  2  0
 21 22  1  0
 22 23  1  0
 23 24  2  0
 24 25  1  0
 25 26  2  0
 26 27  1  0
 27 28  1  0
 28 29  1  0
 29 30  2  0
 29 31  1  0
 31 32  2  0
 32 33  1  0
 21 34  1  0
 34 35  2  0
 35 36  1  0
 36 37  2  0
 37 38  1  0
 38 39  2  0
 11 40  1  0
 40 41  1  0
 40 42  1  0
 40 43  1  0
  8  3  1  0
 13  9  1  0
 39 18  1  0
 33 23  1  0
 39 34  1  0
 33 27  2  0
  1 44  1  0
  1 45  1  0
  1 46  1  0
  4 47  1  0
  5 48  1  0
  7 49  1  0
  8 50  1  0
 12 51  1  0
 14 52  1  0
 17 53  1  0
 19 54  1  0
 20 55  1  0
 24 56  1  0
 25 57  1  0
 28 58  1  0
 31 59  1  0
 35 60  1  0
 36 61  1  0
 37 62  1  0
 38 63  1  0
 41 64  1  0
 41 65  1  0
 41 66  1  0
 42 67  1  0
 42 68  1  0
 42 69  1  0
 43 70  1  0
 43 71  1  0
 43 72  1  0
M  END
$$$$
[H]c1nc2c(c([H])c1[H])c(C1=C(c3nc(N4C([H])([H])C([H])([H])N(C([H])([H])[H])C([H])([H])C4([H])[H])nc4c([H])c([H])c(F)c([H])c34)C(=O)N([H])C1=O)c([H])n2[H]
     RDKit          3D

 54 59  0  0  0  0  0  0  0  0999 V2000
   -6.8338    0.9889   -1.5444 C   0  0  0  0  0  0  0  0  0  0  0  0
   -5.6328    0.7898   -0.8165 N   0  0  0  0  0  0  0  0  0  0  0  0
   -4.5762    1.6857   -1.0411 C   0  0  0  0  0  0  0  0  0  0  0  0
   -3.2677    1.0885   -1.4646 C   0  0  0  0  0  0  0  0  0  0  0  0
   -3.0240   -0.1362   -0.7131 N   0  0  0  0  0  0  0  0  0  0  0  0
   -4.0653   -1.1281   -0.7459 C   0  0  0  0  0  0  0  0  0  0  0  0
   -5.3640   -0.5124   -0.3619 C   0  0  0  0  0  0  0  0  0  0  0  0
   -1.8023   -0.2696   -0.0109 C   0  0  0  0  0  0  0  0  0  0  0  0
   -0.8598    0.6804   -0.0149 N   0  0  0  0  0  0  0  0  0  0  0  0
    0.3112    0.5338    0.6694 C   0  0  0  0  0  0  0  0  0  0  0  0
    1.3095    1.5852    0.6620 C   0  0  0  0  0  0  0  0  0  0  0  0
    2.5250    1.5622    0.1204 C   0  0  0  0  0  0  0  0  0  0  0  0
    3.1468    2.8486    0.3789 C   0  0  0  0  0  0  0  0  0  0  0  0
    4.3100    3.2098    0.0154 O   0  0  0  0  0  0  0  0  0  0  0  0
    2.2433    3.6581    1.1098 N   0  0  0  0  0  0  0  0  0  0  0  0
    1.0753    2.8785    1.2993 C   0  0  0  0  0  0  0  0  0  0  0  0
    0.0582    3.2962    1.9176 O   0  0  0  0  0  0  0  0  0  0  0  0
    3.1108    0.4637   -0.6722 C   0  0  0  0  0  0  0  0  0  0  0  0
    2.4723   -0.2037   -1.7196 C   0  0  0  0  0  0  0  0  0  0  0  0
    3.2970   -1.1521   -2.1960 N   0  0  0  0  0  0  0  0  0  0  0  0
    4.4622   -1.1469   -1.5087 C   0  0  0  0  0  0  0  0  0  0  0  0
    5.5767   -1.8908   -1.5970 N   0  0  0  0  0  0  0  0  0  0  0  0
    6.6396   -1.7275   -0.7959 C   0  0  0  0  0  0  0  0  0  0  0  0
    6.5551   -0.7394    0.1567 C   0  0  0  0  0  0  0  0  0  0  0  0
    5.4228    0.0438    0.2739 C   0  0  0  0  0  0  0  0  0  0  0  0
    4.3390   -0.1338   -0.5563 C   0  0  0  0  0  0  0  0  0  0  0  0
    0.5168   -0.6132    1.3754 C   0  0  0  0  0  0  0  0  0  0  0  0
    1.6360   -0.8731    2.1276 C   0  0  0  0  0  0  0  0  0  0  0  0
    1.8007   -2.0561    2.8561 C   0  0  0  0  0  0  0  0  0  0  0  0
    2.9129   -2.2955    3.5920 F   0  0  0  0  0  0  0  0  0  0  0  0
    0.8155   -3.0052    2.8314 C   0  0  0  0  0  0  0  0  0  0  0  0
   -0.3182   -2.7877    2.0974 C   0  0  0  0  0  0  0  0  0  0  0  0
   -0.4582   -1.6196    1.3910 C   0  0  0  0  0  0  0  0  0  0  0  0
   -1.5785   -1.3882    0.6869 N   0  0  0  0  0  0  0  0  0  0  0  0
   -7.6787    1.0261   -0.8073 H   0  0  0  0  0  0  0  0  0  0  0  0
   -7.0647    0.0938   -2.1946 H   0  0  0  0  0  0  0  0  0  0  0  0
   -6.8543    1.8832   -2.1745 H   0  0  0  0  0  0  0  0  0  0  0  0
   -4.8821    2.4330   -1.8109 H   0  0  0  0  0  0  0  0  0  0  0  0
   -4.3902    2.2855   -0.1146 H   0  0  0  0  0  0  0  0  0  0  0  0
   -3.2341    0.8421   -2.5593 H   0  0  0  0  0  0  0  0  0  0  0  0
   -2.4762    1.8461   -1.2960 H   0  0  0  0  0  0  0  0  0  0  0  0
   -4.1625   -1.4749   -1.8107 H   0  0  0  0  0  0  0  0  0  0  0  0
   -3.8574   -1.9889   -0.0664 H   0  0  0  0  0  0  0  0  0  0  0  0
   -6.1740   -1.1909   -0.7310 H   0  0  0  0  0  0  0  0  0  0  0  0
   -5.4467   -0.5309    0.7631 H   0  0  0  0  0  0  0  0  0  0  0  0
    2.4214    4.6535    1.4432 H   0  0  0  0  0  0  0  0  0  0  0  0
    1.4745    0.0336   -2.0630 H   0  0  0  0  0  0  0  0  0  0  0  0
    3.1180   -1.8340   -2.9905 H   0  0  0  0  0  0  0  0  0  0  0  0
    7.5405   -2.3492   -0.8880 H   0  0  0  0  0  0  0  0  0  0  0  0
    7.3848   -0.5610    0.8348 H   0  0  0  0  0  0  0  0  0  0  0  0
    5.3433    0.8176    1.0328 H   0  0  0  0  0  0  0  0  0  0  0  0
    2.4236   -0.1205    2.1849 H   0  0  0  0  0  0  0  0  0  0  0  0
    0.8706   -3.9535    3.3716 H   0  0  0  0  0  0  0  0  0  0  0  0
   -1.1119   -3.5449    2.0744 H   0  0  0  0  0  0  0  0  0  0  0  0
  1  2  1  0
  2  3  1  0
  3  4  1  0
  4  5  1  0
  5  6  1  0
  6  7  1  0
  5  8  1  0
  8  9  2  0
  9 10  1  0
 10 11  1  0
 11 12  2  0
 12 13  1  0
 13 14  2  0
 13 15  1  0
 15 16  1  0
 16 17  2  0
 12 18  1  0
 18 19  2  0
 19 20  1  0
 20 21  1  0
 21 22  2  0
 22 23  1  0
 23 24  2  0
 24 25  1  0
 25 26  2  0
 10 27  2  0
 27 28  1  0
 28 29  2  0
 29 30  1  0
 29 31  1  0
 31 32  2  0
 32 33  1  0
 33 34  2  0
  7  2  1  0
 34  8  1  0
 16 11  1  0
 26 18  1  0
 33 27  1  0
 26 21  1  0
  1 35  1  0
  1 36  1  0
  1 37  1  0
  3 38  1  0
  3 39  1  0
  4 40  1  0
  4 41  1  0
  6 42  1  0
  6 43  1  0
  7 44  1  0
  7 45  1  0
 15 46  1  0
 19 47  1  0
 20 48  1  0
 23 49  1  0
 24 50  1  0
 25 51  1  0
 28 52  1  0
 31 53  1  0
 32 54  1  0
M  END
$$$$
[H]O[C@@]1([H])C([H])=C(C(=O)N([H])[C@]2([H])[C@]([H])(O[H])[C@]([H])(O[H])[C@]([H])(O[H])[C@@]2([H])O[H])O[C@]([H])(O[C@@]([H])(n2c([H])c([H])c(=O)n([H])c2=O)[C@@]2([H])O[C@@]([H])(C(=O)N([H])[H])[C@]([H])(O[H])[C@]2([H])OC([H])([H])[H])[C@@]1([H])O[H]
     RDKit          3D

 71 74  0  0  0  0  0  0  0  0999 V2000
   -3.2371    1.6110   -2.7033 C   0  0  0  0  0  0  0  0  0  0  0  0
   -3.3647    0.3532   -2.1857 O   0  0  0  0  0  0  0  0  0  0  0  0
   -4.0069    0.2606   -0.9666 C   0  0  1  0  0  0  0  0  0  0  0  0
   -5.2890   -0.5501   -1.2347 C   0  0  1  0  0  0  0  0  0  0  0  0
   -5.4539   -0.8126   -2.5842 O   0  0  0  0  0  0  0  0  0  0  0  0
   -5.0023   -1.8019   -0.4362 C   0  0  1  0  0  0  0  0  0  0  0  0
   -4.3472   -1.2380    0.6873 O   0  0  0  0  0  0  0  0  0  0  0  0
   -3.2906   -0.5340    0.0575 C   0  0  2  0  0  0  0  0  0  0  0  0
   -2.4815    0.2389    1.0617 C   0  0  1  0  0  0  0  0  0  0  0  0
   -1.4351    0.9333    0.4696 O   0  0  0  0  0  0  0  0  0  0  0  0
   -0.1889    0.4804    0.8671 C   0  0  1  0  0  0  0  0  0  0  0  0
    0.6427    0.0671   -0.1631 O   0  0  0  0  0  0  0  0  0  0  0  0
    2.0201    0.2673   -0.2165 C   0  0  0  0  0  0  0  0  0  0  0  0
    2.4688    1.4019    0.2762 C   0  0  0  0  0  0  0  0  0  0  0  0
    1.4658    2.3540    0.8389 C   0  0  2  0  0  0  0  0  0  0  0  0
    2.0436    3.3188    1.6409 O   0  0  0  0  0  0  0  0  0  0  0  0
    0.5226    1.5435    1.6999 C   0  0  2  0  0  0  0  0  0  0  0  0
    1.3149    0.9433    2.6968 O   0  0  0  0  0  0  0  0  0  0  0  0
    2.9285   -0.7044   -0.7781 C   0  0  0  0  0  0  0  0  0  0  0  0
    2.4854   -1.7984   -1.2524 O   0  0  0  0  0  0  0  0  0  0  0  0
    4.3188   -0.4505   -0.8065 N   0  0  0  0  0  0  0  0  0  0  0  0
    5.2036   -1.4569   -1.3827 C   0  0  2  0  0  0  0  0  0  0  0  0
    6.1809   -1.8706   -0.3181 C   0  0  2  0  0  0  0  0  0  0  0  0
    6.6725   -0.7948    0.4083 O   0  0  0  0  0  0  0  0  0  0  0  0
    7.2776   -2.5194   -1.1372 C   0  0  2  0  0  0  0  0  0  0  0  0
    8.4550   -2.6704   -0.4282 O   0  0  0  0  0  0  0  0  0  0  0  0
    7.4278   -1.5264   -2.2709 C   0  0  2  0  0  0  0  0  0  0  0  0
    8.4190   -0.5688   -1.9623 O   0  0  0  0  0  0  0  0  0  0  0  0
    6.1064   -0.8459   -2.4360 C   0  0  1  0  0  0  0  0  0  0  0  0
    5.6498   -1.0937   -3.7313 O   0  0  0  0  0  0  0  0  0  0  0  0
   -3.3034    1.0950    1.8831 N   0  0  0  0  0  0  0  0  0  0  0  0
   -4.0599    0.5111    2.8502 C   0  0  0  0  0  0  0  0  0  0  0  0
   -4.8697    1.2456    3.6808 C   0  0  0  0  0  0  0  0  0  0  0  0
   -4.9270    2.6144    3.5416 C   0  0  0  0  0  0  0  0  0  0  0  0
   -5.6686    3.2893    4.3020 O   0  0  0  0  0  0  0  0  0  0  0  0
   -4.1669    3.1520    2.5779 N   0  0  0  0  0  0  0  0  0  0  0  0
   -3.3773    2.4278    1.7695 C   0  0  0  0  0  0  0  0  0  0  0  0
   -2.6837    2.9908    0.8821 O   0  0  0  0  0  0  0  0  0  0  0  0
   -6.2282   -2.4846   -0.0063 C   0  0  0  0  0  0  0  0  0  0  0  0
   -6.6006   -2.4918    1.3446 N   0  0  0  0  0  0  0  0  0  0  0  0
   -6.9378   -3.0618   -0.8700 O   0  0  0  0  0  0  0  0  0  0  0  0
   -2.7006    1.4892   -3.6913 H   0  0  0  0  0  0  0  0  0  0  0  0
   -4.1604    2.1549   -2.9134 H   0  0  0  0  0  0  0  0  0  0  0  0
   -2.5043    2.2415   -2.1133 H   0  0  0  0  0  0  0  0  0  0  0  0
   -4.3308    1.2418   -0.5913 H   0  0  0  0  0  0  0  0  0  0  0  0
   -6.1726    0.0003   -0.8212 H   0  0  0  0  0  0  0  0  0  0  0  0
   -6.2983   -0.3833   -2.8748 H   0  0  0  0  0  0  0  0  0  0  0  0
   -4.3253   -2.4182   -1.0330 H   0  0  0  0  0  0  0  0  0  0  0  0
   -2.6822   -1.3740   -0.3891 H   0  0  0  0  0  0  0  0  0  0  0  0
   -2.0769   -0.5464    1.7754 H   0  0  0  0  0  0  0  0  0  0  0  0
   -0.3372   -0.3702    1.5755 H   0  0  0  0  0  0  0  0  0  0  0  0
    3.4975    1.7089    0.3109 H   0  0  0  0  0  0  0  0  0  0  0  0
    0.9164    2.7878   -0.0304 H   0  0  0  0  0  0  0  0  0  0  0  0
    1.4600    4.1236    1.6577 H   0  0  0  0  0  0  0  0  0  0  0  0
   -0.2135    2.1709    2.2198 H   0  0  0  0  0  0  0  0  0  0  0  0
    1.9888    1.6260    2.9913 H   0  0  0  0  0  0  0  0  0  0  0  0
    4.7444    0.4065   -0.4425 H   0  0  0  0  0  0  0  0  0  0  0  0
    4.6531   -2.3289   -1.7365 H   0  0  0  0  0  0  0  0  0  0  0  0
    5.6882   -2.5804    0.3632 H   0  0  0  0  0  0  0  0  0  0  0  0
    6.7429   -0.0370   -0.1936 H   0  0  0  0  0  0  0  0  0  0  0  0
    6.8947   -3.4790   -1.5134 H   0  0  0  0  0  0  0  0  0  0  0  0
    8.6039   -1.8534    0.1121 H   0  0  0  0  0  0  0  0  0  0  0  0
    7.7770   -2.0367   -3.1905 H   0  0  0  0  0  0  0  0  0  0  0  0
    8.4520    0.0197   -2.7730 H   0  0  0  0  0  0  0  0  0  0  0  0
    6.2012    0.2519   -2.2623 H   0  0  0  0  0  0  0  0  0  0  0  0
    4.6919   -0.8825   -3.7445 H   0  0  0  0  0  0  0  0  0  0  0  0
   -4.0189   -0.5575    2.9769 H   0  0  0  0  0  0  0  0  0  0  0  0
   -5.4813    0.7745    4.4637 H   0  0  0  0  0  0  0  0  0  0  0  0
   -4.2118    4.1922    2.4740 H   0  0  0  0  0  0  0  0  0  0  0  0
   -6.8117   -3.3406    1.8920 H   0  0  0  0  0  0  0  0  0  0  0  0
   -6.6698   -1.5714    1.8362 H   0  0  0  0  0  0  0  0  0  0  0  0
  1  2  1  0
  2  3  1  0
  3  4  1  0
  4  5  1  0
  4  6  1  0
  6  7  1  0
  7  8  1  0
  8  9  1  0
  9 10  1  0
 10 11  1  0
 11 12  1  0
 12 13  1  0
 13 14  2  0
 14 15  1  0
 15 16  1  0
 15 17  1  0
 17 18  1  0
 13 19  1  0
 19 20  2  0
 19 21  1  0
 21 22  1  0
 22 23  1  0
 23 24  1  0
 23 25  1  0
 25 26  1  0
 25 27  1  0
 27 28  1  0
 27 29  1  0
 29 30  1  0
  9 31  1  0
 31 32  1  0
 32 33  2  0
 33 34  1  0
 34 35  2  0
 34 36  1  0
 36 37  1  0
 37 38  2  0
  6 39  1  0
 39 40  1  0
 39 41  2  0
  8  3  1  0
 17 11  1  0
 29 22  1  0
 37 31  1  0
  1 42  1  0
  1 43  1  0
  1 44  1  0
  3 45  1  1
  4 46  1  1
  5 47  1  0
  6 48  1  6
  8 49  1  6
  9 50  1  1
 11 51  1  1
 14 52  1  0
 15 53  1  6
 16 54  1  0
 17 55  1  1
 18 56  1  0
 21 57  1  0
 22 58  1  6
 23 59  1  1
 24 60  1  0
 25 61  1  6
 26 62  1  0
 27 63  1  6
 28 64  1  0
 29 65  1  1
 30 66  1  0
 32 67  1  0
 33 68  1  0
 36 69  1  0
 40 70  1  0
 40 71  1  0
M  END
$$$$
[H]c1c([H])c(C([H])([H])N2C([H])([H])C([H])([H])N(C([H])([H])[H])C([H])([H])C2([H])[H])c(C(F)(F)F)c([H])c1C(=O)N([H])c1c([H])c([H])c(C([H])([H])[H])c(C(=O)N([H])[H])c1[H]
     RDKit          3D

 56 58  0  0  0  0  0  0  0  0999 V2000
    7.7340   -1.5634   -1.0979 C   0  0  0  0  0  0  0  0  0  0  0  0
    6.3977   -1.0603   -0.8380 N   0  0  0  0  0  0  0  0  0  0  0  0
    5.8045   -0.6319   -2.0866 C   0  0  0  0  0  0  0  0  0  0  0  0
    4.4552    0.0186   -1.8811 C   0  0  0  0  0  0  0  0  0  0  0  0
    4.4111    0.8876   -0.7576 N   0  0  0  0  0  0  0  0  0  0  0  0
    3.6396    0.4943    0.3590 C   0  0  0  0  0  0  0  0  0  0  0  0
    2.1961    0.3931    0.2135 C   0  0  0  0  0  0  0  0  0  0  0  0
    1.5817    0.7363   -0.9605 C   0  0  0  0  0  0  0  0  0  0  0  0
    0.2028    0.6790   -1.1491 C   0  0  0  0  0  0  0  0  0  0  0  0
   -0.6134    0.2585   -0.1164 C   0  0  0  0  0  0  0  0  0  0  0  0
   -0.0043   -0.0832    1.0527 C   0  0  0  0  0  0  0  0  0  0  0  0
    1.3685   -0.0325    1.2591 C   0  0  0  0  0  0  0  0  0  0  0  0
    1.9455   -0.4178    2.5470 C   0  0  0  0  0  0  0  0  0  0  0  0
    2.6469    0.5893    3.1858 F   0  0  0  0  0  0  0  0  0  0  0  0
    2.6850   -1.5872    2.4799 F   0  0  0  0  0  0  0  0  0  0  0  0
    0.8909   -0.7187    3.4219 F   0  0  0  0  0  0  0  0  0  0  0  0
   -2.0807    0.1889   -0.3183 C   0  0  0  0  0  0  0  0  0  0  0  0
   -2.4920    0.1895   -1.4806 O   0  0  0  0  0  0  0  0  0  0  0  0
   -2.9563    0.1261    0.7842 N   0  0  0  0  0  0  0  0  0  0  0  0
   -4.3503    0.0486    0.7998 C   0  0  0  0  0  0  0  0  0  0  0  0
   -5.0101    0.3057    1.9972 C   0  0  0  0  0  0  0  0  0  0  0  0
   -6.3774    0.2273    2.0601 C   0  0  0  0  0  0  0  0  0  0  0  0
   -7.1701   -0.1061    0.9572 C   0  0  0  0  0  0  0  0  0  0  0  0
   -8.6371   -0.1612    1.1220 C   0  0  0  0  0  0  0  0  0  0  0  0
   -6.4975   -0.3560   -0.2135 C   0  0  0  0  0  0  0  0  0  0  0  0
   -5.0866   -0.2776   -0.2877 C   0  0  0  0  0  0  0  0  0  0  0  0
   -7.2301   -0.7154   -1.4139 C   0  0  0  0  0  0  0  0  0  0  0  0
   -8.6253   -0.8574   -1.4540 N   0  0  0  0  0  0  0  0  0  0  0  0
   -6.5479   -0.9102   -2.4860 O   0  0  0  0  0  0  0  0  0  0  0  0
    5.7561    1.1881   -0.3213 C   0  0  0  0  0  0  0  0  0  0  0  0
    6.5023   -0.0246    0.1412 C   0  0  0  0  0  0  0  0  0  0  0  0
    8.1689   -1.8419   -0.1139 H   0  0  0  0  0  0  0  0  0  0  0  0
    8.3744   -0.7802   -1.5498 H   0  0  0  0  0  0  0  0  0  0  0  0
    7.6837   -2.4739   -1.7141 H   0  0  0  0  0  0  0  0  0  0  0  0
    6.4802    0.1210   -2.5793 H   0  0  0  0  0  0  0  0  0  0  0  0
    5.6629   -1.5339   -2.7135 H   0  0  0  0  0  0  0  0  0  0  0  0
    4.2784    0.6355   -2.8114 H   0  0  0  0  0  0  0  0  0  0  0  0
    3.6702   -0.7599   -1.8990 H   0  0  0  0  0  0  0  0  0  0  0  0
    3.8324    1.2894    1.1520 H   0  0  0  0  0  0  0  0  0  0  0  0
    4.1171   -0.4047    0.8045 H   0  0  0  0  0  0  0  0  0  0  0  0
    2.1431    1.0900   -1.8191 H   0  0  0  0  0  0  0  0  0  0  0  0
   -0.2422    0.9600   -2.0966 H   0  0  0  0  0  0  0  0  0  0  0  0
   -0.6259   -0.4292    1.8969 H   0  0  0  0  0  0  0  0  0  0  0  0
   -2.4979    0.1391    1.7658 H   0  0  0  0  0  0  0  0  0  0  0  0
   -4.4708    0.5748    2.9126 H   0  0  0  0  0  0  0  0  0  0  0  0
   -6.8594    0.4317    3.0006 H   0  0  0  0  0  0  0  0  0  0  0  0
   -9.0765   -1.1638    1.0059 H   0  0  0  0  0  0  0  0  0  0  0  0
   -9.1244    0.6295    0.5244 H   0  0  0  0  0  0  0  0  0  0  0  0
   -8.8457    0.1307    2.2045 H   0  0  0  0  0  0  0  0  0  0  0  0
   -4.6429   -0.5070   -1.2700 H   0  0  0  0  0  0  0  0  0  0  0  0
   -9.0620   -1.7799   -1.2467 H   0  0  0  0  0  0  0  0  0  0  0  0
   -9.2605   -0.0693   -1.6981 H   0  0  0  0  0  0  0  0  0  0  0  0
    6.2963    1.6148   -1.1911 H   0  0  0  0  0  0  0  0  0  0  0  0
    5.7392    1.9591    0.4874 H   0  0  0  0  0  0  0  0  0  0  0  0
    6.1570   -0.4069    1.1214 H   0  0  0  0  0  0  0  0  0  0  0  0
    7.5655    0.2947    0.3085 H   0  0  0  0  0  0  0  0  0  0  0  0
  1  2  1  0
  2  3  1  0
  3  4  1  0
  4  5  1  0
  5  6  1  0
  6  7  1  0
  7  8  2  0
  8  9  1  0
  9 10  2  0
 10 11  1  0
 11 12  2  0
 12 13  1  0
 13 14  1  0
 13 15  1  0
 13 16  1  0
 10 17  1  0
 17 18  2  0
 17 19  1  0
 19 20  1  0
 20 21  2  0
 21 22  1  0
 22 23  2  0
 23 24  1  0
 23 25  1  0
 25 26  2  0
 25 27  1  0
 27 28  1  0
 27 29  2  0
  5 30  1  0
 30 31  1  0
 31  2  1  0
 12  7  1  0
 26 20  1  0
  1 32  1  0
  1 33  1  0
  1 34  1  0
  3 35  1  0
  3 36  1  0
  4 37  1  0
  4 38  1  0
  6 39  1  0
  6 40  1  0
  8 41  1  0
  9 42  1  0
 11 43  1  0
 19 44  1  0
 21 45  1  0
 22 46  1  0
 24 47  1  0
 24 48  1  0
 24 49  1  0
 26 50  1  0
 28 51  1  0
 28 52  1  0
 30 53  1  0
 30 54  1  0
 31 55  1  0
 31 56  1  0
M  END
$$$$
[H]O[C@]1([H])[C@]([H])(n2c([H])c([H])c(=O)n([H])c2=S)O[C@]([H])(C([H])([H])OP(=O)(O[H])OP(=O)(O[H])OP(=O)(O[H])O[H])[C@]1([H])O[H]
     RDKit          3D

 44 45  0  0  0  0  0  0  0  0999 V2000
   -0.1318    2.0311    0.3656 O   0  0  0  0  0  0  0  0  0  0  0  0
   -1.2047    2.0321   -0.5225 C   0  0  2  0  0  0  0  0  0  0  0  0
   -2.5095    1.7611    0.1967 C   0  0  2  0  0  0  0  0  0  0  0  0
   -2.3166    1.0308    1.3677 O   0  0  0  0  0  0  0  0  0  0  0  0
   -3.2549    0.9467   -0.8228 C   0  0  1  0  0  0  0  0  0  0  0  0
   -2.2909    0.2162   -1.5041 O   0  0  0  0  0  0  0  0  0  0  0  0
   -1.1380    0.9526   -1.5391 C   0  0  2  0  0  0  0  0  0  0  0  0
    0.1054    0.1177   -1.3149 C   0  0  0  0  0  0  0  0  0  0  0  0
    1.2039    0.9547   -1.3700 O   0  0  0  0  0  0  0  0  0  0  0  0
    2.6549    0.1485   -1.1354 P   0  0  0  0  0  0  0  0  0  0  0  0
    3.0828   -0.7046   -2.5435 O   0  0  0  0  0  0  0  0  0  0  0  0
    3.7326    1.2058   -0.9405 O   0  0  0  0  0  0  0  0  0  0  0  0
    2.5371   -0.8595    0.1989 O   0  0  0  0  0  0  0  0  0  0  0  0
    4.0553   -1.2100    0.8677 P   0  0  0  0  0  0  0  0  0  0  0  0
    4.8662   -2.2259   -0.2408 O   0  0  0  0  0  0  0  0  0  0  0  0
    3.8214   -1.8974    2.1798 O   0  0  0  0  0  0  0  0  0  0  0  0
    4.9525    0.1878    1.1180 O   0  0  0  0  0  0  0  0  0  0  0  0
    6.5950   -0.1087    0.8201 P   0  0  0  0  0  0  0  0  0  0  0  0
    7.1174   -1.4893    1.6415 O   0  0  0  0  0  0  0  0  0  0  0  0
    7.4910    1.2612    1.2882 O   0  0  0  0  0  0  0  0  0  0  0  0
    6.8468   -0.3207   -0.6540 O   0  0  0  0  0  0  0  0  0  0  0  0
   -4.1714   -0.0044   -0.2229 N   0  0  0  0  0  0  0  0  0  0  0  0
   -3.8267   -1.2712    0.0772 C   0  0  0  0  0  0  0  0  0  0  0  0
   -4.7069   -2.1664    0.6474 C   0  0  0  0  0  0  0  0  0  0  0  0
   -5.9952   -1.7647    0.9280 C   0  0  0  0  0  0  0  0  0  0  0  0
   -6.8411   -2.5593    1.4547 O   0  0  0  0  0  0  0  0  0  0  0  0
   -6.3251   -0.4973    0.6229 N   0  0  0  0  0  0  0  0  0  0  0  0
   -5.4466    0.3424    0.0712 C   0  0  0  0  0  0  0  0  0  0  0  0
   -5.9043    1.8579   -0.2734 S   0  0  0  0  0  0  0  0  0  0  0  0
   -0.0766    2.9370    0.7685 H   0  0  0  0  0  0  0  0  0  0  0  0
   -1.2710    3.0200   -1.0537 H   0  0  0  0  0  0  0  0  0  0  0  0
   -2.9814    2.7428    0.3925 H   0  0  0  0  0  0  0  0  0  0  0  0
   -1.8372    0.2051    1.1382 H   0  0  0  0  0  0  0  0  0  0  0  0
   -3.7592    1.5986   -1.5783 H   0  0  0  0  0  0  0  0  0  0  0  0
   -1.0502    1.3759   -2.5808 H   0  0  0  0  0  0  0  0  0  0  0  0
    0.1633   -0.7462   -1.9843 H   0  0  0  0  0  0  0  0  0  0  0  0
    0.0496   -0.2926   -0.2719 H   0  0  0  0  0  0  0  0  0  0  0  0
    2.7301   -1.6464   -2.5001 H   0  0  0  0  0  0  0  0  0  0  0  0
    4.8612   -1.7454   -1.1055 H   0  0  0  0  0  0  0  0  0  0  0  0
    6.9854   -2.2580    1.0342 H   0  0  0  0  0  0  0  0  0  0  0  0
    7.7280    1.8048    0.5010 H   0  0  0  0  0  0  0  0  0  0  0  0
   -2.8121   -1.5702   -0.1493 H   0  0  0  0  0  0  0  0  0  0  0  0
   -4.4211   -3.1806    0.8846 H   0  0  0  0  0  0  0  0  0  0  0  0
   -7.3075   -0.2120    0.8436 H   0  0  0  0  0  0  0  0  0  0  0  0
  1  2  1  0
  2  3  1  0
  3  4  1  0
  3  5  1  0
  5  6  1  0
  6  7  1  0
  7  8  1  0
  8  9  1  0
  9 10  1  0
 10 11  1  0
 10 12  2  0
 10 13  1  0
 13 14  1  0
 14 15  1  0
 14 16  2  0
 14 17  1  0
 17 18  1  0
 18 19  1  0
 18 20  1  0
 18 21  2  0
  5 22  1  0
 22 23  1  0
 23 24  2  0
 24 25  1  0
 25 26  2  0
 25 27  1  0
 27 28  1  0
 28 29  2  0
  7  2  1  0
 28 22  1  0
  1 30  1  0
  2 31  1  6
  3 32  1  1
  4 33  1  0
  5 34  1  6
  7 35  1  6
  8 36  1  0
  8 37  1  0
 11 38  1  0
 15 39  1  0
 19 40  1  0
 20 41  1  0
 23 42  1  0
 24 43  1  0
 27 44  1  0
M  END
$$$$
[H]N=C(N([H])[H])N([H])C([H])([H])C([H])([H])C([H])([H])[C@@]([H])(C(=O)N([H])[C@]([H])(C(=O)N([H])[C@]([H])(C(=N[H])N([H])[H])C([H])([H])c1c([H])c([H])c([H])c([H])c1[H])C([H])([H])C(=N[H])N([H])[H])N([H])C(=O)[C@@]([H])(N([H])C(=O)[C@@]([H])(N([H])C(=O)OC([H])([H])c1c([H])c([H])c([H])c([H])c1[H])C([H])([H])C([H])([H])C([H])([H])N([H])C(=N[H])N([H])[H])C([H])([H])c1c([H])c([H])c([H])c([H])c1[H]
     RDKit          3D

122124  0  0  0  0  0  0  0  0999 V2000
   -8.8204    1.6892   -0.0529 N   0  0  0  0  0  0  0  0  0  0  0  0
   -7.8462    0.8787    0.5569 C   0  0  0  0  0  0  0  0  0  0  0  0
   -7.4543    1.0605    1.7469 N   0  0  0  0  0  0  0  0  0  0  0  0
   -7.2770   -0.1894   -0.2045 N   0  0  0  0  0  0  0  0  0  0  0  0
   -6.9404   -0.2656   -1.5362 C   0  0  0  0  0  0  0  0  0  0  0  0
   -5.7816    0.3349   -2.2373 C   0  0  0  0  0  0  0  0  0  0  0  0
   -4.4317   -0.0758   -1.7884 C   0  0  0  0  0  0  0  0  0  0  0  0
   -3.8531    0.3604   -0.5016 C   0  0  2  0  0  0  0  0  0  0  0  0
   -3.5018    1.7181   -0.3354 N   0  0  0  0  0  0  0  0  0  0  0  0
   -4.1547    2.9157   -0.1577 C   0  0  0  0  0  0  0  0  0  0  0  0
   -5.3770    3.1264   -0.0872 O   0  0  0  0  0  0  0  0  0  0  0  0
   -3.3889    4.1096   -0.0306 O   0  0  0  0  0  0  0  0  0  0  0  0
   -3.9515    5.3807    0.1345 C   0  0  0  0  0  0  0  0  0  0  0  0
   -4.7535    5.4254    1.3760 C   0  0  0  0  0  0  0  0  0  0  0  0
   -6.1286    5.7115    1.3312 C   0  0  0  0  0  0  0  0  0  0  0  0
   -6.8938    5.7900    2.4702 C   0  0  0  0  0  0  0  0  0  0  0  0
   -6.3035    5.5783    3.7255 C   0  0  0  0  0  0  0  0  0  0  0  0
   -4.9641    5.2992    3.7581 C   0  0  0  0  0  0  0  0  0  0  0  0
   -4.1958    5.2216    2.6247 C   0  0  0  0  0  0  0  0  0  0  0  0
   -2.9749   -0.6329    0.1193 C   0  0  0  0  0  0  0  0  0  0  0  0
   -2.7044   -0.4493    1.3594 O   0  0  0  0  0  0  0  0  0  0  0  0
   -2.3907   -1.7539   -0.4753 N   0  0  0  0  0  0  0  0  0  0  0  0
   -1.5556   -2.7370    0.1584 C   0  0  1  0  0  0  0  0  0  0  0  0
   -1.6372   -4.0322   -0.5611 C   0  0  0  0  0  0  0  0  0  0  0  0
   -3.0417   -4.5129   -0.5643 C   0  0  0  0  0  0  0  0  0  0  0  0
   -3.4797   -5.2153    0.5418 C   0  0  0  0  0  0  0  0  0  0  0  0
   -4.7667   -5.6992    0.5327 C   0  0  0  0  0  0  0  0  0  0  0  0
   -5.5977   -5.4816   -0.5634 C   0  0  0  0  0  0  0  0  0  0  0  0
   -5.1436   -4.7689   -1.6754 C   0  0  0  0  0  0  0  0  0  0  0  0
   -3.8464   -4.2948   -1.6393 C   0  0  0  0  0  0  0  0  0  0  0  0
   -0.1311   -2.2202    0.3403 C   0  0  0  0  0  0  0  0  0  0  0  0
   -0.0668   -0.9662    0.2318 O   0  0  0  0  0  0  0  0  0  0  0  0
    0.9055   -3.1089    0.5915 N   0  0  0  0  0  0  0  0  0  0  0  0
    2.2943   -2.9404    0.8261 C   0  0  1  0  0  0  0  0  0  0  0  0
    3.1488   -4.0788    0.4266 C   0  0  0  0  0  0  0  0  0  0  0  0
    2.8149   -5.3902    1.1090 C   0  0  0  0  0  0  0  0  0  0  0  0
    2.9196   -5.3607    2.5908 C   0  0  0  0  0  0  0  0  0  0  0  0
    4.2495   -5.0281    2.9924 N   0  0  0  0  0  0  0  0  0  0  0  0
    5.3525   -5.9092    2.7930 C   0  0  0  0  0  0  0  0  0  0  0  0
    5.1032   -7.2658    2.5094 N   0  0  0  0  0  0  0  0  0  0  0  0
    6.5475   -5.4890    2.8611 N   0  0  0  0  0  0  0  0  0  0  0  0
    2.9303   -1.6446    0.5740 C   0  0  0  0  0  0  0  0  0  0  0  0
    2.4633   -0.5717    1.0430 O   0  0  0  0  0  0  0  0  0  0  0  0
    4.1311   -1.4801   -0.2187 N   0  0  0  0  0  0  0  0  0  0  0  0
    4.7751   -0.2190   -0.3845 C   0  0  1  0  0  0  0  0  0  0  0  0
    6.1866   -0.3805   -0.8820 C   0  0  0  0  0  0  0  0  0  0  0  0
    7.0437   -1.1630    0.0284 C   0  0  0  0  0  0  0  0  0  0  0  0
    6.9551   -2.5802    0.0019 N   0  0  0  0  0  0  0  0  0  0  0  0
    7.8641   -0.6247    0.8837 N   0  0  0  0  0  0  0  0  0  0  0  0
    3.9975    0.7889   -1.1965 C   0  0  0  0  0  0  0  0  0  0  0  0
    2.8942    0.4427   -1.6426 O   0  0  0  0  0  0  0  0  0  0  0  0
    4.5430    2.0745   -1.4139 N   0  0  0  0  0  0  0  0  0  0  0  0
    3.8248    3.0663   -2.1677 C   0  0  1  0  0  0  0  0  0  0  0  0
    3.3992    4.2303   -1.2799 C   0  0  0  0  0  0  0  0  0  0  0  0
    4.5293    4.8900   -0.6247 C   0  0  0  0  0  0  0  0  0  0  0  0
    5.1887    5.9531   -1.1650 C   0  0  0  0  0  0  0  0  0  0  0  0
    6.2569    6.5120   -0.4990 C   0  0  0  0  0  0  0  0  0  0  0  0
    6.6830    6.0102    0.7271 C   0  0  0  0  0  0  0  0  0  0  0  0
    6.0229    4.9417    1.2745 C   0  0  0  0  0  0  0  0  0  0  0  0
    4.9558    4.3986    0.5898 C   0  0  0  0  0  0  0  0  0  0  0  0
    4.5320    3.4694   -3.3845 C   0  0  0  0  0  0  0  0  0  0  0  0
    4.0355    4.4844   -4.2591 N   0  0  0  0  0  0  0  0  0  0  0  0
    5.6626    2.9114   -3.7413 N   0  0  0  0  0  0  0  0  0  0  0  0
   -8.7753    2.7171    0.0889 H   0  0  0  0  0  0  0  0  0  0  0  0
   -9.5751    1.2946   -0.6313 H   0  0  0  0  0  0  0  0  0  0  0  0
   -7.8947    1.8697    2.3039 H   0  0  0  0  0  0  0  0  0  0  0  0
   -7.0973   -1.0655    0.4176 H   0  0  0  0  0  0  0  0  0  0  0  0
   -7.8670    0.0672   -2.1529 H   0  0  0  0  0  0  0  0  0  0  0  0
   -6.9324   -1.3904   -1.8421 H   0  0  0  0  0  0  0  0  0  0  0  0
   -5.8455   -0.1101   -3.3145 H   0  0  0  0  0  0  0  0  0  0  0  0
   -5.8527    1.4180   -2.3676 H   0  0  0  0  0  0  0  0  0  0  0  0
   -4.3037   -1.2008   -1.8423 H   0  0  0  0  0  0  0  0  0  0  0  0
   -3.7195    0.2664   -2.6052 H   0  0  0  0  0  0  0  0  0  0  0  0
   -4.8137    0.2856    0.2139 H   0  0  0  0  0  0  0  0  0  0  0  0
   -2.3717    1.8083   -0.3630 H   0  0  0  0  0  0  0  0  0  0  0  0
   -4.6257    5.6307   -0.7379 H   0  0  0  0  0  0  0  0  0  0  0  0
   -3.1462    6.1447    0.1858 H   0  0  0  0  0  0  0  0  0  0  0  0
   -6.5313    5.8580    0.3240 H   0  0  0  0  0  0  0  0  0  0  0  0
   -7.9350    6.0175    2.3438 H   0  0  0  0  0  0  0  0  0  0  0  0
   -6.8943    5.6416    4.6118 H   0  0  0  0  0  0  0  0  0  0  0  0
   -4.4283    5.1185    4.6970 H   0  0  0  0  0  0  0  0  0  0  0  0
   -3.1235    5.0006    2.6625 H   0  0  0  0  0  0  0  0  0  0  0  0
   -2.5651   -1.8750   -1.5160 H   0  0  0  0  0  0  0  0  0  0  0  0
   -1.8924   -2.7885    1.2376 H   0  0  0  0  0  0  0  0  0  0  0  0
   -1.0023   -4.8314   -0.1029 H   0  0  0  0  0  0  0  0  0  0  0  0
   -1.3272   -3.9442   -1.6320 H   0  0  0  0  0  0  0  0  0  0  0  0
   -2.8448   -5.3880    1.4023 H   0  0  0  0  0  0  0  0  0  0  0  0
   -5.1261   -6.2619    1.3941 H   0  0  0  0  0  0  0  0  0  0  0  0
   -6.5928   -5.8832   -0.5142 H   0  0  0  0  0  0  0  0  0  0  0  0
   -5.8225   -4.6268   -2.4875 H   0  0  0  0  0  0  0  0  0  0  0  0
   -3.5383   -3.7487   -2.5330 H   0  0  0  0  0  0  0  0  0  0  0  0
    0.5953   -4.1636    0.6231 H   0  0  0  0  0  0  0  0  0  0  0  0
    2.3087   -2.9637    2.0304 H   0  0  0  0  0  0  0  0  0  0  0  0
    3.0527   -4.2559   -0.6664 H   0  0  0  0  0  0  0  0  0  0  0  0
    4.2359   -3.8206    0.6065 H   0  0  0  0  0  0  0  0  0  0  0  0
    1.8305   -5.7334    0.7426 H   0  0  0  0  0  0  0  0  0  0  0  0
    3.5596   -6.1455    0.7175 H   0  0  0  0  0  0  0  0  0  0  0  0
    2.1548   -4.6721    3.0220 H   0  0  0  0  0  0  0  0  0  0  0  0
    2.6864   -6.4018    2.9564 H   0  0  0  0  0  0  0  0  0  0  0  0
    4.4408   -4.1071    3.4557 H   0  0  0  0  0  0  0  0  0  0  0  0
    4.5790   -7.8416    3.2038 H   0  0  0  0  0  0  0  0  0  0  0  0
    5.4179   -7.7200    1.6377 H   0  0  0  0  0  0  0  0  0  0  0  0
    7.3606   -6.1270    2.7183 H   0  0  0  0  0  0  0  0  0  0  0  0
    4.5027   -2.3417   -0.6904 H   0  0  0  0  0  0  0  0  0  0  0  0
    4.7470    0.2781    0.6435 H   0  0  0  0  0  0  0  0  0  0  0  0
    6.6827    0.6261   -1.0114 H   0  0  0  0  0  0  0  0  0  0  0  0
    6.1892   -0.8006   -1.9262 H   0  0  0  0  0  0  0  0  0  0  0  0
    7.2075   -3.1497   -0.8330 H   0  0  0  0  0  0  0  0  0  0  0  0
    6.6168   -3.1280    0.8549 H   0  0  0  0  0  0  0  0  0  0  0  0
    7.9025    0.4073    0.9109 H   0  0  0  0  0  0  0  0  0  0  0  0
    5.4854    2.2851   -1.0145 H   0  0  0  0  0  0  0  0  0  0  0  0
    2.8453    2.5803   -2.4714 H   0  0  0  0  0  0  0  0  0  0  0  0
    2.6319    3.8422   -0.5965 H   0  0  0  0  0  0  0  0  0  0  0  0
    2.8805    4.9643   -1.9666 H   0  0  0  0  0  0  0  0  0  0  0  0
    4.8880    6.3834   -2.1141 H   0  0  0  0  0  0  0  0  0  0  0  0
    6.7937    7.3725   -0.9255 H   0  0  0  0  0  0  0  0  0  0  0  0
    7.5429    6.4742    1.2421 H   0  0  0  0  0  0  0  0  0  0  0  0
    6.3479    4.5230    2.2398 H   0  0  0  0  0  0  0  0  0  0  0  0
    4.4496    3.5390    1.0618 H   0  0  0  0  0  0  0  0  0  0  0  0
    4.5958    5.0540   -4.8926 H   0  0  0  0  0  0  0  0  0  0  0  0
    2.9799    4.6206   -4.1996 H   0  0  0  0  0  0  0  0  0  0  0  0
    6.0765    2.1547   -3.1406 H   0  0  0  0  0  0  0  0  0  0  0  0
  1  2  1  0
  2  3  2  3
  2  4  1  0
  4  5  1  0
  5  6  1  0
  6  7  1  0
  7  8  1  0
  8  9  1  0
  9 10  1  0
 10 11  2  0
 10 12  1  0
 12 13  1  0
 13 14  1  0
 14 15  2  0
 15 16  1  0
 16 17  2  0
 17 18  1  0
 18 19  2  0
  8 20  1  0
 20 21  2  0
 20 22  1  0
 22 23  1  0
 23 24  1  0
 24 25  1  0
 25 26  2  0
 26 27  1  0
 27 28  2  0
 28 29  1  0
 29 30  2  0
 23 31  1  0
 31 32  2  0
 31 33  1  0
 33 34  1  0
 34 35  1  0
 35 36  1  0
 36 37  1  0
 37 38  1  0
 38 39  1  0
 39 40  1  0
 39 41  2  3
 34 42  1  0
 42 43  2  0
 42 44  1  0
 44 45  1  0
 45 46  1  0
 46 47  1  0
 47 48  1  0
 47 49  2  3
 45 50  1  0
 50 51  2  0
 50 52  1  0
 52 53  1  0
 53 54  1  0
 54 55  1  0
 55 56  2  0
 56 57  1  0
 57 58  2  0
 58 59  1  0
 59 60  2  0
 53 61  1  0
 61 62  1  0
 61 63  2  3
 19 14  1  0
 30 25  1  0
 60 55  1  0
  1 64  1  0
  1 65  1  0
  3 66  1  0
  4 67  1  0
  5 68  1  0
  5 69  1  0
  6 70  1  0
  6 71  1  0
  7 72  1  0
  7 73  1  0
  8 74  1  1
  9 75  1  0
 13 76  1  0
 13 77  1  0
 15 78  1  0
 16 79  1  0
 17 80  1  0
 18 81  1  0
 19 82  1  0
 22 83  1  0
 23 84  1  1
 24 85  1  0
 24 86  1  0
 26 87  1  0
 27 88  1  0
 28 89  1  0
 29 90  1  0
 30 91  1  0
 33 92  1  0
 34 93  1  1
 35 94  1  0
 35 95  1  0
 36 96  1  0
 36 97  1  0
 37 98  1  0
 37 99  1  0
 38100  1  0
 40101  1  0
 40102  1  0
 41103  1  0
 44104  1  0
 45105  1  1
 46106  1  0
 46107  1  0
 48108  1  0
 48109  1  0
 49110  1  0
 52111  1  0
 53112  1  6
 54113  1  0
 54114  1  0
 56115  1  0
 57116  1  0
 58117  1  0
 59118  1  0
 60119  1  0
 62120  1  0
 62121  1  0
 63122  1  0
M  END
$$$$
[H]OC([H])([H])C([H])([H])N1C([H])([H])C([H])([H])N(C2([H])C([H])([H])C([H])([H])N(c3c([H])c([H])c(N([H])c4nc([H])c(Cl)c(N([H])c5c([H])c([H])c([H])c([H])c5S(=O)(=O)C([H])(C([H])([H])[H])C([H])([H])[H])n4)c(OC([H])([H])[H])c3[H])C([H])([H])C2([H])[H])C([H])([H])C1([H])[H]
     RDKit          3D

 86 90  0  0  0  0  0  0  0  0999 V2000
   -2.3459   -2.1504   -4.2563 C   0  0  0  0  0  0  0  0  0  0  0  0
   -0.9888   -2.0985   -3.8706 O   0  0  0  0  0  0  0  0  0  0  0  0
   -0.6176   -1.4203   -2.7103 C   0  0  0  0  0  0  0  0  0  0  0  0
   -1.5770   -0.8045   -1.9469 C   0  0  0  0  0  0  0  0  0  0  0  0
   -1.2657   -0.1240   -0.7955 C   0  0  0  0  0  0  0  0  0  0  0  0
    0.0673   -0.0988   -0.4576 C   0  0  0  0  0  0  0  0  0  0  0  0
    1.0667   -0.7112   -1.2053 C   0  0  0  0  0  0  0  0  0  0  0  0
    0.7274   -1.3800   -2.3455 C   0  0  0  0  0  0  0  0  0  0  0  0
    1.6716   -2.0273   -3.1764 N   0  0  0  0  0  0  0  0  0  0  0  0
    3.0441   -2.1878   -3.0782 C   0  0  0  0  0  0  0  0  0  0  0  0
    3.6362   -2.9294   -4.0905 N   0  0  0  0  0  0  0  0  0  0  0  0
    4.9418   -3.1767   -4.1246 C   0  0  0  0  0  0  0  0  0  0  0  0
    5.7750   -2.7010   -3.1448 C   0  0  0  0  0  0  0  0  0  0  0  0
    7.4819   -3.0613   -3.2530 Cl  0  0  0  0  0  0  0  0  0  0  0  0
    5.2171   -1.9456   -2.1044 C   0  0  0  0  0  0  0  0  0  0  0  0
    6.1120   -1.5387   -1.1019 N   0  0  0  0  0  0  0  0  0  0  0  0
    5.9386   -0.7127    0.0129 C   0  0  0  0  0  0  0  0  0  0  0  0
    4.8734    0.1680    0.1570 C   0  0  0  0  0  0  0  0  0  0  0  0
    4.8025    0.9774    1.2704 C   0  0  0  0  0  0  0  0  0  0  0  0
    5.7488    0.9565    2.2598 C   0  0  0  0  0  0  0  0  0  0  0  0
    6.8117    0.0568    2.0826 C   0  0  0  0  0  0  0  0  0  0  0  0
    6.9358   -0.7693    1.0028 C   0  0  0  0  0  0  0  0  0  0  0  0
    8.2849   -1.8304    0.9188 S   0  0  0  0  0  0  0  0  0  0  0  0
    7.7680   -3.2451    0.9584 O   0  0  0  0  0  0  0  0  0  0  0  0
    9.2142   -1.6411   -0.2205 O   0  0  0  0  0  0  0  0  0  0  0  0
    9.2964   -1.6299    2.3919 C   0  0  0  0  0  0  0  0  0  0  0  0
   10.3484   -2.7514    2.2975 C   0  0  0  0  0  0  0  0  0  0  0  0
   10.0624   -0.3513    2.4036 C   0  0  0  0  0  0  0  0  0  0  0  0
    3.8922   -1.7527   -2.1616 N   0  0  0  0  0  0  0  0  0  0  0  0
   -2.2004    0.5129    0.0575 N   0  0  0  0  0  0  0  0  0  0  0  0
   -3.4741   -0.1017    0.2961 C   0  0  0  0  0  0  0  0  0  0  0  0
   -4.6234    0.8650    0.3140 C   0  0  0  0  0  0  0  0  0  0  0  0
   -4.2638    2.0813    1.1438 C   0  0  0  0  0  0  0  0  0  0  0  0
   -3.0368    2.7638    0.6634 C   0  0  0  0  0  0  0  0  0  0  0  0
   -1.8725    1.7645    0.6600 C   0  0  0  0  0  0  0  0  0  0  0  0
   -5.4143    2.8795    1.3399 N   0  0  0  0  0  0  0  0  0  0  0  0
   -6.0506    3.4296    0.1996 C   0  0  0  0  0  0  0  0  0  0  0  0
   -7.3767    2.7117   -0.0831 C   0  0  0  0  0  0  0  0  0  0  0  0
   -8.2662    2.9710    0.9968 N   0  0  0  0  0  0  0  0  0  0  0  0
   -9.1442    1.8806    1.3222 C   0  0  0  0  0  0  0  0  0  0  0  0
  -10.1784    1.5547    0.3038 C   0  0  0  0  0  0  0  0  0  0  0  0
  -11.0582    2.5669    0.0040 O   0  0  0  0  0  0  0  0  0  0  0  0
   -7.5691    3.3588    2.2327 C   0  0  0  0  0  0  0  0  0  0  0  0
   -6.3495    2.4395    2.3242 C   0  0  0  0  0  0  0  0  0  0  0  0
   -2.3947   -2.6541   -5.2658 H   0  0  0  0  0  0  0  0  0  0  0  0
   -2.7423   -1.1215   -4.4086 H   0  0  0  0  0  0  0  0  0  0  0  0
   -2.9300   -2.7158   -3.4951 H   0  0  0  0  0  0  0  0  0  0  0  0
   -2.6335   -0.8300   -2.2347 H   0  0  0  0  0  0  0  0  0  0  0  0
    0.3606    0.4252    0.4401 H   0  0  0  0  0  0  0  0  0  0  0  0
    2.0845   -0.6710   -0.8889 H   0  0  0  0  0  0  0  0  0  0  0  0
    1.2420   -2.4924   -4.0785 H   0  0  0  0  0  0  0  0  0  0  0  0
    5.3802   -3.7709   -4.9451 H   0  0  0  0  0  0  0  0  0  0  0  0
    7.1069   -1.9337   -1.2145 H   0  0  0  0  0  0  0  0  0  0  0  0
    4.1308    0.2164   -0.6278 H   0  0  0  0  0  0  0  0  0  0  0  0
    3.9481    1.6413    1.3242 H   0  0  0  0  0  0  0  0  0  0  0  0
    5.6853    1.5988    3.1372 H   0  0  0  0  0  0  0  0  0  0  0  0
    7.5239    0.0882    2.9110 H   0  0  0  0  0  0  0  0  0  0  0  0
    8.7490   -1.8099    3.3137 H   0  0  0  0  0  0  0  0  0  0  0  0
    9.9208   -3.7202    2.6315 H   0  0  0  0  0  0  0  0  0  0  0  0
   11.2300   -2.5372    2.9322 H   0  0  0  0  0  0  0  0  0  0  0  0
   10.7052   -2.8725    1.2574 H   0  0  0  0  0  0  0  0  0  0  0  0
    9.9643    0.0795    3.4441 H   0  0  0  0  0  0  0  0  0  0  0  0
    9.5920    0.4054    1.7422 H   0  0  0  0  0  0  0  0  0  0  0  0
   11.1403   -0.4664    2.2251 H   0  0  0  0  0  0  0  0  0  0  0  0
   -3.4353   -0.7003    1.2444 H   0  0  0  0  0  0  0  0  0  0  0  0
   -3.6305   -0.8938   -0.4929 H   0  0  0  0  0  0  0  0  0  0  0  0
   -5.4526    0.3536    0.8617 H   0  0  0  0  0  0  0  0  0  0  0  0
   -4.8710    1.1234   -0.7259 H   0  0  0  0  0  0  0  0  0  0  0  0
   -4.0022    1.6515    2.1623 H   0  0  0  0  0  0  0  0  0  0  0  0
   -2.7693    3.5499    1.4150 H   0  0  0  0  0  0  0  0  0  0  0  0
   -3.0916    3.1653   -0.3529 H   0  0  0  0  0  0  0  0  0  0  0  0
   -1.4700    1.6535    1.6842 H   0  0  0  0  0  0  0  0  0  0  0  0
   -1.0228    2.2133    0.0552 H   0  0  0  0  0  0  0  0  0  0  0  0
   -6.3709    4.4843    0.4478 H   0  0  0  0  0  0  0  0  0  0  0  0
   -5.4250    3.5274   -0.6998 H   0  0  0  0  0  0  0  0  0  0  0  0
   -7.7573    3.1900   -1.0276 H   0  0  0  0  0  0  0  0  0  0  0  0
   -7.1458    1.6564   -0.2206 H   0  0  0  0  0  0  0  0  0  0  0  0
   -9.6772    2.1490    2.2662 H   0  0  0  0  0  0  0  0  0  0  0  0
   -8.5643    0.9578    1.5119 H   0  0  0  0  0  0  0  0  0  0  0  0
   -9.7443    1.0730   -0.6152 H   0  0  0  0  0  0  0  0  0  0  0  0
  -10.8044    0.7288    0.7567 H   0  0  0  0  0  0  0  0  0  0  0  0
  -10.7455    2.9876   -0.8374 H   0  0  0  0  0  0  0  0  0  0  0  0
   -8.2178    3.1438    3.1143 H   0  0  0  0  0  0  0  0  0  0  0  0
   -7.3087    4.4153    2.2504 H   0  0  0  0  0  0  0  0  0  0  0  0
   -6.7051    1.4146    2.1874 H   0  0  0  0  0  0  0  0  0  0  0  0
   -5.8972    2.6267    3.3285 H   0  0  0  0  0  0  0  0  0  0  0  0
  1  2  1  0
  2  3  1  0
  3  4  2  0
  4  5  1  0
  5  6  2  0
  6  7  1  0
  7  8  2  0
  8  9  1  0
  9 10  1  0
 10 11  2  0
 11 12  1  0
 12 13  2  0
 13 14  1  0
 13 15  1  0
 15 16  1  0
 16 17  1  0
 17 18  2  0
 18 19  1  0
 19 20  2  0
 20 21  1  0
 21 22  2  0
 22 23  1  0
 23 24  2  0
 23 25  2  0
 23 26  1  0
 26 27  1  0
 26 28  1  0
 15 29  2  0
  5 30  1  0
 30 31  1  0
 31 32  1  0
 32 33  1  0
 33 34  1  0
 34 35  1  0
 33 36  1  0
 36 37  1  0
 37 38  1  0
 38 39  1  0
 39 40  1  0
 40 41  1  0
 41 42  1  0
 39 43  1  0
 43 44  1  0
  8  3  1  0
 29 10  1  0
 35 30  1  0
 44 36  1  0
 22 17  1  0
  1 45  1  0
  1 46  1  0
  1 47  1  0
  4 48  1  0
  6 49  1  0
  7 50  1  0
  9 51  1  0
 12 52  1  0
 16 53  1  0
 18 54  1  0
 19 55  1  0
 20 56  1  0
 21 57  1  0
 26 58  1  0
 27 59  1  0
 27 60  1  0
 27 61  1  0
 28 62  1  0
 28 63  1  0
 28 64  1  0
 31 65  1  0
 31 66  1  0
 32 67  1  0
 32 68  1  0
 33 69  1  0
 34 70  1  0
 34 71  1  0
 35 72  1  0
 35 73  1  0
 37 74  1  0
 37 75  1  0
 38 76  1  0
 38 77  1  0
 40 78  1  0
 40 79  1  0
 41 80  1  0
 41 81  1  0
 42 82  1  0
 43 83  1  0
 43 84  1  0
 44 85  1  0
 44 86  1  0
M  END
$$$$
[H]c1nc2c([H])c([H])c([H])c([H])n2c1C(=O)N([H])c1c([H])c(N([H])C(=O)c2c([H])c([H])c(C([H])([H])N3C([H])([H])C([H])([H])N(C([H])([H])[H])C([H])([H])C3([H])[H])c(C(F)(F)F)c2[H])c([H])c([H])c1C([H])([H])[H]
     RDKit          3D

 69 73  0  0  0  0  0  0  0  0999 V2000
    9.2006   -1.9543   -0.5875 C   0  0  0  0  0  0  0  0  0  0  0  0
    8.0158   -1.1863   -0.7540 N   0  0  0  0  0  0  0  0  0  0  0  0
    7.7395   -0.7236   -2.0714 C   0  0  0  0  0  0  0  0  0  0  0  0
    6.5166   -1.2473   -2.7038 C   0  0  0  0  0  0  0  0  0  0  0  0
    5.3621   -1.1552   -1.7871 N   0  0  0  0  0  0  0  0  0  0  0  0
    5.2334    0.1929   -1.3308 C   0  0  0  0  0  0  0  0  0  0  0  0
    4.0104    0.5161   -0.5900 C   0  0  0  0  0  0  0  0  0  0  0  0
    2.9804   -0.3874   -0.4274 C   0  0  0  0  0  0  0  0  0  0  0  0
    1.7874   -0.0795    0.2392 C   0  0  0  0  0  0  0  0  0  0  0  0
    1.6105    1.1733    0.7634 C   0  0  0  0  0  0  0  0  0  0  0  0
    2.6199    2.0725    0.6079 C   0  0  0  0  0  0  0  0  0  0  0  0
    3.8206    1.7797   -0.0565 C   0  0  0  0  0  0  0  0  0  0  0  0
    4.8604    2.8008   -0.1724 C   0  0  0  0  0  0  0  0  0  0  0  0
    6.0548    2.5047    0.4386 F   0  0  0  0  0  0  0  0  0  0  0  0
    5.0499    3.2263   -1.4820 F   0  0  0  0  0  0  0  0  0  0  0  0
    4.4097    3.9543    0.4921 F   0  0  0  0  0  0  0  0  0  0  0  0
    0.3819    1.5665    1.4683 C   0  0  0  0  0  0  0  0  0  0  0  0
    0.4800    2.5562    2.2173 O   0  0  0  0  0  0  0  0  0  0  0  0
   -0.8278    0.8799    1.3152 N   0  0  0  0  0  0  0  0  0  0  0  0
   -2.0396    1.1963    1.9673 C   0  0  0  0  0  0  0  0  0  0  0  0
   -2.1674    1.8989    3.1259 C   0  0  0  0  0  0  0  0  0  0  0  0
   -3.4095    2.1714    3.6516 C   0  0  0  0  0  0  0  0  0  0  0  0
   -4.5561    1.7435    3.0251 C   0  0  0  0  0  0  0  0  0  0  0  0
   -5.8906    2.0373    3.5924 C   0  0  0  0  0  0  0  0  0  0  0  0
   -4.4721    1.0211    1.8379 C   0  0  0  0  0  0  0  0  0  0  0  0
   -5.6614    0.6137    1.2365 N   0  0  0  0  0  0  0  0  0  0  0  0
   -5.8771   -0.1050    0.0521 C   0  0  0  0  0  0  0  0  0  0  0  0
   -4.9330   -0.4950   -0.6557 O   0  0  0  0  0  0  0  0  0  0  0  0
   -7.2479   -0.4270   -0.4020 C   0  0  0  0  0  0  0  0  0  0  0  0
   -8.3909   -0.0743    0.2844 C   0  0  0  0  0  0  0  0  0  0  0  0
   -9.4366   -0.5205   -0.4167 N   0  0  0  0  0  0  0  0  0  0  0  0
   -8.9875   -1.1392   -1.5160 C   0  0  0  0  0  0  0  0  0  0  0  0
   -9.6643   -1.7682   -2.5585 C   0  0  0  0  0  0  0  0  0  0  0  0
   -8.9585   -2.3378   -3.5910 C   0  0  0  0  0  0  0  0  0  0  0  0
   -7.5809   -2.2571   -3.5434 C   0  0  0  0  0  0  0  0  0  0  0  0
   -6.9299   -1.6302   -2.5028 C   0  0  0  0  0  0  0  0  0  0  0  0
   -7.6275   -1.0770   -1.4993 N   0  0  0  0  0  0  0  0  0  0  0  0
   -3.2164    0.7623    1.3333 C   0  0  0  0  0  0  0  0  0  0  0  0
    5.7347   -2.1102   -0.7391 C   0  0  0  0  0  0  0  0  0  0  0  0
    6.8854   -1.5593    0.0174 C   0  0  0  0  0  0  0  0  0  0  0  0
   10.0206   -1.4285   -1.1234 H   0  0  0  0  0  0  0  0  0  0  0  0
    9.0691   -2.9481   -1.0517 H   0  0  0  0  0  0  0  0  0  0  0  0
    9.5188   -2.0052    0.4733 H   0  0  0  0  0  0  0  0  0  0  0  0
    7.7641    0.3825   -2.1336 H   0  0  0  0  0  0  0  0  0  0  0  0
    8.6117   -1.0522   -2.7133 H   0  0  0  0  0  0  0  0  0  0  0  0
    6.3260   -0.7506   -3.6584 H   0  0  0  0  0  0  0  0  0  0  0  0
    6.6574   -2.3567   -2.8628 H   0  0  0  0  0  0  0  0  0  0  0  0
    5.1756    0.8049   -2.2950 H   0  0  0  0  0  0  0  0  0  0  0  0
    6.1696    0.5147   -0.8856 H   0  0  0  0  0  0  0  0  0  0  0  0
    3.0529   -1.3949   -0.8434 H   0  0  0  0  0  0  0  0  0  0  0  0
    1.0172   -0.8252    0.3373 H   0  0  0  0  0  0  0  0  0  0  0  0
    2.5017    3.0758    1.0168 H   0  0  0  0  0  0  0  0  0  0  0  0
   -0.7888    0.0480    0.6401 H   0  0  0  0  0  0  0  0  0  0  0  0
   -1.3030    2.2390    3.6518 H   0  0  0  0  0  0  0  0  0  0  0  0
   -3.5341    2.7357    4.5836 H   0  0  0  0  0  0  0  0  0  0  0  0
   -5.7626    2.6164    4.5254 H   0  0  0  0  0  0  0  0  0  0  0  0
   -6.5214    2.6552    2.9158 H   0  0  0  0  0  0  0  0  0  0  0  0
   -6.4194    1.0978    3.8693 H   0  0  0  0  0  0  0  0  0  0  0  0
   -6.5753    0.8820    1.7433 H   0  0  0  0  0  0  0  0  0  0  0  0
   -8.4809    0.4705    1.2311 H   0  0  0  0  0  0  0  0  0  0  0  0
  -10.7481   -1.7927   -2.5291 H   0  0  0  0  0  0  0  0  0  0  0  0
   -9.4633   -2.8240   -4.3979 H   0  0  0  0  0  0  0  0  0  0  0  0
   -6.9726   -2.6969   -4.3462 H   0  0  0  0  0  0  0  0  0  0  0  0
   -5.8520   -1.6072   -2.5357 H   0  0  0  0  0  0  0  0  0  0  0  0
   -3.0860    0.2121    0.4254 H   0  0  0  0  0  0  0  0  0  0  0  0
    6.0406   -3.0338   -1.3114 H   0  0  0  0  0  0  0  0  0  0  0  0
    4.9363   -2.3739   -0.0588 H   0  0  0  0  0  0  0  0  0  0  0  0
    7.2224   -2.3531    0.7451 H   0  0  0  0  0  0  0  0  0  0  0  0
    6.5442   -0.7251    0.6578 H   0  0  0  0  0  0  0  0  0  0  0  0
  1  2  1  0
  2  3  1  0
  3  4  1  0
  4  5  1  0
  5  6  1  0
  6  7  1  0
  7  8  2  0
  8  9  1  0
  9 10  2  0
 10 11  1  0
 11 12  2  0
 12 13  1  0
 13 14  1  0
 13 15  1  0
 13 16  1  0
 10 17  1  0
 17 18  2  0
 17 19  1  0
 19 20  1  0
 20 21  2  0
 21 22  1  0
 22 23  2  0
 23 24  1  0
 23 25  1  0
 25 26  1  0
 26 27  1  0
 27 28  2  0
 27 29  1  0
 29 30  2  0
 30 31  1  0
 31 32  2  0
 32 33  1  0
 33 34  2  0
 34 35  1  0
 35 36  2  0
 36 37  1  0
 25 38  2  0
  5 39  1  0
 39 40  1  0
 40  2  1  0
 12  7  1  0
 38 20  1  0
 37 29  1  0
 37 32  1  0
  1 41  1  0
  1 42  1  0
  1 43  1  0
  3 44  1  0
  3 45  1  0
  4 46  1  0
  4 47  1  0
  6 48  1  0
  6 49  1  0
  8 50  1  0
  9 51  1  0
 11 52  1  0
 19 53  1  0
 21 54  1  0
 22 55  1  0
 24 56  1  0
 24 57  1  0
 24 58  1  0
 26 59  1  0
 30 60  1  0
 33 61  1  0
 34 62  1  0
 35 63  1  0
 36 64  1  0
 38 65  1  0
 39 66  1  0
 39 67  1  0
 40 68  1  0
 40 69  1  0
M  END
$$$$
[H]c1nc(N([H])c2c([H])c([H])c(N3C([H])([H])C([H])([H])N(C([H])([H])[H])C([H])([H])C3([H])[H])c([H])c2OC([H])([H])[H])nc(N([H])c2c([H])c([H])c([H])c([H])c2S(=O)(=O)C([H])(C([H])([H])[H])C([H])([H])[H])c1Cl
     RDKit          3D

 67 70  0  0  0  0  0  0  0  0999 V2000
    2.7980   -3.3310   -1.2288 C   0  0  0  0  0  0  0  0  0  0  0  0
    1.9415   -2.2352   -0.9986 O   0  0  0  0  0  0  0  0  0  0  0  0
    2.4816   -1.0407   -0.5265 C   0  0  0  0  0  0  0  0  0  0  0  0
    3.8274   -0.9244   -0.2865 C   0  0  0  0  0  0  0  0  0  0  0  0
    4.4213    0.2145    0.1751 C   0  0  0  0  0  0  0  0  0  0  0  0
    3.5861    1.2917    0.4024 C   0  0  0  0  0  0  0  0  0  0  0  0
    2.2085    1.1836    0.1606 C   0  0  0  0  0  0  0  0  0  0  0  0
    1.6255    0.0523   -0.2972 C   0  0  0  0  0  0  0  0  0  0  0  0
    0.2667   -0.0963   -0.5497 N   0  0  0  0  0  0  0  0  0  0  0  0
   -0.7485    0.8732   -0.3847 C   0  0  0  0  0  0  0  0  0  0  0  0
   -0.5976    2.1249    0.0475 N   0  0  0  0  0  0  0  0  0  0  0  0
   -1.5696    3.0148    0.1930 C   0  0  0  0  0  0  0  0  0  0  0  0
   -2.8553    2.6370   -0.1234 C   0  0  0  0  0  0  0  0  0  0  0  0
   -4.1874    3.7633    0.0449 Cl  0  0  0  0  0  0  0  0  0  0  0  0
   -3.1059    1.3214   -0.5915 C   0  0  0  0  0  0  0  0  0  0  0  0
   -4.4442    0.9705   -0.8839 N   0  0  0  0  0  0  0  0  0  0  0  0
   -4.8563   -0.2771   -1.3763 C   0  0  0  0  0  0  0  0  0  0  0  0
   -4.0250   -1.2445   -1.8945 C   0  0  0  0  0  0  0  0  0  0  0  0
   -4.4990   -2.4531   -2.4340 C   0  0  0  0  0  0  0  0  0  0  0  0
   -5.8636   -2.6532   -2.4324 C   0  0  0  0  0  0  0  0  0  0  0  0
   -6.7143   -1.7053   -1.9218 C   0  0  0  0  0  0  0  0  0  0  0  0
   -6.2437   -0.5196   -1.3917 C   0  0  0  0  0  0  0  0  0  0  0  0
   -7.3164    0.6608   -0.6987 S   0  0  0  0  0  0  0  0  0  0  0  0
   -7.3933    1.9371   -1.4847 O   0  0  0  0  0  0  0  0  0  0  0  0
   -8.7283    0.0574   -0.8397 O   0  0  0  0  0  0  0  0  0  0  0  0
   -7.0890    0.8939    1.0249 C   0  0  0  0  0  0  0  0  0  0  0  0
   -7.3480   -0.4235    1.7701 C   0  0  0  0  0  0  0  0  0  0  0  0
   -8.1301    1.8608    1.6013 C   0  0  0  0  0  0  0  0  0  0  0  0
   -2.0417    0.5457   -0.6857 N   0  0  0  0  0  0  0  0  0  0  0  0
    5.8136    0.2932    0.3958 N   0  0  0  0  0  0  0  0  0  0  0  0
    6.4498    1.3219    1.2076 C   0  0  0  0  0  0  0  0  0  0  0  0
    7.4716    0.7173    2.1500 C   0  0  0  0  0  0  0  0  0  0  0  0
    8.2281   -0.3570    1.5914 N   0  0  0  0  0  0  0  0  0  0  0  0
    9.2895    0.0606    0.7233 C   0  0  0  0  0  0  0  0  0  0  0  0
    7.3758   -1.3808    0.9847 C   0  0  0  0  0  0  0  0  0  0  0  0
    6.7127   -0.6643   -0.2033 C   0  0  0  0  0  0  0  0  0  0  0  0
    2.1978   -4.1742   -1.5940 H   0  0  0  0  0  0  0  0  0  0  0  0
    3.3465   -3.6080   -0.3147 H   0  0  0  0  0  0  0  0  0  0  0  0
    3.5586   -2.9887   -1.9679 H   0  0  0  0  0  0  0  0  0  0  0  0
    4.4382   -1.8245   -0.4810 H   0  0  0  0  0  0  0  0  0  0  0  0
    4.0232    2.2148    0.7675 H   0  0  0  0  0  0  0  0  0  0  0  0
    1.6829    2.0994    0.3817 H   0  0  0  0  0  0  0  0  0  0  0  0
   -0.0953   -1.0472   -0.9152 H   0  0  0  0  0  0  0  0  0  0  0  0
   -1.3686    4.0319    0.5559 H   0  0  0  0  0  0  0  0  0  0  0  0
   -5.1553    1.7451   -0.7241 H   0  0  0  0  0  0  0  0  0  0  0  0
   -2.9519   -1.1300   -1.9331 H   0  0  0  0  0  0  0  0  0  0  0  0
   -3.8051   -3.1751   -2.8254 H   0  0  0  0  0  0  0  0  0  0  0  0
   -6.2117   -3.5899   -2.8525 H   0  0  0  0  0  0  0  0  0  0  0  0
   -7.7729   -1.8830   -1.9315 H   0  0  0  0  0  0  0  0  0  0  0  0
   -6.0945    1.2164    1.2893 H   0  0  0  0  0  0  0  0  0  0  0  0
   -7.0459   -0.2515    2.8164 H   0  0  0  0  0  0  0  0  0  0  0  0
   -6.7761   -1.2538    1.3513 H   0  0  0  0  0  0  0  0  0  0  0  0
   -8.4409   -0.6809    1.6975 H   0  0  0  0  0  0  0  0  0  0  0  0
   -8.1469    1.6683    2.6953 H   0  0  0  0  0  0  0  0  0  0  0  0
   -7.8558    2.8834    1.3399 H   0  0  0  0  0  0  0  0  0  0  0  0
   -9.1318    1.5480    1.2224 H   0  0  0  0  0  0  0  0  0  0  0  0
    5.6986    1.8496    1.8178 H   0  0  0  0  0  0  0  0  0  0  0  0
    6.9306    2.0340    0.5190 H   0  0  0  0  0  0  0  0  0  0  0  0
    6.9661    0.3984    3.0955 H   0  0  0  0  0  0  0  0  0  0  0  0
    8.1853    1.5113    2.4512 H   0  0  0  0  0  0  0  0  0  0  0  0
    9.0845    1.0803    0.3255 H   0  0  0  0  0  0  0  0  0  0  0  0
   10.2479    0.0559    1.3173 H   0  0  0  0  0  0  0  0  0  0  0  0
    9.3924   -0.6645   -0.1011 H   0  0  0  0  0  0  0  0  0  0  0  0
    6.5706   -1.6106    1.6897 H   0  0  0  0  0  0  0  0  0  0  0  0
    7.9791   -2.2304    0.6689 H   0  0  0  0  0  0  0  0  0  0  0  0
    6.2815   -1.3420   -0.9293 H   0  0  0  0  0  0  0  0  0  0  0  0
    7.5281   -0.0532   -0.6714 H   0  0  0  0  0  0  0  0  0  0  0  0
  1  2  1  0
  2  3  1  0
  3  4  2  0
  4  5  1  0
  5  6  2  0
  6  7  1  0
  7  8  2  0
  8  9  1  0
  9 10  1  0
 10 11  2  0
 11 12  1  0
 12 13  2  0
 13 14  1  0
 13 15  1  0
 15 16  1  0
 16 17  1  0
 17 18  2  0
 18 19  1  0
 19 20  2  0
 20 21  1  0
 21 22  2  0
 22 23  1  0
 23 24  2  0
 23 25  2  0
 23 26  1  0
 26 27  1  0
 26 28  1  0
 15 29  2  0
  5 30  1  0
 30 31  1  0
 31 32  1  0
 32 33  1  0
 33 34  1  0
 33 35  1  0
 35 36  1  0
  8  3  1  0
 29 10  1  0
 36 30  1  0
 22 17  1  0
  1 37  1  0
  1 38  1  0
  1 39  1  0
  4 40  1  0
  6 41  1  0
  7 42  1  0
  9 43  1  0
 12 44  1  0
 16 45  1  0
 18 46  1  0
 19 47  1  0
 20 48  1  0
 21 49  1  0
 26 50  1  0
 27 51  1  0
 27 52  1  0
 27 53  1  0
 28 54  1  0
 28 55  1  0
 28 56  1  0
 31 57  1  0
 31 58  1  0
 32 59  1  0
 32 60  1  0
 34 61  1  0
 34 62  1  0
 34 63  1  0
 35 64  1  0
 35 65  1  0
 36 66  1  0
 36 67  1  0
M  END
$$$$
[H]c1c([H])c(-c2nc(N([H])c3c([H])c([H])c(C(=O)N4C([H])([H])C([H])([H])OC([H])([H])C4([H])[H])c([H])c3[H])c(=O)n(C([H])([H])[H])c2[H])c(C([H])([H])[H])c(N([H])C(=O)c2c([H])c([H])c(C(C([H])([H])[H])(C([H])([H])[H])C([H])([H])[H])c([H])c2[H])c1[H]
     RDKit          3D

 80 84  0  0  0  0  0  0  0  0999 V2000
    0.4108    2.2699   -0.5748 C   0  0  0  0  0  0  0  0  0  0  0  0
    0.5157    2.9882    0.7151 C   0  0  0  0  0  0  0  0  0  0  0  0
    1.5215    2.5319    1.5951 C   0  0  0  0  0  0  0  0  0  0  0  0
    2.2449    1.3852    1.2562 N   0  0  0  0  0  0  0  0  0  0  0  0
    3.3243    0.8470    1.9539 C   0  0  0  0  0  0  0  0  0  0  0  0
    3.8309    1.2955    3.0069 O   0  0  0  0  0  0  0  0  0  0  0  0
    3.9215   -0.3917    1.3592 C   0  0  0  0  0  0  0  0  0  0  0  0
    3.1267   -1.3132    0.7260 C   0  0  0  0  0  0  0  0  0  0  0  0
    3.6933   -2.4463    0.1426 C   0  0  0  0  0  0  0  0  0  0  0  0
    5.0721   -2.6770    0.1834 C   0  0  0  0  0  0  0  0  0  0  0  0
    5.8340   -1.7328    0.8276 C   0  0  0  0  0  0  0  0  0  0  0  0
    5.2740   -0.6014    1.4110 C   0  0  0  0  0  0  0  0  0  0  0  0
    5.6591   -3.8853   -0.4389 C   0  0  0  0  0  0  0  0  0  0  0  0
    5.1791   -5.1530    0.2278 C   0  0  0  0  0  0  0  0  0  0  0  0
    5.3343   -3.9454   -1.9174 C   0  0  0  0  0  0  0  0  0  0  0  0
    7.1706   -3.7679   -0.3366 C   0  0  0  0  0  0  0  0  0  0  0  0
    1.7034    3.2358    2.7411 C   0  0  0  0  0  0  0  0  0  0  0  0
    0.9474    4.3500    3.0515 C   0  0  0  0  0  0  0  0  0  0  0  0
   -0.0251    4.7523    2.1578 C   0  0  0  0  0  0  0  0  0  0  0  0
   -0.2478    4.0672    0.9779 C   0  0  0  0  0  0  0  0  0  0  0  0
   -1.2675    4.5527    0.0784 C   0  0  0  0  0  0  0  0  0  0  0  0
   -1.4207    5.9263   -0.1678 C   0  0  0  0  0  0  0  0  0  0  0  0
   -2.3121    6.3705   -1.0797 N   0  0  0  0  0  0  0  0  0  0  0  0
   -2.4061    7.8142   -1.2755 C   0  0  0  0  0  0  0  0  0  0  0  0
   -3.0618    5.4885   -1.7600 C   0  0  0  0  0  0  0  0  0  0  0  0
   -3.9039    5.9094   -2.6242 O   0  0  0  0  0  0  0  0  0  0  0  0
   -2.9116    4.1446   -1.5158 C   0  0  0  0  0  0  0  0  0  0  0  0
   -3.6785    3.1819   -2.2864 N   0  0  0  0  0  0  0  0  0  0  0  0
   -3.6093    1.8012   -1.9517 C   0  0  0  0  0  0  0  0  0  0  0  0
   -3.1156    0.8315   -2.7804 C   0  0  0  0  0  0  0  0  0  0  0  0
   -3.0960   -0.4963   -2.4585 C   0  0  0  0  0  0  0  0  0  0  0  0
   -3.5964   -0.9638   -1.2218 C   0  0  0  0  0  0  0  0  0  0  0  0
   -4.0900   -0.0002   -0.3917 C   0  0  0  0  0  0  0  0  0  0  0  0
   -4.1071    1.3691   -0.7288 C   0  0  0  0  0  0  0  0  0  0  0  0
   -3.5261   -2.3840   -0.9203 C   0  0  0  0  0  0  0  0  0  0  0  0
   -2.8847   -3.1058   -1.8315 O   0  0  0  0  0  0  0  0  0  0  0  0
   -3.9981   -3.1291    0.1302 N   0  0  0  0  0  0  0  0  0  0  0  0
   -3.7161   -4.5757    0.1305 C   0  0  0  0  0  0  0  0  0  0  0  0
   -5.0443   -5.2860    0.2632 C   0  0  0  0  0  0  0  0  0  0  0  0
   -5.7105   -4.9023    1.4003 O   0  0  0  0  0  0  0  0  0  0  0  0
   -5.1610   -3.8694    2.1072 C   0  0  0  0  0  0  0  0  0  0  0  0
   -4.7646   -2.6707    1.2409 C   0  0  0  0  0  0  0  0  0  0  0  0
   -2.0343    3.6916   -0.6178 N   0  0  0  0  0  0  0  0  0  0  0  0
   -0.0161    2.9148   -1.3665 H   0  0  0  0  0  0  0  0  0  0  0  0
    1.5120    2.1633   -0.9111 H   0  0  0  0  0  0  0  0  0  0  0  0
    0.0386    1.2562   -0.5183 H   0  0  0  0  0  0  0  0  0  0  0  0
    1.9241    0.8531    0.3739 H   0  0  0  0  0  0  0  0  0  0  0  0
    2.0575   -1.1827    0.6729 H   0  0  0  0  0  0  0  0  0  0  0  0
    3.0803   -3.1715   -0.3580 H   0  0  0  0  0  0  0  0  0  0  0  0
    6.9118   -1.8369    0.9001 H   0  0  0  0  0  0  0  0  0  0  0  0
    5.8986    0.1395    1.9188 H   0  0  0  0  0  0  0  0  0  0  0  0
    4.4039   -5.6026   -0.3924 H   0  0  0  0  0  0  0  0  0  0  0  0
    6.0553   -5.8341    0.3109 H   0  0  0  0  0  0  0  0  0  0  0  0
    4.8586   -4.9633    1.2622 H   0  0  0  0  0  0  0  0  0  0  0  0
    6.1493   -4.5884   -2.3561 H   0  0  0  0  0  0  0  0  0  0  0  0
    5.4935   -2.9366   -2.3388 H   0  0  0  0  0  0  0  0  0  0  0  0
    4.3269   -4.3125   -2.1204 H   0  0  0  0  0  0  0  0  0  0  0  0
    7.6160   -4.5701   -0.9535 H   0  0  0  0  0  0  0  0  0  0  0  0
    7.4795   -2.8156   -0.8455 H   0  0  0  0  0  0  0  0  0  0  0  0
    7.5055   -3.8048    0.7249 H   0  0  0  0  0  0  0  0  0  0  0  0
    2.4563    2.9438    3.4728 H   0  0  0  0  0  0  0  0  0  0  0  0
    1.1422    4.8585    3.9723 H   0  0  0  0  0  0  0  0  0  0  0  0
   -0.6218    5.6311    2.4058 H   0  0  0  0  0  0  0  0  0  0  0  0
   -0.8055    6.6073    0.3877 H   0  0  0  0  0  0  0  0  0  0  0  0
   -1.6859    8.1483   -2.0576 H   0  0  0  0  0  0  0  0  0  0  0  0
   -2.0961    8.3523   -0.3519 H   0  0  0  0  0  0  0  0  0  0  0  0
   -3.4273    8.0998   -1.5804 H   0  0  0  0  0  0  0  0  0  0  0  0
   -4.2488    3.5501   -3.0542 H   0  0  0  0  0  0  0  0  0  0  0  0
   -2.7211    1.1839   -3.7515 H   0  0  0  0  0  0  0  0  0  0  0  0
   -2.6922   -1.2283   -3.1455 H   0  0  0  0  0  0  0  0  0  0  0  0
   -4.4835   -0.2474    0.5578 H   0  0  0  0  0  0  0  0  0  0  0  0
   -4.5047    2.1047   -0.0466 H   0  0  0  0  0  0  0  0  0  0  0  0
   -3.2908   -4.8913   -0.8523 H   0  0  0  0  0  0  0  0  0  0  0  0
   -3.0121   -4.8837    0.9071 H   0  0  0  0  0  0  0  0  0  0  0  0
   -5.5935   -5.0762   -0.6780 H   0  0  0  0  0  0  0  0  0  0  0  0
   -4.8651   -6.3979    0.3337 H   0  0  0  0  0  0  0  0  0  0  0  0
   -4.2240   -4.2160    2.5773 H   0  0  0  0  0  0  0  0  0  0  0  0
   -5.8321   -3.5108    2.8894 H   0  0  0  0  0  0  0  0  0  0  0  0
   -4.1743   -2.0291    1.9506 H   0  0  0  0  0  0  0  0  0  0  0  0
   -5.6894   -2.2137    0.8861 H   0  0  0  0  0  0  0  0  0  0  0  0
  1  2  1  0
  2  3  2  0
  3  4  1  0
  4  5  1  0
  5  6  2  0
  5  7  1  0
  7  8  2  0
  8  9  1  0
  9 10  2  0
 10 11  1  0
 11 12  2  0
 10 13  1  0
 13 14  1  0
 13 15  1  0
 13 16  1  0
  3 17  1  0
 17 18  2  0
 18 19  1  0
 19 20  2  0
 20 21  1  0
 21 22  2  0
 22 23  1  0
 23 24  1  0
 23 25  1  0
 25 26  2  0
 25 27  1  0
 27 28  1  0
 28 29  1  0
 29 30  2  0
 30 31  1  0
 31 32  2  0
 32 33  1  0
 33 34  2  0
 32 35  1  0
 35 36  2  0
 35 37  1  0
 37 38  1  0
 38 39  1  0
 39 40  1  0
 40 41  1  0
 41 42  1  0
 27 43  2  0
 20  2  1  0
 43 21  1  0
 12  7  1  0
 34 29  1  0
 42 37  1  0
  1 44  1  0
  1 45  1  0
  1 46  1  0
  4 47  1  0
  8 48  1  0
  9 49  1  0
 11 50  1  0
 12 51  1  0
 14 52  1  0
 14 53  1  0
 14 54  1  0
 15 55  1  0
 15 56  1  0
 15 57  1  0
 16 58  1  0
 16 59  1  0
 16 60  1  0
 17 61  1  0
 18 62  1  0
 19 63  1  0
 22 64  1  0
 24 65  1  0
 24 66  1  0
 24 67  1  0
 28 68  1  0
 30 69  1  0
 31 70  1  0
 33 71  1  0
 34 72  1  0
 38 73  1  0
 38 74  1  0
 39 75  1  0
 39 76  1  0
 41 77  1  0
 41 78  1  0
 42 79  1  0
 42 80  1  0
M  END
$$$$
[H]c1nc(N([H])c2c([H])c([H])c(N3C([H])([H])C([H])([H])C([H])(N4C(=O)C([H])([H])N(C([H])([H])[H])C([H])([H])C4([H])[H])C([H])([H])C3([H])[H])c([H])c2OC([H])([H])[H])nc(N([H])c2c([H])c([H])c([H])c([H])c2S(=O)(=O)C([H])(C([H])([H])[H])C([H])([H])[H])c1Cl
     RDKit          3D

 81 85  0  0  0  0  0  0  0  0999 V2000
   -0.6404    0.6353    3.5439 C   0  0  0  0  0  0  0  0  0  0  0  0
    0.0527    0.6250    2.3223 O   0  0  0  0  0  0  0  0  0  0  0  0
   -0.4490   -0.1588    1.2724 C   0  0  0  0  0  0  0  0  0  0  0  0
   -1.6292   -0.8340    1.4667 C   0  0  0  0  0  0  0  0  0  0  0  0
   -2.1600   -1.6104    0.4295 C   0  0  0  0  0  0  0  0  0  0  0  0
   -1.4875   -1.6867   -0.7753 C   0  0  0  0  0  0  0  0  0  0  0  0
   -0.2882   -1.0003   -0.9684 C   0  0  0  0  0  0  0  0  0  0  0  0
    0.2435   -0.2326    0.0486 C   0  0  0  0  0  0  0  0  0  0  0  0
    1.4863    0.4214    0.0195 N   0  0  0  0  0  0  0  0  0  0  0  0
    2.2618    0.6725   -1.1042 C   0  0  0  0  0  0  0  0  0  0  0  0
    1.9773    0.4120   -2.3787 N   0  0  0  0  0  0  0  0  0  0  0  0
    2.8121    0.6380   -3.3928 C   0  0  0  0  0  0  0  0  0  0  0  0
    4.0488    1.1703   -3.1359 C   0  0  0  0  0  0  0  0  0  0  0  0
    5.1490    1.4562   -4.4506 Cl  0  0  0  0  0  0  0  0  0  0  0  0
    4.4153    1.4700   -1.7994 C   0  0  0  0  0  0  0  0  0  0  0  0
    5.7188    1.9478   -1.5620 N   0  0  0  0  0  0  0  0  0  0  0  0
    6.2797    2.3105   -0.3215 C   0  0  0  0  0  0  0  0  0  0  0  0
    5.5543    2.4869    0.8353 C   0  0  0  0  0  0  0  0  0  0  0  0
    6.1792    2.8518    2.0282 C   0  0  0  0  0  0  0  0  0  0  0  0
    7.5134    3.0447    2.0903 C   0  0  0  0  0  0  0  0  0  0  0  0
    8.2539    2.8697    0.9260 C   0  0  0  0  0  0  0  0  0  0  0  0
    7.6773    2.5118   -0.2654 C   0  0  0  0  0  0  0  0  0  0  0  0
    8.6191    2.3084   -1.7089 S   0  0  0  0  0  0  0  0  0  0  0  0
    8.4080    0.9402   -2.3045 O   0  0  0  0  0  0  0  0  0  0  0  0
    8.2019    3.3231   -2.7522 O   0  0  0  0  0  0  0  0  0  0  0  0
   10.3649    2.5342   -1.4740 C   0  0  0  0  0  0  0  0  0  0  0  0
   10.7546    3.8845   -0.9963 C   0  0  0  0  0  0  0  0  0  0  0  0
   10.9905    1.4636   -0.6138 C   0  0  0  0  0  0  0  0  0  0  0  0
    3.5032    1.2035   -0.8890 N   0  0  0  0  0  0  0  0  0  0  0  0
   -3.3869   -2.2841    0.6355 N   0  0  0  0  0  0  0  0  0  0  0  0
   -4.0562   -2.3679    1.9182 C   0  0  0  0  0  0  0  0  0  0  0  0
   -5.1904   -1.3430    1.8152 C   0  0  0  0  0  0  0  0  0  0  0  0
   -5.9740   -1.5409    0.5617 C   0  0  0  0  0  0  0  0  0  0  0  0
   -5.6218   -2.8084   -0.1835 C   0  0  0  0  0  0  0  0  0  0  0  0
   -4.1334   -2.9442   -0.4508 C   0  0  0  0  0  0  0  0  0  0  0  0
   -7.3956   -1.4801    0.6968 N   0  0  0  0  0  0  0  0  0  0  0  0
   -8.2095   -0.4721    0.0186 C   0  0  0  0  0  0  0  0  0  0  0  0
   -9.4104   -1.0779   -0.6175 C   0  0  0  0  0  0  0  0  0  0  0  0
   -9.6150   -2.4622   -0.2675 N   0  0  0  0  0  0  0  0  0  0  0  0
  -10.9096   -2.9455   -0.6894 C   0  0  0  0  0  0  0  0  0  0  0  0
   -9.5004   -2.6897    1.1575 C   0  0  0  0  0  0  0  0  0  0  0  0
   -8.0846   -2.4154    1.5093 C   0  0  0  0  0  0  0  0  0  0  0  0
   -7.5244   -3.0019    2.4963 O   0  0  0  0  0  0  0  0  0  0  0  0
   -1.6488    1.0956    3.4564 H   0  0  0  0  0  0  0  0  0  0  0  0
   -0.8076   -0.3717    3.9436 H   0  0  0  0  0  0  0  0  0  0  0  0
   -0.0694    1.2654    4.2581 H   0  0  0  0  0  0  0  0  0  0  0  0
   -2.1350   -0.7484    2.4164 H   0  0  0  0  0  0  0  0  0  0  0  0
   -1.8895   -2.2889   -1.5756 H   0  0  0  0  0  0  0  0  0  0  0  0
    0.2159   -1.0926   -1.9161 H   0  0  0  0  0  0  0  0  0  0  0  0
    1.8775    0.7553    0.9472 H   0  0  0  0  0  0  0  0  0  0  0  0
    2.5321    0.4087   -4.4214 H   0  0  0  0  0  0  0  0  0  0  0  0
    6.3164    2.0399   -2.4403 H   0  0  0  0  0  0  0  0  0  0  0  0
    4.4713    2.3630    0.8570 H   0  0  0  0  0  0  0  0  0  0  0  0
    5.5236    2.9732    2.9097 H   0  0  0  0  0  0  0  0  0  0  0  0
    8.0214    3.3284    3.0047 H   0  0  0  0  0  0  0  0  0  0  0  0
    9.3239    3.0122    0.9669 H   0  0  0  0  0  0  0  0  0  0  0  0
   10.8673    2.3917   -2.4971 H   0  0  0  0  0  0  0  0  0  0  0  0
   11.3992    4.4392   -1.7435 H   0  0  0  0  0  0  0  0  0  0  0  0
   11.3180    3.8374   -0.0179 H   0  0  0  0  0  0  0  0  0  0  0  0
    9.8606    4.4943   -0.8140 H   0  0  0  0  0  0  0  0  0  0  0  0
   11.7919    1.9209   -0.0089 H   0  0  0  0  0  0  0  0  0  0  0  0
   11.4099    0.6351   -1.2685 H   0  0  0  0  0  0  0  0  0  0  0  0
   10.2400    1.0195    0.0891 H   0  0  0  0  0  0  0  0  0  0  0  0
   -3.3952   -2.1594    2.7302 H   0  0  0  0  0  0  0  0  0  0  0  0
   -4.5224   -3.3888    2.0142 H   0  0  0  0  0  0  0  0  0  0  0  0
   -5.7447   -1.3801    2.7558 H   0  0  0  0  0  0  0  0  0  0  0  0
   -4.6566   -0.3456    1.8213 H   0  0  0  0  0  0  0  0  0  0  0  0
   -5.6823   -0.6964   -0.1333 H   0  0  0  0  0  0  0  0  0  0  0  0
   -6.0389   -3.6928    0.3377 H   0  0  0  0  0  0  0  0  0  0  0  0
   -6.1222   -2.7530   -1.1729 H   0  0  0  0  0  0  0  0  0  0  0  0
   -3.9120   -4.0219   -0.3376 H   0  0  0  0  0  0  0  0  0  0  0  0
   -3.8455   -2.6171   -1.4379 H   0  0  0  0  0  0  0  0  0  0  0  0
   -8.4626    0.3406    0.7162 H   0  0  0  0  0  0  0  0  0  0  0  0
   -7.5726   -0.0764   -0.8113 H   0  0  0  0  0  0  0  0  0  0  0  0
  -10.3054   -0.4695   -0.2923 H   0  0  0  0  0  0  0  0  0  0  0  0
   -9.3881   -1.0032   -1.7289 H   0  0  0  0  0  0  0  0  0  0  0  0
  -11.2734   -2.4800   -1.6221 H   0  0  0  0  0  0  0  0  0  0  0  0
  -10.8402   -4.0529   -0.9112 H   0  0  0  0  0  0  0  0  0  0  0  0
  -11.6982   -2.8249    0.0999 H   0  0  0  0  0  0  0  0  0  0  0  0
   -9.7998   -3.7426    1.3489 H   0  0  0  0  0  0  0  0  0  0  0  0
  -10.1576   -1.9392    1.6452 H   0  0  0  0  0  0  0  0  0  0  0  0
  1  2  1  0
  2  3  1  0
  3  4  2  0
  4  5  1  0
  5  6  2  0
  6  7  1  0
  7  8  2  0
  8  9  1  0
  9 10  1  0
 10 11  2  0
 11 12  1  0
 12 13  2  0
 13 14  1  0
 13 15  1  0
 15 16  1  0
 16 17  1  0
 17 18  2  0
 18 19  1  0
 19 20  2  0
 20 21  1  0
 21 22  2  0
 22 23  1  0
 23 24  2  0
 23 25  2  0
 23 26  1  0
 26 27  1  0
 26 28  1  0
 15 29  2  0
  5 30  1  0
 30 31  1  0
 31 32  1  0
 32 33  1  0
 33 34  1  0
 34 35  1  0
 33 36  1  0
 36 37  1  0
 37 38  1  0
 38 39  1  0
 39 40  1  0
 39 41  1  0
 41 42  1  0
 42 43  2  0
  8  3  1  0
 29 10  1  0
 35 30  1  0
 42 36  1  0
 22 17  1  0
  1 44  1  0
  1 45  1  0
  1 46  1  0
  4 47  1  0
  6 48  1  0
  7 49  1  0
  9 50  1  0
 12 51  1  0
 16 52  1  0
 18 53  1  0
 19 54  1  0
 20 55  1  0
 21 56  1  0
 26 57  1  0
 27 58  1  0
 27 59  1  0
 27 60  1  0
 28 61  1  0
 28 62  1  0
 28 63  1  0
 31 64  1  0
 31 65  1  0
 32 66  1  0
 32 67  1  0
 33 68  1  0
 34 69  1  0
 34 70  1  0
 35 71  1  0
 35 72  1  0
 37 73  1  0
 37 74  1  0
 38 75  1  0
 38 76  1  0
 40 77  1  0
 40 78  1  0
 40 79  1  0
 41 80  1  0
 41 81  1  0
M  END
$$$$
[H]Oc1c([H])c(C([H])([H])C([H])([H])[H])c(-c2c([H])c([H])c3c(-c4nc5c(n4[H])C([H])([H])C([H])([H])N(C(=O)c4c([H])c([H])c([H])c([H])c4[H])C5([H])[H])nn([H])c3c2[H])c([H])c1F
     RDKit          3D

 60 65  0  0  0  0  0  0  0  0999 V2000
    5.9475   -2.1861    0.4243 C   0  0  0  0  0  0  0  0  0  0  0  0
    6.4409   -1.2633   -0.6792 C   0  0  0  0  0  0  0  0  0  0  0  0
    6.6703    0.1076   -0.1804 C   0  0  0  0  0  0  0  0  0  0  0  0
    7.9837    0.5640    0.0483 C   0  0  0  0  0  0  0  0  0  0  0  0
    8.2590    1.8100    0.5333 C   0  0  0  0  0  0  0  0  0  0  0  0
    9.5290    2.2965    0.7715 O   0  0  0  0  0  0  0  0  0  0  0  0
    7.1773    2.6347    0.8012 C   0  0  0  0  0  0  0  0  0  0  0  0
    7.3512    3.9006    1.2900 F   0  0  0  0  0  0  0  0  0  0  0  0
    5.8915    2.2167    0.5879 C   0  0  0  0  0  0  0  0  0  0  0  0
    5.6148    0.9353    0.0888 C   0  0  0  0  0  0  0  0  0  0  0  0
    4.2440    0.5262   -0.1547 C   0  0  0  0  0  0  0  0  0  0  0  0
    3.3295    0.4717    0.8859 C   0  0  0  0  0  0  0  0  0  0  0  0
    2.0137    0.1261    0.7215 C   0  0  0  0  0  0  0  0  0  0  0  0
    1.5334   -0.1913   -0.5280 C   0  0  0  0  0  0  0  0  0  0  0  0
    0.3222   -0.5610   -0.9962 C   0  0  0  0  0  0  0  0  0  0  0  0
    0.5050   -0.7341   -2.3495 N   0  0  0  0  0  0  0  0  0  0  0  0
    1.7334   -0.4902   -2.6893 N   0  0  0  0  0  0  0  0  0  0  0  0
    2.4264   -0.1430   -1.5773 C   0  0  0  0  0  0  0  0  0  0  0  0
    3.7656    0.2111   -1.3984 C   0  0  0  0  0  0  0  0  0  0  0  0
   -0.9650   -0.7662   -0.3271 C   0  0  0  0  0  0  0  0  0  0  0  0
   -2.1023   -1.1500   -0.9951 N   0  0  0  0  0  0  0  0  0  0  0  0
   -3.1353   -1.2691   -0.1742 C   0  0  0  0  0  0  0  0  0  0  0  0
   -4.5852   -1.6654   -0.3941 C   0  0  0  0  0  0  0  0  0  0  0  0
   -5.3318   -1.2406    0.7363 N   0  0  0  0  0  0  0  0  0  0  0  0
   -4.7702   -1.8104    2.0214 C   0  0  0  0  0  0  0  0  0  0  0  0
   -3.5471   -0.9672    2.2723 C   0  0  0  0  0  0  0  0  0  0  0  0
   -2.6880   -0.9589    1.0771 C   0  0  0  0  0  0  0  0  0  0  0  0
   -1.3517   -0.6573    0.9348 N   0  0  0  0  0  0  0  0  0  0  0  0
   -6.3970   -0.3965    0.8523 C   0  0  0  0  0  0  0  0  0  0  0  0
   -6.8775   -0.2969    2.0778 O   0  0  0  0  0  0  0  0  0  0  0  0
   -7.0955    0.4049   -0.1093 C   0  0  0  0  0  0  0  0  0  0  0  0
   -8.3152    0.9987    0.2559 C   0  0  0  0  0  0  0  0  0  0  0  0
   -9.0410    1.8216   -0.5686 C   0  0  0  0  0  0  0  0  0  0  0  0
   -8.5787    2.1001   -1.8246 C   0  0  0  0  0  0  0  0  0  0  0  0
   -7.3928    1.5442   -2.2253 C   0  0  0  0  0  0  0  0  0  0  0  0
   -6.6690    0.7083   -1.3670 C   0  0  0  0  0  0  0  0  0  0  0  0
    5.0708   -2.7308   -0.0133 H   0  0  0  0  0  0  0  0  0  0  0  0
    5.6623   -1.6219    1.3363 H   0  0  0  0  0  0  0  0  0  0  0  0
    6.6778   -2.9470    0.7229 H   0  0  0  0  0  0  0  0  0  0  0  0
    5.8956   -1.3549   -1.6154 H   0  0  0  0  0  0  0  0  0  0  0  0
    7.4755   -1.6771   -0.9266 H   0  0  0  0  0  0  0  0  0  0  0  0
    8.8227   -0.1092   -0.1724 H   0  0  0  0  0  0  0  0  0  0  0  0
    9.6878    3.2123    1.1262 H   0  0  0  0  0  0  0  0  0  0  0  0
    5.0582    2.8561    0.7957 H   0  0  0  0  0  0  0  0  0  0  0  0
    3.7095    0.7223    1.8710 H   0  0  0  0  0  0  0  0  0  0  0  0
    1.3245    0.0918    1.5469 H   0  0  0  0  0  0  0  0  0  0  0  0
    2.1241   -0.5492   -3.6466 H   0  0  0  0  0  0  0  0  0  0  0  0
    4.3777    0.2356   -2.2877 H   0  0  0  0  0  0  0  0  0  0  0  0
   -4.5735   -2.8310   -0.2835 H   0  0  0  0  0  0  0  0  0  0  0  0
   -4.9393   -1.5413   -1.3924 H   0  0  0  0  0  0  0  0  0  0  0  0
   -5.5229   -1.7515    2.8054 H   0  0  0  0  0  0  0  0  0  0  0  0
   -4.4647   -2.8545    1.8298 H   0  0  0  0  0  0  0  0  0  0  0  0
   -3.0279   -1.3682    3.1706 H   0  0  0  0  0  0  0  0  0  0  0  0
   -3.9169    0.0689    2.4546 H   0  0  0  0  0  0  0  0  0  0  0  0
   -0.7735   -0.3876    1.7395 H   0  0  0  0  0  0  0  0  0  0  0  0
   -8.7205    0.8123    1.2228 H   0  0  0  0  0  0  0  0  0  0  0  0
   -9.9766    2.2581   -0.2465 H   0  0  0  0  0  0  0  0  0  0  0  0
   -9.1115    2.7402   -2.5114 H   0  0  0  0  0  0  0  0  0  0  0  0
   -7.0145    1.7525   -3.2099 H   0  0  0  0  0  0  0  0  0  0  0  0
   -5.7398    0.3428   -1.7429 H   0  0  0  0  0  0  0  0  0  0  0  0
  1  2  1  0
  2  3  1  0
  3  4  2  0
  4  5  1  0
  5  6  1  0
  5  7  2  0
  7  8  1  0
  7  9  1  0
  9 10  2  0
 10 11  1  0
 11 12  2  0
 12 13  1  0
 13 14  2  0
 14 15  1  0
 15 16  2  0
 16 17  1  0
 17 18  1  0
 18 19  2  0
 15 20  1  0
 20 21  2  0
 21 22  1  0
 22 23  1  0
 23 24  1  0
 24 25  1  0
 25 26  1  0
 26 27  1  0
 27 28  1  0
 24 29  1  0
 29 30  2  0
 29 31  1  0
 31 32  2  0
 32 33  1  0
 33 34  2  0
 34 35  1  0
 35 36  2  0
 10  3  1  0
 19 11  1  0
 28 20  1  0
 36 31  1  0
 18 14  1  0
 27 22  2  0
  1 37  1  0
  1 38  1  0
  1 39  1  0
  2 40  1  0
  2 41  1  0
  4 42  1  0
  6 43  1  0
  9 44  1  0
 12 45  1  0
 13 46  1  0
 17 47  1  0
 19 48  1  0
 23 49  1  0
 23 50  1  0
 25 51  1  0
 25 52  1  0
 26 53  1  0
 26 54  1  0
 28 55  1  0
 32 56  1  0
 33 57  1  0
 34 58  1  0
 35 59  1  0
 36 60  1  0
M  END
$$$$
[H]N=C(N([H])[H])N([H])C([H])([H])C([H])([H])C([H])([H])[C@@]([H])(C(=O)N([H])[C@]([H])(C(=O)c1nc([H])c([H])s1)C([H])([H])C([H])([H])C([H])([H])N=C(N([H])[H])N([H])[H])N([H])C(=O)[C@@]1([H])N(C(=O)[C@]([H])(N([H])C(=O)OC([H])([H])c2c([H])c([H])c([H])c([H])c2[H])C([H])([H])c2c([H])c([H])c([H])c([H])c2[H])C([H])([H])C([H])([H])C1([H])[H]
     RDKit          3D

104107  0  0  0  0  0  0  0  0999 V2000
    0.3047   -6.1639   -1.4730 N   0  0  0  0  0  0  0  0  0  0  0  0
    1.6342   -5.7106   -1.5371 C   0  0  0  0  0  0  0  0  0  0  0  0
    2.5169   -6.4392   -2.0964 N   0  0  0  0  0  0  0  0  0  0  0  0
    2.0107   -4.4385   -0.9776 N   0  0  0  0  0  0  0  0  0  0  0  0
    2.3437   -4.3054    0.4084 C   0  0  0  0  0  0  0  0  0  0  0  0
    2.6603   -2.8692    0.7390 C   0  0  0  0  0  0  0  0  0  0  0  0
    1.4476   -2.0161    0.4491 C   0  0  0  0  0  0  0  0  0  0  0  0
    1.7241   -0.5429    0.8037 C   0  0  2  0  0  0  0  0  0  0  0  0
    0.5217    0.2362    0.5204 N   0  0  0  0  0  0  0  0  0  0  0  0
   -0.4823    0.3259    1.4990 C   0  0  0  0  0  0  0  0  0  0  0  0
   -0.3244   -0.2753    2.5789 O   0  0  0  0  0  0  0  0  0  0  0  0
   -1.6866    1.1135    1.2443 C   0  0  2  0  0  0  0  0  0  0  0  0
   -1.4411    2.5743    1.7527 C   0  0  0  0  0  0  0  0  0  0  0  0
   -1.6643    2.4383    3.2454 C   0  0  0  0  0  0  0  0  0  0  0  0
   -2.5026    1.2050    3.4183 C   0  0  0  0  0  0  0  0  0  0  0  0
   -2.8277    0.8084    2.0634 N   0  0  0  0  0  0  0  0  0  0  0  0
   -4.0903    0.2743    1.7199 C   0  0  0  0  0  0  0  0  0  0  0  0
   -4.9386    0.0669    2.6107 O   0  0  0  0  0  0  0  0  0  0  0  0
   -4.4330   -0.0352    0.3220 C   0  0  1  0  0  0  0  0  0  0  0  0
   -3.6690   -1.1415   -0.3242 C   0  0  0  0  0  0  0  0  0  0  0  0
   -3.7827   -2.4598    0.2916 C   0  0  0  0  0  0  0  0  0  0  0  0
   -4.7931   -3.3093   -0.0936 C   0  0  0  0  0  0  0  0  0  0  0  0
   -4.9603   -4.5782    0.4178 C   0  0  0  0  0  0  0  0  0  0  0  0
   -4.0640   -5.0038    1.3606 C   0  0  0  0  0  0  0  0  0  0  0  0
   -3.0379   -4.2050    1.7849 C   0  0  0  0  0  0  0  0  0  0  0  0
   -2.9098   -2.9226    1.2354 C   0  0  0  0  0  0  0  0  0  0  0  0
   -5.8810   -0.3271    0.2206 N   0  0  0  0  0  0  0  0  0  0  0  0
   -6.7714    0.6389   -0.3486 C   0  0  0  0  0  0  0  0  0  0  0  0
   -6.3642    1.7511   -0.7648 O   0  0  0  0  0  0  0  0  0  0  0  0
   -8.1212    0.3643   -0.4527 O   0  0  0  0  0  0  0  0  0  0  0  0
   -9.0338    1.2635   -0.9776 C   0  0  0  0  0  0  0  0  0  0  0  0
   -8.8216    1.7060   -2.3569 C   0  0  0  0  0  0  0  0  0  0  0  0
   -9.4966    2.8513   -2.7636 C   0  0  0  0  0  0  0  0  0  0  0  0
   -9.3684    3.3669   -4.0336 C   0  0  0  0  0  0  0  0  0  0  0  0
   -8.5474    2.7431   -4.9543 C   0  0  0  0  0  0  0  0  0  0  0  0
   -7.8737    1.6078   -4.5651 C   0  0  0  0  0  0  0  0  0  0  0  0
   -8.0083    1.0916   -3.2765 C   0  0  0  0  0  0  0  0  0  0  0  0
    2.8791   -0.0508    0.0439 C   0  0  0  0  0  0  0  0  0  0  0  0
    2.7215    0.3801   -1.1384 O   0  0  0  0  0  0  0  0  0  0  0  0
    4.1737   -0.0394    0.5913 N   0  0  0  0  0  0  0  0  0  0  0  0
    5.3243    0.4558   -0.2160 C   0  0  1  0  0  0  0  0  0  0  0  0
    5.4523    1.8926    0.2502 C   0  0  0  0  0  0  0  0  0  0  0  0
    6.5453    2.6892   -0.3457 C   0  0  0  0  0  0  0  0  0  0  0  0
    6.4208    4.1121    0.1905 C   0  0  0  0  0  0  0  0  0  0  0  0
    6.5048    4.2153    1.6086 N   0  0  0  0  0  0  0  0  0  0  0  0
    7.2628    5.0370    2.2152 C   0  0  0  0  0  0  0  0  0  0  0  0
    8.0798    5.9091    1.4243 N   0  0  0  0  0  0  0  0  0  0  0  0
    7.3201    5.1218    3.6505 N   0  0  0  0  0  0  0  0  0  0  0  0
    6.4424   -0.4142    0.0544 C   0  0  0  0  0  0  0  0  0  0  0  0
    6.4352   -1.1456    1.0861 O   0  0  0  0  0  0  0  0  0  0  0  0
    7.6081   -0.5080   -0.8176 C   0  0  0  0  0  0  0  0  0  0  0  0
    7.9070    0.0739   -1.9659 N   0  0  0  0  0  0  0  0  0  0  0  0
    9.0222   -0.1690   -2.5615 C   0  0  0  0  0  0  0  0  0  0  0  0
    9.8926   -1.0520   -1.9667 C   0  0  0  0  0  0  0  0  0  0  0  0
    9.0219   -1.4805   -0.5584 S   0  0  0  0  0  0  0  0  0  0  0  0
   -0.4432   -5.4807   -1.1837 H   0  0  0  0  0  0  0  0  0  0  0  0
   -0.0062   -7.1127   -1.6838 H   0  0  0  0  0  0  0  0  0  0  0  0
    3.5229   -6.1698   -2.1819 H   0  0  0  0  0  0  0  0  0  0  0  0
    2.0416   -3.6089   -1.6012 H   0  0  0  0  0  0  0  0  0  0  0  0
    1.4604   -4.6594    0.9924 H   0  0  0  0  0  0  0  0  0  0  0  0
    3.1907   -4.9714    0.7289 H   0  0  0  0  0  0  0  0  0  0  0  0
    3.5748   -2.5207    0.1984 H   0  0  0  0  0  0  0  0  0  0  0  0
    2.9294   -2.8079    1.8177 H   0  0  0  0  0  0  0  0  0  0  0  0
    0.6233   -2.4094    1.0660 H   0  0  0  0  0  0  0  0  0  0  0  0
    1.1583   -2.0951   -0.6103 H   0  0  0  0  0  0  0  0  0  0  0  0
    1.8611   -0.5643    1.8964 H   0  0  0  0  0  0  0  0  0  0  0  0
    0.4444    0.6997   -0.3926 H   0  0  0  0  0  0  0  0  0  0  0  0
   -1.9583    1.2521    0.1848 H   0  0  0  0  0  0  0  0  0  0  0  0
   -0.4442    2.9187    1.4855 H   0  0  0  0  0  0  0  0  0  0  0  0
   -2.2024    3.2562    1.3420 H   0  0  0  0  0  0  0  0  0  0  0  0
   -2.2230    3.2963    3.6746 H   0  0  0  0  0  0  0  0  0  0  0  0
   -0.6950    2.3890    3.7923 H   0  0  0  0  0  0  0  0  0  0  0  0
   -3.4542    1.4468    3.9827 H   0  0  0  0  0  0  0  0  0  0  0  0
   -2.0204    0.4367    4.0295 H   0  0  0  0  0  0  0  0  0  0  0  0
   -4.2621    0.8960   -0.2496 H   0  0  0  0  0  0  0  0  0  0  0  0
   -3.9826   -1.1840   -1.4290 H   0  0  0  0  0  0  0  0  0  0  0  0
   -2.6035   -0.8720   -0.3918 H   0  0  0  0  0  0  0  0  0  0  0  0
   -5.5310   -3.0179   -0.8384 H   0  0  0  0  0  0  0  0  0  0  0  0
   -5.7696   -5.2422    0.1015 H   0  0  0  0  0  0  0  0  0  0  0  0
   -4.1532   -6.0010    1.7927 H   0  0  0  0  0  0  0  0  0  0  0  0
   -2.3314   -4.5487    2.5332 H   0  0  0  0  0  0  0  0  0  0  0  0
   -2.0920   -2.3301    1.5938 H   0  0  0  0  0  0  0  0  0  0  0  0
   -6.2834   -1.2151    0.5504 H   0  0  0  0  0  0  0  0  0  0  0  0
  -10.0378    0.7653   -0.9427 H   0  0  0  0  0  0  0  0  0  0  0  0
   -9.0984    2.1779   -0.3299 H   0  0  0  0  0  0  0  0  0  0  0  0
  -10.1460    3.3618   -2.0675 H   0  0  0  0  0  0  0  0  0  0  0  0
   -9.8943    4.2543   -4.3365 H   0  0  0  0  0  0  0  0  0  0  0  0
   -8.4548    3.1719   -5.9656 H   0  0  0  0  0  0  0  0  0  0  0  0
   -7.2326    1.1301   -5.2958 H   0  0  0  0  0  0  0  0  0  0  0  0
   -7.4782    0.2031   -2.9849 H   0  0  0  0  0  0  0  0  0  0  0  0
    4.4282   -0.3557    1.5477 H   0  0  0  0  0  0  0  0  0  0  0  0
    4.9866    0.4877   -1.2903 H   0  0  0  0  0  0  0  0  0  0  0  0
    5.4765    1.8897    1.3619 H   0  0  0  0  0  0  0  0  0  0  0  0
    4.4501    2.3545   -0.0098 H   0  0  0  0  0  0  0  0  0  0  0  0
    6.4793    2.7531   -1.4420 H   0  0  0  0  0  0  0  0  0  0  0  0
    7.5563    2.2874   -0.0972 H   0  0  0  0  0  0  0  0  0  0  0  0
    7.2610    4.7441   -0.2369 H   0  0  0  0  0  0  0  0  0  0  0  0
    5.5064    4.5972   -0.2200 H   0  0  0  0  0  0  0  0  0  0  0  0
    7.8289    6.9189    1.3654 H   0  0  0  0  0  0  0  0  0  0  0  0
    8.8952    5.4711    0.9456 H   0  0  0  0  0  0  0  0  0  0  0  0
    7.1164    6.0338    4.1190 H   0  0  0  0  0  0  0  0  0  0  0  0
    7.5560    4.3166    4.2662 H   0  0  0  0  0  0  0  0  0  0  0  0
    9.2848    0.3182   -3.5353 H   0  0  0  0  0  0  0  0  0  0  0  0
   10.8828   -1.3724   -2.3331 H   0  0  0  0  0  0  0  0  0  0  0  0
  1  2  1  0
  2  3  2  3
  2  4  1  0
  4  5  1  0
  5  6  1  0
  6  7  1  0
  7  8  1  0
  8  9  1  0
  9 10  1  0
 10 11  2  0
 10 12  1  0
 12 13  1  0
 13 14  1  0
 14 15  1  0
 15 16  1  0
 16 17  1  0
 17 18  2  0
 17 19  1  0
 19 20  1  0
 20 21  1  0
 21 22  2  0
 22 23  1  0
 23 24  2  0
 24 25  1  0
 25 26  2  0
 19 27  1  0
 27 28  1  0
 28 29  2  0
 28 30  1  0
 30 31  1  0
 31 32  1  0
 32 33  2  0
 33 34  1  0
 34 35  2  0
 35 36  1  0
 36 37  2  0
  8 38  1  0
 38 39  2  0
 38 40  1  0
 40 41  1  0
 41 42  1  0
 42 43  1  0
 43 44  1  0
 44 45  1  0
 45 46  2  3
 46 47  1  0
 46 48  1  0
 41 49  1  0
 49 50  2  0
 49 51  1  0
 51 52  2  0
 52 53  1  0
 53 54  2  0
 54 55  1  0
 16 12  1  0
 26 21  1  0
 37 32  1  0
 55 51  1  0
  1 56  1  0
  1 57  1  0
  3 58  1  0
  4 59  1  0
  5 60  1  0
  5 61  1  0
  6 62  1  0
  6 63  1  0
  7 64  1  0
  7 65  1  0
  8 66  1  1
  9 67  1  0
 12 68  1  6
 13 69  1  0
 13 70  1  0
 14 71  1  0
 14 72  1  0
 15 73  1  0
 15 74  1  0
 19 75  1  6
 20 76  1  0
 20 77  1  0
 22 78  1  0
 23 79  1  0
 24 80  1  0
 25 81  1  0
 26 82  1  0
 27 83  1  0
 31 84  1  0
 31 85  1  0
 33 86  1  0
 34 87  1  0
 35 88  1  0
 36 89  1  0
 37 90  1  0
 40 91  1  0
 41 92  1  6
 42 93  1  0
 42 94  1  0
 43 95  1  0
 43 96  1  0
 44 97  1  0
 44 98  1  0
 47 99  1  0
 47100  1  0
 48101  1  0
 48102  1  0
 53103  1  0
 54104  1  0
M  END
$$$$
[H]c1c([H])c([H])c2c(c1[H])N=C(N1C([H])([H])C([H])([H])N(C([H])([H])[H])C([H])([H])C1([H])[H])c1c([H])c([H])c([H])c([H])c1S2
     RDKit          3D

 41 44  0  0  0  0  0  0  0  0999 V2000
    4.1859   -1.5941    1.2533 C   0  0  0  0  0  0  0  0  0  0  0  0
    3.8567   -0.8393    0.0596 N   0  0  0  0  0  0  0  0  0  0  0  0
    2.8614   -1.5650   -0.6752 C   0  0  0  0  0  0  0  0  0  0  0  0
    1.8050   -0.6421   -1.2920 C   0  0  0  0  0  0  0  0  0  0  0  0
    1.1530    0.0483   -0.1973 N   0  0  0  0  0  0  0  0  0  0  0  0
    2.0033    0.5823    0.8473 C   0  0  0  0  0  0  0  0  0  0  0  0
    3.4452    0.5076    0.3355 C   0  0  0  0  0  0  0  0  0  0  0  0
   -0.2743    0.1663   -0.1949 C   0  0  0  0  0  0  0  0  0  0  0  0
   -0.8801   -0.9436   -0.0798 N   0  0  0  0  0  0  0  0  0  0  0  0
   -2.2450   -1.2919   -0.0320 C   0  0  0  0  0  0  0  0  0  0  0  0
   -2.4719   -2.6162   -0.4218 C   0  0  0  0  0  0  0  0  0  0  0  0
   -3.7137   -3.1700   -0.4505 C   0  0  0  0  0  0  0  0  0  0  0  0
   -4.7916   -2.3890   -0.0788 C   0  0  0  0  0  0  0  0  0  0  0  0
   -4.5787   -1.0733    0.3099 C   0  0  0  0  0  0  0  0  0  0  0  0
   -3.3088   -0.5362    0.3300 C   0  0  0  0  0  0  0  0  0  0  0  0
   -3.3530    1.1640    0.8664 S   0  0  0  0  0  0  0  0  0  0  0  0
   -2.0119    2.0160    0.0742 C   0  0  0  0  0  0  0  0  0  0  0  0
   -2.3344    3.3338   -0.1264 C   0  0  0  0  0  0  0  0  0  0  0  0
   -1.4138    4.1619   -0.7366 C   0  0  0  0  0  0  0  0  0  0  0  0
   -0.1910    3.6717   -1.1374 C   0  0  0  0  0  0  0  0  0  0  0  0
    0.1486    2.3465   -0.9423 C   0  0  0  0  0  0  0  0  0  0  0  0
   -0.7959    1.5197   -0.3220 C   0  0  0  0  0  0  0  0  0  0  0  0
    5.2353   -1.4183    1.5740 H   0  0  0  0  0  0  0  0  0  0  0  0
    3.5064   -1.2231    2.0608 H   0  0  0  0  0  0  0  0  0  0  0  0
    3.9855   -2.6828    1.0753 H   0  0  0  0  0  0  0  0  0  0  0  0
    2.3327   -2.2485    0.0067 H   0  0  0  0  0  0  0  0  0  0  0  0
    3.2833   -2.1349   -1.5380 H   0  0  0  0  0  0  0  0  0  0  0  0
    2.2457    0.0072   -2.0473 H   0  0  0  0  0  0  0  0  0  0  0  0
    1.0733   -1.3368   -1.7937 H   0  0  0  0  0  0  0  0  0  0  0  0
    1.8817    0.0026    1.7850 H   0  0  0  0  0  0  0  0  0  0  0  0
    1.8065    1.6407    1.0712 H   0  0  0  0  0  0  0  0  0  0  0  0
    3.4544    1.0574   -0.6371 H   0  0  0  0  0  0  0  0  0  0  0  0
    4.1149    1.0229    1.0416 H   0  0  0  0  0  0  0  0  0  0  0  0
   -1.6172   -3.2323   -0.7155 H   0  0  0  0  0  0  0  0  0  0  0  0
   -3.8573   -4.1964   -0.7564 H   0  0  0  0  0  0  0  0  0  0  0  0
   -5.7591   -2.8513   -0.1108 H   0  0  0  0  0  0  0  0  0  0  0  0
   -5.4242   -0.4722    0.5979 H   0  0  0  0  0  0  0  0  0  0  0  0
   -3.3156    3.7255    0.1956 H   0  0  0  0  0  0  0  0  0  0  0  0
   -1.6831    5.1962   -0.8871 H   0  0  0  0  0  0  0  0  0  0  0  0
    0.5375    4.3338   -1.6221 H   0  0  0  0  0  0  0  0  0  0  0  0
    1.1042    1.9526   -1.2535 H   0  0  0  0  0  0  0  0  0  0  0  0
  1  2  1  0
  2  3  1  0
  3  4  1  0
  4  5  1  0
  5  6  1  0
  6  7  1  0
  5  8  1  0
  8  9  2  0
  9 10  1  0
 10 11  2  0
 11 12  1  0
 12 13  2  0
 13 14  1  0
 14 15  2  0
 15 16  1  0
 16 17  1  0
 17 18  2  0
 18 19  1  0
 19 20  2  0
 20 21  1  0
 21 22  2  0
  7  2  1  0
 22  8  1  0
 15 10  1  0
 22 17  1  0
  1 23  1  0
  1 24  1  0
  1 25  1  0
  3 26  1  0
  3 27  1  0
  4 28  1  0
  4 29  1  0
  6 30  1  0
  6 31  1  0
  7 32  1  0
  7 33  1  0
 11 34  1  0
 12 35  1  0
 13 36  1  0
 14 37  1  0
 18 38  1  0
 19 39  1  0
 20 40  1  0
 21 41  1  0
M  END
$$$$
[H]c1nc2c([H])c(OC([H])([H])C([H])([H])C([H])([H])N3C([H])([H])C([H])([H])OC([H])([H])C3([H])[H])c(OC([H])([H])[H])c([H])c2c(Oc2c([H])c([H])c(N([H])C(=O)C3(C(=O)N([H])c4c([H])c([H])c(F)c([H])c4[H])C([H])([H])C3([H])[H])c([H])c2F)c1[H]
     RDKit          3D

 80 85  0  0  0  0  0  0  0  0999 V2000
   -3.8348   -0.7830   -2.5268 C   0  0  0  0  0  0  0  0  0  0  0  0
   -4.4085   -0.0831   -1.4692 O   0  0  0  0  0  0  0  0  0  0  0  0
   -3.7050    0.3915   -0.3940 C   0  0  0  0  0  0  0  0  0  0  0  0
   -2.3426    0.2299   -0.2625 C   0  0  0  0  0  0  0  0  0  0  0  0
   -1.6750    0.7344    0.8625 C   0  0  0  0  0  0  0  0  0  0  0  0
   -0.2898    0.5501    0.9662 C   0  0  0  0  0  0  0  0  0  0  0  0
    0.3435   -0.1256   -0.0602 O   0  0  0  0  0  0  0  0  0  0  0  0
    1.7161   -0.3803   -0.1332 C   0  0  0  0  0  0  0  0  0  0  0  0
    2.1597   -1.6934   -0.1033 C   0  0  0  0  0  0  0  0  0  0  0  0
    3.5189   -2.0068   -0.1774 C   0  0  0  0  0  0  0  0  0  0  0  0
    4.4887   -1.0391   -0.2815 C   0  0  0  0  0  0  0  0  0  0  0  0
    5.8792   -1.3421   -0.3734 N   0  0  0  0  0  0  0  0  0  0  0  0
    6.4824   -2.5462    0.0493 C   0  0  0  0  0  0  0  0  0  0  0  0
    5.8571   -3.4761    0.5938 O   0  0  0  0  0  0  0  0  0  0  0  0
    7.9663   -2.7108   -0.2057 C   0  0  0  0  0  0  0  0  0  0  0  0
    8.3768   -4.0792   -0.7264 C   0  0  0  0  0  0  0  0  0  0  0  0
    8.5635   -3.7277    0.7383 C   0  0  0  0  0  0  0  0  0  0  0  0
    8.7412   -1.5075   -0.5379 C   0  0  0  0  0  0  0  0  0  0  0  0
    9.2658   -1.4618   -1.7261 O   0  0  0  0  0  0  0  0  0  0  0  0
    8.9847   -0.4096    0.2987 N   0  0  0  0  0  0  0  0  0  0  0  0
    9.7265    0.7540   -0.0941 C   0  0  0  0  0  0  0  0  0  0  0  0
   10.8357    1.1147    0.5958 C   0  0  0  0  0  0  0  0  0  0  0  0
   11.5248    2.2599    0.2548 C   0  0  0  0  0  0  0  0  0  0  0  0
   11.0639    3.0368   -0.8057 C   0  0  0  0  0  0  0  0  0  0  0  0
   11.7002    4.1760   -1.1980 F   0  0  0  0  0  0  0  0  0  0  0  0
    9.9259    2.6771   -1.5228 C   0  0  0  0  0  0  0  0  0  0  0  0
    9.2822    1.5333   -1.1426 C   0  0  0  0  0  0  0  0  0  0  0  0
    4.0405    0.2679   -0.3104 C   0  0  0  0  0  0  0  0  0  0  0  0
    2.6818    0.5942   -0.2385 C   0  0  0  0  0  0  0  0  0  0  0  0
    2.2895    1.9005   -0.2942 F   0  0  0  0  0  0  0  0  0  0  0  0
    0.3644    1.0374    2.0620 C   0  0  0  0  0  0  0  0  0  0  0  0
   -0.3737    1.7049    3.0395 C   0  0  0  0  0  0  0  0  0  0  0  0
   -1.7048    1.8658    2.9116 N   0  0  0  0  0  0  0  0  0  0  0  0
   -2.3620    1.3966    1.8519 C   0  0  0  0  0  0  0  0  0  0  0  0
   -3.7219    1.5655    1.7321 C   0  0  0  0  0  0  0  0  0  0  0  0
   -4.3695    1.0741    0.6362 C   0  0  0  0  0  0  0  0  0  0  0  0
   -5.7174    1.2662    0.5493 O   0  0  0  0  0  0  0  0  0  0  0  0
   -6.4811    1.9426    1.5276 C   0  0  0  0  0  0  0  0  0  0  0  0
   -7.9347    2.0328    1.1448 C   0  0  0  0  0  0  0  0  0  0  0  0
   -8.4979    0.6486    1.0445 C   0  0  0  0  0  0  0  0  0  0  0  0
   -9.9036    0.6228    0.6831 N   0  0  0  0  0  0  0  0  0  0  0  0
  -10.3079   -0.7910    0.8619 C   0  0  0  0  0  0  0  0  0  0  0  0
  -11.6524   -1.0829    0.2872 C   0  0  0  0  0  0  0  0  0  0  0  0
  -11.9057   -0.4129   -0.9237 O   0  0  0  0  0  0  0  0  0  0  0  0
  -10.6875   -0.1604   -1.5210 C   0  0  0  0  0  0  0  0  0  0  0  0
   -9.9805    0.9527   -0.7449 C   0  0  0  0  0  0  0  0  0  0  0  0
   -3.5752   -1.8606   -2.2552 H   0  0  0  0  0  0  0  0  0  0  0  0
   -4.5499   -0.8738   -3.3932 H   0  0  0  0  0  0  0  0  0  0  0  0
   -2.9103   -0.3554   -2.9443 H   0  0  0  0  0  0  0  0  0  0  0  0
   -1.7881   -0.2915   -1.0522 H   0  0  0  0  0  0  0  0  0  0  0  0
    1.4435   -2.4997   -0.0192 H   0  0  0  0  0  0  0  0  0  0  0  0
    3.8115   -3.0467   -0.1742 H   0  0  0  0  0  0  0  0  0  0  0  0
    6.5102   -0.6145   -0.7952 H   0  0  0  0  0  0  0  0  0  0  0  0
    9.3550   -4.1910   -1.2604 H   0  0  0  0  0  0  0  0  0  0  0  0
    7.5489   -4.7822   -0.9962 H   0  0  0  0  0  0  0  0  0  0  0  0
    7.9285   -4.2048    1.5021 H   0  0  0  0  0  0  0  0  0  0  0  0
    9.5761   -3.4402    1.0968 H   0  0  0  0  0  0  0  0  0  0  0  0
    8.6269   -0.4382    1.3024 H   0  0  0  0  0  0  0  0  0  0  0  0
   11.2158    0.5228    1.4404 H   0  0  0  0  0  0  0  0  0  0  0  0
   12.4267    2.5904    0.7817 H   0  0  0  0  0  0  0  0  0  0  0  0
    9.5578    3.2991   -2.3588 H   0  0  0  0  0  0  0  0  0  0  0  0
    8.3940    1.2002   -1.6567 H   0  0  0  0  0  0  0  0  0  0  0  0
    4.7885    1.0431   -0.3850 H   0  0  0  0  0  0  0  0  0  0  0  0
    1.4077    0.9219    2.2023 H   0  0  0  0  0  0  0  0  0  0  0  0
    0.1267    2.1033    3.9130 H   0  0  0  0  0  0  0  0  0  0  0  0
   -4.2450    2.0957    2.5441 H   0  0  0  0  0  0  0  0  0  0  0  0
   -6.0816    2.9259    1.7614 H   0  0  0  0  0  0  0  0  0  0  0  0
   -6.4223    1.2583    2.4406 H   0  0  0  0  0  0  0  0  0  0  0  0
   -8.0945    2.6326    0.2433 H   0  0  0  0  0  0  0  0  0  0  0  0
   -8.4948    2.5991    1.9539 H   0  0  0  0  0  0  0  0  0  0  0  0
   -7.8870    0.1130    0.2654 H   0  0  0  0  0  0  0  0  0  0  0  0
   -8.3089    0.1370    2.0005 H   0  0  0  0  0  0  0  0  0  0  0  0
   -9.4878   -1.3997    0.4459 H   0  0  0  0  0  0  0  0  0  0  0  0
  -10.2930   -0.9120    1.9864 H   0  0  0  0  0  0  0  0  0  0  0  0
  -11.6772   -2.1790    0.0299 H   0  0  0  0  0  0  0  0  0  0  0  0
  -12.4398   -0.9525    1.0381 H   0  0  0  0  0  0  0  0  0  0  0  0
  -10.0219   -1.0279   -1.4792 H   0  0  0  0  0  0  0  0  0  0  0  0
  -10.8743    0.1453   -2.5500 H   0  0  0  0  0  0  0  0  0  0  0  0
  -10.5228    1.8993   -0.8854 H   0  0  0  0  0  0  0  0  0  0  0  0
   -8.9666    1.0724   -1.1712 H   0  0  0  0  0  0  0  0  0  0  0  0
  1  2  1  0
  2  3  1  0
  3  4  2  0
  4  5  1  0
  5  6  2  0
  6  7  1  0
  7  8  1  0
  8  9  2  0
  9 10  1  0
 10 11  2  0
 11 12  1  0
 12 13  1  0
 13 14  2  0
 13 15  1  0
 15 16  1  0
 16 17  1  0
 15 18  1  0
 18 19  2  0
 18 20  1  0
 20 21  1  0
 21 22  2  0
 22 23  1  0
 23 24  2  0
 24 25  1  0
 24 26  1  0
 26 27  2  0
 11 28  1  0
 28 29  2  0
 29 30  1  0
  6 31  1  0
 31 32  2  0
 32 33  1  0
 33 34  2  0
 34 35  1  0
 35 36  2  0
 36 37  1  0
 37 38  1  0
 38 39  1  0
 39 40  1  0
 40 41  1  0
 41 42  1  0
 42 43  1  0
 43 44  1  0
 44 45  1  0
 45 46  1  0
 36  3  1  0
 46 41  1  0
 34  5  1  0
 29  8  1  0
 17 15  1  0
 27 21  1  0
  1 47  1  0
  1 48  1  0
  1 49  1  0
  4 50  1  0
  9 51  1  0
 10 52  1  0
 12 53  1  0
 16 54  1  0
 16 55  1  0
 17 56  1  0
 17 57  1  0
 20 58  1  0
 22 59  1  0
 23 60  1  0
 26 61  1  0
 27 62  1  0
 28 63  1  0
 31 64  1  0
 32 65  1  0
 35 66  1  0
 38 67  1  0
 38 68  1  0
 39 69  1  0
 39 70  1  0
 40 71  1  0
 40 72  1  0
 42 73  1  0
 42 74  1  0
 43 75  1  0
 43 76  1  0
 45 77  1  0
 45 78  1  0
 46 79  1  0
 46 80  1  0
M  END
$$$$
[H]c1c([H])c([H])c(-c2c(-c3c([H])c([H])c([H])c([H])c3Cl)nc(C3([H])C([H])([H])C([H])([H])N(C(=O)c4c([H])c(OC([H])([H])[H])c(OC([H])([H])[H])c(OC([H])([H])[H])c4[H])C([H])([H])C3([H])[H])n2[H])c([H])c1[H]
     RDKit          3D

 68 72  0  0  0  0  0  0  0  0999 V2000
    7.5079   -3.2912    1.6603 C   0  0  0  0  0  0  0  0  0  0  0  0
    7.6017   -1.8899    1.5697 O   0  0  0  0  0  0  0  0  0  0  0  0
    6.5932   -1.0741    1.0807 C   0  0  0  0  0  0  0  0  0  0  0  0
    5.4042   -1.5868    0.6405 C   0  0  0  0  0  0  0  0  0  0  0  0
    4.3524   -0.7987    0.1359 C   0  0  0  0  0  0  0  0  0  0  0  0
    4.6114    0.5442    0.1166 C   0  0  0  0  0  0  0  0  0  0  0  0
    5.8390    1.0738    0.5716 C   0  0  0  0  0  0  0  0  0  0  0  0
    6.0389    2.4469    0.5265 O   0  0  0  0  0  0  0  0  0  0  0  0
    5.0230    3.2964    0.0307 C   0  0  0  0  0  0  0  0  0  0  0  0
    6.8372    0.2706    1.0560 C   0  0  0  0  0  0  0  0  0  0  0  0
    8.0307    0.8489    1.4921 O   0  0  0  0  0  0  0  0  0  0  0  0
    9.1330    1.0093    0.6113 C   0  0  0  0  0  0  0  0  0  0  0  0
    3.1726   -1.4376   -0.3522 C   0  0  0  0  0  0  0  0  0  0  0  0
    3.2870   -2.7463   -0.5053 O   0  0  0  0  0  0  0  0  0  0  0  0
    1.8997   -0.9605   -0.7070 N   0  0  0  0  0  0  0  0  0  0  0  0
    1.5044    0.3933   -0.5683 C   0  0  0  0  0  0  0  0  0  0  0  0
    0.0090    0.6450   -0.4904 C   0  0  0  0  0  0  0  0  0  0  0  0
   -0.8104   -0.3866   -1.2237 C   0  0  0  0  0  0  0  0  0  0  0  0
   -0.3789   -1.7362   -0.7417 C   0  0  0  0  0  0  0  0  0  0  0  0
    0.9988   -1.9773   -1.2844 C   0  0  0  0  0  0  0  0  0  0  0  0
   -2.2447   -0.1361   -0.9332 C   0  0  0  0  0  0  0  0  0  0  0  0
   -3.1741    0.4018   -1.7380 N   0  0  0  0  0  0  0  0  0  0  0  0
   -4.3645    0.4552   -1.1202 C   0  0  0  0  0  0  0  0  0  0  0  0
   -4.1775   -0.0757    0.1358 C   0  0  0  0  0  0  0  0  0  0  0  0
   -2.8862   -0.4182    0.2047 N   0  0  0  0  0  0  0  0  0  0  0  0
   -5.1540   -0.2434    1.1881 C   0  0  0  0  0  0  0  0  0  0  0  0
   -5.4903   -1.4973    1.6953 C   0  0  0  0  0  0  0  0  0  0  0  0
   -6.4124   -1.6734    2.6873 C   0  0  0  0  0  0  0  0  0  0  0  0
   -7.0603   -0.5871    3.2365 C   0  0  0  0  0  0  0  0  0  0  0  0
   -6.7350    0.6570    2.7422 C   0  0  0  0  0  0  0  0  0  0  0  0
   -5.8059    0.8448    1.7413 C   0  0  0  0  0  0  0  0  0  0  0  0
   -5.5821    0.9864   -1.7059 C   0  0  0  0  0  0  0  0  0  0  0  0
   -5.7260    2.3408   -1.8008 C   0  0  0  0  0  0  0  0  0  0  0  0
   -6.8657    2.8662   -2.3549 C   0  0  0  0  0  0  0  0  0  0  0  0
   -7.8876    2.0286   -2.8265 C   0  0  0  0  0  0  0  0  0  0  0  0
   -7.7405    0.6706   -2.7304 C   0  0  0  0  0  0  0  0  0  0  0  0
   -6.5747    0.1620   -2.1643 C   0  0  0  0  0  0  0  0  0  0  0  0
   -6.4457   -1.5929   -2.0810 Cl  0  0  0  0  0  0  0  0  0  0  0  0
    6.8798   -3.5844    2.5332 H   0  0  0  0  0  0  0  0  0  0  0  0
    8.5297   -3.7004    1.8679 H   0  0  0  0  0  0  0  0  0  0  0  0
    7.1109   -3.6725    0.6891 H   0  0  0  0  0  0  0  0  0  0  0  0
    5.2414   -2.6520    0.6755 H   0  0  0  0  0  0  0  0  0  0  0  0
    3.9162    1.2507   -0.2655 H   0  0  0  0  0  0  0  0  0  0  0  0
    5.3720    4.3465    0.1055 H   0  0  0  0  0  0  0  0  0  0  0  0
    4.7946    3.0046   -1.0270 H   0  0  0  0  0  0  0  0  0  0  0  0
    4.0677    3.1631    0.5924 H   0  0  0  0  0  0  0  0  0  0  0  0
   10.0180    1.2192    1.2357 H   0  0  0  0  0  0  0  0  0  0  0  0
    9.2521    0.1460   -0.0475 H   0  0  0  0  0  0  0  0  0  0  0  0
    8.8997    1.8962   -0.0265 H   0  0  0  0  0  0  0  0  0  0  0  0
    1.9356    1.0077   -1.3623 H   0  0  0  0  0  0  0  0  0  0  0  0
    1.8768    0.7989    0.4231 H   0  0  0  0  0  0  0  0  0  0  0  0
   -0.3672    0.7127    0.5422 H   0  0  0  0  0  0  0  0  0  0  0  0
   -0.1799    1.6244   -0.9741 H   0  0  0  0  0  0  0  0  0  0  0  0
   -0.6253   -0.3250   -2.3357 H   0  0  0  0  0  0  0  0  0  0  0  0
   -0.3216   -1.7713    0.3637 H   0  0  0  0  0  0  0  0  0  0  0  0
   -1.0594   -2.5449   -1.1271 H   0  0  0  0  0  0  0  0  0  0  0  0
    1.3110   -2.9829   -1.0182 H   0  0  0  0  0  0  0  0  0  0  0  0
    1.0061   -1.9011   -2.3953 H   0  0  0  0  0  0  0  0  0  0  0  0
   -2.4229   -0.8588    1.0517 H   0  0  0  0  0  0  0  0  0  0  0  0
   -5.0132   -2.4022    1.3024 H   0  0  0  0  0  0  0  0  0  0  0  0
   -6.6554   -2.6619    3.0620 H   0  0  0  0  0  0  0  0  0  0  0  0
   -7.8044   -0.7280    4.0355 H   0  0  0  0  0  0  0  0  0  0  0  0
   -7.2330    1.5133    3.1609 H   0  0  0  0  0  0  0  0  0  0  0  0
   -5.5860    1.8608    1.3866 H   0  0  0  0  0  0  0  0  0  0  0  0
   -4.9595    2.9892   -1.4473 H   0  0  0  0  0  0  0  0  0  0  0  0
   -7.0288    3.9323   -2.4537 H   0  0  0  0  0  0  0  0  0  0  0  0
   -8.7633    2.4838   -3.2532 H   0  0  0  0  0  0  0  0  0  0  0  0
   -8.5190    0.0030   -3.0891 H   0  0  0  0  0  0  0  0  0  0  0  0
  1  2  1  0
  2  3  1  0
  3  4  2  0
  4  5  1  0
  5  6  2  0
  6  7  1  0
  7  8  1  0
  8  9  1  0
  7 10  2  0
 10 11  1  0
 11 12  1  0
  5 13  1  0
 13 14  2  0
 13 15  1  0
 15 16  1  0
 16 17  1  0
 17 18  1  0
 18 19  1  0
 19 20  1  0
 18 21  1  0
 21 22  2  0
 22 23  1  0
 23 24  2  0
 24 25  1  0
 24 26  1  0
 26 27  2  0
 27 28  1  0
 28 29  2  0
 29 30  1  0
 30 31  2  0
 23 32  1  0
 32 33  2  0
 33 34  1  0
 34 35  2  0
 35 36  1  0
 36 37  2  0
 37 38  1  0
 10  3  1  0
 20 15  1  0
 25 21  1  0
 31 26  1  0
 37 32  1  0
  1 39  1  0
  1 40  1  0
  1 41  1  0
  4 42  1  0
  6 43  1  0
  9 44  1  0
  9 45  1  0
  9 46  1  0
 12 47  1  0
 12 48  1  0
 12 49  1  0
 16 50  1  0
 16 51  1  0
 17 52  1  0
 17 53  1  0
 18 54  1  0
 19 55  1  0
 19 56  1  0
 20 57  1  0
 20 58  1  0
 25 59  1  0
 27 60  1  0
 28 61  1  0
 29 62  1  0
 30 63  1  0
 31 64  1  0
 33 65  1  0
 34 66  1  0
 35 67  1  0
 36 68  1  0
M  END
$$$$
[H]OC(=O)c1c([H])c([H])c(-c2c([H])c(C#N)c([H])c3c([H])c([H])c([H])c([H])c23)c([H])c1O[H]
     RDKit          3D

 33 35  0  0  0  0  0  0  0  0999 V2000
    5.3936    0.9621   -1.0391 O   0  0  0  0  0  0  0  0  0  0  0  0
    4.8524    0.0323   -0.1147 C   0  0  0  0  0  0  0  0  0  0  0  0
    5.6988   -0.5312    0.5915 O   0  0  0  0  0  0  0  0  0  0  0  0
    3.4160   -0.1525   -0.0961 C   0  0  0  0  0  0  0  0  0  0  0  0
    2.6261    0.5966   -0.9933 C   0  0  0  0  0  0  0  0  0  0  0  0
    1.2707    0.4669   -1.0235 C   0  0  0  0  0  0  0  0  0  0  0  0
    0.6116   -0.3929   -0.1883 C   0  0  0  0  0  0  0  0  0  0  0  0
    1.3518   -1.1273    0.6870 C   0  0  0  0  0  0  0  0  0  0  0  0
    2.7586   -1.0141    0.7411 C   0  0  0  0  0  0  0  0  0  0  0  0
    3.4366   -1.7792    1.6414 O   0  0  0  0  0  0  0  0  0  0  0  0
   -0.8403   -0.5451   -0.2065 C   0  0  0  0  0  0  0  0  0  0  0  0
   -1.3973   -1.7888   -0.5247 C   0  0  0  0  0  0  0  0  0  0  0  0
   -2.7485   -1.9883   -0.6080 C   0  0  0  0  0  0  0  0  0  0  0  0
   -3.5475   -0.8953   -0.3611 C   0  0  0  0  0  0  0  0  0  0  0  0
   -3.0430    0.3453   -0.0440 C   0  0  0  0  0  0  0  0  0  0  0  0
   -3.8878    1.3986    0.2051 C   0  0  0  0  0  0  0  0  0  0  0  0
   -3.3839    2.6157    0.5305 C   0  0  0  0  0  0  0  0  0  0  0  0
   -2.0259    2.8245    0.6192 C   0  0  0  0  0  0  0  0  0  0  0  0
   -1.1506    1.7871    0.3746 C   0  0  0  0  0  0  0  0  0  0  0  0
   -1.6567    0.5326    0.0378 C   0  0  0  0  0  0  0  0  0  0  0  0
   -3.3183   -3.2823   -0.9389 C   0  0  0  0  0  0  0  0  0  0  0  0
   -3.7655   -4.3166   -1.2022 N   0  0  0  0  0  0  0  0  0  0  0  0
    6.2975    0.8576   -1.4394 H   0  0  0  0  0  0  0  0  0  0  0  0
    3.1581    1.2775   -1.6534 H   0  0  0  0  0  0  0  0  0  0  0  0
    0.7179    1.0831   -1.7494 H   0  0  0  0  0  0  0  0  0  0  0  0
    0.9062   -1.8321    1.3833 H   0  0  0  0  0  0  0  0  0  0  0  0
    4.3814   -1.8176    1.7999 H   0  0  0  0  0  0  0  0  0  0  0  0
   -0.7368   -2.6046   -0.7071 H   0  0  0  0  0  0  0  0  0  0  0  0
   -4.6339   -1.0511   -0.4278 H   0  0  0  0  0  0  0  0  0  0  0  0
   -4.9621    1.2056    0.1282 H   0  0  0  0  0  0  0  0  0  0  0  0
   -4.0935    3.4250    0.7200 H   0  0  0  0  0  0  0  0  0  0  0  0
   -1.6035    3.7843    0.8771 H   0  0  0  0  0  0  0  0  0  0  0  0
   -0.0821    1.9242    0.4558 H   0  0  0  0  0  0  0  0  0  0  0  0
  1  2  1  0
  2  3  2  0
  2  4  1  0
  4  5  2  0
  5  6  1  0
  6  7  2  0
  7  8  1  0
  8  9  2  0
  9 10  1  0
  7 11  1  0
 11 12  2  0
 12 13  1  0
 13 14  2  0
 14 15  1  0
 15 16  2  0
 16 17  1  0
 17 18  2  0
 18 19  1  0
 19 20  2  0
 13 21  1  0
 21 22  3  0
  9  4  1  0
 20 11  1  0
 20 15  1  0
  1 23  1  0
  5 24  1  0
  6 25  1  0
  8 26  1  0
 10 27  1  0
 12 28  1  0
 14 29  1  0
 16 30  1  0
 17 31  1  0
 18 32  1  0
 19 33  1  0
M  END
$$$$
[H]C1=C2C([H])([H])C([H])([H])[C@]3([H])[C@]([H])(C([H])([H])C([H])([H])[C@]4(C([H])([H])[H])C([H])([H])C([H])([H])C(=O)[C@]([H])(C([H])([H])C([H])([H])[H])C([H])([H])[C@@]34[H])[C@@]2(C([H])([H])[H])C([H])([H])C([H])([H])C1=O
     RDKit          3D

 59 62  0  0  0  0  0  0  0  0999 V2000
    3.7745    3.2550   -0.4320 C   0  0  0  0  0  0  0  0  0  0  0  0
    4.2553    1.9783    0.1503 C   0  0  0  0  0  0  0  0  0  0  0  0
    3.3837    0.7797   -0.2683 C   0  0  2  0  0  0  0  0  0  0  0  0
    1.9947    0.9655    0.1724 C   0  0  0  0  0  0  0  0  0  0  0  0
    1.1184   -0.1428    0.5014 C   0  0  1  0  0  0  0  0  0  0  0  0
   -0.3167    0.3147    0.1952 C   0  0  2  0  0  0  0  0  0  0  0  0
   -0.6019    1.6620    0.8191 C   0  0  0  0  0  0  0  0  0  0  0  0
   -1.7931    2.2416    0.0650 C   0  0  0  0  0  0  0  0  0  0  0  0
   -2.8927    1.2430    0.0444 C   0  0  0  0  0  0  0  0  0  0  0  0
   -4.1193    1.7295   -0.0036 C   0  0  0  0  0  0  0  0  0  0  0  0
   -5.2666    0.8392   -0.0270 C   0  0  0  0  0  0  0  0  0  0  0  0
   -6.3532    1.2382   -0.4780 O   0  0  0  0  0  0  0  0  0  0  0  0
   -5.1546   -0.5481    0.4843 C   0  0  0  0  0  0  0  0  0  0  0  0
   -3.7479   -0.8195    0.9917 C   0  0  0  0  0  0  0  0  0  0  0  0
   -2.6993   -0.2011    0.0679 C   0  0  1  0  0  0  0  0  0  0  0  0
   -2.9003   -0.7084   -1.3529 C   0  0  0  0  0  0  0  0  0  0  0  0
   -1.3568   -0.6254    0.6168 C   0  0  1  0  0  0  0  0  0  0  0  0
   -1.1412   -2.0499    0.1810 C   0  0  0  0  0  0  0  0  0  0  0  0
    0.2535   -2.4173    0.5121 C   0  0  0  0  0  0  0  0  0  0  0  0
    1.3129   -1.4730   -0.0838 C   0  0  1  0  0  0  0  0  0  0  0  0
    1.2611   -1.5516   -1.5759 C   0  0  0  0  0  0  0  0  0  0  0  0
    2.5796   -2.1851    0.4179 C   0  0  0  0  0  0  0  0  0  0  0  0
    3.8041   -1.7919   -0.3362 C   0  0  0  0  0  0  0  0  0  0  0  0
    4.0927   -0.4049    0.1881 C   0  0  0  0  0  0  0  0  0  0  0  0
    4.9659   -0.3882    1.0172 O   0  0  0  0  0  0  0  0  0  0  0  0
    2.7270    3.2695   -0.7528 H   0  0  0  0  0  0  0  0  0  0  0  0
    4.3975    3.6363   -1.2812 H   0  0  0  0  0  0  0  0  0  0  0  0
    3.8667    4.0498    0.3634 H   0  0  0  0  0  0  0  0  0  0  0  0
    4.3376    1.9788    1.2523 H   0  0  0  0  0  0  0  0  0  0  0  0
    5.2827    1.7710   -0.2354 H   0  0  0  0  0  0  0  0  0  0  0  0
    3.4548    0.7976   -1.3979 H   0  0  0  0  0  0  0  0  0  0  0  0
    2.0460    1.6571    1.0731 H   0  0  0  0  0  0  0  0  0  0  0  0
    1.5152    1.6346   -0.6105 H   0  0  0  0  0  0  0  0  0  0  0  0
    1.0979   -0.2939    1.6255 H   0  0  0  0  0  0  0  0  0  0  0  0
   -0.3515    0.4588   -0.9064 H   0  0  0  0  0  0  0  0  0  0  0  0
   -0.9324    1.5037    1.8723 H   0  0  0  0  0  0  0  0  0  0  0  0
    0.1924    2.3966    0.7345 H   0  0  0  0  0  0  0  0  0  0  0  0
   -1.4398    2.4534   -0.9651 H   0  0  0  0  0  0  0  0  0  0  0  0
   -2.1004    3.1920    0.5665 H   0  0  0  0  0  0  0  0  0  0  0  0
   -4.2965    2.8151   -0.0269 H   0  0  0  0  0  0  0  0  0  0  0  0
   -5.4301   -1.3116   -0.2557 H   0  0  0  0  0  0  0  0  0  0  0  0
   -5.8542   -0.6418    1.3400 H   0  0  0  0  0  0  0  0  0  0  0  0
   -3.6461   -0.3207    1.9699 H   0  0  0  0  0  0  0  0  0  0  0  0
   -3.6499   -1.9024    1.0933 H   0  0  0  0  0  0  0  0  0  0  0  0
   -1.9630   -0.6354   -1.9427 H   0  0  0  0  0  0  0  0  0  0  0  0
   -3.6300   -0.0770   -1.9188 H   0  0  0  0  0  0  0  0  0  0  0  0
   -3.3305   -1.7133   -1.3013 H   0  0  0  0  0  0  0  0  0  0  0  0
   -1.4552   -0.5878    1.7336 H   0  0  0  0  0  0  0  0  0  0  0  0
   -1.4227   -2.2655   -0.8459 H   0  0  0  0  0  0  0  0  0  0  0  0
   -1.7939   -2.6861    0.8322 H   0  0  0  0  0  0  0  0  0  0  0  0
    0.4522   -3.4456    0.1359 H   0  0  0  0  0  0  0  0  0  0  0  0
    0.4190   -2.4437    1.6076 H   0  0  0  0  0  0  0  0  0  0  0  0
    0.1930   -1.6586   -1.9286 H   0  0  0  0  0  0  0  0  0  0  0  0
    1.7856   -2.4467   -1.9666 H   0  0  0  0  0  0  0  0  0  0  0  0
    1.6225   -0.6198   -2.0074 H   0  0  0  0  0  0  0  0  0  0  0  0
    2.7209   -1.9576    1.4878 H   0  0  0  0  0  0  0  0  0  0  0  0
    2.4874   -3.2920    0.3313 H   0  0  0  0  0  0  0  0  0  0  0  0
    3.6215   -1.7735   -1.4199 H   0  0  0  0  0  0  0  0  0  0  0  0
    4.6233   -2.4813   -0.1230 H   0  0  0  0  0  0  0  0  0  0  0  0
  1  2  1  0
  2  3  1  0
  3  4  1  0
  4  5  1  0
  5  6  1  0
  6  7  1  0
  7  8  1  0
  8  9  1  0
  9 10  2  0
 10 11  1  0
 11 12  2  0
 11 13  1  0
 13 14  1  0
 14 15  1  0
 15 16  1  6
 15 17  1  0
 17 18  1  0
 18 19  1  0
 19 20  1  0
 20 21  1  6
 20 22  1  0
 22 23  1  0
 23 24  1  0
 24 25  2  0
 24  3  1  0
 20  5  1  0
 17  6  1  0
 15  9  1  0
  1 26  1  0
  1 27  1  0
  1 28  1  0
  2 29  1  0
  2 30  1  0
  3 31  1  6
  4 32  1  0
  4 33  1  0
  5 34  1  1
  6 35  1  6
  7 36  1  0
  7 37  1  0
  8 38  1  0
  8 39  1  0
 10 40  1  0
 13 41  1  0
 13 42  1  0
 14 43  1  0
 14 44  1  0
 16 45  1  0
 16 46  1  0
 16 47  1  0
 17 48  1  1
 18 49  1  0
 18 50  1  0
 19 51  1  0
 19 52  1  0
 21 53  1  0
 21 54  1  0
 21 55  1  0
 22 56  1  0
 22 57  1  0
 23 58  1  0
 23 59  1  0
M  END
$$$$
[H]OC(=O)[C@@]([H])(N([H])C(=O)[C@@]([H])(N([H])C(=O)[C@@]([H])(N([H])C(=O)[C@@]([H])(N([H])C(=O)[C@@]([H])(N([H])C(=O)[C@@]([H])(N([H])C(=O)[C@@]([H])(N([H])C(=O)C([H])([H])[H])C([H])(C([H])([H])[H])C([H])([H])[H])C([H])([H])C([H])([H])C(=O)N([H])[H])C([H])([H])C([H])(C([H])([H])[H])C([H])([H])[H])C([H])([H])O[H])C([H])([H])O[H])C([H])(C([H])([H])[H])C([H])([H])[H])C([H])([H])O[H]
     RDKit          3D

109108  0  0  0  0  0  0  0  0999 V2000
    2.8163   -4.2108   -2.2087 C   0  0  0  0  0  0  0  0  0  0  0  0
    1.8269   -3.2981   -2.8245 C   0  0  0  0  0  0  0  0  0  0  0  0
    1.3944   -3.9768   -4.1454 C   0  0  0  0  0  0  0  0  0  0  0  0
    2.2326   -1.9299   -3.1847 C   0  0  0  0  0  0  0  0  0  0  0  0
    2.7089   -0.9917   -2.1729 C   0  0  2  0  0  0  0  0  0  0  0  0
    3.8939   -1.2997   -1.4324 N   0  0  0  0  0  0  0  0  0  0  0  0
    4.7658   -0.2908   -0.8995 C   0  0  0  0  0  0  0  0  0  0  0  0
    4.4220    0.8989   -1.1076 O   0  0  0  0  0  0  0  0  0  0  0  0
    5.9810   -0.5736   -0.1556 C   0  0  2  0  0  0  0  0  0  0  0  0
    5.9475   -1.6258    0.8746 C   0  0  0  0  0  0  0  0  0  0  0  0
    5.0093   -1.4589    2.0096 C   0  0  0  0  0  0  0  0  0  0  0  0
    5.1876   -2.6630    2.9023 C   0  0  0  0  0  0  0  0  0  0  0  0
    4.4235   -2.7732    4.0891 N   0  0  0  0  0  0  0  0  0  0  0  0
    5.9985   -3.5848    2.6303 O   0  0  0  0  0  0  0  0  0  0  0  0
    6.5286    0.6531    0.3946 N   0  0  0  0  0  0  0  0  0  0  0  0
    7.7017    1.2955   -0.0138 C   0  0  0  0  0  0  0  0  0  0  0  0
    8.3680    0.7819   -0.9479 O   0  0  0  0  0  0  0  0  0  0  0  0
    8.1966    2.5382    0.5926 C   0  0  1  0  0  0  0  0  0  0  0  0
    9.4786    2.9398    0.0064 N   0  0  0  0  0  0  0  0  0  0  0  0
   10.6524    3.0588    0.7866 C   0  0  0  0  0  0  0  0  0  0  0  0
   11.9544    3.4657    0.2069 C   0  0  0  0  0  0  0  0  0  0  0  0
   10.6065    2.8146    2.0168 O   0  0  0  0  0  0  0  0  0  0  0  0
    7.2897    3.7289    0.4564 C   0  0  0  0  0  0  0  0  0  0  0  0
    6.9966    4.0888   -0.9796 C   0  0  0  0  0  0  0  0  0  0  0  0
    6.0858    3.7315    1.3491 C   0  0  0  0  0  0  0  0  0  0  0  0
    1.6007   -0.6182   -1.2410 C   0  0  0  0  0  0  0  0  0  0  0  0
    1.8362   -0.6070   -0.0146 O   0  0  0  0  0  0  0  0  0  0  0  0
    0.3294   -0.2823   -1.7157 N   0  0  0  0  0  0  0  0  0  0  0  0
   -0.7519    0.1103   -0.8281 C   0  0  1  0  0  0  0  0  0  0  0  0
   -1.4131    1.3796   -1.2989 C   0  0  0  0  0  0  0  0  0  0  0  0
   -1.9503    1.2164   -2.5684 O   0  0  0  0  0  0  0  0  0  0  0  0
   -1.7324   -0.9553   -0.5545 C   0  0  0  0  0  0  0  0  0  0  0  0
   -1.6829   -2.1081   -1.0357 O   0  0  0  0  0  0  0  0  0  0  0  0
   -2.8046   -0.6553    0.3175 N   0  0  0  0  0  0  0  0  0  0  0  0
   -3.8459   -1.6002    0.7004 C   0  0  1  0  0  0  0  0  0  0  0  0
   -3.8119   -1.8791    2.1696 C   0  0  0  0  0  0  0  0  0  0  0  0
   -4.7339   -2.7998    2.5849 O   0  0  0  0  0  0  0  0  0  0  0  0
   -5.1495   -1.1852    0.1522 C   0  0  0  0  0  0  0  0  0  0  0  0
   -5.1641   -0.7233   -1.0539 O   0  0  0  0  0  0  0  0  0  0  0  0
   -6.3917   -1.2267    0.7845 N   0  0  0  0  0  0  0  0  0  0  0  0
   -7.6548   -0.7955    0.1353 C   0  0  1  0  0  0  0  0  0  0  0  0
   -8.7190   -1.7992    0.4177 C   0  0  0  0  0  0  0  0  0  0  0  0
   -9.0033   -1.9363    1.9023 C   0  0  0  0  0  0  0  0  0  0  0  0
   -9.9093   -1.6335   -0.4403 C   0  0  0  0  0  0  0  0  0  0  0  0
   -7.9734    0.5825    0.6121 C   0  0  0  0  0  0  0  0  0  0  0  0
   -7.1970    1.1454    1.4632 O   0  0  0  0  0  0  0  0  0  0  0  0
   -9.0860    1.3322    0.1898 N   0  0  0  0  0  0  0  0  0  0  0  0
   -9.3369    2.6897    0.7014 C   0  0  1  0  0  0  0  0  0  0  0  0
   -9.7265    3.5679   -0.4689 C   0  0  0  0  0  0  0  0  0  0  0  0
  -10.8921    3.0822   -1.0793 O   0  0  0  0  0  0  0  0  0  0  0  0
  -10.5143    2.5663    1.6431 C   0  0  0  0  0  0  0  0  0  0  0  0
  -10.9876    3.7004    2.2842 O   0  0  0  0  0  0  0  0  0  0  0  0
  -11.0781    1.4749    1.8658 O   0  0  0  0  0  0  0  0  0  0  0  0
    3.8254   -4.1510   -2.6138 H   0  0  0  0  0  0  0  0  0  0  0  0
    2.7575   -4.1497   -1.0859 H   0  0  0  0  0  0  0  0  0  0  0  0
    2.5085   -5.2916   -2.3959 H   0  0  0  0  0  0  0  0  0  0  0  0
    0.8645   -3.2629   -2.2396 H   0  0  0  0  0  0  0  0  0  0  0  0
    0.9866   -3.2675   -4.8627 H   0  0  0  0  0  0  0  0  0  0  0  0
    0.7561   -4.8426   -3.9165 H   0  0  0  0  0  0  0  0  0  0  0  0
    2.3450   -4.3845   -4.5715 H   0  0  0  0  0  0  0  0  0  0  0  0
    2.9492   -2.0290   -4.0643 H   0  0  0  0  0  0  0  0  0  0  0  0
    1.3365   -1.4642   -3.7011 H   0  0  0  0  0  0  0  0  0  0  0  0
    2.9338    0.0056   -2.6722 H   0  0  0  0  0  0  0  0  0  0  0  0
    4.1786   -2.2624   -1.2433 H   0  0  0  0  0  0  0  0  0  0  0  0
    6.7511   -0.8816   -0.9387 H   0  0  0  0  0  0  0  0  0  0  0  0
    5.7477   -2.6125    0.3786 H   0  0  0  0  0  0  0  0  0  0  0  0
    6.9778   -1.7628    1.3084 H   0  0  0  0  0  0  0  0  0  0  0  0
    3.9418   -1.4542    1.7554 H   0  0  0  0  0  0  0  0  0  0  0  0
    5.1891   -0.5239    2.5846 H   0  0  0  0  0  0  0  0  0  0  0  0
    4.7145   -3.4435    4.8124 H   0  0  0  0  0  0  0  0  0  0  0  0
    3.5739   -2.1901    4.2498 H   0  0  0  0  0  0  0  0  0  0  0  0
    5.9839    1.0886    1.1877 H   0  0  0  0  0  0  0  0  0  0  0  0
    8.3844    2.3572    1.6714 H   0  0  0  0  0  0  0  0  0  0  0  0
    9.5519    3.1496   -1.0109 H   0  0  0  0  0  0  0  0  0  0  0  0
   11.9211    3.2551   -0.8777 H   0  0  0  0  0  0  0  0  0  0  0  0
   12.1604    4.5406    0.3547 H   0  0  0  0  0  0  0  0  0  0  0  0
   12.8085    2.9197    0.6242 H   0  0  0  0  0  0  0  0  0  0  0  0
    7.9265    4.6034    0.8372 H   0  0  0  0  0  0  0  0  0  0  0  0
    7.7933    4.7473   -1.4146 H   0  0  0  0  0  0  0  0  0  0  0  0
    6.0567    4.6674   -0.9836 H   0  0  0  0  0  0  0  0  0  0  0  0
    6.8427    3.1909   -1.6026 H   0  0  0  0  0  0  0  0  0  0  0  0
    6.3448    3.1648    2.2710 H   0  0  0  0  0  0  0  0  0  0  0  0
    5.1768    3.2885    0.9033 H   0  0  0  0  0  0  0  0  0  0  0  0
    5.8443    4.7922    1.6079 H   0  0  0  0  0  0  0  0  0  0  0  0
    0.1123   -0.2976   -2.7239 H   0  0  0  0  0  0  0  0  0  0  0  0
   -0.2497    0.3172    0.1733 H   0  0  0  0  0  0  0  0  0  0  0  0
   -2.2134    1.6899   -0.6112 H   0  0  0  0  0  0  0  0  0  0  0  0
   -0.6503    2.2050   -1.3234 H   0  0  0  0  0  0  0  0  0  0  0  0
   -2.8485    0.7835   -2.4256 H   0  0  0  0  0  0  0  0  0  0  0  0
   -2.8749    0.2957    0.7238 H   0  0  0  0  0  0  0  0  0  0  0  0
   -3.5609   -2.5540    0.1890 H   0  0  0  0  0  0  0  0  0  0  0  0
   -2.8008   -2.3022    2.3893 H   0  0  0  0  0  0  0  0  0  0  0  0
   -3.8504   -0.9370    2.7741 H   0  0  0  0  0  0  0  0  0  0  0  0
   -4.3509   -3.7205    2.5328 H   0  0  0  0  0  0  0  0  0  0  0  0
   -6.5133   -1.5530    1.7485 H   0  0  0  0  0  0  0  0  0  0  0  0
   -7.4573   -0.7169   -0.9339 H   0  0  0  0  0  0  0  0  0  0  0  0
   -8.2586   -2.8074    0.1318 H   0  0  0  0  0  0  0  0  0  0  0  0
   -8.3051   -2.6337    2.4080 H   0  0  0  0  0  0  0  0  0  0  0  0
   -8.9317   -0.9167    2.3590 H   0  0  0  0  0  0  0  0  0  0  0  0
  -10.0246   -2.3436    2.0177 H   0  0  0  0  0  0  0  0  0  0  0  0
  -10.2799   -2.6637   -0.7468 H   0  0  0  0  0  0  0  0  0  0  0  0
   -9.6015   -1.1775   -1.3991 H   0  0  0  0  0  0  0  0  0  0  0  0
  -10.7431   -1.0742    0.0406 H   0  0  0  0  0  0  0  0  0  0  0  0
   -9.7950    1.0111   -0.4971 H   0  0  0  0  0  0  0  0  0  0  0  0
   -8.5024    3.0916    1.2696 H   0  0  0  0  0  0  0  0  0  0  0  0
   -8.9512    3.5352   -1.2714 H   0  0  0  0  0  0  0  0  0  0  0  0
   -9.9264    4.6077   -0.1681 H   0  0  0  0  0  0  0  0  0  0  0  0
  -10.6882    2.3798   -1.7652 H   0  0  0  0  0  0  0  0  0  0  0  0
  -10.5902    4.6232    2.1330 H   0  0  0  0  0  0  0  0  0  0  0  0
  1  2  1  0
  2  3  1  0
  2  4  1  0
  4  5  1  0
  5  6  1  0
  6  7  1  0
  7  8  2  0
  7  9  1  0
  9 10  1  0
 10 11  1  0
 11 12  1  0
 12 13  1  0
 12 14  2  0
  9 15  1  0
 15 16  1  0
 16 17  2  0
 16 18  1  0
 18 19  1  0
 19 20  1  0
 20 21  1  0
 20 22  2  0
 18 23  1  0
 23 24  1  0
 23 25  1  0
  5 26  1  0
 26 27  2  0
 26 28  1  0
 28 29  1  0
 29 30  1  0
 30 31  1  0
 29 32  1  0
 32 33  2  0
 32 34  1  0
 34 35  1  0
 35 36  1  0
 36 37  1  0
 35 38  1  0
 38 39  2  0
 38 40  1  0
 40 41  1  0
 41 42  1  0
 42 43  1  0
 42 44  1  0
 41 45  1  0
 45 46  2  0
 45 47  1  0
 47 48  1  0
 48 49  1  0
 49 50  1  0
 48 51  1  0
 51 52  1  0
 51 53  2  0
  1 54  1  0
  1 55  1  0
  1 56  1  0
  2 57  1  0
  3 58  1  0
  3 59  1  0
  3 60  1  0
  4 61  1  0
  4 62  1  0
  5 63  1  6
  6 64  1  0
  9 65  1  6
 10 66  1  0
 10 67  1  0
 11 68  1  0
 11 69  1  0
 13 70  1  0
 13 71  1  0
 15 72  1  0
 18 73  1  1
 19 74  1  0
 21 75  1  0
 21 76  1  0
 21 77  1  0
 23 78  1  0
 24 79  1  0
 24 80  1  0
 24 81  1  0
 25 82  1  0
 25 83  1  0
 25 84  1  0
 28 85  1  0
 29 86  1  1
 30 87  1  0
 30 88  1  0
 31 89  1  0
 34 90  1  0
 35 91  1  6
 36 92  1  0
 36 93  1  0
 37 94  1  0
 40 95  1  0
 41 96  1  6
 42 97  1  0
 43 98  1  0
 43 99  1  0
 43100  1  0
 44101  1  0
 44102  1  0
 44103  1  0
 47104  1  0
 48105  1  1
 49106  1  0
 49107  1  0
 50108  1  0
 52109  1  0
M  END
$$$$
[H]N([H])C(=O)C([H])([H])C([H])([H])[C@@]([H])(C(=O)N([H])[H])N([H])C(=O)[C@@]([H])(N([H])C(=O)[C@@]([H])(N([H])C(=O)[C@@]([H])(N([H])C(=O)[C@@]([H])(N([H])C(=O)[C@@]([H])(N([H])C(=O)C([H])([H])[H])C([H])([H])C([H])([H])C(=O)N([H])[H])C([H])([H])C([H])([H])C(=O)N([H])[H])C([H])([H])C([H])([H])C(=O)N([H])[H])C([H])([H])C([H])(C([H])([H])[H])C([H])([H])[H])C([H])([H])C([H])([H])C(=O)N([H])[H]
     RDKit          3D

113112  0  0  0  0  0  0  0  0999 V2000
    4.4231   -2.4572    4.1849 C   0  0  0  0  0  0  0  0  0  0  0  0
    3.3988   -2.2123    3.0940 C   0  0  0  0  0  0  0  0  0  0  0  0
    3.9844   -2.6033    1.7995 C   0  0  0  0  0  0  0  0  0  0  0  0
    2.9045   -0.8147    3.2435 C   0  0  0  0  0  0  0  0  0  0  0  0
    1.8980   -0.3766    2.2555 C   0  0  2  0  0  0  0  0  0  0  0  0
    0.7093   -1.1159    2.1916 N   0  0  0  0  0  0  0  0  0  0  0  0
   -0.4968   -0.9113    1.5293 C   0  0  0  0  0  0  0  0  0  0  0  0
   -0.5853    0.1092    0.7596 O   0  0  0  0  0  0  0  0  0  0  0  0
   -1.6845   -1.7604    1.6299 C   0  0  2  0  0  0  0  0  0  0  0  0
   -1.7259   -2.7250    2.7592 C   0  0  0  0  0  0  0  0  0  0  0  0
   -1.7133   -2.1572    4.1372 C   0  0  0  0  0  0  0  0  0  0  0  0
   -2.9163   -1.3414    4.4164 C   0  0  0  0  0  0  0  0  0  0  0  0
   -2.8986   -0.3808    5.5126 N   0  0  0  0  0  0  0  0  0  0  0  0
   -3.9524   -1.4594    3.7315 O   0  0  0  0  0  0  0  0  0  0  0  0
   -2.2378   -2.2312    0.4067 N   0  0  0  0  0  0  0  0  0  0  0  0
   -3.4195   -1.7838   -0.2081 C   0  0  0  0  0  0  0  0  0  0  0  0
   -4.1333   -0.8551    0.2183 O   0  0  0  0  0  0  0  0  0  0  0  0
   -3.9115   -2.4741   -1.4838 C   0  0  2  0  0  0  0  0  0  0  0  0
   -2.8304   -2.5744   -2.4558 C   0  0  0  0  0  0  0  0  0  0  0  0
   -2.2377   -1.2983   -2.9280 C   0  0  0  0  0  0  0  0  0  0  0  0
   -3.0740   -0.4319   -3.7623 C   0  0  0  0  0  0  0  0  0  0  0  0
   -3.1626    0.9824   -3.6574 N   0  0  0  0  0  0  0  0  0  0  0  0
   -3.8104   -0.9271   -4.6931 O   0  0  0  0  0  0  0  0  0  0  0  0
   -5.1834   -1.9434   -1.8381 N   0  0  0  0  0  0  0  0  0  0  0  0
   -6.2779   -2.2216   -0.9534 C   0  0  0  0  0  0  0  0  0  0  0  0
   -6.0671   -2.9009    0.0741 O   0  0  0  0  0  0  0  0  0  0  0  0
   -7.6726   -1.7201   -1.2143 C   0  0  2  0  0  0  0  0  0  0  0  0
   -7.6945   -0.9637   -2.4801 C   0  0  0  0  0  0  0  0  0  0  0  0
   -9.0004   -0.3744   -2.8866 C   0  0  0  0  0  0  0  0  0  0  0  0
  -10.1030   -1.3062   -3.0845 C   0  0  0  0  0  0  0  0  0  0  0  0
  -11.3848   -0.7362   -3.3702 N   0  0  0  0  0  0  0  0  0  0  0  0
  -10.0393   -2.5363   -3.0307 O   0  0  0  0  0  0  0  0  0  0  0  0
   -8.2715   -1.1362   -0.0702 N   0  0  0  0  0  0  0  0  0  0  0  0
   -9.1704   -1.7326    0.8333 C   0  0  0  0  0  0  0  0  0  0  0  0
   -9.7332   -0.9881    2.0022 C   0  0  0  0  0  0  0  0  0  0  0  0
   -9.5213   -2.9208    0.6685 O   0  0  0  0  0  0  0  0  0  0  0  0
    2.4430    0.0474    0.9535 C   0  0  0  0  0  0  0  0  0  0  0  0
    2.0147   -0.2902   -0.1672 O   0  0  0  0  0  0  0  0  0  0  0  0
    3.5586    0.9557    0.9093 N   0  0  0  0  0  0  0  0  0  0  0  0
    4.1724    1.5036   -0.2504 C   0  0  1  0  0  0  0  0  0  0  0  0
    3.8457    2.9703   -0.4076 C   0  0  0  0  0  0  0  0  0  0  0  0
    4.2520    3.8123    0.7654 C   0  0  0  0  0  0  0  0  0  0  0  0
    3.9147    5.2456    0.6101 C   0  0  0  0  0  0  0  0  0  0  0  0
    4.0625    6.1578    1.6541 N   0  0  0  0  0  0  0  0  0  0  0  0
    3.4705    5.6591   -0.5188 O   0  0  0  0  0  0  0  0  0  0  0  0
    5.5966    1.1993   -0.3177 C   0  0  0  0  0  0  0  0  0  0  0  0
    6.0832    0.0985    0.0111 O   0  0  0  0  0  0  0  0  0  0  0  0
    6.5306    2.1958   -0.7792 N   0  0  0  0  0  0  0  0  0  0  0  0
    7.9580    1.8426   -0.8602 C   0  0  1  0  0  0  0  0  0  0  0  0
    8.5664    2.7291   -1.8795 C   0  0  0  0  0  0  0  0  0  0  0  0
    7.8725    2.5016   -3.2109 C   0  0  0  0  0  0  0  0  0  0  0  0
    8.3939    3.3853   -4.2701 C   0  0  0  0  0  0  0  0  0  0  0  0
    7.9742    3.3290   -5.6289 N   0  0  0  0  0  0  0  0  0  0  0  0
    9.2693    4.2479   -3.9455 O   0  0  0  0  0  0  0  0  0  0  0  0
    8.5707    2.1684    0.4829 C   0  0  0  0  0  0  0  0  0  0  0  0
    9.9532    1.9077    0.7102 N   0  0  0  0  0  0  0  0  0  0  0  0
    7.9123    2.6651    1.4263 O   0  0  0  0  0  0  0  0  0  0  0  0
    4.9891   -3.4104    4.0011 H   0  0  0  0  0  0  0  0  0  0  0  0
    4.0107   -2.4092    5.2020 H   0  0  0  0  0  0  0  0  0  0  0  0
    5.2114   -1.6525    4.0789 H   0  0  0  0  0  0  0  0  0  0  0  0
    2.5877   -2.9752    3.3380 H   0  0  0  0  0  0  0  0  0  0  0  0
    4.2038   -3.7261    1.8821 H   0  0  0  0  0  0  0  0  0  0  0  0
    4.9234   -2.0928    1.5926 H   0  0  0  0  0  0  0  0  0  0  0  0
    3.3043   -2.5478    0.9361 H   0  0  0  0  0  0  0  0  0  0  0  0
    3.7833   -0.1439    3.2355 H   0  0  0  0  0  0  0  0  0  0  0  0
    2.4452   -0.7308    4.2684 H   0  0  0  0  0  0  0  0  0  0  0  0
    1.5372    0.6837    2.6407 H   0  0  0  0  0  0  0  0  0  0  0  0
    0.7368   -2.0480    2.7492 H   0  0  0  0  0  0  0  0  0  0  0  0
   -2.4971   -0.9529    1.9772 H   0  0  0  0  0  0  0  0  0  0  0  0
   -2.6652   -3.3685    2.7154 H   0  0  0  0  0  0  0  0  0  0  0  0
   -0.8324   -3.4136    2.6717 H   0  0  0  0  0  0  0  0  0  0  0  0
   -0.8238   -1.5100    4.3041 H   0  0  0  0  0  0  0  0  0  0  0  0
   -1.7296   -2.9810    4.9108 H   0  0  0  0  0  0  0  0  0  0  0  0
   -2.8189    0.6056    5.2536 H   0  0  0  0  0  0  0  0  0  0  0  0
   -2.9660   -0.7337    6.4711 H   0  0  0  0  0  0  0  0  0  0  0  0
   -1.6938   -3.0022   -0.0770 H   0  0  0  0  0  0  0  0  0  0  0  0
   -4.1134   -3.5440   -1.0335 H   0  0  0  0  0  0  0  0  0  0  0  0
   -3.1626   -3.1668   -3.3847 H   0  0  0  0  0  0  0  0  0  0  0  0
   -2.0273   -3.2731   -2.0511 H   0  0  0  0  0  0  0  0  0  0  0  0
   -1.2563   -1.4618   -3.4646 H   0  0  0  0  0  0  0  0  0  0  0  0
   -1.9429   -0.6486   -2.0420 H   0  0  0  0  0  0  0  0  0  0  0  0
   -3.6289    1.3597   -2.8154 H   0  0  0  0  0  0  0  0  0  0  0  0
   -2.7920    1.6317   -4.3674 H   0  0  0  0  0  0  0  0  0  0  0  0
   -5.3879   -1.3849   -2.6467 H   0  0  0  0  0  0  0  0  0  0  0  0
   -8.2667   -2.6992   -1.4225 H   0  0  0  0  0  0  0  0  0  0  0  0
   -6.9478   -0.1257   -2.4608 H   0  0  0  0  0  0  0  0  0  0  0  0
   -7.3568   -1.6794   -3.2866 H   0  0  0  0  0  0  0  0  0  0  0  0
   -8.8190    0.1247   -3.8851 H   0  0  0  0  0  0  0  0  0  0  0  0
   -9.2534    0.4786   -2.2031 H   0  0  0  0  0  0  0  0  0  0  0  0
  -11.4763   -0.0003   -4.0860 H   0  0  0  0  0  0  0  0  0  0  0  0
  -12.1979   -1.0741   -2.8414 H   0  0  0  0  0  0  0  0  0  0  0  0
   -8.0014   -0.1210    0.1323 H   0  0  0  0  0  0  0  0  0  0  0  0
  -10.1816   -1.7093    2.6938 H   0  0  0  0  0  0  0  0  0  0  0  0
   -8.9530   -0.4361    2.5263 H   0  0  0  0  0  0  0  0  0  0  0  0
  -10.5520   -0.2845    1.6669 H   0  0  0  0  0  0  0  0  0  0  0  0
    3.9540    1.2474    1.8273 H   0  0  0  0  0  0  0  0  0  0  0  0
    3.6705    1.0231   -1.1620 H   0  0  0  0  0  0  0  0  0  0  0  0
    4.3374    3.3387   -1.3154 H   0  0  0  0  0  0  0  0  0  0  0  0
    2.7477    3.0739   -0.5911 H   0  0  0  0  0  0  0  0  0  0  0  0
    3.6791    3.4596    1.6677 H   0  0  0  0  0  0  0  0  0  0  0  0
    5.3062    3.6949    1.0459 H   0  0  0  0  0  0  0  0  0  0  0  0
    4.9524    6.6301    1.8450 H   0  0  0  0  0  0  0  0  0  0  0  0
    3.2210    6.3626    2.2695 H   0  0  0  0  0  0  0  0  0  0  0  0
    6.2430    3.1486   -1.0626 H   0  0  0  0  0  0  0  0  0  0  0  0
    8.0622    0.7674   -1.0674 H   0  0  0  0  0  0  0  0  0  0  0  0
    9.6478    2.5277   -2.0104 H   0  0  0  0  0  0  0  0  0  0  0  0
    8.4892    3.7938   -1.5818 H   0  0  0  0  0  0  0  0  0  0  0  0
    8.0822    1.4258   -3.5009 H   0  0  0  0  0  0  0  0  0  0  0  0
    6.7777    2.6122   -3.1625 H   0  0  0  0  0  0  0  0  0  0  0  0
    8.6784    3.5129   -6.4058 H   0  0  0  0  0  0  0  0  0  0  0  0
    7.0177    3.1209   -5.9548 H   0  0  0  0  0  0  0  0  0  0  0  0
   10.4762    1.2727    0.0594 H   0  0  0  0  0  0  0  0  0  0  0  0
   10.4449    2.3596    1.5450 H   0  0  0  0  0  0  0  0  0  0  0  0
  1  2  1  0
  2  3  1  0
  2  4  1  0
  4  5  1  0
  5  6  1  0
  6  7  1  0
  7  8  2  0
  7  9  1  0
  9 10  1  0
 10 11  1  0
 11 12  1  0
 12 13  1  0
 12 14  2  0
  9 15  1  0
 15 16  1  0
 16 17  2  0
 16 18  1  0
 18 19  1  0
 19 20  1  0
 20 21  1  0
 21 22  1  0
 21 23  2  0
 18 24  1  0
 24 25  1  0
 25 26  2  0
 25 27  1  0
 27 28  1  0
 28 29  1  0
 29 30  1  0
 30 31  1  0
 30 32  2  0
 27 33  1  0
 33 34  1  0
 34 35  1  0
 34 36  2  0
  5 37  1  0
 37 38  2  0
 37 39  1  0
 39 40  1  0
 40 41  1  0
 41 42  1  0
 42 43  1  0
 43 44  1  0
 43 45  2  0
 40 46  1  0
 46 47  2  0
 46 48  1  0
 48 49  1  0
 49 50  1  0
 50 51  1  0
 51 52  1  0
 52 53  1  0
 52 54  2  0
 49 55  1  0
 55 56  1  0
 55 57  2  0
  1 58  1  0
  1 59  1  0
  1 60  1  0
  2 61  1  0
  3 62  1  0
  3 63  1  0
  3 64  1  0
  4 65  1  0
  4 66  1  0
  5 67  1  1
  6 68  1  0
  9 69  1  1
 10 70  1  0
 10 71  1  0
 11 72  1  0
 11 73  1  0
 13 74  1  0
 13 75  1  0
 15 76  1  0
 18 77  1  1
 19 78  1  0
 19 79  1  0
 20 80  1  0
 20 81  1  0
 22 82  1  0
 22 83  1  0
 24 84  1  0
 27 85  1  6
 28 86  1  0
 28 87  1  0
 29 88  1  0
 29 89  1  0
 31 90  1  0
 31 91  1  0
 33 92  1  0
 35 93  1  0
 35 94  1  0
 35 95  1  0
 39 96  1  0
 40 97  1  6
 41 98  1  0
 41 99  1  0
 42100  1  0
 42101  1  0
 44102  1  0
 44103  1  0
 48104  1  0
 49105  1  6
 50106  1  0
 50107  1  0
 51108  1  0
 51109  1  0
 53110  1  0
 53111  1  0
 56112  1  0
 56113  1  0
M  END
$$$$
[H]C([H])=C([H])C(=O)N1C([H])([H])C([H])([H])C([H])([H])C([H])(n2nc(-c3c([H])c([H])c(Oc4c([H])c([H])c([H])c([H])c4[H])c([H])c3[H])c(C(=O)N([H])[H])c2N([H])[H])C1([H])[H]
     RDKit          3D

 57 60  0  0  0  0  0  0  0  0999 V2000
    1.0215   -1.6438    2.7674 N   0  0  0  0  0  0  0  0  0  0  0  0
   -0.3416   -1.5415    2.4699 C   0  0  0  0  0  0  0  0  0  0  0  0
   -1.1417   -1.7428    3.4153 O   0  0  0  0  0  0  0  0  0  0  0  0
   -0.8430   -1.2176    1.1520 C   0  0  0  0  0  0  0  0  0  0  0  0
   -2.2298   -1.0789    0.9002 C   0  0  0  0  0  0  0  0  0  0  0  0
   -3.2718   -1.2625    1.8545 N   0  0  0  0  0  0  0  0  0  0  0  0
   -2.3336   -0.7481   -0.3940 N   0  0  0  0  0  0  0  0  0  0  0  0
   -1.1601   -0.6778   -0.9335 N   0  0  0  0  0  0  0  0  0  0  0  0
   -0.1774   -0.9626   -0.0184 C   0  0  0  0  0  0  0  0  0  0  0  0
    1.2471   -0.9438   -0.2866 C   0  0  0  0  0  0  0  0  0  0  0  0
    2.1018   -1.9964   -0.1108 C   0  0  0  0  0  0  0  0  0  0  0  0
    3.4747   -1.9079   -0.3597 C   0  0  0  0  0  0  0  0  0  0  0  0
    4.0172   -0.7164   -0.8039 C   0  0  0  0  0  0  0  0  0  0  0  0
    5.3628   -0.6459   -1.0422 O   0  0  0  0  0  0  0  0  0  0  0  0
    6.3096   -0.3041   -0.1074 C   0  0  0  0  0  0  0  0  0  0  0  0
    5.9500   -0.0152    1.1834 C   0  0  0  0  0  0  0  0  0  0  0  0
    6.9224    0.3308    2.1259 C   0  0  0  0  0  0  0  0  0  0  0  0
    8.2662    0.3906    1.7825 C   0  0  0  0  0  0  0  0  0  0  0  0
    8.6128    0.0981    0.4828 C   0  0  0  0  0  0  0  0  0  0  0  0
    7.6485   -0.2455   -0.4530 C   0  0  0  0  0  0  0  0  0  0  0  0
    3.1729    0.3512   -0.9873 C   0  0  0  0  0  0  0  0  0  0  0  0
    1.8209    0.2600   -0.7406 C   0  0  0  0  0  0  0  0  0  0  0  0
   -3.6525   -0.5184   -1.0129 C   0  0  0  0  0  0  0  0  0  0  0  0
   -3.5021   -0.0055   -2.4030 C   0  0  0  0  0  0  0  0  0  0  0  0
   -4.8872    0.1251   -3.0284 C   0  0  0  0  0  0  0  0  0  0  0  0
   -5.7347    1.0851   -2.2309 C   0  0  0  0  0  0  0  0  0  0  0  0
   -4.9961    1.4822   -1.0380 N   0  0  0  0  0  0  0  0  0  0  0  0
   -4.4652    0.4466   -0.1945 C   0  0  0  0  0  0  0  0  0  0  0  0
   -4.8079    2.8322   -0.7053 C   0  0  0  0  0  0  0  0  0  0  0  0
   -5.3066    3.6929   -1.5142 O   0  0  0  0  0  0  0  0  0  0  0  0
   -4.1156    3.3606    0.4484 C   0  0  0  0  0  0  0  0  0  0  0  0
   -3.9980    4.6696    0.6598 C   0  0  0  0  0  0  0  0  0  0  0  0
    1.6958   -0.8521    2.8719 H   0  0  0  0  0  0  0  0  0  0  0  0
    1.4609   -2.6019    2.9112 H   0  0  0  0  0  0  0  0  0  0  0  0
   -3.5128   -0.5682    2.5910 H   0  0  0  0  0  0  0  0  0  0  0  0
   -3.8293   -2.1451    1.8164 H   0  0  0  0  0  0  0  0  0  0  0  0
    1.6928   -2.9535    0.2192 H   0  0  0  0  0  0  0  0  0  0  0  0
    4.1173   -2.7603   -0.2083 H   0  0  0  0  0  0  0  0  0  0  0  0
    4.9001   -0.0608    1.4584 H   0  0  0  0  0  0  0  0  0  0  0  0
    6.6639    0.5628    3.1484 H   0  0  0  0  0  0  0  0  0  0  0  0
    8.9949    0.6627    2.5425 H   0  0  0  0  0  0  0  0  0  0  0  0
    9.6554    0.1415    0.2079 H   0  0  0  0  0  0  0  0  0  0  0  0
    7.9148   -0.4751   -1.4713 H   0  0  0  0  0  0  0  0  0  0  0  0
    3.5452    1.3261   -1.3393 H   0  0  0  0  0  0  0  0  0  0  0  0
    1.1393    1.0871   -0.8782 H   0  0  0  0  0  0  0  0  0  0  0  0
   -4.1523   -1.5175   -1.0840 H   0  0  0  0  0  0  0  0  0  0  0  0
   -2.8553   -0.6620   -3.0038 H   0  0  0  0  0  0  0  0  0  0  0  0
   -3.0743    1.0273   -2.3483 H   0  0  0  0  0  0  0  0  0  0  0  0
   -4.8591    0.3908   -4.0915 H   0  0  0  0  0  0  0  0  0  0  0  0
   -5.3657   -0.8728   -2.9428 H   0  0  0  0  0  0  0  0  0  0  0  0
   -6.7174    0.6690   -2.0258 H   0  0  0  0  0  0  0  0  0  0  0  0
   -5.8192    2.0098   -2.8613 H   0  0  0  0  0  0  0  0  0  0  0  0
   -5.2709   -0.0807    0.3755 H   0  0  0  0  0  0  0  0  0  0  0  0
   -3.7316    0.9089    0.5307 H   0  0  0  0  0  0  0  0  0  0  0  0
   -3.6527    2.7364    1.2147 H   0  0  0  0  0  0  0  0  0  0  0  0
   -3.4863    5.0464    1.5130 H   0  0  0  0  0  0  0  0  0  0  0  0
   -4.4165    5.4008   -0.0238 H   0  0  0  0  0  0  0  0  0  0  0  0
  1  2  1  0
  2  3  2  0
  2  4  1  0
  4  5  2  0
  5  6  1  0
  5  7  1  0
  7  8  1  0
  8  9  2  0
  9 10  1  0
 10 11  2  0
 11 12  1  0
 12 13  2  0
 13 14  1  0
 14 15  1  0
 15 16  2  0
 16 17  1  0
 17 18  2  0
 18 19  1  0
 19 20  2  0
 13 21  1  0
 21 22  2  0
  7 23  1  0
 23 24  1  0
 24 25  1  0
 25 26  1  0
 26 27  1  0
 27 28  1  0
 27 29  1  0
 29 30  2  0
 29 31  1  0
 31 32  2  3
  9  4  1  0
 22 10  1  0
 28 23  1  0
 20 15  1  0
  1 33  1  0
  1 34  1  0
  6 35  1  0
  6 36  1  0
 11 37  1  0
 12 38  1  0
 16 39  1  0
 17 40  1  0
 18 41  1  0
 19 42  1  0
 20 43  1  0
 21 44  1  0
 22 45  1  0
 23 46  1  0
 24 47  1  0
 24 48  1  0
 25 49  1  0
 25 50  1  0
 26 51  1  0
 26 52  1  0
 28 53  1  0
 28 54  1  0
 31 55  1  0
 32 56  1  0
 32 57  1  0
M  END
$$$$
[H]c1c([H])c([H])c(-c2c(-c3c([H])c([H])c([H])c([H])c3OC([H])([H])[H])nc(C3([H])C([H])([H])C([H])([H])N(C(=O)c4c([H])c(OC([H])([H])[H])c(OC([H])([H])[H])c(OC([H])([H])[H])c4[H])C([H])([H])C3([H])[H])n2[H])c([H])c1[H]
     RDKit          3D

 72 76  0  0  0  0  0  0  0  0999 V2000
    3.6881   -1.0507   -2.9350 C   0  0  0  0  0  0  0  0  0  0  0  0
    5.0363   -1.0342   -2.4856 O   0  0  0  0  0  0  0  0  0  0  0  0
    5.2722   -0.5402   -1.1907 C   0  0  0  0  0  0  0  0  0  0  0  0
    4.2252   -0.0859   -0.3929 C   0  0  0  0  0  0  0  0  0  0  0  0
    4.4190    0.3999    0.8628 C   0  0  0  0  0  0  0  0  0  0  0  0
    5.7465    0.4187    1.3218 C   0  0  0  0  0  0  0  0  0  0  0  0
    6.7727   -0.0263    0.5386 C   0  0  0  0  0  0  0  0  0  0  0  0
    8.0729    0.0032    1.0164 O   0  0  0  0  0  0  0  0  0  0  0  0
    8.3481    0.4870    2.2945 C   0  0  0  0  0  0  0  0  0  0  0  0
    6.5640   -0.5192   -0.7409 C   0  0  0  0  0  0  0  0  0  0  0  0
    7.5851   -0.9780   -1.5565 O   0  0  0  0  0  0  0  0  0  0  0  0
    8.2037   -0.0012   -2.4070 C   0  0  0  0  0  0  0  0  0  0  0  0
    3.4183    0.9360    1.7502 C   0  0  0  0  0  0  0  0  0  0  0  0
    3.8103    1.1859    2.9855 O   0  0  0  0  0  0  0  0  0  0  0  0
    2.0802    1.2484    1.5349 N   0  0  0  0  0  0  0  0  0  0  0  0
    1.3096    1.7583    2.7104 C   0  0  0  0  0  0  0  0  0  0  0  0
   -0.0522    1.1171    2.6093 C   0  0  0  0  0  0  0  0  0  0  0  0
   -0.8037    1.8011    1.4562 C   0  0  0  0  0  0  0  0  0  0  0  0
    0.1140    2.0551    0.3137 C   0  0  0  0  0  0  0  0  0  0  0  0
    1.3708    1.1711    0.3143 C   0  0  0  0  0  0  0  0  0  0  0  0
   -1.9438    0.9641    1.0289 C   0  0  0  0  0  0  0  0  0  0  0  0
   -3.2361    1.3317    0.9793 N   0  0  0  0  0  0  0  0  0  0  0  0
   -4.0140    0.3493    0.5570 C   0  0  0  0  0  0  0  0  0  0  0  0
   -3.1562   -0.7330    0.3173 C   0  0  0  0  0  0  0  0  0  0  0  0
   -1.9161   -0.3156    0.6158 N   0  0  0  0  0  0  0  0  0  0  0  0
   -3.5613   -2.0380   -0.1643 C   0  0  0  0  0  0  0  0  0  0  0  0
   -4.1159   -2.1572   -1.4215 C   0  0  0  0  0  0  0  0  0  0  0  0
   -4.5109   -3.4115   -1.8802 C   0  0  0  0  0  0  0  0  0  0  0  0
   -4.3610   -4.5427   -1.1066 C   0  0  0  0  0  0  0  0  0  0  0  0
   -3.8063   -4.4082    0.1448 C   0  0  0  0  0  0  0  0  0  0  0  0
   -3.4113   -3.1682    0.6079 C   0  0  0  0  0  0  0  0  0  0  0  0
   -5.4497    0.2720    0.3453 C   0  0  0  0  0  0  0  0  0  0  0  0
   -6.2515   -0.5765    1.1136 C   0  0  0  0  0  0  0  0  0  0  0  0
   -7.6059   -0.6347    0.8865 C   0  0  0  0  0  0  0  0  0  0  0  0
   -8.1355    0.1595   -0.1081 C   0  0  0  0  0  0  0  0  0  0  0  0
   -7.3304    1.0076   -0.8750 C   0  0  0  0  0  0  0  0  0  0  0  0
   -5.9696    1.0709   -0.6530 C   0  0  0  0  0  0  0  0  0  0  0  0
   -5.1417    1.9076   -1.4034 O   0  0  0  0  0  0  0  0  0  0  0  0
   -5.5615    2.7500   -2.4291 C   0  0  0  0  0  0  0  0  0  0  0  0
    3.0709   -1.6953   -2.2589 H   0  0  0  0  0  0  0  0  0  0  0  0
    3.2949   -0.0151   -2.9008 H   0  0  0  0  0  0  0  0  0  0  0  0
    3.5804   -1.4847   -3.9462 H   0  0  0  0  0  0  0  0  0  0  0  0
    3.2531   -0.1618   -0.8133 H   0  0  0  0  0  0  0  0  0  0  0  0
    5.9336    0.7948    2.3047 H   0  0  0  0  0  0  0  0  0  0  0  0
    7.8420    1.4761    2.4471 H   0  0  0  0  0  0  0  0  0  0  0  0
    9.4489    0.6776    2.4286 H   0  0  0  0  0  0  0  0  0  0  0  0
    8.0368   -0.1975    3.0914 H   0  0  0  0  0  0  0  0  0  0  0  0
    7.9818    1.0346   -2.0672 H   0  0  0  0  0  0  0  0  0  0  0  0
    9.2824   -0.2405   -2.4144 H   0  0  0  0  0  0  0  0  0  0  0  0
    7.8361   -0.1090   -3.4587 H   0  0  0  0  0  0  0  0  0  0  0  0
    1.7788    1.4159    3.6538 H   0  0  0  0  0  0  0  0  0  0  0  0
    1.1726    2.8521    2.6453 H   0  0  0  0  0  0  0  0  0  0  0  0
   -0.6476    1.3085    3.5274 H   0  0  0  0  0  0  0  0  0  0  0  0
   -0.0222    0.0446    2.3819 H   0  0  0  0  0  0  0  0  0  0  0  0
   -1.2268    2.7778    1.8249 H   0  0  0  0  0  0  0  0  0  0  0  0
   -0.3729    1.8584   -0.6785 H   0  0  0  0  0  0  0  0  0  0  0  0
    0.4494    3.0986    0.3190 H   0  0  0  0  0  0  0  0  0  0  0  0
    2.0108    1.6664   -0.4777 H   0  0  0  0  0  0  0  0  0  0  0  0
    1.1228    0.1662   -0.0475 H   0  0  0  0  0  0  0  0  0  0  0  0
   -1.0388   -0.8796    0.5469 H   0  0  0  0  0  0  0  0  0  0  0  0
   -4.2739   -1.3314   -2.0979 H   0  0  0  0  0  0  0  0  0  0  0  0
   -4.9507   -3.5276   -2.8644 H   0  0  0  0  0  0  0  0  0  0  0  0
   -4.6589   -5.5332   -1.4389 H   0  0  0  0  0  0  0  0  0  0  0  0
   -3.6687   -5.2588    0.7927 H   0  0  0  0  0  0  0  0  0  0  0  0
   -2.9816   -3.1135    1.5973 H   0  0  0  0  0  0  0  0  0  0  0  0
   -5.7738   -1.1852    1.8874 H   0  0  0  0  0  0  0  0  0  0  0  0
   -8.2563   -1.2868    1.4686 H   0  0  0  0  0  0  0  0  0  0  0  0
   -9.1914    0.0962   -0.2686 H   0  0  0  0  0  0  0  0  0  0  0  0
   -7.7644    1.6246   -1.6521 H   0  0  0  0  0  0  0  0  0  0  0  0
   -4.6926    2.9198   -3.1312 H   0  0  0  0  0  0  0  0  0  0  0  0
   -5.8649    3.7243   -1.9565 H   0  0  0  0  0  0  0  0  0  0  0  0
   -6.4123    2.3103   -2.9995 H   0  0  0  0  0  0  0  0  0  0  0  0
  1  2  1  0
  2  3  1  0
  3  4  2  0
  4  5  1  0
  5  6  2  0
  6  7  1  0
  7  8  1  0
  8  9  1  0
  7 10  2  0
 10 11  1  0
 11 12  1  0
  5 13  1  0
 13 14  2  0
 13 15  1  0
 15 16  1  0
 16 17  1  0
 17 18  1  0
 18 19  1  0
 19 20  1  0
 18 21  1  0
 21 22  2  0
 22 23  1  0
 23 24  2  0
 24 25  1  0
 24 26  1  0
 26 27  2  0
 27 28  1  0
 28 29  2  0
 29 30  1  0
 30 31  2  0
 23 32  1  0
 32 33  2  0
 33 34  1  0
 34 35  2  0
 35 36  1  0
 36 37  2  0
 37 38  1  0
 38 39  1  0
 10  3  1  0
 20 15  1  0
 25 21  1  0
 31 26  1  0
 37 32  1  0
  1 40  1  0
  1 41  1  0
  1 42  1  0
  4 43  1  0
  6 44  1  0
  9 45  1  0
  9 46  1  0
  9 47  1  0
 12 48  1  0
 12 49  1  0
 12 50  1  0
 16 51  1  0
 16 52  1  0
 17 53  1  0
 17 54  1  0
 18 55  1  0
 19 56  1  0
 19 57  1  0
 20 58  1  0
 20 59  1  0
 25 60  1  0
 27 61  1  0
 28 62  1  0
 29 63  1  0
 30 64  1  0
 31 65  1  0
 33 66  1  0
 34 67  1  0
 35 68  1  0
 36 69  1  0
 39 70  1  0
 39 71  1  0
 39 72  1  0
M  END
$$$$
[H]c1c([H])c(N2C([H])([H])C([H])([H])N(C([H])([H])[H])C([H])([H])C2([H])[H])c([H])c([H])c1C(=O)N([H])c1nn([H])c2c([H])c([H])c(C#N)c([H])c12
     RDKit          3D

 47 50  0  0  0  0  0  0  0  0999 V2000
    7.3943    0.0230   -1.3902 C   0  0  0  0  0  0  0  0  0  0  0  0
    6.0636    0.2676   -0.8759 N   0  0  0  0  0  0  0  0  0  0  0  0
    5.1218   -0.1193   -1.9073 C   0  0  0  0  0  0  0  0  0  0  0  0
    3.7072    0.0897   -1.5113 C   0  0  0  0  0  0  0  0  0  0  0  0
    3.4590   -0.4063   -0.1943 N   0  0  0  0  0  0  0  0  0  0  0  0
    4.5010   -0.9282    0.6299 C   0  0  0  0  0  0  0  0  0  0  0  0
    5.8938   -0.5384    0.3146 C   0  0  0  0  0  0  0  0  0  0  0  0
    2.1211   -0.3837    0.3279 C   0  0  0  0  0  0  0  0  0  0  0  0
    1.1631    0.2459   -0.4328 C   0  0  0  0  0  0  0  0  0  0  0  0
   -0.1360    0.2862    0.0346 C   0  0  0  0  0  0  0  0  0  0  0  0
   -0.4733   -0.2895    1.2357 C   0  0  0  0  0  0  0  0  0  0  0  0
    0.4985   -0.9309    2.0118 C   0  0  0  0  0  0  0  0  0  0  0  0
    1.7861   -0.9661    1.5399 C   0  0  0  0  0  0  0  0  0  0  0  0
   -1.8432   -0.2298    1.6877 C   0  0  0  0  0  0  0  0  0  0  0  0
   -2.0974   -0.4512    2.8931 O   0  0  0  0  0  0  0  0  0  0  0  0
   -2.8948    0.0695    0.8066 N   0  0  0  0  0  0  0  0  0  0  0  0
   -4.2607    0.1320    1.2575 C   0  0  0  0  0  0  0  0  0  0  0  0
   -4.7531   -0.0620    2.4854 N   0  0  0  0  0  0  0  0  0  0  0  0
   -6.0825    0.0931    2.4657 N   0  0  0  0  0  0  0  0  0  0  0  0
   -6.5031    0.3952    1.2177 C   0  0  0  0  0  0  0  0  0  0  0  0
   -7.7387    0.6491    0.6613 C   0  0  0  0  0  0  0  0  0  0  0  0
   -7.7923    0.9295   -0.6860 C   0  0  0  0  0  0  0  0  0  0  0  0
   -6.6574    0.9619   -1.4805 C   0  0  0  0  0  0  0  0  0  0  0  0
   -5.4385    0.7038   -0.8945 C   0  0  0  0  0  0  0  0  0  0  0  0
   -5.3325    0.4185    0.4495 C   0  0  0  0  0  0  0  0  0  0  0  0
   -6.7568    1.2598   -2.8971 C   0  0  0  0  0  0  0  0  0  0  0  0
   -6.8243    1.5171   -4.0123 N   0  0  0  0  0  0  0  0  0  0  0  0
    8.0305   -0.4519   -0.6053 H   0  0  0  0  0  0  0  0  0  0  0  0
    7.3280   -0.7215   -2.2060 H   0  0  0  0  0  0  0  0  0  0  0  0
    7.8327    0.9733   -1.7545 H   0  0  0  0  0  0  0  0  0  0  0  0
    5.2468   -1.1837   -2.2010 H   0  0  0  0  0  0  0  0  0  0  0  0
    5.3432    0.4802   -2.8085 H   0  0  0  0  0  0  0  0  0  0  0  0
    3.4687    1.1854   -1.5985 H   0  0  0  0  0  0  0  0  0  0  0  0
    3.0726   -0.4576   -2.2502 H   0  0  0  0  0  0  0  0  0  0  0  0
    4.2555   -0.5680    1.6777 H   0  0  0  0  0  0  0  0  0  0  0  0
    4.4756   -2.0623    0.6312 H   0  0  0  0  0  0  0  0  0  0  0  0
    6.3171    0.0506    1.1541 H   0  0  0  0  0  0  0  0  0  0  0  0
    6.5832   -1.4171    0.2208 H   0  0  0  0  0  0  0  0  0  0  0  0
    1.4159    0.7032   -1.3807 H   0  0  0  0  0  0  0  0  0  0  0  0
   -0.8506    0.8038   -0.6099 H   0  0  0  0  0  0  0  0  0  0  0  0
    0.1827   -1.3657    2.9443 H   0  0  0  0  0  0  0  0  0  0  0  0
    2.5222   -1.4566    2.1290 H   0  0  0  0  0  0  0  0  0  0  0  0
   -2.6906    0.2565   -0.2117 H   0  0  0  0  0  0  0  0  0  0  0  0
   -6.7590    0.0095    3.2564 H   0  0  0  0  0  0  0  0  0  0  0  0
   -8.6375    0.6301    1.2627 H   0  0  0  0  0  0  0  0  0  0  0  0
   -8.7479    1.1387   -1.1816 H   0  0  0  0  0  0  0  0  0  0  0  0
   -4.5140    0.7163   -1.4791 H   0  0  0  0  0  0  0  0  0  0  0  0
  1  2  1  0
  2  3  1  0
  3  4  1  0
  4  5  1  0
  5  6  1  0
  6  7  1  0
  5  8  1  0
  8  9  2  0
  9 10  1  0
 10 11  2  0
 11 12  1  0
 12 13  2  0
 11 14  1  0
 14 15  2  0
 14 16  1  0
 16 17  1  0
 17 18  2  0
 18 19  1  0
 19 20  1  0
 20 21  2  0
 21 22  1  0
 22 23  2  0
 23 24  1  0
 24 25  2  0
 23 26  1  0
 26 27  3  0
  7  2  1  0
 13  8  1  0
 25 17  1  0
 25 20  1  0
  1 28  1  0
  1 29  1  0
  1 30  1  0
  3 31  1  0
  3 32  1  0
  4 33  1  0
  4 34  1  0
  6 35  1  0
  6 36  1  0
  7 37  1  0
  7 38  1  0
  9 39  1  0
 10 40  1  0
 12 41  1  0
 13 42  1  0
 16 43  1  0
 19 44  1  0
 21 45  1  0
 22 46  1  0
 24 47  1  0
M  END
$$$$
[H]OC(=O)[C@@]([H])(N([H])C(=O)[C@@]([H])(N([H])C(=O)[C@@]([H])(N([H])C(=O)[C@@]([H])(N([H])C(=O)[C@@]([H])(N([H])C(=O)[C@@]([H])(N([H])C(=O)c1c(O[H])c2c([H])c([H])c([H])c([H])c2n1[H])C([H])([H])c1c([H])c([H])c([H])c([H])c1[H])C([H])([H])C([H])(C([H])([H])[H])C([H])([H])[H])C([H])(C([H])([H])[H])C([H])([H])[H])C([H])(C([H])([H])[H])C([H])([H])[H])C([H])(C([H])([H])[H])C([H])([H])[H])C([H])([H])c1c([H])c([H])c([H])c([H])c1[H]
     RDKit          3D

127130  0  0  0  0  0  0  0  0999 V2000
   -3.8652   -3.4409   -2.7483 C   0  0  0  0  0  0  0  0  0  0  0  0
   -4.0395   -3.4049   -1.1941 C   0  0  0  0  0  0  0  0  0  0  0  0
   -5.4908   -3.6394   -0.9876 C   0  0  0  0  0  0  0  0  0  0  0  0
   -3.4521   -2.1353   -0.7677 C   0  0  0  0  0  0  0  0  0  0  0  0
   -3.3893   -1.6971    0.6280 C   0  0  2  0  0  0  0  0  0  0  0  0
   -4.5961   -1.4884    1.3383 N   0  0  0  0  0  0  0  0  0  0  0  0
   -5.6763   -0.7016    0.8892 C   0  0  0  0  0  0  0  0  0  0  0  0
   -5.5710   -0.1711   -0.2721 O   0  0  0  0  0  0  0  0  0  0  0  0
   -6.8999   -0.4163    1.6102 C   0  0  2  0  0  0  0  0  0  0  0  0
   -7.5215   -1.3168    2.5707 C   0  0  0  0  0  0  0  0  0  0  0  0
   -7.9745   -2.6428    2.2282 C   0  0  0  0  0  0  0  0  0  0  0  0
   -7.2452   -3.7568    2.5501 C   0  0  0  0  0  0  0  0  0  0  0  0
   -7.6385   -5.0375    2.2490 C   0  0  0  0  0  0  0  0  0  0  0  0
   -8.8305   -5.2576    1.5838 C   0  0  0  0  0  0  0  0  0  0  0  0
   -9.5756   -4.1622    1.2516 C   0  0  0  0  0  0  0  0  0  0  0  0
   -9.1786   -2.8807    1.5554 C   0  0  0  0  0  0  0  0  0  0  0  0
   -7.8798    0.3032    0.7773 N   0  0  0  0  0  0  0  0  0  0  0  0
   -8.1336    1.6707    0.9569 C   0  0  0  0  0  0  0  0  0  0  0  0
   -7.5399    2.3356    1.8376 O   0  0  0  0  0  0  0  0  0  0  0  0
   -9.1048    2.3578    0.1083 C   0  0  0  0  0  0  0  0  0  0  0  0
   -9.8324    1.8035   -0.8842 N   0  0  0  0  0  0  0  0  0  0  0  0
  -10.6185    2.7220   -1.4563 C   0  0  0  0  0  0  0  0  0  0  0  0
  -11.5429    2.6629   -2.5081 C   0  0  0  0  0  0  0  0  0  0  0  0
  -12.2229    3.7938   -2.8972 C   0  0  0  0  0  0  0  0  0  0  0  0
  -11.9986    4.9915   -2.2563 C   0  0  0  0  0  0  0  0  0  0  0  0
  -11.0793    5.0361   -1.2133 C   0  0  0  0  0  0  0  0  0  0  0  0
  -10.4049    3.9121   -0.8277 C   0  0  0  0  0  0  0  0  0  0  0  0
   -9.4485    3.6887    0.1631 C   0  0  0  0  0  0  0  0  0  0  0  0
   -9.0026    4.6889    0.9889 O   0  0  0  0  0  0  0  0  0  0  0  0
   -2.5615   -0.4164    0.6273 C   0  0  0  0  0  0  0  0  0  0  0  0
   -3.1095    0.6535    0.9348 O   0  0  0  0  0  0  0  0  0  0  0  0
   -1.2132   -0.5939    0.2651 N   0  0  0  0  0  0  0  0  0  0  0  0
   -0.2386    0.5138    0.1669 C   0  0  1  0  0  0  0  0  0  0  0  0
    0.0936    0.9240    1.6311 C   0  0  0  0  0  0  0  0  0  0  0  0
    0.6859   -0.2204    2.3819 C   0  0  0  0  0  0  0  0  0  0  0  0
    1.0311    2.0933    1.5601 C   0  0  0  0  0  0  0  0  0  0  0  0
    0.9579    0.0198   -0.4934 C   0  0  0  0  0  0  0  0  0  0  0  0
    1.0700   -1.2493   -0.6181 O   0  0  0  0  0  0  0  0  0  0  0  0
    2.0283    0.7970   -1.0176 N   0  0  0  0  0  0  0  0  0  0  0  0
    3.1863    0.0925   -1.6089 C   0  0  1  0  0  0  0  0  0  0  0  0
    3.0958    0.2535   -3.1017 C   0  0  0  0  0  0  0  0  0  0  0  0
    3.1472    1.6849   -3.5069 C   0  0  0  0  0  0  0  0  0  0  0  0
    4.0760   -0.6220   -3.8278 C   0  0  0  0  0  0  0  0  0  0  0  0
    4.4439    0.6615   -1.0578 C   0  0  0  0  0  0  0  0  0  0  0  0
    4.4667    1.9297   -0.9689 O   0  0  0  0  0  0  0  0  0  0  0  0
    5.5347   -0.1409   -0.6546 N   0  0  0  0  0  0  0  0  0  0  0  0
    6.7464    0.3933   -0.1203 C   0  0  1  0  0  0  0  0  0  0  0  0
    6.7125    0.4579    1.4044 C   0  0  0  0  0  0  0  0  0  0  0  0
    6.5174   -0.8558    2.0675 C   0  0  0  0  0  0  0  0  0  0  0  0
    5.8298    1.5712    1.8887 C   0  0  0  0  0  0  0  0  0  0  0  0
    7.9536   -0.3158   -0.5823 C   0  0  0  0  0  0  0  0  0  0  0  0
    7.8532   -1.2782   -1.3930 O   0  0  0  0  0  0  0  0  0  0  0  0
    9.2658    0.0194   -0.1601 N   0  0  0  0  0  0  0  0  0  0  0  0
   10.4417   -0.6899   -0.6135 C   0  0  1  0  0  0  0  0  0  0  0  0
   11.4796    0.2041   -1.1995 C   0  0  0  0  0  0  0  0  0  0  0  0
   11.9797    1.2255   -0.2706 C   0  0  0  0  0  0  0  0  0  0  0  0
   13.0465    0.9827    0.5543 C   0  0  0  0  0  0  0  0  0  0  0  0
   13.4817    1.9805    1.4156 C   0  0  0  0  0  0  0  0  0  0  0  0
   12.8593    3.2085    1.4534 C   0  0  0  0  0  0  0  0  0  0  0  0
   11.7903    3.4231    0.6126 C   0  0  0  0  0  0  0  0  0  0  0  0
   11.3594    2.4387   -0.2386 C   0  0  0  0  0  0  0  0  0  0  0  0
   10.9605   -1.5944    0.4545 C   0  0  0  0  0  0  0  0  0  0  0  0
   12.0683   -2.4066    0.2710 O   0  0  0  0  0  0  0  0  0  0  0  0
   10.4050   -1.6621    1.5909 O   0  0  0  0  0  0  0  0  0  0  0  0
   -4.4078   -2.5438   -3.0951 H   0  0  0  0  0  0  0  0  0  0  0  0
   -4.3232   -4.3744   -3.0763 H   0  0  0  0  0  0  0  0  0  0  0  0
   -2.8014   -3.3190   -2.9564 H   0  0  0  0  0  0  0  0  0  0  0  0
   -3.4820   -4.3130   -0.8699 H   0  0  0  0  0  0  0  0  0  0  0  0
   -5.7325   -4.5977   -1.5446 H   0  0  0  0  0  0  0  0  0  0  0  0
   -5.7867   -3.8094    0.0314 H   0  0  0  0  0  0  0  0  0  0  0  0
   -6.0526   -2.8619   -1.5488 H   0  0  0  0  0  0  0  0  0  0  0  0
   -3.8494   -1.3300   -1.4643 H   0  0  0  0  0  0  0  0  0  0  0  0
   -2.3563   -2.1735   -1.1263 H   0  0  0  0  0  0  0  0  0  0  0  0
   -2.7581   -2.3839    1.2681 H   0  0  0  0  0  0  0  0  0  0  0  0
   -4.7300   -1.9494    2.3186 H   0  0  0  0  0  0  0  0  0  0  0  0
   -6.5471    0.4877    2.3083 H   0  0  0  0  0  0  0  0  0  0  0  0
   -6.8672   -1.3462    3.5181 H   0  0  0  0  0  0  0  0  0  0  0  0
   -8.4371   -0.7532    2.9896 H   0  0  0  0  0  0  0  0  0  0  0  0
   -6.3084   -3.6231    3.0710 H   0  0  0  0  0  0  0  0  0  0  0  0
   -7.0036   -5.8814    2.5385 H   0  0  0  0  0  0  0  0  0  0  0  0
   -9.1076   -6.2846    1.3633 H   0  0  0  0  0  0  0  0  0  0  0  0
  -10.5099   -4.3428    0.7271 H   0  0  0  0  0  0  0  0  0  0  0  0
   -9.8220   -2.0612    1.2573 H   0  0  0  0  0  0  0  0  0  0  0  0
   -8.3955   -0.2179    0.0396 H   0  0  0  0  0  0  0  0  0  0  0  0
   -9.7886    0.7993   -1.1673 H   0  0  0  0  0  0  0  0  0  0  0  0
  -11.7052    1.7268   -2.9923 H   0  0  0  0  0  0  0  0  0  0  0  0
  -12.9529    3.7478   -3.7192 H   0  0  0  0  0  0  0  0  0  0  0  0
  -12.5241    5.8746   -2.5510 H   0  0  0  0  0  0  0  0  0  0  0  0
  -10.9212    5.9748   -0.7290 H   0  0  0  0  0  0  0  0  0  0  0  0
   -8.3312    4.6290    1.7157 H   0  0  0  0  0  0  0  0  0  0  0  0
   -0.8420   -1.5369    0.0522 H   0  0  0  0  0  0  0  0  0  0  0  0
   -0.7618    1.3819   -0.2202 H   0  0  0  0  0  0  0  0  0  0  0  0
   -0.8413    1.2552    2.1071 H   0  0  0  0  0  0  0  0  0  0  0  0
    0.3859   -0.1082    3.4523 H   0  0  0  0  0  0  0  0  0  0  0  0
    1.7968   -0.1769    2.3328 H   0  0  0  0  0  0  0  0  0  0  0  0
    0.2909   -1.1842    2.0000 H   0  0  0  0  0  0  0  0  0  0  0  0
    0.7310    2.8409    0.8271 H   0  0  0  0  0  0  0  0  0  0  0  0
    1.0679    2.5976    2.5793 H   0  0  0  0  0  0  0  0  0  0  0  0
    2.0651    1.7631    1.3492 H   0  0  0  0  0  0  0  0  0  0  0  0
    1.9542    1.8273   -0.9722 H   0  0  0  0  0  0  0  0  0  0  0  0
    3.1200   -0.9785   -1.3927 H   0  0  0  0  0  0  0  0  0  0  0  0
    2.0718   -0.1226   -3.4144 H   0  0  0  0  0  0  0  0  0  0  0  0
    4.1849    2.0174   -3.7607 H   0  0  0  0  0  0  0  0  0  0  0  0
    2.7616    2.3476   -2.7151 H   0  0  0  0  0  0  0  0  0  0  0  0
    2.4621    1.8655   -4.3879 H   0  0  0  0  0  0  0  0  0  0  0  0
    3.5923   -1.2884   -4.5992 H   0  0  0  0  0  0  0  0  0  0  0  0
    4.7761    0.0099   -4.3997 H   0  0  0  0  0  0  0  0  0  0  0  0
    4.6370   -1.3050   -3.1640 H   0  0  0  0  0  0  0  0  0  0  0  0
    5.4221   -1.1802   -0.7629 H   0  0  0  0  0  0  0  0  0  0  0  0
    6.8172    1.4630   -0.4317 H   0  0  0  0  0  0  0  0  0  0  0  0
    7.7638    0.7884    1.6776 H   0  0  0  0  0  0  0  0  0  0  0  0
    7.4944   -1.3702    2.3039 H   0  0  0  0  0  0  0  0  0  0  0  0
    5.9374   -1.5831    1.4881 H   0  0  0  0  0  0  0  0  0  0  0  0
    6.0872   -0.6587    3.0864 H   0  0  0  0  0  0  0  0  0  0  0  0
    6.1484    2.4849    1.3052 H   0  0  0  0  0  0  0  0  0  0  0  0
    6.0894    1.8594    2.9495 H   0  0  0  0  0  0  0  0  0  0  0  0
    4.7596    1.3842    1.8577 H   0  0  0  0  0  0  0  0  0  0  0  0
    9.3888    0.8045    0.4975 H   0  0  0  0  0  0  0  0  0  0  0  0
   10.0950   -1.3933   -1.4216 H   0  0  0  0  0  0  0  0  0  0  0  0
   12.3766   -0.3595   -1.5666 H   0  0  0  0  0  0  0  0  0  0  0  0
   11.0291    0.6566   -2.1204 H   0  0  0  0  0  0  0  0  0  0  0  0
   13.5803    0.0337    0.5667 H   0  0  0  0  0  0  0  0  0  0  0  0
   14.3180    1.8317    2.0853 H   0  0  0  0  0  0  0  0  0  0  0  0
   13.2050    4.0027    2.1367 H   0  0  0  0  0  0  0  0  0  0  0  0
   11.2987    4.4097    0.6510 H   0  0  0  0  0  0  0  0  0  0  0  0
   10.5158    2.6636   -0.8769 H   0  0  0  0  0  0  0  0  0  0  0  0
   12.0303   -3.4168    0.2988 H   0  0  0  0  0  0  0  0  0  0  0  0
  1  2  1  0
  2  3  1  0
  2  4  1  0
  4  5  1  0
  5  6  1  0
  6  7  1  0
  7  8  2  0
  7  9  1  0
  9 10  1  0
 10 11  1  0
 11 12  2  0
 12 13  1  0
 13 14  2  0
 14 15  1  0
 15 16  2  0
  9 17  1  0
 17 18  1  0
 18 19  2  0
 18 20  1  0
 20 21  1  0
 21 22  1  0
 22 23  2  0
 23 24  1  0
 24 25  2  0
 25 26  1  0
 26 27  2  0
 27 28  1  0
 28 29  1  0
  5 30  1  0
 30 31  2  0
 30 32  1  0
 32 33  1  0
 33 34  1  0
 34 35  1  0
 34 36  1  0
 33 37  1  0
 37 38  2  0
 37 39  1  0
 39 40  1  0
 40 41  1  0
 41 42  1  0
 41 43  1  0
 40 44  1  0
 44 45  2  0
 44 46  1  0
 46 47  1  0
 47 48  1  0
 48 49  1  0
 48 50  1  0
 47 51  1  0
 51 52  2  0
 51 53  1  0
 53 54  1  0
 54 55  1  0
 55 56  1  0
 56 57  2  0
 57 58  1  0
 58 59  2  0
 59 60  1  0
 60 61  2  0
 54 62  1  0
 62 63  1  0
 62 64  2  0
 16 11  1  0
 28 20  2  0
 61 56  1  0
 27 22  1  0
  1 65  1  0
  1 66  1  0
  1 67  1  0
  2 68  1  0
  3 69  1  0
  3 70  1  0
  3 71  1  0
  4 72  1  0
  4 73  1  0
  5 74  1  1
  6 75  1  0
  9 76  1  1
 10 77  1  0
 10 78  1  0
 12 79  1  0
 13 80  1  0
 14 81  1  0
 15 82  1  0
 16 83  1  0
 17 84  1  0
 21 85  1  0
 23 86  1  0
 24 87  1  0
 25 88  1  0
 26 89  1  0
 29 90  1  0
 32 91  1  0
 33 92  1  6
 34 93  1  0
 35 94  1  0
 35 95  1  0
 35 96  1  0
 36 97  1  0
 36 98  1  0
 36 99  1  0
 39100  1  0
 40101  1  6
 41102  1  0
 42103  1  0
 42104  1  0
 42105  1  0
 43106  1  0
 43107  1  0
 43108  1  0
 46109  1  0
 47110  1  6
 48111  1  0
 49112  1  0
 49113  1  0
 49114  1  0
 50115  1  0
 50116  1  0
 50117  1  0
 53118  1  0
 54119  1  6
 55120  1  0
 55121  1  0
 57122  1  0
 58123  1  0
 59124  1  0
 60125  1  0
 61126  1  0
 63127  1  0
M  END
$$$$
[H]c1nc([H])c([H])c(-c2nc3c([H])c(N([H])C(=O)[C@@]([H])(Oc4c([H])c([H])c([H])c5c([H])c([H])c([H])c([H])c45)C([H])([H])[H])c([H])c([H])c3o2)c1[H]
     RDKit          3D

 50 54  0  0  0  0  0  0  0  0999 V2000
   -2.0174    1.7187    2.0589 C   0  0  0  0  0  0  0  0  0  0  0  0
   -2.2702    1.1353    0.6815 C   0  0  2  0  0  0  0  0  0  0  0  0
   -3.4040    0.3279    0.7428 O   0  0  0  0  0  0  0  0  0  0  0  0
   -4.5841    0.4481    0.0802 C   0  0  0  0  0  0  0  0  0  0  0  0
   -4.8155    1.4581   -0.7956 C   0  0  0  0  0  0  0  0  0  0  0  0
   -6.0158    1.5954   -1.4809 C   0  0  0  0  0  0  0  0  0  0  0  0
   -7.0043    0.6685   -1.2590 C   0  0  0  0  0  0  0  0  0  0  0  0
   -6.8070   -0.3657   -0.3814 C   0  0  0  0  0  0  0  0  0  0  0  0
   -7.8181   -1.2915   -0.1712 C   0  0  0  0  0  0  0  0  0  0  0  0
   -7.6230   -2.3209    0.7016 C   0  0  0  0  0  0  0  0  0  0  0  0
   -6.4196   -2.4164    1.3568 C   0  0  0  0  0  0  0  0  0  0  0  0
   -5.3963   -1.5139    1.1702 C   0  0  0  0  0  0  0  0  0  0  0  0
   -5.6148   -0.4756    0.2793 C   0  0  0  0  0  0  0  0  0  0  0  0
   -1.0804    0.2830    0.3134 C   0  0  0  0  0  0  0  0  0  0  0  0
   -1.2977   -0.9338    0.1355 O   0  0  0  0  0  0  0  0  0  0  0  0
    0.1777    0.9011    0.1956 N   0  0  0  0  0  0  0  0  0  0  0  0
    1.3916    0.2730   -0.1438 C   0  0  0  0  0  0  0  0  0  0  0  0
    1.5013   -0.9633   -0.7126 C   0  0  0  0  0  0  0  0  0  0  0  0
    2.7235   -1.5376   -1.0043 C   0  0  0  0  0  0  0  0  0  0  0  0
    3.8774   -0.8516   -0.7181 C   0  0  0  0  0  0  0  0  0  0  0  0
    5.1626   -1.1295   -0.8759 O   0  0  0  0  0  0  0  0  0  0  0  0
    5.9364   -0.1697   -0.4553 C   0  0  0  0  0  0  0  0  0  0  0  0
    5.1138    0.7972    0.0065 N   0  0  0  0  0  0  0  0  0  0  0  0
    3.8374    0.4008   -0.1443 C   0  0  0  0  0  0  0  0  0  0  0  0
    2.6065    0.9244    0.1248 C   0  0  0  0  0  0  0  0  0  0  0  0
    7.3967   -0.1041   -0.4602 C   0  0  0  0  0  0  0  0  0  0  0  0
    8.0944    0.9792    0.0187 C   0  0  0  0  0  0  0  0  0  0  0  0
    9.4935    1.0050   -0.0029 C   0  0  0  0  0  0  0  0  0  0  0  0
   10.1737   -0.0539   -0.5036 N   0  0  0  0  0  0  0  0  0  0  0  0
    9.5128   -1.1223   -0.9765 C   0  0  0  0  0  0  0  0  0  0  0  0
    8.1261   -1.1601   -0.9607 C   0  0  0  0  0  0  0  0  0  0  0  0
   -1.8183    2.8101    2.0269 H   0  0  0  0  0  0  0  0  0  0  0  0
   -1.1244    1.2523    2.5205 H   0  0  0  0  0  0  0  0  0  0  0  0
   -2.8955    1.5859    2.7268 H   0  0  0  0  0  0  0  0  0  0  0  0
   -2.3526    1.9875   -0.0030 H   0  0  0  0  0  0  0  0  0  0  0  0
   -4.0751    2.1974   -0.9959 H   0  0  0  0  0  0  0  0  0  0  0  0
   -6.1695    2.4147   -2.1749 H   0  0  0  0  0  0  0  0  0  0  0  0
   -7.9593    0.7498   -1.7832 H   0  0  0  0  0  0  0  0  0  0  0  0
   -8.7466   -1.1817   -0.7041 H   0  0  0  0  0  0  0  0  0  0  0  0
   -8.4338   -3.0335    0.8477 H   0  0  0  0  0  0  0  0  0  0  0  0
   -6.2850   -3.2414    2.0458 H   0  0  0  0  0  0  0  0  0  0  0  0
   -4.4418   -1.5688    1.6742 H   0  0  0  0  0  0  0  0  0  0  0  0
    0.2283    1.9579    0.3779 H   0  0  0  0  0  0  0  0  0  0  0  0
    0.5834   -1.5263   -0.9643 H   0  0  0  0  0  0  0  0  0  0  0  0
    2.7527   -2.5074   -1.4486 H   0  0  0  0  0  0  0  0  0  0  0  0
    2.5348    1.8952    0.5714 H   0  0  0  0  0  0  0  0  0  0  0  0
    7.5285    1.8077    0.4112 H   0  0  0  0  0  0  0  0  0  0  0  0
   10.0321    1.8641    0.3772 H   0  0  0  0  0  0  0  0  0  0  0  0
   10.0930   -1.9412   -1.3649 H   0  0  0  0  0  0  0  0  0  0  0  0
    7.5920   -2.0281   -1.3449 H   0  0  0  0  0  0  0  0  0  0  0  0
  1  2  1  0
  2  3  1  0
  3  4  1  0
  4  5  2  0
  5  6  1  0
  6  7  2  0
  7  8  1  0
  8  9  2  0
  9 10  1  0
 10 11  2  0
 11 12  1  0
 12 13  2  0
  2 14  1  0
 14 15  2  0
 14 16  1  0
 16 17  1  0
 17 18  2  0
 18 19  1  0
 19 20  2  0
 20 21  1  0
 21 22  1  0
 22 23  2  0
 23 24  1  0
 24 25  2  0
 22 26  1  0
 26 27  2  0
 27 28  1  0
 28 29  2  0
 29 30  1  0
 30 31  2  0
 13  4  1  0
 25 17  1  0
 31 26  1  0
 13  8  1  0
 24 20  1  0
  1 32  1  0
  1 33  1  0
  1 34  1  0
  2 35  1  6
  5 36  1  0
  6 37  1  0
  7 38  1  0
  9 39  1  0
 10 40  1  0
 11 41  1  0
 12 42  1  0
 16 43  1  0
 18 44  1  0
 19 45  1  0
 25 46  1  0
 27 47  1  0
 28 48  1  0
 30 49  1  0
 31 50  1  0
M  END
$$$$
[H]c1nc(OC([H])([H])c2c(-c3c([H])c([H])c([H])c([H])c3[H])noc2C([H])([H])[H])c([H])c([H])c1C(=O)N([H])C([H])([H])[H]
     RDKit          3D

 41 43  0  0  0  0  0  0  0  0999 V2000
    7.1793    1.5548    0.5273 C   0  0  0  0  0  0  0  0  0  0  0  0
    5.8480    1.0246    0.4036 N   0  0  0  0  0  0  0  0  0  0  0  0
    4.8112    1.6076   -0.3602 C   0  0  0  0  0  0  0  0  0  0  0  0
    5.0719    2.6523   -0.9866 O   0  0  0  0  0  0  0  0  0  0  0  0
    3.4999    0.9487   -0.3490 C   0  0  0  0  0  0  0  0  0  0  0  0
    3.0296    0.5049    0.8721 C   0  0  0  0  0  0  0  0  0  0  0  0
    1.8143   -0.1108    0.9120 C   0  0  0  0  0  0  0  0  0  0  0  0
    0.9964   -0.3385   -0.2138 C   0  0  0  0  0  0  0  0  0  0  0  0
   -0.2101   -0.9560   -0.0418 O   0  0  0  0  0  0  0  0  0  0  0  0
   -1.0788   -1.3446   -1.0376 C   0  0  0  0  0  0  0  0  0  0  0  0
   -2.3618   -1.8421   -0.4458 C   0  0  0  0  0  0  0  0  0  0  0  0
   -2.7694   -3.1847   -0.5526 C   0  0  0  0  0  0  0  0  0  0  0  0
   -1.9586   -4.2779   -1.0858 C   0  0  0  0  0  0  0  0  0  0  0  0
   -3.9969   -3.2276   -0.0719 O   0  0  0  0  0  0  0  0  0  0  0  0
   -4.4062   -2.0878    0.3193 N   0  0  0  0  0  0  0  0  0  0  0  0
   -3.3896   -1.1436    0.0990 C   0  0  0  0  0  0  0  0  0  0  0  0
   -3.6619    0.2400    0.3926 C   0  0  0  0  0  0  0  0  0  0  0  0
   -4.2025    0.5890    1.6361 C   0  0  0  0  0  0  0  0  0  0  0  0
   -4.6274    1.8447    1.9220 C   0  0  0  0  0  0  0  0  0  0  0  0
   -4.4997    2.8010    0.9190 C   0  0  0  0  0  0  0  0  0  0  0  0
   -3.9704    2.4841   -0.3051 C   0  0  0  0  0  0  0  0  0  0  0  0
   -3.5522    1.2064   -0.5736 C   0  0  0  0  0  0  0  0  0  0  0  0
    1.5192    0.1157   -1.3663 N   0  0  0  0  0  0  0  0  0  0  0  0
    2.7091    0.7360   -1.4605 C   0  0  0  0  0  0  0  0  0  0  0  0
    7.1985    2.6476    0.4896 H   0  0  0  0  0  0  0  0  0  0  0  0
    7.6495    1.1888    1.4960 H   0  0  0  0  0  0  0  0  0  0  0  0
    7.8912    1.1828   -0.2609 H   0  0  0  0  0  0  0  0  0  0  0  0
    5.6444    0.1177    0.9466 H   0  0  0  0  0  0  0  0  0  0  0  0
    3.6021    0.6123    1.8043 H   0  0  0  0  0  0  0  0  0  0  0  0
    1.4451   -0.4816    1.8611 H   0  0  0  0  0  0  0  0  0  0  0  0
   -1.3061   -0.3850   -1.6246 H   0  0  0  0  0  0  0  0  0  0  0  0
   -0.6176   -2.0966   -1.6950 H   0  0  0  0  0  0  0  0  0  0  0  0
   -1.3674   -4.0803   -1.9709 H   0  0  0  0  0  0  0  0  0  0  0  0
   -2.5776   -5.1784   -1.2591 H   0  0  0  0  0  0  0  0  0  0  0  0
   -1.1846   -4.4716   -0.2726 H   0  0  0  0  0  0  0  0  0  0  0  0
   -4.2925   -0.1675    2.4116 H   0  0  0  0  0  0  0  0  0  0  0  0
   -5.0558    2.1252    2.8822 H   0  0  0  0  0  0  0  0  0  0  0  0
   -4.8411    3.8261    1.0889 H   0  0  0  0  0  0  0  0  0  0  0  0
   -3.8791    3.2626   -1.0842 H   0  0  0  0  0  0  0  0  0  0  0  0
   -3.1689    1.0058   -1.5613 H   0  0  0  0  0  0  0  0  0  0  0  0
    3.0664    1.0957   -2.4040 H   0  0  0  0  0  0  0  0  0  0  0  0
  1  2  1  0
  2  3  1  0
  3  4  2  0
  3  5  1  0
  5  6  2  0
  6  7  1  0
  7  8  2  0
  8  9  1  0
  9 10  1  0
 10 11  1  0
 11 12  2  0
 12 13  1  0
 12 14  1  0
 14 15  1  0
 15 16  2  0
 16 17  1  0
 17 18  2  0
 18 19  1  0
 19 20  2  0
 20 21  1  0
 21 22  2  0
  8 23  1  0
 23 24  2  0
 24  5  1  0
 16 11  1  0
 22 17  1  0
  1 25  1  0
  1 26  1  0
  1 27  1  0
  2 28  1  0
  6 29  1  0
  7 30  1  0
 10 31  1  0
 10 32  1  0
 13 33  1  0
 13 34  1  0
 13 35  1  0
 18 36  1  0
 19 37  1  0
 20 38  1  0
 21 39  1  0
 22 40  1  0
 24 41  1  0
M  END
$$$$
[H]c1nc(N([H])c2c([H])c(OC([H])([H])[H])c([H])c(OC([H])([H])[H])c2[H])nc(Oc2c([H])c([H])c(N([H])C(=O)N([H])c3c([H])c(C(C([H])([H])[H])(C([H])([H])[H])C([H])([H])[H])nn3-c3c([H])c([H])c(C([H])([H])[H])c([H])c3[H])c3c([H])c([H])c([H])c([H])c23)c1[H]
     RDKit          3D

 85 90  0  0  0  0  0  0  0  0999 V2000
   10.9434   -2.8517   -0.3655 C   0  0  0  0  0  0  0  0  0  0  0  0
   11.4134   -1.5433   -0.4013 O   0  0  0  0  0  0  0  0  0  0  0  0
   10.5962   -0.4618   -0.6259 C   0  0  0  0  0  0  0  0  0  0  0  0
    9.2415   -0.5984   -0.8346 C   0  0  0  0  0  0  0  0  0  0  0  0
    8.4488    0.5121   -1.0580 C   0  0  0  0  0  0  0  0  0  0  0  0
    7.0479    0.3561   -1.2383 N   0  0  0  0  0  0  0  0  0  0  0  0
    6.2212    0.3776   -0.0919 C   0  0  0  0  0  0  0  0  0  0  0  0
    6.7406    0.5177    1.1259 N   0  0  0  0  0  0  0  0  0  0  0  0
    5.9518    0.5699    2.2163 C   0  0  0  0  0  0  0  0  0  0  0  0
    4.6109    0.4823    2.0937 C   0  0  0  0  0  0  0  0  0  0  0  0
    4.0117    0.3316    0.8127 C   0  0  0  0  0  0  0  0  0  0  0  0
    2.7466    0.2450    0.6434 O   0  0  0  0  0  0  0  0  0  0  0  0
    1.5048   -0.0926    0.5279 C   0  0  0  0  0  0  0  0  0  0  0  0
    1.0384   -1.3975    0.7501 C   0  0  0  0  0  0  0  0  0  0  0  0
   -0.3029   -1.6566    0.6128 C   0  0  0  0  0  0  0  0  0  0  0  0
   -1.2483   -0.6982    0.2628 C   0  0  0  0  0  0  0  0  0  0  0  0
   -2.6365   -0.9776    0.2878 N   0  0  0  0  0  0  0  0  0  0  0  0
   -3.2786   -2.2004    0.1162 C   0  0  0  0  0  0  0  0  0  0  0  0
   -2.4440   -3.1754   -0.1441 O   0  0  0  0  0  0  0  0  0  0  0  0
   -4.5963   -2.5870    0.1809 N   0  0  0  0  0  0  0  0  0  0  0  0
   -5.8677   -2.0063    0.2668 C   0  0  0  0  0  0  0  0  0  0  0  0
   -6.9398   -2.7642    0.8456 C   0  0  0  0  0  0  0  0  0  0  0  0
   -8.0625   -1.9900    0.7380 C   0  0  0  0  0  0  0  0  0  0  0  0
   -7.6864   -0.8785    0.1492 N   0  0  0  0  0  0  0  0  0  0  0  0
   -6.3668   -0.8603   -0.1499 N   0  0  0  0  0  0  0  0  0  0  0  0
   -5.7949    0.2418   -0.8728 C   0  0  0  0  0  0  0  0  0  0  0  0
   -5.2864    0.0895   -2.1398 C   0  0  0  0  0  0  0  0  0  0  0  0
   -4.8080    1.1685   -2.8854 C   0  0  0  0  0  0  0  0  0  0  0  0
   -4.8316    2.4431   -2.3637 C   0  0  0  0  0  0  0  0  0  0  0  0
   -4.3333    3.5992   -3.1740 C   0  0  0  0  0  0  0  0  0  0  0  0
   -5.3400    2.5957   -1.0905 C   0  0  0  0  0  0  0  0  0  0  0  0
   -5.8182    1.5221   -0.3436 C   0  0  0  0  0  0  0  0  0  0  0  0
   -9.4469   -2.3557    1.2312 C   0  0  0  0  0  0  0  0  0  0  0  0
   -9.7762   -3.7190    0.7185 C   0  0  0  0  0  0  0  0  0  0  0  0
   -9.4580   -2.2938    2.7586 C   0  0  0  0  0  0  0  0  0  0  0  0
  -10.3917   -1.3175    0.6926 C   0  0  0  0  0  0  0  0  0  0  0  0
   -0.7559    0.5741    0.0477 C   0  0  0  0  0  0  0  0  0  0  0  0
   -1.6401    1.5980   -0.3341 C   0  0  0  0  0  0  0  0  0  0  0  0
   -1.2016    2.8668   -0.5759 C   0  0  0  0  0  0  0  0  0  0  0  0
    0.1365    3.1784   -0.4522 C   0  0  0  0  0  0  0  0  0  0  0  0
    1.0236    2.1889   -0.0785 C   0  0  0  0  0  0  0  0  0  0  0  0
    0.5637    0.8913    0.1684 C   0  0  0  0  0  0  0  0  0  0  0  0
    4.8995    0.2868   -0.2337 N   0  0  0  0  0  0  0  0  0  0  0  0
    9.0278    1.7510   -1.0703 C   0  0  0  0  0  0  0  0  0  0  0  0
   10.3976    1.9376   -0.8628 C   0  0  0  0  0  0  0  0  0  0  0  0
   10.9439    3.2036   -0.8795 O   0  0  0  0  0  0  0  0  0  0  0  0
   12.3068    3.4311   -0.6778 C   0  0  0  0  0  0  0  0  0  0  0  0
   11.1623    0.8278   -0.6430 C   0  0  0  0  0  0  0  0  0  0  0  0
   11.5438   -3.4211    0.3932 H   0  0  0  0  0  0  0  0  0  0  0  0
    9.8794   -2.9391   -0.1566 H   0  0  0  0  0  0  0  0  0  0  0  0
   11.1326   -3.3308   -1.3606 H   0  0  0  0  0  0  0  0  0  0  0  0
    8.7265   -1.5528   -0.8433 H   0  0  0  0  0  0  0  0  0  0  0  0
    6.6513    0.2278   -2.1779 H   0  0  0  0  0  0  0  0  0  0  0  0
    6.3641    0.6850    3.2324 H   0  0  0  0  0  0  0  0  0  0  0  0
    3.8955    0.5113    2.9061 H   0  0  0  0  0  0  0  0  0  0  0  0
    1.7866   -2.1145    1.0233 H   0  0  0  0  0  0  0  0  0  0  0  0
   -0.6001   -2.6712    0.8170 H   0  0  0  0  0  0  0  0  0  0  0  0
   -3.2440   -0.1395    0.5147 H   0  0  0  0  0  0  0  0  0  0  0  0
   -4.6987   -3.7027    0.0127 H   0  0  0  0  0  0  0  0  0  0  0  0
   -6.8590   -3.7400    1.2783 H   0  0  0  0  0  0  0  0  0  0  0  0
   -5.2662   -0.9151   -2.5563 H   0  0  0  0  0  0  0  0  0  0  0  0
   -4.4152    1.0202   -3.8870 H   0  0  0  0  0  0  0  0  0  0  0  0
   -4.9037    4.5105   -2.8285 H   0  0  0  0  0  0  0  0  0  0  0  0
   -4.5989    3.4678   -4.2405 H   0  0  0  0  0  0  0  0  0  0  0  0
   -3.2721    3.7540   -2.9851 H   0  0  0  0  0  0  0  0  0  0  0  0
   -5.3689    3.5858   -0.6489 H   0  0  0  0  0  0  0  0  0  0  0  0
   -6.2085    1.6615    0.6547 H   0  0  0  0  0  0  0  0  0  0  0  0
  -10.8572   -3.9350    0.8709 H   0  0  0  0  0  0  0  0  0  0  0  0
   -9.6190   -3.7012   -0.3781 H   0  0  0  0  0  0  0  0  0  0  0  0
   -9.1986   -4.5126    1.2075 H   0  0  0  0  0  0  0  0  0  0  0  0
  -10.4964   -2.0654    3.0777 H   0  0  0  0  0  0  0  0  0  0  0  0
   -9.0937   -3.2340    3.2182 H   0  0  0  0  0  0  0  0  0  0  0  0
   -8.8527   -1.4290    3.0871 H   0  0  0  0  0  0  0  0  0  0  0  0
  -10.8822   -1.6443   -0.2310 H   0  0  0  0  0  0  0  0  0  0  0  0
   -9.8447   -0.3787    0.4677 H   0  0  0  0  0  0  0  0  0  0  0  0
  -11.1925   -1.0478    1.4112 H   0  0  0  0  0  0  0  0  0  0  0  0
   -2.6536    1.3515   -0.4401 H   0  0  0  0  0  0  0  0  0  0  0  0
   -1.8582    3.6873   -0.8717 H   0  0  0  0  0  0  0  0  0  0  0  0
    0.5082    4.1754   -0.6442 H   0  0  0  0  0  0  0  0  0  0  0  0
    2.0826    2.4089    0.0260 H   0  0  0  0  0  0  0  0  0  0  0  0
    8.4572    2.6691   -1.2415 H   0  0  0  0  0  0  0  0  0  0  0  0
   12.5550    3.5460    0.4020 H   0  0  0  0  0  0  0  0  0  0  0  0
   12.5990    4.3809   -1.2129 H   0  0  0  0  0  0  0  0  0  0  0  0
   12.9055    2.6045   -1.1035 H   0  0  0  0  0  0  0  0  0  0  0  0
   12.2302    0.8654   -0.4740 H   0  0  0  0  0  0  0  0  0  0  0  0
  1  2  1  0
  2  3  1  0
  3  4  2  0
  4  5  1  0
  5  6  1  0
  6  7  1  0
  7  8  2  0
  8  9  1  0
  9 10  2  0
 10 11  1  0
 11 12  1  0
 12 13  1  0
 13 14  2  0
 14 15  1  0
 15 16  2  0
 16 17  1  0
 17 18  1  0
 18 19  2  0
 18 20  1  0
 20 21  1  0
 21 22  2  0
 22 23  1  0
 23 24  2  0
 24 25  1  0
 25 26  1  0
 26 27  2  0
 27 28  1  0
 28 29  2  0
 29 30  1  0
 29 31  1  0
 31 32  2  0
 23 33  1  0
 33 34  1  0
 33 35  1  0
 33 36  1  0
 16 37  1  0
 37 38  2  0
 38 39  1  0
 39 40  2  0
 40 41  1  0
 41 42  2  0
 11 43  2  0
  5 44  2  0
 44 45  1  0
 45 46  1  0
 46 47  1  0
 45 48  2  0
 48  3  1  0
 43  7  1  0
 42 13  1  0
 25 21  1  0
 32 26  1  0
 42 37  1  0
  1 49  1  0
  1 50  1  0
  1 51  1  0
  4 52  1  0
  6 53  1  0
  9 54  1  0
 10 55  1  0
 14 56  1  0
 15 57  1  0
 17 58  1  0
 20 59  1  0
 22 60  1  0
 27 61  1  0
 28 62  1  0
 30 63  1  0
 30 64  1  0
 30 65  1  0
 31 66  1  0
 32 67  1  0
 34 68  1  0
 34 69  1  0
 34 70  1  0
 35 71  1  0
 35 72  1  0
 35 73  1  0
 36 74  1  0
 36 75  1  0
 36 76  1  0
 38 77  1  0
 39 78  1  0
 40 79  1  0
 41 80  1  0
 44 81  1  0
 47 82  1  0
 47 83  1  0
 47 84  1  0
 48 85  1  0
M  END
$$$$
[H]c1c([H])c([H])c(C([H])([H])n2c(=O)n(C3([H])C([H])([H])C([H])([H])N(C(=O)c4c([H])c(OC([H])([H])[H])c(OC([H])([H])[H])c(OC([H])([H])[H])c4[H])C([H])([H])C3([H])[H])c3c([H])c([H])c([H])c([H])c32)c([H])c1[H]
     RDKit          3D

 68 72  0  0  0  0  0  0  0  0999 V2000
   -7.4817   -2.5842    1.6353 C   0  0  0  0  0  0  0  0  0  0  0  0
   -7.6124   -1.3016    1.0778 O   0  0  0  0  0  0  0  0  0  0  0  0
   -6.4940   -0.5394    0.6818 C   0  0  0  0  0  0  0  0  0  0  0  0
   -5.2587   -1.0949    0.8593 C   0  0  0  0  0  0  0  0  0  0  0  0
   -4.1061   -0.3927    0.4875 C   0  0  0  0  0  0  0  0  0  0  0  0
   -4.3205    0.8473   -0.0466 C   0  0  0  0  0  0  0  0  0  0  0  0
   -5.5854    1.4028   -0.2223 C   0  0  0  0  0  0  0  0  0  0  0  0
   -5.7075    2.6574   -0.7674 O   0  0  0  0  0  0  0  0  0  0  0  0
   -4.5637    3.3862   -1.1499 C   0  0  0  0  0  0  0  0  0  0  0  0
   -6.6928    0.7029    0.1459 C   0  0  0  0  0  0  0  0  0  0  0  0
   -7.9587    1.2248   -0.0152 O   0  0  0  0  0  0  0  0  0  0  0  0
   -8.6774    1.0056   -1.2146 C   0  0  0  0  0  0  0  0  0  0  0  0
   -2.8501   -1.0335    0.7024 C   0  0  0  0  0  0  0  0  0  0  0  0
   -2.9501   -2.2259    1.2476 O   0  0  0  0  0  0  0  0  0  0  0  0
   -1.4985   -0.6444    0.4451 N   0  0  0  0  0  0  0  0  0  0  0  0
   -1.0846    0.5922   -0.1383 C   0  0  0  0  0  0  0  0  0  0  0  0
    0.3886    0.8194   -0.3442 C   0  0  0  0  0  0  0  0  0  0  0  0
    1.1240   -0.4498   -0.3772 C   0  0  0  0  0  0  0  0  0  0  0  0
    0.8087   -1.0881    0.9936 C   0  0  0  0  0  0  0  0  0  0  0  0
   -0.5264   -1.7011    0.8513 C   0  0  0  0  0  0  0  0  0  0  0  0
    2.5242   -0.3847   -0.6327 N   0  0  0  0  0  0  0  0  0  0  0  0
    3.2808   -1.4686   -0.8559 C   0  0  0  0  0  0  0  0  0  0  0  0
    3.0246   -2.8344   -0.9199 C   0  0  0  0  0  0  0  0  0  0  0  0
    4.0700   -3.6866   -1.1879 C   0  0  0  0  0  0  0  0  0  0  0  0
    5.3654   -3.2671   -1.3986 C   0  0  0  0  0  0  0  0  0  0  0  0
    5.6024   -1.9154   -1.3323 C   0  0  0  0  0  0  0  0  0  0  0  0
    4.5726   -1.0289   -1.0638 C   0  0  0  0  0  0  0  0  0  0  0  0
    4.5427    0.3257   -0.9545 N   0  0  0  0  0  0  0  0  0  0  0  0
    5.6411    1.2408   -1.0879 C   0  0  0  0  0  0  0  0  0  0  0  0
    6.2811    1.4904    0.2038 C   0  0  0  0  0  0  0  0  0  0  0  0
    7.3285    0.7023    0.6398 C   0  0  0  0  0  0  0  0  0  0  0  0
    7.9152    0.9651    1.8625 C   0  0  0  0  0  0  0  0  0  0  0  0
    7.4827    1.9973    2.6628 C   0  0  0  0  0  0  0  0  0  0  0  0
    6.4461    2.7658    2.2143 C   0  0  0  0  0  0  0  0  0  0  0  0
    5.8305    2.5357    0.9949 C   0  0  0  0  0  0  0  0  0  0  0  0
    3.2739    0.7168   -0.6890 C   0  0  0  0  0  0  0  0  0  0  0  0
    2.9059    1.9143   -0.5319 O   0  0  0  0  0  0  0  0  0  0  0  0
   -8.5073   -2.9969    1.7364 H   0  0  0  0  0  0  0  0  0  0  0  0
   -6.9544   -2.5421    2.6232 H   0  0  0  0  0  0  0  0  0  0  0  0
   -6.9301   -3.2671    0.9479 H   0  0  0  0  0  0  0  0  0  0  0  0
   -5.1977   -2.0846    1.2907 H   0  0  0  0  0  0  0  0  0  0  0  0
   -3.5222    1.4729   -0.3645 H   0  0  0  0  0  0  0  0  0  0  0  0
   -4.0234    2.8633   -1.9848 H   0  0  0  0  0  0  0  0  0  0  0  0
   -3.8945    3.5778   -0.2787 H   0  0  0  0  0  0  0  0  0  0  0  0
   -4.9089    4.3860   -1.5246 H   0  0  0  0  0  0  0  0  0  0  0  0
   -8.0840    0.4608   -1.9708 H   0  0  0  0  0  0  0  0  0  0  0  0
   -8.9551    2.0099   -1.5987 H   0  0  0  0  0  0  0  0  0  0  0  0
   -9.6232    0.5005   -0.9381 H   0  0  0  0  0  0  0  0  0  0  0  0
   -1.6190    0.6591   -1.1360 H   0  0  0  0  0  0  0  0  0  0  0  0
   -1.5094    1.4035    0.5087 H   0  0  0  0  0  0  0  0  0  0  0  0
    0.7332    1.4537    0.5297 H   0  0  0  0  0  0  0  0  0  0  0  0
    0.4814    1.4532   -1.2481 H   0  0  0  0  0  0  0  0  0  0  0  0
    0.6734   -1.1182   -1.1628 H   0  0  0  0  0  0  0  0  0  0  0  0
    1.6070   -1.7455    1.3197 H   0  0  0  0  0  0  0  0  0  0  0  0
    0.7308   -0.2819    1.7739 H   0  0  0  0  0  0  0  0  0  0  0  0
   -0.5700   -2.5419    0.1239 H   0  0  0  0  0  0  0  0  0  0  0  0
   -0.9174   -2.0882    1.8380 H   0  0  0  0  0  0  0  0  0  0  0  0
    1.9977   -3.1923   -0.7545 H   0  0  0  0  0  0  0  0  0  0  0  0
    3.8949   -4.7569   -1.2432 H   0  0  0  0  0  0  0  0  0  0  0  0
    6.1798   -3.9443   -1.6090 H   0  0  0  0  0  0  0  0  0  0  0  0
    6.6011   -1.5406   -1.4957 H   0  0  0  0  0  0  0  0  0  0  0  0
    5.2963    2.2042   -1.5478 H   0  0  0  0  0  0  0  0  0  0  0  0
    6.4051    0.8529   -1.8248 H   0  0  0  0  0  0  0  0  0  0  0  0
    7.7013   -0.1118    0.0292 H   0  0  0  0  0  0  0  0  0  0  0  0
    8.7244    0.3359    2.1693 H   0  0  0  0  0  0  0  0  0  0  0  0
    7.9930    2.1408    3.6075 H   0  0  0  0  0  0  0  0  0  0  0  0
    6.1185    3.5787    2.8628 H   0  0  0  0  0  0  0  0  0  0  0  0
    5.0385    3.2077    0.7444 H   0  0  0  0  0  0  0  0  0  0  0  0
  1  2  1  0
  2  3  1  0
  3  4  2  0
  4  5  1  0
  5  6  2  0
  6  7  1  0
  7  8  1  0
  8  9  1  0
  7 10  2  0
 10 11  1  0
 11 12  1  0
  5 13  1  0
 13 14  2  0
 13 15  1  0
 15 16  1  0
 16 17  1  0
 17 18  1  0
 18 19  1  0
 19 20  1  0
 18 21  1  0
 21 22  1  0
 22 23  2  0
 23 24  1  0
 24 25  2  0
 25 26  1  0
 26 27  2  0
 27 28  1  0
 28 29  1  0
 29 30  1  0
 30 31  2  0
 31 32  1  0
 32 33  2  0
 33 34  1  0
 34 35  2  0
 28 36  1  0
 36 37  2  0
 10  3  1  0
 20 15  1  0
 36 21  1  0
 27 22  1  0
 35 30  1  0
  1 38  1  0
  1 39  1  0
  1 40  1  0
  4 41  1  0
  6 42  1  0
  9 43  1  0
  9 44  1  0
  9 45  1  0
 12 46  1  0
 12 47  1  0
 12 48  1  0
 16 49  1  0
 16 50  1  0
 17 51  1  0
 17 52  1  0
 18 53  1  0
 19 54  1  0
 19 55  1  0
 20 56  1  0
 20 57  1  0
 23 58  1  0
 24 59  1  0
 25 60  1  0
 26 61  1  0
 29 62  1  0
 29 63  1  0
 31 64  1  0
 32 65  1  0
 33 66  1  0
 34 67  1  0
 35 68  1  0
M  END
$$$$
[H]OC(=O)[C@@]([H])(N([H])C(=O)[C@@]([H])(N([H])C(=O)[C@@]([H])(N([H])C(=O)C([H])([H])N([H])C(=O)[C@@]1([H])N(C(=O)[C@@]([H])(N([H])[H])C([H])([H])c2c([H])n([H])c3c([H])c([H])c([H])c([H])c23)C([H])([H])C([H])([H])C1([H])[H])C([H])([H])c1c([H])n([H])c2c([H])c([H])c([H])c([H])c12)C([H])([H])C([H])(C([H])([H])[H])C([H])([H])[H])C([H])([H])c1c([H])c([H])c([H])c([H])c1[H]
     RDKit          3D

111116  0  0  0  0  0  0  0  0999 V2000
   -2.4356    3.5887    1.6372 C   0  0  0  0  0  0  0  0  0  0  0  0
   -3.0298    3.3618    0.2602 C   0  0  0  0  0  0  0  0  0  0  0  0
   -3.5090    4.7161   -0.2725 C   0  0  0  0  0  0  0  0  0  0  0  0
   -4.2317    2.4743    0.3057 C   0  0  0  0  0  0  0  0  0  0  0  0
   -3.9818    1.0580    0.7967 C   0  0  2  0  0  0  0  0  0  0  0  0
   -3.1140    0.2911   -0.0310 N   0  0  0  0  0  0  0  0  0  0  0  0
   -1.7561    0.0117    0.0314 C   0  0  0  0  0  0  0  0  0  0  0  0
   -1.0093    0.4696    0.9104 O   0  0  0  0  0  0  0  0  0  0  0  0
   -1.1193   -0.8753   -0.9761 C   0  0  2  0  0  0  0  0  0  0  0  0
   -0.8959   -2.1818   -0.1885 C   0  0  0  0  0  0  0  0  0  0  0  0
   -0.2268   -3.2289   -0.9785 C   0  0  0  0  0  0  0  0  0  0  0  0
    1.1293   -3.5427   -0.8180 C   0  0  0  0  0  0  0  0  0  0  0  0
    1.4623   -4.5290   -1.6621 N   0  0  0  0  0  0  0  0  0  0  0  0
    0.3820   -4.8880   -2.3793 C   0  0  0  0  0  0  0  0  0  0  0  0
    0.1863   -5.8354   -3.3546 C   0  0  0  0  0  0  0  0  0  0  0  0
   -1.0580   -5.9809   -3.9103 C   0  0  0  0  0  0  0  0  0  0  0  0
   -2.0822   -5.1806   -3.4840 C   0  0  0  0  0  0  0  0  0  0  0  0
   -1.9129   -4.2220   -2.5062 C   0  0  0  0  0  0  0  0  0  0  0  0
   -0.6790   -4.0768   -1.9551 C   0  0  0  0  0  0  0  0  0  0  0  0
    0.1485   -0.3876   -1.4551 N   0  0  0  0  0  0  0  0  0  0  0  0
    0.4405   -0.3945   -2.8309 C   0  0  0  0  0  0  0  0  0  0  0  0
   -0.4935   -0.8492   -3.6044 O   0  0  0  0  0  0  0  0  0  0  0  0
    1.6356    0.0282   -3.5137 C   0  0  0  0  0  0  0  0  0  0  0  0
    2.7058    0.5730   -2.7025 N   0  0  0  0  0  0  0  0  0  0  0  0
    3.8685    0.9511   -3.4002 C   0  0  0  0  0  0  0  0  0  0  0  0
    3.8044    0.7701   -4.6920 O   0  0  0  0  0  0  0  0  0  0  0  0
    5.0703    1.4975   -2.8634 C   0  0  2  0  0  0  0  0  0  0  0  0
    6.2383    1.4678   -3.8591 C   0  0  0  0  0  0  0  0  0  0  0  0
    7.3426    2.0392   -2.9824 C   0  0  0  0  0  0  0  0  0  0  0  0
    6.8069    2.0338   -1.5551 C   0  0  0  0  0  0  0  0  0  0  0  0
    5.7130    1.0238   -1.6943 N   0  0  0  0  0  0  0  0  0  0  0  0
    5.5689   -0.0389   -0.7979 C   0  0  0  0  0  0  0  0  0  0  0  0
    4.6566   -0.9056   -1.0247 O   0  0  0  0  0  0  0  0  0  0  0  0
    6.3672   -0.2863    0.4282 C   0  0  1  0  0  0  0  0  0  0  0  0
    7.7747   -0.3670    0.2158 N   0  0  0  0  0  0  0  0  0  0  0  0
    6.0251    0.7637    1.4780 C   0  0  0  0  0  0  0  0  0  0  0  0
    6.7765    0.6559    2.7373 C   0  0  0  0  0  0  0  0  0  0  0  0
    6.3269    0.0230    3.9066 C   0  0  0  0  0  0  0  0  0  0  0  0
    7.2767    0.0866    4.8600 N   0  0  0  0  0  0  0  0  0  0  0  0
    8.3531    0.7401    4.3753 C   0  0  0  0  0  0  0  0  0  0  0  0
    9.5673    1.0796    4.9053 C   0  0  0  0  0  0  0  0  0  0  0  0
   10.4881    1.7655    4.1632 C   0  0  0  0  0  0  0  0  0  0  0  0
   10.2086    2.1392    2.8395 C   0  0  0  0  0  0  0  0  0  0  0  0
    8.9725    1.7883    2.3144 C   0  0  0  0  0  0  0  0  0  0  0  0
    8.0524    1.0914    3.0767 C   0  0  0  0  0  0  0  0  0  0  0  0
   -5.3338    0.4163    0.7427 C   0  0  0  0  0  0  0  0  0  0  0  0
   -5.5716   -0.6032    0.0304 O   0  0  0  0  0  0  0  0  0  0  0  0
   -6.4070    0.9741    1.5137 N   0  0  0  0  0  0  0  0  0  0  0  0
   -7.7467    0.3782    1.4127 C   0  0  1  0  0  0  0  0  0  0  0  0
   -8.1441   -0.3402    2.6522 C   0  0  0  0  0  0  0  0  0  0  0  0
   -9.4940   -0.9321    2.5108 C   0  0  0  0  0  0  0  0  0  0  0  0
   -9.6089   -2.1510    1.8445 C   0  0  0  0  0  0  0  0  0  0  0  0
  -10.8235   -2.7804    1.6782 C   0  0  0  0  0  0  0  0  0  0  0  0
  -11.9844   -2.1904    2.1874 C   0  0  0  0  0  0  0  0  0  0  0  0
  -11.8621   -0.9994    2.8389 C   0  0  0  0  0  0  0  0  0  0  0  0
  -10.6484   -0.3827    2.9986 C   0  0  0  0  0  0  0  0  0  0  0  0
   -8.6500    1.4506    1.0452 C   0  0  0  0  0  0  0  0  0  0  0  0
   -9.9630    1.2534    0.6461 O   0  0  0  0  0  0  0  0  0  0  0  0
   -8.2236    2.6603    1.0790 O   0  0  0  0  0  0  0  0  0  0  0  0
   -2.3028    2.6707    2.2042 H   0  0  0  0  0  0  0  0  0  0  0  0
   -3.0893    4.3343    2.1770 H   0  0  0  0  0  0  0  0  0  0  0  0
   -1.4765    4.1398    1.4689 H   0  0  0  0  0  0  0  0  0  0  0  0
   -2.2268    2.9382   -0.3945 H   0  0  0  0  0  0  0  0  0  0  0  0
   -3.4132    4.6803   -1.3822 H   0  0  0  0  0  0  0  0  0  0  0  0
   -2.8542    5.4876    0.1653 H   0  0  0  0  0  0  0  0  0  0  0  0
   -4.5535    4.8571    0.0303 H   0  0  0  0  0  0  0  0  0  0  0  0
   -4.7592    2.4163   -0.6719 H   0  0  0  0  0  0  0  0  0  0  0  0
   -4.9534    2.9475    1.0327 H   0  0  0  0  0  0  0  0  0  0  0  0
   -3.5425    1.1096    1.8092 H   0  0  0  0  0  0  0  0  0  0  0  0
   -3.6143   -0.1669   -0.8895 H   0  0  0  0  0  0  0  0  0  0  0  0
   -1.7798   -1.0563   -1.8292 H   0  0  0  0  0  0  0  0  0  0  0  0
   -1.8936   -2.4652    0.1784 H   0  0  0  0  0  0  0  0  0  0  0  0
   -0.2901   -1.8614    0.6877 H   0  0  0  0  0  0  0  0  0  0  0  0
    1.8098   -3.0760   -0.1356 H   0  0  0  0  0  0  0  0  0  0  0  0
    2.4171   -4.9788   -1.7793 H   0  0  0  0  0  0  0  0  0  0  0  0
    0.9858   -6.4714   -3.6957 H   0  0  0  0  0  0  0  0  0  0  0  0
   -1.2504   -6.7375   -4.6877 H   0  0  0  0  0  0  0  0  0  0  0  0
   -3.0664   -5.3078   -3.9302 H   0  0  0  0  0  0  0  0  0  0  0  0
   -2.7387   -3.6024   -2.1873 H   0  0  0  0  0  0  0  0  0  0  0  0
    0.8452   -0.0297   -0.7833 H   0  0  0  0  0  0  0  0  0  0  0  0
    1.4605    0.6817   -4.4114 H   0  0  0  0  0  0  0  0  0  0  0  0
    2.0904   -0.9124   -3.9726 H   0  0  0  0  0  0  0  0  0  0  0  0
    2.5367    0.6718   -1.7026 H   0  0  0  0  0  0  0  0  0  0  0  0
    4.9007    2.6141   -2.6727 H   0  0  0  0  0  0  0  0  0  0  0  0
    6.0208    2.0669   -4.7429 H   0  0  0  0  0  0  0  0  0  0  0  0
    6.4247    0.3934   -4.0877 H   0  0  0  0  0  0  0  0  0  0  0  0
    7.5644    3.0902   -3.3187 H   0  0  0  0  0  0  0  0  0  0  0  0
    8.2499    1.4260   -3.0160 H   0  0  0  0  0  0  0  0  0  0  0  0
    7.5490    1.7819   -0.8271 H   0  0  0  0  0  0  0  0  0  0  0  0
    6.2758    2.9945   -1.3483 H   0  0  0  0  0  0  0  0  0  0  0  0
    6.0465   -1.2658    0.8652 H   0  0  0  0  0  0  0  0  0  0  0  0
    8.0563   -0.5720   -0.7581 H   0  0  0  0  0  0  0  0  0  0  0  0
    8.2560   -1.0578    0.8352 H   0  0  0  0  0  0  0  0  0  0  0  0
    6.2084    1.7767    1.0742 H   0  0  0  0  0  0  0  0  0  0  0  0
    4.9174    0.6327    1.6617 H   0  0  0  0  0  0  0  0  0  0  0  0
    5.3755   -0.4585    4.0646 H   0  0  0  0  0  0  0  0  0  0  0  0
    7.2345   -0.2997    5.8481 H   0  0  0  0  0  0  0  0  0  0  0  0
    9.8227    0.8092    5.9332 H   0  0  0  0  0  0  0  0  0  0  0  0
   11.4799    2.0464    4.5547 H   0  0  0  0  0  0  0  0  0  0  0  0
   10.9598    2.6718    2.3077 H   0  0  0  0  0  0  0  0  0  0  0  0
    8.7981    2.1168    1.2964 H   0  0  0  0  0  0  0  0  0  0  0  0
   -6.2289    1.7852    2.1258 H   0  0  0  0  0  0  0  0  0  0  0  0
   -7.7098   -0.3867    0.5845 H   0  0  0  0  0  0  0  0  0  0  0  0
   -7.4543   -1.1836    2.8721 H   0  0  0  0  0  0  0  0  0  0  0  0
   -8.1762    0.3707    3.5350 H   0  0  0  0  0  0  0  0  0  0  0  0
   -8.7267   -2.6100    1.4538 H   0  0  0  0  0  0  0  0  0  0  0  0
  -10.9268   -3.7168    1.1696 H   0  0  0  0  0  0  0  0  0  0  0  0
  -12.9160   -2.7198    2.0314 H   0  0  0  0  0  0  0  0  0  0  0  0
  -12.7568   -0.5148    3.2487 H   0  0  0  0  0  0  0  0  0  0  0  0
  -10.5574    0.5795    3.5202 H   0  0  0  0  0  0  0  0  0  0  0  0
  -10.3816    1.8887   -0.0650 H   0  0  0  0  0  0  0  0  0  0  0  0
  1  2  1  0
  2  3  1  0
  2  4  1  0
  4  5  1  0
  5  6  1  0
  6  7  1  0
  7  8  2  0
  7  9  1  0
  9 10  1  0
 10 11  1  0
 11 12  2  0
 12 13  1  0
 13 14  1  0
 14 15  2  0
 15 16  1  0
 16 17  2  0
 17 18  1  0
 18 19  2  0
  9 20  1  0
 20 21  1  0
 21 22  2  0
 21 23  1  0
 23 24  1  0
 24 25  1  0
 25 26  2  0
 25 27  1  0
 27 28  1  0
 28 29  1  0
 29 30  1  0
 30 31  1  0
 31 32  1  0
 32 33  2  0
 32 34  1  0
 34 35  1  0
 34 36  1  0
 36 37  1  0
 37 38  2  0
 38 39  1  0
 39 40  1  0
 40 41  2  0
 41 42  1  0
 42 43  2  0
 43 44  1  0
 44 45  2  0
  5 46  1  0
 46 47  2  0
 46 48  1  0
 48 49  1  0
 49 50  1  0
 50 51  1  0
 51 52  2  0
 52 53  1  0
 53 54  2  0
 54 55  1  0
 55 56  2  0
 49 57  1  0
 57 58  1  0
 57 59  2  0
 19 11  1  0
 31 27  1  0
 45 37  1  0
 56 51  1  0
 19 14  1  0
 45 40  1  0
  1 60  1  0
  1 61  1  0
  1 62  1  0
  2 63  1  0
  3 64  1  0
  3 65  1  0
  3 66  1  0
  4 67  1  0
  4 68  1  0
  5 69  1  1
  6 70  1  0
  9 71  1  6
 10 72  1  0
 10 73  1  0
 12 74  1  0
 13 75  1  0
 15 76  1  0
 16 77  1  0
 17 78  1  0
 18 79  1  0
 20 80  1  0
 23 81  1  0
 23 82  1  0
 24 83  1  0
 27 84  1  1
 28 85  1  0
 28 86  1  0
 29 87  1  0
 29 88  1  0
 30 89  1  0
 30 90  1  0
 34 91  1  1
 35 92  1  0
 35 93  1  0
 36 94  1  0
 36 95  1  0
 38 96  1  0
 39 97  1  0
 41 98  1  0
 42 99  1  0
 43100  1  0
 44101  1  0
 48102  1  0
 49103  1  6
 50104  1  0
 50105  1  0
 52106  1  0
 53107  1  0
 54108  1  0
 55109  1  0
 56110  1  0
 58111  1  0
M  END
$$$$
[H]c1c([H])c([H])c(C([H])([H])[C@@]([H])(C(=O)N([H])C([H])([H])c2c([H])c([H])c([H])c([H])c2Cl)N([H])C(=O)[C@@]([H])(N([H])C(=O)[C@]2([H])OC(=O)[C@@]2([H])[C@@]([H])(C([H])([H])[H])C([H])([H])C([H])([H])[H])C([H])(C([H])([H])[H])C([H])([H])[H])c([H])c1[H]
     RDKit          3D

 74 76  0  0  0  0  0  0  0  0999 V2000
    7.8849   -1.2822    2.6250 C   0  0  0  0  0  0  0  0  0  0  0  0
    7.1887   -0.6138    1.4612 C   0  0  0  0  0  0  0  0  0  0  0  0
    6.2090   -1.5503    0.7890 C   0  0  2  0  0  0  0  0  0  0  0  0
    6.9245   -2.7732    0.2618 C   0  0  0  0  0  0  0  0  0  0  0  0
    5.5138   -0.8827   -0.3767 C   0  0  1  0  0  0  0  0  0  0  0  0
    4.7188    0.3470   -0.0091 C   0  0  1  0  0  0  0  0  0  0  0  0
    5.8512    1.0850   -0.4327 O   0  0  0  0  0  0  0  0  0  0  0  0
    6.3420    0.0236   -1.1689 C   0  0  0  0  0  0  0  0  0  0  0  0
    7.1503   -0.0851   -2.1078 O   0  0  0  0  0  0  0  0  0  0  0  0
    3.5073    0.5665   -0.8271 C   0  0  0  0  0  0  0  0  0  0  0  0
    3.5830    1.3662   -1.7886 O   0  0  0  0  0  0  0  0  0  0  0  0
    2.2682   -0.0765   -0.5834 N   0  0  0  0  0  0  0  0  0  0  0  0
    1.0925    0.1571   -1.3974 C   0  0  1  0  0  0  0  0  0  0  0  0
    0.7316   -1.0869   -2.1413 C   0  0  0  0  0  0  0  0  0  0  0  0
    0.4216   -2.2692   -1.2683 C   0  0  0  0  0  0  0  0  0  0  0  0
    1.9412   -1.4720   -2.9968 C   0  0  0  0  0  0  0  0  0  0  0  0
   -0.0085    0.7572   -0.6358 C   0  0  0  0  0  0  0  0  0  0  0  0
    0.1948    0.9701    0.5922 O   0  0  0  0  0  0  0  0  0  0  0  0
   -1.2583    1.1121   -1.1526 N   0  0  0  0  0  0  0  0  0  0  0  0
   -2.3145    1.7139   -0.3065 C   0  0  1  0  0  0  0  0  0  0  0  0
   -2.5315    3.1215   -0.8248 C   0  0  0  0  0  0  0  0  0  0  0  0
   -3.5703    3.8234   -0.0670 C   0  0  0  0  0  0  0  0  0  0  0  0
   -3.3073    4.4896    1.1118 C   0  0  0  0  0  0  0  0  0  0  0  0
   -4.2404    5.1867    1.8311 C   0  0  0  0  0  0  0  0  0  0  0  0
   -5.5211    5.2086    1.3213 C   0  0  0  0  0  0  0  0  0  0  0  0
   -5.8174    4.5550    0.1485 C   0  0  0  0  0  0  0  0  0  0  0  0
   -4.8629    3.8630   -0.5533 C   0  0  0  0  0  0  0  0  0  0  0  0
   -3.4852    0.8352   -0.4100 C   0  0  0  0  0  0  0  0  0  0  0  0
   -3.5894    0.0176   -1.3685 O   0  0  0  0  0  0  0  0  0  0  0  0
   -4.5104    0.8776    0.5516 N   0  0  0  0  0  0  0  0  0  0  0  0
   -5.6596    0.0140    0.4494 C   0  0  0  0  0  0  0  0  0  0  0  0
   -5.3856   -1.4204    0.6197 C   0  0  0  0  0  0  0  0  0  0  0  0
   -4.1697   -1.9720    0.9361 C   0  0  0  0  0  0  0  0  0  0  0  0
   -4.0119   -3.3516    1.1034 C   0  0  0  0  0  0  0  0  0  0  0  0
   -5.0573   -4.2264    0.9625 C   0  0  0  0  0  0  0  0  0  0  0  0
   -6.2803   -3.6911    0.6470 C   0  0  0  0  0  0  0  0  0  0  0  0
   -6.4397   -2.3382    0.4814 C   0  0  0  0  0  0  0  0  0  0  0  0
   -8.0222   -1.6825    0.0768 Cl  0  0  0  0  0  0  0  0  0  0  0  0
    8.3211   -0.4907    3.2728 H   0  0  0  0  0  0  0  0  0  0  0  0
    7.1728   -1.8570    3.2743 H   0  0  0  0  0  0  0  0  0  0  0  0
    8.7359   -1.9255    2.3012 H   0  0  0  0  0  0  0  0  0  0  0  0
    7.9446   -0.2172    0.7854 H   0  0  0  0  0  0  0  0  0  0  0  0
    6.5983    0.2374    1.8950 H   0  0  0  0  0  0  0  0  0  0  0  0
    5.4536   -1.8742    1.5058 H   0  0  0  0  0  0  0  0  0  0  0  0
    7.6918   -3.1450    0.9749 H   0  0  0  0  0  0  0  0  0  0  0  0
    6.1428   -3.5759    0.1458 H   0  0  0  0  0  0  0  0  0  0  0  0
    7.3930   -2.6144   -0.7263 H   0  0  0  0  0  0  0  0  0  0  0  0
    4.9273   -1.6051   -0.9448 H   0  0  0  0  0  0  0  0  0  0  0  0
    4.5011    0.4720    1.0675 H   0  0  0  0  0  0  0  0  0  0  0  0
    2.1974   -0.7414    0.2083 H   0  0  0  0  0  0  0  0  0  0  0  0
    1.3947    0.9063   -2.1806 H   0  0  0  0  0  0  0  0  0  0  0  0
   -0.0928   -0.8896   -2.8770 H   0  0  0  0  0  0  0  0  0  0  0  0
    1.3248   -2.8673   -0.9980 H   0  0  0  0  0  0  0  0  0  0  0  0
   -0.2120   -2.9699   -1.8838 H   0  0  0  0  0  0  0  0  0  0  0  0
   -0.1079   -2.0367   -0.3442 H   0  0  0  0  0  0  0  0  0  0  0  0
    2.1347   -0.7502   -3.7899 H   0  0  0  0  0  0  0  0  0  0  0  0
    1.7937   -2.5139   -3.3882 H   0  0  0  0  0  0  0  0  0  0  0  0
    2.7950   -1.5589   -2.2852 H   0  0  0  0  0  0  0  0  0  0  0  0
   -1.4871    0.9660   -2.1421 H   0  0  0  0  0  0  0  0  0  0  0  0
   -2.0158    1.8061    0.7369 H   0  0  0  0  0  0  0  0  0  0  0  0
   -1.5609    3.6591   -0.6130 H   0  0  0  0  0  0  0  0  0  0  0  0
   -2.7241    3.1024   -1.9219 H   0  0  0  0  0  0  0  0  0  0  0  0
   -2.2912    4.4764    1.5235 H   0  0  0  0  0  0  0  0  0  0  0  0
   -3.9686    5.6916    2.7544 H   0  0  0  0  0  0  0  0  0  0  0  0
   -6.2901    5.7546    1.8702 H   0  0  0  0  0  0  0  0  0  0  0  0
   -6.8500    4.5838   -0.2442 H   0  0  0  0  0  0  0  0  0  0  0  0
   -5.1214    3.3454   -1.4930 H   0  0  0  0  0  0  0  0  0  0  0  0
   -4.4025    1.5519    1.3661 H   0  0  0  0  0  0  0  0  0  0  0  0
   -6.0527    0.1388   -0.5891 H   0  0  0  0  0  0  0  0  0  0  0  0
   -6.4557    0.3178    1.1918 H   0  0  0  0  0  0  0  0  0  0  0  0
   -3.3189   -1.3289    1.0778 H   0  0  0  0  0  0  0  0  0  0  0  0
   -3.0178   -3.7174    1.3524 H   0  0  0  0  0  0  0  0  0  0  0  0
   -4.8973   -5.2780    1.0992 H   0  0  0  0  0  0  0  0  0  0  0  0
   -7.1353   -4.3689    0.5284 H   0  0  0  0  0  0  0  0  0  0  0  0
  1  2  1  0
  2  3  1  0
  3  4  1  0
  3  5  1  0
  5  6  1  0
  6  7  1  0
  7  8  1  0
  8  9  2  0
  6 10  1  0
 10 11  2  0
 10 12  1  0
 12 13  1  0
 13 14  1  0
 14 15  1  0
 14 16  1  0
 13 17  1  0
 17 18  2  0
 17 19  1  0
 19 20  1  0
 20 21  1  0
 21 22  1  0
 22 23  2  0
 23 24  1  0
 24 25  2  0
 25 26  1  0
 26 27  2  0
 20 28  1  0
 28 29  2  0
 28 30  1  0
 30 31  1  0
 31 32  1  0
 32 33  2  0
 33 34  1  0
 34 35  2  0
 35 36  1  0
 36 37  2  0
 37 38  1  0
  8  5  1  0
 27 22  1  0
 37 32  1  0
  1 39  1  0
  1 40  1  0
  1 41  1  0
  2 42  1  0
  2 43  1  0
  3 44  1  1
  4 45  1  0
  4 46  1  0
  4 47  1  0
  5 48  1  6
  6 49  1  1
 12 50  1  0
 13 51  1  6
 14 52  1  0
 15 53  1  0
 15 54  1  0
 15 55  1  0
 16 56  1  0
 16 57  1  0
 16 58  1  0
 19 59  1  0
 20 60  1  1
 21 61  1  0
 21 62  1  0
 23 63  1  0
 24 64  1  0
 25 65  1  0
 26 66  1  0
 27 67  1  0
 30 68  1  0
 31 69  1  0
 31 70  1  0
 33 71  1  0
 34 72  1  0
 35 73  1  0
 36 74  1  0
M  END
$$$$
[H]c1c([H])c([H])c(/C(=C2/C(=O)N([H])c3c([H])c(C(=O)OC([H])([H])[H])c([H])c([H])c32)N([H])c2c([H])c([H])c(N(C(=O)C([H])([H])N3C([H])([H])C([H])([H])N(C([H])([H])[H])C([H])([H])C3([H])[H])C([H])([H])[H])c([H])c2[H])c([H])c1[H]
     RDKit          3D

 73 77  0  0  0  0  0  0  0  0999 V2000
   -9.6259    2.7362   -3.1505 C   0  0  0  0  0  0  0  0  0  0  0  0
   -8.5822    2.1423   -2.4234 O   0  0  0  0  0  0  0  0  0  0  0  0
   -7.8814    1.0256   -2.8716 C   0  0  0  0  0  0  0  0  0  0  0  0
   -8.1814    0.5157   -3.9683 O   0  0  0  0  0  0  0  0  0  0  0  0
   -6.8215    0.5153   -2.0123 C   0  0  0  0  0  0  0  0  0  0  0  0
   -6.4947    1.0717   -0.8140 C   0  0  0  0  0  0  0  0  0  0  0  0
   -5.4728    0.5613   -0.0049 C   0  0  0  0  0  0  0  0  0  0  0  0
   -4.7972   -0.5386   -0.4611 C   0  0  0  0  0  0  0  0  0  0  0  0
   -3.6924   -1.2784    0.1218 C   0  0  0  0  0  0  0  0  0  0  0  0
   -3.1406   -1.1461    1.2984 C   0  0  0  0  0  0  0  0  0  0  0  0
   -2.0489   -2.0001    1.6122 N   0  0  0  0  0  0  0  0  0  0  0  0
   -0.6955   -1.7404    1.2757 C   0  0  0  0  0  0  0  0  0  0  0  0
   -0.3049   -0.6232    0.5755 C   0  0  0  0  0  0  0  0  0  0  0  0
    1.0409   -0.3967    0.2619 C   0  0  0  0  0  0  0  0  0  0  0  0
    1.9996   -1.2983    0.6546 C   0  0  0  0  0  0  0  0  0  0  0  0
    1.6109   -2.4148    1.3542 C   0  0  0  0  0  0  0  0  0  0  0  0
    0.2717   -2.6400    1.6660 C   0  0  0  0  0  0  0  0  0  0  0  0
    3.3997   -1.0553    0.3267 N   0  0  0  0  0  0  0  0  0  0  0  0
    4.2743   -1.0443    1.4779 C   0  0  0  0  0  0  0  0  0  0  0  0
    3.8217   -0.9048   -0.9850 C   0  0  0  0  0  0  0  0  0  0  0  0
    2.8737   -1.1517   -1.8665 O   0  0  0  0  0  0  0  0  0  0  0  0
    5.0990   -0.5334   -1.5790 C   0  0  0  0  0  0  0  0  0  0  0  0
    6.1819   -0.1535   -0.7808 N   0  0  0  0  0  0  0  0  0  0  0  0
    6.1479    1.1188   -0.1443 C   0  0  0  0  0  0  0  0  0  0  0  0
    7.0593    2.1225   -0.8152 C   0  0  0  0  0  0  0  0  0  0  0  0
    8.4000    1.6684   -0.9414 N   0  0  0  0  0  0  0  0  0  0  0  0
    9.2089    2.3796   -1.8600 C   0  0  0  0  0  0  0  0  0  0  0  0
    8.6125    0.2731   -0.8355 C   0  0  0  0  0  0  0  0  0  0  0  0
    7.4754   -0.6243   -1.1164 C   0  0  0  0  0  0  0  0  0  0  0  0
   -3.6419   -0.3131    2.3473 C   0  0  0  0  0  0  0  0  0  0  0  0
   -3.0180    0.7830    2.8957 C   0  0  0  0  0  0  0  0  0  0  0  0
   -3.5184    1.4571    3.9801 C   0  0  0  0  0  0  0  0  0  0  0  0
   -4.6869    1.0413    4.5595 C   0  0  0  0  0  0  0  0  0  0  0  0
   -5.3502   -0.0483    4.0505 C   0  0  0  0  0  0  0  0  0  0  0  0
   -4.8397   -0.7104    2.9694 C   0  0  0  0  0  0  0  0  0  0  0  0
   -3.3759   -2.3505   -0.8690 C   0  0  0  0  0  0  0  0  0  0  0  0
   -2.4929   -3.2072   -0.7677 O   0  0  0  0  0  0  0  0  0  0  0  0
   -4.2699   -2.2220   -1.9626 N   0  0  0  0  0  0  0  0  0  0  0  0
   -5.1182   -1.1186   -1.6868 C   0  0  0  0  0  0  0  0  0  0  0  0
   -6.1305   -0.5894   -2.4585 C   0  0  0  0  0  0  0  0  0  0  0  0
   -9.4840    3.8397   -3.1260 H   0  0  0  0  0  0  0  0  0  0  0  0
  -10.6287    2.4400   -2.7994 H   0  0  0  0  0  0  0  0  0  0  0  0
   -9.5092    2.4513   -4.2231 H   0  0  0  0  0  0  0  0  0  0  0  0
   -7.0554    1.9338   -0.4979 H   0  0  0  0  0  0  0  0  0  0  0  0
   -5.2980    1.1170    0.8877 H   0  0  0  0  0  0  0  0  0  0  0  0
   -2.3225   -2.8839    2.1371 H   0  0  0  0  0  0  0  0  0  0  0  0
   -1.0852    0.0650    0.2820 H   0  0  0  0  0  0  0  0  0  0  0  0
    1.2956    0.4918   -0.2875 H   0  0  0  0  0  0  0  0  0  0  0  0
    2.3988   -3.1019    1.6458 H   0  0  0  0  0  0  0  0  0  0  0  0
   -0.0090   -3.5256    2.2172 H   0  0  0  0  0  0  0  0  0  0  0  0
    4.3098   -0.0784    2.0033 H   0  0  0  0  0  0  0  0  0  0  0  0
    5.2439   -1.4894    1.2146 H   0  0  0  0  0  0  0  0  0  0  0  0
    3.8678   -1.7578    2.2758 H   0  0  0  0  0  0  0  0  0  0  0  0
    4.9292    0.2743   -2.3603 H   0  0  0  0  0  0  0  0  0  0  0  0
    5.4335   -1.4380   -2.1821 H   0  0  0  0  0  0  0  0  0  0  0  0
    6.5430    1.0192    0.8973 H   0  0  0  0  0  0  0  0  0  0  0  0
    5.1051    1.4958   -0.1442 H   0  0  0  0  0  0  0  0  0  0  0  0
    7.0209    3.0816   -0.2641 H   0  0  0  0  0  0  0  0  0  0  0  0
    6.6418    2.3090   -1.8254 H   0  0  0  0  0  0  0  0  0  0  0  0
    9.5515    1.7468   -2.6801 H   0  0  0  0  0  0  0  0  0  0  0  0
    8.6875    3.2979   -2.1848 H   0  0  0  0  0  0  0  0  0  0  0  0
   10.1414    2.7025   -1.3095 H   0  0  0  0  0  0  0  0  0  0  0  0
    9.4640   -0.0087   -1.5031 H   0  0  0  0  0  0  0  0  0  0  0  0
    8.9967    0.0613    0.2048 H   0  0  0  0  0  0  0  0  0  0  0  0
    7.6214   -1.6038   -0.5691 H   0  0  0  0  0  0  0  0  0  0  0  0
    7.4535   -0.9472   -2.2000 H   0  0  0  0  0  0  0  0  0  0  0  0
   -2.1060    1.1196    2.4536 H   0  0  0  0  0  0  0  0  0  0  0  0
   -3.0267    2.3165    4.4077 H   0  0  0  0  0  0  0  0  0  0  0  0
   -5.1025    1.5578    5.4176 H   0  0  0  0  0  0  0  0  0  0  0  0
   -6.2843   -0.3557    4.5382 H   0  0  0  0  0  0  0  0  0  0  0  0
   -5.4043   -1.5664    2.6063 H   0  0  0  0  0  0  0  0  0  0  0  0
   -4.3057   -2.8330   -2.8311 H   0  0  0  0  0  0  0  0  0  0  0  0
   -6.3795   -1.0398   -3.4080 H   0  0  0  0  0  0  0  0  0  0  0  0
  1  2  1  0
  2  3  1  0
  3  4  2  0
  3  5  1  0
  5  6  2  0
  6  7  1  0
  7  8  2  0
  8  9  1  0
  9 10  2  0
 10 11  1  0
 11 12  1  0
 12 13  2  0
 13 14  1  0
 14 15  2  0
 15 16  1  0
 16 17  2  0
 15 18  1  0
 18 19  1  0
 18 20  1  0
 20 21  2  0
 20 22  1  0
 22 23  1  0
 23 24  1  0
 24 25  1  0
 25 26  1  0
 26 27  1  0
 26 28  1  0
 28 29  1  0
 10 30  1  0
 30 31  2  0
 31 32  1  0
 32 33  2  0
 33 34  1  0
 34 35  2  0
  9 36  1  0
 36 37  2  0
 36 38  1  0
 38 39  1  0
 39 40  2  0
 40  5  1  0
 39  8  1  0
 17 12  1  0
 29 23  1  0
 35 30  1  0
  1 41  1  0
  1 42  1  0
  1 43  1  0
  6 44  1  0
  7 45  1  0
 11 46  1  0
 13 47  1  0
 14 48  1  0
 16 49  1  0
 17 50  1  0
 19 51  1  0
 19 52  1  0
 19 53  1  0
 22 54  1  0
 22 55  1  0
 24 56  1  0
 24 57  1  0
 25 58  1  0
 25 59  1  0
 27 60  1  0
 27 61  1  0
 27 62  1  0
 28 63  1  0
 28 64  1  0
 29 65  1  0
 29 66  1  0
 31 67  1  0
 32 68  1  0
 33 69  1  0
 34 70  1  0
 35 71  1  0
 38 72  1  0
 40 73  1  0
M  END
$$$$
[H]N=C(N([H])[H])N([H])C([H])([H])C([H])([H])C([H])([H])[C@@]([H])(C(=O)N([H])[H])N([H])C(=O)[C@]([H])(N([H])C(=O)[C@@]([H])(N([H])C(=O)[C@]([H])(N([H])C(=O)[C@@]([H])(N([H])C(=O)[C@@]([H])(N([H])C(=O)[C@@]([H])(N([H])C(=O)C([H])(C([H])([H])O[H])C([H])([H])O[H])C([H])([H])O[H])C([H])([H])O[H])C([H])([H])O[H])C([H])([H])O[H])C([H])([H])O[H])C([H])([H])O[H]
     RDKit          3D

106105  0  0  0  0  0  0  0  0999 V2000
   13.2804   -1.7585    3.7374 N   0  0  0  0  0  0  0  0  0  0  0  0
   13.3412   -0.3423    3.7979 C   0  0  0  0  0  0  0  0  0  0  0  0
   13.8306    0.1762    4.8950 N   0  0  0  0  0  0  0  0  0  0  0  0
   12.9093    0.4887    2.7583 N   0  0  0  0  0  0  0  0  0  0  0  0
   12.5352   -0.1133    1.4763 C   0  0  0  0  0  0  0  0  0  0  0  0
   12.0815    0.9096    0.4883 C   0  0  0  0  0  0  0  0  0  0  0  0
   11.7276    0.3823   -0.8583 C   0  0  0  0  0  0  0  0  0  0  0  0
   10.6342   -0.6048   -0.9721 C   0  0  2  0  0  0  0  0  0  0  0  0
    9.3814   -0.0780   -0.4730 N   0  0  0  0  0  0  0  0  0  0  0  0
    8.1870   -0.1124   -1.2478 C   0  0  0  0  0  0  0  0  0  0  0  0
    8.2547   -0.6353   -2.3912 O   0  0  0  0  0  0  0  0  0  0  0  0
    6.8965    0.4108   -0.8183 C   0  0  1  0  0  0  0  0  0  0  0  0
    7.0968    1.9398   -0.6537 C   0  0  0  0  0  0  0  0  0  0  0  0
    7.4205    2.4977   -1.9024 O   0  0  0  0  0  0  0  0  0  0  0  0
    5.8356    0.1646   -1.7533 N   0  0  0  0  0  0  0  0  0  0  0  0
    4.4772   -0.0822   -1.4138 C   0  0  0  0  0  0  0  0  0  0  0  0
    4.1877   -0.0591   -0.1980 O   0  0  0  0  0  0  0  0  0  0  0  0
    3.4109   -0.3578   -2.3942 C   0  0  2  0  0  0  0  0  0  0  0  0
    3.8539   -0.2280   -3.8166 C   0  0  0  0  0  0  0  0  0  0  0  0
    4.0379    1.0705   -4.2319 O   0  0  0  0  0  0  0  0  0  0  0  0
    2.1553    0.2870   -2.1295 N   0  0  0  0  0  0  0  0  0  0  0  0
    0.9387   -0.3448   -1.7866 C   0  0  0  0  0  0  0  0  0  0  0  0
    0.8798   -1.6231   -1.6567 O   0  0  0  0  0  0  0  0  0  0  0  0
   -0.2962    0.4042   -1.5698 C   0  0  1  0  0  0  0  0  0  0  0  0
   -0.7873    1.0281   -2.9034 C   0  0  0  0  0  0  0  0  0  0  0  0
    0.1716    1.9089   -3.3235 O   0  0  0  0  0  0  0  0  0  0  0  0
   -1.3489   -0.5246   -1.1366 N   0  0  0  0  0  0  0  0  0  0  0  0
   -2.4494    0.0527   -0.4224 C   0  0  0  0  0  0  0  0  0  0  0  0
   -2.4659    1.2993   -0.2024 O   0  0  0  0  0  0  0  0  0  0  0  0
   -3.5719   -0.7765    0.0567 C   0  0  2  0  0  0  0  0  0  0  0  0
   -3.8690   -1.8040   -1.0572 C   0  0  0  0  0  0  0  0  0  0  0  0
   -4.0618   -1.1249   -2.2568 O   0  0  0  0  0  0  0  0  0  0  0  0
   -4.7378    0.0686    0.1093 N   0  0  0  0  0  0  0  0  0  0  0  0
   -5.7672    0.0320    1.0704 C   0  0  0  0  0  0  0  0  0  0  0  0
   -5.7124   -0.8048    2.0043 O   0  0  0  0  0  0  0  0  0  0  0  0
   -6.9259    0.9672    0.9974 C   0  0  2  0  0  0  0  0  0  0  0  0
   -6.4185    2.3851    0.9916 C   0  0  0  0  0  0  0  0  0  0  0  0
   -7.4521    3.2636    0.7355 O   0  0  0  0  0  0  0  0  0  0  0  0
   -7.9351    0.7434    1.9878 N   0  0  0  0  0  0  0  0  0  0  0  0
   -9.2330    0.2308    1.5748 C   0  0  0  0  0  0  0  0  0  0  0  0
   -9.4146   -0.0058    0.3661 O   0  0  0  0  0  0  0  0  0  0  0  0
  -10.3338   -0.0146    2.5331 C   0  0  2  0  0  0  0  0  0  0  0  0
   -9.9044   -0.9066    3.6425 C   0  0  0  0  0  0  0  0  0  0  0  0
  -11.0023   -1.0696    4.4963 O   0  0  0  0  0  0  0  0  0  0  0  0
  -11.4627   -0.5412    1.7576 N   0  0  0  0  0  0  0  0  0  0  0  0
  -12.6708    0.1697    1.5762 C   0  0  0  0  0  0  0  0  0  0  0  0
  -12.8041    1.2988    2.0884 O   0  0  0  0  0  0  0  0  0  0  0  0
  -13.7621   -0.4187    0.7867 C   0  0  0  0  0  0  0  0  0  0  0  0
  -14.3377   -1.6352    1.4713 C   0  0  0  0  0  0  0  0  0  0  0  0
  -13.3862   -2.6251    1.6641 O   0  0  0  0  0  0  0  0  0  0  0  0
  -14.8711    0.6339    0.6587 C   0  0  0  0  0  0  0  0  0  0  0  0
  -14.3649    1.7674    0.0235 O   0  0  0  0  0  0  0  0  0  0  0  0
   10.9517   -1.9618   -0.5099 C   0  0  0  0  0  0  0  0  0  0  0  0
   12.1753   -2.5659   -0.8713 N   0  0  0  0  0  0  0  0  0  0  0  0
   10.1705   -2.6652    0.2247 O   0  0  0  0  0  0  0  0  0  0  0  0
   12.8554   -2.3079    4.5072 H   0  0  0  0  0  0  0  0  0  0  0  0
   13.6666   -2.2564    2.9136 H   0  0  0  0  0  0  0  0  0  0  0  0
   14.1631   -0.4021    5.6918 H   0  0  0  0  0  0  0  0  0  0  0  0
   12.8471    1.5032    2.8624 H   0  0  0  0  0  0  0  0  0  0  0  0
   13.4246   -0.6961    1.1517 H   0  0  0  0  0  0  0  0  0  0  0  0
   11.6677   -0.8055    1.7087 H   0  0  0  0  0  0  0  0  0  0  0  0
   11.2150    1.4602    0.9328 H   0  0  0  0  0  0  0  0  0  0  0  0
   12.9061    1.6851    0.4061 H   0  0  0  0  0  0  0  0  0  0  0  0
   11.4140    1.2790   -1.5056 H   0  0  0  0  0  0  0  0  0  0  0  0
   12.6770   -0.0056   -1.3618 H   0  0  0  0  0  0  0  0  0  0  0  0
   10.5060   -0.7478   -2.1255 H   0  0  0  0  0  0  0  0  0  0  0  0
    9.3079    0.3485    0.4755 H   0  0  0  0  0  0  0  0  0  0  0  0
    6.6380    0.0595    0.1901 H   0  0  0  0  0  0  0  0  0  0  0  0
    6.1901    2.4325   -0.2927 H   0  0  0  0  0  0  0  0  0  0  0  0
    7.9174    2.1333    0.0631 H   0  0  0  0  0  0  0  0  0  0  0  0
    7.7804    3.3963   -1.7291 H   0  0  0  0  0  0  0  0  0  0  0  0
    6.0774    0.1738   -2.7808 H   0  0  0  0  0  0  0  0  0  0  0  0
    3.1851   -1.4776   -2.2716 H   0  0  0  0  0  0  0  0  0  0  0  0
    3.1079   -0.7743   -4.4532 H   0  0  0  0  0  0  0  0  0  0  0  0
    4.7890   -0.8082   -3.9540 H   0  0  0  0  0  0  0  0  0  0  0  0
    3.8348    1.1765   -5.1802 H   0  0  0  0  0  0  0  0  0  0  0  0
    2.1888    1.3498   -2.1968 H   0  0  0  0  0  0  0  0  0  0  0  0
   -0.2735    1.2557   -0.8862 H   0  0  0  0  0  0  0  0  0  0  0  0
   -1.0752    0.2551   -3.6164 H   0  0  0  0  0  0  0  0  0  0  0  0
   -1.6762    1.6010   -2.6065 H   0  0  0  0  0  0  0  0  0  0  0  0
    0.3858    1.7306   -4.2915 H   0  0  0  0  0  0  0  0  0  0  0  0
   -1.2598   -1.5322   -1.3577 H   0  0  0  0  0  0  0  0  0  0  0  0
   -3.3858   -1.3173    1.0068 H   0  0  0  0  0  0  0  0  0  0  0  0
   -3.0304   -2.4910   -1.1721 H   0  0  0  0  0  0  0  0  0  0  0  0
   -4.8276   -2.3271   -0.7967 H   0  0  0  0  0  0  0  0  0  0  0  0
   -4.9913   -0.8809   -2.4103 H   0  0  0  0  0  0  0  0  0  0  0  0
   -4.8229    0.7921   -0.6617 H   0  0  0  0  0  0  0  0  0  0  0  0
   -7.3746    0.7751   -0.0144 H   0  0  0  0  0  0  0  0  0  0  0  0
   -5.8565    2.6511    1.9125 H   0  0  0  0  0  0  0  0  0  0  0  0
   -5.7092    2.4792    0.1423 H   0  0  0  0  0  0  0  0  0  0  0  0
   -7.6618    3.2721   -0.2298 H   0  0  0  0  0  0  0  0  0  0  0  0
   -7.8355    0.9212    3.0063 H   0  0  0  0  0  0  0  0  0  0  0  0
  -10.7153    0.9406    2.9678 H   0  0  0  0  0  0  0  0  0  0  0  0
   -9.4129   -1.8355    3.3611 H   0  0  0  0  0  0  0  0  0  0  0  0
   -9.1582   -0.3284    4.2679 H   0  0  0  0  0  0  0  0  0  0  0  0
  -11.5000   -0.2154    4.4756 H   0  0  0  0  0  0  0  0  0  0  0  0
  -11.2701   -1.5006    1.3521 H   0  0  0  0  0  0  0  0  0  0  0  0
  -13.3951   -0.6822   -0.2500 H   0  0  0  0  0  0  0  0  0  0  0  0
  -14.7478   -1.3191    2.4464 H   0  0  0  0  0  0  0  0  0  0  0  0
  -15.1813   -2.0732    0.8675 H   0  0  0  0  0  0  0  0  0  0  0  0
  -13.3255   -2.9057    2.6192 H   0  0  0  0  0  0  0  0  0  0  0  0
  -15.7235    0.1991    0.1111 H   0  0  0  0  0  0  0  0  0  0  0  0
  -15.1057    0.9462    1.7046 H   0  0  0  0  0  0  0  0  0  0  0  0
  -14.1512    1.6313   -0.9176 H   0  0  0  0  0  0  0  0  0  0  0  0
   12.2395   -3.5877   -0.9842 H   0  0  0  0  0  0  0  0  0  0  0  0
   13.0065   -1.9668   -1.0193 H   0  0  0  0  0  0  0  0  0  0  0  0
  1  2  1  0
  2  3  2  3
  2  4  1  0
  4  5  1  0
  5  6  1  0
  6  7  1  0
  7  8  1  0
  8  9  1  0
  9 10  1  0
 10 11  2  0
 10 12  1  0
 12 13  1  0
 13 14  1  0
 12 15  1  0
 15 16  1  0
 16 17  2  0
 16 18  1  0
 18 19  1  0
 19 20  1  0
 18 21  1  0
 21 22  1  0
 22 23  2  0
 22 24  1  0
 24 25  1  0
 25 26  1  0
 24 27  1  0
 27 28  1  0
 28 29  2  0
 28 30  1  0
 30 31  1  0
 31 32  1  0
 30 33  1  0
 33 34  1  0
 34 35  2  0
 34 36  1  0
 36 37  1  0
 37 38  1  0
 36 39  1  0
 39 40  1  0
 40 41  2  0
 40 42  1  0
 42 43  1  0
 43 44  1  0
 42 45  1  0
 45 46  1  0
 46 47  2  0
 46 48  1  0
 48 49  1  0
 49 50  1  0
 48 51  1  0
 51 52  1  0
  8 53  1  0
 53 54  1  0
 53 55  2  0
  1 56  1  0
  1 57  1  0
  3 58  1  0
  4 59  1  0
  5 60  1  0
  5 61  1  0
  6 62  1  0
  6 63  1  0
  7 64  1  0
  7 65  1  0
  8 66  1  6
  9 67  1  0
 12 68  1  1
 13 69  1  0
 13 70  1  0
 14 71  1  0
 15 72  1  0
 18 73  1  6
 19 74  1  0
 19 75  1  0
 20 76  1  0
 21 77  1  0
 24 78  1  1
 25 79  1  0
 25 80  1  0
 26 81  1  0
 27 82  1  0
 30 83  1  1
 31 84  1  0
 31 85  1  0
 32 86  1  0
 33 87  1  0
 36 88  1  6
 37 89  1  0
 37 90  1  0
 38 91  1  0
 39 92  1  0
 42 93  1  1
 43 94  1  0
 43 95  1  0
 44 96  1  0
 45 97  1  0
 48 98  1  0
 49 99  1  0
 49100  1  0
 50101  1  0
 51102  1  0
 51103  1  0
 52104  1  0
 54105  1  0
 54106  1  0
M  END
$$$$
[H]ON([H])C(=O)C([H])([H])N(C([H])([H])c1c([H])c([H])c([N+](=O)[O-])c([H])c1[H])S(=O)(=O)c1c([H])c([H])c(-c2c([H])c([H])c([H])c([H])c2[H])c([H])c1[H]
     RDKit          3D

 50 52  0  0  0  0  0  0  0  0999 V2000
   -3.3880    4.8280   -0.3137 O   0  0  0  0  0  0  0  0  0  0  0  0
   -2.8571    3.5654   -0.3783 N   0  0  0  0  0  0  0  0  0  0  0  0
   -1.9417    3.2517   -1.3986 C   0  0  0  0  0  0  0  0  0  0  0  0
   -1.6343    4.1383   -2.2318 O   0  0  0  0  0  0  0  0  0  0  0  0
   -1.3360    1.9185   -1.5205 C   0  0  0  0  0  0  0  0  0  0  0  0
   -1.8142    1.0597   -0.4286 N   0  0  0  0  0  0  0  0  0  0  0  0
   -2.1852   -0.2315   -0.9279 C   0  0  0  0  0  0  0  0  0  0  0  0
   -3.3292   -0.8704   -0.2425 C   0  0  0  0  0  0  0  0  0  0  0  0
   -4.1033   -0.2664    0.7094 C   0  0  0  0  0  0  0  0  0  0  0  0
   -5.1557   -0.8898    1.3263 C   0  0  0  0  0  0  0  0  0  0  0  0
   -5.4660   -2.1819    0.9884 C   0  0  0  0  0  0  0  0  0  0  0  0
   -4.7124   -2.8335    0.0317 C   0  0  0  0  0  0  0  0  0  0  0  0
   -3.6595   -2.1800   -0.5715 C   0  0  0  0  0  0  0  0  0  0  0  0
   -6.5732   -2.8559    1.6284 N   0  0  0  0  0  0  0  0  0  0  0  0
   -7.3198   -2.2128    2.5752 O   0  0  0  0  0  0  0  0  0  0  0  0
   -6.8488   -4.0187    1.3206 O   0  0  0  0  0  0  0  0  0  0  0  0
   -0.6726    1.1120    0.7883 S   0  0  0  0  0  0  0  0  0  0  0  0
   -0.5686    2.5123    1.3235 O   0  0  0  0  0  0  0  0  0  0  0  0
   -1.2071    0.2785    1.9528 O   0  0  0  0  0  0  0  0  0  0  0  0
    0.9181    0.5546    0.4892 C   0  0  0  0  0  0  0  0  0  0  0  0
    1.8545    1.4802    0.0813 C   0  0  0  0  0  0  0  0  0  0  0  0
    3.1706    1.1199   -0.1857 C   0  0  0  0  0  0  0  0  0  0  0  0
    3.5686   -0.1939   -0.0442 C   0  0  0  0  0  0  0  0  0  0  0  0
    2.6129   -1.0986    0.3648 C   0  0  0  0  0  0  0  0  0  0  0  0
    1.3290   -0.7537    0.6265 C   0  0  0  0  0  0  0  0  0  0  0  0
    4.9434   -0.6116   -0.3153 C   0  0  0  0  0  0  0  0  0  0  0  0
    5.2835   -1.8396   -0.7855 C   0  0  0  0  0  0  0  0  0  0  0  0
    6.6161   -2.1253   -1.0052 C   0  0  0  0  0  0  0  0  0  0  0  0
    7.6219   -1.2148   -0.7673 C   0  0  0  0  0  0  0  0  0  0  0  0
    7.2743    0.0401   -0.2868 C   0  0  0  0  0  0  0  0  0  0  0  0
    5.9411    0.3236   -0.0678 C   0  0  0  0  0  0  0  0  0  0  0  0
   -2.7088    5.3794    0.1530 H   0  0  0  0  0  0  0  0  0  0  0  0
   -3.2038    2.9297    0.3639 H   0  0  0  0  0  0  0  0  0  0  0  0
   -1.6717    1.5205   -2.5054 H   0  0  0  0  0  0  0  0  0  0  0  0
   -0.2337    1.9501   -1.4568 H   0  0  0  0  0  0  0  0  0  0  0  0
   -1.3093   -0.9150   -0.7159 H   0  0  0  0  0  0  0  0  0  0  0  0
   -2.3792   -0.1530   -2.0098 H   0  0  0  0  0  0  0  0  0  0  0  0
   -3.8723    0.7568    0.9874 H   0  0  0  0  0  0  0  0  0  0  0  0
   -5.7403   -0.3551    2.0822 H   0  0  0  0  0  0  0  0  0  0  0  0
   -4.9838   -3.8701   -0.2200 H   0  0  0  0  0  0  0  0  0  0  0  0
   -3.0997   -2.7307   -1.3134 H   0  0  0  0  0  0  0  0  0  0  0  0
    1.6150    2.5459   -0.0538 H   0  0  0  0  0  0  0  0  0  0  0  0
    3.9126    1.8388   -0.5065 H   0  0  0  0  0  0  0  0  0  0  0  0
    2.8745   -2.1545    0.4932 H   0  0  0  0  0  0  0  0  0  0  0  0
    0.5522   -1.4370    0.9494 H   0  0  0  0  0  0  0  0  0  0  0  0
    4.5189   -2.5678   -0.9791 H   0  0  0  0  0  0  0  0  0  0  0  0
    6.9321   -3.0977   -1.3817 H   0  0  0  0  0  0  0  0  0  0  0  0
    8.6544   -1.4793   -0.9530 H   0  0  0  0  0  0  0  0  0  0  0  0
    8.0765    0.7320   -0.1094 H   0  0  0  0  0  0  0  0  0  0  0  0
    5.7051    1.3026    0.3041 H   0  0  0  0  0  0  0  0  0  0  0  0
  1  2  1  0
  2  3  1  0
  3  4  2  0
  3  5  1  0
  5  6  1  0
  6  7  1  0
  7  8  1  0
  8  9  2  0
  9 10  1  0
 10 11  2  0
 11 12  1  0
 12 13  2  0
 11 14  1  0
 14 15  1  0
 14 16  2  0
  6 17  1  0
 17 18  2  0
 17 19  2  0
 17 20  1  0
 20 21  2  0
 21 22  1  0
 22 23  2  0
 23 24  1  0
 24 25  2  0
 23 26  1  0
 26 27  2  0
 27 28  1  0
 28 29  2  0
 29 30  1  0
 30 31  2  0
 13  8  1  0
 25 20  1  0
 31 26  1  0
  1 32  1  0
  2 33  1  0
  5 34  1  0
  5 35  1  0
  7 36  1  0
  7 37  1  0
  9 38  1  0
 10 39  1  0
 12 40  1  0
 13 41  1  0
 21 42  1  0
 22 43  1  0
 24 44  1  0
 25 45  1  0
 27 46  1  0
 28 47  1  0
 29 48  1  0
 30 49  1  0
 31 50  1  0
M  CHG  2  14   1  15  -1
M  END
$$$$
[H]c1nc(C([H])([H])N2C([H])([H])C([H])([H])C3(C(=O)N(c4c([H])c([H])c(C#N)c([H])c4[H])C(=O)N3c3nc([H])n([H])c(=O)c3[H])C([H])([H])C2([H])[H])c(C([H])([H])[H])c([H])c1[H]
     RDKit          3D

 58 62  0  0  0  0  0  0  0  0999 V2000
    6.0313   -0.5385    1.3777 C   0  0  0  0  0  0  0  0  0  0  0  0
    5.4437    0.3632    0.3684 C   0  0  0  0  0  0  0  0  0  0  0  0
    6.2497    1.1404   -0.4300 C   0  0  0  0  0  0  0  0  0  0  0  0
    5.7090    1.9961   -1.3877 C   0  0  0  0  0  0  0  0  0  0  0  0
    4.3421    2.0124   -1.4807 C   0  0  0  0  0  0  0  0  0  0  0  0
    3.5778    1.2437   -0.6890 N   0  0  0  0  0  0  0  0  0  0  0  0
    4.0724    0.4137    0.2383 C   0  0  0  0  0  0  0  0  0  0  0  0
    3.1908   -0.3907    1.0968 C   0  0  0  0  0  0  0  0  0  0  0  0
    1.7790   -0.2454    0.8190 N   0  0  0  0  0  0  0  0  0  0  0  0
    1.0365   -0.9779    1.8542 C   0  0  0  0  0  0  0  0  0  0  0  0
   -0.2780   -1.4729    1.3497 C   0  0  0  0  0  0  0  0  0  0  0  0
   -0.8768   -0.6126    0.2647 C   0  0  0  0  0  0  0  0  0  0  0  0
    0.0906   -0.3255   -0.8681 C   0  0  0  0  0  0  0  0  0  0  0  0
    1.4254   -0.8949   -0.4393 C   0  0  0  0  0  0  0  0  0  0  0  0
   -2.0349   -1.2707   -0.2937 N   0  0  0  0  0  0  0  0  0  0  0  0
   -2.9066   -0.2158   -0.7110 C   0  0  0  0  0  0  0  0  0  0  0  0
   -3.8585   -0.3540   -1.5503 O   0  0  0  0  0  0  0  0  0  0  0  0
   -2.5504    0.9996   -0.0507 N   0  0  0  0  0  0  0  0  0  0  0  0
   -1.4367    0.6530    0.7801 C   0  0  0  0  0  0  0  0  0  0  0  0
   -1.0293    1.3148    1.7580 O   0  0  0  0  0  0  0  0  0  0  0  0
   -3.1770    2.2665   -0.1988 C   0  0  0  0  0  0  0  0  0  0  0  0
   -2.4832    3.4311   -0.3496 C   0  0  0  0  0  0  0  0  0  0  0  0
   -3.1515    4.6329   -0.4892 C   0  0  0  0  0  0  0  0  0  0  0  0
   -4.5457    4.6889   -0.4800 C   0  0  0  0  0  0  0  0  0  0  0  0
   -5.2407    3.5169   -0.3284 C   0  0  0  0  0  0  0  0  0  0  0  0
   -4.5726    2.3331   -0.1910 C   0  0  0  0  0  0  0  0  0  0  0  0
   -5.2285    5.9500   -0.6272 C   0  0  0  0  0  0  0  0  0  0  0  0
   -5.7697    6.9563   -0.7608 N   0  0  0  0  0  0  0  0  0  0  0  0
   -2.3152   -2.6624   -0.4313 C   0  0  0  0  0  0  0  0  0  0  0  0
   -2.1513   -3.3075   -1.6488 C   0  0  0  0  0  0  0  0  0  0  0  0
   -2.4246   -4.6549   -1.7726 C   0  0  0  0  0  0  0  0  0  0  0  0
   -2.2813   -5.2677   -2.8791 O   0  0  0  0  0  0  0  0  0  0  0  0
   -2.8594   -5.3927   -0.7211 N   0  0  0  0  0  0  0  0  0  0  0  0
   -3.0102   -4.7441    0.4478 C   0  0  0  0  0  0  0  0  0  0  0  0
   -2.7480   -3.4293    0.5869 N   0  0  0  0  0  0  0  0  0  0  0  0
    6.0126   -1.6100    1.0410 H   0  0  0  0  0  0  0  0  0  0  0  0
    5.4990   -0.4591    2.3542 H   0  0  0  0  0  0  0  0  0  0  0  0
    7.1096   -0.3100    1.5408 H   0  0  0  0  0  0  0  0  0  0  0  0
    7.3376    1.1180   -0.3454 H   0  0  0  0  0  0  0  0  0  0  0  0
    6.3162    2.6135   -2.0237 H   0  0  0  0  0  0  0  0  0  0  0  0
    3.8906    2.6751   -2.2236 H   0  0  0  0  0  0  0  0  0  0  0  0
    3.4095   -0.2483    2.1795 H   0  0  0  0  0  0  0  0  0  0  0  0
    3.4751   -1.4681    0.9043 H   0  0  0  0  0  0  0  0  0  0  0  0
    0.9192   -0.2663    2.6961 H   0  0  0  0  0  0  0  0  0  0  0  0
    1.6408   -1.8468    2.1822 H   0  0  0  0  0  0  0  0  0  0  0  0
   -1.0003   -1.4101    2.2161 H   0  0  0  0  0  0  0  0  0  0  0  0
   -0.2801   -2.5472    1.0639 H   0  0  0  0  0  0  0  0  0  0  0  0
   -0.2443   -0.8125   -1.8079 H   0  0  0  0  0  0  0  0  0  0  0  0
    0.1700    0.7639   -1.0081 H   0  0  0  0  0  0  0  0  0  0  0  0
    1.2349   -1.9804   -0.1782 H   0  0  0  0  0  0  0  0  0  0  0  0
    2.2247   -0.7975   -1.1664 H   0  0  0  0  0  0  0  0  0  0  0  0
   -1.4031    3.4358   -0.3619 H   0  0  0  0  0  0  0  0  0  0  0  0
   -2.6268    5.5562   -0.6087 H   0  0  0  0  0  0  0  0  0  0  0  0
   -6.3164    3.5103   -0.3151 H   0  0  0  0  0  0  0  0  0  0  0  0
   -5.1523    1.4281   -0.0734 H   0  0  0  0  0  0  0  0  0  0  0  0
   -1.8043   -2.7524   -2.5182 H   0  0  0  0  0  0  0  0  0  0  0  0
   -3.0695   -6.4233   -0.8090 H   0  0  0  0  0  0  0  0  0  0  0  0
   -3.3609   -5.3234    1.3115 H   0  0  0  0  0  0  0  0  0  0  0  0
  1  2  1  0
  2  3  2  0
  3  4  1  0
  4  5  2  0
  5  6  1  0
  6  7  2  0
  7  8  1  0
  8  9  1  0
  9 10  1  0
 10 11  1  0
 11 12  1  0
 12 13  1  0
 13 14  1  0
 12 15  1  0
 15 16  1  0
 16 17  2  0
 16 18  1  0
 18 19  1  0
 19 20  2  0
 18 21  1  0
 21 22  2  0
 22 23  1  0
 23 24  2  0
 24 25  1  0
 25 26  2  0
 24 27  1  0
 27 28  3  0
 15 29  1  0
 29 30  2  0
 30 31  1  0
 31 32  2  0
 31 33  1  0
 33 34  1  0
 34 35  2  0
  7  2  1  0
 14  9  1  0
 26 21  1  0
 35 29  1  0
 19 12  1  0
  1 36  1  0
  1 37  1  0
  1 38  1  0
  3 39  1  0
  4 40  1  0
  5 41  1  0
  8 42  1  0
  8 43  1  0
 10 44  1  0
 10 45  1  0
 11 46  1  0
 11 47  1  0
 13 48  1  0
 13 49  1  0
 14 50  1  0
 14 51  1  0
 22 52  1  0
 23 53  1  0
 25 54  1  0
 26 55  1  0
 30 56  1  0
 33 57  1  0
 34 58  1  0
M  END
$$$$
[H]c1c([H])c(-c2nc(-c3c([H])c(C([H])([H])[H])nc(C([H])([H])[H])c3[H])c3n2C([H])([H])[C@@]([H])(C([H])([H])[H])OC([H])([H])C3([H])[H])c([H])c(Cl)c1Cl
     RDKit          3D

 48 51  0  0  0  0  0  0  0  0999 V2000
   -3.3961    3.1100   -1.1745 C   0  0  0  0  0  0  0  0  0  0  0  0
   -2.3689    2.0149   -1.0627 C   0  0  2  0  0  0  0  0  0  0  0  0
   -2.2382    1.6315    0.4333 C   0  0  0  0  0  0  0  0  0  0  0  0
   -1.2012    0.6511    0.4700 N   0  0  0  0  0  0  0  0  0  0  0  0
    0.1022    0.9837    0.1836 C   0  0  0  0  0  0  0  0  0  0  0  0
    0.7229    2.2916   -0.1483 C   0  0  0  0  0  0  0  0  0  0  0  0
   -0.3246    3.1118   -0.9198 C   0  0  0  0  0  0  0  0  0  0  0  0
   -1.1667    2.3021   -1.6368 O   0  0  0  0  0  0  0  0  0  0  0  0
    0.8156   -0.1539    0.2486 C   0  0  0  0  0  0  0  0  0  0  0  0
   -0.0413   -1.1273    0.5643 N   0  0  0  0  0  0  0  0  0  0  0  0
   -1.3139   -0.6484    0.7105 C   0  0  0  0  0  0  0  0  0  0  0  0
   -2.4356   -1.5271    1.0005 C   0  0  0  0  0  0  0  0  0  0  0  0
   -3.6417   -1.1899    1.5056 C   0  0  0  0  0  0  0  0  0  0  0  0
   -4.6690   -2.1391    1.6532 C   0  0  0  0  0  0  0  0  0  0  0  0
   -4.4757   -3.4311    1.2913 C   0  0  0  0  0  0  0  0  0  0  0  0
   -5.7207   -4.6687    1.4502 Cl  0  0  0  0  0  0  0  0  0  0  0  0
   -3.2646   -3.8234    0.7742 C   0  0  0  0  0  0  0  0  0  0  0  0
   -2.9841   -5.4992    0.2913 Cl  0  0  0  0  0  0  0  0  0  0  0  0
   -2.2829   -2.8869    0.6390 C   0  0  0  0  0  0  0  0  0  0  0  0
    2.2652   -0.3571    0.0256 C   0  0  0  0  0  0  0  0  0  0  0  0
    3.2069    0.4765    0.5777 C   0  0  0  0  0  0  0  0  0  0  0  0
    4.5318    0.2019    0.3098 C   0  0  0  0  0  0  0  0  0  0  0  0
    5.5587    1.0848    0.8930 C   0  0  0  0  0  0  0  0  0  0  0  0
    4.9136   -0.8344   -0.4584 N   0  0  0  0  0  0  0  0  0  0  0  0
    4.0189   -1.6711   -1.0153 C   0  0  0  0  0  0  0  0  0  0  0  0
    4.4431   -2.8191   -1.8664 C   0  0  0  0  0  0  0  0  0  0  0  0
    2.6824   -1.4108   -0.7571 C   0  0  0  0  0  0  0  0  0  0  0  0
   -4.4164    2.6865   -1.0688 H   0  0  0  0  0  0  0  0  0  0  0  0
   -3.3526    3.6606   -2.1114 H   0  0  0  0  0  0  0  0  0  0  0  0
   -3.2530    3.7747   -0.2758 H   0  0  0  0  0  0  0  0  0  0  0  0
   -2.7915    1.1082   -1.5434 H   0  0  0  0  0  0  0  0  0  0  0  0
   -1.8295    2.5974    0.8917 H   0  0  0  0  0  0  0  0  0  0  0  0
   -3.1802    1.4503    0.8724 H   0  0  0  0  0  0  0  0  0  0  0  0
    0.8753    2.8342    0.8069 H   0  0  0  0  0  0  0  0  0  0  0  0
    1.6275    2.1499   -0.7476 H   0  0  0  0  0  0  0  0  0  0  0  0
   -0.7966    3.8753   -0.3017 H   0  0  0  0  0  0  0  0  0  0  0  0
    0.2795    3.6876   -1.6842 H   0  0  0  0  0  0  0  0  0  0  0  0
   -3.8351   -0.1892    1.8461 H   0  0  0  0  0  0  0  0  0  0  0  0
   -5.5987   -1.8198    2.0544 H   0  0  0  0  0  0  0  0  0  0  0  0
   -1.3463   -3.2054    0.2345 H   0  0  0  0  0  0  0  0  0  0  0  0
    2.9097    1.3269    1.2072 H   0  0  0  0  0  0  0  0  0  0  0  0
    5.2172    2.1320    0.9225 H   0  0  0  0  0  0  0  0  0  0  0  0
    5.7684    0.7026    1.9237 H   0  0  0  0  0  0  0  0  0  0  0  0
    6.5010    0.9879    0.3142 H   0  0  0  0  0  0  0  0  0  0  0  0
    3.5639   -3.1027   -2.4867 H   0  0  0  0  0  0  0  0  0  0  0  0
    5.3400   -2.5813   -2.4565 H   0  0  0  0  0  0  0  0  0  0  0  0
    4.6315   -3.6695   -1.1790 H   0  0  0  0  0  0  0  0  0  0  0  0
    1.9501   -2.0789   -1.2008 H   0  0  0  0  0  0  0  0  0  0  0  0
  1  2  1  0
  2  3  1  0
  3  4  1  0
  4  5  1  0
  5  6  1  0
  6  7  1  0
  7  8  1  0
  5  9  2  0
  9 10  1  0
 10 11  2  0
 11 12  1  0
 12 13  2  0
 13 14  1  0
 14 15  2  0
 15 16  1  0
 15 17  1  0
 17 18  1  0
 17 19  2  0
  9 20  1  0
 20 21  2  0
 21 22  1  0
 22 23  1  0
 22 24  2  0
 24 25  1  0
 25 26  1  0
 25 27  2  0
  8  2  1  0
 19 12  1  0
 27 20  1  0
 11  4  1  0
  1 28  1  0
  1 29  1  0
  1 30  1  0
  2 31  1  6
  3 32  1  0
  3 33  1  0
  6 34  1  0
  6 35  1  0
  7 36  1  0
  7 37  1  0
 13 38  1  0
 14 39  1  0
 19 40  1  0
 21 41  1  0
 23 42  1  0
 23 43  1  0
 23 44  1  0
 26 45  1  0
 26 46  1  0
 26 47  1  0
 27 48  1  0
M  END
$$$$
[H]/C(C(=O)N([H])c1c(OC([H])([H])C([H])([H])[H])c([H])c2nc([H])c(C#N)c(N([H])c3c([H])c([H])c(OC([H])([H])c4c([H])c([H])c([H])c([H])c4[H])c(Cl)c3[H])c2c1[H])=C(/[H])C([H])([H])N1C([H])([H])C([H])([H])C([H])([H])C([H])([H])C1([H])[H]
     RDKit          3D

 77 81  0  0  0  0  0  0  0  0999 V2000
   -4.2602   -5.4986   -0.9256 C   0  0  0  0  0  0  0  0  0  0  0  0
   -4.0063   -4.1428   -1.4988 C   0  0  0  0  0  0  0  0  0  0  0  0
   -3.2370   -3.2821   -0.7526 O   0  0  0  0  0  0  0  0  0  0  0  0
   -1.9467   -3.4388   -0.3686 C   0  0  0  0  0  0  0  0  0  0  0  0
   -1.2275   -4.5404   -0.7178 C   0  0  0  0  0  0  0  0  0  0  0  0
    0.1043   -4.7026   -0.3236 C   0  0  0  0  0  0  0  0  0  0  0  0
    0.7928   -5.8009   -0.6810 N   0  0  0  0  0  0  0  0  0  0  0  0
    2.0926   -5.9654   -0.2993 C   0  0  0  0  0  0  0  0  0  0  0  0
    2.7563   -5.0304    0.4595 C   0  0  0  0  0  0  0  0  0  0  0  0
    4.1113   -5.1660    0.8776 C   0  0  0  0  0  0  0  0  0  0  0  0
    5.2212   -5.2586    1.2208 N   0  0  0  0  0  0  0  0  0  0  0  0
    2.0315   -3.8963    0.8235 C   0  0  0  0  0  0  0  0  0  0  0  0
    2.6666   -2.9015    1.6034 N   0  0  0  0  0  0  0  0  0  0  0  0
    3.3767   -1.8081    1.1072 C   0  0  0  0  0  0  0  0  0  0  0  0
    3.9737   -0.9268    1.9535 C   0  0  0  0  0  0  0  0  0  0  0  0
    4.6729    0.1440    1.4639 C   0  0  0  0  0  0  0  0  0  0  0  0
    4.8073    0.3829    0.1067 C   0  0  0  0  0  0  0  0  0  0  0  0
    5.5230    1.4777   -0.3719 O   0  0  0  0  0  0  0  0  0  0  0  0
    6.1148    2.3448    0.5805 C   0  0  0  0  0  0  0  0  0  0  0  0
    6.8400    3.4497   -0.0849 C   0  0  0  0  0  0  0  0  0  0  0  0
    8.1573    3.2560   -0.4256 C   0  0  0  0  0  0  0  0  0  0  0  0
    8.8819    4.2442   -1.0442 C   0  0  0  0  0  0  0  0  0  0  0  0
    8.2797    5.4346   -1.3223 C   0  0  0  0  0  0  0  0  0  0  0  0
    6.9451    5.6819   -0.9971 C   0  0  0  0  0  0  0  0  0  0  0  0
    6.2493    4.6548   -0.3724 C   0  0  0  0  0  0  0  0  0  0  0  0
    4.1867   -0.5338   -0.7175 C   0  0  0  0  0  0  0  0  0  0  0  0
    4.3334   -0.2618   -2.4592 Cl  0  0  0  0  0  0  0  0  0  0  0  0
    3.4833   -1.6106   -0.2419 C   0  0  0  0  0  0  0  0  0  0  0  0
    0.7222   -3.7366    0.4360 C   0  0  0  0  0  0  0  0  0  0  0  0
   -0.0469   -2.6170    0.7766 C   0  0  0  0  0  0  0  0  0  0  0  0
   -1.3462   -2.4300    0.4083 C   0  0  0  0  0  0  0  0  0  0  0  0
   -2.1305   -1.3098    0.7532 N   0  0  0  0  0  0  0  0  0  0  0  0
   -1.7663   -0.1868    1.4715 C   0  0  0  0  0  0  0  0  0  0  0  0
   -0.6081   -0.0293    1.9270 O   0  0  0  0  0  0  0  0  0  0  0  0
   -2.6994    0.9002    1.7554 C   0  0  0  0  0  0  0  0  0  0  0  0
   -3.9377    0.9252    1.3776 C   0  0  0  0  0  0  0  0  0  0  0  0
   -4.8668    2.0621    1.6889 C   0  0  0  0  0  0  0  0  0  0  0  0
   -5.3518    2.6372    0.4623 N   0  0  0  0  0  0  0  0  0  0  0  0
   -6.2324    1.8039   -0.2914 C   0  0  0  0  0  0  0  0  0  0  0  0
   -6.1757    2.2614   -1.7495 C   0  0  0  0  0  0  0  0  0  0  0  0
   -6.0367    3.7803   -1.8070 C   0  0  0  0  0  0  0  0  0  0  0  0
   -6.6723    4.3731   -0.5699 C   0  0  0  0  0  0  0  0  0  0  0  0
   -6.0168    3.9149    0.6884 C   0  0  0  0  0  0  0  0  0  0  0  0
   -5.3406   -5.6964   -0.8454 H   0  0  0  0  0  0  0  0  0  0  0  0
   -3.8430   -5.5352    0.1057 H   0  0  0  0  0  0  0  0  0  0  0  0
   -3.8595   -6.3246   -1.5612 H   0  0  0  0  0  0  0  0  0  0  0  0
   -3.5903   -4.1949   -2.5349 H   0  0  0  0  0  0  0  0  0  0  0  0
   -5.0146   -3.6433   -1.6357 H   0  0  0  0  0  0  0  0  0  0  0  0
   -1.7076   -5.3042   -1.3272 H   0  0  0  0  0  0  0  0  0  0  0  0
    2.6573   -6.8576   -0.5892 H   0  0  0  0  0  0  0  0  0  0  0  0
    2.5971   -2.9954    2.6364 H   0  0  0  0  0  0  0  0  0  0  0  0
    3.9135   -1.0447    3.0253 H   0  0  0  0  0  0  0  0  0  0  0  0
    5.1543    0.8553    2.1290 H   0  0  0  0  0  0  0  0  0  0  0  0
    5.3511    2.7564    1.2970 H   0  0  0  0  0  0  0  0  0  0  0  0
    6.8199    1.7716    1.2544 H   0  0  0  0  0  0  0  0  0  0  0  0
    8.6097    2.3064   -0.1948 H   0  0  0  0  0  0  0  0  0  0  0  0
    9.9102    4.0877   -1.3086 H   0  0  0  0  0  0  0  0  0  0  0  0
    8.8262    6.2285   -1.8063 H   0  0  0  0  0  0  0  0  0  0  0  0
    6.5090    6.6286   -1.2312 H   0  0  0  0  0  0  0  0  0  0  0  0
    5.2148    4.8395   -0.1184 H   0  0  0  0  0  0  0  0  0  0  0  0
    3.0242   -2.2849   -0.9781 H   0  0  0  0  0  0  0  0  0  0  0  0
    0.4654   -1.8888    1.3663 H   0  0  0  0  0  0  0  0  0  0  0  0
   -3.1526   -1.3253    0.4151 H   0  0  0  0  0  0  0  0  0  0  0  0
   -2.3539    1.7813    2.3336 H   0  0  0  0  0  0  0  0  0  0  0  0
   -4.3584    0.1129    0.8178 H   0  0  0  0  0  0  0  0  0  0  0  0
   -4.2940    2.8446    2.2276 H   0  0  0  0  0  0  0  0  0  0  0  0
   -5.6670    1.6447    2.3349 H   0  0  0  0  0  0  0  0  0  0  0  0
   -5.9594    0.7540   -0.2133 H   0  0  0  0  0  0  0  0  0  0  0  0
   -7.2834    1.8869    0.1034 H   0  0  0  0  0  0  0  0  0  0  0  0
   -5.2753    1.8163   -2.1994 H   0  0  0  0  0  0  0  0  0  0  0  0
   -7.0973    1.9466   -2.2877 H   0  0  0  0  0  0  0  0  0  0  0  0
   -4.9666    4.0455   -1.8264 H   0  0  0  0  0  0  0  0  0  0  0  0
   -6.6069    4.1360   -2.6919 H   0  0  0  0  0  0  0  0  0  0  0  0
   -6.5927    5.4858   -0.6306 H   0  0  0  0  0  0  0  0  0  0  0  0
   -7.7627    4.1115   -0.5962 H   0  0  0  0  0  0  0  0  0  0  0  0
   -6.7836    3.7455    1.4920 H   0  0  0  0  0  0  0  0  0  0  0  0
   -5.3020    4.6557    1.1104 H   0  0  0  0  0  0  0  0  0  0  0  0
  1  2  1  0
  2  3  1  0
  3  4  1  0
  4  5  2  0
  5  6  1  0
  6  7  2  0
  7  8  1  0
  8  9  2  0
  9 10  1  0
 10 11  3  0
  9 12  1  0
 12 13  1  0
 13 14  1  0
 14 15  2  0
 15 16  1  0
 16 17  2  0
 17 18  1  0
 18 19  1  0
 19 20  1  0
 20 21  2  0
 21 22  1  0
 22 23  2  0
 23 24  1  0
 24 25  2  0
 17 26  1  0
 26 27  1  0
 26 28  2  0
 12 29  2  0
 29 30  1  0
 30 31  2  0
 31 32  1  0
 32 33  1  0
 33 34  2  0
 33 35  1  0
 35 36  2  0
 36 37  1  0
 37 38  1  0
 38 39  1  0
 39 40  1  0
 40 41  1  0
 41 42  1  0
 42 43  1  0
 31  4  1  0
 43 38  1  0
 29  6  1  0
 28 14  1  0
 25 20  1  0
  1 44  1  0
  1 45  1  0
  1 46  1  0
  2 47  1  0
  2 48  1  0
  5 49  1  0
  8 50  1  0
 13 51  1  0
 15 52  1  0
 16 53  1  0
 19 54  1  0
 19 55  1  0
 21 56  1  0
 22 57  1  0
 23 58  1  0
 24 59  1  0
 25 60  1  0
 28 61  1  0
 30 62  1  0
 32 63  1  0
 35 64  1  0
 36 65  1  0
 37 66  1  0
 37 67  1  0
 39 68  1  0
 39 69  1  0
 40 70  1  0
 40 71  1  0
 41 72  1  0
 41 73  1  0
 42 74  1  0
 42 75  1  0
 43 76  1  0
 43 77  1  0
M  END
$$$$
[H]OC(=O)C([H])([H])[C@@]([H])(C(=O)C([H])([H])SC([H])([H])c1c([H])c([H])c([H])c([H])c1[H])N([H])C(=O)C([H])(n1c([H])c([H])nc(N([H])C([H])([H])c2nonc2C([H])([H])[H])c1=O)C([H])([H])C([H])([H])[H]
     RDKit          3D

 65 67  0  0  0  0  0  0  0  0999 V2000
   -1.9220   -1.4276   -2.6922 C   0  0  0  0  0  0  0  0  0  0  0  0
   -0.9362   -0.7752   -1.7563 C   0  0  0  0  0  0  0  0  0  0  0  0
   -1.1992   -1.1657   -0.3036 C   0  0  0  0  0  0  0  0  0  0  0  0
   -0.2460   -0.5360    0.6127 C   0  0  0  0  0  0  0  0  0  0  0  0
   -0.6374    0.2217    1.5674 O   0  0  0  0  0  0  0  0  0  0  0  0
    1.1426   -0.7675    0.4440 N   0  0  0  0  0  0  0  0  0  0  0  0
    2.1548   -0.1893    1.3034 C   0  0  1  0  0  0  0  0  0  0  0  0
    3.1709   -1.2010    1.7754 C   0  0  0  0  0  0  0  0  0  0  0  0
    2.4989   -2.2667    2.5351 C   0  0  0  0  0  0  0  0  0  0  0  0
    3.2575   -3.3127    3.0668 O   0  0  0  0  0  0  0  0  0  0  0  0
    1.2773   -2.3038    2.7424 O   0  0  0  0  0  0  0  0  0  0  0  0
    2.9425    0.8572    0.5507 C   0  0  0  0  0  0  0  0  0  0  0  0
    2.7062    1.1347   -0.6112 O   0  0  0  0  0  0  0  0  0  0  0  0
    4.0482    1.5874    1.2263 C   0  0  0  0  0  0  0  0  0  0  0  0
    4.8170    2.7797    0.1176 S   0  0  0  0  0  0  0  0  0  0  0  0
    5.6682    1.9921   -1.2564 C   0  0  0  0  0  0  0  0  0  0  0  0
    6.8463    1.1935   -0.8484 C   0  0  0  0  0  0  0  0  0  0  0  0
    8.1146    1.6995   -0.7568 C   0  0  0  0  0  0  0  0  0  0  0  0
    9.1518    0.8971   -0.3722 C   0  0  0  0  0  0  0  0  0  0  0  0
    8.9600   -0.4432   -0.0644 C   0  0  0  0  0  0  0  0  0  0  0  0
    7.6673   -0.9397   -0.1627 C   0  0  0  0  0  0  0  0  0  0  0  0
    6.6109   -0.1428   -0.5492 C   0  0  0  0  0  0  0  0  0  0  0  0
   -2.5726   -1.0301    0.0781 N   0  0  0  0  0  0  0  0  0  0  0  0
   -3.3205   -2.0939    0.5003 C   0  0  0  0  0  0  0  0  0  0  0  0
   -4.6398   -1.9666    0.8672 C   0  0  0  0  0  0  0  0  0  0  0  0
   -5.2171   -0.7475    0.8084 N   0  0  0  0  0  0  0  0  0  0  0  0
   -4.5350    0.3353    0.4021 C   0  0  0  0  0  0  0  0  0  0  0  0
   -5.1121    1.6246    0.3406 N   0  0  0  0  0  0  0  0  0  0  0  0
   -6.4896    1.7878    0.7007 C   0  0  0  0  0  0  0  0  0  0  0  0
   -7.4326    1.0825   -0.2266 C   0  0  0  0  0  0  0  0  0  0  0  0
   -7.1797    0.3542   -1.3257 N   0  0  0  0  0  0  0  0  0  0  0  0
   -8.2968   -0.0752   -1.8454 O   0  0  0  0  0  0  0  0  0  0  0  0
   -9.2918    0.3394   -1.1336 N   0  0  0  0  0  0  0  0  0  0  0  0
   -8.8061    1.0689   -0.1077 C   0  0  0  0  0  0  0  0  0  0  0  0
   -9.5585    1.7489    0.9697 C   0  0  0  0  0  0  0  0  0  0  0  0
   -3.2072    0.1508    0.0437 C   0  0  0  0  0  0  0  0  0  0  0  0
   -2.5907    1.1756   -0.3318 O   0  0  0  0  0  0  0  0  0  0  0  0
   -2.4431   -0.6315   -3.2560 H   0  0  0  0  0  0  0  0  0  0  0  0
   -1.3943   -2.0761   -3.4278 H   0  0  0  0  0  0  0  0  0  0  0  0
   -2.6345   -2.0158   -2.0712 H   0  0  0  0  0  0  0  0  0  0  0  0
    0.1145   -1.0885   -2.0370 H   0  0  0  0  0  0  0  0  0  0  0  0
   -0.9558    0.3038   -1.9312 H   0  0  0  0  0  0  0  0  0  0  0  0
   -0.9620   -2.2724   -0.2729 H   0  0  0  0  0  0  0  0  0  0  0  0
    1.4408   -1.3906   -0.3471 H   0  0  0  0  0  0  0  0  0  0  0  0
    1.6816    0.3657    2.1321 H   0  0  0  0  0  0  0  0  0  0  0  0
    3.9023   -0.7322    2.4810 H   0  0  0  0  0  0  0  0  0  0  0  0
    3.7929   -1.5850    0.9428 H   0  0  0  0  0  0  0  0  0  0  0  0
    3.9449   -3.7415    2.4473 H   0  0  0  0  0  0  0  0  0  0  0  0
    4.8498    0.8347    1.4882 H   0  0  0  0  0  0  0  0  0  0  0  0
    3.7469    2.0351    2.1925 H   0  0  0  0  0  0  0  0  0  0  0  0
    4.9449    1.3806   -1.8583 H   0  0  0  0  0  0  0  0  0  0  0  0
    6.0387    2.8033   -1.9256 H   0  0  0  0  0  0  0  0  0  0  0  0
    8.2954    2.7275   -0.9868 H   0  0  0  0  0  0  0  0  0  0  0  0
   10.1851    1.2641   -0.2861 H   0  0  0  0  0  0  0  0  0  0  0  0
    9.7612   -1.0766    0.2360 H   0  0  0  0  0  0  0  0  0  0  0  0
    7.4908   -1.9712    0.0699 H   0  0  0  0  0  0  0  0  0  0  0  0
    5.6306   -0.5931   -0.6045 H   0  0  0  0  0  0  0  0  0  0  0  0
   -2.8292   -3.0507    0.5359 H   0  0  0  0  0  0  0  0  0  0  0  0
   -5.2428   -2.7872    1.2005 H   0  0  0  0  0  0  0  0  0  0  0  0
   -4.5532    2.4384    0.0412 H   0  0  0  0  0  0  0  0  0  0  0  0
   -6.6947    1.5064    1.7583 H   0  0  0  0  0  0  0  0  0  0  0  0
   -6.7381    2.8750    0.5988 H   0  0  0  0  0  0  0  0  0  0  0  0
   -8.8816    2.0424    1.7922 H   0  0  0  0  0  0  0  0  0  0  0  0
  -10.3850    1.0863    1.3059 H   0  0  0  0  0  0  0  0  0  0  0  0
   -9.9499    2.7027    0.5271 H   0  0  0  0  0  0  0  0  0  0  0  0
  1  2  1  0
  2  3  1  0
  3  4  1  0
  4  5  2  0
  4  6  1  0
  6  7  1  0
  7  8  1  0
  8  9  1  0
  9 10  1  0
  9 11  2  0
  7 12  1  0
 12 13  2  0
 12 14  1  0
 14 15  1  0
 15 16  1  0
 16 17  1  0
 17 18  2  0
 18 19  1  0
 19 20  2  0
 20 21  1  0
 21 22  2  0
  3 23  1  0
 23 24  1  0
 24 25  2  0
 25 26  1  0
 26 27  2  0
 27 28  1  0
 28 29  1  0
 29 30  1  0
 30 31  2  0
 31 32  1  0
 32 33  1  0
 33 34  2  0
 34 35  1  0
 27 36  1  0
 36 37  2  0
 22 17  1  0
 36 23  1  0
 34 30  1  0
  1 38  1  0
  1 39  1  0
  1 40  1  0
  2 41  1  0
  2 42  1  0
  3 43  1  0
  6 44  1  0
  7 45  1  1
  8 46  1  0
  8 47  1  0
 10 48  1  0
 14 49  1  0
 14 50  1  0
 16 51  1  0
 16 52  1  0
 18 53  1  0
 19 54  1  0
 20 55  1  0
 21 56  1  0
 22 57  1  0
 24 58  1  0
 25 59  1  0
 28 60  1  0
 29 61  1  0
 29 62  1  0
 35 63  1  0
 35 64  1  0
 35 65  1  0
M  END
$$$$
[H]OC1(C([H])([H])N([H])S(=O)(=O)c2c([H])c([H])c(C([H])([H])[H])c(-c3c([H])nc(N([H])[H])c(-c4oc(C([H])([H])[H])nc4[H])c3[H])c2[H])C([H])([H])C([H])([H])OC([H])([H])C1([H])[H]
     RDKit          3D

 58 61  0  0  0  0  0  0  0  0999 V2000
   -7.4708    3.4062   -0.9160 C   0  0  0  0  0  0  0  0  0  0  0  0
   -6.3035    2.4577   -0.9059 C   0  0  0  0  0  0  0  0  0  0  0  0
   -5.6927    2.0381   -2.0222 N   0  0  0  0  0  0  0  0  0  0  0  0
   -4.7046    1.2097   -1.6432 C   0  0  0  0  0  0  0  0  0  0  0  0
   -4.7291    1.1356   -0.2696 C   0  0  0  0  0  0  0  0  0  0  0  0
   -5.7145    1.9101    0.1057 O   0  0  0  0  0  0  0  0  0  0  0  0
   -3.8089    0.3343    0.5199 C   0  0  0  0  0  0  0  0  0  0  0  0
   -2.8241   -0.4253   -0.0703 C   0  0  0  0  0  0  0  0  0  0  0  0
   -1.9351   -1.1979    0.6723 C   0  0  0  0  0  0  0  0  0  0  0  0
   -2.0670   -1.1837    2.0393 C   0  0  0  0  0  0  0  0  0  0  0  0
   -3.0311   -0.4425    2.6497 N   0  0  0  0  0  0  0  0  0  0  0  0
   -3.8730    0.2921    1.9016 C   0  0  0  0  0  0  0  0  0  0  0  0
   -4.9026    1.0875    2.4983 N   0  0  0  0  0  0  0  0  0  0  0  0
   -0.8990   -1.9739   -0.0031 C   0  0  0  0  0  0  0  0  0  0  0  0
   -0.0745   -1.3646   -0.9595 C   0  0  0  0  0  0  0  0  0  0  0  0
    0.9222   -2.0349   -1.6190 C   0  0  0  0  0  0  0  0  0  0  0  0
    1.1198   -3.3632   -1.3279 C   0  0  0  0  0  0  0  0  0  0  0  0
    0.3458   -4.0326   -0.3961 C   0  0  0  0  0  0  0  0  0  0  0  0
   -0.6607   -3.3076    0.2526 C   0  0  0  0  0  0  0  0  0  0  0  0
   -1.4724   -4.0574    1.2295 C   0  0  0  0  0  0  0  0  0  0  0  0
    1.9237   -1.2578   -2.7935 S   0  0  0  0  0  0  0  0  0  0  0  0
    1.1803   -0.2308   -3.5973 O   0  0  0  0  0  0  0  0  0  0  0  0
    2.3732   -2.3235   -3.7831 O   0  0  0  0  0  0  0  0  0  0  0  0
    3.3279   -0.5577   -2.1368 N   0  0  0  0  0  0  0  0  0  0  0  0
    3.0524    0.4806   -1.1712 C   0  0  0  0  0  0  0  0  0  0  0  0
    4.3371    1.0637   -0.6238 C   0  0  0  0  0  0  0  0  0  0  0  0
    5.0929    1.6130   -1.6539 O   0  0  0  0  0  0  0  0  0  0  0  0
    5.1258    0.0074    0.1174 C   0  0  0  0  0  0  0  0  0  0  0  0
    6.2268    0.5860    0.9427 C   0  0  0  0  0  0  0  0  0  0  0  0
    6.3280    1.9669    0.6909 O   0  0  0  0  0  0  0  0  0  0  0  0
    5.1634    2.5824    1.1845 C   0  0  0  0  0  0  0  0  0  0  0  0
    3.9477    2.1278    0.4089 C   0  0  0  0  0  0  0  0  0  0  0  0
   -8.3291    2.9733   -1.4545 H   0  0  0  0  0  0  0  0  0  0  0  0
   -7.7018    3.6374    0.1518 H   0  0  0  0  0  0  0  0  0  0  0  0
   -7.1449    4.3694   -1.3711 H   0  0  0  0  0  0  0  0  0  0  0  0
   -4.0199    0.6987   -2.2999 H   0  0  0  0  0  0  0  0  0  0  0  0
   -2.7248   -0.4330   -1.1397 H   0  0  0  0  0  0  0  0  0  0  0  0
   -1.3747   -1.7799    2.6159 H   0  0  0  0  0  0  0  0  0  0  0  0
   -5.8349    0.6445    2.6383 H   0  0  0  0  0  0  0  0  0  0  0  0
   -4.7629    2.0726    2.7935 H   0  0  0  0  0  0  0  0  0  0  0  0
   -0.2466   -0.3144   -1.1753 H   0  0  0  0  0  0  0  0  0  0  0  0
    1.9074   -3.8812   -1.8530 H   0  0  0  0  0  0  0  0  0  0  0  0
    0.5402   -5.0748   -0.2032 H   0  0  0  0  0  0  0  0  0  0  0  0
   -1.5497   -5.1167    0.8708 H   0  0  0  0  0  0  0  0  0  0  0  0
   -2.5133   -3.6784    1.2771 H   0  0  0  0  0  0  0  0  0  0  0  0
   -0.9530   -4.0840    2.1974 H   0  0  0  0  0  0  0  0  0  0  0  0
    4.0389   -0.3264   -2.8337 H   0  0  0  0  0  0  0  0  0  0  0  0
    2.3609    1.2509   -1.5201 H   0  0  0  0  0  0  0  0  0  0  0  0
    2.5496   -0.0247   -0.3026 H   0  0  0  0  0  0  0  0  0  0  0  0
    5.2187    2.5877   -1.5662 H   0  0  0  0  0  0  0  0  0  0  0  0
    5.4671   -0.7467   -0.6224 H   0  0  0  0  0  0  0  0  0  0  0  0
    4.4124   -0.5031    0.8258 H   0  0  0  0  0  0  0  0  0  0  0  0
    7.2113    0.1320    0.6319 H   0  0  0  0  0  0  0  0  0  0  0  0
    6.1362    0.3731    2.0311 H   0  0  0  0  0  0  0  0  0  0  0  0
    5.2994    3.6777    1.1013 H   0  0  0  0  0  0  0  0  0  0  0  0
    5.0566    2.3460    2.2785 H   0  0  0  0  0  0  0  0  0  0  0  0
    3.1880    1.6540    1.0682 H   0  0  0  0  0  0  0  0  0  0  0  0
    3.4659    3.0003   -0.1020 H   0  0  0  0  0  0  0  0  0  0  0  0
  1  2  1  0
  2  3  2  0
  3  4  1  0
  4  5  2  0
  5  6  1  0
  5  7  1  0
  7  8  2  0
  8  9  1  0
  9 10  2  0
 10 11  1  0
 11 12  2  0
 12 13  1  0
  9 14  1  0
 14 15  2  0
 15 16  1  0
 16 17  2  0
 17 18  1  0
 18 19  2  0
 19 20  1  0
 16 21  1  0
 21 22  2  0
 21 23  2  0
 21 24  1  0
 24 25  1  0
 25 26  1  0
 26 27  1  0
 26 28  1  0
 28 29  1  0
 29 30  1  0
 30 31  1  0
 31 32  1  0
  6  2  1  0
 12  7  1  0
 19 14  1  0
 32 26  1  0
  1 33  1  0
  1 34  1  0
  1 35  1  0
  4 36  1  0
  8 37  1  0
 10 38  1  0
 13 39  1  0
 13 40  1  0
 15 41  1  0
 17 42  1  0
 18 43  1  0
 20 44  1  0
 20 45  1  0
 20 46  1  0
 24 47  1  0
 25 48  1  0
 25 49  1  0
 27 50  1  0
 28 51  1  0
 28 52  1  0
 29 53  1  0
 29 54  1  0
 31 55  1  0
 31 56  1  0
 32 57  1  0
 32 58  1  0
M  END
$$$$
[H]c1nc2c(C([H])([H])[H])c(C([H])([H])[H])c(-c3c(C([H])(C([H])([H])[H])C([H])([H])[H])c4c([H])c(C5([H])C([H])([H])C([H])([H])N(C(=O)C([H])([H])C([H])([H])N6C([H])([H])C([H])([H])OC([H])([H])C6([H])[H])C([H])([H])C5([H])[H])c([H])c([H])c4n3[H])c([H])n2n1
     RDKit          3D

 79 84  0  0  0  0  0  0  0  0999 V2000
   -3.7827    2.3641   -1.6854 C   0  0  0  0  0  0  0  0  0  0  0  0
   -3.9590    2.2940   -0.1617 C   0  0  0  0  0  0  0  0  0  0  0  0
   -4.8973    3.2604    0.4397 C   0  0  0  0  0  0  0  0  0  0  0  0
   -3.6325    0.9882    0.4173 C   0  0  0  0  0  0  0  0  0  0  0  0
   -4.3510   -0.0126    1.0134 C   0  0  0  0  0  0  0  0  0  0  0  0
   -3.4663   -0.9027    1.5282 N   0  0  0  0  0  0  0  0  0  0  0  0
   -2.1988   -0.5503    1.3109 C   0  0  0  0  0  0  0  0  0  0  0  0
   -0.9686   -1.0887    1.6284 C   0  0  0  0  0  0  0  0  0  0  0  0
    0.2072   -0.4734    1.2673 C   0  0  0  0  0  0  0  0  0  0  0  0
    0.2037    0.7108    0.5731 C   0  0  0  0  0  0  0  0  0  0  0  0
   -1.0632    1.2167    0.2730 C   0  0  0  0  0  0  0  0  0  0  0  0
   -2.2496    0.6261    0.6146 C   0  0  0  0  0  0  0  0  0  0  0  0
    1.3841    1.4576    0.1251 C   0  0  0  0  0  0  0  0  0  0  0  0
    2.6735    1.1771    0.7735 C   0  0  0  0  0  0  0  0  0  0  0  0
    3.8441    1.1654   -0.2466 C   0  0  0  0  0  0  0  0  0  0  0  0
    3.6301    0.2154   -1.2939 N   0  0  0  0  0  0  0  0  0  0  0  0
    2.2379   -0.0080   -1.6957 C   0  0  0  0  0  0  0  0  0  0  0  0
    1.4911    1.2847   -1.4155 C   0  0  0  0  0  0  0  0  0  0  0  0
    4.7008   -0.4641   -1.9073 C   0  0  0  0  0  0  0  0  0  0  0  0
    4.4510   -1.3629   -2.7606 O   0  0  0  0  0  0  0  0  0  0  0  0
    6.1089   -0.1727   -1.6032 C   0  0  0  0  0  0  0  0  0  0  0  0
    6.7388   -1.3760   -0.9019 C   0  0  0  0  0  0  0  0  0  0  0  0
    8.1140   -1.2022   -0.6022 N   0  0  0  0  0  0  0  0  0  0  0  0
    8.5576   -2.1854    0.3491 C   0  0  0  0  0  0  0  0  0  0  0  0
    9.2561   -1.5036    1.5208 C   0  0  0  0  0  0  0  0  0  0  0  0
    8.4908   -0.4812    2.0125 O   0  0  0  0  0  0  0  0  0  0  0  0
    8.2742    0.5272    1.1178 C   0  0  0  0  0  0  0  0  0  0  0  0
    8.5836    0.1065   -0.3177 C   0  0  0  0  0  0  0  0  0  0  0  0
   -5.7809   -0.2694    0.8710 C   0  0  0  0  0  0  0  0  0  0  0  0
   -6.7881    0.5839    1.1096 C   0  0  0  0  0  0  0  0  0  0  0  0
   -8.0787    0.3179    0.8071 N   0  0  0  0  0  0  0  0  0  0  0  0
   -9.1718    1.0760    0.9750 N   0  0  0  0  0  0  0  0  0  0  0  0
  -10.2404    0.3936    0.5090 C   0  0  0  0  0  0  0  0  0  0  0  0
   -9.7866   -0.7846    0.0604 N   0  0  0  0  0  0  0  0  0  0  0  0
   -8.4577   -0.8285    0.2448 C   0  0  0  0  0  0  0  0  0  0  0  0
   -7.4833   -1.7874   -0.0383 C   0  0  0  0  0  0  0  0  0  0  0  0
   -7.9977   -3.0429   -0.6394 C   0  0  0  0  0  0  0  0  0  0  0  0
   -6.1681   -1.5088    0.2679 C   0  0  0  0  0  0  0  0  0  0  0  0
   -5.1781   -2.5414   -0.0770 C   0  0  0  0  0  0  0  0  0  0  0  0
   -4.7989    2.4769   -2.1615 H   0  0  0  0  0  0  0  0  0  0  0  0
   -3.2937    1.4322   -2.0155 H   0  0  0  0  0  0  0  0  0  0  0  0
   -3.2014    3.2218   -2.0186 H   0  0  0  0  0  0  0  0  0  0  0  0
   -2.9165    2.9356    0.0938 H   0  0  0  0  0  0  0  0  0  0  0  0
   -5.9200    3.2845    0.0744 H   0  0  0  0  0  0  0  0  0  0  0  0
   -4.5012    4.3465    0.4444 H   0  0  0  0  0  0  0  0  0  0  0  0
   -4.9265    3.0565    1.5574 H   0  0  0  0  0  0  0  0  0  0  0  0
   -3.7559   -1.7787    2.0385 H   0  0  0  0  0  0  0  0  0  0  0  0
   -0.9341   -2.0149    2.1735 H   0  0  0  0  0  0  0  0  0  0  0  0
    1.1230   -0.9260    1.5276 H   0  0  0  0  0  0  0  0  0  0  0  0
   -1.1097    2.1720   -0.2848 H   0  0  0  0  0  0  0  0  0  0  0  0
    1.1301    2.5617    0.2113 H   0  0  0  0  0  0  0  0  0  0  0  0
    2.7367    0.2534    1.3572 H   0  0  0  0  0  0  0  0  0  0  0  0
    2.9642    2.0164    1.4760 H   0  0  0  0  0  0  0  0  0  0  0  0
    4.0340    2.1658   -0.6537 H   0  0  0  0  0  0  0  0  0  0  0  0
    4.7276    0.8996    0.4102 H   0  0  0  0  0  0  0  0  0  0  0  0
    1.8411   -0.8465   -1.0985 H   0  0  0  0  0  0  0  0  0  0  0  0
    2.1674   -0.2166   -2.7636 H   0  0  0  0  0  0  0  0  0  0  0  0
    1.9591    2.1452   -1.8752 H   0  0  0  0  0  0  0  0  0  0  0  0
    0.4664    1.1631   -1.7773 H   0  0  0  0  0  0  0  0  0  0  0  0
    6.1332    0.7239   -0.9596 H   0  0  0  0  0  0  0  0  0  0  0  0
    6.6405    0.0551   -2.5397 H   0  0  0  0  0  0  0  0  0  0  0  0
    6.1647   -1.6648    0.0101 H   0  0  0  0  0  0  0  0  0  0  0  0
    6.6472   -2.2349   -1.6382 H   0  0  0  0  0  0  0  0  0  0  0  0
    9.2729   -2.9276   -0.0320 H   0  0  0  0  0  0  0  0  0  0  0  0
    7.6982   -2.7570    0.7996 H   0  0  0  0  0  0  0  0  0  0  0  0
   10.2787   -1.2227    1.2624 H   0  0  0  0  0  0  0  0  0  0  0  0
    9.3208   -2.2803    2.3137 H   0  0  0  0  0  0  0  0  0  0  0  0
    7.2195    0.8801    1.1837 H   0  0  0  0  0  0  0  0  0  0  0  0
    8.9447    1.3770    1.3495 H   0  0  0  0  0  0  0  0  0  0  0  0
    9.7012    0.0950   -0.3667 H   0  0  0  0  0  0  0  0  0  0  0  0
    8.1688    0.8367   -1.0103 H   0  0  0  0  0  0  0  0  0  0  0  0
   -6.6372    1.5444    1.6462 H   0  0  0  0  0  0  0  0  0  0  0  0
  -11.2517    0.7801    0.5162 H   0  0  0  0  0  0  0  0  0  0  0  0
   -9.0303   -2.8799   -1.0306 H   0  0  0  0  0  0  0  0  0  0  0  0
   -7.3803   -3.4529   -1.4600 H   0  0  0  0  0  0  0  0  0  0  0  0
   -8.0007   -3.8472    0.1645 H   0  0  0  0  0  0  0  0  0  0  0  0
   -5.1373   -3.2456    0.7921 H   0  0  0  0  0  0  0  0  0  0  0  0
   -4.1972   -2.1840   -0.3846 H   0  0  0  0  0  0  0  0  0  0  0  0
   -5.5946   -3.1626   -0.9255 H   0  0  0  0  0  0  0  0  0  0  0  0
  1  2  1  0
  2  3  1  0
  2  4  1  0
  4  5  2  0
  5  6  1  0
  6  7  1  0
  7  8  2  0
  8  9  1  0
  9 10  2  0
 10 11  1  0
 11 12  2  0
 10 13  1  0
 13 14  1  0
 14 15  1  0
 15 16  1  0
 16 17  1  0
 17 18  1  0
 16 19  1  0
 19 20  2  0
 19 21  1  0
 21 22  1  0
 22 23  1  0
 23 24  1  0
 24 25  1  0
 25 26  1  0
 26 27  1  0
 27 28  1  0
  5 29  1  0
 29 30  2  0
 30 31  1  0
 31 32  1  0
 32 33  2  0
 33 34  1  0
 34 35  2  0
 35 36  1  0
 36 37  1  0
 36 38  2  0
 38 39  1  0
 12  4  1  0
 18 13  1  0
 28 23  1  0
 38 29  1  0
 12  7  1  0
 35 31  1  0
  1 40  1  0
  1 41  1  0
  1 42  1  0
  2 43  1  0
  3 44  1  0
  3 45  1  0
  3 46  1  0
  6 47  1  0
  8 48  1  0
  9 49  1  0
 11 50  1  0
 13 51  1  0
 14 52  1  0
 14 53  1  0
 15 54  1  0
 15 55  1  0
 17 56  1  0
 17 57  1  0
 18 58  1  0
 18 59  1  0
 21 60  1  0
 21 61  1  0
 22 62  1  0
 22 63  1  0
 24 64  1  0
 24 65  1  0
 25 66  1  0
 25 67  1  0
 27 68  1  0
 27 69  1  0
 28 70  1  0
 28 71  1  0
 30 72  1  0
 33 73  1  0
 37 74  1  0
 37 75  1  0
 37 76  1  0
 39 77  1  0
 39 78  1  0
 39 79  1  0
M  END
$$$$
[H]Oc1c([H])c2c(c([H])c1O[H])[C@@]1([H])C([H])([H])C([H])([H])[C@]3(C([H])([H])[H])C(=O)C([H])([H])C([H])([H])[C@@]3([H])[C@]1([H])C([H])([H])C2([H])[H]
     RDKit          3D

 43 46  0  0  0  0  0  0  0  0999 V2000
   -2.6750    1.4268   -0.9404 C   0  0  0  0  0  0  0  0  0  0  0  0
   -2.3881    0.6885    0.3429 C   0  0  2  0  0  0  0  0  0  0  0  0
   -1.5858    1.5224    1.2936 C   0  0  0  0  0  0  0  0  0  0  0  0
   -0.1832    1.6571    0.7109 C   0  0  0  0  0  0  0  0  0  0  0  0
    0.3929    0.2964    0.5337 C   0  0  1  0  0  0  0  0  0  0  0  0
   -0.4158   -0.4555   -0.5152 C   0  0  1  0  0  0  0  0  0  0  0  0
    0.3062   -1.7159   -0.8983 C   0  0  0  0  0  0  0  0  0  0  0  0
    1.3655   -2.1159    0.1384 C   0  0  0  0  0  0  0  0  0  0  0  0
    2.3806   -1.0036    0.0698 C   0  0  0  0  0  0  0  0  0  0  0  0
    3.7060   -1.2094   -0.1768 C   0  0  0  0  0  0  0  0  0  0  0  0
    4.5255   -0.1040   -0.2139 C   0  0  0  0  0  0  0  0  0  0  0  0
    5.8748   -0.2709   -0.4609 O   0  0  0  0  0  0  0  0  0  0  0  0
    4.0036    1.1750   -0.0047 C   0  0  0  0  0  0  0  0  0  0  0  0
    4.8623    2.2752   -0.0490 O   0  0  0  0  0  0  0  0  0  0  0  0
    2.6574    1.3514    0.2427 C   0  0  0  0  0  0  0  0  0  0  0  0
    1.8399    0.2666    0.2814 C   0  0  0  0  0  0  0  0  0  0  0  0
   -1.7391   -0.6645    0.0945 C   0  0  2  0  0  0  0  0  0  0  0  0
   -2.7794   -1.3669   -0.6671 C   0  0  0  0  0  0  0  0  0  0  0  0
   -4.0345   -1.0199    0.1581 C   0  0  0  0  0  0  0  0  0  0  0  0
   -3.6883    0.2274    0.8792 C   0  0  0  0  0  0  0  0  0  0  0  0
   -4.3239    0.7774    1.7371 O   0  0  0  0  0  0  0  0  0  0  0  0
   -3.1442    2.4027   -0.6206 H   0  0  0  0  0  0  0  0  0  0  0  0
   -1.8018    1.6906   -1.5286 H   0  0  0  0  0  0  0  0  0  0  0  0
   -3.4127    0.9325   -1.5711 H   0  0  0  0  0  0  0  0  0  0  0  0
   -2.0356    2.5163    1.3478 H   0  0  0  0  0  0  0  0  0  0  0  0
   -1.5683    1.0428    2.2872 H   0  0  0  0  0  0  0  0  0  0  0  0
   -0.2757    2.1700   -0.2650 H   0  0  0  0  0  0  0  0  0  0  0  0
    0.4223    2.2422    1.4382 H   0  0  0  0  0  0  0  0  0  0  0  0
    0.2293   -0.2582    1.5046 H   0  0  0  0  0  0  0  0  0  0  0  0
   -0.4217    0.1987   -1.4116 H   0  0  0  0  0  0  0  0  0  0  0  0
   -0.4397   -2.5269   -1.0107 H   0  0  0  0  0  0  0  0  0  0  0  0
    0.8667   -1.5946   -1.8489 H   0  0  0  0  0  0  0  0  0  0  0  0
    1.7808   -3.0729   -0.1788 H   0  0  0  0  0  0  0  0  0  0  0  0
    0.8753   -2.1625    1.1111 H   0  0  0  0  0  0  0  0  0  0  0  0
    4.0654   -2.2239   -0.3334 H   0  0  0  0  0  0  0  0  0  0  0  0
    6.2502   -1.1872   -0.6111 H   0  0  0  0  0  0  0  0  0  0  0  0
    4.4845    3.1901    0.1014 H   0  0  0  0  0  0  0  0  0  0  0  0
    2.2214    2.3352    0.4096 H   0  0  0  0  0  0  0  0  0  0  0  0
   -1.6149   -1.1415    1.0871 H   0  0  0  0  0  0  0  0  0  0  0  0
   -2.5850   -2.4593   -0.6355 H   0  0  0  0  0  0  0  0  0  0  0  0
   -2.8961   -1.0355   -1.6998 H   0  0  0  0  0  0  0  0  0  0  0  0
   -4.9142   -0.9132   -0.5031 H   0  0  0  0  0  0  0  0  0  0  0  0
   -4.1874   -1.8830    0.8413 H   0  0  0  0  0  0  0  0  0  0  0  0
  2  1  1  6
  2  3  1  0
  3  4  1  0
  4  5  1  0
  5  6  1  0
  6  7  1  0
  7  8  1  0
  8  9  1  0
  9 10  2  0
 10 11  1  0
 11 12  1  0
 11 13  2  0
 13 14  1  0
 13 15  1  0
 15 16  2  0
  6 17  1  0
 17 18  1  0
 18 19  1  0
 19 20  1  0
 20 21  2  0
 17  2  1  0
 20  2  1  0
 16  5  1  0
 16  9  1  0
  1 22  1  0
  1 23  1  0
  1 24  1  0
  3 25  1  0
  3 26  1  0
  4 27  1  0
  4 28  1  0
  5 29  1  1
  6 30  1  6
  7 31  1  0
  7 32  1  0
  8 33  1  0
  8 34  1  0
 10 35  1  0
 12 36  1  0
 14 37  1  0
 15 38  1  0
 17 39  1  1
 18 40  1  0
 18 41  1  0
 19 42  1  0
 19 43  1  0
M  END
$$$$
[H]OC(=O)[C@@]([H])(N([H])C(=O)[C@@]([H])(N([H])C(=O)[C@@]([H])(N([H])C(=O)[C@@]([H])(N([H])C(=O)[C@@]([H])(N([H])C(=O)[C@@]([H])(N([H])C(=O)[C@@]([H])(N([H])C(=O)C([H])([H])[H])C([H])([H])O[H])C([H])(C([H])([H])[H])C([H])([H])[H])C([H])(C([H])([H])[H])C([H])([H])[H])C([H])([H])O[H])C([H])([H])O[H])C([H])([H])O[H])C([H])([H])O[H]
     RDKit          3D

 95 94  0  0  0  0  0  0  0  0999 V2000
  -12.7783    2.0581   -0.0823 C   0  0  0  0  0  0  0  0  0  0  0  0
  -11.8416    0.9393    0.2387 C   0  0  0  0  0  0  0  0  0  0  0  0
  -12.1527    0.0668    1.0862 O   0  0  0  0  0  0  0  0  0  0  0  0
  -10.5847    0.8470   -0.4123 N   0  0  0  0  0  0  0  0  0  0  0  0
   -9.6830   -0.2435   -0.0911 C   0  0  1  0  0  0  0  0  0  0  0  0
   -9.5672   -1.1694   -1.2983 C   0  0  0  0  0  0  0  0  0  0  0  0
  -10.8422   -1.6522   -1.5808 O   0  0  0  0  0  0  0  0  0  0  0  0
   -8.3692    0.3134    0.2849 C   0  0  0  0  0  0  0  0  0  0  0  0
   -8.1937    1.5726    0.2668 O   0  0  0  0  0  0  0  0  0  0  0  0
   -7.2813   -0.5178    0.6707 N   0  0  0  0  0  0  0  0  0  0  0  0
   -5.9946    0.0945    1.0289 C   0  0  1  0  0  0  0  0  0  0  0  0
   -5.6609   -0.2319    2.4760 C   0  0  0  0  0  0  0  0  0  0  0  0
   -5.5636   -1.7213    2.7139 C   0  0  0  0  0  0  0  0  0  0  0  0
   -6.6708    0.4152    3.4129 C   0  0  0  0  0  0  0  0  0  0  0  0
   -4.9352   -0.3607    0.1107 C   0  0  0  0  0  0  0  0  0  0  0  0
   -5.2394   -1.2463   -0.7609 O   0  0  0  0  0  0  0  0  0  0  0  0
   -3.6212    0.1367    0.1539 N   0  0  0  0  0  0  0  0  0  0  0  0
   -2.5468   -0.3099   -0.7525 C   0  0  1  0  0  0  0  0  0  0  0  0
   -2.4696    0.6973   -1.9025 C   0  0  0  0  0  0  0  0  0  0  0  0
   -1.4141    0.3173   -2.9003 C   0  0  0  0  0  0  0  0  0  0  0  0
   -2.1026    2.0775   -1.3811 C   0  0  0  0  0  0  0  0  0  0  0  0
   -1.2722   -0.3819   -0.0417 C   0  0  0  0  0  0  0  0  0  0  0  0
   -1.2792    0.1077    1.1500 O   0  0  0  0  0  0  0  0  0  0  0  0
   -0.0552   -0.9047   -0.4687 N   0  0  0  0  0  0  0  0  0  0  0  0
    1.1078   -0.8547    0.3993 C   0  0  1  0  0  0  0  0  0  0  0  0
    1.3860   -2.2407    0.9819 C   0  0  0  0  0  0  0  0  0  0  0  0
    0.2853   -2.6734    1.7234 O   0  0  0  0  0  0  0  0  0  0  0  0
    2.2589   -0.3709   -0.3816 C   0  0  0  0  0  0  0  0  0  0  0  0
    2.1872   -0.1429   -1.6314 O   0  0  0  0  0  0  0  0  0  0  0  0
    3.4975   -0.1418    0.2556 N   0  0  0  0  0  0  0  0  0  0  0  0
    4.6230    0.3218   -0.5186 C   0  0  1  0  0  0  0  0  0  0  0  0
    4.7580    1.8382   -0.3573 C   0  0  0  0  0  0  0  0  0  0  0  0
    3.5419    2.3716   -0.8406 O   0  0  0  0  0  0  0  0  0  0  0  0
    5.8433   -0.3664   -0.0472 C   0  0  0  0  0  0  0  0  0  0  0  0
    5.7948   -1.1590    0.9152 O   0  0  0  0  0  0  0  0  0  0  0  0
    7.0569   -0.0847   -0.7333 N   0  0  0  0  0  0  0  0  0  0  0  0
    8.2655   -0.7493   -0.2776 C   0  0  1  0  0  0  0  0  0  0  0  0
    8.5501   -1.8223   -1.3444 C   0  0  0  0  0  0  0  0  0  0  0  0
    8.7226   -1.1577   -2.5600 O   0  0  0  0  0  0  0  0  0  0  0  0
    9.3720    0.2201   -0.2644 C   0  0  0  0  0  0  0  0  0  0  0  0
    9.1718    1.4006   -0.6272 O   0  0  0  0  0  0  0  0  0  0  0  0
   10.6586   -0.1701    0.1537 N   0  0  0  0  0  0  0  0  0  0  0  0
   11.7745    0.7716    0.1699 C   0  0  1  0  0  0  0  0  0  0  0  0
   12.3792    0.9152    1.5523 C   0  0  0  0  0  0  0  0  0  0  0  0
   11.4090    1.3693    2.4243 O   0  0  0  0  0  0  0  0  0  0  0  0
   12.8476    0.2367   -0.7381 C   0  0  0  0  0  0  0  0  0  0  0  0
   14.0045    0.9877   -0.8646 O   0  0  0  0  0  0  0  0  0  0  0  0
   12.7347   -0.8242   -1.3589 O   0  0  0  0  0  0  0  0  0  0  0  0
  -13.8214    1.7756    0.2206 H   0  0  0  0  0  0  0  0  0  0  0  0
  -12.5168    2.9806    0.4742 H   0  0  0  0  0  0  0  0  0  0  0  0
  -12.7569    2.2255   -1.1870 H   0  0  0  0  0  0  0  0  0  0  0  0
  -10.2935    1.5651   -1.1298 H   0  0  0  0  0  0  0  0  0  0  0  0
  -10.1389   -0.8455    0.6982 H   0  0  0  0  0  0  0  0  0  0  0  0
   -9.1335   -0.6602   -2.1805 H   0  0  0  0  0  0  0  0  0  0  0  0
   -8.9679   -2.0559   -0.9700 H   0  0  0  0  0  0  0  0  0  0  0  0
  -11.1561   -1.1817   -2.4100 H   0  0  0  0  0  0  0  0  0  0  0  0
   -7.3966   -1.5434    0.6991 H   0  0  0  0  0  0  0  0  0  0  0  0
   -6.1013    1.1778    0.9247 H   0  0  0  0  0  0  0  0  0  0  0  0
   -4.6815    0.2106    2.6973 H   0  0  0  0  0  0  0  0  0  0  0  0
   -5.6158   -2.2846    1.7541 H   0  0  0  0  0  0  0  0  0  0  0  0
   -6.3413   -2.0724    3.4387 H   0  0  0  0  0  0  0  0  0  0  0  0
   -4.5942   -2.0198    3.1885 H   0  0  0  0  0  0  0  0  0  0  0  0
   -6.8024    1.4743    3.1285 H   0  0  0  0  0  0  0  0  0  0  0  0
   -6.3229    0.3998    4.4620 H   0  0  0  0  0  0  0  0  0  0  0  0
   -7.6152   -0.1622    3.3633 H   0  0  0  0  0  0  0  0  0  0  0  0
   -3.3646    0.8547    0.8518 H   0  0  0  0  0  0  0  0  0  0  0  0
   -2.8347   -1.2588   -1.1936 H   0  0  0  0  0  0  0  0  0  0  0  0
   -3.4697    0.8052   -2.3746 H   0  0  0  0  0  0  0  0  0  0  0  0
   -0.4027    0.6267   -2.6074 H   0  0  0  0  0  0  0  0  0  0  0  0
   -1.3975   -0.7638   -3.1470 H   0  0  0  0  0  0  0  0  0  0  0  0
   -1.5983    0.8223   -3.8952 H   0  0  0  0  0  0  0  0  0  0  0  0
   -0.9942    2.1940   -1.2882 H   0  0  0  0  0  0  0  0  0  0  0  0
   -2.6255    2.3271   -0.4596 H   0  0  0  0  0  0  0  0  0  0  0  0
   -2.4331    2.8072   -2.1599 H   0  0  0  0  0  0  0  0  0  0  0  0
    0.0525   -1.3463   -1.3940 H   0  0  0  0  0  0  0  0  0  0  0  0
    0.8615   -0.2206    1.2729 H   0  0  0  0  0  0  0  0  0  0  0  0
    2.2580   -2.2377    1.6405 H   0  0  0  0  0  0  0  0  0  0  0  0
    1.5356   -3.0092    0.1923 H   0  0  0  0  0  0  0  0  0  0  0  0
    0.3887   -3.6706    1.8177 H   0  0  0  0  0  0  0  0  0  0  0  0
    3.6137   -0.3044    1.2628 H   0  0  0  0  0  0  0  0  0  0  0  0
    4.3961    0.1336   -1.6064 H   0  0  0  0  0  0  0  0  0  0  0  0
    4.8313    2.1553    0.6931 H   0  0  0  0  0  0  0  0  0  0  0  0
    5.6282    2.2169   -0.9055 H   0  0  0  0  0  0  0  0  0  0  0  0
    3.6650    2.3984   -1.8431 H   0  0  0  0  0  0  0  0  0  0  0  0
    7.0623    0.5698   -1.5220 H   0  0  0  0  0  0  0  0  0  0  0  0
    8.0857   -1.2851    0.6597 H   0  0  0  0  0  0  0  0  0  0  0  0
    9.4745   -2.3549   -1.0616 H   0  0  0  0  0  0  0  0  0  0  0  0
    7.6577   -2.4626   -1.3815 H   0  0  0  0  0  0  0  0  0  0  0  0
    7.9903   -1.3827   -3.2121 H   0  0  0  0  0  0  0  0  0  0  0  0
   10.8077   -1.1590    0.4570 H   0  0  0  0  0  0  0  0  0  0  0  0
   11.4346    1.7393   -0.2266 H   0  0  0  0  0  0  0  0  0  0  0  0
   13.1952    1.6642    1.4915 H   0  0  0  0  0  0  0  0  0  0  0  0
   12.8263   -0.0385    1.8923 H   0  0  0  0  0  0  0  0  0  0  0  0
   11.4115    0.8698    3.2903 H   0  0  0  0  0  0  0  0  0  0  0  0
   14.0886    1.7476   -1.5171 H   0  0  0  0  0  0  0  0  0  0  0  0
  1  2  1  0
  2  3  2  0
  2  4  1  0
  4  5  1  0
  5  6  1  0
  6  7  1  0
  5  8  1  0
  8  9  2  0
  8 10  1  0
 10 11  1  0
 11 12  1  0
 12 13  1  0
 12 14  1  0
 11 15  1  0
 15 16  2  0
 15 17  1  0
 17 18  1  0
 18 19  1  0
 19 20  1  0
 19 21  1  0
 18 22  1  0
 22 23  2  0
 22 24  1  0
 24 25  1  0
 25 26  1  0
 26 27  1  0
 25 28  1  0
 28 29  2  0
 28 30  1  0
 30 31  1  0
 31 32  1  0
 32 33  1  0
 31 34  1  0
 34 35  2  0
 34 36  1  0
 36 37  1  0
 37 38  1  0
 38 39  1  0
 37 40  1  0
 40 41  2  0
 40 42  1  0
 42 43  1  0
 43 44  1  0
 44 45  1  0
 43 46  1  0
 46 47  1  0
 46 48  2  0
  1 49  1  0
  1 50  1  0
  1 51  1  0
  4 52  1  0
  5 53  1  1
  6 54  1  0
  6 55  1  0
  7 56  1  0
 10 57  1  0
 11 58  1  1
 12 59  1  0
 13 60  1  0
 13 61  1  0
 13 62  1  0
 14 63  1  0
 14 64  1  0
 14 65  1  0
 17 66  1  0
 18 67  1  6
 19 68  1  0
 20 69  1  0
 20 70  1  0
 20 71  1  0
 21 72  1  0
 21 73  1  0
 21 74  1  0
 24 75  1  0
 25 76  1  1
 26 77  1  0
 26 78  1  0
 27 79  1  0
 30 80  1  0
 31 81  1  6
 32 82  1  0
 32 83  1  0
 33 84  1  0
 36 85  1  0
 37 86  1  1
 38 87  1  0
 38 88  1  0
 39 89  1  0
 42 90  1  0
 43 91  1  6
 44 92  1  0
 44 93  1  0
 45 94  1  0
 47 95  1  0
M  END
$$$$
[H]c1c([H])c(Oc2c([H])c(Cl)c(Cl)c([H])c2C(=O)N([H])c2c([H])c([H])n([H])c(=O)c2[H])c(OC([H])([H])[H])c([H])c1F
     RDKit          3D

 41 43  0  0  0  0  0  0  0  0999 V2000
   -2.6783   -2.1811    0.2848 C   0  0  0  0  0  0  0  0  0  0  0  0
   -1.7929   -1.1106    0.2684 O   0  0  0  0  0  0  0  0  0  0  0  0
   -1.8477   -0.0921   -0.6118 C   0  0  0  0  0  0  0  0  0  0  0  0
   -2.8595   -0.1290   -1.5827 C   0  0  0  0  0  0  0  0  0  0  0  0
   -3.0214    0.8596   -2.5293 C   0  0  0  0  0  0  0  0  0  0  0  0
   -3.9871    0.8444   -3.4633 F   0  0  0  0  0  0  0  0  0  0  0  0
   -2.1259    1.9047   -2.4752 C   0  0  0  0  0  0  0  0  0  0  0  0
   -1.1254    1.9719   -1.5416 C   0  0  0  0  0  0  0  0  0  0  0  0
   -0.9842    0.9421   -0.5846 C   0  0  0  0  0  0  0  0  0  0  0  0
    0.0677    1.1531    0.2951 O   0  0  0  0  0  0  0  0  0  0  0  0
   -0.0711    1.0616    1.6711 C   0  0  0  0  0  0  0  0  0  0  0  0
   -0.6000    2.1970    2.2915 C   0  0  0  0  0  0  0  0  0  0  0  0
   -0.7814    2.1806    3.6459 C   0  0  0  0  0  0  0  0  0  0  0  0
   -1.4395    3.5632    4.5072 Cl  0  0  0  0  0  0  0  0  0  0  0  0
   -0.4481    1.0628    4.3777 C   0  0  0  0  0  0  0  0  0  0  0  0
   -0.6839    1.0205    6.1142 Cl  0  0  0  0  0  0  0  0  0  0  0  0
    0.0779   -0.0501    3.7454 C   0  0  0  0  0  0  0  0  0  0  0  0
    0.2803   -0.0603    2.3550 C   0  0  0  0  0  0  0  0  0  0  0  0
    1.1139   -1.1612    1.7865 C   0  0  0  0  0  0  0  0  0  0  0  0
    1.1841   -2.1901    2.5571 O   0  0  0  0  0  0  0  0  0  0  0  0
    1.6945   -1.0505    0.5956 N   0  0  0  0  0  0  0  0  0  0  0  0
    2.2984   -0.9353   -0.6431 C   0  0  0  0  0  0  0  0  0  0  0  0
    3.2724    0.0770   -0.8625 C   0  0  0  0  0  0  0  0  0  0  0  0
    3.8683    0.2485   -2.0669 C   0  0  0  0  0  0  0  0  0  0  0  0
    3.5420   -0.5429   -3.0823 N   0  0  0  0  0  0  0  0  0  0  0  0
    2.6268   -1.5191   -2.9380 C   0  0  0  0  0  0  0  0  0  0  0  0
    2.3572   -2.2333   -3.9268 O   0  0  0  0  0  0  0  0  0  0  0  0
    2.0043   -1.7233   -1.7327 C   0  0  0  0  0  0  0  0  0  0  0  0
   -2.6321   -2.6123    1.3205 H   0  0  0  0  0  0  0  0  0  0  0  0
   -3.7252   -1.7450    0.2447 H   0  0  0  0  0  0  0  0  0  0  0  0
   -2.5191   -2.9583   -0.4778 H   0  0  0  0  0  0  0  0  0  0  0  0
   -3.5536   -0.9685   -1.6009 H   0  0  0  0  0  0  0  0  0  0  0  0
   -2.2309    2.6895   -3.2021 H   0  0  0  0  0  0  0  0  0  0  0  0
   -0.4635    2.8175   -1.5608 H   0  0  0  0  0  0  0  0  0  0  0  0
   -0.8747    3.0926    1.7481 H   0  0  0  0  0  0  0  0  0  0  0  0
    0.3555   -0.9419    4.2881 H   0  0  0  0  0  0  0  0  0  0  0  0
    2.2826   -2.2727    0.7269 H   0  0  0  0  0  0  0  0  0  0  0  0
    3.5163    0.6922   -0.0376 H   0  0  0  0  0  0  0  0  0  0  0  0
    4.6222    1.0269   -2.2469 H   0  0  0  0  0  0  0  0  0  0  0  0
    4.0202   -0.3999   -4.0271 H   0  0  0  0  0  0  0  0  0  0  0  0
    1.2608   -2.5285   -1.6298 H   0  0  0  0  0  0  0  0  0  0  0  0
  1  2  1  0
  2  3  1  0
  3  4  2  0
  4  5  1  0
  5  6  1  0
  5  7  2  0
  7  8  1  0
  8  9  2  0
  9 10  1  0
 10 11  1  0
 11 12  2  0
 12 13  1  0
 13 14  1  0
 13 15  2  0
 15 16  1  0
 15 17  1  0
 17 18  2  0
 18 19  1  0
 19 20  2  0
 19 21  1  0
 21 22  1  0
 22 23  1  0
 23 24  2  0
 24 25  1  0
 25 26  1  0
 26 27  2  0
 26 28  1  0
  9  3  1  0
 18 11  1  0
 28 22  2  0
  1 29  1  0
  1 30  1  0
  1 31  1  0
  4 32  1  0
  7 33  1  0
  8 34  1  0
 12 35  1  0
 17 36  1  0
 21 37  1  0
 23 38  1  0
 24 39  1  0
 25 40  1  0
 28 41  1  0
M  END
$$$$
[H]OC([H])([H])[C@@]1(O[H])C([H])([H])[C@@]2([H])O[C@]1(C([H])([H])[H])n1c3c([H])c([H])c([H])c([H])c3c3c4c(c5c6c([H])c([H])c([H])c([H])c6n2c5c31)C([H])([H])N([H])C4=O
     RDKit          3D

 54 61  0  0  0  0  0  0  0  0999 V2000
   -3.1418    0.1931   -1.6977 C   0  0  0  0  0  0  0  0  0  0  0  0
   -2.0672   -0.2416   -0.7056 C   0  0  2  0  0  0  0  0  0  0  0  0
   -1.3646   -1.1997   -1.4964 O   0  0  0  0  0  0  0  0  0  0  0  0
   -0.7981   -2.1262   -0.6953 C   0  0  2  0  0  0  0  0  0  0  0  0
   -1.5276   -2.1485    0.6200 C   0  0  0  0  0  0  0  0  0  0  0  0
   -2.5695   -1.0630    0.4128 C   0  0  1  0  0  0  0  0  0  0  0  0
   -2.6570   -0.3884    1.6282 O   0  0  0  0  0  0  0  0  0  0  0  0
   -3.8528   -1.7770    0.0694 C   0  0  0  0  0  0  0  0  0  0  0  0
   -4.0858   -2.7043    1.1135 O   0  0  0  0  0  0  0  0  0  0  0  0
    0.5793   -1.7015   -0.4398 N   0  0  0  0  0  0  0  0  0  0  0  0
    1.6738   -2.4346   -0.3714 C   0  0  0  0  0  0  0  0  0  0  0  0
    1.8583   -3.7887   -0.5335 C   0  0  0  0  0  0  0  0  0  0  0  0
    3.1414   -4.3156   -0.4065 C   0  0  0  0  0  0  0  0  0  0  0  0
    4.2342   -3.4936   -0.1189 C   0  0  0  0  0  0  0  0  0  0  0  0
    4.0565   -2.1365    0.0448 C   0  0  0  0  0  0  0  0  0  0  0  0
    2.7810   -1.6383   -0.0852 C   0  0  0  0  0  0  0  0  0  0  0  0
    2.3012   -0.3773    0.0176 C   0  0  0  0  0  0  0  0  0  0  0  0
    2.8723    0.8606    0.3054 C   0  0  0  0  0  0  0  0  0  0  0  0
    4.2732    1.1913    0.5786 C   0  0  0  0  0  0  0  0  0  0  0  0
    4.3352    2.5993    0.8085 N   0  0  0  0  0  0  0  0  0  0  0  0
    2.9989    3.1293    0.6853 C   0  0  0  0  0  0  0  0  0  0  0  0
    2.8128    4.3449    0.8491 O   0  0  0  0  0  0  0  0  0  0  0  0
    2.1260    2.0179    0.3735 C   0  0  0  0  0  0  0  0  0  0  0  0
    0.7457    1.9615    0.1469 C   0  0  0  0  0  0  0  0  0  0  0  0
   -0.2780    2.8547    0.1442 C   0  0  0  0  0  0  0  0  0  0  0  0
   -0.3187    4.2083    0.3824 C   0  0  0  0  0  0  0  0  0  0  0  0
   -1.5450    4.8840    0.3328 C   0  0  0  0  0  0  0  0  0  0  0  0
   -2.6768    4.1782    0.0481 C   0  0  0  0  0  0  0  0  0  0  0  0
   -2.6202    2.7986   -0.1923 C   0  0  0  0  0  0  0  0  0  0  0  0
   -1.4312    2.1354   -0.1473 C   0  0  0  0  0  0  0  0  0  0  0  0
   -1.1606    0.8290   -0.3299 N   0  0  0  0  0  0  0  0  0  0  0  0
    0.1923    0.7267   -0.1399 C   0  0  0  0  0  0  0  0  0  0  0  0
    0.9525   -0.4140   -0.2008 C   0  0  0  0  0  0  0  0  0  0  0  0
   -2.7736    1.0854   -2.2392 H   0  0  0  0  0  0  0  0  0  0  0  0
   -4.1419    0.2639   -1.2813 H   0  0  0  0  0  0  0  0  0  0  0  0
   -3.2680   -0.5679   -2.5374 H   0  0  0  0  0  0  0  0  0  0  0  0
   -0.7545   -3.1251   -1.1405 H   0  0  0  0  0  0  0  0  0  0  0  0
   -0.8671   -1.9293    1.4852 H   0  0  0  0  0  0  0  0  0  0  0  0
   -1.9993   -3.1350    0.8358 H   0  0  0  0  0  0  0  0  0  0  0  0
   -3.6289   -0.2375    1.7982 H   0  0  0  0  0  0  0  0  0  0  0  0
   -4.7401   -1.1363    0.0603 H   0  0  0  0  0  0  0  0  0  0  0  0
   -3.6991   -2.3235   -0.8791 H   0  0  0  0  0  0  0  0  0  0  0  0
   -5.0082   -3.0956    0.9841 H   0  0  0  0  0  0  0  0  0  0  0  0
    1.0005   -4.4111   -0.7561 H   0  0  0  0  0  0  0  0  0  0  0  0
    3.2850   -5.3803   -0.5342 H   0  0  0  0  0  0  0  0  0  0  0  0
    5.1985   -3.9557   -0.0327 H   0  0  0  0  0  0  0  0  0  0  0  0
    4.9100   -1.5059    0.2678 H   0  0  0  0  0  0  0  0  0  0  0  0
    4.9522    0.9665   -0.2718 H   0  0  0  0  0  0  0  0  0  0  0  0
    4.6842    0.6522    1.4610 H   0  0  0  0  0  0  0  0  0  0  0  0
    5.2083    3.1735    1.0330 H   0  0  0  0  0  0  0  0  0  0  0  0
    0.5315    4.8155    0.6109 H   0  0  0  0  0  0  0  0  0  0  0  0
   -1.5422    5.9334    0.5217 H   0  0  0  0  0  0  0  0  0  0  0  0
   -3.6566    4.6541   -0.0027 H   0  0  0  0  0  0  0  0  0  0  0  0
   -3.5301    2.2946   -0.3838 H   0  0  0  0  0  0  0  0  0  0  0  0
  2  1  1  6
  2  3  1  0
  3  4  1  0
  4  5  1  0
  5  6  1  0
  6  7  1  1
  6  8  1  0
  8  9  1  0
  4 10  1  0
 10 11  1  0
 11 12  2  0
 12 13  1  0
 13 14  2  0
 14 15  1  0
 15 16  2  0
 16 17  1  0
 17 18  2  0
 18 19  1  0
 19 20  1  0
 20 21  1  0
 21 22  2  0
 21 23  1  0
 23 24  2  0
 24 25  1  0
 25 26  2  0
 26 27  1  0
 27 28  2  0
 28 29  1  0
 29 30  2  0
 30 31  1  0
 31 32  1  0
 32 33  2  0
  6  2  1  0
 33 10  1  0
 31  2  1  0
 16 11  1  0
 33 17  1  0
 23 18  1  0
 32 24  1  0
 30 25  1  0
  1 34  1  0
  1 35  1  0
  1 36  1  0
  4 37  1  6
  5 38  1  0
  5 39  1  0
  7 40  1  0
  8 41  1  0
  8 42  1  0
  9 43  1  0
 12 44  1  0
 13 45  1  0
 14 46  1  0
 15 47  1  0
 19 48  1  0
 19 49  1  0
 20 50  1  0
 26 51  1  0
 27 52  1  0
 28 53  1  0
 29 54  1  0
M  END
$$$$
[H]c1nc2c(nc([H])c(=O)n2[H])c(Oc2c([H])c([H])c(N([H])C(=O)N([H])c3c([H])c(C(F)(F)F)nn3-c3c([H])c([H])c(C([H])([H])[H])c([H])c3[H])c3c([H])c([H])c([H])c([H])c23)c1[H]
     RDKit          3D

 62 67  0  0  0  0  0  0  0  0999 V2000
    5.0221    2.7727    3.3594 C   0  0  0  0  0  0  0  0  0  0  0  0
    5.1290    1.7820    2.2284 C   0  0  0  0  0  0  0  0  0  0  0  0
    4.8653    0.4500    2.4690 C   0  0  0  0  0  0  0  0  0  0  0  0
    4.9082   -0.4774    1.4082 C   0  0  0  0  0  0  0  0  0  0  0  0
    5.2005   -0.1321    0.1317 C   0  0  0  0  0  0  0  0  0  0  0  0
    5.4764    1.2486   -0.0972 C   0  0  0  0  0  0  0  0  0  0  0  0
    5.4355    2.1593    0.9340 C   0  0  0  0  0  0  0  0  0  0  0  0
    5.2122   -0.9753   -1.0109 N   0  0  0  0  0  0  0  0  0  0  0  0
    6.1892   -1.5855   -1.6192 N   0  0  0  0  0  0  0  0  0  0  0  0
    5.7837   -2.1615   -2.7699 C   0  0  0  0  0  0  0  0  0  0  0  0
    4.4395   -1.8969   -2.8994 C   0  0  0  0  0  0  0  0  0  0  0  0
    4.0653   -1.1624   -1.8047 C   0  0  0  0  0  0  0  0  0  0  0  0
    2.8294   -0.7693   -1.3060 N   0  0  0  0  0  0  0  0  0  0  0  0
    1.6774   -0.3038   -2.0645 C   0  0  0  0  0  0  0  0  0  0  0  0
    1.9991   -0.0952   -3.3013 O   0  0  0  0  0  0  0  0  0  0  0  0
    0.4827   -0.1098   -1.4897 N   0  0  0  0  0  0  0  0  0  0  0  0
   -0.7247    0.0871   -0.9115 C   0  0  0  0  0  0  0  0  0  0  0  0
   -1.3474    1.3185   -0.9326 C   0  0  0  0  0  0  0  0  0  0  0  0
   -2.4292    1.6023   -0.1673 C   0  0  0  0  0  0  0  0  0  0  0  0
   -2.9725    0.6200    0.7042 C   0  0  0  0  0  0  0  0  0  0  0  0
   -4.0270    0.9944    1.4188 O   0  0  0  0  0  0  0  0  0  0  0  0
   -5.3283    0.8445    1.6219 C   0  0  0  0  0  0  0  0  0  0  0  0
   -5.9075    0.3736    2.8022 C   0  0  0  0  0  0  0  0  0  0  0  0
   -7.2838    0.3037    2.8422 C   0  0  0  0  0  0  0  0  0  0  0  0
   -8.0479    0.6685    1.7972 N   0  0  0  0  0  0  0  0  0  0  0  0
   -7.5326    1.1148    0.6588 C   0  0  0  0  0  0  0  0  0  0  0  0
   -8.3114    1.4922   -0.3879 N   0  0  0  0  0  0  0  0  0  0  0  0
   -7.8282    1.9624   -1.5458 C   0  0  0  0  0  0  0  0  0  0  0  0
   -8.5810    2.3002   -2.4836 O   0  0  0  0  0  0  0  0  0  0  0  0
   -6.4638    2.0478   -1.6307 C   0  0  0  0  0  0  0  0  0  0  0  0
   -5.6334    1.6920   -0.6330 N   0  0  0  0  0  0  0  0  0  0  0  0
   -6.1703    1.2147    0.5377 C   0  0  0  0  0  0  0  0  0  0  0  0
   -2.3570   -0.6043    0.7265 C   0  0  0  0  0  0  0  0  0  0  0  0
   -2.8510   -1.6290    1.5534 C   0  0  0  0  0  0  0  0  0  0  0  0
   -2.2382   -2.8600    1.5535 C   0  0  0  0  0  0  0  0  0  0  0  0
   -1.1381   -3.1417    0.7660 C   0  0  0  0  0  0  0  0  0  0  0  0
   -0.6546   -2.1421   -0.0331 C   0  0  0  0  0  0  0  0  0  0  0  0
   -1.2682   -0.8914   -0.0461 C   0  0  0  0  0  0  0  0  0  0  0  0
    6.6243   -2.9365   -3.7403 C   0  0  0  0  0  0  0  0  0  0  0  0
    6.8753   -4.1919   -3.1715 F   0  0  0  0  0  0  0  0  0  0  0  0
    5.9752   -3.1791   -4.9084 F   0  0  0  0  0  0  0  0  0  0  0  0
    7.8671   -2.3778   -3.9269 F   0  0  0  0  0  0  0  0  0  0  0  0
    4.1647    2.4192    3.9622 H   0  0  0  0  0  0  0  0  0  0  0  0
    4.8317    3.7727    2.9401 H   0  0  0  0  0  0  0  0  0  0  0  0
    5.9384    2.8027    3.9681 H   0  0  0  0  0  0  0  0  0  0  0  0
    4.6250    0.1186    3.4675 H   0  0  0  0  0  0  0  0  0  0  0  0
    4.7092   -1.5458    1.5888 H   0  0  0  0  0  0  0  0  0  0  0  0
    5.7165    1.4984   -1.1194 H   0  0  0  0  0  0  0  0  0  0  0  0
    5.6608    3.2107    0.7360 H   0  0  0  0  0  0  0  0  0  0  0  0
    3.7817   -2.1972   -3.7092 H   0  0  0  0  0  0  0  0  0  0  0  0
    2.6355   -0.9389   -0.2524 H   0  0  0  0  0  0  0  0  0  0  0  0
   -0.0206    0.3118   -2.7010 H   0  0  0  0  0  0  0  0  0  0  0  0
   -0.9813    2.1325   -1.5692 H   0  0  0  0  0  0  0  0  0  0  0  0
   -2.8866    2.5925   -0.1941 H   0  0  0  0  0  0  0  0  0  0  0  0
   -5.2521    0.0979    3.6343 H   0  0  0  0  0  0  0  0  0  0  0  0
   -7.7657   -0.0526    3.7561 H   0  0  0  0  0  0  0  0  0  0  0  0
   -9.3392    1.4155   -0.2487 H   0  0  0  0  0  0  0  0  0  0  0  0
   -6.0162    2.4162   -2.5570 H   0  0  0  0  0  0  0  0  0  0  0  0
   -3.6934   -1.4220    2.1834 H   0  0  0  0  0  0  0  0  0  0  0  0
   -2.5987   -3.6590    2.1828 H   0  0  0  0  0  0  0  0  0  0  0  0
   -0.6974   -4.1182    0.8093 H   0  0  0  0  0  0  0  0  0  0  0  0
    0.2263   -2.2812   -0.6801 H   0  0  0  0  0  0  0  0  0  0  0  0
  1  2  1  0
  2  3  2  0
  3  4  1  0
  4  5  2  0
  5  6  1  0
  6  7  2  0
  5  8  1  0
  8  9  1  0
  9 10  2  0
 10 11  1  0
 11 12  2  0
 12 13  1  0
 13 14  1  0
 14 15  2  0
 14 16  1  0
 16 17  1  0
 17 18  2  0
 18 19  1  0
 19 20  2  0
 20 21  1  0
 21 22  1  0
 22 23  2  0
 23 24  1  0
 24 25  2  0
 25 26  1  0
 26 27  1  0
 27 28  1  0
 28 29  2  0
 28 30  1  0
 30 31  2  0
 31 32  1  0
 20 33  1  0
 33 34  2  0
 34 35  1  0
 35 36  2  0
 36 37  1  0
 37 38  2  0
 10 39  1  0
 39 40  1  0
 39 41  1  0
 39 42  1  0
  7  2  1  0
 12  8  1  0
 38 17  1  0
 32 22  1  0
 38 33  1  0
 32 26  2  0
  1 43  1  0
  1 44  1  0
  1 45  1  0
  3 46  1  0
  4 47  1  0
  6 48  1  0
  7 49  1  0
 11 50  1  0
 13 51  1  0
 16 52  1  0
 18 53  1  0
 19 54  1  0
 23 55  1  0
 24 56  1  0
 27 57  1  0
 30 58  1  0
 34 59  1  0
 35 60  1  0
 36 61  1  0
 37 62  1  0
M  END
$$$$
[H]c1nc(OC([H])(C([H])([H])[H])C([H])([H])[H])c(N2C([H])([H])C([H])([H])OC([H])([H])C2([H])[H])c([H])c1-c1c(C([H])([H])[H])nc([H])c(N([H])C(=O)c2c([H])c([H])c([H])c(C(F)(F)F)c2[H])c1[H]
     RDKit          3D

 63 66  0  0  0  0  0  0  0  0999 V2000
   -5.8049    2.4824    2.2133 C   0  0  0  0  0  0  0  0  0  0  0  0
   -5.6615    2.1631    0.7597 C   0  0  0  0  0  0  0  0  0  0  0  0
   -7.0174    1.9925    0.1440 C   0  0  0  0  0  0  0  0  0  0  0  0
   -4.8895    0.9520    0.5658 O   0  0  0  0  0  0  0  0  0  0  0  0
   -3.5090    1.0775    0.3669 C   0  0  0  0  0  0  0  0  0  0  0  0
   -2.8909    2.2589    0.5621 N   0  0  0  0  0  0  0  0  0  0  0  0
   -1.5772    2.3997    0.3691 C   0  0  0  0  0  0  0  0  0  0  0  0
   -0.8303    1.3209   -0.0446 C   0  0  0  0  0  0  0  0  0  0  0  0
   -1.4391    0.0838   -0.2517 C   0  0  0  0  0  0  0  0  0  0  0  0
   -2.8078   -0.0264   -0.0383 C   0  0  0  0  0  0  0  0  0  0  0  0
   -3.4678   -1.2553   -0.2669 N   0  0  0  0  0  0  0  0  0  0  0  0
   -2.7302   -2.4886   -0.3798 C   0  0  0  0  0  0  0  0  0  0  0  0
   -3.4851   -3.5484    0.3855 C   0  0  0  0  0  0  0  0  0  0  0  0
   -4.7634   -3.7046   -0.1047 O   0  0  0  0  0  0  0  0  0  0  0  0
   -5.1353   -2.7659   -1.0447 C   0  0  0  0  0  0  0  0  0  0  0  0
   -4.9067   -1.3780   -0.4166 C   0  0  0  0  0  0  0  0  0  0  0  0
    0.5773    1.4890   -0.3741 C   0  0  0  0  0  0  0  0  0  0  0  0
    1.6125    0.7042    0.0507 C   0  0  0  0  0  0  0  0  0  0  0  0
    2.9544    0.9078   -0.3019 C   0  0  0  0  0  0  0  0  0  0  0  0
    4.0284    0.1164    0.0752 N   0  0  0  0  0  0  0  0  0  0  0  0
    4.3326   -0.7504    1.1241 C   0  0  0  0  0  0  0  0  0  0  0  0
    3.5420   -0.9719    2.0492 O   0  0  0  0  0  0  0  0  0  0  0  0
    5.6633   -1.4229    1.1188 C   0  0  0  0  0  0  0  0  0  0  0  0
    5.7771   -2.7621    1.3783 C   0  0  0  0  0  0  0  0  0  0  0  0
    7.0431   -3.3616    1.2790 C   0  0  0  0  0  0  0  0  0  0  0  0
    8.1434   -2.6297    0.9354 C   0  0  0  0  0  0  0  0  0  0  0  0
    7.9949   -1.2603    0.6785 C   0  0  0  0  0  0  0  0  0  0  0  0
    6.7544   -0.6612    0.7725 C   0  0  0  0  0  0  0  0  0  0  0  0
    9.2088   -0.4899    0.3090 C   0  0  0  0  0  0  0  0  0  0  0  0
    8.9857    0.2667   -0.8396 F   0  0  0  0  0  0  0  0  0  0  0  0
    9.4825    0.3970    1.3264 F   0  0  0  0  0  0  0  0  0  0  0  0
   10.2445   -1.3893    0.1031 F   0  0  0  0  0  0  0  0  0  0  0  0
    3.1898    2.0212   -1.1554 C   0  0  0  0  0  0  0  0  0  0  0  0
    2.2064    2.7573   -1.5514 N   0  0  0  0  0  0  0  0  0  0  0  0
    0.8965    2.5505   -1.2066 C   0  0  0  0  0  0  0  0  0  0  0  0
   -0.1029    3.4591   -1.7724 C   0  0  0  0  0  0  0  0  0  0  0  0
   -5.7366    1.5461    2.7977 H   0  0  0  0  0  0  0  0  0  0  0  0
   -5.0068    3.2151    2.5488 H   0  0  0  0  0  0  0  0  0  0  0  0
   -6.8131    2.9701    2.4144 H   0  0  0  0  0  0  0  0  0  0  0  0
   -5.0930    2.9760    0.2250 H   0  0  0  0  0  0  0  0  0  0  0  0
   -7.0317    1.3625   -0.7610 H   0  0  0  0  0  0  0  0  0  0  0  0
   -7.7492    1.5706    0.8906 H   0  0  0  0  0  0  0  0  0  0  0  0
   -7.4101    2.9966   -0.1409 H   0  0  0  0  0  0  0  0  0  0  0  0
   -1.1153    3.3888    0.5986 H   0  0  0  0  0  0  0  0  0  0  0  0
   -0.8708   -0.7945   -0.5877 H   0  0  0  0  0  0  0  0  0  0  0  0
   -1.7430   -2.4012    0.1706 H   0  0  0  0  0  0  0  0  0  0  0  0
   -2.5408   -2.7712   -1.4399 H   0  0  0  0  0  0  0  0  0  0  0  0
   -3.4868   -3.2010    1.4323 H   0  0  0  0  0  0  0  0  0  0  0  0
   -2.9336   -4.5268    0.3491 H   0  0  0  0  0  0  0  0  0  0  0  0
   -4.4961   -2.8629   -1.9677 H   0  0  0  0  0  0  0  0  0  0  0  0
   -6.1585   -2.9149   -1.3694 H   0  0  0  0  0  0  0  0  0  0  0  0
   -5.4538   -1.4300    0.5397 H   0  0  0  0  0  0  0  0  0  0  0  0
   -5.3373   -0.6612   -1.1430 H   0  0  0  0  0  0  0  0  0  0  0  0
    1.3787   -0.1485    0.7144 H   0  0  0  0  0  0  0  0  0  0  0  0
    4.8671    0.1631   -0.6638 H   0  0  0  0  0  0  0  0  0  0  0  0
    4.9219   -3.3555    1.6534 H   0  0  0  0  0  0  0  0  0  0  0  0
    7.1164   -4.4390    1.4870 H   0  0  0  0  0  0  0  0  0  0  0  0
    9.0908   -3.1267    0.8693 H   0  0  0  0  0  0  0  0  0  0  0  0
    6.6580    0.3802    0.5867 H   0  0  0  0  0  0  0  0  0  0  0  0
    4.2388    2.1986   -1.4351 H   0  0  0  0  0  0  0  0  0  0  0  0
   -0.1785    4.4283   -1.1902 H   0  0  0  0  0  0  0  0  0  0  0  0
    0.3222    3.8665   -2.7671 H   0  0  0  0  0  0  0  0  0  0  0  0
   -1.0574    3.0375   -2.0745 H   0  0  0  0  0  0  0  0  0  0  0  0
  1  2  1  0
  2  3  1  0
  2  4  1  0
  4  5  1  0
  5  6  2  0
  6  7  1  0
  7  8  2  0
  8  9  1  0
  9 10  2  0
 10 11  1  0
 11 12  1  0
 12 13  1  0
 13 14  1  0
 14 15  1  0
 15 16  1  0
  8 17  1  0
 17 18  2  0
 18 19  1  0
 19 20  1  0
 20 21  1  0
 21 22  2  0
 21 23  1  0
 23 24  2  0
 24 25  1  0
 25 26  2  0
 26 27  1  0
 27 28  2  0
 27 29  1  0
 29 30  1  0
 29 31  1  0
 29 32  1  0
 19 33  2  0
 33 34  1  0
 34 35  2  0
 35 36  1  0
 10  5  1  0
 16 11  1  0
 35 17  1  0
 28 23  1  0
  1 37  1  0
  1 38  1  0
  1 39  1  0
  2 40  1  0
  3 41  1  0
  3 42  1  0
  3 43  1  0
  7 44  1  0
  9 45  1  0
 12 46  1  0
 12 47  1  0
 13 48  1  0
 13 49  1  0
 15 50  1  0
 15 51  1  0
 16 52  1  0
 16 53  1  0
 18 54  1  0
 20 55  1  0
 24 56  1  0
 25 57  1  0
 26 58  1  0
 28 59  1  0
 33 60  1  0
 36 61  1  0
 36 62  1  0
 36 63  1  0
M  END
$$$$
[H]OC([H])([H])[C@@]([H])(C(=O)N([H])[H])N([H])C(=O)[C@@]([H])(N([H])C(=O)[C@@]([H])(N([H])C(=O)[C@@]([H])(N([H])C(=O)[C@@]([H])(N([H])C(=O)[C@@]([H])(N([H])C(=O)[C@@]([H])(N([H])C(=O)C([H])([H])[H])C([H])([H])O[H])C([H])(C([H])([H])[H])C([H])([H])[H])C([H])([H])C([H])([H])C([H])([H])N=C(N([H])[H])N([H])[H])C([H])([H])O[H])C([H])([H])O[H])C([H])([H])O[H]
     RDKit          3D

103102  0  0  0  0  0  0  0  0999 V2000
   -9.1883    6.5446   -1.1096 C   0  0  0  0  0  0  0  0  0  0  0  0
   -9.1556    5.0655   -1.2330 C   0  0  0  0  0  0  0  0  0  0  0  0
  -10.2364    4.4491   -1.4259 O   0  0  0  0  0  0  0  0  0  0  0  0
   -7.9534    4.3675   -1.1380 N   0  0  0  0  0  0  0  0  0  0  0  0
   -7.7886    2.9308   -1.2388 C   0  0  1  0  0  0  0  0  0  0  0  0
   -6.9793    2.6920   -2.5094 C   0  0  0  0  0  0  0  0  0  0  0  0
   -7.6146    3.1679   -3.6432 O   0  0  0  0  0  0  0  0  0  0  0  0
   -7.0772    2.3781   -0.0699 C   0  0  0  0  0  0  0  0  0  0  0  0
   -6.7463    3.1328    0.8668 O   0  0  0  0  0  0  0  0  0  0  0  0
   -6.7646    1.0058   -0.0091 N   0  0  0  0  0  0  0  0  0  0  0  0
   -6.0384    0.4559    1.1601 C   0  0  1  0  0  0  0  0  0  0  0  0
   -6.6228   -0.7748    1.6775 C   0  0  0  0  0  0  0  0  0  0  0  0
   -5.9033   -1.2421    2.9205 C   0  0  0  0  0  0  0  0  0  0  0  0
   -8.0835   -0.4481    2.0694 C   0  0  0  0  0  0  0  0  0  0  0  0
   -4.5809    0.5335    0.8584 C   0  0  0  0  0  0  0  0  0  0  0  0
   -4.3817    1.5955    0.0706 O   0  0  0  0  0  0  0  0  0  0  0  0
   -3.5254   -0.2523    1.2479 N   0  0  0  0  0  0  0  0  0  0  0  0
   -2.4776   -1.0293    1.6326 C   0  0  1  0  0  0  0  0  0  0  0  0
   -2.5089   -2.4940    1.8502 C   0  0  0  0  0  0  0  0  0  0  0  0
   -2.8153   -3.3935    0.7299 C   0  0  0  0  0  0  0  0  0  0  0  0
   -4.1472   -3.2493    0.1104 C   0  0  0  0  0  0  0  0  0  0  0  0
   -4.2444   -4.2339   -0.9753 N   0  0  0  0  0  0  0  0  0  0  0  0
   -4.8776   -5.3523   -0.8513 C   0  0  0  0  0  0  0  0  0  0  0  0
   -5.5330   -5.7111    0.3552 N   0  0  0  0  0  0  0  0  0  0  0  0
   -4.9183   -6.2376   -1.9455 N   0  0  0  0  0  0  0  0  0  0  0  0
   -1.4009   -0.8510    0.4950 C   0  0  0  0  0  0  0  0  0  0  0  0
   -1.8301   -0.8230   -0.6382 O   0  0  0  0  0  0  0  0  0  0  0  0
   -0.0885   -0.7340    0.8840 N   0  0  0  0  0  0  0  0  0  0  0  0
    0.9681   -0.5409   -0.0814 C   0  0  1  0  0  0  0  0  0  0  0  0
    1.1605    0.9740   -0.3248 C   0  0  0  0  0  0  0  0  0  0  0  0
   -0.0517    1.4384   -0.8328 O   0  0  0  0  0  0  0  0  0  0  0  0
    2.2073   -1.1482    0.3757 C   0  0  0  0  0  0  0  0  0  0  0  0
    2.2969   -1.7823    1.4334 O   0  0  0  0  0  0  0  0  0  0  0  0
    3.3760   -1.0045   -0.4258 N   0  0  0  0  0  0  0  0  0  0  0  0
    4.6818   -1.5343   -0.0844 C   0  0  1  0  0  0  0  0  0  0  0  0
    5.1960   -2.5105   -1.1261 C   0  0  0  0  0  0  0  0  0  0  0  0
    5.3195   -1.9046   -2.3754 O   0  0  0  0  0  0  0  0  0  0  0  0
    5.6738   -0.4216   -0.0107 C   0  0  0  0  0  0  0  0  0  0  0  0
    5.3367    0.7719   -0.2640 O   0  0  0  0  0  0  0  0  0  0  0  0
    7.0009   -0.6822    0.3435 N   0  0  0  0  0  0  0  0  0  0  0  0
    7.9479    0.4070    0.4055 C   0  0  1  0  0  0  0  0  0  0  0  0
    8.3212    0.7387    1.8446 C   0  0  0  0  0  0  0  0  0  0  0  0
    8.8965   -0.3328    2.4834 O   0  0  0  0  0  0  0  0  0  0  0  0
    9.1271    0.2283   -0.4546 C   0  0  0  0  0  0  0  0  0  0  0  0
    9.2535   -0.8182   -1.1272 O   0  0  0  0  0  0  0  0  0  0  0  0
   10.1089    1.2281   -0.5254 N   0  0  0  0  0  0  0  0  0  0  0  0
   11.3156    1.1656   -1.3355 C   0  0  1  0  0  0  0  0  0  0  0  0
   11.3704    2.2577   -2.3598 C   0  0  0  0  0  0  0  0  0  0  0  0
   12.5412    2.1449   -3.0840 O   0  0  0  0  0  0  0  0  0  0  0  0
   12.4825    1.3080   -0.4512 C   0  0  0  0  0  0  0  0  0  0  0  0
   13.7840    1.3446   -0.9719 N   0  0  0  0  0  0  0  0  0  0  0  0
   12.2994    1.3979    0.7878 O   0  0  0  0  0  0  0  0  0  0  0  0
  -10.1730    6.9827   -1.4098 H   0  0  0  0  0  0  0  0  0  0  0  0
   -8.3922    6.9566   -1.7906 H   0  0  0  0  0  0  0  0  0  0  0  0
   -8.9087    6.9006   -0.0950 H   0  0  0  0  0  0  0  0  0  0  0  0
   -7.0360    4.8915   -0.9761 H   0  0  0  0  0  0  0  0  0  0  0  0
   -8.7856    2.4778   -1.3792 H   0  0  0  0  0  0  0  0  0  0  0  0
   -6.7859    1.5985   -2.6376 H   0  0  0  0  0  0  0  0  0  0  0  0
   -5.9885    3.1788   -2.4376 H   0  0  0  0  0  0  0  0  0  0  0  0
   -8.3400    3.7924   -3.4966 H   0  0  0  0  0  0  0  0  0  0  0  0
   -7.0528    0.3848   -0.7897 H   0  0  0  0  0  0  0  0  0  0  0  0
   -6.1995    1.2626    1.9637 H   0  0  0  0  0  0  0  0  0  0  0  0
   -6.6645   -1.6148    0.9320 H   0  0  0  0  0  0  0  0  0  0  0  0
   -5.1348   -0.5483    3.2560 H   0  0  0  0  0  0  0  0  0  0  0  0
   -6.6420   -1.2832    3.7895 H   0  0  0  0  0  0  0  0  0  0  0  0
   -5.4539   -2.2468    2.8128 H   0  0  0  0  0  0  0  0  0  0  0  0
   -8.6594   -1.3568    2.2367 H   0  0  0  0  0  0  0  0  0  0  0  0
   -8.4947    0.2257    1.3054 H   0  0  0  0  0  0  0  0  0  0  0  0
   -7.9832    0.1793    3.0039 H   0  0  0  0  0  0  0  0  0  0  0  0
   -2.6783    0.7316    0.8582 H   0  0  0  0  0  0  0  0  0  0  0  0
   -1.8417   -0.5788    2.4784 H   0  0  0  0  0  0  0  0  0  0  0  0
   -3.1764   -2.7685    2.7230 H   0  0  0  0  0  0  0  0  0  0  0  0
   -1.4896   -2.8465    2.2577 H   0  0  0  0  0  0  0  0  0  0  0  0
   -1.9841   -3.3691   -0.0412 H   0  0  0  0  0  0  0  0  0  0  0  0
   -2.7115   -4.4587    1.1300 H   0  0  0  0  0  0  0  0  0  0  0  0
   -4.2786   -2.2776   -0.3599 H   0  0  0  0  0  0  0  0  0  0  0  0
   -4.9518   -3.4914    0.8642 H   0  0  0  0  0  0  0  0  0  0  0  0
   -5.0857   -6.1983    1.1433 H   0  0  0  0  0  0  0  0  0  0  0  0
   -6.5596   -5.4619    0.4555 H   0  0  0  0  0  0  0  0  0  0  0  0
   -5.4932   -7.1137   -1.9320 H   0  0  0  0  0  0  0  0  0  0  0  0
   -4.3701   -6.0478   -2.8155 H   0  0  0  0  0  0  0  0  0  0  0  0
    0.2468   -0.7732    1.8921 H   0  0  0  0  0  0  0  0  0  0  0  0
    0.5669   -0.9325   -1.0612 H   0  0  0  0  0  0  0  0  0  0  0  0
    1.3636    1.5210    0.5962 H   0  0  0  0  0  0  0  0  0  0  0  0
    1.9408    1.1601   -1.0649 H   0  0  0  0  0  0  0  0  0  0  0  0
    0.0092    1.6683   -1.7715 H   0  0  0  0  0  0  0  0  0  0  0  0
    3.2997   -0.4823   -1.3187 H   0  0  0  0  0  0  0  0  0  0  0  0
    4.5838   -2.0762    0.8715 H   0  0  0  0  0  0  0  0  0  0  0  0
    4.5483   -3.4101   -1.1827 H   0  0  0  0  0  0  0  0  0  0  0  0
    6.2030   -2.8902   -0.8626 H   0  0  0  0  0  0  0  0  0  0  0  0
    6.2527   -1.6163   -2.5850 H   0  0  0  0  0  0  0  0  0  0  0  0
    7.3100   -1.6418    0.5622 H   0  0  0  0  0  0  0  0  0  0  0  0
    7.4354    1.3477    0.0417 H   0  0  0  0  0  0  0  0  0  0  0  0
    9.0776    1.5471    1.8113 H   0  0  0  0  0  0  0  0  0  0  0  0
    7.4306    1.1672    2.3576 H   0  0  0  0  0  0  0  0  0  0  0  0
    9.0084   -0.1266    3.4587 H   0  0  0  0  0  0  0  0  0  0  0  0
    9.9481    2.1063    0.0687 H   0  0  0  0  0  0  0  0  0  0  0  0
   11.3064    0.1985   -1.8816 H   0  0  0  0  0  0  0  0  0  0  0  0
   11.3725    3.2755   -1.8828 H   0  0  0  0  0  0  0  0  0  0  0  0
   10.5347    2.1845   -3.1024 H   0  0  0  0  0  0  0  0  0  0  0  0
   13.1499    2.9103   -3.0257 H   0  0  0  0  0  0  0  0  0  0  0  0
   14.2698    0.4932   -1.3017 H   0  0  0  0  0  0  0  0  0  0  0  0
   14.3255    2.2514   -1.0449 H   0  0  0  0  0  0  0  0  0  0  0  0
  1  2  1  0
  2  3  2  0
  2  4  1  0
  4  5  1  0
  5  6  1  0
  6  7  1  0
  5  8  1  0
  8  9  2  0
  8 10  1  0
 10 11  1  0
 11 12  1  0
 12 13  1  0
 12 14  1  0
 11 15  1  0
 15 16  2  0
 15 17  1  0
 17 18  1  0
 18 19  1  0
 19 20  1  0
 20 21  1  0
 21 22  1  0
 22 23  2  3
 23 24  1  0
 23 25  1  0
 18 26  1  0
 26 27  2  0
 26 28  1  0
 28 29  1  0
 29 30  1  0
 30 31  1  0
 29 32  1  0
 32 33  2  0
 32 34  1  0
 34 35  1  0
 35 36  1  0
 36 37  1  0
 35 38  1  0
 38 39  2  0
 38 40  1  0
 40 41  1  0
 41 42  1  0
 42 43  1  0
 41 44  1  0
 44 45  2  0
 44 46  1  0
 46 47  1  0
 47 48  1  0
 48 49  1  0
 47 50  1  0
 50 51  1  0
 50 52  2  0
  1 53  1  0
  1 54  1  0
  1 55  1  0
  4 56  1  0
  5 57  1  6
  6 58  1  0
  6 59  1  0
  7 60  1  0
 10 61  1  0
 11 62  1  1
 12 63  1  0
 13 64  1  0
 13 65  1  0
 13 66  1  0
 14 67  1  0
 14 68  1  0
 14 69  1  0
 17 70  1  0
 18 71  1  1
 19 72  1  0
 19 73  1  0
 20 74  1  0
 20 75  1  0
 21 76  1  0
 21 77  1  0
 24 78  1  0
 24 79  1  0
 25 80  1  0
 25 81  1  0
 28 82  1  0
 29 83  1  6
 30 84  1  0
 30 85  1  0
 31 86  1  0
 34 87  1  0
 35 88  1  1
 36 89  1  0
 36 90  1  0
 37 91  1  0
 40 92  1  0
 41 93  1  6
 42 94  1  0
 42 95  1  0
 43 96  1  0
 46 97  1  0
 47 98  1  6
 48 99  1  0
 48100  1  0
 49101  1  0
 51102  1  0
 51103  1  0
M  END
$$$$
[H]OB(O[H])[C@@]([H])(N([H])C(=O)[C@@]([H])(N([H])C(=O)[C@]1([H])OC(=O)[C@@]1([H])[C@@]([H])(C([H])([H])[H])C([H])([H])C([H])([H])[H])C([H])(C([H])([H])[H])C([H])([H])[H])C([H])([H])c1c([H])c([H])c([H])c([H])c1[H]
     RDKit          3D

 61 62  0  0  0  0  0  0  0  0999 V2000
    7.1542    2.7095   -2.0254 C   0  0  0  0  0  0  0  0  0  0  0  0
    5.6577    2.4916   -1.9710 C   0  0  0  0  0  0  0  0  0  0  0  0
    5.3352    1.2612   -1.1521 C   0  0  2  0  0  0  0  0  0  0  0  0
    5.9535    0.0189   -1.7255 C   0  0  0  0  0  0  0  0  0  0  0  0
    3.8678    1.0509   -0.9731 C   0  0  1  0  0  0  0  0  0  0  0  0
    3.5943   -0.1775   -0.1575 C   0  0  1  0  0  0  0  0  0  0  0  0
    3.8523    0.6301    0.9713 O   0  0  0  0  0  0  0  0  0  0  0  0
    3.3688    1.7112    0.2536 C   0  0  0  0  0  0  0  0  0  0  0  0
    2.7607    2.7978    0.5309 O   0  0  0  0  0  0  0  0  0  0  0  0
    2.2217   -0.6850   -0.1546 C   0  0  0  0  0  0  0  0  0  0  0  0
    1.7812   -1.4266   -1.0893 O   0  0  0  0  0  0  0  0  0  0  0  0
    1.3385   -0.3614    0.8983 N   0  0  0  0  0  0  0  0  0  0  0  0
   -0.0579   -0.8724    0.9104 C   0  0  1  0  0  0  0  0  0  0  0  0
   -0.2385   -1.6826    2.1833 C   0  0  0  0  0  0  0  0  0  0  0  0
    0.7904   -2.8260    2.1398 C   0  0  0  0  0  0  0  0  0  0  0  0
   -1.5805   -2.3350    2.3168 C   0  0  0  0  0  0  0  0  0  0  0  0
   -0.9971    0.2617    0.9440 C   0  0  0  0  0  0  0  0  0  0  0  0
   -0.4933    1.4258    1.1148 O   0  0  0  0  0  0  0  0  0  0  0  0
   -2.3938    0.1471    0.7984 N   0  0  0  0  0  0  0  0  0  0  0  0
   -3.2893    1.2854    0.8433 C   0  0  1  0  0  0  0  0  0  0  0  0
   -3.9286    1.5313   -0.5192 C   0  0  0  0  0  0  0  0  0  0  0  0
   -4.7204    0.3676   -0.9908 C   0  0  0  0  0  0  0  0  0  0  0  0
   -6.0566    0.2744   -0.6744 C   0  0  0  0  0  0  0  0  0  0  0  0
   -6.8190   -0.8140   -1.1133 C   0  0  0  0  0  0  0  0  0  0  0  0
   -6.2382   -1.8088   -1.8703 C   0  0  0  0  0  0  0  0  0  0  0  0
   -4.8934   -1.7345   -2.2003 C   0  0  0  0  0  0  0  0  0  0  0  0
   -4.1629   -0.6532   -1.7567 C   0  0  0  0  0  0  0  0  0  0  0  0
   -4.3560    1.0511    1.9786 B   0  0  0  0  0  0  0  0  0  0  0  0
   -4.9343    2.1778    2.7414 O   0  0  0  0  0  0  0  0  0  0  0  0
   -4.8288   -0.2780    2.3326 O   0  0  0  0  0  0  0  0  0  0  0  0
    7.4028    3.7822   -2.2087 H   0  0  0  0  0  0  0  0  0  0  0  0
    7.5460    2.5000   -0.9963 H   0  0  0  0  0  0  0  0  0  0  0  0
    7.6581    2.0391   -2.7363 H   0  0  0  0  0  0  0  0  0  0  0  0
    5.1705    3.3933   -1.5977 H   0  0  0  0  0  0  0  0  0  0  0  0
    5.3451    2.2674   -3.0210 H   0  0  0  0  0  0  0  0  0  0  0  0
    5.7863    1.4304   -0.1494 H   0  0  0  0  0  0  0  0  0  0  0  0
    6.8154    0.2203   -2.3728 H   0  0  0  0  0  0  0  0  0  0  0  0
    6.3270   -0.6453   -0.9071 H   0  0  0  0  0  0  0  0  0  0  0  0
    5.1717   -0.6037   -2.2485 H   0  0  0  0  0  0  0  0  0  0  0  0
    3.2363    1.1842   -1.8712 H   0  0  0  0  0  0  0  0  0  0  0  0
    4.3856   -0.9427   -0.3593 H   0  0  0  0  0  0  0  0  0  0  0  0
    1.6732    0.2428    1.6772 H   0  0  0  0  0  0  0  0  0  0  0  0
   -0.1469   -1.5185    0.0248 H   0  0  0  0  0  0  0  0  0  0  0  0
   -0.0662   -1.0628    3.0850 H   0  0  0  0  0  0  0  0  0  0  0  0
    0.6718   -3.4895    3.0244 H   0  0  0  0  0  0  0  0  0  0  0  0
    1.7991   -2.3396    2.2233 H   0  0  0  0  0  0  0  0  0  0  0  0
    0.6976   -3.3732    1.1950 H   0  0  0  0  0  0  0  0  0  0  0  0
   -2.3161   -1.6463    2.7883 H   0  0  0  0  0  0  0  0  0  0  0  0
   -1.4398   -3.1627    3.0804 H   0  0  0  0  0  0  0  0  0  0  0  0
   -1.9371   -2.8480    1.4220 H   0  0  0  0  0  0  0  0  0  0  0  0
   -2.8258   -0.7750    0.6379 H   0  0  0  0  0  0  0  0  0  0  0  0
   -2.7283    2.2367    1.0628 H   0  0  0  0  0  0  0  0  0  0  0  0
   -4.5044    2.4779   -0.5239 H   0  0  0  0  0  0  0  0  0  0  0  0
   -3.1062    1.7050   -1.2660 H   0  0  0  0  0  0  0  0  0  0  0  0
   -6.5740    1.0146   -0.0870 H   0  0  0  0  0  0  0  0  0  0  0  0
   -7.8670   -0.9177   -0.8841 H   0  0  0  0  0  0  0  0  0  0  0  0
   -6.7694   -2.6753   -2.2410 H   0  0  0  0  0  0  0  0  0  0  0  0
   -4.4011   -2.5025   -2.7962 H   0  0  0  0  0  0  0  0  0  0  0  0
   -3.1133   -0.5589   -1.9924 H   0  0  0  0  0  0  0  0  0  0  0  0
   -5.0673    1.9386    3.6993 H   0  0  0  0  0  0  0  0  0  0  0  0
   -4.5114   -0.9950    1.7549 H   0  0  0  0  0  0  0  0  0  0  0  0
  1  2  1  0
  2  3  1  0
  3  4  1  0
  3  5  1  0
  5  6  1  0
  6  7  1  0
  7  8  1  0
  8  9  2  0
  6 10  1  0
 10 11  2  0
 10 12  1  0
 12 13  1  0
 13 14  1  0
 14 15  1  0
 14 16  1  0
 13 17  1  0
 17 18  2  0
 17 19  1  0
 19 20  1  0
 20 21  1  0
 21 22  1  0
 22 23  2  0
 23 24  1  0
 24 25  2  0
 25 26  1  0
 26 27  2  0
 20 28  1  0
 28 29  1  0
 28 30  1  0
  8  5  1  0
 27 22  1  0
  1 31  1  0
  1 32  1  0
  1 33  1  0
  2 34  1  0
  2 35  1  0
  3 36  1  1
  4 37  1  0
  4 38  1  0
  4 39  1  0
  5 40  1  6
  6 41  1  6
 12 42  1  0
 13 43  1  6
 14 44  1  0
 15 45  1  0
 15 46  1  0
 15 47  1  0
 16 48  1  0
 16 49  1  0
 16 50  1  0
 19 51  1  0
 20 52  1  1
 21 53  1  0
 21 54  1  0
 23 55  1  0
 24 56  1  0
 25 57  1  0
 26 58  1  0
 27 59  1  0
 29 60  1  0
 30 61  1  0
M  END
$$$$
[H]c1c([H])c([H])c(-c2nc3c([H])c(N([H])C(=O)[C@]([H])(Oc4c([H])c([H])c([H])c5c([H])c([H])c([H])c([H])c45)C([H])([H])[H])c([H])c([H])c3o2)c([H])c1[H]
     RDKit          3D

 51 55  0  0  0  0  0  0  0  0999 V2000
   -2.9056   -3.1107    2.6380 C   0  0  0  0  0  0  0  0  0  0  0  0
   -3.0263   -2.0485    1.4887 C   0  0  1  0  0  0  0  0  0  0  0  0
   -3.0004   -0.8217    1.9009 O   0  0  0  0  0  0  0  0  0  0  0  0
   -3.2434    0.4261    2.1414 C   0  0  0  0  0  0  0  0  0  0  0  0
   -2.3985    1.1751    2.9939 C   0  0  0  0  0  0  0  0  0  0  0  0
   -2.6132    2.4975    3.2789 C   0  0  0  0  0  0  0  0  0  0  0  0
   -3.6900    3.1593    2.7285 C   0  0  0  0  0  0  0  0  0  0  0  0
   -4.5478    2.4702    1.8865 C   0  0  0  0  0  0  0  0  0  0  0  0
   -5.6408    3.1060    1.3153 C   0  0  0  0  0  0  0  0  0  0  0  0
   -6.5273    2.4751    0.4718 C   0  0  0  0  0  0  0  0  0  0  0  0
   -6.3038    1.1463    0.1908 C   0  0  0  0  0  0  0  0  0  0  0  0
   -5.2060    0.4876    0.7578 C   0  0  0  0  0  0  0  0  0  0  0  0
   -4.3238    1.1275    1.6016 C   0  0  0  0  0  0  0  0  0  0  0  0
   -1.8069   -2.4026    0.6400 C   0  0  0  0  0  0  0  0  0  0  0  0
   -1.6982   -3.5722    0.2110 O   0  0  0  0  0  0  0  0  0  0  0  0
   -0.8638   -1.4083    0.3775 N   0  0  0  0  0  0  0  0  0  0  0  0
    0.3356   -1.5028   -0.3815 C   0  0  0  0  0  0  0  0  0  0  0  0
    0.5606   -2.5290   -1.2574 C   0  0  0  0  0  0  0  0  0  0  0  0
    1.7848   -2.5449   -1.9402 C   0  0  0  0  0  0  0  0  0  0  0  0
    2.7454   -1.5798   -1.7597 C   0  0  0  0  0  0  0  0  0  0  0  0
    3.9269   -1.3679   -2.2521 O   0  0  0  0  0  0  0  0  0  0  0  0
    4.4805   -0.2998   -1.7732 C   0  0  0  0  0  0  0  0  0  0  0  0
    3.5972    0.2202   -0.9079 N   0  0  0  0  0  0  0  0  0  0  0  0
    2.4834   -0.5649   -0.8723 C   0  0  0  0  0  0  0  0  0  0  0  0
    1.3036   -0.5330   -0.2019 C   0  0  0  0  0  0  0  0  0  0  0  0
    5.7886    0.2720   -2.0717 C   0  0  0  0  0  0  0  0  0  0  0  0
    6.2141    1.4250   -1.4536 C   0  0  0  0  0  0  0  0  0  0  0  0
    7.4524    1.9835   -1.7258 C   0  0  0  0  0  0  0  0  0  0  0  0
    8.3125    1.3938   -2.6388 C   0  0  0  0  0  0  0  0  0  0  0  0
    7.8911    0.2392   -3.2602 C   0  0  0  0  0  0  0  0  0  0  0  0
    6.6551   -0.3058   -2.9792 C   0  0  0  0  0  0  0  0  0  0  0  0
   -3.7640   -3.0098    3.3082 H   0  0  0  0  0  0  0  0  0  0  0  0
   -1.9216   -2.9025    3.0930 H   0  0  0  0  0  0  0  0  0  0  0  0
   -2.9633   -4.1073    2.1581 H   0  0  0  0  0  0  0  0  0  0  0  0
   -3.8737   -2.4307    0.8410 H   0  0  0  0  0  0  0  0  0  0  0  0
   -1.5649    0.6081    3.4017 H   0  0  0  0  0  0  0  0  0  0  0  0
   -1.9468    3.0336    3.9328 H   0  0  0  0  0  0  0  0  0  0  0  0
   -3.9059    4.1913    2.9159 H   0  0  0  0  0  0  0  0  0  0  0  0
   -5.7762    4.1477    1.5647 H   0  0  0  0  0  0  0  0  0  0  0  0
   -7.3666    3.0207    0.0522 H   0  0  0  0  0  0  0  0  0  0  0  0
   -6.9952    0.6441   -0.4707 H   0  0  0  0  0  0  0  0  0  0  0  0
   -5.0553   -0.5399    0.5240 H   0  0  0  0  0  0  0  0  0  0  0  0
   -1.0618   -0.4366    0.7870 H   0  0  0  0  0  0  0  0  0  0  0  0
   -0.1558   -3.3335   -1.4706 H   0  0  0  0  0  0  0  0  0  0  0  0
    1.9766   -3.3568   -2.6409 H   0  0  0  0  0  0  0  0  0  0  0  0
    1.1285    0.2868    0.4958 H   0  0  0  0  0  0  0  0  0  0  0  0
    5.5478    1.8925   -0.7387 H   0  0  0  0  0  0  0  0  0  0  0  0
    7.7767    2.8834   -1.2370 H   0  0  0  0  0  0  0  0  0  0  0  0
    9.2922    1.8255   -2.8626 H   0  0  0  0  0  0  0  0  0  0  0  0
    8.5728   -0.2116   -3.9720 H   0  0  0  0  0  0  0  0  0  0  0  0
    6.3205   -1.2178   -3.4687 H   0  0  0  0  0  0  0  0  0  0  0  0
  1  2  1  0
  2  3  1  0
  3  4  1  0
  4  5  2  0
  5  6  1  0
  6  7  2  0
  7  8  1  0
  8  9  2  0
  9 10  1  0
 10 11  2  0
 11 12  1  0
 12 13  2  0
  2 14  1  0
 14 15  2  0
 14 16  1  0
 16 17  1  0
 17 18  2  0
 18 19  1  0
 19 20  2  0
 20 21  1  0
 21 22  1  0
 22 23  2  0
 23 24  1  0
 24 25  2  0
 22 26  1  0
 26 27  2  0
 27 28  1  0
 28 29  2  0
 29 30  1  0
 30 31  2  0
 13  4  1  0
 25 17  1  0
 31 26  1  0
 13  8  1  0
 24 20  1  0
  1 32  1  0
  1 33  1  0
  1 34  1  0
  2 35  1  6
  5 36  1  0
  6 37  1  0
  7 38  1  0
  9 39  1  0
 10 40  1  0
 11 41  1  0
 12 42  1  0
 16 43  1  0
 18 44  1  0
 19 45  1  0
 25 46  1  0
 27 47  1  0
 28 48  1  0
 29 49  1  0
 30 50  1  0
 31 51  1  0
M  END
$$$$
[H]C1=C2C([H])([H])C([H])([H])[C@@]3([H])[C@]4([H])C([H])([H])[C@@]([H])(C([H])([H])C([H])([H])[H])C(=O)[C@@]4(C([H])([H])[H])C([H])([H])C([H])([H])[C@]3([H])[C@@]2(C([H])([H])[H])C([H])([H])C([H])([H])C1=O
     RDKit          3D

 53 56  0  0  0  0  0  0  0  0999 V2000
    4.8010    1.3945   -0.9164 C   0  0  0  0  0  0  0  0  0  0  0  0
    4.2830    0.3992    0.0831 C   0  0  0  0  0  0  0  0  0  0  0  0
    3.5740   -0.7750   -0.5957 C   0  0  2  0  0  0  0  0  0  0  0  0
    2.3912   -0.2924   -1.4138 C   0  0  0  0  0  0  0  0  0  0  0  0
    1.3132   -0.2900   -0.4134 C   0  0  1  0  0  0  0  0  0  0  0  0
   -0.0803   -0.1953   -0.8865 C   0  0  2  0  0  0  0  0  0  0  0  0
   -0.3208    0.9035   -1.8550 C   0  0  0  0  0  0  0  0  0  0  0  0
   -1.0164    2.0937   -1.2955 C   0  0  0  0  0  0  0  0  0  0  0  0
   -2.2791    1.6244   -0.6487 C   0  0  0  0  0  0  0  0  0  0  0  0
   -3.4005    2.3142   -0.7471 C   0  0  0  0  0  0  0  0  0  0  0  0
   -4.5842    1.7946   -0.0914 C   0  0  0  0  0  0  0  0  0  0  0  0
   -5.7205    1.9236   -0.5969 O   0  0  0  0  0  0  0  0  0  0  0  0
   -4.4414    1.0994    1.2012 C   0  0  0  0  0  0  0  0  0  0  0  0
   -3.0320    0.5903    1.4224 C   0  0  0  0  0  0  0  0  0  0  0  0
   -2.3077    0.3554    0.1255 C   0  0  1  0  0  0  0  0  0  0  0  0
   -3.1003   -0.6819   -0.6425 C   0  0  0  0  0  0  0  0  0  0  0  0
   -0.9150   -0.0566    0.3994 C   0  0  1  0  0  0  0  0  0  0  0  0
   -0.7577   -1.3399    1.1452 C   0  0  0  0  0  0  0  0  0  0  0  0
    0.6857   -1.5824    1.5311 C   0  0  0  0  0  0  0  0  0  0  0  0
    1.5330   -1.6218    0.3081 C   0  0  1  0  0  0  0  0  0  0  0  0
    1.2406   -2.7990   -0.5849 C   0  0  0  0  0  0  0  0  0  0  0  0
    2.9806   -1.5717    0.5449 C   0  0  0  0  0  0  0  0  0  0  0  0
    3.6873   -2.0231    1.4194 O   0  0  0  0  0  0  0  0  0  0  0  0
    5.1678    0.9372   -1.8519 H   0  0  0  0  0  0  0  0  0  0  0  0
    4.0194    2.1460   -1.1741 H   0  0  0  0  0  0  0  0  0  0  0  0
    5.6080    1.9771   -0.3990 H   0  0  0  0  0  0  0  0  0  0  0  0
    3.6104    0.9066    0.7837 H   0  0  0  0  0  0  0  0  0  0  0  0
    5.0989   -0.0543    0.6836 H   0  0  0  0  0  0  0  0  0  0  0  0
    4.2840   -1.3633   -1.1726 H   0  0  0  0  0  0  0  0  0  0  0  0
    2.6717    0.7105   -1.7993 H   0  0  0  0  0  0  0  0  0  0  0  0
    2.2097   -1.0224   -2.2153 H   0  0  0  0  0  0  0  0  0  0  0  0
    1.4820    0.4951    0.3600 H   0  0  0  0  0  0  0  0  0  0  0  0
   -0.4668   -1.1431   -1.3555 H   0  0  0  0  0  0  0  0  0  0  0  0
   -0.8886    0.5764   -2.7652 H   0  0  0  0  0  0  0  0  0  0  0  0
    0.6732    1.2483   -2.2592 H   0  0  0  0  0  0  0  0  0  0  0  0
   -0.3938    2.6785   -0.5886 H   0  0  0  0  0  0  0  0  0  0  0  0
   -1.2970    2.7602   -2.1365 H   0  0  0  0  0  0  0  0  0  0  0  0
   -3.4065    3.2415   -1.3139 H   0  0  0  0  0  0  0  0  0  0  0  0
   -4.7039    1.8578    1.9949 H   0  0  0  0  0  0  0  0  0  0  0  0
   -5.1644    0.2757    1.3389 H   0  0  0  0  0  0  0  0  0  0  0  0
   -3.0630   -0.2968    2.0857 H   0  0  0  0  0  0  0  0  0  0  0  0
   -2.4970    1.3892    2.0006 H   0  0  0  0  0  0  0  0  0  0  0  0
   -3.4177   -0.2574   -1.6167 H   0  0  0  0  0  0  0  0  0  0  0  0
   -4.0199   -0.9998   -0.1100 H   0  0  0  0  0  0  0  0  0  0  0  0
   -2.4907   -1.5919   -0.8430 H   0  0  0  0  0  0  0  0  0  0  0  0
   -0.4160    0.7399    0.9798 H   0  0  0  0  0  0  0  0  0  0  0  0
   -1.0554   -2.1947    0.4797 H   0  0  0  0  0  0  0  0  0  0  0  0
   -1.4020   -1.4275    2.0384 H   0  0  0  0  0  0  0  0  0  0  0  0
    1.0657   -0.7959    2.2045 H   0  0  0  0  0  0  0  0  0  0  0  0
    0.7181   -2.5764    2.0539 H   0  0  0  0  0  0  0  0  0  0  0  0
    2.1321   -3.4902   -0.6371 H   0  0  0  0  0  0  0  0  0  0  0  0
    0.9928   -2.5430   -1.6130 H   0  0  0  0  0  0  0  0  0  0  0  0
    0.4154   -3.4470   -0.1751 H   0  0  0  0  0  0  0  0  0  0  0  0
  1  2  1  0
  2  3  1  0
  3  4  1  0
  4  5  1  0
  5  6  1  0
  6  7  1  0
  7  8  1  0
  8  9  1  0
  9 10  2  0
 10 11  1  0
 11 12  2  0
 11 13  1  0
 13 14  1  0
 14 15  1  0
 15 16  1  6
 15 17  1  0
 17 18  1  0
 18 19  1  0
 19 20  1  0
 20 21  1  6
 20 22  1  0
 22 23  2  0
 22  3  1  0
 20  5  1  0
 17  6  1  0
 15  9  1  0
  1 24  1  0
  1 25  1  0
  1 26  1  0
  2 27  1  0
  2 28  1  0
  3 29  1  6
  4 30  1  0
  4 31  1  0
  5 32  1  1
  6 33  1  6
  7 34  1  0
  7 35  1  0
  8 36  1  0
  8 37  1  0
 10 38  1  0
 13 39  1  0
 13 40  1  0
 14 41  1  0
 14 42  1  0
 16 43  1  0
 16 44  1  0
 16 45  1  0
 17 46  1  1
 18 47  1  0
 18 48  1  0
 19 49  1  0
 19 50  1  0
 21 51  1  0
 21 52  1  0
 21 53  1  0
M  END
$$$$
[H]c1c([H])c(C2=NN(C3([H])C([H])([H])C([H])([H])N(C(=O)C([H])([H])N4C(=O)C([H])([H])C([H])([H])C4=O)C([H])([H])C3([H])[H])C(=O)C2(C([H])([H])[H])C([H])([H])[H])c([H])c(OC([H])([H])[H])c1OC([H])([H])[H]
     RDKit          3D

 64 67  0  0  0  0  0  0  0  0999 V2000
    9.2009   -0.5555    0.0854 C   0  0  0  0  0  0  0  0  0  0  0  0
    8.0187   -1.2520   -0.1745 O   0  0  0  0  0  0  0  0  0  0  0  0
    6.7431   -0.7287   -0.0327 C   0  0  0  0  0  0  0  0  0  0  0  0
    6.5154    0.5662    0.3906 C   0  0  0  0  0  0  0  0  0  0  0  0
    5.1962    1.0016    0.5023 C   0  0  0  0  0  0  0  0  0  0  0  0
    4.1112    0.2046    0.2115 C   0  0  0  0  0  0  0  0  0  0  0  0
    4.3800   -1.1045   -0.2155 C   0  0  0  0  0  0  0  0  0  0  0  0
    5.6748   -1.5472   -0.3302 C   0  0  0  0  0  0  0  0  0  0  0  0
    5.9181   -2.8439   -0.7537 O   0  0  0  0  0  0  0  0  0  0  0  0
    4.8548   -3.7401   -1.0768 C   0  0  0  0  0  0  0  0  0  0  0  0
    2.7397    0.6757    0.3337 C   0  0  0  0  0  0  0  0  0  0  0  0
    1.7045   -0.0389    0.0719 N   0  0  0  0  0  0  0  0  0  0  0  0
    0.5288    0.6450    0.2693 N   0  0  0  0  0  0  0  0  0  0  0  0
   -0.8455    0.1825    0.0823 C   0  0  0  0  0  0  0  0  0  0  0  0
   -1.5708    0.2721    1.3769 C   0  0  0  0  0  0  0  0  0  0  0  0
   -2.8536    1.0589    1.3048 C   0  0  0  0  0  0  0  0  0  0  0  0
   -3.5802    0.6204    0.1397 N   0  0  0  0  0  0  0  0  0  0  0  0
   -2.9289    0.8375   -1.1521 C   0  0  0  0  0  0  0  0  0  0  0  0
   -1.4447    1.0034   -1.0217 C   0  0  0  0  0  0  0  0  0  0  0  0
   -4.8537    0.0103    0.1999 C   0  0  0  0  0  0  0  0  0  0  0  0
   -5.3871   -0.1628    1.3193 O   0  0  0  0  0  0  0  0  0  0  0  0
   -5.5694   -0.4263   -1.0112 C   0  0  0  0  0  0  0  0  0  0  0  0
   -6.8489   -1.0190   -0.6805 N   0  0  0  0  0  0  0  0  0  0  0  0
   -7.1287   -2.3872   -0.4056 C   0  0  0  0  0  0  0  0  0  0  0  0
   -6.2725   -3.3146   -0.3875 O   0  0  0  0  0  0  0  0  0  0  0  0
   -8.5697   -2.5920   -0.1392 C   0  0  0  0  0  0  0  0  0  0  0  0
   -9.2149   -1.2654   -0.4166 C   0  0  0  0  0  0  0  0  0  0  0  0
   -8.1003   -0.3203   -0.5664 C   0  0  0  0  0  0  0  0  0  0  0  0
   -8.2219    0.9384   -0.5917 O   0  0  0  0  0  0  0  0  0  0  0  0
    0.8405    1.9553    0.7105 C   0  0  0  0  0  0  0  0  0  0  0  0
    0.0908    2.9165    1.0107 O   0  0  0  0  0  0  0  0  0  0  0  0
    2.3300    2.0222    0.7684 C   0  0  0  0  0  0  0  0  0  0  0  0
    2.8187    3.1173   -0.1602 C   0  0  0  0  0  0  0  0  0  0  0  0
    2.7567    2.2624    2.2028 C   0  0  0  0  0  0  0  0  0  0  0  0
    9.4800    0.1260   -0.7383 H   0  0  0  0  0  0  0  0  0  0  0  0
   10.0219   -1.3154    0.1911 H   0  0  0  0  0  0  0  0  0  0  0  0
    9.1889    0.0095    1.0325 H   0  0  0  0  0  0  0  0  0  0  0  0
    7.3247    1.2329    0.6316 H   0  0  0  0  0  0  0  0  0  0  0  0
    5.0234    2.0207    0.8357 H   0  0  0  0  0  0  0  0  0  0  0  0
    3.5343   -1.7381   -0.4464 H   0  0  0  0  0  0  0  0  0  0  0  0
    4.2409   -3.1900   -1.8467 H   0  0  0  0  0  0  0  0  0  0  0  0
    5.2309   -4.6345   -1.5823 H   0  0  0  0  0  0  0  0  0  0  0  0
    4.1876   -3.9266   -0.2250 H   0  0  0  0  0  0  0  0  0  0  0  0
   -0.7805   -0.8741   -0.2657 H   0  0  0  0  0  0  0  0  0  0  0  0
   -1.8431   -0.7588    1.7395 H   0  0  0  0  0  0  0  0  0  0  0  0
   -0.9641    0.7155    2.2038 H   0  0  0  0  0  0  0  0  0  0  0  0
   -2.7032    2.1447    1.2297 H   0  0  0  0  0  0  0  0  0  0  0  0
   -3.4104    0.8706    2.2448 H   0  0  0  0  0  0  0  0  0  0  0  0
   -3.3388    1.8044   -1.5361 H   0  0  0  0  0  0  0  0  0  0  0  0
   -3.2289    0.0605   -1.8785 H   0  0  0  0  0  0  0  0  0  0  0  0
   -0.9958    0.6187   -1.9837 H   0  0  0  0  0  0  0  0  0  0  0  0
   -1.1215    2.0579   -0.9565 H   0  0  0  0  0  0  0  0  0  0  0  0
   -4.9377   -1.1231   -1.6342 H   0  0  0  0  0  0  0  0  0  0  0  0
   -5.7723    0.4441   -1.6997 H   0  0  0  0  0  0  0  0  0  0  0  0
   -8.7647   -2.9390    0.9078 H   0  0  0  0  0  0  0  0  0  0  0  0
   -8.9565   -3.3824   -0.8436 H   0  0  0  0  0  0  0  0  0  0  0  0
   -9.8590   -0.9628    0.4573 H   0  0  0  0  0  0  0  0  0  0  0  0
   -9.8962   -1.2829   -1.2877 H   0  0  0  0  0  0  0  0  0  0  0  0
    1.9570    3.5931   -0.6626 H   0  0  0  0  0  0  0  0  0  0  0  0
    3.3253    3.8764    0.4756 H   0  0  0  0  0  0  0  0  0  0  0  0
    3.4651    2.6778   -0.9198 H   0  0  0  0  0  0  0  0  0  0  0  0
    1.8719    2.2345    2.8597 H   0  0  0  0  0  0  0  0  0  0  0  0
    3.4270    1.4149    2.5212 H   0  0  0  0  0  0  0  0  0  0  0  0
    3.2615    3.2337    2.2656 H   0  0  0  0  0  0  0  0  0  0  0  0
  1  2  1  0
  2  3  1  0
  3  4  2  0
  4  5  1  0
  5  6  2  0
  6  7  1  0
  7  8  2  0
  8  9  1  0
  9 10  1  0
  6 11  1  0
 11 12  2  0
 12 13  1  0
 13 14  1  0
 14 15  1  0
 15 16  1  0
 16 17  1  0
 17 18  1  0
 18 19  1  0
 17 20  1  0
 20 21  2  0
 20 22  1  0
 22 23  1  0
 23 24  1  0
 24 25  2  0
 24 26  1  0
 26 27  1  0
 27 28  1  0
 28 29  2  0
 13 30  1  0
 30 31  2  0
 30 32  1  0
 32 33  1  0
 32 34  1  0
  8  3  1  0
 32 11  1  0
 19 14  1  0
 28 23  1  0
  1 35  1  0
  1 36  1  0
  1 37  1  0
  4 38  1  0
  5 39  1  0
  7 40  1  0
 10 41  1  0
 10 42  1  0
 10 43  1  0
 14 44  1  0
 15 45  1  0
 15 46  1  0
 16 47  1  0
 16 48  1  0
 18 49  1  0
 18 50  1  0
 19 51  1  0
 19 52  1  0
 22 53  1  0
 22 54  1  0
 26 55  1  0
 26 56  1  0
 27 57  1  0
 27 58  1  0
 33 59  1  0
 33 60  1  0
 33 61  1  0
 34 62  1  0
 34 63  1  0
 34 64  1  0
M  END
$$$$
[H]N=C(N([H])[H])N([H])C([H])([H])C([H])([H])C([H])([H])[C@@]([H])(C(=O)O[H])N([H])C(=O)[C@]([H])(N([H])C(=O)[C@@]([H])(N([H])C(=O)[C@@]([H])(N([H])C(=O)[C@@]([H])(N([H])C(=O)[C@]([H])(N([H])C(=O)[C@@]([H])(N([H])C(=O)C([H])(C([H])([H])O[H])C([H])([H])O[H])C([H])([H])O[H])C([H])([H])O[H])C([H])([H])O[H])C([H])([H])O[H])C([H])([H])O[H])C([H])([H])O[H]
     RDKit          3D

105104  0  0  0  0  0  0  0  0999 V2000
  -12.0570    4.0703    0.0989 N   0  0  0  0  0  0  0  0  0  0  0  0
  -12.9362    3.1812    0.7563 C   0  0  0  0  0  0  0  0  0  0  0  0
  -13.3257    3.4434    1.9754 N   0  0  0  0  0  0  0  0  0  0  0  0
  -13.3663    2.0415    0.0362 N   0  0  0  0  0  0  0  0  0  0  0  0
  -12.6013    1.2002   -0.8159 C   0  0  0  0  0  0  0  0  0  0  0  0
  -11.6073    0.3443   -0.1111 C   0  0  0  0  0  0  0  0  0  0  0  0
  -10.5727    1.0762    0.6461 C   0  0  0  0  0  0  0  0  0  0  0  0
   -9.5527    0.1042    1.2792 C   0  0  2  0  0  0  0  0  0  0  0  0
   -8.8933   -0.6437    0.2052 N   0  0  0  0  0  0  0  0  0  0  0  0
   -7.5658   -0.3408   -0.1668 C   0  0  0  0  0  0  0  0  0  0  0  0
   -6.9946    0.5997    0.4864 O   0  0  0  0  0  0  0  0  0  0  0  0
   -6.7868   -1.0037   -1.2342 C   0  0  1  0  0  0  0  0  0  0  0  0
   -7.5125   -0.7816   -2.5578 C   0  0  0  0  0  0  0  0  0  0  0  0
   -8.7406   -1.4075   -2.4786 O   0  0  0  0  0  0  0  0  0  0  0  0
   -5.4860   -0.3777   -1.2777 N   0  0  0  0  0  0  0  0  0  0  0  0
   -4.2998   -1.1233   -1.2821 C   0  0  0  0  0  0  0  0  0  0  0  0
   -4.3693   -2.3689   -1.2473 O   0  0  0  0  0  0  0  0  0  0  0  0
   -2.9548   -0.5111   -1.3272 C   0  0  2  0  0  0  0  0  0  0  0  0
   -2.8889    0.3782   -2.5606 C   0  0  0  0  0  0  0  0  0  0  0  0
   -2.9451   -0.4557   -3.6947 O   0  0  0  0  0  0  0  0  0  0  0  0
   -1.8513   -1.3966   -1.3423 N   0  0  0  0  0  0  0  0  0  0  0  0
   -0.8770   -1.5445   -0.3527 C   0  0  0  0  0  0  0  0  0  0  0  0
   -0.9419   -0.8580    0.6897 O   0  0  0  0  0  0  0  0  0  0  0  0
    0.2347   -2.5029   -0.5219 C   0  0  2  0  0  0  0  0  0  0  0  0
   -0.2101   -3.9066   -0.8494 C   0  0  0  0  0  0  0  0  0  0  0  0
   -0.9361   -4.4666    0.2101 O   0  0  0  0  0  0  0  0  0  0  0  0
    1.0899   -2.4750    0.6602 N   0  0  0  0  0  0  0  0  0  0  0  0
    2.2619   -1.6842    0.7470 C   0  0  0  0  0  0  0  0  0  0  0  0
    2.6224   -0.9445   -0.1926 O   0  0  0  0  0  0  0  0  0  0  0  0
    3.1049   -1.7207    1.9832 C   0  0  2  0  0  0  0  0  0  0  0  0
    2.2308   -1.5575    3.1744 C   0  0  0  0  0  0  0  0  0  0  0  0
    3.0142   -1.6536    4.3397 O   0  0  0  0  0  0  0  0  0  0  0  0
    4.1414   -0.7440    1.8784 N   0  0  0  0  0  0  0  0  0  0  0  0
    5.4941   -0.9807    1.5462 C   0  0  0  0  0  0  0  0  0  0  0  0
    5.8560   -2.1540    1.2881 O   0  0  0  0  0  0  0  0  0  0  0  0
    6.4976    0.0898    1.4891 C   0  0  1  0  0  0  0  0  0  0  0  0
    6.7922    0.5148    2.9449 C   0  0  0  0  0  0  0  0  0  0  0  0
    5.6363    0.9564    3.5518 O   0  0  0  0  0  0  0  0  0  0  0  0
    7.7582   -0.3662    0.8910 N   0  0  0  0  0  0  0  0  0  0  0  0
    8.5838    0.5036    0.1805 C   0  0  0  0  0  0  0  0  0  0  0  0
    8.2476    1.7210    0.0628 O   0  0  0  0  0  0  0  0  0  0  0  0
    9.8473    0.0491   -0.4430 C   0  0  2  0  0  0  0  0  0  0  0  0
   10.2540   -1.3151    0.0226 C   0  0  0  0  0  0  0  0  0  0  0  0
   11.3174   -1.7699   -0.7707 O   0  0  0  0  0  0  0  0  0  0  0  0
   10.8916    1.0403   -0.3686 N   0  0  0  0  0  0  0  0  0  0  0  0
   11.4281    1.7292   -1.4666 C   0  0  0  0  0  0  0  0  0  0  0  0
   11.0171    1.5220   -2.6314 O   0  0  0  0  0  0  0  0  0  0  0  0
   12.5191    2.7413   -1.2723 C   0  0  0  0  0  0  0  0  0  0  0  0
   12.9313    3.3779   -2.5718 C   0  0  0  0  0  0  0  0  0  0  0  0
   13.9436    4.2917   -2.2904 O   0  0  0  0  0  0  0  0  0  0  0  0
   13.7024    1.9486   -0.7346 C   0  0  0  0  0  0  0  0  0  0  0  0
   14.7512    2.8272   -0.5285 O   0  0  0  0  0  0  0  0  0  0  0  0
  -10.2882   -0.8093    2.1689 C   0  0  0  0  0  0  0  0  0  0  0  0
  -10.9474   -0.2644    3.2650 O   0  0  0  0  0  0  0  0  0  0  0  0
  -10.3691   -2.0401    2.0200 O   0  0  0  0  0  0  0  0  0  0  0  0
  -11.1296    4.2810    0.5011 H   0  0  0  0  0  0  0  0  0  0  0  0
  -12.3509    4.5083   -0.7897 H   0  0  0  0  0  0  0  0  0  0  0  0
  -13.9730    2.7776    2.4446 H   0  0  0  0  0  0  0  0  0  0  0  0
  -14.4046    1.7795    0.1468 H   0  0  0  0  0  0  0  0  0  0  0  0
  -13.3228    0.5394   -1.3905 H   0  0  0  0  0  0  0  0  0  0  0  0
  -12.0865    1.8611   -1.5852 H   0  0  0  0  0  0  0  0  0  0  0  0
  -12.1662   -0.3082    0.6212 H   0  0  0  0  0  0  0  0  0  0  0  0
  -11.0867   -0.3006   -0.8664 H   0  0  0  0  0  0  0  0  0  0  0  0
  -11.0212    1.5912    1.5129 H   0  0  0  0  0  0  0  0  0  0  0  0
  -10.0498    1.8181    0.0251 H   0  0  0  0  0  0  0  0  0  0  0  0
   -8.8655    0.7433    1.8508 H   0  0  0  0  0  0  0  0  0  0  0  0
   -9.4870   -1.3878   -0.2177 H   0  0  0  0  0  0  0  0  0  0  0  0
   -6.7041   -2.0968   -1.1273 H   0  0  0  0  0  0  0  0  0  0  0  0
   -7.7247    0.3059   -2.7104 H   0  0  0  0  0  0  0  0  0  0  0  0
   -6.9596   -1.2100   -3.4148 H   0  0  0  0  0  0  0  0  0  0  0  0
   -8.7474   -2.3510   -2.7930 H   0  0  0  0  0  0  0  0  0  0  0  0
   -5.4437    0.6546   -1.3064 H   0  0  0  0  0  0  0  0  0  0  0  0
   -2.8463    0.1872   -0.4414 H   0  0  0  0  0  0  0  0  0  0  0  0
   -1.9267    0.9123   -2.6110 H   0  0  0  0  0  0  0  0  0  0  0  0
   -3.7162    1.1175   -2.5792 H   0  0  0  0  0  0  0  0  0  0  0  0
   -2.0651   -0.5851   -4.1169 H   0  0  0  0  0  0  0  0  0  0  0  0
   -1.7720   -2.0060   -2.2105 H   0  0  0  0  0  0  0  0  0  0  0  0
    0.8213   -2.0798   -1.3999 H   0  0  0  0  0  0  0  0  0  0  0  0
   -0.8953   -3.8298   -1.7227 H   0  0  0  0  0  0  0  0  0  0  0  0
    0.6751   -4.5210   -1.0686 H   0  0  0  0  0  0  0  0  0  0  0  0
   -0.9397   -5.4438    0.1822 H   0  0  0  0  0  0  0  0  0  0  0  0
    0.8182   -3.0635    1.4676 H   0  0  0  0  0  0  0  0  0  0  0  0
    3.6411   -2.7208    2.0155 H   0  0  0  0  0  0  0  0  0  0  0  0
    1.7616   -0.5438    3.1103 H   0  0  0  0  0  0  0  0  0  0  0  0
    1.4538   -2.3304    3.2484 H   0  0  0  0  0  0  0  0  0  0  0  0
    3.0302   -2.5971    4.5959 H   0  0  0  0  0  0  0  0  0  0  0  0
    3.8635    0.2572    2.0560 H   0  0  0  0  0  0  0  0  0  0  0  0
    6.2045    1.0230    0.9953 H   0  0  0  0  0  0  0  0  0  0  0  0
    7.5478    1.3516    2.9426 H   0  0  0  0  0  0  0  0  0  0  0  0
    7.1906   -0.3602    3.4758 H   0  0  0  0  0  0  0  0  0  0  0  0
    5.3532    1.8567    3.1969 H   0  0  0  0  0  0  0  0  0  0  0  0
    7.9754   -1.3682    1.0441 H   0  0  0  0  0  0  0  0  0  0  0  0
    9.6150   -0.0799   -1.5608 H   0  0  0  0  0  0  0  0  0  0  0  0
    9.4104   -2.0278   -0.2068 H   0  0  0  0  0  0  0  0  0  0  0  0
   10.4445   -1.3968    1.0991 H   0  0  0  0  0  0  0  0  0  0  0  0
   11.0840   -1.4849   -1.7032 H   0  0  0  0  0  0  0  0  0  0  0  0
   11.2654    1.2438    0.6066 H   0  0  0  0  0  0  0  0  0  0  0  0
   12.2805    3.4878   -0.5047 H   0  0  0  0  0  0  0  0  0  0  0  0
   13.2970    2.6290   -3.2936 H   0  0  0  0  0  0  0  0  0  0  0  0
   12.0880    3.9352   -3.0401 H   0  0  0  0  0  0  0  0  0  0  0  0
   14.6418    4.3126   -3.0164 H   0  0  0  0  0  0  0  0  0  0  0  0
   13.9333    1.1789   -1.4939 H   0  0  0  0  0  0  0  0  0  0  0  0
   13.3514    1.4710    0.2016 H   0  0  0  0  0  0  0  0  0  0  0  0
   15.4551    2.4202    0.0064 H   0  0  0  0  0  0  0  0  0  0  0  0
  -11.8088    0.2658    3.1185 H   0  0  0  0  0  0  0  0  0  0  0  0
  1  2  1  0
  2  3  2  3
  2  4  1  0
  4  5  1  0
  5  6  1  0
  6  7  1  0
  7  8  1  0
  8  9  1  0
  9 10  1  0
 10 11  2  0
 10 12  1  0
 12 13  1  0
 13 14  1  0
 12 15  1  0
 15 16  1  0
 16 17  2  0
 16 18  1  0
 18 19  1  0
 19 20  1  0
 18 21  1  0
 21 22  1  0
 22 23  2  0
 22 24  1  0
 24 25  1  0
 25 26  1  0
 24 27  1  0
 27 28  1  0
 28 29  2  0
 28 30  1  0
 30 31  1  0
 31 32  1  0
 30 33  1  0
 33 34  1  0
 34 35  2  0
 34 36  1  0
 36 37  1  0
 37 38  1  0
 36 39  1  0
 39 40  1  0
 40 41  2  0
 40 42  1  0
 42 43  1  0
 43 44  1  0
 42 45  1  0
 45 46  1  0
 46 47  2  0
 46 48  1  0
 48 49  1  0
 49 50  1  0
 48 51  1  0
 51 52  1  0
  8 53  1  0
 53 54  1  0
 53 55  2  0
  1 56  1  0
  1 57  1  0
  3 58  1  0
  4 59  1  0
  5 60  1  0
  5 61  1  0
  6 62  1  0
  6 63  1  0
  7 64  1  0
  7 65  1  0
  8 66  1  1
  9 67  1  0
 12 68  1  1
 13 69  1  0
 13 70  1  0
 14 71  1  0
 15 72  1  0
 18 73  1  1
 19 74  1  0
 19 75  1  0
 20 76  1  0
 21 77  1  0
 24 78  1  6
 25 79  1  0
 25 80  1  0
 26 81  1  0
 27 82  1  0
 30 83  1  1
 31 84  1  0
 31 85  1  0
 32 86  1  0
 33 87  1  0
 36 88  1  6
 37 89  1  0
 37 90  1  0
 38 91  1  0
 39 92  1  0
 42 93  1  6
 43 94  1  0
 43 95  1  0
 44 96  1  0
 45 97  1  0
 48 98  1  0
 49 99  1  0
 49100  1  0
 50101  1  0
 51102  1  0
 51103  1  0
 52104  1  0
 54105  1  0
M  END
$$$$
[H]c1nc(N([H])c2c([H])c([H])c(N3C([H])([H])C([H])([H])N(C([H])(C([H])([H])[H])C([H])([H])[H])C([H])([H])C3([H])[H])c([H])c2OC([H])([H])[H])nc(N([H])c2c([H])c([H])c([H])c([H])c2S(=O)(=O)C([H])(C([H])([H])[H])C([H])([H])[H])c1Cl
     RDKit          3D

 73 76  0  0  0  0  0  0  0  0999 V2000
    1.7459   -4.0589   -0.0736 C   0  0  0  0  0  0  0  0  0  0  0  0
    0.9975   -2.8664   -0.1438 O   0  0  0  0  0  0  0  0  0  0  0  0
    1.6912   -1.6509    0.0131 C   0  0  0  0  0  0  0  0  0  0  0  0
    3.0377   -1.6397    0.2223 C   0  0  0  0  0  0  0  0  0  0  0  0
    3.7807   -0.4723    0.3845 C   0  0  0  0  0  0  0  0  0  0  0  0
    3.0658    0.6903    0.3198 C   0  0  0  0  0  0  0  0  0  0  0  0
    1.6705    0.7103    0.1044 C   0  0  0  0  0  0  0  0  0  0  0  0
    0.9847   -0.4408   -0.0488 C   0  0  0  0  0  0  0  0  0  0  0  0
   -0.3913   -0.5412   -0.2119 N   0  0  0  0  0  0  0  0  0  0  0  0
   -1.2589    0.4838   -0.6389 C   0  0  0  0  0  0  0  0  0  0  0  0
   -0.7856    1.6851   -0.9759 N   0  0  0  0  0  0  0  0  0  0  0  0
   -1.5619    2.6913   -1.3993 C   0  0  0  0  0  0  0  0  0  0  0  0
   -2.9101    2.4276   -1.4737 C   0  0  0  0  0  0  0  0  0  0  0  0
   -4.0353    3.6674   -2.0239 Cl  0  0  0  0  0  0  0  0  0  0  0  0
   -3.4422    1.1933   -1.1316 C   0  0  0  0  0  0  0  0  0  0  0  0
   -4.8349    0.9794   -1.2123 N   0  0  0  0  0  0  0  0  0  0  0  0
   -5.6066   -0.1435   -0.9296 C   0  0  0  0  0  0  0  0  0  0  0  0
   -5.1155   -1.3905   -0.5878 C   0  0  0  0  0  0  0  0  0  0  0  0
   -5.9217   -2.4986   -0.3254 C   0  0  0  0  0  0  0  0  0  0  0  0
   -7.2735   -2.3263   -0.4156 C   0  0  0  0  0  0  0  0  0  0  0  0
   -7.7793   -1.0913   -0.7551 C   0  0  0  0  0  0  0  0  0  0  0  0
   -7.0095    0.0175   -1.0186 C   0  0  0  0  0  0  0  0  0  0  0  0
   -7.7703    1.5041   -1.4481 S   0  0  0  0  0  0  0  0  0  0  0  0
   -7.4722    1.9809   -2.8289 O   0  0  0  0  0  0  0  0  0  0  0  0
   -7.3778    2.6273   -0.4952 O   0  0  0  0  0  0  0  0  0  0  0  0
   -9.5405    1.3079   -1.3496 C   0  0  0  0  0  0  0  0  0  0  0  0
   -9.9592    1.1802    0.0874 C   0  0  0  0  0  0  0  0  0  0  0  0
  -10.2285    2.5513   -1.9020 C   0  0  0  0  0  0  0  0  0  0  0  0
   -2.6111    0.2446   -0.7211 N   0  0  0  0  0  0  0  0  0  0  0  0
    5.1682   -0.5539    0.5818 N   0  0  0  0  0  0  0  0  0  0  0  0
    5.8628   -1.7748    0.2060 C   0  0  0  0  0  0  0  0  0  0  0  0
    7.3232   -1.4714   -0.0646 C   0  0  0  0  0  0  0  0  0  0  0  0
    7.9345   -0.6523    0.8881 N   0  0  0  0  0  0  0  0  0  0  0  0
    7.1917    0.1331    1.7760 C   0  0  0  0  0  0  0  0  0  0  0  0
    5.8747    0.5689    1.1616 C   0  0  0  0  0  0  0  0  0  0  0  0
    9.1432   -0.0162    0.4705 C   0  0  0  0  0  0  0  0  0  0  0  0
    8.9334    0.9402   -0.6607 C   0  0  0  0  0  0  0  0  0  0  0  0
    9.8709    0.7000    1.5903 C   0  0  0  0  0  0  0  0  0  0  0  0
    2.4065   -4.2087   -0.9522 H   0  0  0  0  0  0  0  0  0  0  0  0
    1.0472   -4.9400   -0.0748 H   0  0  0  0  0  0  0  0  0  0  0  0
    2.3814   -4.1196    0.8473 H   0  0  0  0  0  0  0  0  0  0  0  0
    3.5668   -2.6048    0.2638 H   0  0  0  0  0  0  0  0  0  0  0  0
    3.6235    1.6255    0.4403 H   0  0  0  0  0  0  0  0  0  0  0  0
    1.2279    1.7107    0.0988 H   0  0  0  0  0  0  0  0  0  0  0  0
   -0.8756   -1.4990    0.0159 H   0  0  0  0  0  0  0  0  0  0  0  0
   -1.2173    3.6679   -1.6798 H   0  0  0  0  0  0  0  0  0  0  0  0
   -5.3783    1.8309   -1.5609 H   0  0  0  0  0  0  0  0  0  0  0  0
   -4.0528   -1.5803   -0.5095 H   0  0  0  0  0  0  0  0  0  0  0  0
   -5.5189   -3.4453   -0.0664 H   0  0  0  0  0  0  0  0  0  0  0  0
   -7.9757   -3.1563   -0.2235 H   0  0  0  0  0  0  0  0  0  0  0  0
   -8.8789   -1.0194   -0.8200 H   0  0  0  0  0  0  0  0  0  0  0  0
   -9.8828    0.4780   -1.9853 H   0  0  0  0  0  0  0  0  0  0  0  0
   -9.0611    0.8334    0.6781 H   0  0  0  0  0  0  0  0  0  0  0  0
  -10.8027    0.4809    0.2508 H   0  0  0  0  0  0  0  0  0  0  0  0
  -10.1828    2.1843    0.4997 H   0  0  0  0  0  0  0  0  0  0  0  0
  -10.4409    3.2339   -1.0589 H   0  0  0  0  0  0  0  0  0  0  0  0
  -11.1218    2.2869   -2.4853 H   0  0  0  0  0  0  0  0  0  0  0  0
   -9.5074    3.0974   -2.5678 H   0  0  0  0  0  0  0  0  0  0  0  0
    5.3522   -2.2139   -0.6686 H   0  0  0  0  0  0  0  0  0  0  0  0
    5.8157   -2.4980    1.0338 H   0  0  0  0  0  0  0  0  0  0  0  0
    7.3323   -0.9736   -1.0730 H   0  0  0  0  0  0  0  0  0  0  0  0
    7.9121   -2.4086   -0.2102 H   0  0  0  0  0  0  0  0  0  0  0  0
    6.9693   -0.3588    2.7620 H   0  0  0  0  0  0  0  0  0  0  0  0
    7.7416    1.1062    1.9612 H   0  0  0  0  0  0  0  0  0  0  0  0
    6.0173    1.4117    0.4570 H   0  0  0  0  0  0  0  0  0  0  0  0
    5.2799    1.0039    2.0119 H   0  0  0  0  0  0  0  0  0  0  0  0
    9.8669   -0.8087    0.1180 H   0  0  0  0  0  0  0  0  0  0  0  0
    9.1949    1.9866   -0.3556 H   0  0  0  0  0  0  0  0  0  0  0  0
    9.5418    0.6374   -1.5545 H   0  0  0  0  0  0  0  0  0  0  0  0
    7.8848    0.9654   -0.9567 H   0  0  0  0  0  0  0  0  0  0  0  0
    9.7553    0.1812    2.5611 H   0  0  0  0  0  0  0  0  0  0  0  0
   10.9623    0.6603    1.3458 H   0  0  0  0  0  0  0  0  0  0  0  0
    9.6264    1.7570    1.6876 H   0  0  0  0  0  0  0  0  0  0  0  0
  1  2  1  0
  2  3  1  0
  3  4  2  0
  4  5  1  0
  5  6  2  0
  6  7  1  0
  7  8  2  0
  8  9  1  0
  9 10  1  0
 10 11  2  0
 11 12  1  0
 12 13  2  0
 13 14  1  0
 13 15  1  0
 15 16  1  0
 16 17  1  0
 17 18  2  0
 18 19  1  0
 19 20  2  0
 20 21  1  0
 21 22  2  0
 22 23  1  0
 23 24  2  0
 23 25  2  0
 23 26  1  0
 26 27  1  0
 26 28  1  0
 15 29  2  0
  5 30  1  0
 30 31  1  0
 31 32  1  0
 32 33  1  0
 33 34  1  0
 34 35  1  0
 33 36  1  0
 36 37  1  0
 36 38  1  0
  8  3  1  0
 29 10  1  0
 35 30  1  0
 22 17  1  0
  1 39  1  0
  1 40  1  0
  1 41  1  0
  4 42  1  0
  6 43  1  0
  7 44  1  0
  9 45  1  0
 12 46  1  0
 16 47  1  0
 18 48  1  0
 19 49  1  0
 20 50  1  0
 21 51  1  0
 26 52  1  0
 27 53  1  0
 27 54  1  0
 27 55  1  0
 28 56  1  0
 28 57  1  0
 28 58  1  0
 31 59  1  0
 31 60  1  0
 32 61  1  0
 32 62  1  0
 34 63  1  0
 34 64  1  0
 35 65  1  0
 35 66  1  0
 36 67  1  0
 37 68  1  0
 37 69  1  0
 37 70  1  0
 38 71  1  0
 38 72  1  0
 38 73  1  0
M  END
$$$$
[H]c1c([H])c([H])c2c(c1[H])c1c3c(c4c5c([H])c([H])c([H])c([H])c5n5c4c1n2[C@@]1([H])O[C@@]5(C([H])([H])[H])[C@@]([H])(N([H])C([H])([H])[H])C1([H])[H])C([H])([H])N([H])C3=O
     RDKit          2D

 54 61  0  0  0  0  0  0  0  0999 V2000
    3.8173    0.5402    0.0000 C   0  0  0  0  0  0  0  0  0  0  0  0
    2.3907    1.0037    0.0000 N   0  0  0  0  0  0  0  0  0  0  0  0
    1.2760    0.0000    0.0000 C   0  0  0  0  0  0  0  0  0  0  0  0
    0.3943    1.2135    0.0000 C   0  0  0  0  0  0  0  0  0  0  0  0
   -1.0323    0.7500    0.0000 C   0  0  0  0  0  0  0  0  0  0  0  0
   -1.0323   -0.7500    0.0000 O   0  0  0  0  0  0  0  0  0  0  0  0
    0.3943   -1.2135    0.0000 C   0  0  0  0  0  0  0  0  0  0  0  0
    0.8578   -2.6401    0.0000 C   0  0  0  0  0  0  0  0  0  0  0  0
   -0.5926   -2.3431    0.0000 N   0  0  0  0  0  0  0  0  0  0  0  0
   -0.1936   -3.7891    0.0000 C   0  0  0  0  0  0  0  0  0  0  0  0
    1.1480   -4.4600    0.0000 C   0  0  0  0  0  0  0  0  0  0  0  0
    1.2377   -5.9574    0.0000 C   0  0  0  0  0  0  0  0  0  0  0  0
   -0.0141   -6.7837    0.0000 C   0  0  0  0  0  0  0  0  0  0  0  0
   -1.3557   -6.1127    0.0000 C   0  0  0  0  0  0  0  0  0  0  0  0
   -1.4454   -4.6154    0.0000 C   0  0  0  0  0  0  0  0  0  0  0  0
   -2.6182   -3.6802    0.0000 C   0  0  0  0  0  0  0  0  0  0  0  0
   -4.1997   -3.7135    0.0000 C   0  0  0  0  0  0  0  0  0  0  0  0
   -5.0814   -4.9270    0.0000 C   0  0  0  0  0  0  0  0  0  0  0  0
   -6.5080   -4.4635    0.0000 N   0  0  0  0  0  0  0  0  0  0  0  0
   -6.5080   -2.9635    0.0000 C   0  0  0  0  0  0  0  0  0  0  0  0
   -7.7215   -2.0818    0.0000 O   0  0  0  0  0  0  0  0  0  0  0  0
   -5.0814   -2.4999    0.0000 C   0  0  0  0  0  0  0  0  0  0  0  0
   -4.4713   -1.1296    0.0000 C   0  0  0  0  0  0  0  0  0  0  0  0
   -4.9983    0.2747    0.0000 C   0  0  0  0  0  0  0  0  0  0  0  0
   -6.3946    0.8228    0.0000 C   0  0  0  0  0  0  0  0  0  0  0  0
   -6.6182    2.3060    0.0000 C   0  0  0  0  0  0  0  0  0  0  0  0
   -5.4455    3.2412    0.0000 C   0  0  0  0  0  0  0  0  0  0  0  0
   -4.0491    2.6932    0.0000 C   0  0  0  0  0  0  0  0  0  0  0  0
   -3.8256    1.2100    0.0000 C   0  0  0  0  0  0  0  0  0  0  0  0
   -2.5737    0.3836    0.0000 N   0  0  0  0  0  0  0  0  0  0  0  0
   -2.9728   -1.0623    0.0000 C   0  0  0  0  0  0  0  0  0  0  0  0
   -2.0911   -2.2758    0.0000 C   0  0  0  0  0  0  0  0  0  0  0  0
    5.2439    0.0766    0.0000 H   0  0  0  0  0  0  0  0  0  0  0  0
    4.2808    1.9668    0.0000 H   0  0  0  0  0  0  0  0  0  0  0  0
    3.3538   -0.8864    0.0000 H   0  0  0  0  0  0  0  0  0  0  0  0
    2.2848    2.2141    0.0000 H   0  0  0  0  0  0  0  0  0  0  0  0
    2.3907   -1.0037    0.0000 H   0  0  0  0  0  0  0  0  0  0  0  0
   -0.2158    2.5838    0.0000 H   0  0  0  0  0  0  0  0  0  0  0  0
    1.3646    1.9448    0.0000 H   0  0  0  0  0  0  0  0  0  0  0  0
   -2.2458    1.6317    0.0000 H   0  0  0  0  0  0  0  0  0  0  0  0
    1.5017   -3.6705    0.0000 H   0  0  0  0  0  0  0  0  0  0  0  0
    2.2844   -2.1766    0.0000 H   0  0  0  0  0  0  0  0  0  0  0  0
    0.3041   -3.2136    0.0000 H   0  0  0  0  0  0  0  0  0  0  0  0
    2.3999   -3.6337    0.0000 H   0  0  0  0  0  0  0  0  0  0  0  0
    2.5793   -6.6283    0.0000 H   0  0  0  0  0  0  0  0  0  0  0  0
    0.0756   -8.2810    0.0000 H   0  0  0  0  0  0  0  0  0  0  0  0
   -2.6076   -6.9391    0.0000 H   0  0  0  0  0  0  0  0  0  0  0  0
   -3.7823   -5.6770    0.0000 H   0  0  0  0  0  0  0  0  0  0  0  0
   -5.6915   -6.2973    0.0000 H   0  0  0  0  0  0  0  0  0  0  0  0
   -7.7215   -5.3451    0.0000 H   0  0  0  0  0  0  0  0  0  0  0  0
   -7.5674   -0.1125    0.0000 H   0  0  0  0  0  0  0  0  0  0  0  0
   -8.0145    2.8540    0.0000 H   0  0  0  0  0  0  0  0  0  0  0  0
   -5.6690    4.7245    0.0000 H   0  0  0  0  0  0  0  0  0  0  0  0
   -2.8764    3.6285    0.0000 H   0  0  0  0  0  0  0  0  0  0  0  0
  1  2  1  0
  2  3  1  0
  3  4  1  0
  4  5  1  0
  5  6  1  0
  6  7  1  0
  7  8  1  6
  7  9  1  0
  9 10  1  0
 10 11  2  0
 11 12  1  0
 12 13  2  0
 13 14  1  0
 14 15  2  0
 15 16  1  0
 16 17  2  0
 17 18  1  0
 18 19  1  0
 19 20  1  0
 20 21  2  0
 20 22  1  0
 22 23  2  0
 23 24  1  0
 24 25  2  0
 25 26  1  0
 26 27  2  0
 27 28  1  0
 28 29  2  0
 29 30  1  0
 30 31  1  0
 31 32  2  0
  7  3  1  0
 32  9  1  0
 30  5  1  0
 15 10  1  0
 32 16  1  0
 22 17  1  0
 31 23  1  0
 29 24  1  0
  1 33  1  0
  1 34  1  0
  1 35  1  0
  2 36  1  0
  3 37  1  1
  4 38  1  0
  4 39  1  0
  5 40  1  1
  8 41  1  0
  8 42  1  0
  8 43  1  0
 11 44  1  0
 12 45  1  0
 13 46  1  0
 14 47  1  0
 18 48  1  0
 18 49  1  0
 19 50  1  0
 25 51  1  0
 26 52  1  0
 27 53  1  0
 28 54  1  0
M  END
$$$$
[H]c1c([H])c([N+](=O)[O-])c([H])c([H])c1N1C([H])([H])C([H])([H])N(C(=O)c2nc3c([H])c([H])c([H])c([H])c3s2)C([H])([H])C1([H])[H]
     RDKit          3D

 42 45  0  0  0  0  0  0  0  0999 V2000
   -6.3689   -2.2889    2.8753 O   0  0  0  0  0  0  0  0  0  0  0  0
   -6.2517   -1.0478    2.3495 N   0  0  0  0  0  0  0  0  0  0  0  0
   -7.0741   -0.1724    2.6397 O   0  0  0  0  0  0  0  0  0  0  0  0
   -5.1865   -0.7457    1.4643 C   0  0  0  0  0  0  0  0  0  0  0  0
   -4.2821   -1.7324    1.1539 C   0  0  0  0  0  0  0  0  0  0  0  0
   -3.2501   -1.4628    0.3047 C   0  0  0  0  0  0  0  0  0  0  0  0
   -3.0989   -0.2193   -0.2473 C   0  0  0  0  0  0  0  0  0  0  0  0
   -4.0189    0.7862    0.0679 C   0  0  0  0  0  0  0  0  0  0  0  0
   -5.0565    0.5241    0.9187 C   0  0  0  0  0  0  0  0  0  0  0  0
   -2.0510    0.0786   -1.1274 N   0  0  0  0  0  0  0  0  0  0  0  0
   -1.8451    1.4861   -1.5317 C   0  0  0  0  0  0  0  0  0  0  0  0
   -0.5386    1.5346   -2.3462 C   0  0  0  0  0  0  0  0  0  0  0  0
    0.4978    0.8227   -1.5770 N   0  0  0  0  0  0  0  0  0  0  0  0
    0.2473   -0.5432   -1.2154 C   0  0  0  0  0  0  0  0  0  0  0  0
   -1.1699   -0.9207   -1.6589 C   0  0  0  0  0  0  0  0  0  0  0  0
    1.6820    1.5212   -1.2364 C   0  0  0  0  0  0  0  0  0  0  0  0
    1.8496    2.7023   -1.5697 O   0  0  0  0  0  0  0  0  0  0  0  0
    2.7354    0.8573   -0.4806 C   0  0  0  0  0  0  0  0  0  0  0  0
    3.8941    1.3675   -0.0837 N   0  0  0  0  0  0  0  0  0  0  0  0
    4.7376    0.6500    0.5841 C   0  0  0  0  0  0  0  0  0  0  0  0
    5.9940    1.0860    1.0553 C   0  0  0  0  0  0  0  0  0  0  0  0
    6.7975    0.2358    1.7494 C   0  0  0  0  0  0  0  0  0  0  0  0
    6.4604   -1.0665    2.0353 C   0  0  0  0  0  0  0  0  0  0  0  0
    5.2417   -1.5068    1.5843 C   0  0  0  0  0  0  0  0  0  0  0  0
    4.3959   -0.6462    0.8656 C   0  0  0  0  0  0  0  0  0  0  0  0
    2.8588   -0.7466    0.1385 S   0  0  0  0  0  0  0  0  0  0  0  0
   -4.3819   -2.7331    1.5819 H   0  0  0  0  0  0  0  0  0  0  0  0
   -2.5600   -2.2854    0.0987 H   0  0  0  0  0  0  0  0  0  0  0  0
   -3.8914    1.7668   -0.3734 H   0  0  0  0  0  0  0  0  0  0  0  0
   -5.7942    1.2824    1.1884 H   0  0  0  0  0  0  0  0  0  0  0  0
   -2.6860    1.7807   -2.1598 H   0  0  0  0  0  0  0  0  0  0  0  0
   -1.7590    2.0581   -0.5949 H   0  0  0  0  0  0  0  0  0  0  0  0
   -0.2680    2.6062   -2.4229 H   0  0  0  0  0  0  0  0  0  0  0  0
   -0.6723    1.0924   -3.3313 H   0  0  0  0  0  0  0  0  0  0  0  0
    0.2283   -0.6004   -0.0900 H   0  0  0  0  0  0  0  0  0  0  0  0
    0.9696   -1.2625   -1.6538 H   0  0  0  0  0  0  0  0  0  0  0  0
   -1.1238   -0.8185   -2.7852 H   0  0  0  0  0  0  0  0  0  0  0  0
   -1.4129   -1.9576   -1.4384 H   0  0  0  0  0  0  0  0  0  0  0  0
    6.3419    2.1109    0.8712 H   0  0  0  0  0  0  0  0  0  0  0  0
    7.7764    0.5927    2.1105 H   0  0  0  0  0  0  0  0  0  0  0  0
    7.1331   -1.6777    2.5814 H   0  0  0  0  0  0  0  0  0  0  0  0
    4.9008   -2.5083    1.7637 H   0  0  0  0  0  0  0  0  0  0  0  0
  1  2  1  0
  2  3  2  0
  2  4  1  0
  4  5  2  0
  5  6  1  0
  6  7  2  0
  7  8  1  0
  8  9  2  0
  7 10  1  0
 10 11  1  0
 11 12  1  0
 12 13  1  0
 13 14  1  0
 14 15  1  0
 13 16  1  0
 16 17  2  0
 16 18  1  0
 18 19  2  0
 19 20  1  0
 20 21  2  0
 21 22  1  0
 22 23  2  0
 23 24  1  0
 24 25  2  0
 25 26  1  0
  9  4  1  0
 15 10  1  0
 26 18  1  0
 25 20  1  0
  5 27  1  0
  6 28  1  0
  8 29  1  0
  9 30  1  0
 11 31  1  0
 11 32  1  0
 12 33  1  0
 12 34  1  0
 14 35  1  0
 14 36  1  0
 15 37  1  0
 15 38  1  0
 21 39  1  0
 22 40  1  0
 23 41  1  0
 24 42  1  0
M  CHG  2   1  -1   2   1
M  END
$$$$
[H]ON([H])C(=O)C([H])([H])N(C([H])([H])c1c([H])c([H])c([N+](=O)[O-])c([H])c1[H])S(=O)(=O)c1c([H])c([H])c(-c2c([H])c([H])c([H])c([H])c2[H])c([H])c1[H]
     RDKit          3D

 50 52  0  0  0  0  0  0  0  0999 V2000
   -3.3880    4.8280   -0.3137 O   0  0  0  0  0  0  0  0  0  0  0  0
   -2.8571    3.5654   -0.3783 N   0  0  0  0  0  0  0  0  0  0  0  0
   -1.9417    3.2517   -1.3986 C   0  0  0  0  0  0  0  0  0  0  0  0
   -1.6343    4.1383   -2.2318 O   0  0  0  0  0  0  0  0  0  0  0  0
   -1.3360    1.9185   -1.5205 C   0  0  0  0  0  0  0  0  0  0  0  0
   -1.8142    1.0597   -0.4286 N   0  0  0  0  0  0  0  0  0  0  0  0
   -2.1852   -0.2315   -0.9279 C   0  0  0  0  0  0  0  0  0  0  0  0
   -3.3292   -0.8704   -0.2425 C   0  0  0  0  0  0  0  0  0  0  0  0
   -4.1033   -0.2664    0.7094 C   0  0  0  0  0  0  0  0  0  0  0  0
   -5.1557   -0.8898    1.3263 C   0  0  0  0  0  0  0  0  0  0  0  0
   -5.4660   -2.1819    0.9884 C   0  0  0  0  0  0  0  0  0  0  0  0
   -4.7124   -2.8335    0.0317 C   0  0  0  0  0  0  0  0  0  0  0  0
   -3.6595   -2.1800   -0.5715 C   0  0  0  0  0  0  0  0  0  0  0  0
   -6.5732   -2.8559    1.6284 N   0  0  0  0  0  0  0  0  0  0  0  0
   -7.3198   -2.2128    2.5752 O   0  0  0  0  0  0  0  0  0  0  0  0
   -6.8488   -4.0187    1.3206 O   0  0  0  0  0  0  0  0  0  0  0  0
   -0.6726    1.1120    0.7883 S   0  0  0  0  0  0  0  0  0  0  0  0
   -0.5686    2.5123    1.3235 O   0  0  0  0  0  0  0  0  0  0  0  0
   -1.2071    0.2785    1.9528 O   0  0  0  0  0  0  0  0  0  0  0  0
    0.9181    0.5546    0.4892 C   0  0  0  0  0  0  0  0  0  0  0  0
    1.8545    1.4802    0.0813 C   0  0  0  0  0  0  0  0  0  0  0  0
    3.1706    1.1199   -0.1857 C   0  0  0  0  0  0  0  0  0  0  0  0
    3.5686   -0.1939   -0.0442 C   0  0  0  0  0  0  0  0  0  0  0  0
    2.6129   -1.0986    0.3648 C   0  0  0  0  0  0  0  0  0  0  0  0
    1.3290   -0.7537    0.6265 C   0  0  0  0  0  0  0  0  0  0  0  0
    4.9434   -0.6116   -0.3153 C   0  0  0  0  0  0  0  0  0  0  0  0
    5.2835   -1.8396   -0.7855 C   0  0  0  0  0  0  0  0  0  0  0  0
    6.6161   -2.1253   -1.0052 C   0  0  0  0  0  0  0  0  0  0  0  0
    7.6219   -1.2148   -0.7673 C   0  0  0  0  0  0  0  0  0  0  0  0
    7.2743    0.0401   -0.2868 C   0  0  0  0  0  0  0  0  0  0  0  0
    5.9411    0.3236   -0.0678 C   0  0  0  0  0  0  0  0  0  0  0  0
   -2.7088    5.3794    0.1530 H   0  0  0  0  0  0  0  0  0  0  0  0
   -3.2038    2.9297    0.3639 H   0  0  0  0  0  0  0  0  0  0  0  0
   -1.6717    1.5205   -2.5054 H   0  0  0  0  0  0  0  0  0  0  0  0
   -0.2337    1.9501   -1.4568 H   0  0  0  0  0  0  0  0  0  0  0  0
   -1.3093   -0.9150   -0.7159 H   0  0  0  0  0  0  0  0  0  0  0  0
   -2.3792   -0.1530   -2.0098 H   0  0  0  0  0  0  0  0  0  0  0  0
   -3.8723    0.7568    0.9874 H   0  0  0  0  0  0  0  0  0  0  0  0
   -5.7403   -0.3551    2.0822 H   0  0  0  0  0  0  0  0  0  0  0  0
   -4.9838   -3.8701   -0.2200 H   0  0  0  0  0  0  0  0  0  0  0  0
   -3.0997   -2.7307   -1.3134 H   0  0  0  0  0  0  0  0  0  0  0  0
    1.6150    2.5459   -0.0538 H   0  0  0  0  0  0  0  0  0  0  0  0
    3.9126    1.8388   -0.5065 H   0  0  0  0  0  0  0  0  0  0  0  0
    2.8745   -2.1545    0.4932 H   0  0  0  0  0  0  0  0  0  0  0  0
    0.5522   -1.4370    0.9494 H   0  0  0  0  0  0  0  0  0  0  0  0
    4.5189   -2.5678   -0.9791 H   0  0  0  0  0  0  0  0  0  0  0  0
    6.9321   -3.0977   -1.3817 H   0  0  0  0  0  0  0  0  0  0  0  0
    8.6544   -1.4793   -0.9530 H   0  0  0  0  0  0  0  0  0  0  0  0
    8.0765    0.7320   -0.1094 H   0  0  0  0  0  0  0  0  0  0  0  0
    5.7051    1.3026    0.3041 H   0  0  0  0  0  0  0  0  0  0  0  0
  1  2  1  0
  2  3  1  0
  3  4  2  0
  3  5  1  0
  5  6  1  0
  6  7  1  0
  7  8  1  0
  8  9  2  0
  9 10  1  0
 10 11  2  0
 11 12  1  0
 12 13  2  0
 11 14  1  0
 14 15  1  0
 14 16  2  0
  6 17  1  0
 17 18  2  0
 17 19  2  0
 17 20  1  0
 20 21  2  0
 21 22  1  0
 22 23  2  0
 23 24  1  0
 24 25  2  0
 23 26  1  0
 26 27  2  0
 27 28  1  0
 28 29  2  0
 29 30  1  0
 30 31  2  0
 13  8  1  0
 25 20  1  0
 31 26  1  0
  1 32  1  0
  2 33  1  0
  5 34  1  0
  5 35  1  0
  7 36  1  0
  7 37  1  0
  9 38  1  0
 10 39  1  0
 12 40  1  0
 13 41  1  0
 21 42  1  0
 22 43  1  0
 24 44  1  0
 25 45  1  0
 27 46  1  0
 28 47  1  0
 29 48  1  0
 30 49  1  0
 31 50  1  0
M  CHG  2  14   1  15  -1
M  END
$$$$
[H]c1nc(N([H])c2c([H])c(OC([H])([H])[H])c(OC([H])([H])[H])c(OC([H])([H])[H])c2[H])nc(N([H])c2nc3c(c([H])c2[H])OC(C([H])([H])[H])(C([H])([H])[H])C(=O)N3[H])c1Cl
     RDKit          3D

 57 60  0  0  0  0  0  0  0  0999 V2000
   -5.7062    2.0896   -1.8319 C   0  0  0  0  0  0  0  0  0  0  0  0
   -5.8757    0.7103   -1.5773 O   0  0  0  0  0  0  0  0  0  0  0  0
   -4.7959   -0.0108   -1.0921 C   0  0  0  0  0  0  0  0  0  0  0  0
   -3.5546    0.6057   -0.8546 C   0  0  0  0  0  0  0  0  0  0  0  0
   -2.4789   -0.0483   -0.3850 C   0  0  0  0  0  0  0  0  0  0  0  0
   -1.2186    0.5079   -0.1103 N   0  0  0  0  0  0  0  0  0  0  0  0
   -0.9117    1.8809   -0.0236 C   0  0  0  0  0  0  0  0  0  0  0  0
   -1.7316    2.9097   -0.1714 N   0  0  0  0  0  0  0  0  0  0  0  0
   -1.4116    4.2063   -0.0835 C   0  0  0  0  0  0  0  0  0  0  0  0
   -0.0987    4.5091    0.1879 C   0  0  0  0  0  0  0  0  0  0  0  0
    0.4772    6.1441    0.3337 Cl  0  0  0  0  0  0  0  0  0  0  0  0
    0.8252    3.4820    0.3568 C   0  0  0  0  0  0  0  0  0  0  0  0
    2.1825    3.7433    0.6365 N   0  0  0  0  0  0  0  0  0  0  0  0
    3.0945    2.6700    0.8022 C   0  0  0  0  0  0  0  0  0  0  0  0
    4.4463    2.9300    1.0807 C   0  0  0  0  0  0  0  0  0  0  0  0
    5.3106    1.8710    1.2370 C   0  0  0  0  0  0  0  0  0  0  0  0
    4.8871    0.5652    1.1279 C   0  0  0  0  0  0  0  0  0  0  0  0
    5.7441   -0.5124    1.2823 O   0  0  0  0  0  0  0  0  0  0  0  0
    5.4343   -1.8103    0.8128 C   0  0  0  0  0  0  0  0  0  0  0  0
    6.1434   -2.8503    1.6735 C   0  0  0  0  0  0  0  0  0  0  0  0
    5.8365   -1.9300   -0.6291 C   0  0  0  0  0  0  0  0  0  0  0  0
    3.9767   -2.1074    0.8967 C   0  0  0  0  0  0  0  0  0  0  0  0
    3.5689   -3.2887    1.1041 O   0  0  0  0  0  0  0  0  0  0  0  0
    3.0836   -1.0158    0.7347 N   0  0  0  0  0  0  0  0  0  0  0  0
    3.5483    0.3295    0.8525 C   0  0  0  0  0  0  0  0  0  0  0  0
    2.7303    1.3839    0.7055 N   0  0  0  0  0  0  0  0  0  0  0  0
    0.3907    2.2269    0.2465 N   0  0  0  0  0  0  0  0  0  0  0  0
   -2.6318   -1.4191   -0.1275 C   0  0  0  0  0  0  0  0  0  0  0  0
   -3.8340   -2.0366   -0.3532 C   0  0  0  0  0  0  0  0  0  0  0  0
   -3.9830   -3.3837   -0.0998 O   0  0  0  0  0  0  0  0  0  0  0  0
   -2.8768   -4.1092    0.3943 C   0  0  0  0  0  0  0  0  0  0  0  0
   -4.9390   -1.3516   -0.8380 C   0  0  0  0  0  0  0  0  0  0  0  0
   -6.1583   -1.9773   -1.0668 O   0  0  0  0  0  0  0  0  0  0  0  0
   -7.0957   -2.0233   -0.0210 C   0  0  0  0  0  0  0  0  0  0  0  0
   -4.8687    2.3174   -2.4925 H   0  0  0  0  0  0  0  0  0  0  0  0
   -5.5637    2.6727   -0.8941 H   0  0  0  0  0  0  0  0  0  0  0  0
   -6.6363    2.4225   -2.3663 H   0  0  0  0  0  0  0  0  0  0  0  0
   -3.5355    1.6514   -1.0934 H   0  0  0  0  0  0  0  0  0  0  0  0
   -0.3837   -0.1446    0.0512 H   0  0  0  0  0  0  0  0  0  0  0  0
   -2.1496    4.9788   -0.2193 H   0  0  0  0  0  0  0  0  0  0  0  0
    2.5200    4.7290    0.7224 H   0  0  0  0  0  0  0  0  0  0  0  0
    4.7319    3.9487    1.1567 H   0  0  0  0  0  0  0  0  0  0  0  0
    6.3555    2.0985    1.4528 H   0  0  0  0  0  0  0  0  0  0  0  0
    5.5589   -2.9828    2.6041 H   0  0  0  0  0  0  0  0  0  0  0  0
    7.1729   -2.5542    1.9049 H   0  0  0  0  0  0  0  0  0  0  0  0
    6.1742   -3.8286    1.1243 H   0  0  0  0  0  0  0  0  0  0  0  0
    5.4932   -2.9015   -1.0386 H   0  0  0  0  0  0  0  0  0  0  0  0
    5.4295   -1.0745   -1.1817 H   0  0  0  0  0  0  0  0  0  0  0  0
    6.9550   -1.8603   -0.6837 H   0  0  0  0  0  0  0  0  0  0  0  0
    2.0871   -1.1991    0.5296 H   0  0  0  0  0  0  0  0  0  0  0  0
   -1.7787   -1.9895    0.2564 H   0  0  0  0  0  0  0  0  0  0  0  0
   -2.1240   -4.1909   -0.4168 H   0  0  0  0  0  0  0  0  0  0  0  0
   -3.2486   -5.1338    0.6530 H   0  0  0  0  0  0  0  0  0  0  0  0
   -2.4656   -3.6018    1.3024 H   0  0  0  0  0  0  0  0  0  0  0  0
   -7.3670   -3.1031    0.1453 H   0  0  0  0  0  0  0  0  0  0  0  0
   -8.0343   -1.4880   -0.2936 H   0  0  0  0  0  0  0  0  0  0  0  0
   -6.7005   -1.6569    0.9464 H   0  0  0  0  0  0  0  0  0  0  0  0
  1  2  1  0
  2  3  1  0
  3  4  2  0
  4  5  1  0
  5  6  1  0
  6  7  1  0
  7  8  2  0
  8  9  1  0
  9 10  2  0
 10 11  1  0
 10 12  1  0
 12 13  1  0
 13 14  1  0
 14 15  2  0
 15 16  1  0
 16 17  2  0
 17 18  1  0
 18 19  1  0
 19 20  1  0
 19 21  1  0
 19 22  1  0
 22 23  2  0
 22 24  1  0
 24 25  1  0
 25 26  2  0
 12 27  2  0
  5 28  2  0
 28 29  1  0
 29 30  1  0
 30 31  1  0
 29 32  2  0
 32 33  1  0
 33 34  1  0
 32  3  1  0
 27  7  1  0
 26 14  1  0
 25 17  1  0
  1 35  1  0
  1 36  1  0
  1 37  1  0
  4 38  1  0
  6 39  1  0
  9 40  1  0
 13 41  1  0
 15 42  1  0
 16 43  1  0
 20 44  1  0
 20 45  1  0
 20 46  1  0
 21 47  1  0
 21 48  1  0
 21 49  1  0
 24 50  1  0
 28 51  1  0
 31 52  1  0
 31 53  1  0
 31 54  1  0
 34 55  1  0
 34 56  1  0
 34 57  1  0
M  END
$$$$
[H]/C(=C1/C(=O)N([H])c2c([H])c([H])c(C([H])([H])[H])c([H])c21)c1c([H])c([H])c(N2C([H])([H])C([H])([H])N(C([H])([H])[H])C([H])([H])C2([H])[H])c([H])c1[H]
     RDKit          3D

 48 51  0  0  0  0  0  0  0  0999 V2000
    6.6027   -0.4508    1.2207 C   0  0  0  0  0  0  0  0  0  0  0  0
    6.3159   -0.0611   -0.1455 N   0  0  0  0  0  0  0  0  0  0  0  0
    5.7609    1.2558   -0.1483 C   0  0  0  0  0  0  0  0  0  0  0  0
    4.3449    1.1658    0.4255 C   0  0  0  0  0  0  0  0  0  0  0  0
    3.5662    0.3891   -0.5165 N   0  0  0  0  0  0  0  0  0  0  0  0
    4.2859   -0.4224   -1.4727 C   0  0  0  0  0  0  0  0  0  0  0  0
    5.4668   -1.0520   -0.7332 C   0  0  0  0  0  0  0  0  0  0  0  0
    2.1478    0.4446   -0.4691 C   0  0  0  0  0  0  0  0  0  0  0  0
    1.3207   -0.1732   -1.3837 C   0  0  0  0  0  0  0  0  0  0  0  0
   -0.0471   -0.1009   -1.3024 C   0  0  0  0  0  0  0  0  0  0  0  0
   -0.6592    0.5931   -0.3013 C   0  0  0  0  0  0  0  0  0  0  0  0
   -2.1022    0.6656   -0.1953 C   0  0  0  0  0  0  0  0  0  0  0  0
   -2.8448   -0.3826   -0.0242 C   0  0  0  0  0  0  0  0  0  0  0  0
   -2.4917   -1.7831    0.1059 C   0  0  0  0  0  0  0  0  0  0  0  0
   -1.3182   -2.2857    0.1062 O   0  0  0  0  0  0  0  0  0  0  0  0
   -3.7119   -2.4991    0.2384 N   0  0  0  0  0  0  0  0  0  0  0  0
   -4.8232   -1.6216    0.2002 C   0  0  0  0  0  0  0  0  0  0  0  0
   -6.2030   -1.8240    0.2875 C   0  0  0  0  0  0  0  0  0  0  0  0
   -7.0755   -0.7743    0.2200 C   0  0  0  0  0  0  0  0  0  0  0  0
   -6.5807    0.5072    0.0629 C   0  0  0  0  0  0  0  0  0  0  0  0
   -7.5621    1.6202   -0.0058 C   0  0  0  0  0  0  0  0  0  0  0  0
   -5.2185    0.7074   -0.0234 C   0  0  0  0  0  0  0  0  0  0  0  0
   -4.3321   -0.3489    0.0440 C   0  0  0  0  0  0  0  0  0  0  0  0
    0.1524    1.2318    0.6429 C   0  0  0  0  0  0  0  0  0  0  0  0
    1.5152    1.1394    0.5321 C   0  0  0  0  0  0  0  0  0  0  0  0
    7.3982   -1.2344    1.2340 H   0  0  0  0  0  0  0  0  0  0  0  0
    5.6838   -0.8851    1.6524 H   0  0  0  0  0  0  0  0  0  0  0  0
    6.8848    0.4171    1.8577 H   0  0  0  0  0  0  0  0  0  0  0  0
    5.6371    1.6087   -1.2012 H   0  0  0  0  0  0  0  0  0  0  0  0
    6.3636    1.9738    0.4085 H   0  0  0  0  0  0  0  0  0  0  0  0
    3.9481    2.1965    0.5445 H   0  0  0  0  0  0  0  0  0  0  0  0
    4.3357    0.6206    1.3899 H   0  0  0  0  0  0  0  0  0  0  0  0
    4.7225    0.1622   -2.3064 H   0  0  0  0  0  0  0  0  0  0  0  0
    3.6614   -1.2559   -1.8049 H   0  0  0  0  0  0  0  0  0  0  0  0
    6.0582   -1.5934   -1.5035 H   0  0  0  0  0  0  0  0  0  0  0  0
    5.1292   -1.8082   -0.0079 H   0  0  0  0  0  0  0  0  0  0  0  0
    1.7532   -0.7326   -2.1937 H   0  0  0  0  0  0  0  0  0  0  0  0
   -0.6247   -0.6159   -2.0837 H   0  0  0  0  0  0  0  0  0  0  0  0
   -2.5677    1.6581   -0.2651 H   0  0  0  0  0  0  0  0  0  0  0  0
   -3.7271   -3.5410    0.3473 H   0  0  0  0  0  0  0  0  0  0  0  0
   -6.5834   -2.8205    0.4095 H   0  0  0  0  0  0  0  0  0  0  0  0
   -8.1679   -0.9183    0.2875 H   0  0  0  0  0  0  0  0  0  0  0  0
   -8.0789    1.5915   -0.9829 H   0  0  0  0  0  0  0  0  0  0  0  0
   -7.0028    2.5707    0.1288 H   0  0  0  0  0  0  0  0  0  0  0  0
   -8.2718    1.5217    0.8341 H   0  0  0  0  0  0  0  0  0  0  0  0
   -4.8657    1.7186   -0.1455 H   0  0  0  0  0  0  0  0  0  0  0  0
   -0.3402    1.7872    1.4432 H   0  0  0  0  0  0  0  0  0  0  0  0
    2.1452    1.6384    1.2727 H   0  0  0  0  0  0  0  0  0  0  0  0
  1  2  1  0
  2  3  1  0
  3  4  1  0
  4  5  1  0
  5  6  1  0
  6  7  1  0
  5  8  1  0
  8  9  2  0
  9 10  1  0
 10 11  2  0
 11 12  1  0
 12 13  2  0
 13 14  1  0
 14 15  2  0
 14 16  1  0
 16 17  1  0
 17 18  2  0
 18 19  1  0
 19 20  2  0
 20 21  1  0
 20 22  1  0
 22 23  2  0
 11 24  1  0
 24 25  2  0
  7  2  1  0
 25  8  1  0
 23 13  1  0
 23 17  1  0
  1 26  1  0
  1 27  1  0
  1 28  1  0
  3 29  1  0
  3 30  1  0
  4 31  1  0
  4 32  1  0
  6 33  1  0
  6 34  1  0
  7 35  1  0
  7 36  1  0
  9 37  1  0
 10 38  1  0
 12 39  1  0
 16 40  1  0
 18 41  1  0
 19 42  1  0
 21 43  1  0
 21 44  1  0
 21 45  1  0
 22 46  1  0
 24 47  1  0
 25 48  1  0
M  END
$$$$
[H]c1nc(N([H])c2c([H])c([H])c(N3C([H])([H])C([H])([H])N(C([H])([H])[H])C([H])([H])C3([H])[H])c([H])c2OC([H])([H])[H])nc(N([H])c2c([H])c([H])c([H])c([H])c2S(=O)(=O)C([H])(C([H])([H])[H])C([H])([H])[H])c1Cl
     RDKit          3D

 67 70  0  0  0  0  0  0  0  0999 V2000
    2.7980   -3.3310   -1.2288 C   0  0  0  0  0  0  0  0  0  0  0  0
    1.9415   -2.2352   -0.9986 O   0  0  0  0  0  0  0  0  0  0  0  0
    2.4816   -1.0407   -0.5265 C   0  0  0  0  0  0  0  0  0  0  0  0
    3.8274   -0.9244   -0.2865 C   0  0  0  0  0  0  0  0  0  0  0  0
    4.4213    0.2145    0.1751 C   0  0  0  0  0  0  0  0  0  0  0  0
    3.5861    1.2917    0.4024 C   0  0  0  0  0  0  0  0  0  0  0  0
    2.2085    1.1836    0.1606 C   0  0  0  0  0  0  0  0  0  0  0  0
    1.6255    0.0523   -0.2972 C   0  0  0  0  0  0  0  0  0  0  0  0
    0.2667   -0.0963   -0.5497 N   0  0  0  0  0  0  0  0  0  0  0  0
   -0.7485    0.8732   -0.3847 C   0  0  0  0  0  0  0  0  0  0  0  0
   -0.5976    2.1249    0.0475 N   0  0  0  0  0  0  0  0  0  0  0  0
   -1.5696    3.0148    0.1930 C   0  0  0  0  0  0  0  0  0  0  0  0
   -2.8553    2.6370   -0.1234 C   0  0  0  0  0  0  0  0  0  0  0  0
   -4.1874    3.7633    0.0449 Cl  0  0  0  0  0  0  0  0  0  0  0  0
   -3.1059    1.3214   -0.5915 C   0  0  0  0  0  0  0  0  0  0  0  0
   -4.4442    0.9705   -0.8839 N   0  0  0  0  0  0  0  0  0  0  0  0
   -4.8563   -0.2771   -1.3763 C   0  0  0  0  0  0  0  0  0  0  0  0
   -4.0250   -1.2445   -1.8945 C   0  0  0  0  0  0  0  0  0  0  0  0
   -4.4990   -2.4531   -2.4340 C   0  0  0  0  0  0  0  0  0  0  0  0
   -5.8636   -2.6532   -2.4324 C   0  0  0  0  0  0  0  0  0  0  0  0
   -6.7143   -1.7053   -1.9218 C   0  0  0  0  0  0  0  0  0  0  0  0
   -6.2437   -0.5196   -1.3917 C   0  0  0  0  0  0  0  0  0  0  0  0
   -7.3164    0.6608   -0.6987 S   0  0  0  0  0  0  0  0  0  0  0  0
   -7.3933    1.9371   -1.4847 O   0  0  0  0  0  0  0  0  0  0  0  0
   -8.7283    0.0574   -0.8397 O   0  0  0  0  0  0  0  0  0  0  0  0
   -7.0890    0.8939    1.0249 C   0  0  0  0  0  0  0  0  0  0  0  0
   -7.3480   -0.4235    1.7701 C   0  0  0  0  0  0  0  0  0  0  0  0
   -8.1301    1.8608    1.6013 C   0  0  0  0  0  0  0  0  0  0  0  0
   -2.0417    0.5457   -0.6857 N   0  0  0  0  0  0  0  0  0  0  0  0
    5.8136    0.2932    0.3958 N   0  0  0  0  0  0  0  0  0  0  0  0
    6.4498    1.3219    1.2076 C   0  0  0  0  0  0  0  0  0  0  0  0
    7.4716    0.7173    2.1500 C   0  0  0  0  0  0  0  0  0  0  0  0
    8.2281   -0.3570    1.5914 N   0  0  0  0  0  0  0  0  0  0  0  0
    9.2895    0.0606    0.7233 C   0  0  0  0  0  0  0  0  0  0  0  0
    7.3758   -1.3808    0.9847 C   0  0  0  0  0  0  0  0  0  0  0  0
    6.7127   -0.6643   -0.2033 C   0  0  0  0  0  0  0  0  0  0  0  0
    2.1978   -4.1742   -1.5940 H   0  0  0  0  0  0  0  0  0  0  0  0
    3.3465   -3.6080   -0.3147 H   0  0  0  0  0  0  0  0  0  0  0  0
    3.5586   -2.9887   -1.9679 H   0  0  0  0  0  0  0  0  0  0  0  0
    4.4382   -1.8245   -0.4810 H   0  0  0  0  0  0  0  0  0  0  0  0
    4.0232    2.2148    0.7675 H   0  0  0  0  0  0  0  0  0  0  0  0
    1.6829    2.0994    0.3817 H   0  0  0  0  0  0  0  0  0  0  0  0
   -0.0953   -1.0472   -0.9152 H   0  0  0  0  0  0  0  0  0  0  0  0
   -1.3686    4.0319    0.5559 H   0  0  0  0  0  0  0  0  0  0  0  0
   -5.1553    1.7451   -0.7241 H   0  0  0  0  0  0  0  0  0  0  0  0
   -2.9519   -1.1300   -1.9331 H   0  0  0  0  0  0  0  0  0  0  0  0
   -3.8051   -3.1751   -2.8254 H   0  0  0  0  0  0  0  0  0  0  0  0
   -6.2117   -3.5899   -2.8525 H   0  0  0  0  0  0  0  0  0  0  0  0
   -7.7729   -1.8830   -1.9315 H   0  0  0  0  0  0  0  0  0  0  0  0
   -6.0945    1.2164    1.2893 H   0  0  0  0  0  0  0  0  0  0  0  0
   -7.0459   -0.2515    2.8164 H   0  0  0  0  0  0  0  0  0  0  0  0
   -6.7761   -1.2538    1.3513 H   0  0  0  0  0  0  0  0  0  0  0  0
   -8.4409   -0.6809    1.6975 H   0  0  0  0  0  0  0  0  0  0  0  0
   -8.1469    1.6683    2.6953 H   0  0  0  0  0  0  0  0  0  0  0  0
   -7.8558    2.8834    1.3399 H   0  0  0  0  0  0  0  0  0  0  0  0
   -9.1318    1.5480    1.2224 H   0  0  0  0  0  0  0  0  0  0  0  0
    5.6986    1.8496    1.8178 H   0  0  0  0  0  0  0  0  0  0  0  0
    6.9306    2.0340    0.5190 H   0  0  0  0  0  0  0  0  0  0  0  0
    6.9661    0.3984    3.0955 H   0  0  0  0  0  0  0  0  0  0  0  0
    8.1853    1.5113    2.4512 H   0  0  0  0  0  0  0  0  0  0  0  0
    9.0845    1.0803    0.3255 H   0  0  0  0  0  0  0  0  0  0  0  0
   10.2479    0.0559    1.3173 H   0  0  0  0  0  0  0  0  0  0  0  0
    9.3924   -0.6645   -0.1011 H   0  0  0  0  0  0  0  0  0  0  0  0
    6.5706   -1.6106    1.6897 H   0  0  0  0  0  0  0  0  0  0  0  0
    7.9791   -2.2304    0.6689 H   0  0  0  0  0  0  0  0  0  0  0  0
    6.2815   -1.3420   -0.9293 H   0  0  0  0  0  0  0  0  0  0  0  0
    7.5281   -0.0532   -0.6714 H   0  0  0  0  0  0  0  0  0  0  0  0
  1  2  1  0
  2  3  1  0
  3  4  2  0
  4  5  1  0
  5  6  2  0
  6  7  1  0
  7  8  2  0
  8  9  1  0
  9 10  1  0
 10 11  2  0
 11 12  1  0
 12 13  2  0
 13 14  1  0
 13 15  1  0
 15 16  1  0
 16 17  1  0
 17 18  2  0
 18 19  1  0
 19 20  2  0
 20 21  1  0
 21 22  2  0
 22 23  1  0
 23 24  2  0
 23 25  2  0
 23 26  1  0
 26 27  1  0
 26 28  1  0
 15 29  2  0
  5 30  1  0
 30 31  1  0
 31 32  1  0
 32 33  1  0
 33 34  1  0
 33 35  1  0
 35 36  1  0
  8  3  1  0
 29 10  1  0
 36 30  1  0
 22 17  1  0
  1 37  1  0
  1 38  1  0
  1 39  1  0
  4 40  1  0
  6 41  1  0
  7 42  1  0
  9 43  1  0
 12 44  1  0
 16 45  1  0
 18 46  1  0
 19 47  1  0
 20 48  1  0
 21 49  1  0
 26 50  1  0
 27 51  1  0
 27 52  1  0
 27 53  1  0
 28 54  1  0
 28 55  1  0
 28 56  1  0
 31 57  1  0
 31 58  1  0
 32 59  1  0
 32 60  1  0
 34 61  1  0
 34 62  1  0
 34 63  1  0
 35 64  1  0
 35 65  1  0
 36 66  1  0
 36 67  1  0
M  END
$$$$
[H]c1nc2c([H])c([H])c([H])c([H])n2c1C(=O)N([H])c1c([H])c(N([H])C(=O)c2c([H])c([H])c(C([H])([H])N3C([H])([H])C([H])([H])N(C([H])([H])[H])C([H])([H])C3([H])[H])c(C(F)(F)F)c2[H])c([H])c([H])c1C([H])([H])[H]
     RDKit          3D

 69 73  0  0  0  0  0  0  0  0999 V2000
    9.2006   -1.9543   -0.5875 C   0  0  0  0  0  0  0  0  0  0  0  0
    8.0158   -1.1863   -0.7540 N   0  0  0  0  0  0  0  0  0  0  0  0
    7.7395   -0.7236   -2.0714 C   0  0  0  0  0  0  0  0  0  0  0  0
    6.5166   -1.2473   -2.7038 C   0  0  0  0  0  0  0  0  0  0  0  0
    5.3621   -1.1552   -1.7871 N   0  0  0  0  0  0  0  0  0  0  0  0
    5.2334    0.1929   -1.3308 C   0  0  0  0  0  0  0  0  0  0  0  0
    4.0104    0.5161   -0.5900 C   0  0  0  0  0  0  0  0  0  0  0  0
    2.9804   -0.3874   -0.4274 C   0  0  0  0  0  0  0  0  0  0  0  0
    1.7874   -0.0795    0.2392 C   0  0  0  0  0  0  0  0  0  0  0  0
    1.6105    1.1733    0.7634 C   0  0  0  0  0  0  0  0  0  0  0  0
    2.6199    2.0725    0.6079 C   0  0  0  0  0  0  0  0  0  0  0  0
    3.8206    1.7797   -0.0565 C   0  0  0  0  0  0  0  0  0  0  0  0
    4.8604    2.8008   -0.1724 C   0  0  0  0  0  0  0  0  0  0  0  0
    6.0548    2.5047    0.4386 F   0  0  0  0  0  0  0  0  0  0  0  0
    5.0499    3.2263   -1.4820 F   0  0  0  0  0  0  0  0  0  0  0  0
    4.4097    3.9543    0.4921 F   0  0  0  0  0  0  0  0  0  0  0  0
    0.3819    1.5665    1.4683 C   0  0  0  0  0  0  0  0  0  0  0  0
    0.4800    2.5562    2.2173 O   0  0  0  0  0  0  0  0  0  0  0  0
   -0.8278    0.8799    1.3152 N   0  0  0  0  0  0  0  0  0  0  0  0
   -2.0396    1.1963    1.9673 C   0  0  0  0  0  0  0  0  0  0  0  0
   -2.1674    1.8989    3.1259 C   0  0  0  0  0  0  0  0  0  0  0  0
   -3.4095    2.1714    3.6516 C   0  0  0  0  0  0  0  0  0  0  0  0
   -4.5561    1.7435    3.0251 C   0  0  0  0  0  0  0  0  0  0  0  0
   -5.8906    2.0373    3.5924 C   0  0  0  0  0  0  0  0  0  0  0  0
   -4.4721    1.0211    1.8379 C   0  0  0  0  0  0  0  0  0  0  0  0
   -5.6614    0.6137    1.2365 N   0  0  0  0  0  0  0  0  0  0  0  0
   -5.8771   -0.1050    0.0521 C   0  0  0  0  0  0  0  0  0  0  0  0
   -4.9330   -0.4950   -0.6557 O   0  0  0  0  0  0  0  0  0  0  0  0
   -7.2479   -0.4270   -0.4020 C   0  0  0  0  0  0  0  0  0  0  0  0
   -8.3909   -0.0743    0.2844 C   0  0  0  0  0  0  0  0  0  0  0  0
   -9.4366   -0.5205   -0.4167 N   0  0  0  0  0  0  0  0  0  0  0  0
   -8.9875   -1.1392   -1.5160 C   0  0  0  0  0  0  0  0  0  0  0  0
   -9.6643   -1.7682   -2.5585 C   0  0  0  0  0  0  0  0  0  0  0  0
   -8.9585   -2.3378   -3.5910 C   0  0  0  0  0  0  0  0  0  0  0  0
   -7.5809   -2.2571   -3.5434 C   0  0  0  0  0  0  0  0  0  0  0  0
   -6.9299   -1.6302   -2.5028 C   0  0  0  0  0  0  0  0  0  0  0  0
   -7.6275   -1.0770   -1.4993 N   0  0  0  0  0  0  0  0  0  0  0  0
   -3.2164    0.7623    1.3333 C   0  0  0  0  0  0  0  0  0  0  0  0
    5.7347   -2.1102   -0.7391 C   0  0  0  0  0  0  0  0  0  0  0  0
    6.8854   -1.5593    0.0174 C   0  0  0  0  0  0  0  0  0  0  0  0
   10.0206   -1.4285   -1.1234 H   0  0  0  0  0  0  0  0  0  0  0  0
    9.0691   -2.9481   -1.0517 H   0  0  0  0  0  0  0  0  0  0  0  0
    9.5188   -2.0052    0.4733 H   0  0  0  0  0  0  0  0  0  0  0  0
    7.7641    0.3825   -2.1336 H   0  0  0  0  0  0  0  0  0  0  0  0
    8.6117   -1.0522   -2.7133 H   0  0  0  0  0  0  0  0  0  0  0  0
    6.3260   -0.7506   -3.6584 H   0  0  0  0  0  0  0  0  0  0  0  0
    6.6574   -2.3567   -2.8628 H   0  0  0  0  0  0  0  0  0  0  0  0
    5.1756    0.8049   -2.2950 H   0  0  0  0  0  0  0  0  0  0  0  0
    6.1696    0.5147   -0.8856 H   0  0  0  0  0  0  0  0  0  0  0  0
    3.0529   -1.3949   -0.8434 H   0  0  0  0  0  0  0  0  0  0  0  0
    1.0172   -0.8252    0.3373 H   0  0  0  0  0  0  0  0  0  0  0  0
    2.5017    3.0758    1.0168 H   0  0  0  0  0  0  0  0  0  0  0  0
   -0.7888    0.0480    0.6401 H   0  0  0  0  0  0  0  0  0  0  0  0
   -1.3030    2.2390    3.6518 H   0  0  0  0  0  0  0  0  0  0  0  0
   -3.5341    2.7357    4.5836 H   0  0  0  0  0  0  0  0  0  0  0  0
   -5.7626    2.6164    4.5254 H   0  0  0  0  0  0  0  0  0  0  0  0
   -6.5214    2.6552    2.9158 H   0  0  0  0  0  0  0  0  0  0  0  0
   -6.4194    1.0978    3.8693 H   0  0  0  0  0  0  0  0  0  0  0  0
   -6.5753    0.8820    1.7433 H   0  0  0  0  0  0  0  0  0  0  0  0
   -8.4809    0.4705    1.2311 H   0  0  0  0  0  0  0  0  0  0  0  0
  -10.7481   -1.7927   -2.5291 H   0  0  0  0  0  0  0  0  0  0  0  0
   -9.4633   -2.8240   -4.3979 H   0  0  0  0  0  0  0  0  0  0  0  0
   -6.9726   -2.6969   -4.3462 H   0  0  0  0  0  0  0  0  0  0  0  0
   -5.8520   -1.6072   -2.5357 H   0  0  0  0  0  0  0  0  0  0  0  0
   -3.0860    0.2121    0.4254 H   0  0  0  0  0  0  0  0  0  0  0  0
    6.0406   -3.0338   -1.3114 H   0  0  0  0  0  0  0  0  0  0  0  0
    4.9363   -2.3739   -0.0588 H   0  0  0  0  0  0  0  0  0  0  0  0
    7.2224   -2.3531    0.7451 H   0  0  0  0  0  0  0  0  0  0  0  0
    6.5442   -0.7251    0.6578 H   0  0  0  0  0  0  0  0  0  0  0  0
  1  2  1  0
  2  3  1  0
  3  4  1  0
  4  5  1  0
  5  6  1  0
  6  7  1  0
  7  8  2  0
  8  9  1  0
  9 10  2  0
 10 11  1  0
 11 12  2  0
 12 13  1  0
 13 14  1  0
 13 15  1  0
 13 16  1  0
 10 17  1  0
 17 18  2  0
 17 19  1  0
 19 20  1  0
 20 21  2  0
 21 22  1  0
 22 23  2  0
 23 24  1  0
 23 25  1  0
 25 26  1  0
 26 27  1  0
 27 28  2  0
 27 29  1  0
 29 30  2  0
 30 31  1  0
 31 32  2  0
 32 33  1  0
 33 34  2  0
 34 35  1  0
 35 36  2  0
 36 37  1  0
 25 38  2  0
  5 39  1  0
 39 40  1  0
 40  2  1  0
 12  7  1  0
 38 20  1  0
 37 29  1  0
 37 32  1  0
  1 41  1  0
  1 42  1  0
  1 43  1  0
  3 44  1  0
  3 45  1  0
  4 46  1  0
  4 47  1  0
  6 48  1  0
  6 49  1  0
  8 50  1  0
  9 51  1  0
 11 52  1  0
 19 53  1  0
 21 54  1  0
 22 55  1  0
 24 56  1  0
 24 57  1  0
 24 58  1  0
 26 59  1  0
 30 60  1  0
 33 61  1  0
 34 62  1  0
 35 63  1  0
 36 64  1  0
 38 65  1  0
 39 66  1  0
 39 67  1  0
 40 68  1  0
 40 69  1  0
M  END
$$$$
[H]/C(C(=O)N([H])c1c(OC([H])([H])[H])c([H])c2nc([H])nc(N([H])c3c([H])c([H])c(F)c(Cl)c3[H])c2c1[H])=C(/[H])C([H])([H])N(C([H])([H])[H])C([H])([H])[H]
     RDKit          3D

 51 53  0  0  0  0  0  0  0  0999 V2000
    0.5573    4.3984    2.8991 C   0  0  0  0  0  0  0  0  0  0  0  0
    0.8309    3.2029    2.2184 O   0  0  0  0  0  0  0  0  0  0  0  0
   -0.1921    2.4945    1.6333 C   0  0  0  0  0  0  0  0  0  0  0  0
   -1.4835    2.9644    1.7197 C   0  0  0  0  0  0  0  0  0  0  0  0
   -2.5382    2.2849    1.1476 C   0  0  0  0  0  0  0  0  0  0  0  0
   -3.8003    2.7177    1.2132 N   0  0  0  0  0  0  0  0  0  0  0  0
   -4.7987    2.0225    0.6378 C   0  0  0  0  0  0  0  0  0  0  0  0
   -4.6052    0.8864   -0.0188 N   0  0  0  0  0  0  0  0  0  0  0  0
   -3.3238    0.4051   -0.1103 C   0  0  0  0  0  0  0  0  0  0  0  0
   -3.0778   -0.8251   -0.7616 N   0  0  0  0  0  0  0  0  0  0  0  0
   -4.1712   -1.5095   -1.4087 C   0  0  0  0  0  0  0  0  0  0  0  0
   -4.2589   -2.8951   -1.3072 C   0  0  0  0  0  0  0  0  0  0  0  0
   -5.2809   -3.5354   -1.9602 C   0  0  0  0  0  0  0  0  0  0  0  0
   -6.2062   -2.8407   -2.7023 C   0  0  0  0  0  0  0  0  0  0  0  0
   -7.2100   -3.5261   -3.3362 F   0  0  0  0  0  0  0  0  0  0  0  0
   -6.1310   -1.4903   -2.8091 C   0  0  0  0  0  0  0  0  0  0  0  0
   -7.3119   -0.6001   -3.7573 Cl  0  0  0  0  0  0  0  0  0  0  0  0
   -5.0872   -0.8175   -2.1449 C   0  0  0  0  0  0  0  0  0  0  0  0
   -2.2861    1.0992    0.4700 C   0  0  0  0  0  0  0  0  0  0  0  0
   -0.9588    0.6521    0.4026 C   0  0  0  0  0  0  0  0  0  0  0  0
    0.0958    1.3208    0.9681 C   0  0  0  0  0  0  0  0  0  0  0  0
    1.4312    0.8854    0.9069 N   0  0  0  0  0  0  0  0  0  0  0  0
    1.9020   -0.2743    0.2768 C   0  0  0  0  0  0  0  0  0  0  0  0
    1.1644   -1.0865   -0.3254 O   0  0  0  0  0  0  0  0  0  0  0  0
    3.3343   -0.5831    0.3060 C   0  0  0  0  0  0  0  0  0  0  0  0
    4.2446    0.1431    0.8833 C   0  0  0  0  0  0  0  0  0  0  0  0
    5.7027   -0.1766    0.9069 C   0  0  0  0  0  0  0  0  0  0  0  0
    6.0152   -1.3265    0.1881 N   0  0  0  0  0  0  0  0  0  0  0  0
    5.9367   -1.3317   -1.2195 C   0  0  0  0  0  0  0  0  0  0  0  0
    6.1761   -2.5600    0.8594 C   0  0  0  0  0  0  0  0  0  0  0  0
    1.4634    4.7833    3.4296 H   0  0  0  0  0  0  0  0  0  0  0  0
   -0.2045    4.2605    3.7128 H   0  0  0  0  0  0  0  0  0  0  0  0
    0.2093    5.1787    2.1719 H   0  0  0  0  0  0  0  0  0  0  0  0
   -1.7161    3.8771    2.2362 H   0  0  0  0  0  0  0  0  0  0  0  0
   -5.7992    2.4307    0.7282 H   0  0  0  0  0  0  0  0  0  0  0  0
   -2.1606   -1.3135   -0.8260 H   0  0  0  0  0  0  0  0  0  0  0  0
   -3.5202   -3.3949   -0.7214 H   0  0  0  0  0  0  0  0  0  0  0  0
   -5.3689   -4.6159   -1.8956 H   0  0  0  0  0  0  0  0  0  0  0  0
   -5.0811    0.2695   -2.3019 H   0  0  0  0  0  0  0  0  0  0  0  0
   -0.8380   -0.2591   -0.1328 H   0  0  0  0  0  0  0  0  0  0  0  0
    2.1299    1.5308    1.4027 H   0  0  0  0  0  0  0  0  0  0  0  0
    3.6230   -1.5178   -0.1970 H   0  0  0  0  0  0  0  0  0  0  0  0
    3.9346    1.0641    1.3971 H   0  0  0  0  0  0  0  0  0  0  0  0
    6.2020    0.7653    0.5318 H   0  0  0  0  0  0  0  0  0  0  0  0
    5.9771   -0.2898    1.9904 H   0  0  0  0  0  0  0  0  0  0  0  0
    6.9189   -1.2621   -1.7421 H   0  0  0  0  0  0  0  0  0  0  0  0
    5.2683   -0.5540   -1.6498 H   0  0  0  0  0  0  0  0  0  0  0  0
    5.5195   -2.3314   -1.5381 H   0  0  0  0  0  0  0  0  0  0  0  0
    6.3395   -2.4469    1.9342 H   0  0  0  0  0  0  0  0  0  0  0  0
    7.1071   -3.0470    0.4521 H   0  0  0  0  0  0  0  0  0  0  0  0
    5.3266   -3.2267    0.6023 H   0  0  0  0  0  0  0  0  0  0  0  0
  1  2  1  0
  2  3  1  0
  3  4  2  0
  4  5  1  0
  5  6  2  0
  6  7  1  0
  7  8  2  0
  8  9  1  0
  9 10  1  0
 10 11  1  0
 11 12  2  0
 12 13  1  0
 13 14  2  0
 14 15  1  0
 14 16  1  0
 16 17  1  0
 16 18  2  0
  9 19  2  0
 19 20  1  0
 20 21  2  0
 21 22  1  0
 22 23  1  0
 23 24  2  0
 23 25  1  0
 25 26  2  0
 26 27  1  0
 27 28  1  0
 28 29  1  0
 28 30  1  0
 21  3  1  0
 19  5  1  0
 18 11  1  0
  1 31  1  0
  1 32  1  0
  1 33  1  0
  4 34  1  0
  7 35  1  0
 10 36  1  0
 12 37  1  0
 13 38  1  0
 18 39  1  0
 20 40  1  0
 22 41  1  0
 25 42  1  0
 26 43  1  0
 27 44  1  0
 27 45  1  0
 29 46  1  0
 29 47  1  0
 29 48  1  0
 30 49  1  0
 30 50  1  0
 30 51  1  0
M  END
$$$$
[H]c1c([H])c(C(F)(F)F)c([H])c([H])c1N([H])C(=O)N1C([H])([H])C([H])([H])OC2(C1([H])[H])C([H])([H])C([H])([H])N(C(=O)C1([H])C([H])([H])C1([H])[H])C([H])([H])C2([H])[H]
     RDKit          3D

 53 56  0  0  0  0  0  0  0  0999 V2000
   -9.0691   -0.8281   -1.3410 F   0  0  0  0  0  0  0  0  0  0  0  0
   -8.6185   -0.6835   -0.0340 C   0  0  0  0  0  0  0  0  0  0  0  0
   -9.1168    0.4584    0.5782 F   0  0  0  0  0  0  0  0  0  0  0  0
   -8.9350   -1.8501    0.6593 F   0  0  0  0  0  0  0  0  0  0  0  0
   -7.1345   -0.5394   -0.0471 C   0  0  0  0  0  0  0  0  0  0  0  0
   -6.3488   -0.7204    1.0852 C   0  0  0  0  0  0  0  0  0  0  0  0
   -4.9890   -0.5769    1.0777 C   0  0  0  0  0  0  0  0  0  0  0  0
   -4.3356   -0.2350   -0.0784 C   0  0  0  0  0  0  0  0  0  0  0  0
   -2.9507   -0.0317   -0.1772 N   0  0  0  0  0  0  0  0  0  0  0  0
   -2.1305    0.3021    0.8883 C   0  0  0  0  0  0  0  0  0  0  0  0
   -2.5579    0.4587    2.0403 O   0  0  0  0  0  0  0  0  0  0  0  0
   -0.6980    0.4789    0.6519 N   0  0  0  0  0  0  0  0  0  0  0  0
    0.1185    0.8208    1.7812 C   0  0  0  0  0  0  0  0  0  0  0  0
    1.5536    0.8804    1.5043 C   0  0  0  0  0  0  0  0  0  0  0  0
    1.9876    1.0120    0.2278 O   0  0  0  0  0  0  0  0  0  0  0  0
    1.3112    0.2780   -0.7095 C   0  0  0  0  0  0  0  0  0  0  0  0
    1.7025    0.8686   -2.0755 C   0  0  0  0  0  0  0  0  0  0  0  0
    3.1167    0.5903   -2.4257 C   0  0  0  0  0  0  0  0  0  0  0  0
    3.8540    0.1485   -1.2359 N   0  0  0  0  0  0  0  0  0  0  0  0
    3.3660   -1.0446   -0.5876 C   0  0  0  0  0  0  0  0  0  0  0  0
    1.8585   -1.1682   -0.8023 C   0  0  0  0  0  0  0  0  0  0  0  0
    4.9345    0.9411   -0.7829 C   0  0  0  0  0  0  0  0  0  0  0  0
    5.1362    2.0870   -1.3577 O   0  0  0  0  0  0  0  0  0  0  0  0
    5.8726    0.6065    0.2876 C   0  0  0  0  0  0  0  0  0  0  0  0
    7.0865   -0.1970   -0.2315 C   0  0  0  0  0  0  0  0  0  0  0  0
    6.1608   -0.6855    0.8605 C   0  0  0  0  0  0  0  0  0  0  0  0
   -0.1735    0.3052   -0.6575 C   0  0  0  0  0  0  0  0  0  0  0  0
   -5.0825   -0.0371   -1.2627 C   0  0  0  0  0  0  0  0  0  0  0  0
   -6.4466   -0.1973   -1.1937 C   0  0  0  0  0  0  0  0  0  0  0  0
   -6.8683   -0.9852    1.9898 H   0  0  0  0  0  0  0  0  0  0  0  0
   -4.4577   -0.7524    1.9960 H   0  0  0  0  0  0  0  0  0  0  0  0
   -2.5244   -0.1512   -1.1439 H   0  0  0  0  0  0  0  0  0  0  0  0
   -0.0950    0.0631    2.5893 H   0  0  0  0  0  0  0  0  0  0  0  0
   -0.2654    1.7839    2.2596 H   0  0  0  0  0  0  0  0  0  0  0  0
    2.0803    0.0544    2.0601 H   0  0  0  0  0  0  0  0  0  0  0  0
    1.9501    1.7977    2.0508 H   0  0  0  0  0  0  0  0  0  0  0  0
    1.5365    1.9529   -2.0914 H   0  0  0  0  0  0  0  0  0  0  0  0
    1.0095    0.4004   -2.8236 H   0  0  0  0  0  0  0  0  0  0  0  0
    3.1461   -0.2742   -3.1328 H   0  0  0  0  0  0  0  0  0  0  0  0
    3.6478    1.4194   -2.9602 H   0  0  0  0  0  0  0  0  0  0  0  0
    3.5470   -0.9330    0.5119 H   0  0  0  0  0  0  0  0  0  0  0  0
    3.8520   -1.9284   -1.0189 H   0  0  0  0  0  0  0  0  0  0  0  0
    1.6588   -1.5460   -1.7936 H   0  0  0  0  0  0  0  0  0  0  0  0
    1.4508   -1.8104   -0.0349 H   0  0  0  0  0  0  0  0  0  0  0  0
    6.3185    1.5755    0.7708 H   0  0  0  0  0  0  0  0  0  0  0  0
    7.0039   -0.6257   -1.2356 H   0  0  0  0  0  0  0  0  0  0  0  0
    8.0891    0.1045    0.1151 H   0  0  0  0  0  0  0  0  0  0  0  0
    6.5733   -0.6989    1.9077 H   0  0  0  0  0  0  0  0  0  0  0  0
    5.6305   -1.6126    0.5703 H   0  0  0  0  0  0  0  0  0  0  0  0
   -0.6083   -0.6154   -1.1701 H   0  0  0  0  0  0  0  0  0  0  0  0
   -0.5971    1.1599   -1.2900 H   0  0  0  0  0  0  0  0  0  0  0  0
   -4.5489    0.2200   -2.1661 H   0  0  0  0  0  0  0  0  0  0  0  0
   -7.0010   -0.0399   -2.1319 H   0  0  0  0  0  0  0  0  0  0  0  0
  1  2  1  0
  2  3  1  0
  2  4  1  0
  2  5  1  0
  5  6  2  0
  6  7  1  0
  7  8  2  0
  8  9  1  0
  9 10  1  0
 10 11  2  0
 10 12  1  0
 12 13  1  0
 13 14  1  0
 14 15  1  0
 15 16  1  0
 16 17  1  0
 17 18  1  0
 18 19  1  0
 19 20  1  0
 20 21  1  0
 19 22  1  0
 22 23  2  0
 22 24  1  0
 24 25  1  0
 25 26  1  0
 16 27  1  0
  8 28  1  0
 28 29  2  0
 29  5  1  0
 27 12  1  0
 21 16  1  0
 26 24  1  0
  6 30  1  0
  7 31  1  0
  9 32  1  0
 13 33  1  0
 13 34  1  0
 14 35  1  0
 14 36  1  0
 17 37  1  0
 17 38  1  0
 18 39  1  0
 18 40  1  0
 20 41  1  0
 20 42  1  0
 21 43  1  0
 21 44  1  0
 24 45  1  0
 25 46  1  0
 25 47  1  0
 26 48  1  0
 26 49  1  0
 27 50  1  0
 27 51  1  0
 28 52  1  0
 29 53  1  0
M  END
$$$$
[H]c1c(Cl)c([H])c2c(c1[H])c(C1=C(c3c([H])n(C([H])([H])[H])c4c([H])c(C(F)(F)F)c([H])c([H])c34)C(=O)N([H])C1=O)c([H])n2C([H])([H])[H]
     RDKit          3D

 47 51  0  0  0  0  0  0  0  0999 V2000
   -4.3089   -1.4719    2.0344 C   0  0  0  0  0  0  0  0  0  0  0  0
   -3.6234   -0.7378    0.9659 N   0  0  0  0  0  0  0  0  0  0  0  0
   -2.5375    0.0611    1.1421 C   0  0  0  0  0  0  0  0  0  0  0  0
   -2.1497    0.6406   -0.0222 C   0  0  0  0  0  0  0  0  0  0  0  0
   -1.1149    1.6390   -0.3519 C   0  0  0  0  0  0  0  0  0  0  0  0
    0.1816    1.6807   -0.1881 C   0  0  0  0  0  0  0  0  0  0  0  0
    0.6723    2.9754   -0.7363 C   0  0  0  0  0  0  0  0  0  0  0  0
    1.8633    3.3473   -0.7520 O   0  0  0  0  0  0  0  0  0  0  0  0
   -0.4088    3.6941   -1.2283 N   0  0  0  0  0  0  0  0  0  0  0  0
   -1.5418    2.9173   -1.0139 C   0  0  0  0  0  0  0  0  0  0  0  0
   -2.7619    3.1620   -1.2877 O   0  0  0  0  0  0  0  0  0  0  0  0
    1.1409    0.7646    0.4633 C   0  0  0  0  0  0  0  0  0  0  0  0
    1.0408    0.2181    1.7027 C   0  0  0  0  0  0  0  0  0  0  0  0
    2.1668   -0.5055    1.9691 N   0  0  0  0  0  0  0  0  0  0  0  0
    2.4605   -1.2199    3.1817 C   0  0  0  0  0  0  0  0  0  0  0  0
    3.0209   -0.4546    0.9250 C   0  0  0  0  0  0  0  0  0  0  0  0
    4.2753   -0.9979    0.7480 C   0  0  0  0  0  0  0  0  0  0  0  0
    4.9702   -0.7685   -0.4104 C   0  0  0  0  0  0  0  0  0  0  0  0
    4.3334    0.0206   -1.3574 C   0  0  0  0  0  0  0  0  0  0  0  0
    3.0850    0.5520   -1.1709 C   0  0  0  0  0  0  0  0  0  0  0  0
    2.3727    0.3438   -0.0170 C   0  0  0  0  0  0  0  0  0  0  0  0
    6.3627   -1.2903   -0.6660 C   0  0  0  0  0  0  0  0  0  0  0  0
    7.1435   -1.0915    0.4664 F   0  0  0  0  0  0  0  0  0  0  0  0
    6.3855   -2.6012   -1.0127 F   0  0  0  0  0  0  0  0  0  0  0  0
    7.0049   -0.5641   -1.6868 F   0  0  0  0  0  0  0  0  0  0  0  0
   -3.0795    0.1456   -0.9732 C   0  0  0  0  0  0  0  0  0  0  0  0
   -3.3025    0.3104   -2.3124 C   0  0  0  0  0  0  0  0  0  0  0  0
   -4.3576   -0.3161   -2.9920 C   0  0  0  0  0  0  0  0  0  0  0  0
   -5.2227   -1.1417   -2.3232 C   0  0  0  0  0  0  0  0  0  0  0  0
   -6.5429   -1.9225   -3.1858 Cl  0  0  0  0  0  0  0  0  0  0  0  0
   -5.0105   -1.3251   -0.9718 C   0  0  0  0  0  0  0  0  0  0  0  0
   -3.9610   -0.6973   -0.3156 C   0  0  0  0  0  0  0  0  0  0  0  0
   -4.5865   -0.7011    2.7982 H   0  0  0  0  0  0  0  0  0  0  0  0
   -3.5934   -2.1868    2.4578 H   0  0  0  0  0  0  0  0  0  0  0  0
   -5.2381   -1.9273    1.5930 H   0  0  0  0  0  0  0  0  0  0  0  0
   -2.0895    0.1967    2.1068 H   0  0  0  0  0  0  0  0  0  0  0  0
   -0.4422    4.6470   -1.7030 H   0  0  0  0  0  0  0  0  0  0  0  0
    0.2268    0.3129    2.4426 H   0  0  0  0  0  0  0  0  0  0  0  0
    3.5684   -1.1739    3.4233 H   0  0  0  0  0  0  0  0  0  0  0  0
    1.9873   -0.8051    4.0848 H   0  0  0  0  0  0  0  0  0  0  0  0
    2.2467   -2.3127    3.0479 H   0  0  0  0  0  0  0  0  0  0  0  0
    4.7216   -1.5798    1.5282 H   0  0  0  0  0  0  0  0  0  0  0  0
    4.8576    0.2260   -2.3149 H   0  0  0  0  0  0  0  0  0  0  0  0
    2.5783    1.1442   -1.9415 H   0  0  0  0  0  0  0  0  0  0  0  0
   -2.6433    0.9236   -2.9291 H   0  0  0  0  0  0  0  0  0  0  0  0
   -4.4751   -0.1609   -4.0601 H   0  0  0  0  0  0  0  0  0  0  0  0
   -5.6751   -1.9692   -0.4315 H   0  0  0  0  0  0  0  0  0  0  0  0
  1  2  1  0
  2  3  1  0
  3  4  2  0
  4  5  1  0
  5  6  2  0
  6  7  1  0
  7  8  2  0
  7  9  1  0
  9 10  1  0
 10 11  2  0
  6 12  1  0
 12 13  2  0
 13 14  1  0
 14 15  1  0
 14 16  1  0
 16 17  2  0
 17 18  1  0
 18 19  2  0
 19 20  1  0
 20 21  2  0
 18 22  1  0
 22 23  1  0
 22 24  1  0
 22 25  1  0
  4 26  1  0
 26 27  2  0
 27 28  1  0
 28 29  2  0
 29 30  1  0
 29 31  1  0
 31 32  2  0
 32  2  1  0
 10  5  1  0
 21 12  1  0
 32 26  1  0
 21 16  1  0
  1 33  1  0
  1 34  1  0
  1 35  1  0
  3 36  1  0
  9 37  1  0
 13 38  1  0
 15 39  1  0
 15 40  1  0
 15 41  1  0
 17 42  1  0
 19 43  1  0
 20 44  1  0
 27 45  1  0
 28 46  1  0
 31 47  1  0
M  END
$$$$
[H]/C(C(=O)N([H])c1c(OC([H])([H])[H])c([H])c2nc([H])nc(N([H])c3c([H])c([H])c(F)c(Cl)c3[H])c2c1[H])=C(/[H])C([H])([H])N1C([H])([H])C([H])([H])OC([H])([H])C1([H])[H]
     RDKit          3D

 56 59  0  0  0  0  0  0  0  0999 V2000
    0.5694   -0.7907   -4.8376 C   0  0  0  0  0  0  0  0  0  0  0  0
   -0.1368   -0.8084   -3.5994 O   0  0  0  0  0  0  0  0  0  0  0  0
   -1.0244   -0.1401   -3.0119 C   0  0  0  0  0  0  0  0  0  0  0  0
   -1.9083    0.8128   -3.4478 C   0  0  0  0  0  0  0  0  0  0  0  0
   -2.8971    1.3729   -2.5585 C   0  0  0  0  0  0  0  0  0  0  0  0
   -3.8369    2.0980   -3.0760 N   0  0  0  0  0  0  0  0  0  0  0  0
   -4.9674    2.5081   -2.3584 C   0  0  0  0  0  0  0  0  0  0  0  0
   -4.9701    2.0767   -1.0727 N   0  0  0  0  0  0  0  0  0  0  0  0
   -4.0645    1.3331   -0.4278 C   0  0  0  0  0  0  0  0  0  0  0  0
   -4.1739    0.9765    0.9245 N   0  0  0  0  0  0  0  0  0  0  0  0
   -5.3557    1.0371    1.6784 C   0  0  0  0  0  0  0  0  0  0  0  0
   -5.8669   -0.2811    2.0652 C   0  0  0  0  0  0  0  0  0  0  0  0
   -6.9426   -0.3514    2.7604 C   0  0  0  0  0  0  0  0  0  0  0  0
   -7.6829    0.7555    3.1914 C   0  0  0  0  0  0  0  0  0  0  0  0
   -8.8522    0.5843    3.8949 F   0  0  0  0  0  0  0  0  0  0  0  0
   -7.2729    1.9668    2.8734 C   0  0  0  0  0  0  0  0  0  0  0  0
   -8.1563    3.4233    3.3278 Cl  0  0  0  0  0  0  0  0  0  0  0  0
   -6.0310    2.1375    2.0597 C   0  0  0  0  0  0  0  0  0  0  0  0
   -2.9700    0.9728   -1.2399 C   0  0  0  0  0  0  0  0  0  0  0  0
   -2.0466   -0.0019   -0.7388 C   0  0  0  0  0  0  0  0  0  0  0  0
   -1.2153   -0.4416   -1.5958 C   0  0  0  0  0  0  0  0  0  0  0  0
    0.0905   -1.0463   -1.2068 N   0  0  0  0  0  0  0  0  0  0  0  0
    0.8264   -0.4196   -0.1829 C   0  0  0  0  0  0  0  0  0  0  0  0
    0.2447    0.5344    0.4577 O   0  0  0  0  0  0  0  0  0  0  0  0
    2.1521   -0.7218    0.1638 C   0  0  0  0  0  0  0  0  0  0  0  0
    3.0241   -1.6461   -0.1957 C   0  0  0  0  0  0  0  0  0  0  0  0
    4.3698   -1.6218    0.3687 C   0  0  0  0  0  0  0  0  0  0  0  0
    5.5670   -1.6035    0.8727 N   0  0  0  0  0  0  0  0  0  0  0  0
    5.6858   -1.3571    2.2712 C   0  0  0  0  0  0  0  0  0  0  0  0
    7.0593   -1.6057    2.8101 C   0  0  0  0  0  0  0  0  0  0  0  0
    8.0790   -1.1179    1.9736 O   0  0  0  0  0  0  0  0  0  0  0  0
    7.5387   -0.1495    1.1128 C   0  0  0  0  0  0  0  0  0  0  0  0
    6.5705   -0.7842    0.1656 C   0  0  0  0  0  0  0  0  0  0  0  0
   -0.2051   -1.2134   -5.6118 H   0  0  0  0  0  0  0  0  0  0  0  0
    0.8476    0.1605   -5.2269 H   0  0  0  0  0  0  0  0  0  0  0  0
    1.3334   -1.6007   -4.8665 H   0  0  0  0  0  0  0  0  0  0  0  0
   -1.9256    1.2027   -4.4619 H   0  0  0  0  0  0  0  0  0  0  0  0
   -5.7066    3.1380   -2.8068 H   0  0  0  0  0  0  0  0  0  0  0  0
   -3.3062    0.6539    1.4303 H   0  0  0  0  0  0  0  0  0  0  0  0
   -5.2448   -1.1250    1.6964 H   0  0  0  0  0  0  0  0  0  0  0  0
   -7.4047   -1.3364    3.0746 H   0  0  0  0  0  0  0  0  0  0  0  0
   -5.7422    3.1385    1.8670 H   0  0  0  0  0  0  0  0  0  0  0  0
   -2.1784   -0.2948    0.2860 H   0  0  0  0  0  0  0  0  0  0  0  0
    0.3756   -1.8811   -1.6720 H   0  0  0  0  0  0  0  0  0  0  0  0
    2.6286   -0.0497    0.9636 H   0  0  0  0  0  0  0  0  0  0  0  0
    2.6409   -2.3895   -0.8503 H   0  0  0  0  0  0  0  0  0  0  0  0
    4.2719   -2.9748    0.5068 H   0  0  0  0  0  0  0  0  0  0  0  0
    4.8600   -1.9985   -0.8829 H   0  0  0  0  0  0  0  0  0  0  0  0
    4.9898   -2.0237    2.8435 H   0  0  0  0  0  0  0  0  0  0  0  0
    5.3838   -0.2889    2.4469 H   0  0  0  0  0  0  0  0  0  0  0  0
    7.2150   -2.7091    2.9192 H   0  0  0  0  0  0  0  0  0  0  0  0
    7.1296   -1.1837    3.8144 H   0  0  0  0  0  0  0  0  0  0  0  0
    8.4134    0.2092    0.4840 H   0  0  0  0  0  0  0  0  0  0  0  0
    7.1205    0.7306    1.6237 H   0  0  0  0  0  0  0  0  0  0  0  0
    7.0717   -1.3517   -0.6159 H   0  0  0  0  0  0  0  0  0  0  0  0
    6.0263    0.0330   -0.3828 H   0  0  0  0  0  0  0  0  0  0  0  0
  1  2  1  0
  2  3  1  0
  3  4  2  0
  4  5  1  0
  5  6  2  0
  6  7  1  0
  7  8  2  0
  8  9  1  0
  9 10  1  0
 10 11  1  0
 11 12  2  0
 12 13  1  0
 13 14  2  0
 14 15  1  0
 14 16  1  0
 16 17  1  0
 16 18  2  0
  9 19  2  0
 19 20  1  0
 20 21  2  0
 21 22  1  0
 22 23  1  0
 23 24  2  0
 23 25  1  0
 25 26  2  0
 26 27  1  0
 27 28  1  0
 28 29  1  0
 29 30  1  0
 30 31  1  0
 31 32  1  0
 32 33  1  0
 21  3  1  0
 33 28  1  0
 19  5  1  0
 18 11  1  0
  1 34  1  0
  1 35  1  0
  1 36  1  0
  4 37  1  0
  7 38  1  0
 10 39  1  0
 12 40  1  0
 13 41  1  0
 18 42  1  0
 20 43  1  0
 22 44  1  0
 25 45  1  0
 26 46  1  0
 27 47  1  0
 27 48  1  0
 29 49  1  0
 29 50  1  0
 30 51  1  0
 30 52  1  0
 32 53  1  0
 32 54  1  0
 33 55  1  0
 33 56  1  0
M  END
$$$$
[H]c1nc2c([H])c(OC([H])([H])C([H])([H])C([H])([H])N3C([H])([H])C([H])([H])C([H])([H])C3([H])[H])c(OC([H])([H])[H])c([H])c2c(Oc2c([H])c([H])c(N([H])C(=O)C3(C(=O)N([H])c4c([H])c([H])c(F)c([H])c4[H])C([H])([H])C3([H])[H])c([H])c2F)c1[H]
     RDKit          3D

 79 84  0  0  0  0  0  0  0  0999 V2000
    3.8302   -0.0691   -3.3168 C   0  0  0  0  0  0  0  0  0  0  0  0
    4.6497   -0.4182   -2.2188 O   0  0  0  0  0  0  0  0  0  0  0  0
    4.0655   -0.7075   -0.9793 C   0  0  0  0  0  0  0  0  0  0  0  0
    2.7038   -0.6652   -0.7796 C   0  0  0  0  0  0  0  0  0  0  0  0
    2.1805   -0.9596    0.4612 C   0  0  0  0  0  0  0  0  0  0  0  0
    0.7874   -0.9181    0.6667 C   0  0  0  0  0  0  0  0  0  0  0  0
    0.0317   -0.5716   -0.4221 O   0  0  0  0  0  0  0  0  0  0  0  0
   -1.3360   -0.4198   -0.3755 C   0  0  0  0  0  0  0  0  0  0  0  0
   -2.1111   -1.2947   -1.1247 C   0  0  0  0  0  0  0  0  0  0  0  0
   -3.5108   -1.1877   -1.1187 C   0  0  0  0  0  0  0  0  0  0  0  0
   -4.1675   -0.2317   -0.3847 C   0  0  0  0  0  0  0  0  0  0  0  0
   -5.5693   -0.0973   -0.3121 N   0  0  0  0  0  0  0  0  0  0  0  0
   -6.4406   -1.1674   -0.4417 C   0  0  0  0  0  0  0  0  0  0  0  0
   -5.9503   -2.3401   -0.6205 O   0  0  0  0  0  0  0  0  0  0  0  0
   -7.9298   -1.1425   -0.3986 C   0  0  0  0  0  0  0  0  0  0  0  0
   -8.5097   -1.9318   -1.5975 C   0  0  0  0  0  0  0  0  0  0  0  0
   -8.6996   -2.3541   -0.1472 C   0  0  0  0  0  0  0  0  0  0  0  0
   -8.6206    0.1857   -0.2605 C   0  0  0  0  0  0  0  0  0  0  0  0
   -8.0996    1.1688   -0.8790 O   0  0  0  0  0  0  0  0  0  0  0  0
   -9.7839    0.3112    0.5201 N   0  0  0  0  0  0  0  0  0  0  0  0
  -10.5689    1.4642    0.7610 C   0  0  0  0  0  0  0  0  0  0  0  0
  -10.3767    2.6451    0.1352 C   0  0  0  0  0  0  0  0  0  0  0  0
  -11.1598    3.7823    0.3923 C   0  0  0  0  0  0  0  0  0  0  0  0
  -12.1603    3.6868    1.3171 C   0  0  0  0  0  0  0  0  0  0  0  0
  -12.9512    4.7463    1.6112 F   0  0  0  0  0  0  0  0  0  0  0  0
  -12.3775    2.4821    1.9738 C   0  0  0  0  0  0  0  0  0  0  0  0
  -11.6028    1.4050    1.7013 C   0  0  0  0  0  0  0  0  0  0  0  0
   -3.3713    0.6452    0.3658 C   0  0  0  0  0  0  0  0  0  0  0  0
   -2.0062    0.5395    0.3574 C   0  0  0  0  0  0  0  0  0  0  0  0
   -1.2644    1.4364    1.0821 F   0  0  0  0  0  0  0  0  0  0  0  0
    0.2549   -1.2099    1.8925 C   0  0  0  0  0  0  0  0  0  0  0  0
    1.1166   -1.5496    2.9406 C   0  0  0  0  0  0  0  0  0  0  0  0
    2.4469   -1.5945    2.7661 N   0  0  0  0  0  0  0  0  0  0  0  0
    2.9636   -1.3020    1.5392 C   0  0  0  0  0  0  0  0  0  0  0  0
    4.3401   -1.3442    1.3348 C   0  0  0  0  0  0  0  0  0  0  0  0
    4.8755   -1.0534    0.1037 C   0  0  0  0  0  0  0  0  0  0  0  0
    6.2469   -1.0998   -0.0841 O   0  0  0  0  0  0  0  0  0  0  0  0
    7.1860   -1.4315    0.8954 C   0  0  0  0  0  0  0  0  0  0  0  0
    8.5618   -1.3523    0.2422 C   0  0  0  0  0  0  0  0  0  0  0  0
    8.8377    0.0237   -0.2786 C   0  0  0  0  0  0  0  0  0  0  0  0
   10.1205    0.1556   -0.9217 N   0  0  0  0  0  0  0  0  0  0  0  0
   10.2436    1.5262   -1.4031 C   0  0  0  0  0  0  0  0  0  0  0  0
   11.0322    2.2660   -0.3700 C   0  0  0  0  0  0  0  0  0  0  0  0
   11.5546    1.2606    0.6014 C   0  0  0  0  0  0  0  0  0  0  0  0
   11.2376   -0.0641   -0.0616 C   0  0  0  0  0  0  0  0  0  0  0  0
    3.3765    0.9286   -3.1970 H   0  0  0  0  0  0  0  0  0  0  0  0
    4.4163   -0.0517   -4.2499 H   0  0  0  0  0  0  0  0  0  0  0  0
    3.0058   -0.8063   -3.4597 H   0  0  0  0  0  0  0  0  0  0  0  0
    2.0351   -0.4042   -1.5819 H   0  0  0  0  0  0  0  0  0  0  0  0
   -1.6280   -2.0600   -1.7140 H   0  0  0  0  0  0  0  0  0  0  0  0
   -4.0345   -1.8999   -1.7520 H   0  0  0  0  0  0  0  0  0  0  0  0
   -5.8979    0.9020   -0.1436 H   0  0  0  0  0  0  0  0  0  0  0  0
   -9.4104   -1.5492   -2.0945 H   0  0  0  0  0  0  0  0  0  0  0  0
   -7.8369   -2.4982   -2.2408 H   0  0  0  0  0  0  0  0  0  0  0  0
   -9.7256   -2.3351    0.2515 H   0  0  0  0  0  0  0  0  0  0  0  0
   -8.2063   -3.3359    0.0651 H   0  0  0  0  0  0  0  0  0  0  0  0
  -10.1051   -0.5933    0.9972 H   0  0  0  0  0  0  0  0  0  0  0  0
   -9.6143    2.8165   -0.6168 H   0  0  0  0  0  0  0  0  0  0  0  0
  -10.9844    4.7155   -0.1228 H   0  0  0  0  0  0  0  0  0  0  0  0
  -13.1976    2.4655    2.7080 H   0  0  0  0  0  0  0  0  0  0  0  0
  -11.7615    0.4726    2.2022 H   0  0  0  0  0  0  0  0  0  0  0  0
   -3.8884    1.3915    0.9384 H   0  0  0  0  0  0  0  0  0  0  0  0
   -0.8110   -1.1887    2.0237 H   0  0  0  0  0  0  0  0  0  0  0  0
    0.6248   -1.7679    3.8853 H   0  0  0  0  0  0  0  0  0  0  0  0
    4.9378   -1.6182    2.2038 H   0  0  0  0  0  0  0  0  0  0  0  0
    7.0153   -2.4584    1.2939 H   0  0  0  0  0  0  0  0  0  0  0  0
    7.0829   -0.7295    1.7455 H   0  0  0  0  0  0  0  0  0  0  0  0
    9.2768   -1.5920    1.0523 H   0  0  0  0  0  0  0  0  0  0  0  0
    8.5627   -2.1087   -0.5653 H   0  0  0  0  0  0  0  0  0  0  0  0
    8.0505    0.3787   -0.9835 H   0  0  0  0  0  0  0  0  0  0  0  0
    8.8188    0.7816    0.5583 H   0  0  0  0  0  0  0  0  0  0  0  0
   10.7510    1.5557   -2.3913 H   0  0  0  0  0  0  0  0  0  0  0  0
    9.2554    2.0054   -1.5336 H   0  0  0  0  0  0  0  0  0  0  0  0
   11.8781    2.8410   -0.8425 H   0  0  0  0  0  0  0  0  0  0  0  0
   10.4182    3.0320    0.1776 H   0  0  0  0  0  0  0  0  0  0  0  0
   12.6504    1.3755    0.7793 H   0  0  0  0  0  0  0  0  0  0  0  0
   11.0431    1.2979    1.5947 H   0  0  0  0  0  0  0  0  0  0  0  0
   12.1173   -0.4278   -0.6539 H   0  0  0  0  0  0  0  0  0  0  0  0
   11.0857   -0.7881    0.7446 H   0  0  0  0  0  0  0  0  0  0  0  0
  1  2  1  0
  2  3  1  0
  3  4  2  0
  4  5  1  0
  5  6  2  0
  6  7  1  0
  7  8  1  0
  8  9  2  0
  9 10  1  0
 10 11  2  0
 11 12  1  0
 12 13  1  0
 13 14  2  0
 13 15  1  0
 15 16  1  0
 16 17  1  0
 15 18  1  0
 18 19  2  0
 18 20  1  0
 20 21  1  0
 21 22  2  0
 22 23  1  0
 23 24  2  0
 24 25  1  0
 24 26  1  0
 26 27  2  0
 11 28  1  0
 28 29  2  0
 29 30  1  0
  6 31  1  0
 31 32  2  0
 32 33  1  0
 33 34  2  0
 34 35  1  0
 35 36  2  0
 36 37  1  0
 37 38  1  0
 38 39  1  0
 39 40  1  0
 40 41  1  0
 41 42  1  0
 42 43  1  0
 43 44  1  0
 44 45  1  0
 36  3  1  0
 45 41  1  0
 34  5  1  0
 29  8  1  0
 17 15  1  0
 27 21  1  0
  1 46  1  0
  1 47  1  0
  1 48  1  0
  4 49  1  0
  9 50  1  0
 10 51  1  0
 12 52  1  0
 16 53  1  0
 16 54  1  0
 17 55  1  0
 17 56  1  0
 20 57  1  0
 22 58  1  0
 23 59  1  0
 26 60  1  0
 27 61  1  0
 28 62  1  0
 31 63  1  0
 32 64  1  0
 35 65  1  0
 38 66  1  0
 38 67  1  0
 39 68  1  0
 39 69  1  0
 40 70  1  0
 40 71  1  0
 42 72  1  0
 42 73  1  0
 43 74  1  0
 43 75  1  0
 44 76  1  0
 44 77  1  0
 45 78  1  0
 45 79  1  0
M  END
$$$$
[H]c1nc(S(=O)(=O)C([H])([H])[H])c([H])c([H])c1Oc1c(C2([H])N(C([H])([H])[H])C(=O)C([H])([H])C2([H])[H])c([H])c2c(c1[H])c([H])c(-c1c([H])c([H])c(F)c([H])c1[H])n2[H]
     RDKit          3D

 56 60  0  0  0  0  0  0  0  0999 V2000
    2.2196    3.9793    0.2414 C   0  0  0  0  0  0  0  0  0  0  0  0
    0.9778    3.9698   -0.4681 N   0  0  0  0  0  0  0  0  0  0  0  0
    0.5980    3.0265   -1.5027 C   0  0  0  0  0  0  0  0  0  0  0  0
   -0.3199    3.8312   -2.3771 C   0  0  0  0  0  0  0  0  0  0  0  0
   -0.9397    4.8888   -1.5319 C   0  0  0  0  0  0  0  0  0  0  0  0
   -0.0956    4.8767   -0.2949 C   0  0  0  0  0  0  0  0  0  0  0  0
   -0.3019    5.5586    0.7325 O   0  0  0  0  0  0  0  0  0  0  0  0
   -0.0986    1.8391   -1.0132 C   0  0  0  0  0  0  0  0  0  0  0  0
   -1.4594    1.6559   -1.0592 C   0  0  0  0  0  0  0  0  0  0  0  0
   -2.0579    0.4912   -0.5517 C   0  0  0  0  0  0  0  0  0  0  0  0
   -3.3486    0.0880   -0.4823 N   0  0  0  0  0  0  0  0  0  0  0  0
   -3.4226   -1.1178    0.0983 C   0  0  0  0  0  0  0  0  0  0  0  0
   -2.1447   -1.5086    0.4147 C   0  0  0  0  0  0  0  0  0  0  0  0
   -1.3088   -0.5023    0.0061 C   0  0  0  0  0  0  0  0  0  0  0  0
    0.0619   -0.3423    0.0638 C   0  0  0  0  0  0  0  0  0  0  0  0
    0.6498    0.8030   -0.4354 C   0  0  0  0  0  0  0  0  0  0  0  0
    2.0048    0.9578   -0.3813 O   0  0  0  0  0  0  0  0  0  0  0  0
    2.9482    0.0959    0.0840 C   0  0  0  0  0  0  0  0  0  0  0  0
    3.3766    0.0196    1.3975 C   0  0  0  0  0  0  0  0  0  0  0  0
    4.3588   -0.9202    1.7207 C   0  0  0  0  0  0  0  0  0  0  0  0
    4.9063   -1.7610    0.7851 C   0  0  0  0  0  0  0  0  0  0  0  0
    4.4767   -1.6743   -0.4935 N   0  0  0  0  0  0  0  0  0  0  0  0
    3.5340   -0.7783   -0.8236 C   0  0  0  0  0  0  0  0  0  0  0  0
    6.1435   -2.9461    1.1367 S   0  0  0  0  0  0  0  0  0  0  0  0
    5.5048   -4.5602    0.6959 C   0  0  0  0  0  0  0  0  0  0  0  0
    7.3817   -2.6507    0.3352 O   0  0  0  0  0  0  0  0  0  0  0  0
    6.5082   -2.9621    2.5859 O   0  0  0  0  0  0  0  0  0  0  0  0
   -4.6477   -1.9020    0.3560 C   0  0  0  0  0  0  0  0  0  0  0  0
   -4.5464   -3.1193    0.9894 C   0  0  0  0  0  0  0  0  0  0  0  0
   -5.6283   -3.9294    1.2735 C   0  0  0  0  0  0  0  0  0  0  0  0
   -6.8672   -3.4660    0.8891 C   0  0  0  0  0  0  0  0  0  0  0  0
   -7.9542   -4.2440    1.1557 F   0  0  0  0  0  0  0  0  0  0  0  0
   -7.0074   -2.2342    0.2437 C   0  0  0  0  0  0  0  0  0  0  0  0
   -5.8948   -1.4657   -0.0154 C   0  0  0  0  0  0  0  0  0  0  0  0
    3.0863    3.6353   -0.3931 H   0  0  0  0  0  0  0  0  0  0  0  0
    2.5236    4.9946    0.5812 H   0  0  0  0  0  0  0  0  0  0  0  0
    2.2148    3.3681    1.1792 H   0  0  0  0  0  0  0  0  0  0  0  0
    1.4798    2.6815   -2.0861 H   0  0  0  0  0  0  0  0  0  0  0  0
    0.3561    4.3020   -3.1584 H   0  0  0  0  0  0  0  0  0  0  0  0
   -1.0260    3.2255   -2.9787 H   0  0  0  0  0  0  0  0  0  0  0  0
   -2.0174    4.7724   -1.3251 H   0  0  0  0  0  0  0  0  0  0  0  0
   -0.7178    5.8859   -2.0006 H   0  0  0  0  0  0  0  0  0  0  0  0
   -2.0853    2.4093   -1.4863 H   0  0  0  0  0  0  0  0  0  0  0  0
   -4.1462    0.6539   -0.8376 H   0  0  0  0  0  0  0  0  0  0  0  0
   -1.8526   -2.4541    0.9050 H   0  0  0  0  0  0  0  0  0  0  0  0
    0.6368   -1.1469    0.5129 H   0  0  0  0  0  0  0  0  0  0  0  0
    2.9429    0.6832    2.1272 H   0  0  0  0  0  0  0  0  0  0  0  0
    4.7003   -0.9864    2.7497 H   0  0  0  0  0  0  0  0  0  0  0  0
    3.1770   -0.6974   -1.8591 H   0  0  0  0  0  0  0  0  0  0  0  0
    4.6153   -4.7464    1.3135 H   0  0  0  0  0  0  0  0  0  0  0  0
    6.3139   -5.3120    0.8574 H   0  0  0  0  0  0  0  0  0  0  0  0
    5.2414   -4.4941   -0.3805 H   0  0  0  0  0  0  0  0  0  0  0  0
   -3.5715   -3.4692    1.2838 H   0  0  0  0  0  0  0  0  0  0  0  0
   -5.4611   -4.8719    1.7735 H   0  0  0  0  0  0  0  0  0  0  0  0
   -8.0045   -1.9263   -0.0330 H   0  0  0  0  0  0  0  0  0  0  0  0
   -6.0129   -0.5040   -0.5196 H   0  0  0  0  0  0  0  0  0  0  0  0
  1  2  1  0
  2  3  1  0
  3  4  1  0
  4  5  1  0
  5  6  1  0
  6  7  2  0
  3  8  1  0
  8  9  2  0
  9 10  1  0
 10 11  1  0
 11 12  1  0
 12 13  2  0
 13 14  1  0
 14 15  1  0
 15 16  2  0
 16 17  1  0
 17 18  1  0
 18 19  2  0
 19 20  1  0
 20 21  2  0
 21 22  1  0
 22 23  2  0
 21 24  1  0
 24 25  1  0
 24 26  2  0
 24 27  2  0
 12 28  1  0
 28 29  2  0
 29 30  1  0
 30 31  2  0
 31 32  1  0
 31 33  1  0
 33 34  2  0
  6  2  1  0
 16  8  1  0
 23 18  1  0
 34 28  1  0
 14 10  2  0
  1 35  1  0
  1 36  1  0
  1 37  1  0
  3 38  1  0
  4 39  1  0
  4 40  1  0
  5 41  1  0
  5 42  1  0
  9 43  1  0
 11 44  1  0
 13 45  1  0
 15 46  1  0
 19 47  1  0
 20 48  1  0
 23 49  1  0
 25 50  1  0
 25 51  1  0
 25 52  1  0
 29 53  1  0
 30 54  1  0
 33 55  1  0
 34 56  1  0
M  END
$$$$
[H]ON([H])C(=O)C([H])([H])N(C([H])([H])c1c([H])c([H])c([N+](=O)[O-])c([H])c1[H])S(=O)(=O)c1c([H])c([H])c(OC([H])([H])[H])c([H])c1[H]
     RDKit          3D

 44 45  0  0  0  0  0  0  0  0999 V2000
   -6.5769    0.7493    1.3067 C   0  0  0  0  0  0  0  0  0  0  0  0
   -5.6463   -0.2263    1.7388 O   0  0  0  0  0  0  0  0  0  0  0  0
   -4.4010   -0.2935    1.0805 C   0  0  0  0  0  0  0  0  0  0  0  0
   -3.4530   -1.2214    1.4550 C   0  0  0  0  0  0  0  0  0  0  0  0
   -2.2251   -1.3110    0.8292 C   0  0  0  0  0  0  0  0  0  0  0  0
   -1.9329   -0.4514   -0.1993 C   0  0  0  0  0  0  0  0  0  0  0  0
   -2.8690    0.4793   -0.5835 C   0  0  0  0  0  0  0  0  0  0  0  0
   -4.1059    0.5702    0.0461 C   0  0  0  0  0  0  0  0  0  0  0  0
   -0.4129   -0.5204   -1.0158 S   0  0  0  0  0  0  0  0  0  0  0  0
    0.0433   -1.9435   -1.0343 O   0  0  0  0  0  0  0  0  0  0  0  0
   -0.5513   -0.0927   -2.4641 O   0  0  0  0  0  0  0  0  0  0  0  0
    0.7827    0.4794   -0.3071 N   0  0  0  0  0  0  0  0  0  0  0  0
    0.4482    1.8668   -0.3158 C   0  0  0  0  0  0  0  0  0  0  0  0
    0.9207    2.5658   -1.5396 C   0  0  0  0  0  0  0  0  0  0  0  0
    1.5478    1.9694   -2.4550 O   0  0  0  0  0  0  0  0  0  0  0  0
    0.6643    3.9452   -1.6933 N   0  0  0  0  0  0  0  0  0  0  0  0
    1.0881    4.5985   -2.8031 O   0  0  0  0  0  0  0  0  0  0  0  0
    1.3033   -0.0095    0.9318 C   0  0  0  0  0  0  0  0  0  0  0  0
    2.4932   -0.8643    0.6837 C   0  0  0  0  0  0  0  0  0  0  0  0
    3.1174   -1.5124    1.7506 C   0  0  0  0  0  0  0  0  0  0  0  0
    4.2147   -2.2950    1.4986 C   0  0  0  0  0  0  0  0  0  0  0  0
    4.7412   -2.4783    0.2325 C   0  0  0  0  0  0  0  0  0  0  0  0
    4.1116   -1.8282   -0.8222 C   0  0  0  0  0  0  0  0  0  0  0  0
    3.0081   -1.0387   -0.5837 C   0  0  0  0  0  0  0  0  0  0  0  0
    5.8785   -3.2931   -0.0064 N   0  0  0  0  0  0  0  0  0  0  0  0
    6.4826   -3.9245    1.0510 O   0  0  0  0  0  0  0  0  0  0  0  0
    6.3038   -3.4180   -1.1672 O   0  0  0  0  0  0  0  0  0  0  0  0
   -7.4725    0.7649    1.9253 H   0  0  0  0  0  0  0  0  0  0  0  0
   -6.8439    0.5694    0.2384 H   0  0  0  0  0  0  0  0  0  0  0  0
   -6.0854    1.7600    1.3334 H   0  0  0  0  0  0  0  0  0  0  0  0
   -3.7097   -1.8861    2.2683 H   0  0  0  0  0  0  0  0  0  0  0  0
   -1.4966   -2.0670    1.1599 H   0  0  0  0  0  0  0  0  0  0  0  0
   -2.6889    1.1802   -1.3883 H   0  0  0  0  0  0  0  0  0  0  0  0
   -4.8636    1.2893   -0.2306 H   0  0  0  0  0  0  0  0  0  0  0  0
    0.9560    2.3463    0.5496 H   0  0  0  0  0  0  0  0  0  0  0  0
   -0.6355    2.0703   -0.1799 H   0  0  0  0  0  0  0  0  0  0  0  0
    0.1481    4.4452   -0.9440 H   0  0  0  0  0  0  0  0  0  0  0  0
    1.2657    5.5425   -2.5420 H   0  0  0  0  0  0  0  0  0  0  0  0
    0.5160   -0.6680    1.3867 H   0  0  0  0  0  0  0  0  0  0  0  0
    1.5088    0.7954    1.6623 H   0  0  0  0  0  0  0  0  0  0  0  0
    2.7000   -1.3620    2.7246 H   0  0  0  0  0  0  0  0  0  0  0  0
    4.6866   -2.7903    2.3377 H   0  0  0  0  0  0  0  0  0  0  0  0
    4.4892   -1.9397   -1.8497 H   0  0  0  0  0  0  0  0  0  0  0  0
    2.5508   -0.5521   -1.4286 H   0  0  0  0  0  0  0  0  0  0  0  0
  1  2  1  0
  2  3  1  0
  3  4  2  0
  4  5  1  0
  5  6  2  0
  6  7  1  0
  7  8  2  0
  6  9  1  0
  9 10  2  0
  9 11  2  0
  9 12  1  0
 12 13  1  0
 13 14  1  0
 14 15  2  0
 14 16  1  0
 16 17  1  0
 12 18  1  0
 18 19  1  0
 19 20  2  0
 20 21  1  0
 21 22  2  0
 22 23  1  0
 23 24  2  0
 22 25  1  0
 25 26  1  0
 25 27  2  0
  8  3  1  0
 24 19  1  0
  1 28  1  0
  1 29  1  0
  1 30  1  0
  4 31  1  0
  5 32  1  0
  7 33  1  0
  8 34  1  0
 13 35  1  0
 13 36  1  0
 16 37  1  0
 17 38  1  0
 18 39  1  0
 18 40  1  0
 20 41  1  0
 21 42  1  0
 23 43  1  0
 24 44  1  0
M  CHG  2  25   1  26  -1
M  END
$$$$
[H]OC([H])([H])[C@@]1([H])[C@@]([H])(C([H])([H])C([H])([H])P(=O)(O[H])O[H])N([H])C([H])([H])[C@]([H])(O[H])[C@@]([H])(O[H])[C@]1([H])O[H]
     RDKit          3D

 38 38  0  0  0  0  0  0  0  0999 V2000
   -1.1634    2.9454   -1.4277 O   0  0  0  0  0  0  0  0  0  0  0  0
   -0.2029    1.9662   -1.2071 C   0  0  0  0  0  0  0  0  0  0  0  0
   -0.8581    0.6666   -0.8150 C   0  0  2  0  0  0  0  0  0  0  0  0
   -1.6301    0.8445    0.4289 C   0  0  1  0  0  0  0  0  0  0  0  0
   -2.1929    2.1135    0.4607 O   0  0  0  0  0  0  0  0  0  0  0  0
   -2.8305   -0.1116    0.5187 C   0  0  2  0  0  0  0  0  0  0  0  0
   -3.8371    0.4092    1.3090 O   0  0  0  0  0  0  0  0  0  0  0  0
   -2.2741   -1.4114    1.0603 C   0  0  1  0  0  0  0  0  0  0  0  0
   -3.2662   -2.2736    1.4956 O   0  0  0  0  0  0  0  0  0  0  0  0
   -1.4806   -2.0251   -0.1019 C   0  0  0  0  0  0  0  0  0  0  0  0
   -0.1429   -1.5505    0.0193 N   0  0  0  0  0  0  0  0  0  0  0  0
    0.1918   -0.4152   -0.7611 C   0  0  2  0  0  0  0  0  0  0  0  0
    1.5320    0.1369   -0.3100 C   0  0  0  0  0  0  0  0  0  0  0  0
    2.5873   -0.9322   -0.2523 C   0  0  0  0  0  0  0  0  0  0  0  0
    4.1456   -0.2189    0.2863 P   0  0  0  0  0  0  0  0  0  0  0  0
    5.0271    0.2540   -1.0722 O   0  0  0  0  0  0  0  0  0  0  0  0
    3.9209    1.0553    1.3664 O   0  0  0  0  0  0  0  0  0  0  0  0
    4.9372   -1.2952    0.9942 O   0  0  0  0  0  0  0  0  0  0  0  0
   -0.8224    3.7142   -1.9311 H   0  0  0  0  0  0  0  0  0  0  0  0
    0.4033    2.3412   -0.3296 H   0  0  0  0  0  0  0  0  0  0  0  0
    0.4642    1.8387   -2.0994 H   0  0  0  0  0  0  0  0  0  0  0  0
   -1.5661    0.4290   -1.6631 H   0  0  0  0  0  0  0  0  0  0  0  0
   -0.9800    0.6648    1.3133 H   0  0  0  0  0  0  0  0  0  0  0  0
   -3.1281    2.1227    0.0952 H   0  0  0  0  0  0  0  0  0  0  0  0
   -3.1963   -0.3004   -0.5223 H   0  0  0  0  0  0  0  0  0  0  0  0
   -4.1973   -0.3360    1.8649 H   0  0  0  0  0  0  0  0  0  0  0  0
   -1.6033   -1.1421    1.9040 H   0  0  0  0  0  0  0  0  0  0  0  0
   -2.9123   -2.8832    2.1950 H   0  0  0  0  0  0  0  0  0  0  0  0
   -1.9626   -1.8361   -1.0700 H   0  0  0  0  0  0  0  0  0  0  0  0
   -1.5012   -3.1336    0.1058 H   0  0  0  0  0  0  0  0  0  0  0  0
    0.0894   -1.4805    1.0321 H   0  0  0  0  0  0  0  0  0  0  0  0
    0.3394   -0.7549   -1.8093 H   0  0  0  0  0  0  0  0  0  0  0  0
    1.4676    0.5938    0.7045 H   0  0  0  0  0  0  0  0  0  0  0  0
    1.9110    0.9330   -0.9840 H   0  0  0  0  0  0  0  0  0  0  0  0
    2.7508   -1.3674   -1.2707 H   0  0  0  0  0  0  0  0  0  0  0  0
    2.3035   -1.7126    0.4872 H   0  0  0  0  0  0  0  0  0  0  0  0
    5.9885    0.2924   -0.8529 H   0  0  0  0  0  0  0  0  0  0  0  0
    3.6889    1.8592    0.8384 H   0  0  0  0  0  0  0  0  0  0  0  0
  1  2  1  0
  2  3  1  0
  3  4  1  0
  4  5  1  0
  4  6  1  0
  6  7  1  0
  6  8  1  0
  8  9  1  0
  8 10  1  0
 10 11  1  0
 11 12  1  0
 12 13  1  0
 13 14  1  0
 14 15  1  0
 15 16  1  0
 15 17  1  0
 15 18  2  0
 12  3  1  0
  1 19  1  0
  2 20  1  0
  2 21  1  0
  3 22  1  6
  4 23  1  1
  5 24  1  0
  6 25  1  6
  7 26  1  0
  8 27  1  1
  9 28  1  0
 10 29  1  0
 10 30  1  0
 11 31  1  0
 12 32  1  6
 13 33  1  0
 13 34  1  0
 14 35  1  0
 14 36  1  0
 16 37  1  0
 17 38  1  0
M  END
$$$$
[H]N=C(N([H])[H])N([H])C([H])([H])C([H])([H])C([H])([H])[C@]([H])(C(=O)N([H])[C@]([H])(C(=O)N([H])[C@]([H])(C(=O)N([H])[H])C([H])([H])c1c([H])c([H])c([H])c([H])c1[H])C([H])([H])c1c([H])c([H])c([H])c([H])c1[H])N([H])C(=O)[C@@]([H])(N([H])[H])C([H])([H])c1c(C([H])([H])[H])c([H])c(O[H])c([H])c1C([H])([H])[H]
     RDKit          3D

 94 96  0  0  0  0  0  0  0  0999 V2000
   -3.1586   -4.1389   -0.6428 C   0  0  0  0  0  0  0  0  0  0  0  0
   -4.3674   -3.7392   -1.3851 C   0  0  0  0  0  0  0  0  0  0  0  0
   -5.1088   -4.7406   -2.0127 C   0  0  0  0  0  0  0  0  0  0  0  0
   -6.2490   -4.4283   -2.7175 C   0  0  0  0  0  0  0  0  0  0  0  0
   -6.9706   -5.4549   -3.3350 O   0  0  0  0  0  0  0  0  0  0  0  0
   -6.6829   -3.1264   -2.8198 C   0  0  0  0  0  0  0  0  0  0  0  0
   -5.9760   -2.0992   -2.2114 C   0  0  0  0  0  0  0  0  0  0  0  0
   -6.4557   -0.7007   -2.3453 C   0  0  0  0  0  0  0  0  0  0  0  0
   -4.8329   -2.4388   -1.5083 C   0  0  0  0  0  0  0  0  0  0  0  0
   -4.0676   -1.3430   -0.8796 C   0  0  0  0  0  0  0  0  0  0  0  0
   -4.1457   -1.2492    0.5911 C   0  0  2  0  0  0  0  0  0  0  0  0
   -5.4109   -1.0599    1.1975 N   0  0  0  0  0  0  0  0  0  0  0  0
   -3.2070   -0.2117    1.1030 C   0  0  0  0  0  0  0  0  0  0  0  0
   -3.3839    0.1549    2.2941 O   0  0  0  0  0  0  0  0  0  0  0  0
   -2.1631    0.3707    0.3634 N   0  0  0  0  0  0  0  0  0  0  0  0
   -1.2798    1.3706    1.0018 C   0  0  2  0  0  0  0  0  0  0  0  0
   -1.8872    2.7073    0.5841 C   0  0  0  0  0  0  0  0  0  0  0  0
   -1.1612    3.8921    1.1263 C   0  0  0  0  0  0  0  0  0  0  0  0
   -1.8877    5.1265    0.6211 C   0  0  0  0  0  0  0  0  0  0  0  0
   -1.2935    6.3507    1.0788 N   0  0  0  0  0  0  0  0  0  0  0  0
   -1.8818    7.5597    0.6585 C   0  0  0  0  0  0  0  0  0  0  0  0
   -3.2664    7.7807    0.8554 N   0  0  0  0  0  0  0  0  0  0  0  0
   -1.1506    8.4510    0.0972 N   0  0  0  0  0  0  0  0  0  0  0  0
    0.0611    1.1842    0.4610 C   0  0  0  0  0  0  0  0  0  0  0  0
    0.2098    0.9307   -0.7829 O   0  0  0  0  0  0  0  0  0  0  0  0
    1.2572    1.2553    1.2092 N   0  0  0  0  0  0  0  0  0  0  0  0
    2.5627    1.0633    0.6240 C   0  0  1  0  0  0  0  0  0  0  0  0
    3.6492    1.8151    1.2848 C   0  0  0  0  0  0  0  0  0  0  0  0
    3.5036    3.2731    1.3110 C   0  0  0  0  0  0  0  0  0  0  0  0
    3.9560    4.1292    0.3433 C   0  0  0  0  0  0  0  0  0  0  0  0
    3.7906    5.4904    0.4402 C   0  0  0  0  0  0  0  0  0  0  0  0
    3.1565    6.0663    1.5227 C   0  0  0  0  0  0  0  0  0  0  0  0
    2.6963    5.2312    2.5003 C   0  0  0  0  0  0  0  0  0  0  0  0
    2.8676    3.8621    2.3944 C   0  0  0  0  0  0  0  0  0  0  0  0
    2.9057   -0.4120    0.7283 C   0  0  0  0  0  0  0  0  0  0  0  0
    2.0654   -1.2164    1.2468 O   0  0  0  0  0  0  0  0  0  0  0  0
    4.1274   -0.9477    0.2709 N   0  0  0  0  0  0  0  0  0  0  0  0
    4.3999   -2.4010    0.3887 C   0  0  1  0  0  0  0  0  0  0  0  0
    4.7638   -2.8307   -0.9999 C   0  0  0  0  0  0  0  0  0  0  0  0
    5.0542   -4.2382   -1.2042 C   0  0  0  0  0  0  0  0  0  0  0  0
    6.3184   -4.7512   -1.1451 C   0  0  0  0  0  0  0  0  0  0  0  0
    6.5936   -6.0975   -1.3449 C   0  0  0  0  0  0  0  0  0  0  0  0
    5.5505   -6.9559   -1.6134 C   0  0  0  0  0  0  0  0  0  0  0  0
    4.2798   -6.4517   -1.6734 C   0  0  0  0  0  0  0  0  0  0  0  0
    4.0010   -5.1183   -1.4773 C   0  0  0  0  0  0  0  0  0  0  0  0
    5.4642   -2.6224    1.3667 C   0  0  0  0  0  0  0  0  0  0  0  0
    5.9112   -3.8872    1.8089 N   0  0  0  0  0  0  0  0  0  0  0  0
    6.0539   -1.6169    1.8847 O   0  0  0  0  0  0  0  0  0  0  0  0
   -2.7266   -5.0792   -1.1070 H   0  0  0  0  0  0  0  0  0  0  0  0
   -3.3865   -4.4425    0.4026 H   0  0  0  0  0  0  0  0  0  0  0  0
   -2.3421   -3.3973   -0.7221 H   0  0  0  0  0  0  0  0  0  0  0  0
   -4.7568   -5.7739   -1.9275 H   0  0  0  0  0  0  0  0  0  0  0  0
   -7.8115   -5.3095   -3.8681 H   0  0  0  0  0  0  0  0  0  0  0  0
   -7.5849   -2.9059   -3.3850 H   0  0  0  0  0  0  0  0  0  0  0  0
   -7.3334   -0.6845   -3.0233 H   0  0  0  0  0  0  0  0  0  0  0  0
   -5.6813   -0.0767   -2.8843 H   0  0  0  0  0  0  0  0  0  0  0  0
   -6.6483   -0.1846   -1.4082 H   0  0  0  0  0  0  0  0  0  0  0  0
   -4.3158   -0.3562   -1.3406 H   0  0  0  0  0  0  0  0  0  0  0  0
   -2.9908   -1.5480   -1.1647 H   0  0  0  0  0  0  0  0  0  0  0  0
   -3.7328   -2.2070    1.0830 H   0  0  0  0  0  0  0  0  0  0  0  0
   -6.1760   -1.6784    0.9452 H   0  0  0  0  0  0  0  0  0  0  0  0
   -5.4191   -0.6237    2.1336 H   0  0  0  0  0  0  0  0  0  0  0  0
   -2.0084    0.1084   -0.6227 H   0  0  0  0  0  0  0  0  0  0  0  0
   -1.3304    1.2684    2.0740 H   0  0  0  0  0  0  0  0  0  0  0  0
   -2.9406    2.7717    0.8976 H   0  0  0  0  0  0  0  0  0  0  0  0
   -1.8818    2.8035   -0.5367 H   0  0  0  0  0  0  0  0  0  0  0  0
   -1.2066    3.9293    2.2443 H   0  0  0  0  0  0  0  0  0  0  0  0
   -0.0917    3.9079    0.8561 H   0  0  0  0  0  0  0  0  0  0  0  0
   -1.9337    5.0406   -0.4931 H   0  0  0  0  0  0  0  0  0  0  0  0
   -2.9361    5.0471    1.0179 H   0  0  0  0  0  0  0  0  0  0  0  0
   -0.4556    6.3097    1.6995 H   0  0  0  0  0  0  0  0  0  0  0  0
   -3.5553    8.6558    1.3110 H   0  0  0  0  0  0  0  0  0  0  0  0
   -4.0014    7.0883    0.5548 H   0  0  0  0  0  0  0  0  0  0  0  0
   -1.5934    9.3440   -0.2119 H   0  0  0  0  0  0  0  0  0  0  0  0
    1.1958    1.4518    2.2275 H   0  0  0  0  0  0  0  0  0  0  0  0
    2.5262    1.2293   -0.4885 H   0  0  0  0  0  0  0  0  0  0  0  0
    3.7749    1.4399    2.3355 H   0  0  0  0  0  0  0  0  0  0  0  0
    4.6230    1.5211    0.7812 H   0  0  0  0  0  0  0  0  0  0  0  0
    4.4571    3.7085   -0.5158 H   0  0  0  0  0  0  0  0  0  0  0  0
    4.1768    6.1020   -0.3672 H   0  0  0  0  0  0  0  0  0  0  0  0
    3.0582    7.1330    1.5392 H   0  0  0  0  0  0  0  0  0  0  0  0
    2.1929    5.6465    3.3675 H   0  0  0  0  0  0  0  0  0  0  0  0
    2.4861    3.2322    3.1937 H   0  0  0  0  0  0  0  0  0  0  0  0
    4.8512   -0.3642   -0.1472 H   0  0  0  0  0  0  0  0  0  0  0  0
    3.4812   -2.8966    0.7702 H   0  0  0  0  0  0  0  0  0  0  0  0
    5.7053   -2.2663   -1.2826 H   0  0  0  0  0  0  0  0  0  0  0  0
    3.9526   -2.5005   -1.7141 H   0  0  0  0  0  0  0  0  0  0  0  0
    7.1767   -4.1206   -0.9396 H   0  0  0  0  0  0  0  0  0  0  0  0
    7.6049   -6.4670   -1.2907 H   0  0  0  0  0  0  0  0  0  0  0  0
    5.7417   -8.0245   -1.7737 H   0  0  0  0  0  0  0  0  0  0  0  0
    3.4611   -7.1580   -1.8908 H   0  0  0  0  0  0  0  0  0  0  0  0
    2.9923   -4.7649   -1.5328 H   0  0  0  0  0  0  0  0  0  0  0  0
    6.9345   -4.0330    1.9729 H   0  0  0  0  0  0  0  0  0  0  0  0
    5.2371   -4.6634    1.9712 H   0  0  0  0  0  0  0  0  0  0  0  0
  1  2  1  0
  2  3  2  0
  3  4  1  0
  4  5  1  0
  4  6  2  0
  6  7  1  0
  7  8  1  0
  7  9  2  0
  9 10  1  0
 10 11  1  0
 11 12  1  0
 11 13  1  0
 13 14  2  0
 13 15  1  0
 15 16  1  0
 16 17  1  0
 17 18  1  0
 18 19  1  0
 19 20  1  0
 20 21  1  0
 21 22  1  0
 21 23  2  3
 16 24  1  0
 24 25  2  0
 24 26  1  0
 26 27  1  0
 27 28  1  0
 28 29  1  0
 29 30  2  0
 30 31  1  0
 31 32  2  0
 32 33  1  0
 33 34  2  0
 27 35  1  0
 35 36  2  0
 35 37  1  0
 37 38  1  0
 38 39  1  0
 39 40  1  0
 40 41  2  0
 41 42  1  0
 42 43  2  0
 43 44  1  0
 44 45  2  0
 38 46  1  0
 46 47  1  0
 46 48  2  0
  9  2  1  0
 34 29  1  0
 45 40  1  0
  1 49  1  0
  1 50  1  0
  1 51  1  0
  3 52  1  0
  5 53  1  0
  6 54  1  0
  8 55  1  0
  8 56  1  0
  8 57  1  0
 10 58  1  0
 10 59  1  0
 11 60  1  1
 12 61  1  0
 12 62  1  0
 15 63  1  0
 16 64  1  1
 17 65  1  0
 17 66  1  0
 18 67  1  0
 18 68  1  0
 19 69  1  0
 19 70  1  0
 20 71  1  0
 22 72  1  0
 22 73  1  0
 23 74  1  0
 26 75  1  0
 27 76  1  6
 28 77  1  0
 28 78  1  0
 30 79  1  0
 31 80  1  0
 32 81  1  0
 33 82  1  0
 34 83  1  0
 37 84  1  0
 38 85  1  1
 39 86  1  0
 39 87  1  0
 41 88  1  0
 42 89  1  0
 43 90  1  0
 44 91  1  0
 45 92  1  0
 47 93  1  0
 47 94  1  0
M  END
$$$$
[H]c1nc([H])n([H])c1C([H])(c1c([H])c([H])c(Cl)c([H])c1[H])n1c([H])nc([H])c1[H]
     RDKit          3D

 29 31  0  0  0  0  0  0  0  0999 V2000
    5.4471   -0.1049    0.5956 Cl  0  0  0  0  0  0  0  0  0  0  0  0
    3.7216   -0.0222    0.2861 C   0  0  0  0  0  0  0  0  0  0  0  0
    3.2419   -0.1954   -0.9800 C   0  0  0  0  0  0  0  0  0  0  0  0
    1.9057   -0.1332   -1.2308 C   0  0  0  0  0  0  0  0  0  0  0  0
    0.9546    0.1072   -0.2285 C   0  0  0  0  0  0  0  0  0  0  0  0
    1.4855    0.2754    1.0313 C   0  0  0  0  0  0  0  0  0  0  0  0
    2.8407    0.2146    1.2994 C   0  0  0  0  0  0  0  0  0  0  0  0
   -0.5118    0.1711   -0.5287 C   0  0  0  0  0  0  0  0  0  0  0  0
   -1.1614   -1.1455   -0.4499 C   0  0  0  0  0  0  0  0  0  0  0  0
   -1.5914   -1.8492    0.6488 C   0  0  0  0  0  0  0  0  0  0  0  0
   -2.1391   -3.0206    0.2852 N   0  0  0  0  0  0  0  0  0  0  0  0
   -2.0635   -3.0731   -1.0346 C   0  0  0  0  0  0  0  0  0  0  0  0
   -1.4898   -1.9769   -1.4906 N   0  0  0  0  0  0  0  0  0  0  0  0
   -1.1937    1.2570    0.0961 N   0  0  0  0  0  0  0  0  0  0  0  0
   -1.6017    1.4219    1.3678 C   0  0  0  0  0  0  0  0  0  0  0  0
   -2.2236    2.6477    1.5078 C   0  0  0  0  0  0  0  0  0  0  0  0
   -2.1966    3.2458    0.3000 N   0  0  0  0  0  0  0  0  0  0  0  0
   -1.5885    2.4194   -0.5240 C   0  0  0  0  0  0  0  0  0  0  0  0
    3.9154   -0.3821   -1.7887 H   0  0  0  0  0  0  0  0  0  0  0  0
    1.5150   -0.2694   -2.2325 H   0  0  0  0  0  0  0  0  0  0  0  0
    0.8484    0.4629    1.8626 H   0  0  0  0  0  0  0  0  0  0  0  0
    3.2199    0.3508    2.2962 H   0  0  0  0  0  0  0  0  0  0  0  0
   -0.5160    0.4082   -1.6474 H   0  0  0  0  0  0  0  0  0  0  0  0
   -1.5185   -1.5496    1.6686 H   0  0  0  0  0  0  0  0  0  0  0  0
   -2.4263   -3.9065   -1.6410 H   0  0  0  0  0  0  0  0  0  0  0  0
   -1.3152   -1.7796   -2.5008 H   0  0  0  0  0  0  0  0  0  0  0  0
   -1.4858    0.7380    2.1855 H   0  0  0  0  0  0  0  0  0  0  0  0
   -2.6497    3.0455    2.4196 H   0  0  0  0  0  0  0  0  0  0  0  0
   -1.4232    2.6427   -1.5731 H   0  0  0  0  0  0  0  0  0  0  0  0
  1  2  1  0
  2  3  2  0
  3  4  1  0
  4  5  2  0
  5  6  1  0
  6  7  2  0
  5  8  1  0
  8  9  1  0
  9 10  2  0
 10 11  1  0
 11 12  2  0
 12 13  1  0
  8 14  1  0
 14 15  1  0
 15 16  2  0
 16 17  1  0
 17 18  2  0
  7  2  1  0
 13  9  1  0
 18 14  1  0
  3 19  1  0
  4 20  1  0
  6 21  1  0
  7 22  1  0
  8 23  1  0
 10 24  1  0
 12 25  1  0
 13 26  1  0
 15 27  1  0
 16 28  1  0
 18 29  1  0
M  END
$$$$
[H]OC(=O)C([H])([H])[C@@]([H])(C(=O)N([H])[H])N([H])C(=O)[C@@]([H])(N([H])C(=O)[C@@]([H])(N([H])C(=O)[C@@]([H])(N([H])C(=O)[C@@]([H])(N([H])C(=O)[C@@]([H])(N([H])[H])C([H])([H])c1c([H])c([H])c(O[H])c([H])c1[H])C([H])(C([H])([H])[H])C([H])([H])[H])C([H])([H])C([H])(C([H])([H])[H])C([H])([H])[H])C([H])([H])C([H])([H])C(=O)N([H])[H])C([H])([H])C([H])(C([H])([H])[H])C([H])([H])[H]
     RDKit          3D

109109  0  0  0  0  0  0  0  0999 V2000
   -4.9680   -3.1407    2.7026 C   0  0  0  0  0  0  0  0  0  0  0  0
   -5.6002   -2.5491    1.4187 C   0  0  0  0  0  0  0  0  0  0  0  0
   -5.4877   -3.6289    0.3641 C   0  0  0  0  0  0  0  0  0  0  0  0
   -4.8358   -1.3380    1.1027 C   0  0  0  0  0  0  0  0  0  0  0  0
   -5.1769   -0.5590   -0.1392 C   0  0  2  0  0  0  0  0  0  0  0  0
   -4.2634    0.5978   -0.2389 N   0  0  0  0  0  0  0  0  0  0  0  0
   -2.8803    0.5223   -0.4466 C   0  0  0  0  0  0  0  0  0  0  0  0
   -2.3108   -0.5768   -0.5657 O   0  0  0  0  0  0  0  0  0  0  0  0
   -2.0205    1.7542   -0.5253 C   0  0  2  0  0  0  0  0  0  0  0  0
   -1.6634    2.0554   -1.9457 C   0  0  0  0  0  0  0  0  0  0  0  0
   -0.9116    3.3194   -2.1914 C   0  0  0  0  0  0  0  0  0  0  0  0
   -0.5775    3.4733   -3.6463 C   0  0  0  0  0  0  0  0  0  0  0  0
    0.2644    4.5400   -4.0378 N   0  0  0  0  0  0  0  0  0  0  0  0
   -1.0411    2.6667   -4.4856 O   0  0  0  0  0  0  0  0  0  0  0  0
   -0.9608    1.5000    0.3670 N   0  0  0  0  0  0  0  0  0  0  0  0
    0.4429    1.3845    0.3543 C   0  0  0  0  0  0  0  0  0  0  0  0
    1.0669    1.4738   -0.7167 O   0  0  0  0  0  0  0  0  0  0  0  0
    1.1641    1.1562    1.6338 C   0  0  2  0  0  0  0  0  0  0  0  0
    1.6590    2.4005    2.2815 C   0  0  0  0  0  0  0  0  0  0  0  0
    0.8008    3.4787    2.7307 C   0  0  0  0  0  0  0  0  0  0  0  0
   -0.0469    4.2379    1.7705 C   0  0  0  0  0  0  0  0  0  0  0  0
   -0.1343    3.0740    3.8798 C   0  0  0  0  0  0  0  0  0  0  0  0
    2.2256    0.2329    1.6205 N   0  0  0  0  0  0  0  0  0  0  0  0
    3.2943   -0.0768    0.7915 C   0  0  0  0  0  0  0  0  0  0  0  0
    3.5468    0.4787   -0.2757 O   0  0  0  0  0  0  0  0  0  0  0  0
    4.2652   -1.1755    1.1946 C   0  0  1  0  0  0  0  0  0  0  0  0
    5.4120   -1.2649    0.3647 N   0  0  0  0  0  0  0  0  0  0  0  0
    5.8413   -2.3915   -0.3787 C   0  0  0  0  0  0  0  0  0  0  0  0
    5.1882   -3.4699   -0.3966 O   0  0  0  0  0  0  0  0  0  0  0  0
    7.0889   -2.3335   -1.1535 C   0  0  1  0  0  0  0  0  0  0  0  0
    7.4341   -3.6297   -1.7206 N   0  0  0  0  0  0  0  0  0  0  0  0
    6.9738   -1.2829   -2.2379 C   0  0  0  0  0  0  0  0  0  0  0  0
    8.2885   -1.2561   -2.9720 C   0  0  0  0  0  0  0  0  0  0  0  0
    9.2788   -0.3790   -2.5723 C   0  0  0  0  0  0  0  0  0  0  0  0
   10.5132   -0.3479   -3.1860 C   0  0  0  0  0  0  0  0  0  0  0  0
   10.8085   -1.2072   -4.2397 C   0  0  0  0  0  0  0  0  0  0  0  0
   12.0555   -1.1691   -4.8478 O   0  0  0  0  0  0  0  0  0  0  0  0
    9.8106   -2.0870   -4.6402 C   0  0  0  0  0  0  0  0  0  0  0  0
    8.5725   -2.1012   -4.0064 C   0  0  0  0  0  0  0  0  0  0  0  0
    4.6693   -0.9816    2.6416 C   0  0  0  0  0  0  0  0  0  0  0  0
    5.3285    0.3539    2.8717 C   0  0  0  0  0  0  0  0  0  0  0  0
    5.7376   -2.0316    2.9530 C   0  0  0  0  0  0  0  0  0  0  0  0
   -6.5102   -0.0950   -0.3571 C   0  0  0  0  0  0  0  0  0  0  0  0
   -6.6130    1.1503   -0.7365 O   0  0  0  0  0  0  0  0  0  0  0  0
   -7.7641   -0.7153   -0.2399 N   0  0  0  0  0  0  0  0  0  0  0  0
   -9.0450   -0.0157   -0.5198 C   0  0  1  0  0  0  0  0  0  0  0  0
  -10.0682   -1.0311   -0.8753 C   0  0  0  0  0  0  0  0  0  0  0  0
  -11.3911   -0.5364   -1.2478 C   0  0  0  0  0  0  0  0  0  0  0  0
  -12.4432   -1.4734   -1.3242 O   0  0  0  0  0  0  0  0  0  0  0  0
  -11.6728    0.6528   -1.5050 O   0  0  0  0  0  0  0  0  0  0  0  0
   -9.4015    0.7030    0.7712 C   0  0  0  0  0  0  0  0  0  0  0  0
  -10.6829    0.8745    1.2908 N   0  0  0  0  0  0  0  0  0  0  0  0
   -8.4523    1.2096    1.4761 O   0  0  0  0  0  0  0  0  0  0  0  0
   -3.9007   -3.3846    2.5402 H   0  0  0  0  0  0  0  0  0  0  0  0
   -5.4564   -4.1290    2.9278 H   0  0  0  0  0  0  0  0  0  0  0  0
   -5.0512   -2.4685    3.5524 H   0  0  0  0  0  0  0  0  0  0  0  0
   -6.6536   -2.3762    1.7589 H   0  0  0  0  0  0  0  0  0  0  0  0
   -6.4039   -3.6616   -0.2758 H   0  0  0  0  0  0  0  0  0  0  0  0
   -4.5867   -3.4541   -0.2516 H   0  0  0  0  0  0  0  0  0  0  0  0
   -5.3928   -4.6523    0.7734 H   0  0  0  0  0  0  0  0  0  0  0  0
   -3.7493   -1.6379    1.0555 H   0  0  0  0  0  0  0  0  0  0  0  0
   -4.8683   -0.6620    2.0068 H   0  0  0  0  0  0  0  0  0  0  0  0
   -4.8278   -1.2420   -0.9670 H   0  0  0  0  0  0  0  0  0  0  0  0
   -4.6742    1.5846   -0.1542 H   0  0  0  0  0  0  0  0  0  0  0  0
   -2.5787    2.6427   -0.1631 H   0  0  0  0  0  0  0  0  0  0  0  0
   -1.0385    1.2101   -2.3409 H   0  0  0  0  0  0  0  0  0  0  0  0
   -2.6043    2.1394   -2.5508 H   0  0  0  0  0  0  0  0  0  0  0  0
   -1.7013    4.1554   -1.9762 H   0  0  0  0  0  0  0  0  0  0  0  0
   -0.0915    3.6108   -1.5831 H   0  0  0  0  0  0  0  0  0  0  0  0
   -0.0272    5.5224   -3.9055 H   0  0  0  0  0  0  0  0  0  0  0  0
    1.2067    4.3184   -4.4728 H   0  0  0  0  0  0  0  0  0  0  0  0
   -1.3293    1.3340    1.4290 H   0  0  0  0  0  0  0  0  0  0  0  0
    0.3675    0.6585    2.3357 H   0  0  0  0  0  0  0  0  0  0  0  0
    2.4336    2.8590    1.5718 H   0  0  0  0  0  0  0  0  0  0  0  0
    2.3536    2.0926    3.1536 H   0  0  0  0  0  0  0  0  0  0  0  0
    1.4683    4.2699    3.2497 H   0  0  0  0  0  0  0  0  0  0  0  0
   -1.1413    3.9854    1.8855 H   0  0  0  0  0  0  0  0  0  0  0  0
   -0.0585    5.3407    2.1081 H   0  0  0  0  0  0  0  0  0  0  0  0
    0.2159    4.1831    0.7157 H   0  0  0  0  0  0  0  0  0  0  0  0
   -0.8284    2.2811    3.5449 H   0  0  0  0  0  0  0  0  0  0  0  0
   -0.7250    3.9708    4.1126 H   0  0  0  0  0  0  0  0  0  0  0  0
    0.4544    2.8129    4.7839 H   0  0  0  0  0  0  0  0  0  0  0  0
    2.2123   -0.4381    2.5443 H   0  0  0  0  0  0  0  0  0  0  0  0
    3.6989   -2.1150    1.1433 H   0  0  0  0  0  0  0  0  0  0  0  0
    6.0464   -0.3972    0.2682 H   0  0  0  0  0  0  0  0  0  0  0  0
    7.9724   -2.0234   -0.5364 H   0  0  0  0  0  0  0  0  0  0  0  0
    7.9449   -4.2331   -1.0147 H   0  0  0  0  0  0  0  0  0  0  0  0
    6.5544   -4.1816   -1.9227 H   0  0  0  0  0  0  0  0  0  0  0  0
    6.8717   -0.2796   -1.7875 H   0  0  0  0  0  0  0  0  0  0  0  0
    6.1406   -1.4817   -2.9117 H   0  0  0  0  0  0  0  0  0  0  0  0
    9.0429    0.2881   -1.7519 H   0  0  0  0  0  0  0  0  0  0  0  0
   11.2819    0.3427   -2.8713 H   0  0  0  0  0  0  0  0  0  0  0  0
   12.7929   -1.7766   -4.4630 H   0  0  0  0  0  0  0  0  0  0  0  0
   10.0261   -2.7572   -5.4456 H   0  0  0  0  0  0  0  0  0  0  0  0
    7.7874   -2.8020   -4.3274 H   0  0  0  0  0  0  0  0  0  0  0  0
    3.8626   -1.1552    3.3355 H   0  0  0  0  0  0  0  0  0  0  0  0
    4.8590    1.1736    2.3068 H   0  0  0  0  0  0  0  0  0  0  0  0
    5.1388    0.5964    3.9633 H   0  0  0  0  0  0  0  0  0  0  0  0
    6.4204    0.3469    2.7449 H   0  0  0  0  0  0  0  0  0  0  0  0
    6.5207   -2.0655    2.1727 H   0  0  0  0  0  0  0  0  0  0  0  0
    6.2323   -1.7660    3.9331 H   0  0  0  0  0  0  0  0  0  0  0  0
    5.2614   -3.0176    3.1420 H   0  0  0  0  0  0  0  0  0  0  0  0
   -7.8518   -1.7083    0.0368 H   0  0  0  0  0  0  0  0  0  0  0  0
   -8.9520    0.7731   -1.2467 H   0  0  0  0  0  0  0  0  0  0  0  0
  -10.2297   -1.7479    0.0063 H   0  0  0  0  0  0  0  0  0  0  0  0
   -9.7566   -1.7396   -1.6861 H   0  0  0  0  0  0  0  0  0  0  0  0
  -13.0947   -1.4158   -0.5308 H   0  0  0  0  0  0  0  0  0  0  0  0
  -11.3313    1.6476    1.0447 H   0  0  0  0  0  0  0  0  0  0  0  0
  -11.0705    0.1840    2.0013 H   0  0  0  0  0  0  0  0  0  0  0  0
  1  2  1  0
  2  3  1  0
  2  4  1  0
  4  5  1  0
  5  6  1  0
  6  7  1  0
  7  8  2  0
  7  9  1  0
  9 10  1  0
 10 11  1  0
 11 12  1  0
 12 13  1  0
 12 14  2  0
  9 15  1  0
 15 16  1  0
 16 17  2  0
 16 18  1  0
 18 19  1  0
 19 20  1  0
 20 21  1  0
 20 22  1  0
 18 23  1  0
 23 24  1  0
 24 25  2  0
 24 26  1  0
 26 27  1  0
 27 28  1  0
 28 29  2  0
 28 30  1  0
 30 31  1  0
 30 32  1  0
 32 33  1  0
 33 34  2  0
 34 35  1  0
 35 36  2  0
 36 37  1  0
 36 38  1  0
 38 39  2  0
 26 40  1  0
 40 41  1  0
 40 42  1  0
  5 43  1  0
 43 44  2  0
 43 45  1  0
 45 46  1  0
 46 47  1  0
 47 48  1  0
 48 49  1  0
 48 50  2  0
 46 51  1  0
 51 52  1  0
 51 53  2  0
 39 33  1  0
  1 54  1  0
  1 55  1  0
  1 56  1  0
  2 57  1  0
  3 58  1  0
  3 59  1  0
  3 60  1  0
  4 61  1  0
  4 62  1  0
  5 63  1  6
  6 64  1  0
  9 65  1  1
 10 66  1  0
 10 67  1  0
 11 68  1  0
 11 69  1  0
 13 70  1  0
 13 71  1  0
 15 72  1  0
 18 73  1  1
 19 74  1  0
 19 75  1  0
 20 76  1  0
 21 77  1  0
 21 78  1  0
 21 79  1  0
 22 80  1  0
 22 81  1  0
 22 82  1  0
 23 83  1  0
 26 84  1  1
 27 85  1  0
 30 86  1  1
 31 87  1  0
 31 88  1  0
 32 89  1  0
 32 90  1  0
 34 91  1  0
 35 92  1  0
 37 93  1  0
 38 94  1  0
 39 95  1  0
 40 96  1  0
 41 97  1  0
 41 98  1  0
 41 99  1  0
 42100  1  0
 42101  1  0
 42102  1  0
 45103  1  0
 46104  1  6
 47105  1  0
 47106  1  0
 49107  1  0
 52108  1  0
 52109  1  0
M  END
$$$$
[H]c1nc(N([H])c2c([H])c([H])c(N3C([H])([H])C([H])([H])C([H])(N4C([H])([H])C([H])([H])N(C([H])([H])[H])C([H])([H])C4([H])[H])C([H])([H])C3([H])[H])c([H])c2OC([H])([H])[H])nc(N([H])c2c([H])c([H])c([H])c([H])c2S(=O)(=O)C([H])(C([H])([H])[H])C([H])([H])[H])c1Cl
     RDKit          3D

 82 86  0  0  0  0  0  0  0  0999 V2000
   -0.1870    3.7228   -1.2569 C   0  0  0  0  0  0  0  0  0  0  0  0
    0.4390    2.5297   -0.8437 O   0  0  0  0  0  0  0  0  0  0  0  0
   -0.3483    1.4775   -0.4024 C   0  0  0  0  0  0  0  0  0  0  0  0
   -1.7220    1.6350   -0.3827 C   0  0  0  0  0  0  0  0  0  0  0  0
   -2.5624    0.6308    0.0436 C   0  0  0  0  0  0  0  0  0  0  0  0
   -1.9599   -0.5357    0.4478 C   0  0  0  0  0  0  0  0  0  0  0  0
   -0.5748   -0.7280    0.4408 C   0  0  0  0  0  0  0  0  0  0  0  0
    0.2576    0.2764    0.0150 C   0  0  0  0  0  0  0  0  0  0  0  0
    1.6540    0.2011   -0.0367 N   0  0  0  0  0  0  0  0  0  0  0  0
    2.4984   -0.8842    0.3177 C   0  0  0  0  0  0  0  0  0  0  0  0
    2.1033   -2.0726    0.7812 N   0  0  0  0  0  0  0  0  0  0  0  0
    2.9559   -3.0558    1.0957 C   0  0  0  0  0  0  0  0  0  0  0  0
    4.3092   -2.8632    0.9451 C   0  0  0  0  0  0  0  0  0  0  0  0
    5.4455   -4.1449    1.3534 Cl  0  0  0  0  0  0  0  0  0  0  0  0
    4.7527   -1.6166    0.4572 C   0  0  0  0  0  0  0  0  0  0  0  0
    6.1380   -1.4466    0.3110 N   0  0  0  0  0  0  0  0  0  0  0  0
    6.9009   -0.3576   -0.1368 C   0  0  0  0  0  0  0  0  0  0  0  0
    6.2766    0.8084   -0.5266 C   0  0  0  0  0  0  0  0  0  0  0  0
    7.0240    1.9039   -0.9778 C   0  0  0  0  0  0  0  0  0  0  0  0
    8.3820    1.8034   -1.0274 C   0  0  0  0  0  0  0  0  0  0  0  0
    9.0024    0.6381   -0.6374 C   0  0  0  0  0  0  0  0  0  0  0  0
    8.2961   -0.4485   -0.1920 C   0  0  0  0  0  0  0  0  0  0  0  0
    9.0842   -1.8926    0.2913 S   0  0  0  0  0  0  0  0  0  0  0  0
    8.6633   -3.0312   -0.6035 O   0  0  0  0  0  0  0  0  0  0  0  0
    8.8235   -2.3045    1.7132 O   0  0  0  0  0  0  0  0  0  0  0  0
   10.8572   -1.7881    0.1370 C   0  0  0  0  0  0  0  0  0  0  0  0
   11.2609   -1.6791   -1.2975 C   0  0  0  0  0  0  0  0  0  0  0  0
   11.4760   -0.7869    1.0544 C   0  0  0  0  0  0  0  0  0  0  0  0
    3.8248   -0.7008    0.1721 N   0  0  0  0  0  0  0  0  0  0  0  0
   -3.9818    0.8060    0.0512 N   0  0  0  0  0  0  0  0  0  0  0  0
   -4.5241    1.9609   -0.5784 C   0  0  0  0  0  0  0  0  0  0  0  0
   -6.0011    1.9283   -0.8544 C   0  0  0  0  0  0  0  0  0  0  0  0
   -6.8245    1.3726    0.2584 C   0  0  0  0  0  0  0  0  0  0  0  0
   -6.0036    0.6088    1.2781 C   0  0  0  0  0  0  0  0  0  0  0  0
   -4.8657   -0.1463    0.6796 C   0  0  0  0  0  0  0  0  0  0  0  0
   -7.9560    0.6086   -0.0875 N   0  0  0  0  0  0  0  0  0  0  0  0
   -7.7905   -0.5856   -0.8057 C   0  0  0  0  0  0  0  0  0  0  0  0
   -9.1362   -1.0235   -1.3907 C   0  0  0  0  0  0  0  0  0  0  0  0
  -10.1390   -0.8718   -0.3544 N   0  0  0  0  0  0  0  0  0  0  0  0
  -10.0361   -1.8235    0.7053 C   0  0  0  0  0  0  0  0  0  0  0  0
  -10.3349    0.4834    0.0484 C   0  0  0  0  0  0  0  0  0  0  0  0
   -9.1475    1.3193   -0.4248 C   0  0  0  0  0  0  0  0  0  0  0  0
    0.5375    4.4499   -1.6799 H   0  0  0  0  0  0  0  0  0  0  0  0
   -0.9481    3.5330   -2.0530 H   0  0  0  0  0  0  0  0  0  0  0  0
   -0.6880    4.2523   -0.4156 H   0  0  0  0  0  0  0  0  0  0  0  0
   -2.1476    2.5764   -0.7105 H   0  0  0  0  0  0  0  0  0  0  0  0
   -2.6020   -1.3517    0.7883 H   0  0  0  0  0  0  0  0  0  0  0  0
   -0.2121   -1.6859    0.7807 H   0  0  0  0  0  0  0  0  0  0  0  0
    2.1500    1.0935   -0.3956 H   0  0  0  0  0  0  0  0  0  0  0  0
    2.6174   -4.0222    1.4737 H   0  0  0  0  0  0  0  0  0  0  0  0
    6.7215   -2.3022    0.5911 H   0  0  0  0  0  0  0  0  0  0  0  0
    5.2202    0.9989   -0.5296 H   0  0  0  0  0  0  0  0  0  0  0  0
    6.5603    2.8305   -1.2896 H   0  0  0  0  0  0  0  0  0  0  0  0
    9.0220    2.6252   -1.3712 H   0  0  0  0  0  0  0  0  0  0  0  0
   10.0936    0.6299   -0.7052 H   0  0  0  0  0  0  0  0  0  0  0  0
   11.2252   -2.8031    0.4806 H   0  0  0  0  0  0  0  0  0  0  0  0
   11.9033   -0.7785   -1.4926 H   0  0  0  0  0  0  0  0  0  0  0  0
   10.3307   -1.5514   -1.9199 H   0  0  0  0  0  0  0  0  0  0  0  0
   11.7765   -2.5763   -1.6995 H   0  0  0  0  0  0  0  0  0  0  0  0
   12.0225   -1.2557    1.8769 H   0  0  0  0  0  0  0  0  0  0  0  0
   12.1781   -0.1622    0.4319 H   0  0  0  0  0  0  0  0  0  0  0  0
   10.7434   -0.0899    1.5079 H   0  0  0  0  0  0  0  0  0  0  0  0
   -4.2803    2.8410    0.0525 H   0  0  0  0  0  0  0  0  0  0  0  0
   -3.9354    2.1199   -1.5269 H   0  0  0  0  0  0  0  0  0  0  0  0
   -6.3084    2.9635   -1.1164 H   0  0  0  0  0  0  0  0  0  0  0  0
   -6.1470    1.3325   -1.7818 H   0  0  0  0  0  0  0  0  0  0  0  0
   -7.2139    2.2642    0.8421 H   0  0  0  0  0  0  0  0  0  0  0  0
   -6.6586   -0.1075    1.8153 H   0  0  0  0  0  0  0  0  0  0  0  0
   -5.5929    1.2907    2.0626 H   0  0  0  0  0  0  0  0  0  0  0  0
   -5.1731   -0.8869   -0.0780 H   0  0  0  0  0  0  0  0  0  0  0  0
   -4.3121   -0.6097    1.5260 H   0  0  0  0  0  0  0  0  0  0  0  0
   -7.5080   -1.4012   -0.0997 H   0  0  0  0  0  0  0  0  0  0  0  0
   -7.0082   -0.5774   -1.5870 H   0  0  0  0  0  0  0  0  0  0  0  0
   -9.4445   -0.3742   -2.2343 H   0  0  0  0  0  0  0  0  0  0  0  0
   -9.0261   -2.0597   -1.7202 H   0  0  0  0  0  0  0  0  0  0  0  0
   -9.1822   -2.5377    0.5321 H   0  0  0  0  0  0  0  0  0  0  0  0
   -9.9814   -1.3564    1.7041 H   0  0  0  0  0  0  0  0  0  0  0  0
  -10.9456   -2.4645    0.6802 H   0  0  0  0  0  0  0  0  0  0  0  0
  -11.2261    0.8855   -0.4545 H   0  0  0  0  0  0  0  0  0  0  0  0
  -10.4517    0.5517    1.1515 H   0  0  0  0  0  0  0  0  0  0  0  0
   -9.2778    1.5186   -1.4917 H   0  0  0  0  0  0  0  0  0  0  0  0
   -9.1611    2.2698    0.1783 H   0  0  0  0  0  0  0  0  0  0  0  0
  1  2  1  0
  2  3  1  0
  3  4  2  0
  4  5  1  0
  5  6  2  0
  6  7  1  0
  7  8  2  0
  8  9  1  0
  9 10  1  0
 10 11  2  0
 11 12  1  0
 12 13  2  0
 13 14  1  0
 13 15  1  0
 15 16  1  0
 16 17  1  0
 17 18  2  0
 18 19  1  0
 19 20  2  0
 20 21  1  0
 21 22  2  0
 22 23  1  0
 23 24  2  0
 23 25  2  0
 23 26  1  0
 26 27  1  0
 26 28  1  0
 15 29  2  0
  5 30  1  0
 30 31  1  0
 31 32  1  0
 32 33  1  0
 33 34  1  0
 34 35  1  0
 33 36  1  0
 36 37  1  0
 37 38  1  0
 38 39  1  0
 39 40  1  0
 39 41  1  0
 41 42  1  0
  8  3  1  0
 29 10  1  0
 35 30  1  0
 42 36  1  0
 22 17  1  0
  1 43  1  0
  1 44  1  0
  1 45  1  0
  4 46  1  0
  6 47  1  0
  7 48  1  0
  9 49  1  0
 12 50  1  0
 16 51  1  0
 18 52  1  0
 19 53  1  0
 20 54  1  0
 21 55  1  0
 26 56  1  0
 27 57  1  0
 27 58  1  0
 27 59  1  0
 28 60  1  0
 28 61  1  0
 28 62  1  0
 31 63  1  0
 31 64  1  0
 32 65  1  0
 32 66  1  0
 33 67  1  0
 34 68  1  0
 34 69  1  0
 35 70  1  0
 35 71  1  0
 37 72  1  0
 37 73  1  0
 38 74  1  0
 38 75  1  0
 40 76  1  0
 40 77  1  0
 40 78  1  0
 41 79  1  0
 41 80  1  0
 42 81  1  0
 42 82  1  0
M  END
$$$$
[H]c1nc(N([H])c2c([H])c([H])c(N3C([H])([H])C([H])([H])C4(C(=O)N([H])C(=O)N4[H])C([H])([H])C3([H])[H])c([H])c2OC([H])([H])[H])nc(N([H])c2c([H])c([H])c([H])c([H])c2S(=O)(=O)C([H])(C([H])([H])[H])C([H])([H])[H])c1Cl
     RDKit          3D

 71 75  0  0  0  0  0  0  0  0999 V2000
    1.9657   -3.6383    0.8795 C   0  0  0  0  0  0  0  0  0  0  0  0
    1.1783   -2.4827    0.6868 O   0  0  0  0  0  0  0  0  0  0  0  0
    1.7746   -1.3417    0.2005 C   0  0  0  0  0  0  0  0  0  0  0  0
    3.1089   -1.3255   -0.0922 C   0  0  0  0  0  0  0  0  0  0  0  0
    3.7614   -0.1908   -0.5885 C   0  0  0  0  0  0  0  0  0  0  0  0
    2.9815    0.9149   -0.7673 C   0  0  0  0  0  0  0  0  0  0  0  0
    1.6005    0.9003   -0.4651 C   0  0  0  0  0  0  0  0  0  0  0  0
    0.9791   -0.2065    0.0160 C   0  0  0  0  0  0  0  0  0  0  0  0
   -0.3646   -0.2900    0.3255 N   0  0  0  0  0  0  0  0  0  0  0  0
   -1.3213    0.7459    0.2473 C   0  0  0  0  0  0  0  0  0  0  0  0
   -1.1220    2.0051   -0.1343 N   0  0  0  0  0  0  0  0  0  0  0  0
   -2.0415    2.9622   -0.1968 C   0  0  0  0  0  0  0  0  0  0  0  0
   -3.3330    2.6344    0.1661 C   0  0  0  0  0  0  0  0  0  0  0  0
   -4.5697    3.8526    0.1035 Cl  0  0  0  0  0  0  0  0  0  0  0  0
   -3.6295    1.3148    0.5844 C   0  0  0  0  0  0  0  0  0  0  0  0
   -4.9687    1.0437    0.9202 N   0  0  0  0  0  0  0  0  0  0  0  0
   -5.4610   -0.1911    1.3736 C   0  0  0  0  0  0  0  0  0  0  0  0
   -4.6742   -1.2327    1.7823 C   0  0  0  0  0  0  0  0  0  0  0  0
   -5.1983   -2.4339    2.2864 C   0  0  0  0  0  0  0  0  0  0  0  0
   -6.5577   -2.5843    2.3798 C   0  0  0  0  0  0  0  0  0  0  0  0
   -7.3312   -1.5422    1.9705 C   0  0  0  0  0  0  0  0  0  0  0  0
   -6.8494   -0.3595    1.4739 C   0  0  0  0  0  0  0  0  0  0  0  0
   -7.9282    0.9046    0.9287 S   0  0  0  0  0  0  0  0  0  0  0  0
   -9.3566    0.3876    1.1555 O   0  0  0  0  0  0  0  0  0  0  0  0
   -7.8288    2.1569    1.7420 O   0  0  0  0  0  0  0  0  0  0  0  0
   -7.7893    1.1875   -0.8100 C   0  0  0  0  0  0  0  0  0  0  0  0
   -8.1861   -0.0742   -1.5861 C   0  0  0  0  0  0  0  0  0  0  0  0
   -8.7979    2.2590   -1.2325 C   0  0  0  0  0  0  0  0  0  0  0  0
   -2.6167    0.4682    0.5974 N   0  0  0  0  0  0  0  0  0  0  0  0
    5.1519   -0.2183   -0.8752 N   0  0  0  0  0  0  0  0  0  0  0  0
    5.8906    0.8782   -1.4176 C   0  0  0  0  0  0  0  0  0  0  0  0
    7.0827    1.0928   -0.4696 C   0  0  0  0  0  0  0  0  0  0  0  0
    7.9958   -0.0711   -0.7082 C   0  0  0  0  0  0  0  0  0  0  0  0
    7.3291   -1.3846   -0.8227 C   0  0  0  0  0  0  0  0  0  0  0  0
    5.8778   -1.4375   -0.5994 C   0  0  0  0  0  0  0  0  0  0  0  0
    8.7620    0.2409   -1.9253 N   0  0  0  0  0  0  0  0  0  0  0  0
    9.7615    1.1794   -1.5065 C   0  0  0  0  0  0  0  0  0  0  0  0
   10.3648    2.0012   -2.2552 O   0  0  0  0  0  0  0  0  0  0  0  0
    9.9500    1.0170   -0.0965 N   0  0  0  0  0  0  0  0  0  0  0  0
    9.0623   -0.0158    0.3130 C   0  0  0  0  0  0  0  0  0  0  0  0
    9.1653   -0.7294    1.3295 O   0  0  0  0  0  0  0  0  0  0  0  0
    2.9039   -3.4278    1.4426 H   0  0  0  0  0  0  0  0  0  0  0  0
    1.3877   -4.3242    1.5629 H   0  0  0  0  0  0  0  0  0  0  0  0
    2.1403   -4.1901   -0.0707 H   0  0  0  0  0  0  0  0  0  0  0  0
    3.7455   -2.2150    0.0480 H   0  0  0  0  0  0  0  0  0  0  0  0
    3.4270    1.8345   -1.1520 H   0  0  0  0  0  0  0  0  0  0  0  0
    1.1009    1.8361   -0.6537 H   0  0  0  0  0  0  0  0  0  0  0  0
   -0.7359   -1.2416    0.6626 H   0  0  0  0  0  0  0  0  0  0  0  0
   -1.7718    3.9625   -0.5242 H   0  0  0  0  0  0  0  0  0  0  0  0
   -5.6362    1.8668    0.8309 H   0  0  0  0  0  0  0  0  0  0  0  0
   -3.6054   -1.2212    1.7669 H   0  0  0  0  0  0  0  0  0  0  0  0
   -4.5521   -3.2380    2.6001 H   0  0  0  0  0  0  0  0  0  0  0  0
   -6.9662   -3.5057    2.7675 H   0  0  0  0  0  0  0  0  0  0  0  0
   -8.4203   -1.6751    2.0499 H   0  0  0  0  0  0  0  0  0  0  0  0
   -6.7844    1.4763   -1.1102 H   0  0  0  0  0  0  0  0  0  0  0  0
   -7.4192   -0.8643   -1.4119 H   0  0  0  0  0  0  0  0  0  0  0  0
   -8.2754    0.2253   -2.6333 H   0  0  0  0  0  0  0  0  0  0  0  0
   -9.1382   -0.4425   -1.1709 H   0  0  0  0  0  0  0  0  0  0  0  0
   -9.1301    2.7787   -0.3161 H   0  0  0  0  0  0  0  0  0  0  0  0
   -8.2718    2.9737   -1.9079 H   0  0  0  0  0  0  0  0  0  0  0  0
   -9.6455    1.8397   -1.7750 H   0  0  0  0  0  0  0  0  0  0  0  0
    5.3901    1.8328   -1.5023 H   0  0  0  0  0  0  0  0  0  0  0  0
    6.3198    0.6325   -2.4250 H   0  0  0  0  0  0  0  0  0  0  0  0
    7.6370    2.0103   -0.7473 H   0  0  0  0  0  0  0  0  0  0  0  0
    6.7099    1.1096    0.5746 H   0  0  0  0  0  0  0  0  0  0  0  0
    7.5796   -1.8279   -1.8193 H   0  0  0  0  0  0  0  0  0  0  0  0
    7.8276   -2.0834   -0.0879 H   0  0  0  0  0  0  0  0  0  0  0  0
    5.6788   -1.7246    0.4730 H   0  0  0  0  0  0  0  0  0  0  0  0
    5.4259   -2.2456   -1.2105 H   0  0  0  0  0  0  0  0  0  0  0  0
    8.6354   -0.1178   -2.8831 H   0  0  0  0  0  0  0  0  0  0  0  0
   10.6250    1.5692    0.5063 H   0  0  0  0  0  0  0  0  0  0  0  0
  1  2  1  0
  2  3  1  0
  3  4  2  0
  4  5  1  0
  5  6  2  0
  6  7  1  0
  7  8  2  0
  8  9  1  0
  9 10  1  0
 10 11  2  0
 11 12  1  0
 12 13  2  0
 13 14  1  0
 13 15  1  0
 15 16  1  0
 16 17  1  0
 17 18  2  0
 18 19  1  0
 19 20  2  0
 20 21  1  0
 21 22  2  0
 22 23  1  0
 23 24  2  0
 23 25  2  0
 23 26  1  0
 26 27  1  0
 26 28  1  0
 15 29  2  0
  5 30  1  0
 30 31  1  0
 31 32  1  0
 32 33  1  0
 33 34  1  0
 34 35  1  0
 33 36  1  0
 36 37  1  0
 37 38  2  0
 37 39  1  0
 39 40  1  0
 40 41  2  0
  8  3  1  0
 29 10  1  0
 35 30  1  0
 22 17  1  0
 40 33  1  0
  1 42  1  0
  1 43  1  0
  1 44  1  0
  4 45  1  0
  6 46  1  0
  7 47  1  0
  9 48  1  0
 12 49  1  0
 16 50  1  0
 18 51  1  0
 19 52  1  0
 20 53  1  0
 21 54  1  0
 26 55  1  0
 27 56  1  0
 27 57  1  0
 27 58  1  0
 28 59  1  0
 28 60  1  0
 28 61  1  0
 31 62  1  0
 31 63  1  0
 32 64  1  0
 32 65  1  0
 34 66  1  0
 34 67  1  0
 35 68  1  0
 35 69  1  0
 36 70  1  0
 39 71  1  0
M  END
$$$$
[H]c1sc(N2C([H])([H])C([H])([H])[C@@]([H])(N([H])C(=O)c3c([H])c(OC([H])([H])[H])c(OC([H])([H])[H])c(OC([H])([H])[H])c3[H])C2([H])[H])nc1-c1c([H])c([H])c([H])c([H])c1[H]
     RDKit          3D

 56 59  0  0  0  0  0  0  0  0999 V2000
   -4.1449    0.8100    3.4292 C   0  0  0  0  0  0  0  0  0  0  0  0
   -5.0834    1.1595    2.4338 O   0  0  0  0  0  0  0  0  0  0  0  0
   -4.7733    0.9019    1.1123 C   0  0  0  0  0  0  0  0  0  0  0  0
   -3.5677    0.3117    0.7509 C   0  0  0  0  0  0  0  0  0  0  0  0
   -3.2256    0.0407   -0.5556 C   0  0  0  0  0  0  0  0  0  0  0  0
   -4.1634    0.3913   -1.5330 C   0  0  0  0  0  0  0  0  0  0  0  0
   -5.3615    0.9732   -1.2267 C   0  0  0  0  0  0  0  0  0  0  0  0
   -6.2592    1.3051   -2.2066 O   0  0  0  0  0  0  0  0  0  0  0  0
   -5.9448    1.0431   -3.5554 C   0  0  0  0  0  0  0  0  0  0  0  0
   -5.6374    1.2162    0.1093 C   0  0  0  0  0  0  0  0  0  0  0  0
   -6.8507    1.8052    0.4160 O   0  0  0  0  0  0  0  0  0  0  0  0
   -7.9460    0.9454    0.6575 C   0  0  0  0  0  0  0  0  0  0  0  0
   -1.9649   -0.5768   -0.9307 C   0  0  0  0  0  0  0  0  0  0  0  0
   -1.7293   -0.7694   -2.1467 O   0  0  0  0  0  0  0  0  0  0  0  0
   -0.9948   -0.9686    0.0196 N   0  0  0  0  0  0  0  0  0  0  0  0
    0.2634   -1.5858   -0.3717 C   0  0  2  0  0  0  0  0  0  0  0  0
    0.4571   -2.9164    0.3033 C   0  0  0  0  0  0  0  0  0  0  0  0
    1.5916   -2.6814    1.2785 C   0  0  0  0  0  0  0  0  0  0  0  0
    2.3182   -1.6113    0.6717 N   0  0  0  0  0  0  0  0  0  0  0  0
    1.3866   -0.6913    0.1024 C   0  0  0  0  0  0  0  0  0  0  0  0
    3.7351   -1.4799    0.6378 C   0  0  0  0  0  0  0  0  0  0  0  0
    4.4852   -0.5342    0.1055 N   0  0  0  0  0  0  0  0  0  0  0  0
    5.7747   -0.5894    0.1773 C   0  0  0  0  0  0  0  0  0  0  0  0
    6.3258   -1.6682    0.8275 C   0  0  0  0  0  0  0  0  0  0  0  0
    4.9341   -2.5396    1.2965 S   0  0  0  0  0  0  0  0  0  0  0  0
    6.6545    0.4615   -0.4127 C   0  0  0  0  0  0  0  0  0  0  0  0
    6.1267    1.5533   -1.0704 C   0  0  0  0  0  0  0  0  0  0  0  0
    6.9103    2.5419   -1.6266 C   0  0  0  0  0  0  0  0  0  0  0  0
    8.2902    2.4642   -1.5380 C   0  0  0  0  0  0  0  0  0  0  0  0
    8.8256    1.3765   -0.8825 C   0  0  0  0  0  0  0  0  0  0  0  0
    8.0211    0.3823   -0.3236 C   0  0  0  0  0  0  0  0  0  0  0  0
   -3.2178    1.4150    3.2450 H   0  0  0  0  0  0  0  0  0  0  0  0
   -4.4984    1.0423    4.4455 H   0  0  0  0  0  0  0  0  0  0  0  0
   -3.8647   -0.2624    3.4026 H   0  0  0  0  0  0  0  0  0  0  0  0
   -2.8548    0.0491    1.5381 H   0  0  0  0  0  0  0  0  0  0  0  0
   -3.8834    0.1730   -2.5602 H   0  0  0  0  0  0  0  0  0  0  0  0
   -5.6101   -0.0286   -3.6583 H   0  0  0  0  0  0  0  0  0  0  0  0
   -6.7943    1.2740   -4.2162 H   0  0  0  0  0  0  0  0  0  0  0  0
   -5.0696    1.6491   -3.8978 H   0  0  0  0  0  0  0  0  0  0  0  0
   -8.9165    1.4814    0.6832 H   0  0  0  0  0  0  0  0  0  0  0  0
   -7.8313    0.3752    1.6084 H   0  0  0  0  0  0  0  0  0  0  0  0
   -8.0499    0.1766   -0.1519 H   0  0  0  0  0  0  0  0  0  0  0  0
   -1.1255   -0.8388    1.0380 H   0  0  0  0  0  0  0  0  0  0  0  0
    0.3534   -1.6979   -1.4682 H   0  0  0  0  0  0  0  0  0  0  0  0
    0.8306   -3.6578   -0.4433 H   0  0  0  0  0  0  0  0  0  0  0  0
   -0.4573   -3.2878    0.8081 H   0  0  0  0  0  0  0  0  0  0  0  0
    2.2287   -3.6052    1.3732 H   0  0  0  0  0  0  0  0  0  0  0  0
    1.1916   -2.4234    2.2824 H   0  0  0  0  0  0  0  0  0  0  0  0
    1.0546    0.0051    0.9002 H   0  0  0  0  0  0  0  0  0  0  0  0
    1.8071   -0.1253   -0.7667 H   0  0  0  0  0  0  0  0  0  0  0  0
    7.3934   -1.8964    0.9941 H   0  0  0  0  0  0  0  0  0  0  0  0
    5.0531    1.6340   -1.1513 H   0  0  0  0  0  0  0  0  0  0  0  0
    6.5083    3.3983   -2.1422 H   0  0  0  0  0  0  0  0  0  0  0  0
    8.9001    3.2385   -1.9738 H   0  0  0  0  0  0  0  0  0  0  0  0
    9.8889    1.2821   -0.7939 H   0  0  0  0  0  0  0  0  0  0  0  0
    8.5105   -0.4406    0.1749 H   0  0  0  0  0  0  0  0  0  0  0  0
  1  2  1  0
  2  3  1  0
  3  4  2  0
  4  5  1  0
  5  6  2  0
  6  7  1  0
  7  8  1  0
  8  9  1  0
  7 10  2  0
 10 11  1  0
 11 12  1  0
  5 13  1  0
 13 14  2  0
 13 15  1  0
 15 16  1  0
 16 17  1  0
 17 18  1  0
 18 19  1  0
 19 20  1  0
 19 21  1  0
 21 22  2  0
 22 23  1  0
 23 24  2  0
 24 25  1  0
 23 26  1  0
 26 27  2  0
 27 28  1  0
 28 29  2  0
 29 30  1  0
 30 31  2  0
 10  3  1  0
 20 16  1  0
 25 21  1  0
 31 26  1  0
  1 32  1  0
  1 33  1  0
  1 34  1  0
  4 35  1  0
  6 36  1  0
  9 37  1  0
  9 38  1  0
  9 39  1  0
 12 40  1  0
 12 41  1  0
 12 42  1  0
 15 43  1  0
 16 44  1  6
 17 45  1  0
 17 46  1  0
 18 47  1  0
 18 48  1  0
 20 49  1  0
 20 50  1  0
 24 51  1  0
 27 52  1  0
 28 53  1  0
 29 54  1  0
 30 55  1  0
 31 56  1  0
M  END
$$$$
[H]c1nn(C([H])([H])[H])c([H])c1-c1c([H])c([H])n2c(-c3c([H])c(N([H])C(=O)c4c([H])c([H])c(C([H])([H])N5C([H])([H])C([H])([H])N(C([H])([H])[H])C([H])([H])C5([H])[H])c([H])c4[H])c([H])c([H])c3C([H])([H])[H])c([H])nc2c1[H]
     RDKit          3D

 72 77  0  0  0  0  0  0  0  0999 V2000
   -6.6492    2.2869   -3.9563 C   0  0  0  0  0  0  0  0  0  0  0  0
   -7.7005    1.6675   -3.2104 N   0  0  0  0  0  0  0  0  0  0  0  0
   -7.4432    1.5906   -1.8011 C   0  0  0  0  0  0  0  0  0  0  0  0
   -6.4758    0.5013   -1.4132 C   0  0  0  0  0  0  0  0  0  0  0  0
   -6.0692   -0.3204   -2.5002 N   0  0  0  0  0  0  0  0  0  0  0  0
   -5.4399   -1.5156   -1.9789 C   0  0  0  0  0  0  0  0  0  0  0  0
   -4.2473   -1.1556   -1.1811 C   0  0  0  0  0  0  0  0  0  0  0  0
   -4.3053   -1.0511    0.1686 C   0  0  0  0  0  0  0  0  0  0  0  0
   -3.1916   -0.7157    0.9088 C   0  0  0  0  0  0  0  0  0  0  0  0
   -1.9904   -0.4775    0.3035 C   0  0  0  0  0  0  0  0  0  0  0  0
   -1.9386   -0.5866   -1.0793 C   0  0  0  0  0  0  0  0  0  0  0  0
   -3.0427   -0.9187   -1.8091 C   0  0  0  0  0  0  0  0  0  0  0  0
   -0.7624   -0.1054    1.0477 C   0  0  0  0  0  0  0  0  0  0  0  0
    0.2953   -0.2674    0.4082 O   0  0  0  0  0  0  0  0  0  0  0  0
   -0.8577    0.3803    2.3544 N   0  0  0  0  0  0  0  0  0  0  0  0
    0.2783    0.7437    3.1281 C   0  0  0  0  0  0  0  0  0  0  0  0
    0.0804    1.6224    4.2145 C   0  0  0  0  0  0  0  0  0  0  0  0
    1.1327    1.9817    5.0001 C   0  0  0  0  0  0  0  0  0  0  0  0
    2.4264    1.5097    4.7720 C   0  0  0  0  0  0  0  0  0  0  0  0
    3.5057    2.0049    5.6757 C   0  0  0  0  0  0  0  0  0  0  0  0
    2.6643    0.6442    3.7156 C   0  0  0  0  0  0  0  0  0  0  0  0
    1.5498    0.2950    2.9283 C   0  0  0  0  0  0  0  0  0  0  0  0
    3.9621    0.0193    3.4933 C   0  0  0  0  0  0  0  0  0  0  0  0
    4.9361   -0.2713    4.4192 C   0  0  0  0  0  0  0  0  0  0  0  0
    6.0247   -0.7624    3.7971 N   0  0  0  0  0  0  0  0  0  0  0  0
    5.7727   -0.7934    2.4877 C   0  0  0  0  0  0  0  0  0  0  0  0
    6.6036   -1.1985    1.4746 C   0  0  0  0  0  0  0  0  0  0  0  0
    6.1502   -1.1201    0.1656 C   0  0  0  0  0  0  0  0  0  0  0  0
    4.8869   -0.6406   -0.0822 C   0  0  0  0  0  0  0  0  0  0  0  0
    4.1109   -0.2524    1.0055 C   0  0  0  0  0  0  0  0  0  0  0  0
    4.5099   -0.3149    2.2852 N   0  0  0  0  0  0  0  0  0  0  0  0
    7.0629   -1.5604   -0.8807 C   0  0  0  0  0  0  0  0  0  0  0  0
    8.0290   -2.5434   -0.8489 C   0  0  0  0  0  0  0  0  0  0  0  0
    8.6062   -2.5776   -2.0465 N   0  0  0  0  0  0  0  0  0  0  0  0
    8.0782   -1.6753   -2.8664 N   0  0  0  0  0  0  0  0  0  0  0  0
    8.4341   -1.4071   -4.2408 C   0  0  0  0  0  0  0  0  0  0  0  0
    7.1134   -1.0311   -2.1555 C   0  0  0  0  0  0  0  0  0  0  0  0
   -7.0900   -0.7000   -3.4155 C   0  0  0  0  0  0  0  0  0  0  0  0
   -8.0969    0.3844   -3.6971 C   0  0  0  0  0  0  0  0  0  0  0  0
   -6.5205    1.8536   -4.9685 H   0  0  0  0  0  0  0  0  0  0  0  0
   -5.6914    2.3203   -3.4131 H   0  0  0  0  0  0  0  0  0  0  0  0
   -6.9458    3.3586   -4.1170 H   0  0  0  0  0  0  0  0  0  0  0  0
   -8.4240    1.3452   -1.3028 H   0  0  0  0  0  0  0  0  0  0  0  0
   -7.1405    2.5612   -1.3593 H   0  0  0  0  0  0  0  0  0  0  0  0
   -6.8979   -0.1151   -0.5647 H   0  0  0  0  0  0  0  0  0  0  0  0
   -5.5682    0.9939   -1.0035 H   0  0  0  0  0  0  0  0  0  0  0  0
   -6.1210   -2.1085   -1.3271 H   0  0  0  0  0  0  0  0  0  0  0  0
   -5.1295   -2.2120   -2.8027 H   0  0  0  0  0  0  0  0  0  0  0  0
   -5.2279   -1.2281    0.7234 H   0  0  0  0  0  0  0  0  0  0  0  0
   -3.2671   -0.6420    1.9963 H   0  0  0  0  0  0  0  0  0  0  0  0
   -0.9931   -0.4034   -1.6019 H   0  0  0  0  0  0  0  0  0  0  0  0
   -3.0034   -1.0029   -2.8793 H   0  0  0  0  0  0  0  0  0  0  0  0
   -1.8290    0.4818    2.7773 H   0  0  0  0  0  0  0  0  0  0  0  0
   -0.9293    1.9803    4.3771 H   0  0  0  0  0  0  0  0  0  0  0  0
    0.9574    2.6659    5.8414 H   0  0  0  0  0  0  0  0  0  0  0  0
    3.1499    3.0210    6.0600 H   0  0  0  0  0  0  0  0  0  0  0  0
    4.4642    2.1690    5.1848 H   0  0  0  0  0  0  0  0  0  0  0  0
    3.5023    1.3770    6.5736 H   0  0  0  0  0  0  0  0  0  0  0  0
    1.7204   -0.4395    2.1522 H   0  0  0  0  0  0  0  0  0  0  0  0
    4.8943   -0.1617    5.4944 H   0  0  0  0  0  0  0  0  0  0  0  0
    7.5963   -1.5732    1.6889 H   0  0  0  0  0  0  0  0  0  0  0  0
    4.5570   -0.5878   -1.1062 H   0  0  0  0  0  0  0  0  0  0  0  0
    3.1427    0.1556    0.7621 H   0  0  0  0  0  0  0  0  0  0  0  0
    8.2676   -3.1696    0.0013 H   0  0  0  0  0  0  0  0  0  0  0  0
    9.4230   -1.8176   -4.4817 H   0  0  0  0  0  0  0  0  0  0  0  0
    7.6908   -1.8406   -4.9264 H   0  0  0  0  0  0  0  0  0  0  0  0
    8.4547   -0.2956   -4.3620 H   0  0  0  0  0  0  0  0  0  0  0  0
    6.5193   -0.2386   -2.5876 H   0  0  0  0  0  0  0  0  0  0  0  0
   -6.5887   -0.9172   -4.4037 H   0  0  0  0  0  0  0  0  0  0  0  0
   -7.5618   -1.6534   -3.1107 H   0  0  0  0  0  0  0  0  0  0  0  0
   -9.0284    0.0932   -3.1394 H   0  0  0  0  0  0  0  0  0  0  0  0
   -8.3855    0.4196   -4.7657 H   0  0  0  0  0  0  0  0  0  0  0  0
  1  2  1  0
  2  3  1  0
  3  4  1  0
  4  5  1  0
  5  6  1  0
  6  7  1  0
  7  8  2  0
  8  9  1  0
  9 10  2  0
 10 11  1  0
 11 12  2  0
 10 13  1  0
 13 14  2  0
 13 15  1  0
 15 16  1  0
 16 17  2  0
 17 18  1  0
 18 19  2  0
 19 20  1  0
 19 21  1  0
 21 22  2  0
 21 23  1  0
 23 24  2  0
 24 25  1  0
 25 26  2  0
 26 27  1  0
 27 28  2  0
 28 29  1  0
 29 30  2  0
 30 31  1  0
 28 32  1  0
 32 33  1  0
 33 34  2  0
 34 35  1  0
 35 36  1  0
 35 37  1  0
  5 38  1  0
 38 39  1  0
 39  2  1  0
 12  7  1  0
 22 16  1  0
 31 23  1  0
 37 32  2  0
 31 26  1  0
  1 40  1  0
  1 41  1  0
  1 42  1  0
  3 43  1  0
  3 44  1  0
  4 45  1  0
  4 46  1  0
  6 47  1  0
  6 48  1  0
  8 49  1  0
  9 50  1  0
 11 51  1  0
 12 52  1  0
 15 53  1  0
 17 54  1  0
 18 55  1  0
 20 56  1  0
 20 57  1  0
 20 58  1  0
 22 59  1  0
 24 60  1  0
 27 61  1  0
 29 62  1  0
 30 63  1  0
 33 64  1  0
 36 65  1  0
 36 66  1  0
 36 67  1  0
 37 68  1  0
 38 69  1  0
 38 70  1  0
 39 71  1  0
 39 72  1  0
M  END
$$$$
[H]c1nc2c([H])c(OC([H])([H])C([H])([H])C([H])([H])N3C([H])([H])C([H])([H])OC([H])([H])C3([H])[H])c(OC([H])([H])[H])c([H])c2c(Oc2c([H])c([H])c(N([H])C(=O)C3(C(=O)N([H])c4c([H])c([H])c(F)c([H])c4[H])C([H])([H])C3([H])[H])c([H])c2F)c1[H]
     RDKit          3D

 80 85  0  0  0  0  0  0  0  0999 V2000
   -3.8348   -0.7830   -2.5268 C   0  0  0  0  0  0  0  0  0  0  0  0
   -4.4085   -0.0831   -1.4692 O   0  0  0  0  0  0  0  0  0  0  0  0
   -3.7050    0.3915   -0.3940 C   0  0  0  0  0  0  0  0  0  0  0  0
   -2.3426    0.2299   -0.2625 C   0  0  0  0  0  0  0  0  0  0  0  0
   -1.6750    0.7344    0.8625 C   0  0  0  0  0  0  0  0  0  0  0  0
   -0.2898    0.5501    0.9662 C   0  0  0  0  0  0  0  0  0  0  0  0
    0.3435   -0.1256   -0.0602 O   0  0  0  0  0  0  0  0  0  0  0  0
    1.7161   -0.3803   -0.1332 C   0  0  0  0  0  0  0  0  0  0  0  0
    2.1597   -1.6934   -0.1033 C   0  0  0  0  0  0  0  0  0  0  0  0
    3.5189   -2.0068   -0.1774 C   0  0  0  0  0  0  0  0  0  0  0  0
    4.4887   -1.0391   -0.2815 C   0  0  0  0  0  0  0  0  0  0  0  0
    5.8792   -1.3421   -0.3734 N   0  0  0  0  0  0  0  0  0  0  0  0
    6.4824   -2.5462    0.0493 C   0  0  0  0  0  0  0  0  0  0  0  0
    5.8571   -3.4761    0.5938 O   0  0  0  0  0  0  0  0  0  0  0  0
    7.9663   -2.7108   -0.2057 C   0  0  0  0  0  0  0  0  0  0  0  0
    8.3768   -4.0792   -0.7264 C   0  0  0  0  0  0  0  0  0  0  0  0
    8.5635   -3.7277    0.7383 C   0  0  0  0  0  0  0  0  0  0  0  0
    8.7412   -1.5075   -0.5379 C   0  0  0  0  0  0  0  0  0  0  0  0
    9.2658   -1.4618   -1.7261 O   0  0  0  0  0  0  0  0  0  0  0  0
    8.9847   -0.4096    0.2987 N   0  0  0  0  0  0  0  0  0  0  0  0
    9.7265    0.7540   -0.0941 C   0  0  0  0  0  0  0  0  0  0  0  0
   10.8357    1.1147    0.5958 C   0  0  0  0  0  0  0  0  0  0  0  0
   11.5248    2.2599    0.2548 C   0  0  0  0  0  0  0  0  0  0  0  0
   11.0639    3.0368   -0.8057 C   0  0  0  0  0  0  0  0  0  0  0  0
   11.7002    4.1760   -1.1980 F   0  0  0  0  0  0  0  0  0  0  0  0
    9.9259    2.6771   -1.5228 C   0  0  0  0  0  0  0  0  0  0  0  0
    9.2822    1.5333   -1.1426 C   0  0  0  0  0  0  0  0  0  0  0  0
    4.0405    0.2679   -0.3104 C   0  0  0  0  0  0  0  0  0  0  0  0
    2.6818    0.5942   -0.2385 C   0  0  0  0  0  0  0  0  0  0  0  0
    2.2895    1.9005   -0.2942 F   0  0  0  0  0  0  0  0  0  0  0  0
    0.3644    1.0374    2.0620 C   0  0  0  0  0  0  0  0  0  0  0  0
   -0.3737    1.7049    3.0395 C   0  0  0  0  0  0  0  0  0  0  0  0
   -1.7048    1.8658    2.9116 N   0  0  0  0  0  0  0  0  0  0  0  0
   -2.3620    1.3966    1.8519 C   0  0  0  0  0  0  0  0  0  0  0  0
   -3.7219    1.5655    1.7321 C   0  0  0  0  0  0  0  0  0  0  0  0
   -4.3695    1.0741    0.6362 C   0  0  0  0  0  0  0  0  0  0  0  0
   -5.7174    1.2662    0.5493 O   0  0  0  0  0  0  0  0  0  0  0  0
   -6.4811    1.9426    1.5276 C   0  0  0  0  0  0  0  0  0  0  0  0
   -7.9347    2.0328    1.1448 C   0  0  0  0  0  0  0  0  0  0  0  0
   -8.4979    0.6486    1.0445 C   0  0  0  0  0  0  0  0  0  0  0  0
   -9.9036    0.6228    0.6831 N   0  0  0  0  0  0  0  0  0  0  0  0
  -10.3079   -0.7910    0.8619 C   0  0  0  0  0  0  0  0  0  0  0  0
  -11.6524   -1.0829    0.2872 C   0  0  0  0  0  0  0  0  0  0  0  0
  -11.9057   -0.4129   -0.9237 O   0  0  0  0  0  0  0  0  0  0  0  0
  -10.6875   -0.1604   -1.5210 C   0  0  0  0  0  0  0  0  0  0  0  0
   -9.9805    0.9527   -0.7449 C   0  0  0  0  0  0  0  0  0  0  0  0
   -3.5752   -1.8606   -2.2552 H   0  0  0  0  0  0  0  0  0  0  0  0
   -4.5499   -0.8738   -3.3932 H   0  0  0  0  0  0  0  0  0  0  0  0
   -2.9103   -0.3554   -2.9443 H   0  0  0  0  0  0  0  0  0  0  0  0
   -1.7881   -0.2915   -1.0522 H   0  0  0  0  0  0  0  0  0  0  0  0
    1.4435   -2.4997   -0.0192 H   0  0  0  0  0  0  0  0  0  0  0  0
    3.8115   -3.0467   -0.1742 H   0  0  0  0  0  0  0  0  0  0  0  0
    6.5102   -0.6145   -0.7952 H   0  0  0  0  0  0  0  0  0  0  0  0
    9.3550   -4.1910   -1.2604 H   0  0  0  0  0  0  0  0  0  0  0  0
    7.5489   -4.7822   -0.9962 H   0  0  0  0  0  0  0  0  0  0  0  0
    7.9285   -4.2048    1.5021 H   0  0  0  0  0  0  0  0  0  0  0  0
    9.5761   -3.4402    1.0968 H   0  0  0  0  0  0  0  0  0  0  0  0
    8.6269   -0.4382    1.3024 H   0  0  0  0  0  0  0  0  0  0  0  0
   11.2158    0.5228    1.4404 H   0  0  0  0  0  0  0  0  0  0  0  0
   12.4267    2.5904    0.7817 H   0  0  0  0  0  0  0  0  0  0  0  0
    9.5578    3.2991   -2.3588 H   0  0  0  0  0  0  0  0  0  0  0  0
    8.3940    1.2002   -1.6567 H   0  0  0  0  0  0  0  0  0  0  0  0
    4.7885    1.0431   -0.3850 H   0  0  0  0  0  0  0  0  0  0  0  0
    1.4077    0.9219    2.2023 H   0  0  0  0  0  0  0  0  0  0  0  0
    0.1267    2.1033    3.9130 H   0  0  0  0  0  0  0  0  0  0  0  0
   -4.2450    2.0957    2.5441 H   0  0  0  0  0  0  0  0  0  0  0  0
   -6.0816    2.9259    1.7614 H   0  0  0  0  0  0  0  0  0  0  0  0
   -6.4223    1.2583    2.4406 H   0  0  0  0  0  0  0  0  0  0  0  0
   -8.0945    2.6326    0.2433 H   0  0  0  0  0  0  0  0  0  0  0  0
   -8.4948    2.5991    1.9539 H   0  0  0  0  0  0  0  0  0  0  0  0
   -7.8870    0.1130    0.2654 H   0  0  0  0  0  0  0  0  0  0  0  0
   -8.3089    0.1370    2.0005 H   0  0  0  0  0  0  0  0  0  0  0  0
   -9.4878   -1.3997    0.4459 H   0  0  0  0  0  0  0  0  0  0  0  0
  -10.2930   -0.9120    1.9864 H   0  0  0  0  0  0  0  0  0  0  0  0
  -11.6772   -2.1790    0.0299 H   0  0  0  0  0  0  0  0  0  0  0  0
  -12.4398   -0.9525    1.0381 H   0  0  0  0  0  0  0  0  0  0  0  0
  -10.0219   -1.0279   -1.4792 H   0  0  0  0  0  0  0  0  0  0  0  0
  -10.8743    0.1453   -2.5500 H   0  0  0  0  0  0  0  0  0  0  0  0
  -10.5228    1.8993   -0.8854 H   0  0  0  0  0  0  0  0  0  0  0  0
   -8.9666    1.0724   -1.1712 H   0  0  0  0  0  0  0  0  0  0  0  0
  1  2  1  0
  2  3  1  0
  3  4  2  0
  4  5  1  0
  5  6  2  0
  6  7  1  0
  7  8  1  0
  8  9  2  0
  9 10  1  0
 10 11  2  0
 11 12  1  0
 12 13  1  0
 13 14  2  0
 13 15  1  0
 15 16  1  0
 16 17  1  0
 15 18  1  0
 18 19  2  0
 18 20  1  0
 20 21  1  0
 21 22  2  0
 22 23  1  0
 23 24  2  0
 24 25  1  0
 24 26  1  0
 26 27  2  0
 11 28  1  0
 28 29  2  0
 29 30  1  0
  6 31  1  0
 31 32  2  0
 32 33  1  0
 33 34  2  0
 34 35  1  0
 35 36  2  0
 36 37  1  0
 37 38  1  0
 38 39  1  0
 39 40  1  0
 40 41  1  0
 41 42  1  0
 42 43  1  0
 43 44  1  0
 44 45  1  0
 45 46  1  0
 36  3  1  0
 46 41  1  0
 34  5  1  0
 29  8  1  0
 17 15  1  0
 27 21  1  0
  1 47  1  0
  1 48  1  0
  1 49  1  0
  4 50  1  0
  9 51  1  0
 10 52  1  0
 12 53  1  0
 16 54  1  0
 16 55  1  0
 17 56  1  0
 17 57  1  0
 20 58  1  0
 22 59  1  0
 23 60  1  0
 26 61  1  0
 27 62  1  0
 28 63  1  0
 31 64  1  0
 32 65  1  0
 35 66  1  0
 38 67  1  0
 38 68  1  0
 39 69  1  0
 39 70  1  0
 40 71  1  0
 40 72  1  0
 42 73  1  0
 42 74  1  0
 43 75  1  0
 43 76  1  0
 45 77  1  0
 45 78  1  0
 46 79  1  0
 46 80  1  0
M  END
$$$$
[H]c1c([H])c([H])c(C([H])([H])[C@@]2([H])C(=O)N3C([H])([H])C([H])([H])C([H])([H])[C@@]3([H])C(=O)N([H])[C@@]([H])(C([H])([H])c3c([H])n([H])c4c([H])c([H])c([H])c([H])c34)C(=O)N([H])[C@]([H])(C([H])([H])c3c([H])n([H])c4c([H])c([H])c([H])c([H])c34)C(=O)N([H])[C@@]([H])(C([H])([H])c3c([H])c([H])c([H])c([H])c3[H])C(=O)N([H])[C@@]([H])(C([H])(C([H])([H])[H])C([H])([H])[H])C(=O)N2[H])c([H])c1[H]
     RDKit          3D

118125  0  0  0  0  0  0  0  0999 V2000
    4.3878   -4.2369    2.3117 C   0  0  0  0  0  0  0  0  0  0  0  0
    4.1069   -3.6612    0.9161 C   0  0  0  0  0  0  0  0  0  0  0  0
    5.4355   -3.5293    0.2390 C   0  0  0  0  0  0  0  0  0  0  0  0
    3.5247   -2.2831    1.1532 C   0  0  2  0  0  0  0  0  0  0  0  0
    2.3131   -2.2957    1.9190 N   0  0  0  0  0  0  0  0  0  0  0  0
    0.9671   -2.2458    1.5544 C   0  0  0  0  0  0  0  0  0  0  0  0
    0.3568   -1.1922    1.9817 O   0  0  0  0  0  0  0  0  0  0  0  0
    0.1110   -3.1484    0.7912 C   0  0  2  0  0  0  0  0  0  0  0  0
    0.4803   -3.3783   -0.6468 C   0  0  0  0  0  0  0  0  0  0  0  0
   -0.4884   -4.3369   -1.2329 C   0  0  0  0  0  0  0  0  0  0  0  0
   -1.5772   -4.0032   -1.9539 C   0  0  0  0  0  0  0  0  0  0  0  0
   -2.4254   -4.9606   -2.4431 C   0  0  0  0  0  0  0  0  0  0  0  0
   -2.2067   -6.3063   -2.2226 C   0  0  0  0  0  0  0  0  0  0  0  0
   -1.0846   -6.6304   -1.4812 C   0  0  0  0  0  0  0  0  0  0  0  0
   -0.2215   -5.6837   -0.9814 C   0  0  0  0  0  0  0  0  0  0  0  0
   -1.2977   -2.8362    0.8094 N   0  0  0  0  0  0  0  0  0  0  0  0
   -2.0135   -1.6660    0.9801 C   0  0  0  0  0  0  0  0  0  0  0  0
   -2.6462   -1.5662    2.1166 O   0  0  0  0  0  0  0  0  0  0  0  0
   -2.2095   -0.4889    0.1200 C   0  0  1  0  0  0  0  0  0  0  0  0
   -3.4013   -0.5273   -0.7953 C   0  0  0  0  0  0  0  0  0  0  0  0
   -4.7247   -0.6521   -0.1880 C   0  0  0  0  0  0  0  0  0  0  0  0
   -5.5711    0.4183    0.1447 C   0  0  0  0  0  0  0  0  0  0  0  0
   -6.6708   -0.0767    0.7014 N   0  0  0  0  0  0  0  0  0  0  0  0
   -6.5994   -1.4037    0.7538 C   0  0  0  0  0  0  0  0  0  0  0  0
   -7.4783   -2.3361    1.2150 C   0  0  0  0  0  0  0  0  0  0  0  0
   -7.1700   -3.6789    1.1345 C   0  0  0  0  0  0  0  0  0  0  0  0
   -5.9769   -4.0812    0.5891 C   0  0  0  0  0  0  0  0  0  0  0  0
   -5.1012   -3.1512    0.1301 C   0  0  0  0  0  0  0  0  0  0  0  0
   -5.3905   -1.7821    0.2019 C   0  0  0  0  0  0  0  0  0  0  0  0
   -2.3827    0.6923    0.9527 N   0  0  0  0  0  0  0  0  0  0  0  0
   -1.5157    1.7601    1.1847 C   0  0  0  0  0  0  0  0  0  0  0  0
   -1.0794    1.8479    2.4112 O   0  0  0  0  0  0  0  0  0  0  0  0
   -1.0122    2.8024    0.2834 C   0  0  2  0  0  0  0  0  0  0  0  0
   -2.0357    3.3635   -0.6808 C   0  0  0  0  0  0  0  0  0  0  0  0
   -3.1972    3.9873   -0.0251 C   0  0  0  0  0  0  0  0  0  0  0  0
   -3.5346    4.2298    1.2644 C   0  0  0  0  0  0  0  0  0  0  0  0
   -4.7241    4.8401    1.3445 N   0  0  0  0  0  0  0  0  0  0  0  0
   -5.1757    5.0023    0.1086 C   0  0  0  0  0  0  0  0  0  0  0  0
   -6.3658    5.5862   -0.3058 C   0  0  0  0  0  0  0  0  0  0  0  0
   -6.6493    5.6586   -1.6339 C   0  0  0  0  0  0  0  0  0  0  0  0
   -5.7515    5.1525   -2.5328 C   0  0  0  0  0  0  0  0  0  0  0  0
   -4.5646    4.5704   -2.1133 C   0  0  0  0  0  0  0  0  0  0  0  0
   -4.2575    4.4863   -0.7804 C   0  0  0  0  0  0  0  0  0  0  0  0
    0.1617    2.3869   -0.4962 N   0  0  0  0  0  0  0  0  0  0  0  0
    1.3906    3.1081   -0.4951 C   0  0  0  0  0  0  0  0  0  0  0  0
    1.9966    3.1388   -1.6020 O   0  0  0  0  0  0  0  0  0  0  0  0
    1.9601    3.7751    0.6355 C   0  0  2  0  0  0  0  0  0  0  0  0
    2.8585    4.9197    0.1640 C   0  0  0  0  0  0  0  0  0  0  0  0
    3.4707    5.3470    1.4687 C   0  0  0  0  0  0  0  0  0  0  0  0
    3.1379    4.2124    2.4461 C   0  0  0  0  0  0  0  0  0  0  0  0
    2.8260    3.0826    1.5490 N   0  0  0  0  0  0  0  0  0  0  0  0
    3.2426    1.7562    1.6416 C   0  0  0  0  0  0  0  0  0  0  0  0
    2.8329    1.0771    2.6917 O   0  0  0  0  0  0  0  0  0  0  0  0
    4.0893    0.8985    0.7775 C   0  0  2  0  0  0  0  0  0  0  0  0
    5.1251    1.7148    0.0047 C   0  0  0  0  0  0  0  0  0  0  0  0
    5.9976    0.9438   -0.8639 C   0  0  0  0  0  0  0  0  0  0  0  0
    7.1687    0.3920   -0.3721 C   0  0  0  0  0  0  0  0  0  0  0  0
    8.0051   -0.3185   -1.1848 C   0  0  0  0  0  0  0  0  0  0  0  0
    7.7056   -0.5009   -2.4981 C   0  0  0  0  0  0  0  0  0  0  0  0
    6.5496    0.0309   -3.0304 C   0  0  0  0  0  0  0  0  0  0  0  0
    5.7118    0.7437   -2.2136 C   0  0  0  0  0  0  0  0  0  0  0  0
    3.3825   -0.0385   -0.0516 N   0  0  0  0  0  0  0  0  0  0  0  0
    3.5492   -1.4541   -0.0608 C   0  0  0  0  0  0  0  0  0  0  0  0
    3.7350   -2.0724   -1.1761 O   0  0  0  0  0  0  0  0  0  0  0  0
    3.6403   -4.9937    2.5921 H   0  0  0  0  0  0  0  0  0  0  0  0
    5.4031   -4.6982    2.3569 H   0  0  0  0  0  0  0  0  0  0  0  0
    4.3692   -3.4604    3.0903 H   0  0  0  0  0  0  0  0  0  0  0  0
    3.4685   -4.3494    0.3751 H   0  0  0  0  0  0  0  0  0  0  0  0
    5.7231   -2.4649    0.2205 H   0  0  0  0  0  0  0  0  0  0  0  0
    6.2677   -4.0421    0.8058 H   0  0  0  0  0  0  0  0  0  0  0  0
    5.4246   -3.8870   -0.8056 H   0  0  0  0  0  0  0  0  0  0  0  0
    4.3615   -1.7874    1.7777 H   0  0  0  0  0  0  0  0  0  0  0  0
    2.5353   -2.3481    3.0013 H   0  0  0  0  0  0  0  0  0  0  0  0
    0.2082   -4.2185    1.2225 H   0  0  0  0  0  0  0  0  0  0  0  0
    1.4790   -3.8340   -0.7958 H   0  0  0  0  0  0  0  0  0  0  0  0
    0.5044   -2.4352   -1.2368 H   0  0  0  0  0  0  0  0  0  0  0  0
   -1.7818   -2.9733   -2.1606 H   0  0  0  0  0  0  0  0  0  0  0  0
   -3.3101   -4.7132   -3.0276 H   0  0  0  0  0  0  0  0  0  0  0  0
   -2.8588   -7.0777   -2.5970 H   0  0  0  0  0  0  0  0  0  0  0  0
   -0.8602   -7.6806   -1.2735 H   0  0  0  0  0  0  0  0  0  0  0  0
    0.6538   -5.9922   -0.3992 H   0  0  0  0  0  0  0  0  0  0  0  0
   -1.9241   -3.7147    0.6685 H   0  0  0  0  0  0  0  0  0  0  0  0
   -1.3366   -0.3167   -0.5571 H   0  0  0  0  0  0  0  0  0  0  0  0
   -3.2507   -1.2785   -1.6223 H   0  0  0  0  0  0  0  0  0  0  0  0
   -3.3864    0.4493   -1.3818 H   0  0  0  0  0  0  0  0  0  0  0  0
   -5.3132    1.4701   -0.0480 H   0  0  0  0  0  0  0  0  0  0  0  0
   -7.4595    0.5214    1.0383 H   0  0  0  0  0  0  0  0  0  0  0  0
   -8.4158   -2.0039    1.6426 H   0  0  0  0  0  0  0  0  0  0  0  0
   -7.8587   -4.4182    1.4962 H   0  0  0  0  0  0  0  0  0  0  0  0
   -5.7285   -5.1311    0.5216 H   0  0  0  0  0  0  0  0  0  0  0  0
   -4.1698   -3.4440   -0.3071 H   0  0  0  0  0  0  0  0  0  0  0  0
   -3.3271    0.6922    1.4612 H   0  0  0  0  0  0  0  0  0  0  0  0
   -0.7257    3.7069    0.8853 H   0  0  0  0  0  0  0  0  0  0  0  0
   -1.5457    4.1527   -1.3269 H   0  0  0  0  0  0  0  0  0  0  0  0
   -2.3974    2.5418   -1.3240 H   0  0  0  0  0  0  0  0  0  0  0  0
   -2.9499    3.9818    2.1109 H   0  0  0  0  0  0  0  0  0  0  0  0
   -5.2032    5.1328    2.2476 H   0  0  0  0  0  0  0  0  0  0  0  0
   -7.0648    5.9817    0.4316 H   0  0  0  0  0  0  0  0  0  0  0  0
   -7.5972    6.1263   -1.9182 H   0  0  0  0  0  0  0  0  0  0  0  0
   -5.9849    5.2139   -3.5870 H   0  0  0  0  0  0  0  0  0  0  0  0
   -3.8625    4.1740   -2.8410 H   0  0  0  0  0  0  0  0  0  0  0  0
    0.0358    1.5272   -1.0566 H   0  0  0  0  0  0  0  0  0  0  0  0
    1.1774    4.3443    1.2507 H   0  0  0  0  0  0  0  0  0  0  0  0
    3.5963    4.6206   -0.5771 H   0  0  0  0  0  0  0  0  0  0  0  0
    2.1558    5.6989   -0.2411 H   0  0  0  0  0  0  0  0  0  0  0  0
    2.9164    6.2453    1.8090 H   0  0  0  0  0  0  0  0  0  0  0  0
    4.5641    5.5247    1.4080 H   0  0  0  0  0  0  0  0  0  0  0  0
    2.2277    4.4738    3.0283 H   0  0  0  0  0  0  0  0  0  0  0  0
    3.9600    4.1125    3.1146 H   0  0  0  0  0  0  0  0  0  0  0  0
    4.7961    0.2808    1.4623 H   0  0  0  0  0  0  0  0  0  0  0  0
    4.5917    2.4646   -0.6096 H   0  0  0  0  0  0  0  0  0  0  0  0
    5.6934    2.3363    0.7570 H   0  0  0  0  0  0  0  0  0  0  0  0
    7.4073    0.5357    0.6711 H   0  0  0  0  0  0  0  0  0  0  0  0
    8.9230   -0.7511   -0.8020 H   0  0  0  0  0  0  0  0  0  0  0  0
    8.3603   -1.0690   -3.1794 H   0  0  0  0  0  0  0  0  0  0  0  0
    6.3051   -0.1125   -4.0837 H   0  0  0  0  0  0  0  0  0  0  0  0
    4.8022    1.1581   -2.6478 H   0  0  0  0  0  0  0  0  0  0  0  0
    2.6820    0.3259   -0.7275 H   0  0  0  0  0  0  0  0  0  0  0  0
  1  2  1  0
  2  3  1  0
  2  4  1  0
  4  5  1  0
  5  6  1  0
  6  7  2  0
  6  8  1  0
  8  9  1  0
  9 10  1  0
 10 11  2  0
 11 12  1  0
 12 13  2  0
 13 14  1  0
 14 15  2  0
  8 16  1  0
 16 17  1  0
 17 18  2  0
 17 19  1  0
 19 20  1  0
 20 21  1  0
 21 22  2  0
 22 23  1  0
 23 24  1  0
 24 25  2  0
 25 26  1  0
 26 27  2  0
 27 28  1  0
 28 29  2  0
 19 30  1  0
 30 31  1  0
 31 32  2  0
 31 33  1  0
 33 34  1  0
 34 35  1  0
 35 36  2  0
 36 37  1  0
 37 38  1  0
 38 39  2  0
 39 40  1  0
 40 41  2  0
 41 42  1  0
 42 43  2  0
 33 44  1  0
 44 45  1  0
 45 46  2  0
 45 47  1  0
 47 48  1  0
 48 49  1  0
 49 50  1  0
 50 51  1  0
 51 52  1  0
 52 53  2  0
 52 54  1  0
 54 55  1  0
 55 56  1  0
 56 57  2  0
 57 58  1  0
 58 59  2  0
 59 60  1  0
 60 61  2  0
 54 62  1  0
 62 63  1  0
 63 64  2  0
 63  4  1  0
 15 10  1  0
 29 21  1  0
 43 35  1  0
 51 47  1  0
 61 56  1  0
 29 24  1  0
 43 38  1  0
  1 65  1  0
  1 66  1  0
  1 67  1  0
  2 68  1  0
  3 69  1  0
  3 70  1  0
  3 71  1  0
  4 72  1  1
  5 73  1  0
  8 74  1  1
  9 75  1  0
  9 76  1  0
 11 77  1  0
 12 78  1  0
 13 79  1  0
 14 80  1  0
 15 81  1  0
 16 82  1  0
 19 83  1  6
 20 84  1  0
 20 85  1  0
 22 86  1  0
 23 87  1  0
 25 88  1  0
 26 89  1  0
 27 90  1  0
 28 91  1  0
 30 92  1  0
 33 93  1  1
 34 94  1  0
 34 95  1  0
 36 96  1  0
 37 97  1  0
 39 98  1  0
 40 99  1  0
 41100  1  0
 42101  1  0
 44102  1  0
 47103  1  1
 48104  1  0
 48105  1  0
 49106  1  0
 49107  1  0
 50108  1  0
 50109  1  0
 54110  1  1
 55111  1  0
 55112  1  0
 57113  1  0
 58114  1  0
 59115  1  0
 60116  1  0
 61117  1  0
 62118  1  0
M  END
$$$$
[H]Oc1c([H])c([H])c(C([H])([H])[C@@]2([H])C(=O)N([H])[C@@]([H])([C@@]([H])(C([H])([H])[H])C([H])([H])C([H])([H])[H])C(=O)N([H])[C@@]([H])(C([H])([H])c3c([H])c([H])c([H])c([H])c3[H])C(=O)N3C([H])([H])C([H])([H])C([H])([H])[C@@]3([H])C(=O)N([H])[C@@]([H])(C([H])([H])c3c([H])nc([H])n3[H])C(=O)N([H])[C@@]([H])(C([H])([H])c3c([H])nc([H])n3[H])C(=O)N2[H])c([H])c1[H]
     RDKit          3D

108113  0  0  0  0  0  0  0  0999 V2000
    3.9557    2.4062    3.2478 C   0  0  0  0  0  0  0  0  0  0  0  0
    3.0021    3.2540    2.4896 C   0  0  0  0  0  0  0  0  0  0  0  0
    1.5571    3.0032    2.6821 C   0  0  2  0  0  0  0  0  0  0  0  0
    1.1173    3.1630    4.1314 C   0  0  0  0  0  0  0  0  0  0  0  0
    0.9743    1.7933    2.0069 C   0  0  2  0  0  0  0  0  0  0  0  0
   -0.4712    1.7456    2.3258 N   0  0  0  0  0  0  0  0  0  0  0  0
   -1.4854    2.3965    1.6332 C   0  0  0  0  0  0  0  0  0  0  0  0
   -2.5348    2.7109    2.3015 O   0  0  0  0  0  0  0  0  0  0  0  0
   -1.4592    2.7634    0.1759 C   0  0  2  0  0  0  0  0  0  0  0  0
   -2.4788    3.8295   -0.0651 C   0  0  0  0  0  0  0  0  0  0  0  0
   -2.5737    4.3273   -1.4424 C   0  0  0  0  0  0  0  0  0  0  0  0
   -3.4630    3.8166   -2.3331 C   0  0  0  0  0  0  0  0  0  0  0  0
   -3.5710    4.2565   -3.6422 C   0  0  0  0  0  0  0  0  0  0  0  0
   -2.7274    5.2662   -4.0526 C   0  0  0  0  0  0  0  0  0  0  0  0
   -2.8135    5.7229   -5.3504 O   0  0  0  0  0  0  0  0  0  0  0  0
   -1.7986    5.8248   -3.1806 C   0  0  0  0  0  0  0  0  0  0  0  0
   -1.7383    5.3445   -1.8895 C   0  0  0  0  0  0  0  0  0  0  0  0
   -1.4110    1.6647   -0.7166 N   0  0  0  0  0  0  0  0  0  0  0  0
   -2.2909    0.6692   -1.1123 C   0  0  0  0  0  0  0  0  0  0  0  0
   -2.2794    0.4256   -2.4006 O   0  0  0  0  0  0  0  0  0  0  0  0
   -3.2483   -0.1933   -0.4226 C   0  0  2  0  0  0  0  0  0  0  0  0
   -4.6880    0.2798   -0.5955 C   0  0  0  0  0  0  0  0  0  0  0  0
   -5.6460   -0.6274    0.1095 C   0  0  0  0  0  0  0  0  0  0  0  0
   -6.2548   -1.7530   -0.4200 C   0  0  0  0  0  0  0  0  0  0  0  0
   -7.0440   -2.2917    0.5131 N   0  0  0  0  0  0  0  0  0  0  0  0
   -6.9729   -1.5600    1.6301 C   0  0  0  0  0  0  0  0  0  0  0  0
   -6.1134   -0.5484    1.3622 N   0  0  0  0  0  0  0  0  0  0  0  0
   -3.0279   -0.5007    0.9457 N   0  0  0  0  0  0  0  0  0  0  0  0
   -2.1989   -1.4882    1.5125 C   0  0  0  0  0  0  0  0  0  0  0  0
   -1.9395   -1.4574    2.7703 O   0  0  0  0  0  0  0  0  0  0  0  0
   -1.5547   -2.6254    0.7844 C   0  0  2  0  0  0  0  0  0  0  0  0
   -2.4200   -3.8812    0.9118 C   0  0  0  0  0  0  0  0  0  0  0  0
   -1.8347   -5.0380    0.1987 C   0  0  0  0  0  0  0  0  0  0  0  0
   -0.9668   -5.9797    0.6945 C   0  0  0  0  0  0  0  0  0  0  0  0
   -0.6928   -6.8561   -0.3039 N   0  0  0  0  0  0  0  0  0  0  0  0
   -1.3526   -6.5000   -1.3997 C   0  0  0  0  0  0  0  0  0  0  0  0
   -2.0497   -5.3959   -1.1042 N   0  0  0  0  0  0  0  0  0  0  0  0
   -0.2699   -2.8657    1.4170 N   0  0  0  0  0  0  0  0  0  0  0  0
    0.9203   -3.2090    0.7436 C   0  0  0  0  0  0  0  0  0  0  0  0
    1.8035   -3.7920    1.4285 O   0  0  0  0  0  0  0  0  0  0  0  0
    1.1722   -2.9436   -0.6275 C   0  0  2  0  0  0  0  0  0  0  0  0
    2.1762   -3.9727   -1.2406 C   0  0  0  0  0  0  0  0  0  0  0  0
    2.1809   -3.4371   -2.6622 C   0  0  0  0  0  0  0  0  0  0  0  0
    1.6047   -2.0493   -2.5945 C   0  0  0  0  0  0  0  0  0  0  0  0
    1.7667   -1.7500   -1.1244 N   0  0  0  0  0  0  0  0  0  0  0  0
    2.3246   -0.6139   -0.5638 C   0  0  0  0  0  0  0  0  0  0  0  0
    2.1497    0.4529   -1.3187 O   0  0  0  0  0  0  0  0  0  0  0  0
    3.0599   -0.3161    0.6596 C   0  0  2  0  0  0  0  0  0  0  0  0
    4.4240   -1.0218    0.7634 C   0  0  0  0  0  0  0  0  0  0  0  0
    5.3321   -0.6285   -0.3139 C   0  0  0  0  0  0  0  0  0  0  0  0
    5.4354   -1.3150   -1.4958 C   0  0  0  0  0  0  0  0  0  0  0  0
    6.3211   -0.8669   -2.4823 C   0  0  0  0  0  0  0  0  0  0  0  0
    7.0918    0.2604   -2.2749 C   0  0  0  0  0  0  0  0  0  0  0  0
    6.9960    0.9479   -1.1050 C   0  0  0  0  0  0  0  0  0  0  0  0
    6.1160    0.4889   -0.1444 C   0  0  0  0  0  0  0  0  0  0  0  0
    2.3987   -0.3739    1.9160 N   0  0  0  0  0  0  0  0  0  0  0  0
    1.5595    0.5506    2.5401 C   0  0  0  0  0  0  0  0  0  0  0  0
    1.2234    0.3169    3.7647 O   0  0  0  0  0  0  0  0  0  0  0  0
    4.7844    3.0893    3.6169 H   0  0  0  0  0  0  0  0  0  0  0  0
    4.5150    1.6691    2.6129 H   0  0  0  0  0  0  0  0  0  0  0  0
    3.5758    1.9217    4.1497 H   0  0  0  0  0  0  0  0  0  0  0  0
    3.2522    4.3478    2.5899 H   0  0  0  0  0  0  0  0  0  0  0  0
    3.2151    3.0534    1.3909 H   0  0  0  0  0  0  0  0  0  0  0  0
    1.0364    3.8983    2.1724 H   0  0  0  0  0  0  0  0  0  0  0  0
    0.0209    3.0254    4.1873 H   0  0  0  0  0  0  0  0  0  0  0  0
    1.6971    2.5001    4.8043 H   0  0  0  0  0  0  0  0  0  0  0  0
    1.3030    4.2391    4.3855 H   0  0  0  0  0  0  0  0  0  0  0  0
    1.0888    1.9231    0.9281 H   0  0  0  0  0  0  0  0  0  0  0  0
   -0.7681    1.1615    3.1653 H   0  0  0  0  0  0  0  0  0  0  0  0
   -0.4746    3.3650    0.1474 H   0  0  0  0  0  0  0  0  0  0  0  0
   -3.5048    3.5300    0.2388 H   0  0  0  0  0  0  0  0  0  0  0  0
   -2.2719    4.7406    0.5748 H   0  0  0  0  0  0  0  0  0  0  0  0
   -4.1297    3.0284   -2.0120 H   0  0  0  0  0  0  0  0  0  0  0  0
   -4.2944    3.8221   -4.3256 H   0  0  0  0  0  0  0  0  0  0  0  0
   -3.4744    5.3409   -6.0103 H   0  0  0  0  0  0  0  0  0  0  0  0
   -1.1487    6.6244   -3.5432 H   0  0  0  0  0  0  0  0  0  0  0  0
   -1.0287    5.7529   -1.1792 H   0  0  0  0  0  0  0  0  0  0  0  0
   -0.4368    1.5951   -1.2152 H   0  0  0  0  0  0  0  0  0  0  0  0
   -3.2950   -1.2289   -0.9189 H   0  0  0  0  0  0  0  0  0  0  0  0
   -4.9966    0.2696   -1.6676 H   0  0  0  0  0  0  0  0  0  0  0  0
   -4.8343    1.2992   -0.2305 H   0  0  0  0  0  0  0  0  0  0  0  0
   -6.1218   -2.1358   -1.4130 H   0  0  0  0  0  0  0  0  0  0  0  0
   -7.5090   -1.7525    2.5705 H   0  0  0  0  0  0  0  0  0  0  0  0
   -5.8851    0.1742    2.0801 H   0  0  0  0  0  0  0  0  0  0  0  0
   -3.5615    0.0870    1.6514 H   0  0  0  0  0  0  0  0  0  0  0  0
   -1.4543   -2.4424   -0.2987 H   0  0  0  0  0  0  0  0  0  0  0  0
   -3.4018   -3.6754    0.4062 H   0  0  0  0  0  0  0  0  0  0  0  0
   -2.5621   -4.1335    1.9815 H   0  0  0  0  0  0  0  0  0  0  0  0
   -0.6034   -5.9661    1.7129 H   0  0  0  0  0  0  0  0  0  0  0  0
   -1.3536   -6.9801   -2.3615 H   0  0  0  0  0  0  0  0  0  0  0  0
   -2.6767   -4.8553   -1.7385 H   0  0  0  0  0  0  0  0  0  0  0  0
   -0.3038   -2.7581    2.4806 H   0  0  0  0  0  0  0  0  0  0  0  0
    0.2374   -3.1848   -1.2548 H   0  0  0  0  0  0  0  0  0  0  0  0
    3.1469   -3.8934   -0.7414 H   0  0  0  0  0  0  0  0  0  0  0  0
    1.7314   -4.9687   -1.2257 H   0  0  0  0  0  0  0  0  0  0  0  0
    1.5960   -4.1012   -3.3405 H   0  0  0  0  0  0  0  0  0  0  0  0
    3.2403   -3.3687   -3.0065 H   0  0  0  0  0  0  0  0  0  0  0  0
    2.0624   -1.3179   -3.2297 H   0  0  0  0  0  0  0  0  0  0  0  0
    0.5056   -2.1089   -2.7346 H   0  0  0  0  0  0  0  0  0  0  0  0
    3.4109    0.7792    0.6140 H   0  0  0  0  0  0  0  0  0  0  0  0
    4.8058   -0.7708    1.7870 H   0  0  0  0  0  0  0  0  0  0  0  0
    4.2292   -2.1062    0.7631 H   0  0  0  0  0  0  0  0  0  0  0  0
    4.8716   -2.2012   -1.7217 H   0  0  0  0  0  0  0  0  0  0  0  0
    6.4182   -1.3910   -3.4176 H   0  0  0  0  0  0  0  0  0  0  0  0
    7.7951    0.6411   -3.0217 H   0  0  0  0  0  0  0  0  0  0  0  0
    7.6000    1.8303   -0.9420 H   0  0  0  0  0  0  0  0  0  0  0  0
    6.0656    1.0676    0.7829 H   0  0  0  0  0  0  0  0  0  0  0  0
    2.5941   -1.2650    2.4753 H   0  0  0  0  0  0  0  0  0  0  0  0
  1  2  1  0
  2  3  1  0
  3  4  1  0
  3  5  1  0
  5  6  1  0
  6  7  1  0
  7  8  2  0
  7  9  1  0
  9 10  1  0
 10 11  1  0
 11 12  2  0
 12 13  1  0
 13 14  2  0
 14 15  1  0
 14 16  1  0
 16 17  2  0
  9 18  1  0
 18 19  1  0
 19 20  2  0
 19 21  1  0
 21 22  1  0
 22 23  1  0
 23 24  2  0
 24 25  1  0
 25 26  2  0
 26 27  1  0
 21 28  1  0
 28 29  1  0
 29 30  2  0
 29 31  1  0
 31 32  1  0
 32 33  1  0
 33 34  2  0
 34 35  1  0
 35 36  2  0
 36 37  1  0
 31 38  1  0
 38 39  1  0
 39 40  2  0
 39 41  1  0
 41 42  1  0
 42 43  1  0
 43 44  1  0
 44 45  1  0
 45 46  1  0
 46 47  2  0
 46 48  1  0
 48 49  1  0
 49 50  1  0
 50 51  2  0
 51 52  1  0
 52 53  2  0
 53 54  1  0
 54 55  2  0
 48 56  1  0
 56 57  1  0
 57 58  2  0
 57  5  1  0
 17 11  1  0
 27 23  1  0
 37 33  1  0
 45 41  1  0
 55 50  1  0
  1 59  1  0
  1 60  1  0
  1 61  1  0
  2 62  1  0
  2 63  1  0
  3 64  1  6
  4 65  1  0
  4 66  1  0
  4 67  1  0
  5 68  1  6
  6 69  1  0
  9 70  1  1
 10 71  1  0
 10 72  1  0
 12 73  1  0
 13 74  1  0
 15 75  1  0
 16 76  1  0
 17 77  1  0
 18 78  1  0
 21 79  1  6
 22 80  1  0
 22 81  1  0
 24 82  1  0
 26 83  1  0
 27 84  1  0
 28 85  1  0
 31 86  1  6
 32 87  1  0
 32 88  1  0
 34 89  1  0
 36 90  1  0
 37 91  1  0
 38 92  1  0
 41 93  1  6
 42 94  1  0
 42 95  1  0
 43 96  1  0
 43 97  1  0
 44 98  1  0
 44 99  1  0
 48100  1  6
 49101  1  0
 49102  1  0
 51103  1  0
 52104  1  0
 53105  1  0
 54106  1  0
 55107  1  0
 56108  1  0
M  END
$$$$
[H]/C(C(=O)N([H])c1c(OC([H])([H])C([H])([H])[H])c([H])c2nc([H])c(C#N)c(N([H])c3c([H])c([H])c(OC([H])([H])c4c([H])c([H])c([H])c([H])c4[H])c(Cl)c3[H])c2c1[H])=C(/[H])C([H])([H])N1C([H])([H])C([H])([H])OC([H])([H])C1([H])[H]
     RDKit          3D

 75 79  0  0  0  0  0  0  0  0999 V2000
   -3.9955   -5.5221   -2.4468 C   0  0  0  0  0  0  0  0  0  0  0  0
   -3.8080   -4.7251   -1.2000 C   0  0  0  0  0  0  0  0  0  0  0  0
   -3.1365   -3.5212   -1.3378 O   0  0  0  0  0  0  0  0  0  0  0  0
   -1.8596   -3.3021   -1.7881 C   0  0  0  0  0  0  0  0  0  0  0  0
   -1.0074   -4.2992   -2.1912 C   0  0  0  0  0  0  0  0  0  0  0  0
    0.2674   -4.0989   -2.6417 C   0  0  0  0  0  0  0  0  0  0  0  0
    1.0920   -5.1040   -3.0375 N   0  0  0  0  0  0  0  0  0  0  0  0
    2.3443   -4.8504   -3.4771 C   0  0  0  0  0  0  0  0  0  0  0  0
    2.8509   -3.5670   -3.5480 C   0  0  0  0  0  0  0  0  0  0  0  0
    4.1770   -3.2680   -4.0110 C   0  0  0  0  0  0  0  0  0  0  0  0
    5.2379   -3.0165   -4.3962 N   0  0  0  0  0  0  0  0  0  0  0  0
    1.9958   -2.5464   -3.1399 C   0  0  0  0  0  0  0  0  0  0  0  0
    2.4316   -1.2179   -3.1953 N   0  0  0  0  0  0  0  0  0  0  0  0
    3.1075   -0.6239   -2.0937 C   0  0  0  0  0  0  0  0  0  0  0  0
    3.4888    0.7209   -2.1354 C   0  0  0  0  0  0  0  0  0  0  0  0
    4.1498    1.3288   -1.0948 C   0  0  0  0  0  0  0  0  0  0  0  0
    4.4646    0.6122    0.0502 C   0  0  0  0  0  0  0  0  0  0  0  0
    5.1345    1.2396    1.0967 O   0  0  0  0  0  0  0  0  0  0  0  0
    5.4687    2.5948    0.9569 C   0  0  0  0  0  0  0  0  0  0  0  0
    6.1743    3.1784    2.1000 C   0  0  0  0  0  0  0  0  0  0  0  0
    5.4930    3.6374    3.2068 C   0  0  0  0  0  0  0  0  0  0  0  0
    6.1308    4.1917    4.2848 C   0  0  0  0  0  0  0  0  0  0  0  0
    7.4984    4.2980    4.2694 C   0  0  0  0  0  0  0  0  0  0  0  0
    8.2048    3.8477    3.1751 C   0  0  0  0  0  0  0  0  0  0  0  0
    7.5480    3.2914    2.0982 C   0  0  0  0  0  0  0  0  0  0  0  0
    4.0943   -0.7145    0.1048 C   0  0  0  0  0  0  0  0  0  0  0  0
    4.4897   -1.6197    1.5466 Cl  0  0  0  0  0  0  0  0  0  0  0  0
    3.4263   -1.3204   -0.9527 C   0  0  0  0  0  0  0  0  0  0  0  0
    0.7112   -2.7955   -2.6875 C   0  0  0  0  0  0  0  0  0  0  0  0
   -0.1234   -1.7420   -2.2858 C   0  0  0  0  0  0  0  0  0  0  0  0
   -1.3978   -1.9752   -1.8381 C   0  0  0  0  0  0  0  0  0  0  0  0
   -2.3214   -0.9808   -1.4370 N   0  0  0  0  0  0  0  0  0  0  0  0
   -1.9948    0.3823   -1.2820 C   0  0  0  0  0  0  0  0  0  0  0  0
   -0.8516    0.8768   -1.4701 O   0  0  0  0  0  0  0  0  0  0  0  0
   -3.0085    1.3590   -0.8749 C   0  0  0  0  0  0  0  0  0  0  0  0
   -4.2738    1.0890   -0.6357 C   0  0  0  0  0  0  0  0  0  0  0  0
   -5.2175    2.1906   -0.2209 C   0  0  0  0  0  0  0  0  0  0  0  0
   -5.7592    1.8486    1.0537 N   0  0  0  0  0  0  0  0  0  0  0  0
   -4.8722    1.8506    2.1500 C   0  0  0  0  0  0  0  0  0  0  0  0
   -5.1988    2.7293    3.3020 C   0  0  0  0  0  0  0  0  0  0  0  0
   -6.4350    3.3583    3.1852 O   0  0  0  0  0  0  0  0  0  0  0  0
   -7.4052    2.4875    2.6944 C   0  0  0  0  0  0  0  0  0  0  0  0
   -7.1139    2.1913    1.2643 C   0  0  0  0  0  0  0  0  0  0  0  0
   -3.4437   -5.1442   -3.3212 H   0  0  0  0  0  0  0  0  0  0  0  0
   -3.7410   -6.5866   -2.2045 H   0  0  0  0  0  0  0  0  0  0  0  0
   -5.0807   -5.5678   -2.7624 H   0  0  0  0  0  0  0  0  0  0  0  0
   -3.3473   -5.3184   -0.3745 H   0  0  0  0  0  0  0  0  0  0  0  0
   -4.8392   -4.4765   -0.8048 H   0  0  0  0  0  0  0  0  0  0  0  0
   -1.3575   -5.3220   -2.1548 H   0  0  0  0  0  0  0  0  0  0  0  0
    2.9703   -5.6828   -3.7837 H   0  0  0  0  0  0  0  0  0  0  0  0
    2.2402   -0.6785   -4.0781 H   0  0  0  0  0  0  0  0  0  0  0  0
    3.2474    1.2736   -3.0143 H   0  0  0  0  0  0  0  0  0  0  0  0
    4.4147    2.3718   -1.1935 H   0  0  0  0  0  0  0  0  0  0  0  0
    4.4877    3.1432    0.8568 H   0  0  0  0  0  0  0  0  0  0  0  0
    6.0351    2.8132    0.0288 H   0  0  0  0  0  0  0  0  0  0  0  0
    4.4047    3.5721    3.2649 H   0  0  0  0  0  0  0  0  0  0  0  0
    5.6028    4.5508    5.1475 H   0  0  0  0  0  0  0  0  0  0  0  0
    8.0377    4.7400    5.1233 H   0  0  0  0  0  0  0  0  0  0  0  0
    9.3027    3.9384    3.1745 H   0  0  0  0  0  0  0  0  0  0  0  0
    8.1449    2.9408    1.2412 H   0  0  0  0  0  0  0  0  0  0  0  0
    3.1641   -2.3567   -0.8496 H   0  0  0  0  0  0  0  0  0  0  0  0
    0.3085   -0.7697   -2.3670 H   0  0  0  0  0  0  0  0  0  0  0  0
   -3.3307   -1.2468   -1.2383 H   0  0  0  0  0  0  0  0  0  0  0  0
   -2.7136    2.3870   -0.7559 H   0  0  0  0  0  0  0  0  0  0  0  0
   -4.6557    0.0887   -0.7315 H   0  0  0  0  0  0  0  0  0  0  0  0
   -6.0479    2.3222   -0.9377 H   0  0  0  0  0  0  0  0  0  0  0  0
   -4.6184    3.1201   -0.0818 H   0  0  0  0  0  0  0  0  0  0  0  0
   -3.8620    2.1958    1.7683 H   0  0  0  0  0  0  0  0  0  0  0  0
   -4.6814    0.7994    2.4578 H   0  0  0  0  0  0  0  0  0  0  0  0
   -4.4475    3.4783    3.5422 H   0  0  0  0  0  0  0  0  0  0  0  0
   -5.3055    2.0582    4.2068 H   0  0  0  0  0  0  0  0  0  0  0  0
   -8.3822    3.0410    2.7411 H   0  0  0  0  0  0  0  0  0  0  0  0
   -7.4951    1.5560    3.2623 H   0  0  0  0  0  0  0  0  0  0  0  0
   -7.7239    1.2753    0.9973 H   0  0  0  0  0  0  0  0  0  0  0  0
   -7.4894    2.9907    0.5859 H   0  0  0  0  0  0  0  0  0  0  0  0
  1  2  1  0
  2  3  1  0
  3  4  1  0
  4  5  2  0
  5  6  1  0
  6  7  2  0
  7  8  1  0
  8  9  2  0
  9 10  1  0
 10 11  3  0
  9 12  1  0
 12 13  1  0
 13 14  1  0
 14 15  2  0
 15 16  1  0
 16 17  2  0
 17 18  1  0
 18 19  1  0
 19 20  1  0
 20 21  2  0
 21 22  1  0
 22 23  2  0
 23 24  1  0
 24 25  2  0
 17 26  1  0
 26 27  1  0
 26 28  2  0
 12 29  2  0
 29 30  1  0
 30 31  2  0
 31 32  1  0
 32 33  1  0
 33 34  2  0
 33 35  1  0
 35 36  2  0
 36 37  1  0
 37 38  1  0
 38 39  1  0
 39 40  1  0
 40 41  1  0
 41 42  1  0
 42 43  1  0
 31  4  1  0
 43 38  1  0
 29  6  1  0
 28 14  1  0
 25 20  1  0
  1 44  1  0
  1 45  1  0
  1 46  1  0
  2 47  1  0
  2 48  1  0
  5 49  1  0
  8 50  1  0
 13 51  1  0
 15 52  1  0
 16 53  1  0
 19 54  1  0
 19 55  1  0
 21 56  1  0
 22 57  1  0
 23 58  1  0
 24 59  1  0
 25 60  1  0
 28 61  1  0
 30 62  1  0
 32 63  1  0
 35 64  1  0
 36 65  1  0
 37 66  1  0
 37 67  1  0
 39 68  1  0
 39 69  1  0
 40 70  1  0
 40 71  1  0
 42 72  1  0
 42 73  1  0
 43 74  1  0
 43 75  1  0
M  END
$$$$
[H]N=C(N([H])[H])N([H])C([H])([H])C([H])([H])C([H])([H])[C@@]([H])(C(=O)N([H])[C@]([H])(C(=O)N([H])[C@]([H])(C(=O)N([H])[C@]([H])(C(=O)N([H])[C@]([H])(C(=N[H])N([H])[H])C([H])([H])O[H])C([H])([H])C([H])([H])C([H])([H])C([H])([H])N([H])[H])C([H])([H])C([H])([H])C([H])([H])N=C(N([H])[H])N([H])[H])C([H])([H])c1c([H])c([H])c([H])c([H])c1[H])N([H])C(=O)OC([H])([H])c1c([H])c([H])c([H])c([H])c1[H]
     RDKit          3D

119120  0  0  0  0  0  0  0  0999 V2000
    2.2964   -5.4479    2.9203 N   0  0  0  0  0  0  0  0  0  0  0  0
    2.1365   -4.7916    1.6715 C   0  0  0  0  0  0  0  0  0  0  0  0
    0.9681   -4.5144    1.2523 N   0  0  0  0  0  0  0  0  0  0  0  0
    3.2689   -4.4698    0.9101 N   0  0  0  0  0  0  0  0  0  0  0  0
    3.7752   -3.0817    0.7545 C   0  0  0  0  0  0  0  0  0  0  0  0
    4.9869   -3.0834   -0.1031 C   0  0  0  0  0  0  0  0  0  0  0  0
    5.7156   -1.8788   -0.4252 C   0  0  0  0  0  0  0  0  0  0  0  0
    5.3551   -0.7359   -1.2223 C   0  0  2  0  0  0  0  0  0  0  0  0
    6.4747    0.2668   -1.2092 N   0  0  0  0  0  0  0  0  0  0  0  0
    6.9396    0.8993   -0.0529 C   0  0  0  0  0  0  0  0  0  0  0  0
    6.4665    0.7112    1.0890 O   0  0  0  0  0  0  0  0  0  0  0  0
    8.0086    1.8104   -0.1403 O   0  0  0  0  0  0  0  0  0  0  0  0
    8.4476    2.4121    1.0623 C   0  0  0  0  0  0  0  0  0  0  0  0
    9.5803    3.3252    0.8572 C   0  0  0  0  0  0  0  0  0  0  0  0
   10.8771    2.8362    0.8426 C   0  0  0  0  0  0  0  0  0  0  0  0
   11.9580    3.6933    0.6586 C   0  0  0  0  0  0  0  0  0  0  0  0
   11.7926    5.0556    0.4838 C   0  0  0  0  0  0  0  0  0  0  0  0
   10.5035    5.5277    0.5001 C   0  0  0  0  0  0  0  0  0  0  0  0
    9.4171    4.6687    0.6846 C   0  0  0  0  0  0  0  0  0  0  0  0
    4.1233   -0.0268   -1.3339 C   0  0  0  0  0  0  0  0  0  0  0  0
    4.1351    1.2643   -1.1945 O   0  0  0  0  0  0  0  0  0  0  0  0
    2.8412   -0.5483   -1.6023 N   0  0  0  0  0  0  0  0  0  0  0  0
    1.6870    0.3002   -1.7419 C   0  0  1  0  0  0  0  0  0  0  0  0
    0.9666    0.1007   -3.0282 C   0  0  0  0  0  0  0  0  0  0  0  0
    0.4737   -1.2769   -3.2658 C   0  0  0  0  0  0  0  0  0  0  0  0
    1.3631   -2.1633   -3.8992 C   0  0  0  0  0  0  0  0  0  0  0  0
    0.9441   -3.4483   -4.1356 C   0  0  0  0  0  0  0  0  0  0  0  0
   -0.3094   -3.9093   -3.7800 C   0  0  0  0  0  0  0  0  0  0  0  0
   -1.1450   -3.0153   -3.1663 C   0  0  0  0  0  0  0  0  0  0  0  0
   -0.7582   -1.7098   -2.9114 C   0  0  0  0  0  0  0  0  0  0  0  0
    0.8613    0.3543   -0.5329 C   0  0  0  0  0  0  0  0  0  0  0  0
    1.2429   -0.2197    0.5157 O   0  0  0  0  0  0  0  0  0  0  0  0
   -0.3606    1.0497   -0.5265 N   0  0  0  0  0  0  0  0  0  0  0  0
   -1.2149    1.1836    0.6224 C   0  0  1  0  0  0  0  0  0  0  0  0
   -1.6972    2.5725    0.8283 C   0  0  0  0  0  0  0  0  0  0  0  0
   -0.6028    3.5802    1.0434 C   0  0  0  0  0  0  0  0  0  0  0  0
   -1.2825    4.9422    1.2151 C   0  0  0  0  0  0  0  0  0  0  0  0
   -2.1581    4.8759    2.3515 N   0  0  0  0  0  0  0  0  0  0  0  0
   -1.8034    5.3760    3.4685 C   0  0  0  0  0  0  0  0  0  0  0  0
   -2.6298    5.3401    4.6218 N   0  0  0  0  0  0  0  0  0  0  0  0
   -0.5021    5.9876    3.5489 N   0  0  0  0  0  0  0  0  0  0  0  0
   -2.3531    0.2151    0.6025 C   0  0  0  0  0  0  0  0  0  0  0  0
   -2.1090   -0.9803    0.3443 O   0  0  0  0  0  0  0  0  0  0  0  0
   -3.6896    0.5944    0.8578 N   0  0  0  0  0  0  0  0  0  0  0  0
   -4.7887   -0.4142    0.8340 C   0  0  1  0  0  0  0  0  0  0  0  0
   -5.9033    0.1901    1.5735 C   0  0  0  0  0  0  0  0  0  0  0  0
   -7.1646   -0.5557    1.7609 C   0  0  0  0  0  0  0  0  0  0  0  0
   -6.8948   -1.8486    2.5408 C   0  0  0  0  0  0  0  0  0  0  0  0
   -8.2255   -2.5712    2.7059 C   0  0  0  0  0  0  0  0  0  0  0  0
   -9.1012   -1.6831    3.4362 N   0  0  0  0  0  0  0  0  0  0  0  0
   -5.0290   -0.5901   -0.6519 C   0  0  0  0  0  0  0  0  0  0  0  0
   -4.3862    0.0664   -1.5150 O   0  0  0  0  0  0  0  0  0  0  0  0
   -5.9826   -1.5015   -1.1730 N   0  0  0  0  0  0  0  0  0  0  0  0
   -6.2046   -1.7008   -2.5933 C   0  0  1  0  0  0  0  0  0  0  0  0
   -6.5706   -3.1170   -2.9139 C   0  0  0  0  0  0  0  0  0  0  0  0
   -6.7712   -3.3424   -4.2588 O   0  0  0  0  0  0  0  0  0  0  0  0
   -7.2833   -0.7625   -3.0543 C   0  0  0  0  0  0  0  0  0  0  0  0
   -8.5837   -0.7964   -2.4588 N   0  0  0  0  0  0  0  0  0  0  0  0
   -7.0837    0.0860   -3.9879 N   0  0  0  0  0  0  0  0  0  0  0  0
    1.5738   -6.1057    3.2347 H   0  0  0  0  0  0  0  0  0  0  0  0
    3.1345   -5.2576    3.4861 H   0  0  0  0  0  0  0  0  0  0  0  0
    0.7001   -4.0461    0.3759 H   0  0  0  0  0  0  0  0  0  0  0  0
    3.8157   -5.2095    0.4071 H   0  0  0  0  0  0  0  0  0  0  0  0
    2.9684   -2.4123    0.5128 H   0  0  0  0  0  0  0  0  0  0  0  0
    4.0424   -2.8141    1.8361 H   0  0  0  0  0  0  0  0  0  0  0  0
    5.7198   -3.7915    0.4601 H   0  0  0  0  0  0  0  0  0  0  0  0
    4.7489   -3.7388   -0.9957 H   0  0  0  0  0  0  0  0  0  0  0  0
    6.1535   -1.4906    0.5719 H   0  0  0  0  0  0  0  0  0  0  0  0
    6.7722   -2.2628   -0.8615 H   0  0  0  0  0  0  0  0  0  0  0  0
    5.5204   -1.1412   -2.3438 H   0  0  0  0  0  0  0  0  0  0  0  0
    6.9107    0.4919   -2.1199 H   0  0  0  0  0  0  0  0  0  0  0  0
    8.7313    1.6067    1.7850 H   0  0  0  0  0  0  0  0  0  0  0  0
    7.6315    3.0142    1.5517 H   0  0  0  0  0  0  0  0  0  0  0  0
   11.0296    1.7702    0.9791 H   0  0  0  0  0  0  0  0  0  0  0  0
   12.9748    3.3057    0.6517 H   0  0  0  0  0  0  0  0  0  0  0  0
   12.6187    5.7178    0.3409 H   0  0  0  0  0  0  0  0  0  0  0  0
   10.3249    6.5907    0.3665 H   0  0  0  0  0  0  0  0  0  0  0  0
    8.3974    5.0690    0.6913 H   0  0  0  0  0  0  0  0  0  0  0  0
    2.7435   -1.5835   -1.7099 H   0  0  0  0  0  0  0  0  0  0  0  0
    2.0946    1.3995   -1.8083 H   0  0  0  0  0  0  0  0  0  0  0  0
    1.6548    0.3542   -3.8942 H   0  0  0  0  0  0  0  0  0  0  0  0
    0.1294    0.8142   -3.1249 H   0  0  0  0  0  0  0  0  0  0  0  0
    2.3612   -1.8306   -4.1954 H   0  0  0  0  0  0  0  0  0  0  0  0
    1.6107   -4.1730   -4.6255 H   0  0  0  0  0  0  0  0  0  0  0  0
   -0.6134   -4.9399   -3.9790 H   0  0  0  0  0  0  0  0  0  0  0  0
   -2.1525   -3.3187   -2.8585 H   0  0  0  0  0  0  0  0  0  0  0  0
   -1.4730   -1.0248   -2.4218 H   0  0  0  0  0  0  0  0  0  0  0  0
   -0.6855    1.5180   -1.4281 H   0  0  0  0  0  0  0  0  0  0  0  0
   -0.5541    0.9270    1.5059 H   0  0  0  0  0  0  0  0  0  0  0  0
   -2.4149    2.8957    0.0393 H   0  0  0  0  0  0  0  0  0  0  0  0
   -2.3077    2.5914    1.7825 H   0  0  0  0  0  0  0  0  0  0  0  0
    0.0873    3.5648    0.1876 H   0  0  0  0  0  0  0  0  0  0  0  0
   -0.1122    3.3110    2.0166 H   0  0  0  0  0  0  0  0  0  0  0  0
   -1.9607    5.1014    0.3249 H   0  0  0  0  0  0  0  0  0  0  0  0
   -0.5574    5.7665    1.2716 H   0  0  0  0  0  0  0  0  0  0  0  0
   -2.6303    6.1472    5.2678 H   0  0  0  0  0  0  0  0  0  0  0  0
   -3.2310    4.5270    4.8261 H   0  0  0  0  0  0  0  0  0  0  0  0
   -0.3755    6.9793    3.8017 H   0  0  0  0  0  0  0  0  0  0  0  0
    0.3435    5.4068    3.3457 H   0  0  0  0  0  0  0  0  0  0  0  0
   -3.8979    1.5890    1.0589 H   0  0  0  0  0  0  0  0  0  0  0  0
   -4.4586   -1.3799    1.2020 H   0  0  0  0  0  0  0  0  0  0  0  0
   -6.1046    1.2004    1.0769 H   0  0  0  0  0  0  0  0  0  0  0  0
   -5.5152    0.4082    2.6211 H   0  0  0  0  0  0  0  0  0  0  0  0
   -7.8006    0.0891    2.4644 H   0  0  0  0  0  0  0  0  0  0  0  0
   -7.8045   -0.7098    0.8944 H   0  0  0  0  0  0  0  0  0  0  0  0
   -6.4848   -1.6010    3.5345 H   0  0  0  0  0  0  0  0  0  0  0  0
   -6.1733   -2.5043    2.0306 H   0  0  0  0  0  0  0  0  0  0  0  0
   -8.0270   -3.5235    3.2116 H   0  0  0  0  0  0  0  0  0  0  0  0
   -8.6618   -2.7390    1.6971 H   0  0  0  0  0  0  0  0  0  0  0  0
   -9.7032   -1.1199    2.8114 H   0  0  0  0  0  0  0  0  0  0  0  0
   -9.5726   -2.1870    4.1994 H   0  0  0  0  0  0  0  0  0  0  0  0
   -6.5428   -2.0622   -0.5039 H   0  0  0  0  0  0  0  0  0  0  0  0
   -5.3051   -1.4031   -3.1409 H   0  0  0  0  0  0  0  0  0  0  0  0
   -5.8636   -3.8154   -2.4224 H   0  0  0  0  0  0  0  0  0  0  0  0
   -7.5507   -3.3064   -2.3611 H   0  0  0  0  0  0  0  0  0  0  0  0
   -6.9496   -4.3211   -4.3575 H   0  0  0  0  0  0  0  0  0  0  0  0
   -9.3154   -0.1049   -2.7063 H   0  0  0  0  0  0  0  0  0  0  0  0
   -8.8430   -1.5213   -1.7566 H   0  0  0  0  0  0  0  0  0  0  0  0
   -6.1684    0.1819   -4.4875 H   0  0  0  0  0  0  0  0  0  0  0  0
  1  2  1  0
  2  3  2  3
  2  4  1  0
  4  5  1  0
  5  6  1  0
  6  7  1  0
  7  8  1  0
  8  9  1  0
  9 10  1  0
 10 11  2  0
 10 12  1  0
 12 13  1  0
 13 14  1  0
 14 15  2  0
 15 16  1  0
 16 17  2  0
 17 18  1  0
 18 19  2  0
  8 20  1  0
 20 21  2  0
 20 22  1  0
 22 23  1  0
 23 24  1  0
 24 25  1  0
 25 26  2  0
 26 27  1  0
 27 28  2  0
 28 29  1  0
 29 30  2  0
 23 31  1  0
 31 32  2  0
 31 33  1  0
 33 34  1  0
 34 35  1  0
 35 36  1  0
 36 37  1  0
 37 38  1  0
 38 39  2  3
 39 40  1  0
 39 41  1  0
 34 42  1  0
 42 43  2  0
 42 44  1  0
 44 45  1  0
 45 46  1  0
 46 47  1  0
 47 48  1  0
 48 49  1  0
 49 50  1  0
 45 51  1  0
 51 52  2  0
 51 53  1  0
 53 54  1  0
 54 55  1  0
 55 56  1  0
 54 57  1  0
 57 58  1  0
 57 59  2  3
 19 14  1  0
 30 25  1  0
  1 60  1  0
  1 61  1  0
  3 62  1  0
  4 63  1  0
  5 64  1  0
  5 65  1  0
  6 66  1  0
  6 67  1  0
  7 68  1  0
  7 69  1  0
  8 70  1  6
  9 71  1  0
 13 72  1  0
 13 73  1  0
 15 74  1  0
 16 75  1  0
 17 76  1  0
 18 77  1  0
 19 78  1  0
 22 79  1  0
 23 80  1  6
 24 81  1  0
 24 82  1  0
 26 83  1  0
 27 84  1  0
 28 85  1  0
 29 86  1  0
 30 87  1  0
 33 88  1  0
 34 89  1  1
 35 90  1  0
 35 91  1  0
 36 92  1  0
 36 93  1  0
 37 94  1  0
 37 95  1  0
 40 96  1  0
 40 97  1  0
 41 98  1  0
 41 99  1  0
 44100  1  0
 45101  1  1
 46102  1  0
 46103  1  0
 47104  1  0
 47105  1  0
 48106  1  0
 48107  1  0
 49108  1  0
 49109  1  0
 50110  1  0
 50111  1  0
 53112  1  0
 54113  1  6
 55114  1  0
 55115  1  0
 56116  1  0
 58117  1  0
 58118  1  0
 59119  1  0
M  END
$$$$
[H]OC(=O)C([H])([H])[C@@]([H])(C([H])=O)N([H])C(=O)[C@@]([H])(N([H])C(=O)[C@@]([H])(N([H])C(=O)C([H])([H])[H])C([H])([H])c1c([H])c([H])c(O[H])c([H])c1[H])C([H])(C([H])([H])[H])C([H])([H])[H]
     RDKit          3D

 57 57  0  0  0  0  0  0  0  0999 V2000
    2.3073    2.3316   -1.9926 C   0  0  0  0  0  0  0  0  0  0  0  0
    2.1794    0.8954   -2.3925 C   0  0  0  0  0  0  0  0  0  0  0  0
    3.4080    0.4567   -3.1230 C   0  0  0  0  0  0  0  0  0  0  0  0
    1.7695   -0.0292   -1.2768 C   0  0  2  0  0  0  0  0  0  0  0  0
    0.4443    0.3870   -0.7822 N   0  0  0  0  0  0  0  0  0  0  0  0
   -0.6918   -0.4256   -0.8576 C   0  0  0  0  0  0  0  0  0  0  0  0
   -0.5876   -1.5650   -1.3692 O   0  0  0  0  0  0  0  0  0  0  0  0
   -2.0116    0.0164   -0.3530 C   0  0  2  0  0  0  0  0  0  0  0  0
   -1.9277    0.4221    1.1185 C   0  0  0  0  0  0  0  0  0  0  0  0
   -3.2766    0.8513    1.5491 C   0  0  0  0  0  0  0  0  0  0  0  0
   -3.6573    2.1851    1.4366 C   0  0  0  0  0  0  0  0  0  0  0  0
   -4.9155    2.5827    1.8382 C   0  0  0  0  0  0  0  0  0  0  0  0
   -5.8477    1.6874    2.3651 C   0  0  0  0  0  0  0  0  0  0  0  0
   -7.1097    2.1467    2.7564 O   0  0  0  0  0  0  0  0  0  0  0  0
   -5.4656    0.3674    2.4745 C   0  0  0  0  0  0  0  0  0  0  0  0
   -4.2060   -0.0213    2.0705 C   0  0  0  0  0  0  0  0  0  0  0  0
   -3.0301   -0.9913   -0.5389 N   0  0  0  0  0  0  0  0  0  0  0  0
   -4.2091   -0.6979   -1.2666 C   0  0  0  0  0  0  0  0  0  0  0  0
   -5.2754   -1.7127   -1.4760 C   0  0  0  0  0  0  0  0  0  0  0  0
   -4.4129    0.4424   -1.7744 O   0  0  0  0  0  0  0  0  0  0  0  0
    2.7329   -0.0243   -0.1668 C   0  0  0  0  0  0  0  0  0  0  0  0
    2.3862    0.4526    0.9686 O   0  0  0  0  0  0  0  0  0  0  0  0
    4.0481   -0.5311   -0.2832 N   0  0  0  0  0  0  0  0  0  0  0  0
    4.9812   -0.5036    0.8473 C   0  0  1  0  0  0  0  0  0  0  0  0
    5.4351   -1.9022    1.2111 C   0  0  0  0  0  0  0  0  0  0  0  0
    4.2893   -2.7309    1.5901 C   0  0  0  0  0  0  0  0  0  0  0  0
    3.9852   -2.9851    2.9151 O   0  0  0  0  0  0  0  0  0  0  0  0
    3.5564   -3.2296    0.7056 O   0  0  0  0  0  0  0  0  0  0  0  0
    6.1449    0.3482    0.4964 C   0  0  0  0  0  0  0  0  0  0  0  0
    6.2961    0.9201   -0.5490 O   0  0  0  0  0  0  0  0  0  0  0  0
    2.3019    2.9359   -2.9346 H   0  0  0  0  0  0  0  0  0  0  0  0
    3.2683    2.5596   -1.4925 H   0  0  0  0  0  0  0  0  0  0  0  0
    1.4676    2.7193   -1.3909 H   0  0  0  0  0  0  0  0  0  0  0  0
    1.3607    0.8968   -3.1835 H   0  0  0  0  0  0  0  0  0  0  0  0
    3.4218    0.8495   -4.1780 H   0  0  0  0  0  0  0  0  0  0  0  0
    4.3566    0.7943   -2.6871 H   0  0  0  0  0  0  0  0  0  0  0  0
    3.4611   -0.6608   -3.2559 H   0  0  0  0  0  0  0  0  0  0  0  0
    1.6601   -1.0409   -1.6692 H   0  0  0  0  0  0  0  0  0  0  0  0
    0.3904    1.3311   -0.3658 H   0  0  0  0  0  0  0  0  0  0  0  0
   -2.3648    0.9388   -0.8717 H   0  0  0  0  0  0  0  0  0  0  0  0
   -1.6130   -0.4214    1.7619 H   0  0  0  0  0  0  0  0  0  0  0  0
   -1.2431    1.2662    1.1879 H   0  0  0  0  0  0  0  0  0  0  0  0
   -2.9569    2.9069    1.0309 H   0  0  0  0  0  0  0  0  0  0  0  0
   -5.2291    3.6232    1.7573 H   0  0  0  0  0  0  0  0  0  0  0  0
   -7.8811    2.1547    2.0738 H   0  0  0  0  0  0  0  0  0  0  0  0
   -6.1839   -0.3302    2.8819 H   0  0  0  0  0  0  0  0  0  0  0  0
   -3.9381   -1.0689    2.1703 H   0  0  0  0  0  0  0  0  0  0  0  0
   -2.8799   -1.9326   -0.1293 H   0  0  0  0  0  0  0  0  0  0  0  0
   -6.2255   -1.2561   -1.1173 H   0  0  0  0  0  0  0  0  0  0  0  0
   -5.0187   -2.6470   -0.9413 H   0  0  0  0  0  0  0  0  0  0  0  0
   -5.3319   -1.8958   -2.5843 H   0  0  0  0  0  0  0  0  0  0  0  0
    4.4358   -0.9637   -1.1469 H   0  0  0  0  0  0  0  0  0  0  0  0
    4.4308   -0.0233    1.6897 H   0  0  0  0  0  0  0  0  0  0  0  0
    6.0138   -2.2944    0.3658 H   0  0  0  0  0  0  0  0  0  0  0  0
    6.1712   -1.7739    2.0474 H   0  0  0  0  0  0  0  0  0  0  0  0
    3.8530   -2.2250    3.5883 H   0  0  0  0  0  0  0  0  0  0  0  0
    6.9333    0.4678    1.2518 H   0  0  0  0  0  0  0  0  0  0  0  0
  1  2  1  0
  2  3  1  0
  2  4  1  0
  4  5  1  0
  5  6  1  0
  6  7  2  0
  6  8  1  0
  8  9  1  0
  9 10  1  0
 10 11  2  0
 11 12  1  0
 12 13  2  0
 13 14  1  0
 13 15  1  0
 15 16  2  0
  8 17  1  0
 17 18  1  0
 18 19  1  0
 18 20  2  0
  4 21  1  0
 21 22  2  0
 21 23  1  0
 23 24  1  0
 24 25  1  0
 25 26  1  0
 26 27  1  0
 26 28  2  0
 24 29  1  0
 29 30  2  0
 16 10  1  0
  1 31  1  0
  1 32  1  0
  1 33  1  0
  2 34  1  0
  3 35  1  0
  3 36  1  0
  3 37  1  0
  4 38  1  6
  5 39  1  0
  8 40  1  6
  9 41  1  0
  9 42  1  0
 11 43  1  0
 12 44  1  0
 14 45  1  0
 15 46  1  0
 16 47  1  0
 17 48  1  0
 19 49  1  0
 19 50  1  0
 19 51  1  0
 23 52  1  0
 24 53  1  1
 25 54  1  0
 25 55  1  0
 27 56  1  0
 29 57  1  0
M  END
$$$$
[H]c1nc2c(OC([H])([H])[H])c([H])c(-c3c(C([H])(C([H])([H])[H])C([H])([H])[H])c4c([H])c(C5([H])C([H])([H])C([H])([H])N(C([H])([H])C(=O)N([H])C([H])([H])[H])C([H])([H])C5([H])[H])c([H])c([H])c4n3[H])c([H])n2n1
     RDKit          3D

 66 70  0  0  0  0  0  0  0  0999 V2000
   -8.7474    1.3771    0.8179 C   0  0  0  0  0  0  0  0  0  0  0  0
   -7.6061    0.5015    0.5270 N   0  0  0  0  0  0  0  0  0  0  0  0
   -6.4747    0.5439    1.3640 C   0  0  0  0  0  0  0  0  0  0  0  0
   -6.4872    1.3421    2.3449 O   0  0  0  0  0  0  0  0  0  0  0  0
   -5.2959   -0.3124    1.1283 C   0  0  0  0  0  0  0  0  0  0  0  0
   -5.5078   -1.0805   -0.0900 N   0  0  0  0  0  0  0  0  0  0  0  0
   -4.6012   -2.2241   -0.1316 C   0  0  0  0  0  0  0  0  0  0  0  0
   -3.2352   -1.7439    0.2665 C   0  0  0  0  0  0  0  0  0  0  0  0
   -2.7420   -0.9026   -0.9058 C   0  0  0  0  0  0  0  0  0  0  0  0
   -3.7525   -0.0379   -1.5366 C   0  0  0  0  0  0  0  0  0  0  0  0
   -5.1726   -0.1685   -1.1826 C   0  0  0  0  0  0  0  0  0  0  0  0
   -1.4661   -0.2103   -0.5257 C   0  0  0  0  0  0  0  0  0  0  0  0
   -1.4645    1.0096    0.0943 C   0  0  0  0  0  0  0  0  0  0  0  0
   -0.2510    1.6052    0.4431 C   0  0  0  0  0  0  0  0  0  0  0  0
    0.9643    1.0067    0.1858 C   0  0  0  0  0  0  0  0  0  0  0  0
    2.2284    1.3603    0.4105 N   0  0  0  0  0  0  0  0  0  0  0  0
    3.1026    0.4029   -0.0419 C   0  0  0  0  0  0  0  0  0  0  0  0
    2.3006   -0.5782   -0.5678 C   0  0  0  0  0  0  0  0  0  0  0  0
    2.7784   -1.8042   -1.1813 C   0  0  0  0  0  0  0  0  0  0  0  0
    1.8903   -2.9976   -1.2468 C   0  0  0  0  0  0  0  0  0  0  0  0
    2.9224   -1.4595   -2.6976 C   0  0  0  0  0  0  0  0  0  0  0  0
    0.9444   -0.2332   -0.4443 C   0  0  0  0  0  0  0  0  0  0  0  0
   -0.2420   -0.8176   -0.7877 C   0  0  0  0  0  0  0  0  0  0  0  0
    4.5315    0.5422    0.1881 C   0  0  0  0  0  0  0  0  0  0  0  0
    4.9546    1.4435    1.2133 C   0  0  0  0  0  0  0  0  0  0  0  0
    6.2648    1.6924    1.5018 C   0  0  0  0  0  0  0  0  0  0  0  0
    6.6683    2.5591    2.4881 O   0  0  0  0  0  0  0  0  0  0  0  0
    5.7466    3.2803    3.3041 C   0  0  0  0  0  0  0  0  0  0  0  0
    7.2030    1.0254    0.7492 C   0  0  0  0  0  0  0  0  0  0  0  0
    8.5467    1.0462    0.7764 N   0  0  0  0  0  0  0  0  0  0  0  0
    9.0007    0.2099   -0.1742 C   0  0  0  0  0  0  0  0  0  0  0  0
    7.9062   -0.3060   -0.7636 N   0  0  0  0  0  0  0  0  0  0  0  0
    6.8204    0.1794   -0.2143 N   0  0  0  0  0  0  0  0  0  0  0  0
    5.5216   -0.0767   -0.5119 C   0  0  0  0  0  0  0  0  0  0  0  0
   -8.8347    2.0319   -0.0853 H   0  0  0  0  0  0  0  0  0  0  0  0
   -8.5009    1.9433    1.7224 H   0  0  0  0  0  0  0  0  0  0  0  0
   -9.6477    0.7544    0.9542 H   0  0  0  0  0  0  0  0  0  0  0  0
   -7.6646   -0.1571   -0.3109 H   0  0  0  0  0  0  0  0  0  0  0  0
   -5.1241   -0.9694    2.0058 H   0  0  0  0  0  0  0  0  0  0  0  0
   -4.3964    0.3482    1.0033 H   0  0  0  0  0  0  0  0  0  0  0  0
   -4.9651   -2.9388    0.6288 H   0  0  0  0  0  0  0  0  0  0  0  0
   -4.6345   -2.6180   -1.1533 H   0  0  0  0  0  0  0  0  0  0  0  0
   -2.5154   -2.6208    0.3539 H   0  0  0  0  0  0  0  0  0  0  0  0
   -3.2452   -1.2231    1.2180 H   0  0  0  0  0  0  0  0  0  0  0  0
   -2.4591   -1.6951   -1.6780 H   0  0  0  0  0  0  0  0  0  0  0  0
   -3.6813   -0.0800   -2.6810 H   0  0  0  0  0  0  0  0  0  0  0  0
   -3.4569    1.0353   -1.3295 H   0  0  0  0  0  0  0  0  0  0  0  0
   -5.7387   -0.5921   -2.0645 H   0  0  0  0  0  0  0  0  0  0  0  0
   -5.6647    0.8406   -1.0461 H   0  0  0  0  0  0  0  0  0  0  0  0
   -2.3821    1.5260    0.3218 H   0  0  0  0  0  0  0  0  0  0  0  0
   -0.2537    2.5692    0.9315 H   0  0  0  0  0  0  0  0  0  0  0  0
    2.4985    2.2775    0.8746 H   0  0  0  0  0  0  0  0  0  0  0  0
    3.7320   -2.1108   -0.8072 H   0  0  0  0  0  0  0  0  0  0  0  0
    1.3344   -3.1244   -2.1856 H   0  0  0  0  0  0  0  0  0  0  0  0
    1.3001   -3.1634   -0.3183 H   0  0  0  0  0  0  0  0  0  0  0  0
    2.5774   -3.9110   -1.2469 H   0  0  0  0  0  0  0  0  0  0  0  0
    1.8903   -1.3971   -3.1010 H   0  0  0  0  0  0  0  0  0  0  0  0
    3.4014   -0.4923   -2.8385 H   0  0  0  0  0  0  0  0  0  0  0  0
    3.4470   -2.2928   -3.1769 H   0  0  0  0  0  0  0  0  0  0  0  0
   -0.2898   -1.7477   -1.2776 H   0  0  0  0  0  0  0  0  0  0  0  0
    4.1980    1.9551    1.8029 H   0  0  0  0  0  0  0  0  0  0  0  0
    5.2512    4.0087    2.6372 H   0  0  0  0  0  0  0  0  0  0  0  0
    6.2546    3.8319    4.1025 H   0  0  0  0  0  0  0  0  0  0  0  0
    4.9592    2.5945    3.6804 H   0  0  0  0  0  0  0  0  0  0  0  0
   10.0487   -0.0080   -0.4201 H   0  0  0  0  0  0  0  0  0  0  0  0
    5.3125   -0.7488   -1.3164 H   0  0  0  0  0  0  0  0  0  0  0  0
  1  2  1  0
  2  3  1  0
  3  4  2  0
  3  5  1  0
  5  6  1  0
  6  7  1  0
  7  8  1  0
  8  9  1  0
  9 10  1  0
 10 11  1  0
  9 12  1  0
 12 13  2  0
 13 14  1  0
 14 15  2  0
 15 16  1  0
 16 17  1  0
 17 18  2  0
 18 19  1  0
 19 20  1  0
 19 21  1  0
 18 22  1  0
 22 23  2  0
 17 24  1  0
 24 25  1  0
 25 26  2  0
 26 27  1  0
 27 28  1  0
 26 29  1  0
 29 30  2  0
 30 31  1  0
 31 32  2  0
 32 33  1  0
 33 34  1  0
 11  6  1  0
 23 12  1  0
 34 24  2  0
 22 15  1  0
 33 29  1  0
  1 35  1  0
  1 36  1  0
  1 37  1  0
  2 38  1  0
  5 39  1  0
  5 40  1  0
  7 41  1  0
  7 42  1  0
  8 43  1  0
  8 44  1  0
  9 45  1  0
 10 46  1  0
 10 47  1  0
 11 48  1  0
 11 49  1  0
 13 50  1  0
 14 51  1  0
 16 52  1  0
 19 53  1  0
 20 54  1  0
 20 55  1  0
 20 56  1  0
 21 57  1  0
 21 58  1  0
 21 59  1  0
 23 60  1  0
 25 61  1  0
 28 62  1  0
 28 63  1  0
 28 64  1  0
 31 65  1  0
 34 66  1  0
M  END
$$$$
[H]c1nc(N([H])C(=O)c2c([H])c(O[C@@]([H])(C([H])([H])[H])C([H])([H])OC([H])([H])[H])c([H])c(O[C@@]([H])(C([H])([H])[H])C(C([H])([H])[H])(C([H])([H])[H])C([H])([H])[H])c2[H])sc1[H]
     RDKit          3D

 55 56  0  0  0  0  0  0  0  0999 V2000
    5.4941   -2.8986   -0.6471 C   0  0  0  0  0  0  0  0  0  0  0  0
    4.6906   -3.9942   -0.7874 O   0  0  0  0  0  0  0  0  0  0  0  0
    3.3702   -3.6978   -0.9483 C   0  0  0  0  0  0  0  0  0  0  0  0
    2.7774   -2.9330    0.2291 C   0  0  2  0  0  0  0  0  0  0  0  0
    2.9063   -3.7581    1.5078 C   0  0  0  0  0  0  0  0  0  0  0  0
    1.4458   -2.7132   -0.0622 O   0  0  0  0  0  0  0  0  0  0  0  0
    0.8462   -1.4898   -0.1204 C   0  0  0  0  0  0  0  0  0  0  0  0
   -0.5111   -1.4619   -0.4301 C   0  0  0  0  0  0  0  0  0  0  0  0
   -1.2469   -0.3026   -0.5239 C   0  0  0  0  0  0  0  0  0  0  0  0
   -2.5859   -0.4320   -0.8395 O   0  0  0  0  0  0  0  0  0  0  0  0
   -3.5185    0.5866   -0.9878 C   0  0  1  0  0  0  0  0  0  0  0  0
   -4.1492    0.4345   -2.3763 C   0  0  0  0  0  0  0  0  0  0  0  0
   -4.6582    0.2957   -0.0013 C   0  0  0  0  0  0  0  0  0  0  0  0
   -5.7297    1.3301   -0.0685 C   0  0  0  0  0  0  0  0  0  0  0  0
   -4.1235    0.2085    1.4102 C   0  0  0  0  0  0  0  0  0  0  0  0
   -5.1765   -1.0849   -0.3627 C   0  0  0  0  0  0  0  0  0  0  0  0
   -0.6122    0.8730   -0.3020 C   0  0  0  0  0  0  0  0  0  0  0  0
    0.7402    0.9055    0.0105 C   0  0  0  0  0  0  0  0  0  0  0  0
    1.4561   -0.2857    0.0976 C   0  0  0  0  0  0  0  0  0  0  0  0
    1.3720    2.1906    0.2387 C   0  0  0  0  0  0  0  0  0  0  0  0
    0.6767    3.2312    0.1267 O   0  0  0  0  0  0  0  0  0  0  0  0
    2.7423    2.3163    0.5827 N   0  0  0  0  0  0  0  0  0  0  0  0
    3.3177    3.6082    0.7974 C   0  0  0  0  0  0  0  0  0  0  0  0
    2.6551    4.7476    0.6987 N   0  0  0  0  0  0  0  0  0  0  0  0
    3.2640    5.8679    0.9122 C   0  0  0  0  0  0  0  0  0  0  0  0
    4.5938    5.8239    1.2372 C   0  0  0  0  0  0  0  0  0  0  0  0
    4.8846    4.1281    1.2128 S   0  0  0  0  0  0  0  0  0  0  0  0
    5.4199   -2.2305   -1.5395 H   0  0  0  0  0  0  0  0  0  0  0  0
    6.5495   -3.2755   -0.5987 H   0  0  0  0  0  0  0  0  0  0  0  0
    5.2758   -2.3104    0.2453 H   0  0  0  0  0  0  0  0  0  0  0  0
    2.8171   -4.6385   -1.1249 H   0  0  0  0  0  0  0  0  0  0  0  0
    3.1860   -3.0532   -1.8418 H   0  0  0  0  0  0  0  0  0  0  0  0
    3.3060   -1.9997    0.4113 H   0  0  0  0  0  0  0  0  0  0  0  0
    1.9807   -4.3635    1.6627 H   0  0  0  0  0  0  0  0  0  0  0  0
    2.9964   -3.0853    2.3794 H   0  0  0  0  0  0  0  0  0  0  0  0
    3.8077   -4.3944    1.4605 H   0  0  0  0  0  0  0  0  0  0  0  0
   -0.9877   -2.4198   -0.6016 H   0  0  0  0  0  0  0  0  0  0  0  0
   -3.1305    1.6009   -0.8370 H   0  0  0  0  0  0  0  0  0  0  0  0
   -5.0959   -0.1128   -2.3454 H   0  0  0  0  0  0  0  0  0  0  0  0
   -4.3061    1.4394   -2.8377 H   0  0  0  0  0  0  0  0  0  0  0  0
   -3.4611   -0.1057   -3.0575 H   0  0  0  0  0  0  0  0  0  0  0  0
   -5.6345    1.9885   -0.9557 H   0  0  0  0  0  0  0  0  0  0  0  0
   -5.6527    1.9849    0.8159 H   0  0  0  0  0  0  0  0  0  0  0  0
   -6.7403    0.8417   -0.0146 H   0  0  0  0  0  0  0  0  0  0  0  0
   -4.7810   -0.4895    1.9748 H   0  0  0  0  0  0  0  0  0  0  0  0
   -3.0982   -0.2363    1.4289 H   0  0  0  0  0  0  0  0  0  0  0  0
   -4.1610    1.1837    1.9366 H   0  0  0  0  0  0  0  0  0  0  0  0
   -5.2873   -1.7275    0.5422 H   0  0  0  0  0  0  0  0  0  0  0  0
   -6.1642   -1.0342   -0.8610 H   0  0  0  0  0  0  0  0  0  0  0  0
   -4.5011   -1.6264   -1.0490 H   0  0  0  0  0  0  0  0  0  0  0  0
   -1.1623    1.7942   -0.3686 H   0  0  0  0  0  0  0  0  0  0  0  0
    2.5013   -0.2574    0.3391 H   0  0  0  0  0  0  0  0  0  0  0  0
    3.3926    1.5049    0.6966 H   0  0  0  0  0  0  0  0  0  0  0  0
    2.7506    6.8483    0.8412 H   0  0  0  0  0  0  0  0  0  0  0  0
    5.2592    6.6785    1.4496 H   0  0  0  0  0  0  0  0  0  0  0  0
  1  2  1  0
  2  3  1  0
  3  4  1  0
  4  5  1  0
  4  6  1  0
  6  7  1  0
  7  8  2  0
  8  9  1  0
  9 10  1  0
 10 11  1  0
 11 12  1  0
 11 13  1  0
 13 14  1  0
 13 15  1  0
 13 16  1  0
  9 17  2  0
 17 18  1  0
 18 19  2  0
 18 20  1  0
 20 21  2  0
 20 22  1  0
 22 23  1  0
 23 24  2  0
 24 25  1  0
 25 26  2  0
 26 27  1  0
 19  7  1  0
 27 23  1  0
  1 28  1  0
  1 29  1  0
  1 30  1  0
  3 31  1  0
  3 32  1  0
  4 33  1  1
  5 34  1  0
  5 35  1  0
  5 36  1  0
  8 37  1  0
 11 38  1  1
 12 39  1  0
 12 40  1  0
 12 41  1  0
 14 42  1  0
 14 43  1  0
 14 44  1  0
 15 45  1  0
 15 46  1  0
 15 47  1  0
 16 48  1  0
 16 49  1  0
 16 50  1  0
 17 51  1  0
 19 52  1  0
 22 53  1  0
 25 54  1  0
 26 55  1  0
M  END
$$$$
[H]C([H])=C([H])C(=O)N1[C@@]2([H])C([H])([H])C([H])([H])C([H])([H])[C@]1([H])C([H])([H])[C@@]([H])(N([H])c1nc(N([H])c3nn([H])c(C([H])([H])[H])c3[H])c([H])c3nc([H])c([H])c([H])c13)C2([H])[H]
     RDKit          3D

 58 62  0  0  0  0  0  0  0  0999 V2000
    7.3616    1.2052    3.3673 C   0  0  0  0  0  0  0  0  0  0  0  0
    6.3868    0.9128    2.2915 C   0  0  0  0  0  0  0  0  0  0  0  0
    5.0650    0.5707    2.3923 C   0  0  0  0  0  0  0  0  0  0  0  0
    4.5341    0.3868    1.0989 C   0  0  0  0  0  0  0  0  0  0  0  0
    3.2099    0.0312    0.8309 N   0  0  0  0  0  0  0  0  0  0  0  0
    2.5648   -0.1802   -0.3972 C   0  0  0  0  0  0  0  0  0  0  0  0
    3.2047   -0.0542   -1.5948 C   0  0  0  0  0  0  0  0  0  0  0  0
    2.5520   -0.2676   -2.8246 C   0  0  0  0  0  0  0  0  0  0  0  0
    3.2468   -0.1246   -3.9474 N   0  0  0  0  0  0  0  0  0  0  0  0
    2.6489   -0.3219   -5.1297 C   0  0  0  0  0  0  0  0  0  0  0  0
    1.3239   -0.6686   -5.1253 C   0  0  0  0  0  0  0  0  0  0  0  0
    0.5952   -0.8192   -3.9668 C   0  0  0  0  0  0  0  0  0  0  0  0
    1.2100   -0.6164   -2.7534 C   0  0  0  0  0  0  0  0  0  0  0  0
    0.5545   -0.7464   -1.5534 C   0  0  0  0  0  0  0  0  0  0  0  0
   -0.8156   -1.1062   -1.5073 N   0  0  0  0  0  0  0  0  0  0  0  0
   -1.5186   -1.2425   -0.2175 C   0  0  1  0  0  0  0  0  0  0  0  0
   -1.4800    0.0764    0.4429 C   0  0  0  0  0  0  0  0  0  0  0  0
   -2.7831    0.3955    1.2006 C   0  0  2  0  0  0  0  0  0  0  0  0
   -3.0404   -0.7173    2.2277 C   0  0  0  0  0  0  0  0  0  0  0  0
   -4.4598   -1.1720    2.2555 C   0  0  0  0  0  0  0  0  0  0  0  0
   -4.9359   -1.6831    0.9135 C   0  0  0  0  0  0  0  0  0  0  0  0
   -4.0426   -1.1332   -0.1703 C   0  0  2  0  0  0  0  0  0  0  0  0
   -2.8170   -1.8920   -0.4487 C   0  0  0  0  0  0  0  0  0  0  0  0
   -3.8068    0.2874    0.1971 N   0  0  0  0  0  0  0  0  0  0  0  0
   -4.5211    1.3072   -0.4314 C   0  0  0  0  0  0  0  0  0  0  0  0
   -5.4276    0.8289   -1.2729 O   0  0  0  0  0  0  0  0  0  0  0  0
   -4.4984    2.7170   -0.3771 C   0  0  0  0  0  0  0  0  0  0  0  0
   -3.7829    3.5834    0.2783 C   0  0  0  0  0  0  0  0  0  0  0  0
    1.2546   -0.5245   -0.4376 N   0  0  0  0  0  0  0  0  0  0  0  0
    5.5745    0.6307    0.2922 N   0  0  0  0  0  0  0  0  0  0  0  0
    6.6669    0.9402    0.9776 N   0  0  0  0  0  0  0  0  0  0  0  0
    7.7561    0.2549    3.7861 H   0  0  0  0  0  0  0  0  0  0  0  0
    6.8887    1.8138    4.1899 H   0  0  0  0  0  0  0  0  0  0  0  0
    8.1638    1.8496    2.9605 H   0  0  0  0  0  0  0  0  0  0  0  0
    4.5447    0.4677    3.3379 H   0  0  0  0  0  0  0  0  0  0  0  0
    2.5830   -0.1026    1.7020 H   0  0  0  0  0  0  0  0  0  0  0  0
    4.2568    0.2189   -1.6614 H   0  0  0  0  0  0  0  0  0  0  0  0
    3.2055   -0.2090   -6.0763 H   0  0  0  0  0  0  0  0  0  0  0  0
    0.8036   -0.8373   -6.0660 H   0  0  0  0  0  0  0  0  0  0  0  0
   -0.4394   -1.0906   -3.9851 H   0  0  0  0  0  0  0  0  0  0  0  0
   -1.3690   -1.2832   -2.3527 H   0  0  0  0  0  0  0  0  0  0  0  0
   -0.8164   -1.9237    0.3589 H   0  0  0  0  0  0  0  0  0  0  0  0
   -0.6440    0.1542    1.1621 H   0  0  0  0  0  0  0  0  0  0  0  0
   -1.4078    0.8826   -0.3268 H   0  0  0  0  0  0  0  0  0  0  0  0
   -2.6767    1.3485    1.7006 H   0  0  0  0  0  0  0  0  0  0  0  0
   -2.8408   -0.2603    3.2331 H   0  0  0  0  0  0  0  0  0  0  0  0
   -2.3742   -1.5677    2.1282 H   0  0  0  0  0  0  0  0  0  0  0  0
   -5.1191   -0.3730    2.6547 H   0  0  0  0  0  0  0  0  0  0  0  0
   -4.5228   -2.0173    2.9598 H   0  0  0  0  0  0  0  0  0  0  0  0
   -4.9934   -2.7920    0.8895 H   0  0  0  0  0  0  0  0  0  0  0  0
   -5.9784   -1.3234    0.7840 H   0  0  0  0  0  0  0  0  0  0  0  0
   -4.7040   -1.0714   -1.0809 H   0  0  0  0  0  0  0  0  0  0  0  0
   -2.8750   -2.2983   -1.5043 H   0  0  0  0  0  0  0  0  0  0  0  0
   -2.8519   -2.8429    0.1642 H   0  0  0  0  0  0  0  0  0  0  0  0
   -5.2668    3.2254   -1.0453 H   0  0  0  0  0  0  0  0  0  0  0  0
   -3.9504    4.6818    0.1579 H   0  0  0  0  0  0  0  0  0  0  0  0
   -3.0058    3.3193    0.9472 H   0  0  0  0  0  0  0  0  0  0  0  0
    7.6092    1.1728    0.5840 H   0  0  0  0  0  0  0  0  0  0  0  0
  1  2  1  0
  2  3  2  0
  3  4  1  0
  4  5  1  0
  5  6  1  0
  6  7  2  0
  7  8  1  0
  8  9  2  0
  9 10  1  0
 10 11  2  0
 11 12  1  0
 12 13  2  0
 13 14  1  0
 14 15  1  0
 15 16  1  0
 16 17  1  0
 17 18  1  0
 18 19  1  0
 19 20  1  0
 20 21  1  0
 21 22  1  0
 22 23  1  0
 22 24  1  0
 24 25  1  0
 25 26  2  0
 25 27  1  0
 27 28  2  3
 14 29  2  0
  4 30  2  0
 30 31  1  0
 31  2  1  0
 29  6  1  0
 13  8  1  0
 23 16  1  0
 24 18  1  0
  1 32  1  0
  1 33  1  0
  1 34  1  0
  3 35  1  0
  5 36  1  0
  7 37  1  0
 10 38  1  0
 11 39  1  0
 12 40  1  0
 15 41  1  0
 16 42  1  1
 17 43  1  0
 17 44  1  0
 18 45  1  1
 19 46  1  0
 19 47  1  0
 20 48  1  0
 20 49  1  0
 21 50  1  0
 21 51  1  0
 22 52  1  6
 23 53  1  0
 23 54  1  0
 27 55  1  0
 28 56  1  0
 28 57  1  0
 31 58  1  0
M  END
$$$$
