[H]OC(=O)C([H])([H])C([H])([H])c1c([H])c([H])c(C2=C3C([H])=C([H])C(C([H])([H])N(c4c([H])c([H])c([H])c([H])c4[H])S(=O)(=O)c4c([H])c([H])c([H])c([H])c4OC([H])([H])C([H])=C([H])[H])=C(F)C(O[H])=C3N([H])N=N2)c([H])c1[H]
     RDKit          3D

 74 78  0  0  0  0  0  0  0  0999 V2000
    0.2168   -4.7537    0.2379 O   0  0  0  0  0  0  0  0  0  0  0  0
    0.6439   -3.4373    0.1321 C   0  0  0  0  0  0  0  0  0  0  0  0
   -0.4285   -2.5085   -0.3037 C   0  0  0  0  0  0  0  0  0  0  0  0
   -1.5911   -3.1515   -0.5364 F   0  0  0  0  0  0  0  0  0  0  0  0
   -0.3516   -1.2200   -0.4595 C   0  0  0  0  0  0  0  0  0  0  0  0
   -1.4358   -0.3896   -0.8883 C   0  0  0  0  0  0  0  0  0  0  0  0
   -2.7238   -0.6751   -1.2544 N   0  0  0  0  0  0  0  0  0  0  0  0
   -3.0899   -0.8143   -2.6486 C   0  0  0  0  0  0  0  0  0  0  0  0
   -3.2973   -1.9684   -3.3142 C   0  0  0  0  0  0  0  0  0  0  0  0
   -3.6854   -2.0221   -4.6630 C   0  0  0  0  0  0  0  0  0  0  0  0
   -3.8684   -0.8504   -5.3565 C   0  0  0  0  0  0  0  0  0  0  0  0
   -3.6616    0.3470   -4.6938 C   0  0  0  0  0  0  0  0  0  0  0  0
   -3.2825    0.3855   -3.3761 C   0  0  0  0  0  0  0  0  0  0  0  0
   -4.0415   -0.6589   -0.1503 S   0  0  0  0  0  0  0  0  0  0  0  0
   -5.3189   -1.1280   -0.8206 O   0  0  0  0  0  0  0  0  0  0  0  0
   -3.8665   -1.5809    1.0338 O   0  0  0  0  0  0  0  0  0  0  0  0
   -4.3504    0.9113    0.5501 C   0  0  0  0  0  0  0  0  0  0  0  0
   -3.7169    2.0337    0.1669 C   0  0  0  0  0  0  0  0  0  0  0  0
   -4.0157    3.2777    0.7400 C   0  0  0  0  0  0  0  0  0  0  0  0
   -4.9744    3.3190    1.7041 C   0  0  0  0  0  0  0  0  0  0  0  0
   -5.6288    2.1819    2.1043 C   0  0  0  0  0  0  0  0  0  0  0  0
   -5.3407    0.9540    1.5453 C   0  0  0  0  0  0  0  0  0  0  0  0
   -5.9686   -0.2019    1.9160 O   0  0  0  0  0  0  0  0  0  0  0  0
   -6.9317   -0.5801    2.7801 C   0  0  0  0  0  0  0  0  0  0  0  0
   -8.2936   -0.0226    2.6131 C   0  0  0  0  0  0  0  0  0  0  0  0
   -8.8841    0.6807    3.5600 C   0  0  0  0  0  0  0  0  0  0  0  0
    0.8587   -0.3603   -0.2225 C   0  0  0  0  0  0  0  0  0  0  0  0
    2.0871   -0.6220    0.1312 C   0  0  0  0  0  0  0  0  0  0  0  0
    2.6350   -1.9405    0.4064 C   0  0  0  0  0  0  0  0  0  0  0  0
    3.8969   -1.9034    0.6590 C   0  0  0  0  0  0  0  0  0  0  0  0
    4.5665   -3.1551    0.9623 N   0  0  0  0  0  0  0  0  0  0  0  0
    3.9751   -4.2657    0.9883 N   0  0  0  0  0  0  0  0  0  0  0  0
    2.6098   -4.4062    0.7260 N   0  0  0  0  0  0  0  0  0  0  0  0
    1.9097   -3.2060    0.4227 C   0  0  0  0  0  0  0  0  0  0  0  0
    4.7589   -0.7202    0.5791 C   0  0  0  0  0  0  0  0  0  0  0  0
    5.4767   -0.3386    1.7111 C   0  0  0  0  0  0  0  0  0  0  0  0
    6.3672    0.7153    1.7039 C   0  0  0  0  0  0  0  0  0  0  0  0
    6.5843    1.4453    0.5512 C   0  0  0  0  0  0  0  0  0  0  0  0
    7.5383    2.5831    0.5298 C   0  0  0  0  0  0  0  0  0  0  0  0
    8.9389    2.0884    0.1612 C   0  0  0  0  0  0  0  0  0  0  0  0
    9.9002    3.2143    0.1361 C   0  0  0  0  0  0  0  0  0  0  0  0
   11.2366    3.0166   -0.1673 O   0  0  0  0  0  0  0  0  0  0  0  0
    9.5503    4.4025    0.3886 O   0  0  0  0  0  0  0  0  0  0  0  0
    5.8754    1.0703   -0.5716 C   0  0  0  0  0  0  0  0  0  0  0  0
    4.9864    0.0162   -0.5590 C   0  0  0  0  0  0  0  0  0  0  0  0
    0.5009   -5.3691   -0.5344 H   0  0  0  0  0  0  0  0  0  0  0  0
   -1.4853    0.4246   -0.0252 H   0  0  0  0  0  0  0  0  0  0  0  0
   -1.0267    0.3434   -1.7114 H   0  0  0  0  0  0  0  0  0  0  0  0
   -3.1761   -2.9140   -2.8086 H   0  0  0  0  0  0  0  0  0  0  0  0
   -3.8359   -2.9635   -5.1425 H   0  0  0  0  0  0  0  0  0  0  0  0
   -4.1659   -0.8474   -6.3925 H   0  0  0  0  0  0  0  0  0  0  0  0
   -3.8188    1.2581   -5.2840 H   0  0  0  0  0  0  0  0  0  0  0  0
   -3.1235    1.3255   -2.8706 H   0  0  0  0  0  0  0  0  0  0  0  0
   -2.9456    2.0694   -0.6174 H   0  0  0  0  0  0  0  0  0  0  0  0
   -3.5154    4.1844    0.4421 H   0  0  0  0  0  0  0  0  0  0  0  0
   -5.2668    4.2560    2.2022 H   0  0  0  0  0  0  0  0  0  0  0  0
   -6.3911    2.2620    2.8939 H   0  0  0  0  0  0  0  0  0  0  0  0
   -6.6857   -0.4463    3.8666 H   0  0  0  0  0  0  0  0  0  0  0  0
   -7.0252   -1.7179    2.7040 H   0  0  0  0  0  0  0  0  0  0  0  0
   -8.8202   -0.2027    1.6762 H   0  0  0  0  0  0  0  0  0  0  0  0
   -8.3474    0.8558    4.4968 H   0  0  0  0  0  0  0  0  0  0  0  0
   -9.8780    1.0646    3.3887 H   0  0  0  0  0  0  0  0  0  0  0  0
    0.7054    0.7150   -0.3704 H   0  0  0  0  0  0  0  0  0  0  0  0
    2.7702    0.2168    0.2707 H   0  0  0  0  0  0  0  0  0  0  0  0
    2.1003   -5.2985    0.7395 H   0  0  0  0  0  0  0  0  0  0  0  0
    5.3043   -0.9148    2.6190 H   0  0  0  0  0  0  0  0  0  0  0  0
    6.9177    0.9971    2.5977 H   0  0  0  0  0  0  0  0  0  0  0  0
    7.2146    3.3019   -0.2389 H   0  0  0  0  0  0  0  0  0  0  0  0
    7.6357    3.0812    1.5126 H   0  0  0  0  0  0  0  0  0  0  0  0
    8.9346    1.6036   -0.8319 H   0  0  0  0  0  0  0  0  0  0  0  0
    9.2884    1.3418    0.8979 H   0  0  0  0  0  0  0  0  0  0  0  0
   11.7816    2.2845    0.3052 H   0  0  0  0  0  0  0  0  0  0  0  0
    6.0482    1.6498   -1.4855 H   0  0  0  0  0  0  0  0  0  0  0  0
    4.4408   -0.2595   -1.4550 H   0  0  0  0  0  0  0  0  0  0  0  0
  1  2  1  0
  2  3  1  0
  3  4  1  0
  3  5  2  0
  5  6  1  0
  6  7  1  0
  7  8  1  0
  8  9  2  0
  9 10  1  0
 10 11  2  0
 11 12  1  0
 12 13  2  0
  7 14  1  0
 14 15  2  0
 14 16  2  0
 14 17  1  0
 17 18  2  0
 18 19  1  0
 19 20  2  0
 20 21  1  0
 21 22  2  0
 22 23  1  0
 23 24  1  0
 24 25  1  0
 25 26  2  3
  5 27  1  0
 27 28  2  0
 28 29  1  0
 29 30  2  0
 30 31  1  0
 31 32  2  0
 32 33  1  0
 33 34  1  0
 30 35  1  0
 35 36  2  0
 36 37  1  0
 37 38  2  0
 38 39  1  0
 39 40  1  0
 40 41  1  0
 41 42  1  0
 41 43  2  0
 38 44  1  0
 44 45  2  0
 34  2  2  0
 45 35  1  0
 13  8  1  0
 22 17  1  0
 34 29  1  0
  1 46  1  0
  6 47  1  0
  6 48  1  0
  9 49  1  0
 10 50  1  0
 11 51  1  0
 12 52  1  0
 13 53  1  0
 18 54  1  0
 19 55  1  0
 20 56  1  0
 21 57  1  0
 24 58  1  0
 24 59  1  0
 25 60  1  0
 26 61  1  0
 26 62  1  0
 27 63  1  0
 28 64  1  0
 33 65  1  0
 36 66  1  0
 37 67  1  0
 39 68  1  0
 39 69  1  0
 40 70  1  0
 40 71  1  0
 42 72  1  0
 44 73  1  0
 45 74  1  0
M  END
$$$$
[H]Oc1c([H])c([H])c(-c2c([H])c([H])c3c(c2[H])Oc2c([H])c(O[H])c([H])c([H])c2[C@@]3([H])c2c([H])c([H])c([H])c([H])c2[H])c([H])c1[H]
     RDKit          3D

 46 50  0  0  0  0  0  0  0  0999 V2000
    7.8866    0.1269    0.5353 O   0  0  0  0  0  0  0  0  0  0  0  0
    6.5278    0.1578    0.2529 C   0  0  0  0  0  0  0  0  0  0  0  0
    5.9809    0.8278   -0.8122 C   0  0  0  0  0  0  0  0  0  0  0  0
    4.6203    0.8137   -1.0294 C   0  0  0  0  0  0  0  0  0  0  0  0
    3.8233    0.1137   -0.1554 C   0  0  0  0  0  0  0  0  0  0  0  0
    4.3356   -0.5778    0.9347 C   0  0  0  0  0  0  0  0  0  0  0  0
    5.7015   -0.5376    1.1149 C   0  0  0  0  0  0  0  0  0  0  0  0
    2.3835    0.0836   -0.3633 C   0  0  0  0  0  0  0  0  0  0  0  0
    1.7571    1.1679   -0.9276 C   0  0  0  0  0  0  0  0  0  0  0  0
    0.3914    1.1454   -1.1262 C   0  0  0  0  0  0  0  0  0  0  0  0
   -0.3389    0.0374   -0.7584 C   0  0  0  0  0  0  0  0  0  0  0  0
   -1.8047    0.0604   -0.9890 C   0  0  2  0  0  0  0  0  0  0  0  0
   -2.4036    1.2506   -0.3348 C   0  0  0  0  0  0  0  0  0  0  0  0
   -2.7450    1.1743    1.0104 C   0  0  0  0  0  0  0  0  0  0  0  0
   -3.3127    2.2798    1.6429 C   0  0  0  0  0  0  0  0  0  0  0  0
   -3.5438    3.4554    0.9559 C   0  0  0  0  0  0  0  0  0  0  0  0
   -3.2052    3.5312   -0.3780 C   0  0  0  0  0  0  0  0  0  0  0  0
   -2.6366    2.4258   -1.0139 C   0  0  0  0  0  0  0  0  0  0  0  0
   -2.4619   -1.1919   -0.5523 C   0  0  0  0  0  0  0  0  0  0  0  0
   -3.8221   -1.3057   -0.7119 C   0  0  0  0  0  0  0  0  0  0  0  0
   -4.5138   -2.4442   -0.3266 C   0  0  0  0  0  0  0  0  0  0  0  0
   -3.7995   -3.4745    0.2278 C   0  0  0  0  0  0  0  0  0  0  0  0
   -4.4387   -4.6324    0.6296 O   0  0  0  0  0  0  0  0  0  0  0  0
   -2.4295   -3.4035    0.4073 C   0  0  0  0  0  0  0  0  0  0  0  0
   -1.7761   -2.2458    0.0078 C   0  0  0  0  0  0  0  0  0  0  0  0
   -0.4081   -2.1679    0.1834 O   0  0  0  0  0  0  0  0  0  0  0  0
    0.3151   -1.0520   -0.1879 C   0  0  0  0  0  0  0  0  0  0  0  0
    1.6686   -1.0167    0.0032 C   0  0  0  0  0  0  0  0  0  0  0  0
    8.2359    0.8643    1.1436 H   0  0  0  0  0  0  0  0  0  0  0  0
    6.6418    1.3768   -1.4919 H   0  0  0  0  0  0  0  0  0  0  0  0
    4.1897    1.3499   -1.8810 H   0  0  0  0  0  0  0  0  0  0  0  0
    3.6890   -1.1265    1.6164 H   0  0  0  0  0  0  0  0  0  0  0  0
    6.1203   -1.0768    1.9673 H   0  0  0  0  0  0  0  0  0  0  0  0
    2.3180    2.0642   -1.2295 H   0  0  0  0  0  0  0  0  0  0  0  0
   -0.0639    2.0328   -1.5805 H   0  0  0  0  0  0  0  0  0  0  0  0
   -1.9275    0.1630   -2.1062 H   0  0  0  0  0  0  0  0  0  0  0  0
   -2.5584    0.2584    1.5227 H   0  0  0  0  0  0  0  0  0  0  0  0
   -3.5595    2.1620    2.6965 H   0  0  0  0  0  0  0  0  0  0  0  0
   -3.9892    4.3022    1.4783 H   0  0  0  0  0  0  0  0  0  0  0  0
   -3.3642    4.4279   -0.9611 H   0  0  0  0  0  0  0  0  0  0  0  0
   -2.3694    2.4774   -2.0596 H   0  0  0  0  0  0  0  0  0  0  0  0
   -4.3951   -0.5024   -1.1461 H   0  0  0  0  0  0  0  0  0  0  0  0
   -5.5996   -2.5232   -0.4590 H   0  0  0  0  0  0  0  0  0  0  0  0
   -5.4314   -4.7742    0.5387 H   0  0  0  0  0  0  0  0  0  0  0  0
   -1.8406   -4.1956    0.8397 H   0  0  0  0  0  0  0  0  0  0  0  0
    2.1528   -1.8820    0.4513 H   0  0  0  0  0  0  0  0  0  0  0  0
  1  2  1  0
  2  3  2  0
  3  4  1  0
  4  5  2  0
  5  6  1  0
  6  7  2  0
  5  8  1  0
  8  9  2  0
  9 10  1  0
 10 11  2  0
 11 12  1  0
 12 13  1  0
 13 14  2  0
 14 15  1  0
 15 16  2  0
 16 17  1  0
 17 18  2  0
 12 19  1  0
 19 20  2  0
 20 21  1  0
 21 22  2  0
 22 23  1  0
 22 24  1  0
 24 25  2  0
 25 26  1  0
 26 27  1  0
 27 28  2  0
  7  2  1  0
 28  8  1  0
 27 11  1  0
 18 13  1  0
 25 19  1  0
  1 29  1  0
  3 30  1  0
  4 31  1  0
  6 32  1  0
  7 33  1  0
  9 34  1  0
 10 35  1  0
 12 36  1  6
 14 37  1  0
 15 38  1  0
 16 39  1  0
 17 40  1  0
 18 41  1  0
 20 42  1  0
 21 43  1  0
 23 44  1  0
 24 45  1  0
 28 46  1  0
M  END
$$$$
[H]C#CC([H])([H])Oc1c([H])c([H])c(C([H])([H])[C@]([H])(c2c([H])nc(N([H])C(=O)N([H])[H])c([H])c2[H])c2c([H])c([H])c(OC([H])([H])[H])c([H])c2[H])c([H])c1C(F)(F)F
     RDKit          3D

 56 58  0  0  0  0  0  0  0  0999 V2000
   -1.5231   -4.8822    2.7992 C   0  0  0  0  0  0  0  0  0  0  0  0
   -1.5871   -3.5341    3.1543 O   0  0  0  0  0  0  0  0  0  0  0  0
   -1.4090   -2.5174    2.2352 C   0  0  0  0  0  0  0  0  0  0  0  0
   -1.4765   -1.1858    2.6082 C   0  0  0  0  0  0  0  0  0  0  0  0
   -1.2994   -0.1768    1.6942 C   0  0  0  0  0  0  0  0  0  0  0  0
   -1.0508   -0.5190    0.3853 C   0  0  0  0  0  0  0  0  0  0  0  0
   -0.9834   -1.8664    0.0119 C   0  0  0  0  0  0  0  0  0  0  0  0
   -1.1601   -2.8628    0.9244 C   0  0  0  0  0  0  0  0  0  0  0  0
   -0.8539    0.5033   -0.6358 C   0  0  2  0  0  0  0  0  0  0  0  0
    0.3019    1.4421   -0.4093 C   0  0  0  0  0  0  0  0  0  0  0  0
    1.6150    0.7783   -0.3525 C   0  0  0  0  0  0  0  0  0  0  0  0
    2.1485    0.4050    0.8575 C   0  0  0  0  0  0  0  0  0  0  0  0
    3.3890   -0.2357    0.9188 C   0  0  0  0  0  0  0  0  0  0  0  0
    4.0742   -0.4899   -0.2506 C   0  0  0  0  0  0  0  0  0  0  0  0
    5.3016   -1.1193   -0.2455 O   0  0  0  0  0  0  0  0  0  0  0  0
    5.8634   -1.5108    1.0041 C   0  0  0  0  0  0  0  0  0  0  0  0
    7.1687   -2.1613    0.7801 C   0  0  0  0  0  0  0  0  0  0  0  0
    8.2279   -2.6975    0.5788 C   0  0  0  0  0  0  0  0  0  0  0  0
    3.5575   -0.1229   -1.4823 C   0  0  0  0  0  0  0  0  0  0  0  0
    2.3365    0.5062   -1.5257 C   0  0  0  0  0  0  0  0  0  0  0  0
    4.3190   -0.4099   -2.7206 C   0  0  0  0  0  0  0  0  0  0  0  0
    3.5929    0.0518   -3.8016 F   0  0  0  0  0  0  0  0  0  0  0  0
    4.4934   -1.7641   -2.8935 F   0  0  0  0  0  0  0  0  0  0  0  0
    5.5348    0.2513   -2.6631 F   0  0  0  0  0  0  0  0  0  0  0  0
   -2.1191    1.2388   -0.9159 C   0  0  0  0  0  0  0  0  0  0  0  0
   -2.9803    0.7954   -1.8836 C   0  0  0  0  0  0  0  0  0  0  0  0
   -4.1405    1.5037   -2.1107 C   0  0  0  0  0  0  0  0  0  0  0  0
   -4.4660    2.6402   -1.4010 C   0  0  0  0  0  0  0  0  0  0  0  0
   -5.6670    3.3650   -1.6431 N   0  0  0  0  0  0  0  0  0  0  0  0
   -5.9876    4.5200   -0.9140 C   0  0  0  0  0  0  0  0  0  0  0  0
   -5.1273    5.0215    0.1026 N   0  0  0  0  0  0  0  0  0  0  0  0
   -7.0667    5.1442   -1.1542 O   0  0  0  0  0  0  0  0  0  0  0  0
   -3.5818    3.0256   -0.4649 N   0  0  0  0  0  0  0  0  0  0  0  0
   -2.4338    2.3743   -0.1995 C   0  0  0  0  0  0  0  0  0  0  0  0
   -0.5147   -5.2356    2.5337 H   0  0  0  0  0  0  0  0  0  0  0  0
   -2.2257   -5.0644    1.9402 H   0  0  0  0  0  0  0  0  0  0  0  0
   -1.8402   -5.4817    3.6944 H   0  0  0  0  0  0  0  0  0  0  0  0
   -1.6736   -0.9558    3.6453 H   0  0  0  0  0  0  0  0  0  0  0  0
   -1.3570    0.8656    2.0114 H   0  0  0  0  0  0  0  0  0  0  0  0
   -0.7843   -2.1087   -1.0359 H   0  0  0  0  0  0  0  0  0  0  0  0
   -1.0976   -3.8851    0.5818 H   0  0  0  0  0  0  0  0  0  0  0  0
   -0.6035    0.0024   -1.6344 H   0  0  0  0  0  0  0  0  0  0  0  0
    0.3354    2.1396   -1.2842 H   0  0  0  0  0  0  0  0  0  0  0  0
    0.1469    2.1022    0.4747 H   0  0  0  0  0  0  0  0  0  0  0  0
    1.6822    0.5767    1.7978 H   0  0  0  0  0  0  0  0  0  0  0  0
    3.8137   -0.5326    1.8742 H   0  0  0  0  0  0  0  0  0  0  0  0
    5.1780   -2.2003    1.5246 H   0  0  0  0  0  0  0  0  0  0  0  0
    6.0475   -0.6472    1.6683 H   0  0  0  0  0  0  0  0  0  0  0  0
    9.1719   -3.1607    0.3920 H   0  0  0  0  0  0  0  0  0  0  0  0
    1.8959    0.8092   -2.4572 H   0  0  0  0  0  0  0  0  0  0  0  0
   -2.7163   -0.0948   -2.4332 H   0  0  0  0  0  0  0  0  0  0  0  0
   -4.8186    1.1527   -2.8744 H   0  0  0  0  0  0  0  0  0  0  0  0
   -6.3076    3.0095   -2.3852 H   0  0  0  0  0  0  0  0  0  0  0  0
   -4.2270    5.5169   -0.1230 H   0  0  0  0  0  0  0  0  0  0  0  0
   -5.3463    4.9229    1.1202 H   0  0  0  0  0  0  0  0  0  0  0  0
   -1.7698    2.7582    0.5821 H   0  0  0  0  0  0  0  0  0  0  0  0
  1  2  1  0
  2  3  1  0
  3  4  2  0
  4  5  1  0
  5  6  2  0
  6  7  1  0
  7  8  2  0
  6  9  1  0
  9 10  1  0
 10 11  1  0
 11 12  2  0
 12 13  1  0
 13 14  2  0
 14 15  1  0
 15 16  1  0
 16 17  1  0
 17 18  3  0
 14 19  1  0
 19 20  2  0
 19 21  1  0
 21 22  1  0
 21 23  1  0
 21 24  1  0
  9 25  1  0
 25 26  2  0
 26 27  1  0
 27 28  2  0
 28 29  1  0
 29 30  1  0
 30 31  1  0
 30 32  2  0
 28 33  1  0
 33 34  2  0
  8  3  1  0
 20 11  1  0
 34 25  1  0
  1 35  1  0
  1 36  1  0
  1 37  1  0
  4 38  1  0
  5 39  1  0
  7 40  1  0
  8 41  1  0
  9 42  1  6
 10 43  1  0
 10 44  1  0
 12 45  1  0
 13 46  1  0
 16 47  1  0
 16 48  1  0
 18 49  1  0
 20 50  1  0
 26 51  1  0
 27 52  1  0
 29 53  1  0
 31 54  1  0
 31 55  1  0
 34 56  1  0
M  END
$$$$
[H]Oc1c([H])c([H])c([C@@]2([H])Sc3c(c([H])c([H])c(O[H])c3O[H])O[C@]2([H])c2c([H])c([H])c(OC([H])([H])[C@@]([H])(OC([H])([H])C([H])([H])N3C([H])([H])C([H])([H])C([H])([H])C3([H])[H])C([H])([H])[H])c([H])c2[H])c([H])c1[H]
     RDKit          3D

 70 74  0  0  0  0  0  0  0  0999 V2000
    4.1479    0.6744   -1.3520 C   0  0  0  0  0  0  0  0  0  0  0  0
    3.6827    0.2393    0.0249 C   0  0  1  0  0  0  0  0  0  0  0  0
    2.2653   -0.2901   -0.0135 C   0  0  0  0  0  0  0  0  0  0  0  0
    1.3733    0.6918   -0.5256 O   0  0  0  0  0  0  0  0  0  0  0  0
    0.0268    0.4852   -0.6705 C   0  0  0  0  0  0  0  0  0  0  0  0
   -0.7128    1.5504   -1.1873 C   0  0  0  0  0  0  0  0  0  0  0  0
   -2.0736    1.4205   -1.3629 C   0  0  0  0  0  0  0  0  0  0  0  0
   -2.6731    0.2460   -1.0257 C   0  0  0  0  0  0  0  0  0  0  0  0
   -1.9456   -0.8179   -0.5114 C   0  0  0  0  0  0  0  0  0  0  0  0
   -0.5723   -0.7036   -0.3281 C   0  0  0  0  0  0  0  0  0  0  0  0
   -4.1612    0.0487   -1.1914 C   0  0  1  0  0  0  0  0  0  0  0  0
   -4.3465   -1.1760   -1.7702 O   0  0  0  0  0  0  0  0  0  0  0  0
   -4.8227   -2.3287   -1.2259 C   0  0  0  0  0  0  0  0  0  0  0  0
   -4.4644   -3.5391   -1.7769 C   0  0  0  0  0  0  0  0  0  0  0  0
   -4.9374   -4.7279   -1.2388 C   0  0  0  0  0  0  0  0  0  0  0  0
   -5.7801   -4.6874   -0.1331 C   0  0  0  0  0  0  0  0  0  0  0  0
   -6.2480   -5.8943    0.3975 O   0  0  0  0  0  0  0  0  0  0  0  0
   -6.1299   -3.4678    0.4076 C   0  0  0  0  0  0  0  0  0  0  0  0
   -6.9851   -3.5138    1.5240 O   0  0  0  0  0  0  0  0  0  0  0  0
   -5.6572   -2.3349   -0.1343 C   0  0  0  0  0  0  0  0  0  0  0  0
   -6.1159   -0.7657    0.5723 S   0  0  0  0  0  0  0  0  0  0  0  0
   -4.7801    0.3627    0.1055 C   0  0  2  0  0  0  0  0  0  0  0  0
   -5.3365    1.7385    0.1162 C   0  0  0  0  0  0  0  0  0  0  0  0
   -6.2956    2.0985   -0.8250 C   0  0  0  0  0  0  0  0  0  0  0  0
   -6.8509    3.3705   -0.8619 C   0  0  0  0  0  0  0  0  0  0  0  0
   -6.4359    4.3120    0.0699 C   0  0  0  0  0  0  0  0  0  0  0  0
   -7.0054    5.5629    0.0073 O   0  0  0  0  0  0  0  0  0  0  0  0
   -5.4911    3.9835    1.0095 C   0  0  0  0  0  0  0  0  0  0  0  0
   -4.9601    2.7099    1.0173 C   0  0  0  0  0  0  0  0  0  0  0  0
    4.4873   -0.7378    0.5255 O   0  0  0  0  0  0  0  0  0  0  0  0
    5.1811   -0.4643    1.6691 C   0  0  0  0  0  0  0  0  0  0  0  0
    6.1344    0.6770    1.4294 C   0  0  0  0  0  0  0  0  0  0  0  0
    7.0460    0.2631    0.3698 N   0  0  0  0  0  0  0  0  0  0  0  0
    7.9991    1.2575    0.0520 C   0  0  0  0  0  0  0  0  0  0  0  0
    9.3374    0.6109    0.0985 C   0  0  0  0  0  0  0  0  0  0  0  0
    9.0170   -0.8678    0.1195 C   0  0  0  0  0  0  0  0  0  0  0  0
    7.6500   -0.9535    0.7654 C   0  0  0  0  0  0  0  0  0  0  0  0
    4.6921    1.6388   -1.3245 H   0  0  0  0  0  0  0  0  0  0  0  0
    4.8502   -0.1032   -1.7150 H   0  0  0  0  0  0  0  0  0  0  0  0
    3.3031    0.6885   -2.0780 H   0  0  0  0  0  0  0  0  0  0  0  0
    3.6916    1.1390    0.6520 H   0  0  0  0  0  0  0  0  0  0  0  0
    1.9603   -0.4813    1.0349 H   0  0  0  0  0  0  0  0  0  0  0  0
    2.2513   -1.2284   -0.5745 H   0  0  0  0  0  0  0  0  0  0  0  0
   -0.2172    2.4787   -1.4499 H   0  0  0  0  0  0  0  0  0  0  0  0
   -2.6793    2.2238   -1.7601 H   0  0  0  0  0  0  0  0  0  0  0  0
   -2.3800   -1.7552   -0.2351 H   0  0  0  0  0  0  0  0  0  0  0  0
   -0.0111   -1.5245    0.0690 H   0  0  0  0  0  0  0  0  0  0  0  0
   -4.4669    0.8517   -1.9302 H   0  0  0  0  0  0  0  0  0  0  0  0
   -3.8128   -3.6200   -2.6359 H   0  0  0  0  0  0  0  0  0  0  0  0
   -4.6473   -5.6569   -1.6811 H   0  0  0  0  0  0  0  0  0  0  0  0
   -5.9821   -6.7580   -0.0092 H   0  0  0  0  0  0  0  0  0  0  0  0
   -7.2375   -2.6159    1.9143 H   0  0  0  0  0  0  0  0  0  0  0  0
   -4.0279    0.3405    0.9474 H   0  0  0  0  0  0  0  0  0  0  0  0
   -6.6067    1.3497   -1.5438 H   0  0  0  0  0  0  0  0  0  0  0  0
   -7.5872    3.5729   -1.6205 H   0  0  0  0  0  0  0  0  0  0  0  0
   -6.7443    6.2879    0.6568 H   0  0  0  0  0  0  0  0  0  0  0  0
   -5.1907    4.7482    1.7238 H   0  0  0  0  0  0  0  0  0  0  0  0
   -4.2178    2.4698    1.7640 H   0  0  0  0  0  0  0  0  0  0  0  0
    5.7245   -1.3590    2.0607 H   0  0  0  0  0  0  0  0  0  0  0  0
    4.5278   -0.1468    2.5187 H   0  0  0  0  0  0  0  0  0  0  0  0
    6.6880    0.8830    2.3740 H   0  0  0  0  0  0  0  0  0  0  0  0
    5.5840    1.5383    1.0579 H   0  0  0  0  0  0  0  0  0  0  0  0
    7.7640    1.6656   -0.9726 H   0  0  0  0  0  0  0  0  0  0  0  0
    7.9027    2.0980    0.8012 H   0  0  0  0  0  0  0  0  0  0  0  0
    9.9583    0.9099   -0.7657 H   0  0  0  0  0  0  0  0  0  0  0  0
    9.8648    0.9117    1.0485 H   0  0  0  0  0  0  0  0  0  0  0  0
    8.9310   -1.2768   -0.8987 H   0  0  0  0  0  0  0  0  0  0  0  0
    9.7193   -1.4510    0.7474 H   0  0  0  0  0  0  0  0  0  0  0  0
    7.7281   -0.9930    1.8710 H   0  0  0  0  0  0  0  0  0  0  0  0
    7.1006   -1.8585    0.4094 H   0  0  0  0  0  0  0  0  0  0  0  0
  1  2  1  0
  2  3  1  0
  3  4  1  0
  4  5  1  0
  5  6  2  0
  6  7  1  0
  7  8  2  0
  8  9  1  0
  9 10  2  0
  8 11  1  0
 11 12  1  0
 12 13  1  0
 13 14  2  0
 14 15  1  0
 15 16  2  0
 16 17  1  0
 16 18  1  0
 18 19  1  0
 18 20  2  0
 20 21  1  0
 21 22  1  0
 22 23  1  0
 23 24  2  0
 24 25  1  0
 25 26  2  0
 26 27  1  0
 26 28  1  0
 28 29  2  0
  2 30  1  0
 30 31  1  0
 31 32  1  0
 32 33  1  0
 33 34  1  0
 34 35  1  0
 35 36  1  0
 36 37  1  0
 10  5  1  0
 22 11  1  0
 29 23  1  0
 37 33  1  0
 20 13  1  0
  1 38  1  0
  1 39  1  0
  1 40  1  0
  2 41  1  1
  3 42  1  0
  3 43  1  0
  6 44  1  0
  7 45  1  0
  9 46  1  0
 10 47  1  0
 11 48  1  6
 14 49  1  0
 15 50  1  0
 17 51  1  0
 19 52  1  0
 22 53  1  1
 24 54  1  0
 25 55  1  0
 27 56  1  0
 28 57  1  0
 29 58  1  0
 31 59  1  0
 31 60  1  0
 32 61  1  0
 32 62  1  0
 34 63  1  0
 34 64  1  0
 35 65  1  0
 35 66  1  0
 36 67  1  0
 36 68  1  0
 37 69  1  0
 37 70  1  0
M  END
$$$$
[H]c1c([H])c(OC([H])([H])C([H])([H])N2C([H])([H])C([H])([H])C([H])([H])C2([H])[H])c([H])c([H])c1Oc1c([H])c([H])c(-c2nc3c(Cl)c([H])c([H])c([H])c3o2)c([H])c1[H]
     RDKit          3D

 54 58  0  0  0  0  0  0  0  0999 V2000
    9.3376   -0.9430    1.6250 Cl  0  0  0  0  0  0  0  0  0  0  0  0
    8.8770    0.2574    0.4372 C   0  0  0  0  0  0  0  0  0  0  0  0
    9.8010    1.2055    0.0703 C   0  0  0  0  0  0  0  0  0  0  0  0
    9.4032    2.1393   -0.8716 C   0  0  0  0  0  0  0  0  0  0  0  0
    8.1328    2.1071   -1.4091 C   0  0  0  0  0  0  0  0  0  0  0  0
    7.2117    1.1526   -1.0356 C   0  0  0  0  0  0  0  0  0  0  0  0
    5.9621    0.8842   -1.3703 O   0  0  0  0  0  0  0  0  0  0  0  0
    5.5180   -0.1580   -0.7134 C   0  0  0  0  0  0  0  0  0  0  0  0
    6.5212   -0.5762    0.0747 N   0  0  0  0  0  0  0  0  0  0  0  0
    7.6025    0.2082   -0.0882 C   0  0  0  0  0  0  0  0  0  0  0  0
    4.1658   -0.7553   -0.8240 C   0  0  0  0  0  0  0  0  0  0  0  0
    3.2330   -0.2095   -1.6848 C   0  0  0  0  0  0  0  0  0  0  0  0
    1.9592   -0.7833   -1.7805 C   0  0  0  0  0  0  0  0  0  0  0  0
    1.6268   -1.8838   -1.0272 C   0  0  0  0  0  0  0  0  0  0  0  0
    0.3799   -2.4721   -1.0991 O   0  0  0  0  0  0  0  0  0  0  0  0
   -0.5983   -1.9895   -0.2167 C   0  0  0  0  0  0  0  0  0  0  0  0
   -0.7659   -2.5382    1.0333 C   0  0  0  0  0  0  0  0  0  0  0  0
   -1.7283   -2.0514    1.8790 C   0  0  0  0  0  0  0  0  0  0  0  0
   -2.5887   -0.9888    1.5427 C   0  0  0  0  0  0  0  0  0  0  0  0
   -3.5033   -0.5906    2.4695 O   0  0  0  0  0  0  0  0  0  0  0  0
   -4.4557    0.3960    2.3118 C   0  0  0  0  0  0  0  0  0  0  0  0
   -5.4794    0.0311    1.2923 C   0  0  0  0  0  0  0  0  0  0  0  0
   -6.4806    1.0717    1.1073 N   0  0  0  0  0  0  0  0  0  0  0  0
   -7.4018    0.5578    0.0969 C   0  0  0  0  0  0  0  0  0  0  0  0
   -6.9007    1.1705   -1.1936 C   0  0  0  0  0  0  0  0  0  0  0  0
   -6.5725    2.5826   -0.7295 C   0  0  0  0  0  0  0  0  0  0  0  0
   -5.9541    2.3057    0.6206 C   0  0  0  0  0  0  0  0  0  0  0  0
   -2.4047   -0.4537    0.2911 C   0  0  0  0  0  0  0  0  0  0  0  0
   -1.4210   -0.9495   -0.5780 C   0  0  0  0  0  0  0  0  0  0  0  0
    2.5750   -2.4038   -0.1806 C   0  0  0  0  0  0  0  0  0  0  0  0
    3.8225   -1.8515   -0.0791 C   0  0  0  0  0  0  0  0  0  0  0  0
   10.8059    1.2738    0.4604 H   0  0  0  0  0  0  0  0  0  0  0  0
   10.1235    2.9021   -1.1770 H   0  0  0  0  0  0  0  0  0  0  0  0
    7.8637    2.8532   -2.1400 H   0  0  0  0  0  0  0  0  0  0  0  0
    3.4852    0.6472   -2.2740 H   0  0  0  0  0  0  0  0  0  0  0  0
    1.2250   -0.3646   -2.4492 H   0  0  0  0  0  0  0  0  0  0  0  0
   -0.1164   -3.3661    1.3318 H   0  0  0  0  0  0  0  0  0  0  0  0
   -1.8685   -2.4790    2.8699 H   0  0  0  0  0  0  0  0  0  0  0  0
   -4.9129    0.7107    3.2821 H   0  0  0  0  0  0  0  0  0  0  0  0
   -3.8933    1.3177    1.9508 H   0  0  0  0  0  0  0  0  0  0  0  0
   -5.0842   -0.2320    0.3140 H   0  0  0  0  0  0  0  0  0  0  0  0
   -6.0908   -0.8409    1.7181 H   0  0  0  0  0  0  0  0  0  0  0  0
   -7.3470   -0.5505    0.0190 H   0  0  0  0  0  0  0  0  0  0  0  0
   -8.4364    0.8858    0.2626 H   0  0  0  0  0  0  0  0  0  0  0  0
   -7.7161    1.1605   -1.9230 H   0  0  0  0  0  0  0  0  0  0  0  0
   -5.9958    0.6280   -1.4926 H   0  0  0  0  0  0  0  0  0  0  0  0
   -7.5006    3.1489   -0.5816 H   0  0  0  0  0  0  0  0  0  0  0  0
   -5.8513    3.0480   -1.4114 H   0  0  0  0  0  0  0  0  0  0  0  0
   -6.2394    3.1031    1.3638 H   0  0  0  0  0  0  0  0  0  0  0  0
   -4.8732    2.3591    0.5049 H   0  0  0  0  0  0  0  0  0  0  0  0
   -2.9983    0.3842   -0.0401 H   0  0  0  0  0  0  0  0  0  0  0  0
   -1.3114   -0.4931   -1.5650 H   0  0  0  0  0  0  0  0  0  0  0  0
    2.3127   -3.2767    0.4175 H   0  0  0  0  0  0  0  0  0  0  0  0
    4.5454   -2.2762    0.5892 H   0  0  0  0  0  0  0  0  0  0  0  0
  1  2  1  0
  2  3  2  0
  3  4  1  0
  4  5  2  0
  5  6  1  0
  6  7  1  0
  7  8  1  0
  8  9  2  0
  9 10  1  0
  8 11  1  0
 11 12  2  0
 12 13  1  0
 13 14  2  0
 14 15  1  0
 15 16  1  0
 16 17  2  0
 17 18  1  0
 18 19  2  0
 19 20  1  0
 20 21  1  0
 21 22  1  0
 22 23  1  0
 23 24  1  0
 24 25  1  0
 25 26  1  0
 26 27  1  0
 19 28  1  0
 28 29  2  0
 14 30  1  0
 30 31  2  0
 10  2  1  0
 31 11  1  0
 10  6  2  0
 29 16  1  0
 27 23  1  0
  3 32  1  0
  4 33  1  0
  5 34  1  0
 12 35  1  0
 13 36  1  0
 17 37  1  0
 18 38  1  0
 21 39  1  0
 21 40  1  0
 22 41  1  0
 22 42  1  0
 24 43  1  0
 24 44  1  0
 25 45  1  0
 25 46  1  0
 26 47  1  0
 26 48  1  0
 27 49  1  0
 27 50  1  0
 28 51  1  0
 29 52  1  0
 30 53  1  0
 31 54  1  0
M  END
$$$$
[H]OC(=O)C([H])([H])N1c2c([H])c([H])c3c(c2C([H])([H])C1([H])[H])C(C([H])([H])[H])(C([H])([H])[H])[C@]([H])(C(F)(F)F)[C@]([H])(c1c([H])c([H])c(O[H])c([H])c1[H])O3
     RDKit          3D

 52 55  0  0  0  0  0  0  0  0999 V2000
    0.3760   -1.9847   -0.1348 C   0  0  0  0  0  0  0  0  0  0  0  0
    0.1362   -0.7766   -1.0827 C   0  0  0  0  0  0  0  0  0  0  0  0
   -0.4301   -1.4462   -2.2706 C   0  0  0  0  0  0  0  0  0  0  0  0
    1.4187   -0.0334   -1.3873 C   0  0  1  0  0  0  0  0  0  0  0  0
    2.0370    0.6687   -0.2493 C   0  0  1  0  0  0  0  0  0  0  0  0
    1.2144    0.6065    0.9372 O   0  0  0  0  0  0  0  0  0  0  0  0
   -0.1442    0.7833    0.7617 C   0  0  0  0  0  0  0  0  0  0  0  0
   -0.8839    1.6105    1.6247 C   0  0  0  0  0  0  0  0  0  0  0  0
   -2.2198    1.7868    1.4455 C   0  0  0  0  0  0  0  0  0  0  0  0
   -2.8119    1.1243    0.3886 C   0  0  0  0  0  0  0  0  0  0  0  0
   -4.1912    1.1375    0.0072 N   0  0  0  0  0  0  0  0  0  0  0  0
   -5.2966    1.4496    0.8935 C   0  0  0  0  0  0  0  0  0  0  0  0
   -6.1395    0.2629    1.1485 C   0  0  0  0  0  0  0  0  0  0  0  0
   -5.8361   -0.9505    0.5728 O   0  0  0  0  0  0  0  0  0  0  0  0
   -7.1291    0.3716    1.8906 O   0  0  0  0  0  0  0  0  0  0  0  0
   -4.2130    0.7878   -1.3900 C   0  0  0  0  0  0  0  0  0  0  0  0
   -3.0269   -0.1922   -1.4518 C   0  0  0  0  0  0  0  0  0  0  0  0
   -2.0868    0.3005   -0.4741 C   0  0  0  0  0  0  0  0  0  0  0  0
   -0.7386    0.1120   -0.3029 C   0  0  0  0  0  0  0  0  0  0  0  0
    3.3834    0.3464    0.2176 C   0  0  0  0  0  0  0  0  0  0  0  0
    4.4870    1.1517   -0.1135 C   0  0  0  0  0  0  0  0  0  0  0  0
    5.7624    0.9164    0.2924 C   0  0  0  0  0  0  0  0  0  0  0  0
    6.0246   -0.1774    1.0829 C   0  0  0  0  0  0  0  0  0  0  0  0
    7.3444   -0.4063    1.4924 O   0  0  0  0  0  0  0  0  0  0  0  0
    5.0044   -1.0058    1.4462 C   0  0  0  0  0  0  0  0  0  0  0  0
    3.7198   -0.7308    1.0118 C   0  0  0  0  0  0  0  0  0  0  0  0
    2.3423   -0.7091   -2.3442 C   0  0  0  0  0  0  0  0  0  0  0  0
    1.7829   -0.9233   -3.6072 F   0  0  0  0  0  0  0  0  0  0  0  0
    2.9680   -1.8250   -1.8566 F   0  0  0  0  0  0  0  0  0  0  0  0
    3.3749    0.1607   -2.7219 F   0  0  0  0  0  0  0  0  0  0  0  0
    1.0245   -2.7369   -0.6144 H   0  0  0  0  0  0  0  0  0  0  0  0
   -0.6433   -2.4787   -0.1048 H   0  0  0  0  0  0  0  0  0  0  0  0
    0.5952   -1.7132    0.8779 H   0  0  0  0  0  0  0  0  0  0  0  0
   -0.5731   -0.8943   -3.1787 H   0  0  0  0  0  0  0  0  0  0  0  0
   -1.3319   -2.0658   -1.9738 H   0  0  0  0  0  0  0  0  0  0  0  0
    0.2569   -2.3235   -2.5159 H   0  0  0  0  0  0  0  0  0  0  0  0
    0.9960    0.8091   -2.0621 H   0  0  0  0  0  0  0  0  0  0  0  0
    2.0831    1.7914   -0.4637 H   0  0  0  0  0  0  0  0  0  0  0  0
   -0.3720    2.1076    2.4436 H   0  0  0  0  0  0  0  0  0  0  0  0
   -2.7760    2.4286    2.1214 H   0  0  0  0  0  0  0  0  0  0  0  0
   -5.9260    2.2746    0.4838 H   0  0  0  0  0  0  0  0  0  0  0  0
   -4.9427    1.8125    1.8803 H   0  0  0  0  0  0  0  0  0  0  0  0
   -6.3794   -1.3276   -0.1929 H   0  0  0  0  0  0  0  0  0  0  0  0
   -4.0191    1.6587   -2.0488 H   0  0  0  0  0  0  0  0  0  0  0  0
   -5.1252    0.2451   -1.6297 H   0  0  0  0  0  0  0  0  0  0  0  0
   -2.7095   -0.2060   -2.5104 H   0  0  0  0  0  0  0  0  0  0  0  0
   -3.4524   -1.1555   -1.1020 H   0  0  0  0  0  0  0  0  0  0  0  0
    4.3476    2.0476   -0.7408 H   0  0  0  0  0  0  0  0  0  0  0  0
    6.5924    1.5841    0.0022 H   0  0  0  0  0  0  0  0  0  0  0  0
    7.9447   -0.9877    0.8920 H   0  0  0  0  0  0  0  0  0  0  0  0
    5.2280   -1.8602    2.0682 H   0  0  0  0  0  0  0  0  0  0  0  0
    2.9536   -1.4262    1.3462 H   0  0  0  0  0  0  0  0  0  0  0  0
  1  2  1  0
  2  3  1  0
  2  4  1  0
  4  5  1  0
  5  6  1  0
  6  7  1  0
  7  8  2  0
  8  9  1  0
  9 10  2  0
 10 11  1  0
 11 12  1  0
 12 13  1  0
 13 14  1  0
 13 15  2  0
 11 16  1  0
 16 17  1  0
 17 18  1  0
 18 19  2  0
  5 20  1  0
 20 21  2  0
 21 22  1  0
 22 23  2  0
 23 24  1  0
 23 25  1  0
 25 26  2  0
  4 27  1  0
 27 28  1  0
 27 29  1  0
 27 30  1  0
 19  2  1  0
 26 20  1  0
 19  7  1  0
 18 10  1  0
  1 31  1  0
  1 32  1  0
  1 33  1  0
  3 34  1  0
  3 35  1  0
  3 36  1  0
  4 37  1  6
  5 38  1  6
  8 39  1  0
  9 40  1  0
 12 41  1  0
 12 42  1  0
 14 43  1  0
 16 44  1  0
 16 45  1  0
 17 46  1  0
 17 47  1  0
 21 48  1  0
 22 49  1  0
 24 50  1  0
 25 51  1  0
 26 52  1  0
M  END
$$$$
[H]Oc1c([H])c([H])c2c(c1[H])C(=O)N(C1([H])Sc3c([H])c(Cl)c(O[H])c([H])c3C(C([H])([H])[H])(C([H])([H])[H])OC1([H])[H])C2=S
     RDKit          3D

 43 46  0  0  0  0  0  0  0  0999 V2000
   -2.4364    1.3312   -1.8607 C   0  0  0  0  0  0  0  0  0  0  0  0
   -2.4651    1.4138   -0.3775 C   0  0  0  0  0  0  0  0  0  0  0  0
   -3.4683    2.4872    0.0371 C   0  0  0  0  0  0  0  0  0  0  0  0
   -1.2583    1.7205    0.2105 O   0  0  0  0  0  0  0  0  0  0  0  0
   -0.1412    1.3618   -0.4974 C   0  0  0  0  0  0  0  0  0  0  0  0
    0.3072   -0.0588   -0.2572 C   0  0  0  0  0  0  0  0  0  0  0  0
   -0.4854   -0.7801    1.2350 S   0  0  0  0  0  0  0  0  0  0  0  0
   -2.2356   -0.8187    0.8902 C   0  0  0  0  0  0  0  0  0  0  0  0
   -2.8289   -1.9542    1.3864 C   0  0  0  0  0  0  0  0  0  0  0  0
   -4.2016   -2.1698    1.2171 C   0  0  0  0  0  0  0  0  0  0  0  0
   -5.0024   -3.5876    1.8243 Cl  0  0  0  0  0  0  0  0  0  0  0  0
   -4.9295   -1.1933    0.5313 C   0  0  0  0  0  0  0  0  0  0  0  0
   -6.2957   -1.4040    0.3607 O   0  0  0  0  0  0  0  0  0  0  0  0
   -4.3297   -0.0571    0.0360 C   0  0  0  0  0  0  0  0  0  0  0  0
   -2.9764    0.1271    0.2184 C   0  0  0  0  0  0  0  0  0  0  0  0
    1.7318   -0.1941   -0.1903 N   0  0  0  0  0  0  0  0  0  0  0  0
    2.5046   -0.9849   -1.0827 C   0  0  0  0  0  0  0  0  0  0  0  0
    1.9605   -1.8872   -2.3432 S   0  0  0  0  0  0  0  0  0  0  0  0
    3.9062   -0.8875   -0.7182 C   0  0  0  0  0  0  0  0  0  0  0  0
    5.0368   -1.4550   -1.2607 C   0  0  0  0  0  0  0  0  0  0  0  0
    6.2534   -1.1773   -0.6944 C   0  0  0  0  0  0  0  0  0  0  0  0
    6.3263   -0.3425    0.3988 C   0  0  0  0  0  0  0  0  0  0  0  0
    7.5722   -0.0892    0.9386 O   0  0  0  0  0  0  0  0  0  0  0  0
    5.2015    0.2268    0.9446 C   0  0  0  0  0  0  0  0  0  0  0  0
    3.9522   -0.0460    0.3790 C   0  0  0  0  0  0  0  0  0  0  0  0
    2.6229    0.4179    0.7535 C   0  0  0  0  0  0  0  0  0  0  0  0
    2.3171    1.1894    1.7004 O   0  0  0  0  0  0  0  0  0  0  0  0
   -1.9079    0.4299   -2.2345 H   0  0  0  0  0  0  0  0  0  0  0  0
   -2.0329    2.2777   -2.2591 H   0  0  0  0  0  0  0  0  0  0  0  0
   -3.5006    1.2310   -2.2081 H   0  0  0  0  0  0  0  0  0  0  0  0
   -3.8675    2.2569    1.0604 H   0  0  0  0  0  0  0  0  0  0  0  0
   -2.9680    3.4791    0.1238 H   0  0  0  0  0  0  0  0  0  0  0  0
   -4.2927    2.5912   -0.6765 H   0  0  0  0  0  0  0  0  0  0  0  0
   -0.2494    1.5316   -1.6098 H   0  0  0  0  0  0  0  0  0  0  0  0
    0.6705    2.0947   -0.2085 H   0  0  0  0  0  0  0  0  0  0  0  0
   -0.0954   -0.6569   -1.1000 H   0  0  0  0  0  0  0  0  0  0  0  0
   -2.2620   -2.7204    1.9237 H   0  0  0  0  0  0  0  0  0  0  0  0
   -6.7536   -2.2121    0.7065 H   0  0  0  0  0  0  0  0  0  0  0  0
   -4.9209    0.6568   -0.4777 H   0  0  0  0  0  0  0  0  0  0  0  0
    4.9992   -2.1063   -2.1103 H   0  0  0  0  0  0  0  0  0  0  0  0
    7.1787   -1.6147   -1.1034 H   0  0  0  0  0  0  0  0  0  0  0  0
    8.1466    0.6893    0.6236 H   0  0  0  0  0  0  0  0  0  0  0  0
    5.2180    0.8838    1.7980 H   0  0  0  0  0  0  0  0  0  0  0  0
  1  2  1  0
  2  3  1  0
  2  4  1  0
  4  5  1  0
  5  6  1  0
  6  7  1  0
  7  8  1  0
  8  9  2  0
  9 10  1  0
 10 11  1  0
 10 12  2  0
 12 13  1  0
 12 14  1  0
 14 15  2  0
  6 16  1  0
 16 17  1  0
 17 18  2  0
 17 19  1  0
 19 20  2  0
 20 21  1  0
 21 22  2  0
 22 23  1  0
 22 24  1  0
 24 25  2  0
 25 26  1  0
 26 27  2  0
 15  2  1  0
 26 16  1  0
 15  8  1  0
 25 19  1  0
  1 28  1  0
  1 29  1  0
  1 30  1  0
  3 31  1  0
  3 32  1  0
  3 33  1  0
  5 34  1  0
  5 35  1  0
  6 36  1  0
  9 37  1  0
 13 38  1  0
 14 39  1  0
 20 40  1  0
 21 41  1  0
 23 42  1  0
 24 43  1  0
M  END
$$$$
[H]Oc1c([H])c([H])c(-n2c(C([H])([H])[H])nc3c([H])c([H])c(O[H])c([H])c3c2=O)c([H])c1C([H])([H])[H]
     RDKit          3D

 35 37  0  0  0  0  0  0  0  0999 V2000
   -0.4886    2.5681   -0.1311 C   0  0  0  0  0  0  0  0  0  0  0  0
    0.5257    1.4835   -0.1971 C   0  0  0  0  0  0  0  0  0  0  0  0
    1.7937    1.7474   -0.5690 N   0  0  0  0  0  0  0  0  0  0  0  0
    2.7555    0.8083   -0.6476 C   0  0  0  0  0  0  0  0  0  0  0  0
    4.0485    1.0996   -1.0308 C   0  0  0  0  0  0  0  0  0  0  0  0
    5.0347    0.1428   -1.1125 C   0  0  0  0  0  0  0  0  0  0  0  0
    4.6698   -1.1462   -0.7887 C   0  0  0  0  0  0  0  0  0  0  0  0
    5.6376   -2.1476   -0.8576 O   0  0  0  0  0  0  0  0  0  0  0  0
    3.4058   -1.4896   -0.4036 C   0  0  0  0  0  0  0  0  0  0  0  0
    2.4348   -0.4984   -0.3320 C   0  0  0  0  0  0  0  0  0  0  0  0
    1.1555   -0.7934    0.0484 C   0  0  0  0  0  0  0  0  0  0  0  0
    0.8674   -1.9950    0.3368 O   0  0  0  0  0  0  0  0  0  0  0  0
    0.2492    0.2004    0.1029 N   0  0  0  0  0  0  0  0  0  0  0  0
   -1.0645   -0.1019    0.4934 C   0  0  0  0  0  0  0  0  0  0  0  0
   -1.3246   -0.6717    1.7215 C   0  0  0  0  0  0  0  0  0  0  0  0
   -2.6194   -0.9634    2.0922 C   0  0  0  0  0  0  0  0  0  0  0  0
   -3.7011   -0.6975    1.2521 C   0  0  0  0  0  0  0  0  0  0  0  0
   -4.9724   -0.9994    1.6511 O   0  0  0  0  0  0  0  0  0  0  0  0
   -3.4452   -0.1247    0.0162 C   0  0  0  0  0  0  0  0  0  0  0  0
   -4.6037    0.1533   -0.8681 C   0  0  0  0  0  0  0  0  0  0  0  0
   -2.1397    0.1572   -0.3299 C   0  0  0  0  0  0  0  0  0  0  0  0
   -1.1948    2.4570    0.6949 H   0  0  0  0  0  0  0  0  0  0  0  0
    0.0957    3.5093    0.0908 H   0  0  0  0  0  0  0  0  0  0  0  0
   -0.9655    2.7700   -1.1091 H   0  0  0  0  0  0  0  0  0  0  0  0
    4.2875    2.1242   -1.2751 H   0  0  0  0  0  0  0  0  0  0  0  0
    6.0556    0.3314   -1.4076 H   0  0  0  0  0  0  0  0  0  0  0  0
    5.4595   -3.1058   -0.6408 H   0  0  0  0  0  0  0  0  0  0  0  0
    3.1040   -2.5013   -0.1455 H   0  0  0  0  0  0  0  0  0  0  0  0
   -0.5238   -0.9124    2.4425 H   0  0  0  0  0  0  0  0  0  0  0  0
   -2.7730   -1.4136    3.0740 H   0  0  0  0  0  0  0  0  0  0  0  0
   -5.1228   -1.4163    2.5584 H   0  0  0  0  0  0  0  0  0  0  0  0
   -4.3543    1.0813   -1.4597 H   0  0  0  0  0  0  0  0  0  0  0  0
   -4.7482   -0.6549   -1.6318 H   0  0  0  0  0  0  0  0  0  0  0  0
   -5.5187    0.3874   -0.3090 H   0  0  0  0  0  0  0  0  0  0  0  0
   -2.0201    0.6115   -1.3286 H   0  0  0  0  0  0  0  0  0  0  0  0
  1  2  1  0
  2  3  2  0
  3  4  1  0
  4  5  2  0
  5  6  1  0
  6  7  2  0
  7  8  1  0
  7  9  1  0
  9 10  2  0
 10 11  1  0
 11 12  2  0
 11 13  1  0
 13 14  1  0
 14 15  2  0
 15 16  1  0
 16 17  2  0
 17 18  1  0
 17 19  1  0
 19 20  1  0
 19 21  2  0
 13  2  1  0
 21 14  1  0
 10  4  1  0
  1 22  1  0
  1 23  1  0
  1 24  1  0
  5 25  1  0
  6 26  1  0
  8 27  1  0
  9 28  1  0
 15 29  1  0
 16 30  1  0
 18 31  1  0
 20 32  1  0
 20 33  1  0
 20 34  1  0
 21 35  1  0
M  END
$$$$
[H]Oc1c([H])c([H])c(C2=C(C([H])([H])C([H])([H])C([H])([H])C([H])([H])[H])C([H])(C([H])([H])[H])C([H])([H])C2=O)c([H])c1C#N
     RDKit          3D

 39 40  0  0  0  0  0  0  0  0999 V2000
   -3.9655   -2.4361    0.0839 C   0  0  0  0  0  0  0  0  0  0  0  0
   -2.7144   -2.0051   -0.6294 C   0  0  0  0  0  0  0  0  0  0  0  0
   -2.2346   -0.6420   -0.1363 C   0  0  0  0  0  0  0  0  0  0  0  0
   -0.9698   -0.3262   -0.9153 C   0  0  0  0  0  0  0  0  0  0  0  0
   -0.4439    0.9860   -0.4930 C   0  0  0  0  0  0  0  0  0  0  0  0
    0.7380    1.2120    0.0322 C   0  0  0  0  0  0  0  0  0  0  0  0
    0.8407    2.6625    0.3037 C   0  0  0  0  0  0  0  0  0  0  0  0
    1.5897    3.1795    1.1493 O   0  0  0  0  0  0  0  0  0  0  0  0
   -0.1271    3.3333   -0.6386 C   0  0  0  0  0  0  0  0  0  0  0  0
   -1.2234    2.2535   -0.6207 C   0  0  0  0  0  0  0  0  0  0  0  0
   -2.0665    2.5464    0.5966 C   0  0  0  0  0  0  0  0  0  0  0  0
    1.8424    0.2889    0.3131 C   0  0  0  0  0  0  0  0  0  0  0  0
    2.4613    0.3485    1.5651 C   0  0  0  0  0  0  0  0  0  0  0  0
    3.5054   -0.5046    1.8423 C   0  0  0  0  0  0  0  0  0  0  0  0
    3.9638   -1.4218    0.9190 C   0  0  0  0  0  0  0  0  0  0  0  0
    5.0243   -2.2850    1.2091 O   0  0  0  0  0  0  0  0  0  0  0  0
    3.3518   -1.4749   -0.3102 C   0  0  0  0  0  0  0  0  0  0  0  0
    3.8209   -2.4366   -1.3018 C   0  0  0  0  0  0  0  0  0  0  0  0
    4.1781   -3.2083   -2.0883 N   0  0  0  0  0  0  0  0  0  0  0  0
    2.3090   -0.6268   -0.5953 C   0  0  0  0  0  0  0  0  0  0  0  0
   -4.0018   -3.5575    0.1278 H   0  0  0  0  0  0  0  0  0  0  0  0
   -4.8424   -2.0397   -0.4267 H   0  0  0  0  0  0  0  0  0  0  0  0
   -3.9017   -2.0440    1.1398 H   0  0  0  0  0  0  0  0  0  0  0  0
   -1.9500   -2.7915   -0.5295 H   0  0  0  0  0  0  0  0  0  0  0  0
   -2.9842   -1.9357   -1.7249 H   0  0  0  0  0  0  0  0  0  0  0  0
   -3.0162    0.0821   -0.4139 H   0  0  0  0  0  0  0  0  0  0  0  0
   -2.0904   -0.6930    0.9460 H   0  0  0  0  0  0  0  0  0  0  0  0
   -1.2519   -0.3161   -1.9966 H   0  0  0  0  0  0  0  0  0  0  0  0
   -0.2816   -1.1767   -0.7438 H   0  0  0  0  0  0  0  0  0  0  0  0
   -0.4964    4.2837   -0.2623 H   0  0  0  0  0  0  0  0  0  0  0  0
    0.3844    3.3701   -1.6159 H   0  0  0  0  0  0  0  0  0  0  0  0
   -1.7768    2.3181   -1.5672 H   0  0  0  0  0  0  0  0  0  0  0  0
   -1.6388    3.3615    1.2384 H   0  0  0  0  0  0  0  0  0  0  0  0
   -2.2241    1.6902    1.2573 H   0  0  0  0  0  0  0  0  0  0  0  0
   -3.0359    2.9668    0.1960 H   0  0  0  0  0  0  0  0  0  0  0  0
    2.1039    1.0747    2.3076 H   0  0  0  0  0  0  0  0  0  0  0  0
    3.9582   -0.4390    2.8034 H   0  0  0  0  0  0  0  0  0  0  0  0
    5.3292   -2.9389    0.5193 H   0  0  0  0  0  0  0  0  0  0  0  0
    1.8362   -0.6585   -1.5657 H   0  0  0  0  0  0  0  0  0  0  0  0
  1  2  1  0
  2  3  1  0
  3  4  1  0
  4  5  1  0
  5  6  2  0
  6  7  1  0
  7  8  2  0
  7  9  1  0
  9 10  1  0
 10 11  1  0
  6 12  1  0
 12 13  2  0
 13 14  1  0
 14 15  2  0
 15 16  1  0
 15 17  1  0
 17 18  1  0
 18 19  3  0
 17 20  2  0
 10  5  1  0
 20 12  1  0
  1 21  1  0
  1 22  1  0
  1 23  1  0
  2 24  1  0
  2 25  1  0
  3 26  1  0
  3 27  1  0
  4 28  1  0
  4 29  1  0
  9 30  1  0
  9 31  1  0
 10 32  1  0
 11 33  1  0
 11 34  1  0
 11 35  1  0
 13 36  1  0
 14 37  1  0
 16 38  1  0
 20 39  1  0
M  END
$$$$
[H]c1c([H])c([H])c(C(c2c([H])c([H])c([H])c([H])c2[H])(c2c([H])c([H])c([H])c([H])c2[H])C([H])([H])Oc2c(-c3c([H])c([H])c(OC([H])([H])C([H])([H])N(C([H])([H])[H])C([H])([H])[H])c([H])c3[H])c([H])n3c([H])c(OC([H])([H])[H])c([H])c([H])c23)c([H])c1[H]
     RDKit          3D

 82 87  0  0  0  0  0  0  0  0999 V2000
   -1.1030    7.8686   -3.3082 C   0  0  0  0  0  0  0  0  0  0  0  0
   -2.0762    6.8567   -3.2510 O   0  0  0  0  0  0  0  0  0  0  0  0
   -1.8471    5.6752   -2.5901 C   0  0  0  0  0  0  0  0  0  0  0  0
   -2.8079    4.6788   -2.5346 C   0  0  0  0  0  0  0  0  0  0  0  0
   -2.5323    3.5013   -1.8554 C   0  0  0  0  0  0  0  0  0  0  0  0
   -1.3191    3.3044   -1.2344 C   0  0  0  0  0  0  0  0  0  0  0  0
   -0.7760    2.2648   -0.5015 C   0  0  0  0  0  0  0  0  0  0  0  0
   -1.4142    1.0826   -0.2232 O   0  0  0  0  0  0  0  0  0  0  0  0
   -1.2800   -0.0712   -1.0274 C   0  0  0  0  0  0  0  0  0  0  0  0
   -2.1040   -1.2111   -0.5264 C   0  0  0  0  0  0  0  0  0  0  0  0
   -3.5535   -0.9540   -0.5194 C   0  0  0  0  0  0  0  0  0  0  0  0
   -4.3513   -1.4964    0.4581 C   0  0  0  0  0  0  0  0  0  0  0  0
   -5.7297   -1.2843    0.4970 C   0  0  0  0  0  0  0  0  0  0  0  0
   -6.3497   -0.5126   -0.4569 C   0  0  0  0  0  0  0  0  0  0  0  0
   -5.5410    0.0266   -1.4334 C   0  0  0  0  0  0  0  0  0  0  0  0
   -4.1836   -0.1815   -1.4725 C   0  0  0  0  0  0  0  0  0  0  0  0
   -1.8727   -2.4481   -1.3371 C   0  0  0  0  0  0  0  0  0  0  0  0
   -2.5088   -3.6252   -1.0500 C   0  0  0  0  0  0  0  0  0  0  0  0
   -2.2610   -4.7586   -1.8395 C   0  0  0  0  0  0  0  0  0  0  0  0
   -1.3946   -4.7356   -2.9028 C   0  0  0  0  0  0  0  0  0  0  0  0
   -0.7680   -3.5379   -3.1690 C   0  0  0  0  0  0  0  0  0  0  0  0
   -0.9852   -2.4183   -2.4232 C   0  0  0  0  0  0  0  0  0  0  0  0
   -1.6883   -1.3975    0.9072 C   0  0  0  0  0  0  0  0  0  0  0  0
   -0.8576   -2.4462    1.2295 C   0  0  0  0  0  0  0  0  0  0  0  0
   -0.5079   -2.5948    2.5610 C   0  0  0  0  0  0  0  0  0  0  0  0
   -0.9580   -1.7424    3.5436 C   0  0  0  0  0  0  0  0  0  0  0  0
   -1.7896   -0.6923    3.2179 C   0  0  0  0  0  0  0  0  0  0  0  0
   -2.1427   -0.5367    1.8957 C   0  0  0  0  0  0  0  0  0  0  0  0
    0.4729    2.6686   -0.1475 C   0  0  0  0  0  0  0  0  0  0  0  0
    0.6955    3.9650   -0.6683 C   0  0  0  0  0  0  0  0  0  0  0  0
   -0.4263    4.3113   -1.3242 N   0  0  0  0  0  0  0  0  0  0  0  0
   -0.6465    5.4713   -1.9708 C   0  0  0  0  0  0  0  0  0  0  0  0
    1.4497    1.9346    0.6390 C   0  0  0  0  0  0  0  0  0  0  0  0
    1.1918    1.3824    1.8644 C   0  0  0  0  0  0  0  0  0  0  0  0
    2.1450    0.6867    2.5730 C   0  0  0  0  0  0  0  0  0  0  0  0
    3.4455    0.5026    2.0757 C   0  0  0  0  0  0  0  0  0  0  0  0
    4.3047   -0.1951    2.8522 O   0  0  0  0  0  0  0  0  0  0  0  0
    5.6045   -0.5901    2.7247 C   0  0  0  0  0  0  0  0  0  0  0  0
    5.9020   -1.5158    1.5968 C   0  0  0  0  0  0  0  0  0  0  0  0
    5.1537   -2.7639    1.6886 N   0  0  0  0  0  0  0  0  0  0  0  0
    5.5404   -3.5615    0.5335 C   0  0  0  0  0  0  0  0  0  0  0  0
    5.5077   -3.5139    2.8716 C   0  0  0  0  0  0  0  0  0  0  0  0
    3.6993    1.0589    0.8469 C   0  0  0  0  0  0  0  0  0  0  0  0
    2.7320    1.7551    0.1461 C   0  0  0  0  0  0  0  0  0  0  0  0
   -0.8749    8.3212   -2.3342 H   0  0  0  0  0  0  0  0  0  0  0  0
   -1.3922    8.6595   -4.0338 H   0  0  0  0  0  0  0  0  0  0  0  0
   -0.1568    7.4172   -3.7056 H   0  0  0  0  0  0  0  0  0  0  0  0
   -3.7549    4.8117   -3.0095 H   0  0  0  0  0  0  0  0  0  0  0  0
   -3.2427    2.7130   -1.7858 H   0  0  0  0  0  0  0  0  0  0  0  0
   -0.2150   -0.3688   -0.9535 H   0  0  0  0  0  0  0  0  0  0  0  0
   -1.4561    0.1686   -2.0990 H   0  0  0  0  0  0  0  0  0  0  0  0
   -3.9953   -2.1337    1.2672 H   0  0  0  0  0  0  0  0  0  0  0  0
   -6.3324   -1.7280    1.2841 H   0  0  0  0  0  0  0  0  0  0  0  0
   -7.4128   -0.3319   -0.4509 H   0  0  0  0  0  0  0  0  0  0  0  0
   -6.0339    0.6369   -2.1872 H   0  0  0  0  0  0  0  0  0  0  0  0
   -3.6078    0.2550   -2.2434 H   0  0  0  0  0  0  0  0  0  0  0  0
   -3.1946   -3.7194   -0.2296 H   0  0  0  0  0  0  0  0  0  0  0  0
   -2.7720   -5.6928   -1.6044 H   0  0  0  0  0  0  0  0  0  0  0  0
   -1.2312   -5.6295   -3.4861 H   0  0  0  0  0  0  0  0  0  0  0  0
   -0.0795   -3.4789   -3.9971 H   0  0  0  0  0  0  0  0  0  0  0  0
   -0.4922   -1.4661   -2.6215 H   0  0  0  0  0  0  0  0  0  0  0  0
   -0.4524   -3.1616    0.5000 H   0  0  0  0  0  0  0  0  0  0  0  0
    0.1435   -3.4179    2.8148 H   0  0  0  0  0  0  0  0  0  0  0  0
   -0.6957   -1.8431    4.5859 H   0  0  0  0  0  0  0  0  0  0  0  0
   -2.1661    0.0023    3.9648 H   0  0  0  0  0  0  0  0  0  0  0  0
   -2.8059    0.3099    1.6534 H   0  0  0  0  0  0  0  0  0  0  0  0
    1.6093    4.5271   -0.5365 H   0  0  0  0  0  0  0  0  0  0  0  0
    0.1039    6.2450   -2.0120 H   0  0  0  0  0  0  0  0  0  0  0  0
    0.1951    1.5224    2.2597 H   0  0  0  0  0  0  0  0  0  0  0  0
    1.9219    0.2581    3.5394 H   0  0  0  0  0  0  0  0  0  0  0  0
    6.3501    0.2475    2.7272 H   0  0  0  0  0  0  0  0  0  0  0  0
    5.8724   -1.1653    3.6679 H   0  0  0  0  0  0  0  0  0  0  0  0
    5.7175   -1.1056    0.6099 H   0  0  0  0  0  0  0  0  0  0  0  0
    6.9925   -1.8183    1.6024 H   0  0  0  0  0  0  0  0  0  0  0  0
    5.1020   -3.1850   -0.4015 H   0  0  0  0  0  0  0  0  0  0  0  0
    6.6426   -3.4581    0.4347 H   0  0  0  0  0  0  0  0  0  0  0  0
    5.2336   -4.6248    0.6493 H   0  0  0  0  0  0  0  0  0  0  0  0
    6.4977   -3.1757    3.2359 H   0  0  0  0  0  0  0  0  0  0  0  0
    4.7809   -3.3598    3.7008 H   0  0  0  0  0  0  0  0  0  0  0  0
    5.4887   -4.5781    2.6265 H   0  0  0  0  0  0  0  0  0  0  0  0
    4.6912    0.9489    0.4370 H   0  0  0  0  0  0  0  0  0  0  0  0
    2.9528    2.1874   -0.8249 H   0  0  0  0  0  0  0  0  0  0  0  0
  1  2  1  0
  2  3  1  0
  3  4  1  0
  4  5  2  0
  5  6  1  0
  6  7  2  0
  7  8  1  0
  8  9  1  0
  9 10  1  0
 10 11  1  0
 11 12  2  0
 12 13  1  0
 13 14  2  0
 14 15  1  0
 15 16  2  0
 10 17  1  0
 17 18  2  0
 18 19  1  0
 19 20  2  0
 20 21  1  0
 21 22  2  0
 10 23  1  0
 23 24  2  0
 24 25  1  0
 25 26  2  0
 26 27  1  0
 27 28  2  0
  7 29  1  0
 29 30  2  0
 30 31  1  0
 31 32  1  0
 29 33  1  0
 33 34  2  0
 34 35  1  0
 35 36  2  0
 36 37  1  0
 37 38  1  0
 38 39  1  0
 39 40  1  0
 40 41  1  0
 40 42  1  0
 36 43  1  0
 43 44  2  0
 32  3  2  0
 44 33  1  0
 31  6  1  0
 16 11  1  0
 22 17  1  0
 28 23  1  0
  1 45  1  0
  1 46  1  0
  1 47  1  0
  4 48  1  0
  5 49  1  0
  9 50  1  0
  9 51  1  0
 12 52  1  0
 13 53  1  0
 14 54  1  0
 15 55  1  0
 16 56  1  0
 18 57  1  0
 19 58  1  0
 20 59  1  0
 21 60  1  0
 22 61  1  0
 24 62  1  0
 25 63  1  0
 26 64  1  0
 27 65  1  0
 28 66  1  0
 30 67  1  0
 32 68  1  0
 34 69  1  0
 35 70  1  0
 38 71  1  0
 38 72  1  0
 39 73  1  0
 39 74  1  0
 41 75  1  0
 41 76  1  0
 41 77  1  0
 42 78  1  0
 42 79  1  0
 42 80  1  0
 43 81  1  0
 44 82  1  0
M  END
$$$$
[H]Oc1c([H])c([H])c([C@@]2([H])C(=O)C([H])([H])C(C([H])([H])[H])=C2c2c([H])c([H])c(O[H])c(Cl)c2[H])c([H])c1[H]
     RDKit          3D

 37 39  0  0  0  0  0  0  0  0999 V2000
   -1.5863    2.9791   -0.2693 C   0  0  0  0  0  0  0  0  0  0  0  0
   -0.5222    2.1686    0.3982 C   0  0  0  0  0  0  0  0  0  0  0  0
   -0.5078    0.8743    0.6384 C   0  0  0  0  0  0  0  0  0  0  0  0
    0.7460    0.4762    1.3289 C   0  0  2  0  0  0  0  0  0  0  0  0
    1.3232    1.7762    1.7479 C   0  0  0  0  0  0  0  0  0  0  0  0
    2.1218    1.9468    2.6282 O   0  0  0  0  0  0  0  0  0  0  0  0
    0.7290    2.7945    0.8809 C   0  0  0  0  0  0  0  0  0  0  0  0
    1.7112   -0.1585    0.4083 C   0  0  0  0  0  0  0  0  0  0  0  0
    1.8552    0.2123   -0.9149 C   0  0  0  0  0  0  0  0  0  0  0  0
    2.8025   -0.4415   -1.6821 C   0  0  0  0  0  0  0  0  0  0  0  0
    3.5950   -1.4450   -1.1522 C   0  0  0  0  0  0  0  0  0  0  0  0
    4.5530   -2.1014   -1.9388 O   0  0  0  0  0  0  0  0  0  0  0  0
    3.4467   -1.8084    0.1631 C   0  0  0  0  0  0  0  0  0  0  0  0
    2.5082   -1.1614    0.9240 C   0  0  0  0  0  0  0  0  0  0  0  0
   -1.5539   -0.0830    0.2696 C   0  0  0  0  0  0  0  0  0  0  0  0
   -2.1956   -0.0386   -0.9525 C   0  0  0  0  0  0  0  0  0  0  0  0
   -3.1821   -0.9460   -1.2759 C   0  0  0  0  0  0  0  0  0  0  0  0
   -3.5734   -1.9274   -0.4139 C   0  0  0  0  0  0  0  0  0  0  0  0
   -4.5490   -2.8560   -0.6856 O   0  0  0  0  0  0  0  0  0  0  0  0
   -2.9472   -1.9912    0.8115 C   0  0  0  0  0  0  0  0  0  0  0  0
   -3.3772   -3.2132    1.9948 Cl  0  0  0  0  0  0  0  0  0  0  0  0
   -1.9722   -1.0922    1.1283 C   0  0  0  0  0  0  0  0  0  0  0  0
   -1.6193    4.0119    0.1771 H   0  0  0  0  0  0  0  0  0  0  0  0
   -2.5976    2.5637   -0.0997 H   0  0  0  0  0  0  0  0  0  0  0  0
   -1.3518    3.1396   -1.3398 H   0  0  0  0  0  0  0  0  0  0  0  0
    0.5813   -0.1980    2.1964 H   0  0  0  0  0  0  0  0  0  0  0  0
    0.5362    3.7592    1.4054 H   0  0  0  0  0  0  0  0  0  0  0  0
    1.4065    3.0045    0.0001 H   0  0  0  0  0  0  0  0  0  0  0  0
    1.2163    0.9967   -1.2855 H   0  0  0  0  0  0  0  0  0  0  0  0
    2.9270   -0.1568   -2.7336 H   0  0  0  0  0  0  0  0  0  0  0  0
    5.1177   -2.8191   -1.5508 H   0  0  0  0  0  0  0  0  0  0  0  0
    4.0630   -2.5940    0.5896 H   0  0  0  0  0  0  0  0  0  0  0  0
    2.4161   -1.4767    1.9765 H   0  0  0  0  0  0  0  0  0  0  0  0
   -1.8947    0.7429   -1.6688 H   0  0  0  0  0  0  0  0  0  0  0  0
   -3.6662   -0.8878   -2.2415 H   0  0  0  0  0  0  0  0  0  0  0  0
   -5.0709   -2.8926   -1.5653 H   0  0  0  0  0  0  0  0  0  0  0  0
   -1.4883   -1.1577    2.1029 H   0  0  0  0  0  0  0  0  0  0  0  0
  1  2  1  0
  2  3  2  0
  3  4  1  0
  4  5  1  0
  5  6  2  0
  5  7  1  0
  4  8  1  0
  8  9  2  0
  9 10  1  0
 10 11  2  0
 11 12  1  0
 11 13  1  0
 13 14  2  0
  3 15  1  0
 15 16  2  0
 16 17  1  0
 17 18  2  0
 18 19  1  0
 18 20  1  0
 20 21  1  0
 20 22  2  0
  7  2  1  0
 14  8  1  0
 22 15  1  0
  1 23  1  0
  1 24  1  0
  1 25  1  0
  4 26  1  1
  7 27  1  0
  7 28  1  0
  9 29  1  0
 10 30  1  0
 12 31  1  0
 13 32  1  0
 14 33  1  0
 16 34  1  0
 17 35  1  0
 19 36  1  0
 22 37  1  0
M  END
$$$$
[H]Oc1c([H])c([H])c2c(c1[H])C1([H])C([H])(C([H])=C3C([H])([H])C([H])([H])C1([H])C3([H])[H])C([H])(C([H])([H])C([H])([H])C([H])([H])C([H])([H])C([H])([H])C([H])([H])C([H])([H])C([H])([H])[H])O2
     RDKit          3D

 57 60  0  0  0  0  0  0  0  0999 V2000
    7.5817   -0.0599   -0.1567 C   0  0  0  0  0  0  0  0  0  0  0  0
    6.3651   -0.7934   -0.6431 C   0  0  0  0  0  0  0  0  0  0  0  0
    5.1822    0.1323   -0.8321 C   0  0  0  0  0  0  0  0  0  0  0  0
    3.9688   -0.6179   -1.3204 C   0  0  0  0  0  0  0  0  0  0  0  0
    2.7798    0.2670   -1.5182 C   0  0  0  0  0  0  0  0  0  0  0  0
    2.3404    0.9713   -0.2627 C   0  0  0  0  0  0  0  0  0  0  0  0
    1.9698    0.0091    0.8064 C   0  0  0  0  0  0  0  0  0  0  0  0
    0.8569   -0.9226    0.4160 C   0  0  0  0  0  0  0  0  0  0  0  0
   -0.3702   -0.1213    0.0984 C   0  0  0  0  0  0  0  0  0  0  0  0
   -0.6880    0.6038    1.2713 O   0  0  0  0  0  0  0  0  0  0  0  0
   -1.8061    1.4250    1.2434 C   0  0  0  0  0  0  0  0  0  0  0  0
   -1.8946    2.5574    2.0472 C   0  0  0  0  0  0  0  0  0  0  0  0
   -3.0156    3.3532    1.9969 C   0  0  0  0  0  0  0  0  0  0  0  0
   -4.0178    3.0026    1.1500 C   0  0  0  0  0  0  0  0  0  0  0  0
   -5.1531    3.8090    1.0993 O   0  0  0  0  0  0  0  0  0  0  0  0
   -3.9245    1.8806    0.3571 C   0  0  0  0  0  0  0  0  0  0  0  0
   -2.8036    1.0455    0.3778 C   0  0  0  0  0  0  0  0  0  0  0  0
   -2.8021   -0.1012   -0.4974 C   0  0  0  0  0  0  0  0  0  0  0  0
   -4.0859   -0.8349   -0.4829 C   0  0  0  0  0  0  0  0  0  0  0  0
   -4.9340   -0.9781    0.7819 C   0  0  0  0  0  0  0  0  0  0  0  0
   -4.4377   -2.4655    1.3587 C   0  0  0  0  0  0  0  0  0  0  0  0
   -3.1347   -2.0774    1.0111 C   0  0  0  0  0  0  0  0  0  0  0  0
   -3.5935   -2.2792   -0.6219 C   0  0  0  0  0  0  0  0  0  0  0  0
   -1.8965   -1.8292    0.8879 C   0  0  0  0  0  0  0  0  0  0  0  0
   -1.5253   -0.9777   -0.3663 C   0  0  0  0  0  0  0  0  0  0  0  0
    7.4800    0.1841    0.9381 H   0  0  0  0  0  0  0  0  0  0  0  0
    8.5199   -0.5671   -0.3802 H   0  0  0  0  0  0  0  0  0  0  0  0
    7.5693    0.9450   -0.6597 H   0  0  0  0  0  0  0  0  0  0  0  0
    6.1261   -1.6022    0.0985 H   0  0  0  0  0  0  0  0  0  0  0  0
    6.5985   -1.2223   -1.6371 H   0  0  0  0  0  0  0  0  0  0  0  0
    5.4802    0.8725   -1.5985 H   0  0  0  0  0  0  0  0  0  0  0  0
    4.9998    0.6214    0.1545 H   0  0  0  0  0  0  0  0  0  0  0  0
    4.2415   -1.0169   -2.3359 H   0  0  0  0  0  0  0  0  0  0  0  0
    3.7501   -1.5144   -0.7086 H   0  0  0  0  0  0  0  0  0  0  0  0
    2.9735    1.0124   -2.3228 H   0  0  0  0  0  0  0  0  0  0  0  0
    1.9354   -0.3552   -1.8748 H   0  0  0  0  0  0  0  0  0  0  0  0
    3.1520    1.6409    0.1331 H   0  0  0  0  0  0  0  0  0  0  0  0
    1.5139    1.6461   -0.5062 H   0  0  0  0  0  0  0  0  0  0  0  0
    1.6994    0.5921    1.7406 H   0  0  0  0  0  0  0  0  0  0  0  0
    2.8789   -0.5708    1.1580 H   0  0  0  0  0  0  0  0  0  0  0  0
    0.6950   -1.5597    1.3423 H   0  0  0  0  0  0  0  0  0  0  0  0
    1.1807   -1.5646   -0.4318 H   0  0  0  0  0  0  0  0  0  0  0  0
   -0.1236    0.6089   -0.6882 H   0  0  0  0  0  0  0  0  0  0  0  0
   -1.0812    2.8057    2.7071 H   0  0  0  0  0  0  0  0  0  0  0  0
   -3.1110    4.2401    2.6112 H   0  0  0  0  0  0  0  0  0  0  0  0
   -5.2166    4.5915    0.4484 H   0  0  0  0  0  0  0  0  0  0  0  0
   -4.7608    1.6639   -0.2923 H   0  0  0  0  0  0  0  0  0  0  0  0
   -2.6895    0.3088   -1.5481 H   0  0  0  0  0  0  0  0  0  0  0  0
   -4.7145   -0.5483   -1.3478 H   0  0  0  0  0  0  0  0  0  0  0  0
   -5.9837   -1.1107    0.5998 H   0  0  0  0  0  0  0  0  0  0  0  0
   -4.6783   -0.3172    1.5890 H   0  0  0  0  0  0  0  0  0  0  0  0
   -4.7298   -2.3950    2.4385 H   0  0  0  0  0  0  0  0  0  0  0  0
   -5.0487   -3.1507    0.8183 H   0  0  0  0  0  0  0  0  0  0  0  0
   -4.3740   -3.0228   -0.5761 H   0  0  0  0  0  0  0  0  0  0  0  0
   -2.7647   -2.4487   -1.1855 H   0  0  0  0  0  0  0  0  0  0  0  0
   -1.2182   -2.1675    1.6171 H   0  0  0  0  0  0  0  0  0  0  0  0
   -1.2610   -1.5973   -1.1325 H   0  0  0  0  0  0  0  0  0  0  0  0
  1  2  1  0
  2  3  1  0
  3  4  1  0
  4  5  1  0
  5  6  1  0
  6  7  1  0
  7  8  1  0
  8  9  1  0
  9 10  1  0
 10 11  1  0
 11 12  2  0
 12 13  1  0
 13 14  2  0
 14 15  1  0
 14 16  1  0
 16 17  2  0
 17 18  1  0
 18 19  1  0
 19 20  1  0
 20 21  1  0
 21 22  1  0
 22 23  1  0
 22 24  2  0
 24 25  1  0
 25  9  1  0
 17 11  1  0
 25 18  1  0
 23 19  1  0
  1 26  1  0
  1 27  1  0
  1 28  1  0
  2 29  1  0
  2 30  1  0
  3 31  1  0
  3 32  1  0
  4 33  1  0
  4 34  1  0
  5 35  1  0
  5 36  1  0
  6 37  1  0
  6 38  1  0
  7 39  1  0
  7 40  1  0
  8 41  1  0
  8 42  1  0
  9 43  1  0
 12 44  1  0
 13 45  1  0
 15 46  1  0
 16 47  1  0
 18 48  1  0
 19 49  1  0
 20 50  1  0
 20 51  1  0
 21 52  1  0
 21 53  1  0
 23 54  1  0
 23 55  1  0
 24 56  1  0
 25 57  1  0
M  END
$$$$
[H]Oc1c([H])c([H])c(-c2nc([C@@]([H])(C([H])([H])C([H])([H])[H])C([H])([H])C([H])([H])C([H])([H])C([H])([H])C([H])([H])C([H])([H])C([H])(C([H])([H])[H])C([H])([H])[H])c([H])c3c([H])c(O[H])c([H])c([H])c23)c([H])c1F
     RDKit          3D

 65 67  0  0  0  0  0  0  0  0999 V2000
   -0.6190    1.3444    2.4276 C   0  0  0  0  0  0  0  0  0  0  0  0
   -0.0314    2.0641    1.2572 C   0  0  0  0  0  0  0  0  0  0  0  0
   -0.0811    1.2911   -0.0192 C   0  0  1  0  0  0  0  0  0  0  0  0
    0.6613   -0.0180    0.0410 C   0  0  0  0  0  0  0  0  0  0  0  0
    2.1212    0.1526    0.3500 C   0  0  0  0  0  0  0  0  0  0  0  0
    2.8539    0.9772   -0.6522 C   0  0  0  0  0  0  0  0  0  0  0  0
    4.3125    1.1116   -0.2810 C   0  0  0  0  0  0  0  0  0  0  0  0
    5.0305   -0.1999   -0.2007 C   0  0  0  0  0  0  0  0  0  0  0  0
    6.4736    0.0618    0.1729 C   0  0  0  0  0  0  0  0  0  0  0  0
    7.1908   -1.2566    0.2523 C   0  0  0  0  0  0  0  0  0  0  0  0
    7.0970   -1.9140   -1.1100 C   0  0  0  0  0  0  0  0  0  0  0  0
    6.5525   -2.1024    1.3194 C   0  0  0  0  0  0  0  0  0  0  0  0
   -1.4850    1.0284   -0.4381 C   0  0  0  0  0  0  0  0  0  0  0  0
   -1.9728    1.5151   -1.6243 C   0  0  0  0  0  0  0  0  0  0  0  0
   -3.2641    1.3185   -2.0885 C   0  0  0  0  0  0  0  0  0  0  0  0
   -3.6777    1.8538   -3.2791 C   0  0  0  0  0  0  0  0  0  0  0  0
   -4.9724    1.6468   -3.6857 C   0  0  0  0  0  0  0  0  0  0  0  0
   -5.3776    2.1987   -4.9019 O   0  0  0  0  0  0  0  0  0  0  0  0
   -5.8208    0.9100   -2.8905 C   0  0  0  0  0  0  0  0  0  0  0  0
   -5.4003    0.3603   -1.6712 C   0  0  0  0  0  0  0  0  0  0  0  0
   -4.1120    0.5631   -1.2656 C   0  0  0  0  0  0  0  0  0  0  0  0
   -3.6410    0.0658   -0.0756 C   0  0  0  0  0  0  0  0  0  0  0  0
   -2.3389    0.3163    0.3012 N   0  0  0  0  0  0  0  0  0  0  0  0
   -4.4865   -0.7134    0.8042 C   0  0  0  0  0  0  0  0  0  0  0  0
   -5.1759   -1.8562    0.4834 C   0  0  0  0  0  0  0  0  0  0  0  0
   -5.9722   -2.5578    1.3393 C   0  0  0  0  0  0  0  0  0  0  0  0
   -6.1280   -2.1270    2.6354 C   0  0  0  0  0  0  0  0  0  0  0  0
   -6.9319   -2.8200    3.5299 O   0  0  0  0  0  0  0  0  0  0  0  0
   -5.4612   -0.9856    3.0191 C   0  0  0  0  0  0  0  0  0  0  0  0
   -5.6354   -0.5852    4.3072 F   0  0  0  0  0  0  0  0  0  0  0  0
   -4.6630   -0.2951    2.1348 C   0  0  0  0  0  0  0  0  0  0  0  0
    0.0446    1.5594    3.3100 H   0  0  0  0  0  0  0  0  0  0  0  0
   -0.6472    0.2423    2.2932 H   0  0  0  0  0  0  0  0  0  0  0  0
   -1.6265    1.7249    2.7197 H   0  0  0  0  0  0  0  0  0  0  0  0
    1.0197    2.3812    1.4207 H   0  0  0  0  0  0  0  0  0  0  0  0
   -0.6133    2.9969    1.1076 H   0  0  0  0  0  0  0  0  0  0  0  0
    0.3971    1.9002   -0.8115 H   0  0  0  0  0  0  0  0  0  0  0  0
    0.2427   -0.7427    0.7381 H   0  0  0  0  0  0  0  0  0  0  0  0
    0.5974   -0.4660   -0.9842 H   0  0  0  0  0  0  0  0  0  0  0  0
    2.3350    0.5179    1.3524 H   0  0  0  0  0  0  0  0  0  0  0  0
    2.5571   -0.8896    0.2955 H   0  0  0  0  0  0  0  0  0  0  0  0
    2.8448    0.4949   -1.6730 H   0  0  0  0  0  0  0  0  0  0  0  0
    2.4568    1.9860   -0.7948 H   0  0  0  0  0  0  0  0  0  0  0  0
    4.8304    1.8099   -0.9839 H   0  0  0  0  0  0  0  0  0  0  0  0
    4.3393    1.6451    0.7088 H   0  0  0  0  0  0  0  0  0  0  0  0
    4.9626   -0.6889   -1.1939 H   0  0  0  0  0  0  0  0  0  0  0  0
    4.5617   -0.8116    0.6076 H   0  0  0  0  0  0  0  0  0  0  0  0
    6.4762    0.5955    1.1552 H   0  0  0  0  0  0  0  0  0  0  0  0
    6.9761    0.7297   -0.5396 H   0  0  0  0  0  0  0  0  0  0  0  0
    8.2807   -1.0835    0.4713 H   0  0  0  0  0  0  0  0  0  0  0  0
    7.9456   -2.6194   -1.2202 H   0  0  0  0  0  0  0  0  0  0  0  0
    7.1759   -1.0811   -1.8652 H   0  0  0  0  0  0  0  0  0  0  0  0
    6.1247   -2.4406   -1.1984 H   0  0  0  0  0  0  0  0  0  0  0  0
    5.9148   -1.5005    1.9972 H   0  0  0  0  0  0  0  0  0  0  0  0
    7.3494   -2.5563    1.9585 H   0  0  0  0  0  0  0  0  0  0  0  0
    5.9841   -2.9536    0.8622 H   0  0  0  0  0  0  0  0  0  0  0  0
   -1.3165    2.0972   -2.2575 H   0  0  0  0  0  0  0  0  0  0  0  0
   -2.9559    2.4216   -3.8506 H   0  0  0  0  0  0  0  0  0  0  0  0
   -5.2393    1.5890   -5.7186 H   0  0  0  0  0  0  0  0  0  0  0  0
   -6.8349    0.7446   -3.2015 H   0  0  0  0  0  0  0  0  0  0  0  0
   -6.0943   -0.1877   -1.0688 H   0  0  0  0  0  0  0  0  0  0  0  0
   -5.0764   -2.2409   -0.5291 H   0  0  0  0  0  0  0  0  0  0  0  0
   -6.4834   -3.4643    0.9830 H   0  0  0  0  0  0  0  0  0  0  0  0
   -7.4301   -3.6579    3.2730 H   0  0  0  0  0  0  0  0  0  0  0  0
   -4.1436    0.6001    2.4457 H   0  0  0  0  0  0  0  0  0  0  0  0
  1  2  1  0
  2  3  1  0
  3  4  1  0
  4  5  1  0
  5  6  1  0
  6  7  1  0
  7  8  1  0
  8  9  1  0
  9 10  1  0
 10 11  1  0
 10 12  1  0
  3 13  1  0
 13 14  2  0
 14 15  1  0
 15 16  2  0
 16 17  1  0
 17 18  1  0
 17 19  2  0
 19 20  1  0
 20 21  2  0
 21 22  1  0
 22 23  2  0
 22 24  1  0
 24 25  2  0
 25 26  1  0
 26 27  2  0
 27 28  1  0
 27 29  1  0
 29 30  1  0
 29 31  2  0
 23 13  1  0
 31 24  1  0
 21 15  1  0
  1 32  1  0
  1 33  1  0
  1 34  1  0
  2 35  1  0
  2 36  1  0
  3 37  1  6
  4 38  1  0
  4 39  1  0
  5 40  1  0
  5 41  1  0
  6 42  1  0
  6 43  1  0
  7 44  1  0
  7 45  1  0
  8 46  1  0
  8 47  1  0
  9 48  1  0
  9 49  1  0
 10 50  1  0
 11 51  1  0
 11 52  1  0
 11 53  1  0
 12 54  1  0
 12 55  1  0
 12 56  1  0
 14 57  1  0
 16 58  1  0
 18 59  1  0
 19 60  1  0
 20 61  1  0
 25 62  1  0
 26 63  1  0
 28 64  1  0
 31 65  1  0
M  END
$$$$
[H]Oc1c([H])c([H])c(-c2c(O[H])c([H])c([H])c3c2c(=O)n(C([H])([H])[H])c(=S)n3C([H])([H])[H])c([H])c1[H]
     RDKit          3D

 36 38  0  0  0  0  0  0  0  0999 V2000
   -4.1507   -1.4514    0.1791 C   0  0  0  0  0  0  0  0  0  0  0  0
   -2.9532   -0.6439   -0.1024 N   0  0  0  0  0  0  0  0  0  0  0  0
   -1.7530   -1.0387    0.3475 C   0  0  0  0  0  0  0  0  0  0  0  0
   -1.6639   -2.2013    1.0663 C   0  0  0  0  0  0  0  0  0  0  0  0
   -0.4613   -2.6490    1.5455 C   0  0  0  0  0  0  0  0  0  0  0  0
    0.6659   -1.9084    1.2932 C   0  0  0  0  0  0  0  0  0  0  0  0
    1.9187   -2.2930    1.7431 O   0  0  0  0  0  0  0  0  0  0  0  0
    0.6182   -0.7128    0.5617 C   0  0  0  0  0  0  0  0  0  0  0  0
   -0.6025   -0.2804    0.0880 C   0  0  0  0  0  0  0  0  0  0  0  0
   -0.7424    0.8759   -0.6395 C   0  0  0  0  0  0  0  0  0  0  0  0
    0.2623    1.5783   -0.8915 O   0  0  0  0  0  0  0  0  0  0  0  0
   -1.9741    1.2542   -1.0848 N   0  0  0  0  0  0  0  0  0  0  0  0
   -2.0784    2.4894   -1.8538 C   0  0  0  0  0  0  0  0  0  0  0  0
   -3.0300    0.4924   -0.8065 C   0  0  0  0  0  0  0  0  0  0  0  0
   -4.4960    0.9692   -1.3524 S   0  0  0  0  0  0  0  0  0  0  0  0
    1.8387    0.0221    0.3280 C   0  0  0  0  0  0  0  0  0  0  0  0
    2.6138   -0.2769   -0.7632 C   0  0  0  0  0  0  0  0  0  0  0  0
    3.8017    0.3700   -1.0028 C   0  0  0  0  0  0  0  0  0  0  0  0
    4.2095    1.3409   -0.1140 C   0  0  0  0  0  0  0  0  0  0  0  0
    5.4268    1.9806   -0.3894 O   0  0  0  0  0  0  0  0  0  0  0  0
    3.4499    1.6664    0.9973 C   0  0  0  0  0  0  0  0  0  0  0  0
    2.2565    0.9919    1.2061 C   0  0  0  0  0  0  0  0  0  0  0  0
   -4.9813   -0.9756   -0.3461 H   0  0  0  0  0  0  0  0  0  0  0  0
   -4.3572   -1.4708    1.2675 H   0  0  0  0  0  0  0  0  0  0  0  0
   -4.0036   -2.5068   -0.1825 H   0  0  0  0  0  0  0  0  0  0  0  0
   -2.5757   -2.7673    1.2510 H   0  0  0  0  0  0  0  0  0  0  0  0
   -0.3900   -3.5874    2.1252 H   0  0  0  0  0  0  0  0  0  0  0  0
    1.9994   -3.1494    2.2748 H   0  0  0  0  0  0  0  0  0  0  0  0
   -2.7234    2.2556   -2.7333 H   0  0  0  0  0  0  0  0  0  0  0  0
   -1.0761    2.7974   -2.2111 H   0  0  0  0  0  0  0  0  0  0  0  0
   -2.5132    3.2883   -1.2152 H   0  0  0  0  0  0  0  0  0  0  0  0
    2.2843   -1.0431   -1.4573 H   0  0  0  0  0  0  0  0  0  0  0  0
    4.4228    0.1280   -1.8805 H   0  0  0  0  0  0  0  0  0  0  0  0
    5.3399    2.8247   -0.9743 H   0  0  0  0  0  0  0  0  0  0  0  0
    3.7795    2.4198    1.6752 H   0  0  0  0  0  0  0  0  0  0  0  0
    1.6382    1.2111    2.0510 H   0  0  0  0  0  0  0  0  0  0  0  0
  1  2  1  0
  2  3  1  0
  3  4  2  0
  4  5  1  0
  5  6  2  0
  6  7  1  0
  6  8  1  0
  8  9  2  0
  9 10  1  0
 10 11  2  0
 10 12  1  0
 12 13  1  0
 12 14  1  0
 14 15  2  0
  8 16  1  0
 16 17  2  0
 17 18  1  0
 18 19  2  0
 19 20  1  0
 19 21  1  0
 21 22  2  0
 14  2  1  0
 22 16  1  0
  9  3  1  0
  1 23  1  0
  1 24  1  0
  1 25  1  0
  4 26  1  0
  5 27  1  0
  7 28  1  0
 13 29  1  0
 13 30  1  0
 13 31  1  0
 17 32  1  0
 18 33  1  0
 20 34  1  0
 21 35  1  0
 22 36  1  0
M  END
$$$$
[H]Oc1c([H])c([H])c(-c2c([H])c([H])c3c(O[H])c([H])c([H])c([H])c3c2[H])c([H])c1[H]
     RDKit          3D

 30 32  0  0  0  0  0  0  0  0999 V2000
    5.8446   -0.5144   -0.5297 O   0  0  0  0  0  0  0  0  0  0  0  0
    4.4783   -0.3174   -0.3602 C   0  0  0  0  0  0  0  0  0  0  0  0
    3.9559    0.9568   -0.1268 C   0  0  0  0  0  0  0  0  0  0  0  0
    2.6230    1.1895    0.0441 C   0  0  0  0  0  0  0  0  0  0  0  0
    1.7743    0.1062   -0.0203 C   0  0  0  0  0  0  0  0  0  0  0  0
    2.2569   -1.1659   -0.2492 C   0  0  0  0  0  0  0  0  0  0  0  0
    3.6166   -1.3865   -0.4213 C   0  0  0  0  0  0  0  0  0  0  0  0
    0.3332    0.2517    0.1513 C   0  0  0  0  0  0  0  0  0  0  0  0
   -0.1245    1.2372    0.9882 C   0  0  0  0  0  0  0  0  0  0  0  0
   -1.5001    1.3622    1.1400 C   0  0  0  0  0  0  0  0  0  0  0  0
   -2.3571    0.5163    0.4648 C   0  0  0  0  0  0  0  0  0  0  0  0
   -3.7296    0.6187    0.5981 C   0  0  0  0  0  0  0  0  0  0  0  0
   -4.3107    1.5671    1.4086 O   0  0  0  0  0  0  0  0  0  0  0  0
   -4.5621   -0.2653   -0.1090 C   0  0  0  0  0  0  0  0  0  0  0  0
   -4.0676   -1.2425   -0.9401 C   0  0  0  0  0  0  0  0  0  0  0  0
   -2.7026   -1.3467   -1.0745 C   0  0  0  0  0  0  0  0  0  0  0  0
   -1.8691   -0.4790   -0.3810 C   0  0  0  0  0  0  0  0  0  0  0  0
   -0.5126   -0.5964   -0.5259 C   0  0  0  0  0  0  0  0  0  0  0  0
    6.4474   -0.7117    0.2778 H   0  0  0  0  0  0  0  0  0  0  0  0
    4.6362    1.7790   -0.0814 H   0  0  0  0  0  0  0  0  0  0  0  0
    2.1679    2.1510    0.2271 H   0  0  0  0  0  0  0  0  0  0  0  0
    1.5781   -2.0059   -0.2957 H   0  0  0  0  0  0  0  0  0  0  0  0
    3.9813   -2.4021   -0.6002 H   0  0  0  0  0  0  0  0  0  0  0  0
    0.5002    1.9154    1.5315 H   0  0  0  0  0  0  0  0  0  0  0  0
   -1.8685    2.1358    1.7986 H   0  0  0  0  0  0  0  0  0  0  0  0
   -3.7743    2.2124    1.9278 H   0  0  0  0  0  0  0  0  0  0  0  0
   -5.6339   -0.1609    0.0156 H   0  0  0  0  0  0  0  0  0  0  0  0
   -4.7332   -1.9223   -1.4833 H   0  0  0  0  0  0  0  0  0  0  0  0
   -2.3040   -2.1113   -1.7242 H   0  0  0  0  0  0  0  0  0  0  0  0
   -0.1440   -1.3709   -1.1850 H   0  0  0  0  0  0  0  0  0  0  0  0
  1  2  1  0
  2  3  2  0
  3  4  1  0
  4  5  2  0
  5  6  1  0
  6  7  2  0
  5  8  1  0
  8  9  2  0
  9 10  1  0
 10 11  2  0
 11 12  1  0
 12 13  1  0
 12 14  2  0
 14 15  1  0
 15 16  2  0
 16 17  1  0
 17 18  2  0
  7  2  1  0
 18  8  1  0
 17 11  1  0
  1 19  1  0
  3 20  1  0
  4 21  1  0
  6 22  1  0
  7 23  1  0
  9 24  1  0
 10 25  1  0
 13 26  1  0
 14 27  1  0
 15 28  1  0
 16 29  1  0
 18 30  1  0
M  END
$$$$
[H]C([H])=C([H])C([H])([H])Oc1c([H])c([H])c2nnc(C([H])(C([H])([H])[H])C([H])([H])[H])n2c1[H]
     RDKit          3D

 31 32  0  0  0  0  0  0  0  0999 V2000
   -3.8400   -0.3500    1.9096 C   0  0  0  0  0  0  0  0  0  0  0  0
   -3.0597   -0.4266    0.6496 C   0  0  0  0  0  0  0  0  0  0  0  0
   -4.0242   -0.5449   -0.5134 C   0  0  0  0  0  0  0  0  0  0  0  0
   -2.2149    0.7640    0.3898 C   0  0  0  0  0  0  0  0  0  0  0  0
   -2.7130    2.0161    0.3775 N   0  0  0  0  0  0  0  0  0  0  0  0
   -1.7422    2.8618    0.1232 N   0  0  0  0  0  0  0  0  0  0  0  0
   -0.6053    2.1201   -0.0279 C   0  0  0  0  0  0  0  0  0  0  0  0
    0.7049    2.4457   -0.3019 C   0  0  0  0  0  0  0  0  0  0  0  0
    1.6368    1.4386   -0.3920 C   0  0  0  0  0  0  0  0  0  0  0  0
    1.3100    0.1039   -0.2174 C   0  0  0  0  0  0  0  0  0  0  0  0
    2.2576   -0.9045   -0.3103 O   0  0  0  0  0  0  0  0  0  0  0  0
    3.6010   -0.5272   -0.5949 C   0  0  0  0  0  0  0  0  0  0  0  0
    4.4877   -1.7097   -0.6616 C   0  0  0  0  0  0  0  0  0  0  0  0
    5.5106   -1.8056    0.1723 C   0  0  0  0  0  0  0  0  0  0  0  0
   -0.0142   -0.1811    0.0558 C   0  0  0  0  0  0  0  0  0  0  0  0
   -0.9108    0.8165    0.1400 N   0  0  0  0  0  0  0  0  0  0  0  0
   -4.9311   -0.3414    1.7117 H   0  0  0  0  0  0  0  0  0  0  0  0
   -3.6607   -1.3020    2.4876 H   0  0  0  0  0  0  0  0  0  0  0  0
   -3.6089    0.5391    2.5265 H   0  0  0  0  0  0  0  0  0  0  0  0
   -2.4198   -1.3437    0.6072 H   0  0  0  0  0  0  0  0  0  0  0  0
   -4.7184   -1.4121   -0.3750 H   0  0  0  0  0  0  0  0  0  0  0  0
   -4.7077    0.3545   -0.5122 H   0  0  0  0  0  0  0  0  0  0  0  0
   -3.5257   -0.5551   -1.4917 H   0  0  0  0  0  0  0  0  0  0  0  0
    0.9612    3.4838   -0.4381 H   0  0  0  0  0  0  0  0  0  0  0  0
    2.6825    1.6883   -0.6098 H   0  0  0  0  0  0  0  0  0  0  0  0
    3.6451   -0.0357   -1.5915 H   0  0  0  0  0  0  0  0  0  0  0  0
    4.0077    0.1905    0.1285 H   0  0  0  0  0  0  0  0  0  0  0  0
    4.3348   -2.5179   -1.3769 H   0  0  0  0  0  0  0  0  0  0  0  0
    5.6849   -1.0177    0.8918 H   0  0  0  0  0  0  0  0  0  0  0  0
    6.1981   -2.6437    0.1772 H   0  0  0  0  0  0  0  0  0  0  0  0
   -0.3266   -1.2039    0.2012 H   0  0  0  0  0  0  0  0  0  0  0  0
  1  2  1  0
  2  3  1  0
  2  4  1  0
  4  5  2  0
  5  6  1  0
  6  7  2  0
  7  8  1  0
  8  9  2  0
  9 10  1  0
 10 11  1  0
 11 12  1  0
 12 13  1  0
 13 14  2  3
 10 15  2  0
 15 16  1  0
 16  4  1  0
 16  7  1  0
  1 17  1  0
  1 18  1  0
  1 19  1  0
  2 20  1  0
  3 21  1  0
  3 22  1  0
  3 23  1  0
  8 24  1  0
  9 25  1  0
 12 26  1  0
 12 27  1  0
 13 28  1  0
 14 29  1  0
 14 30  1  0
 15 31  1  0
M  END
$$$$
