[H]OC(=O)[C@@]([H])(O[H])C([H])([H])OP(=O)(O[H])OP(=O)(O[H])OC([H])([H])[C@@]1([H])O[C@@]([H])(n2c([H])nc3c(N([H])[H])nc([H])nc32)[C@@]([H])(O[H])[C@]1([H])O[H]
     RDKit          3D

 52 54  0  0  0  0  0  0  0  0999 V2000
   -8.8376   -0.0458   -0.1772 O   0  0  0  0  0  0  0  0  0  0  0  0
   -7.6092   -0.2479    0.4223 C   0  0  1  0  0  0  0  0  0  0  0  0
   -6.5433    0.4836   -0.3300 C   0  0  0  0  0  0  0  0  0  0  0  0
   -5.2789    0.1456    0.2746 O   0  0  0  0  0  0  0  0  0  0  0  0
   -4.3366   -0.4122   -1.0075 P   0  0  0  0  0  0  0  0  0  0  0  0
   -3.6530   -1.8718   -0.3134 O   0  0  0  0  0  0  0  0  0  0  0  0
   -5.3311   -0.8764   -2.1155 O   0  0  0  0  0  0  0  0  0  0  0  0
   -3.1999    0.5587   -1.6180 O   0  0  0  0  0  0  0  0  0  0  0  0
   -1.7916   -0.4298   -1.9703 P   0  0  0  0  0  0  0  0  0  0  0  0
   -2.3231   -2.0145   -2.0652 O   0  0  0  0  0  0  0  0  0  0  0  0
   -1.3385   -0.0213   -3.3447 O   0  0  0  0  0  0  0  0  0  0  0  0
   -0.6973   -0.1557   -0.7653 O   0  0  0  0  0  0  0  0  0  0  0  0
    0.6464   -0.5369   -1.1229 C   0  0  0  0  0  0  0  0  0  0  0  0
    1.4488   -0.0536    0.0238 C   0  0  1  0  0  0  0  0  0  0  0  0
    2.7575   -0.3195    0.1594 O   0  0  0  0  0  0  0  0  0  0  0  0
    3.2129    0.6468    1.1278 C   0  0  2  0  0  0  0  0  0  0  0  0
    2.4263    1.8602    0.9159 C   0  0  1  0  0  0  0  0  0  0  0  0
    3.0765    3.0748    0.8335 O   0  0  0  0  0  0  0  0  0  0  0  0
    1.6687    1.5194   -0.3385 C   0  0  2  0  0  0  0  0  0  0  0  0
    0.4816    2.0836   -0.5653 O   0  0  0  0  0  0  0  0  0  0  0  0
    4.6216    0.6593    0.9254 N   0  0  0  0  0  0  0  0  0  0  0  0
    5.5048    1.6213    0.7287 C   0  0  0  0  0  0  0  0  0  0  0  0
    6.7207    1.0444    0.6064 N   0  0  0  0  0  0  0  0  0  0  0  0
    6.6074   -0.2927    0.7258 C   0  0  0  0  0  0  0  0  0  0  0  0
    7.4567   -1.3682    0.6441 C   0  0  0  0  0  0  0  0  0  0  0  0
    8.8246   -1.1056    0.3783 N   0  0  0  0  0  0  0  0  0  0  0  0
    6.9905   -2.6068    0.7556 N   0  0  0  0  0  0  0  0  0  0  0  0
    5.6598   -2.8912    0.9438 C   0  0  0  0  0  0  0  0  0  0  0  0
    4.8487   -1.8114    1.0259 N   0  0  0  0  0  0  0  0  0  0  0  0
    5.2971   -0.5537    0.9272 C   0  0  0  0  0  0  0  0  0  0  0  0
   -7.6629   -0.0802    1.8687 C   0  0  0  0  0  0  0  0  0  0  0  0
   -8.9840    0.1296    2.4093 O   0  0  0  0  0  0  0  0  0  0  0  0
   -6.7257   -0.1102    2.6605 O   0  0  0  0  0  0  0  0  0  0  0  0
   -8.7953   -0.5751   -1.0703 H   0  0  0  0  0  0  0  0  0  0  0  0
   -7.3390   -1.3863    0.2327 H   0  0  0  0  0  0  0  0  0  0  0  0
   -6.6339    1.5755    0.0444 H   0  0  0  0  0  0  0  0  0  0  0  0
   -6.5630    0.5009   -1.3711 H   0  0  0  0  0  0  0  0  0  0  0  0
   -4.2739   -2.6198   -0.5677 H   0  0  0  0  0  0  0  0  0  0  0  0
   -2.9722   -2.1767   -2.8203 H   0  0  0  0  0  0  0  0  0  0  0  0
    0.7580   -1.5269   -1.4915 H   0  0  0  0  0  0  0  0  0  0  0  0
    0.8212    0.1773   -1.9940 H   0  0  0  0  0  0  0  0  0  0  0  0
    0.9311    0.0174    0.9957 H   0  0  0  0  0  0  0  0  0  0  0  0
    3.0096    0.2047    2.1376 H   0  0  0  0  0  0  0  0  0  0  0  0
    1.6257    1.8951    1.7381 H   0  0  0  0  0  0  0  0  0  0  0  0
    2.8107    3.5112   -0.0375 H   0  0  0  0  0  0  0  0  0  0  0  0
    2.3884    1.4728   -1.1741 H   0  0  0  0  0  0  0  0  0  0  0  0
    0.4610    2.6748   -1.3763 H   0  0  0  0  0  0  0  0  0  0  0  0
    5.3756    2.7175    0.6406 H   0  0  0  0  0  0  0  0  0  0  0  0
    9.6112   -1.5083    0.8995 H   0  0  0  0  0  0  0  0  0  0  0  0
    9.0506   -0.4397   -0.4312 H   0  0  0  0  0  0  0  0  0  0  0  0
    5.3213   -3.9219    1.0048 H   0  0  0  0  0  0  0  0  0  0  0  0
   -9.5247    0.8976    2.0170 H   0  0  0  0  0  0  0  0  0  0  0  0
  1  2  1  0
  2  3  1  0
  3  4  1  0
  4  5  1  0
  5  6  1  0
  5  7  2  0
  5  8  1  0
  8  9  1  0
  9 10  1  0
  9 11  2  0
  9 12  1  0
 12 13  1  0
 13 14  1  0
 14 15  1  0
 15 16  1  0
 16 17  1  0
 17 18  1  0
 17 19  1  0
 19 20  1  0
 16 21  1  0
 21 22  1  0
 22 23  2  0
 23 24  1  0
 24 25  2  0
 25 26  1  0
 25 27  1  0
 27 28  2  0
 28 29  1  0
 29 30  2  0
  2 31  1  0
 31 32  1  0
 31 33  2  0
 19 14  1  0
 30 21  1  0
 30 24  1  0
  1 34  1  0
  2 35  1  1
  3 36  1  0
  3 37  1  0
  6 38  1  0
 10 39  1  0
 13 40  1  0
 13 41  1  0
 14 42  1  1
 16 43  1  1
 17 44  1  1
 18 45  1  0
 19 46  1  6
 20 47  1  0
 22 48  1  0
 26 49  1  0
 26 50  1  0
 28 51  1  0
 32 52  1  0
M  END
$$$$
[H]Oc1c([H])c([H])c2c(c1[H])-n1nnc(-c3c([H])c([H])c([H])c([H])c3[C@]([H])(C([H])([H])[H])C([H])([H])C3(C([H])([H])[H])C([H])([H])C3([H])[H])c1C([H])([H])C2([H])[H]
     RDKit          3D

 52 56  0  0  0  0  0  0  0  0999 V2000
   -3.3260    0.4835    1.3404 C   0  0  0  0  0  0  0  0  0  0  0  0
   -2.2562   -0.1917    0.4780 C   0  0  2  0  0  0  0  0  0  0  0  0
   -2.8962   -0.6971   -0.7905 C   0  0  0  0  0  0  0  0  0  0  0  0
   -3.4776    0.3442   -1.6797 C   0  0  0  0  0  0  0  0  0  0  0  0
   -4.5870    1.2683   -1.2353 C   0  0  0  0  0  0  0  0  0  0  0  0
   -3.6104   -0.0886   -3.1778 C   0  0  0  0  0  0  0  0  0  0  0  0
   -2.5904    0.8991   -2.7651 C   0  0  0  0  0  0  0  0  0  0  0  0
   -1.6293   -1.2401    1.3136 C   0  0  0  0  0  0  0  0  0  0  0  0
   -2.3823   -1.8589    2.3309 C   0  0  0  0  0  0  0  0  0  0  0  0
   -1.8701   -2.8565    3.1087 C   0  0  0  0  0  0  0  0  0  0  0  0
   -0.5786   -3.3142    2.9380 C   0  0  0  0  0  0  0  0  0  0  0  0
    0.1598   -2.7235    1.9575 C   0  0  0  0  0  0  0  0  0  0  0  0
   -0.3309   -1.7029    1.1458 C   0  0  0  0  0  0  0  0  0  0  0  0
    0.5493   -1.1165    0.1580 C   0  0  0  0  0  0  0  0  0  0  0  0
    0.4385   -1.0747   -1.1548 N   0  0  0  0  0  0  0  0  0  0  0  0
    1.4464   -0.4170   -1.7136 N   0  0  0  0  0  0  0  0  0  0  0  0
    2.2352   -0.0195   -0.7036 N   0  0  0  0  0  0  0  0  0  0  0  0
    1.7323   -0.4242    0.4638 C   0  0  0  0  0  0  0  0  0  0  0  0
    2.3861   -0.2092    1.7520 C   0  0  0  0  0  0  0  0  0  0  0  0
    3.3180    0.9628    1.7574 C   0  0  0  0  0  0  0  0  0  0  0  0
    4.0036    1.1940    0.4732 C   0  0  0  0  0  0  0  0  0  0  0  0
    5.2133    1.9030    0.4848 C   0  0  0  0  0  0  0  0  0  0  0  0
    5.7970    2.2055   -0.7121 C   0  0  0  0  0  0  0  0  0  0  0  0
    5.1841    1.8084   -1.8796 C   0  0  0  0  0  0  0  0  0  0  0  0
    5.7869    2.1230   -3.0978 O   0  0  0  0  0  0  0  0  0  0  0  0
    3.9924    1.1077   -1.9318 C   0  0  0  0  0  0  0  0  0  0  0  0
    3.4077    0.8039   -0.6973 C   0  0  0  0  0  0  0  0  0  0  0  0
   -4.2684   -0.0893    1.3739 H   0  0  0  0  0  0  0  0  0  0  0  0
   -3.4071    1.5497    1.1528 H   0  0  0  0  0  0  0  0  0  0  0  0
   -2.9334    0.4139    2.3985 H   0  0  0  0  0  0  0  0  0  0  0  0
   -1.4955    0.5741    0.2604 H   0  0  0  0  0  0  0  0  0  0  0  0
   -3.8016   -1.3517   -0.4644 H   0  0  0  0  0  0  0  0  0  0  0  0
   -2.2921   -1.3931   -1.3500 H   0  0  0  0  0  0  0  0  0  0  0  0
   -5.2794    0.8185   -0.5268 H   0  0  0  0  0  0  0  0  0  0  0  0
   -4.2261    2.2660   -0.9082 H   0  0  0  0  0  0  0  0  0  0  0  0
   -5.2499    1.5364   -2.1293 H   0  0  0  0  0  0  0  0  0  0  0  0
   -3.4088   -1.1386   -3.3901 H   0  0  0  0  0  0  0  0  0  0  0  0
   -4.4869    0.3093   -3.7336 H   0  0  0  0  0  0  0  0  0  0  0  0
   -1.5425    0.5437   -2.8606 H   0  0  0  0  0  0  0  0  0  0  0  0
   -2.7240    1.9500   -3.0850 H   0  0  0  0  0  0  0  0  0  0  0  0
   -3.4144   -1.5294    2.4943 H   0  0  0  0  0  0  0  0  0  0  0  0
   -2.4704   -3.3099    3.8803 H   0  0  0  0  0  0  0  0  0  0  0  0
   -0.1471   -4.0904    3.5299 H   0  0  0  0  0  0  0  0  0  0  0  0
    1.1886   -3.0362    1.7740 H   0  0  0  0  0  0  0  0  0  0  0  0
    3.0214   -1.1214    2.0083 H   0  0  0  0  0  0  0  0  0  0  0  0
    1.6854   -0.0530    2.6075 H   0  0  0  0  0  0  0  0  0  0  0  0
    4.0611    0.8705    2.6062 H   0  0  0  0  0  0  0  0  0  0  0  0
    2.6949    1.8944    1.9253 H   0  0  0  0  0  0  0  0  0  0  0  0
    5.6712    2.2032    1.4008 H   0  0  0  0  0  0  0  0  0  0  0  0
    6.7443    2.7585   -0.7853 H   0  0  0  0  0  0  0  0  0  0  0  0
    6.4604    1.4624   -3.5166 H   0  0  0  0  0  0  0  0  0  0  0  0
    3.5047    0.7937   -2.8257 H   0  0  0  0  0  0  0  0  0  0  0  0
  1  2  1  0
  2  3  1  0
  3  4  1  0
  4  5  1  0
  4  6  1  0
  6  7  1  0
  2  8  1  0
  8  9  2  0
  9 10  1  0
 10 11  2  0
 11 12  1  0
 12 13  2  0
 13 14  1  0
 14 15  1  0
 15 16  2  0
 16 17  1  0
 17 18  1  0
 18 19  1  0
 19 20  1  0
 20 21  1  0
 21 22  2  0
 22 23  1  0
 23 24  2  0
 24 25  1  0
 24 26  1  0
 26 27  2  0
  7  4  1  0
 13  8  1  0
 18 14  2  0
 27 21  1  0
 27 17  1  0
  1 28  1  0
  1 29  1  0
  1 30  1  0
  2 31  1  6
  3 32  1  0
  3 33  1  0
  5 34  1  0
  5 35  1  0
  5 36  1  0
  6 37  1  0
  6 38  1  0
  7 39  1  0
  7 40  1  0
  9 41  1  0
 10 42  1  0
 11 43  1  0
 12 44  1  0
 19 45  1  0
 19 46  1  0
 20 47  1  0
 20 48  1  0
 22 49  1  0
 23 50  1  0
 25 51  1  0
 26 52  1  0
M  END
$$$$
[H]OC1=C([H])C([H])=C(C(=O)N2C([H])([H])C([H])([H])C([H])([H])[C@@]([H])(N([H])c3nnc(-c4c([H])c([H])c([H])c([H])c4[H])c([H])c3[H])C2([H])[H])C([H])=C([H])C([H])=C1Cl
     RDKit          3D

 54 57  0  0  0  0  0  0  0  0999 V2000
   -6.9181    1.7056   -3.0087 O   0  0  0  0  0  0  0  0  0  0  0  0
   -6.3648    1.3745   -1.7810 C   0  0  0  0  0  0  0  0  0  0  0  0
   -5.2204    0.7149   -1.8300 C   0  0  0  0  0  0  0  0  0  0  0  0
   -4.2562    0.1490   -0.8497 C   0  0  0  0  0  0  0  0  0  0  0  0
   -3.9653    0.3480    0.4099 C   0  0  0  0  0  0  0  0  0  0  0  0
   -4.5932    1.3341    1.3567 C   0  0  0  0  0  0  0  0  0  0  0  0
   -5.7376    2.0003    1.4191 C   0  0  0  0  0  0  0  0  0  0  0  0
   -6.9353    2.0934    0.5951 C   0  0  0  0  0  0  0  0  0  0  0  0
   -7.2137    1.8533   -0.6706 C   0  0  0  0  0  0  0  0  0  0  0  0
   -8.8752    2.1517   -1.1254 Cl  0  0  0  0  0  0  0  0  0  0  0  0
   -2.9851   -0.4880    1.0226 C   0  0  0  0  0  0  0  0  0  0  0  0
   -2.7648   -0.0813    2.2904 O   0  0  0  0  0  0  0  0  0  0  0  0
   -2.1963   -1.5737    0.7328 N   0  0  0  0  0  0  0  0  0  0  0  0
   -2.1827   -2.4033   -0.4264 C   0  0  0  0  0  0  0  0  0  0  0  0
   -0.8981   -2.0115   -1.1795 C   0  0  0  0  0  0  0  0  0  0  0  0
    0.2185   -2.5385   -0.2987 C   0  0  0  0  0  0  0  0  0  0  0  0
    0.1982   -1.9703    1.0710 C   0  0  2  0  0  0  0  0  0  0  0  0
   -1.1446   -1.9391    1.7479 C   0  0  0  0  0  0  0  0  0  0  0  0
    0.7345   -0.6323    1.0505 N   0  0  0  0  0  0  0  0  0  0  0  0
    2.0921   -0.3105    0.7232 C   0  0  0  0  0  0  0  0  0  0  0  0
    2.5228    0.9997    0.7104 C   0  0  0  0  0  0  0  0  0  0  0  0
    3.8517    1.3055    0.3987 C   0  0  0  0  0  0  0  0  0  0  0  0
    4.7498    0.3115    0.1007 C   0  0  0  0  0  0  0  0  0  0  0  0
    4.2777   -0.9519    0.1273 N   0  0  0  0  0  0  0  0  0  0  0  0
    3.0214   -1.2324    0.4225 N   0  0  0  0  0  0  0  0  0  0  0  0
    6.1646    0.5629   -0.2365 C   0  0  0  0  0  0  0  0  0  0  0  0
    6.7179    1.8175   -0.2842 C   0  0  0  0  0  0  0  0  0  0  0  0
    8.0580    1.9919   -0.6082 C   0  0  0  0  0  0  0  0  0  0  0  0
    8.8827    0.9247   -0.8932 C   0  0  0  0  0  0  0  0  0  0  0  0
    8.3043   -0.3254   -0.8389 C   0  0  0  0  0  0  0  0  0  0  0  0
    6.9914   -0.5240   -0.5234 C   0  0  0  0  0  0  0  0  0  0  0  0
   -7.3582    2.6125   -3.0966 H   0  0  0  0  0  0  0  0  0  0  0  0
   -4.8779    0.5244   -2.8332 H   0  0  0  0  0  0  0  0  0  0  0  0
   -3.6422   -0.5590   -1.3359 H   0  0  0  0  0  0  0  0  0  0  0  0
   -3.9434    1.5341    2.1667 H   0  0  0  0  0  0  0  0  0  0  0  0
   -5.8307    2.6451    2.2955 H   0  0  0  0  0  0  0  0  0  0  0  0
   -7.8307    2.4362    1.1008 H   0  0  0  0  0  0  0  0  0  0  0  0
   -1.9709   -3.4936   -0.0567 H   0  0  0  0  0  0  0  0  0  0  0  0
   -2.9848   -2.4721   -1.1011 H   0  0  0  0  0  0  0  0  0  0  0  0
   -0.8765   -0.9022   -1.2163 H   0  0  0  0  0  0  0  0  0  0  0  0
   -0.8794   -2.4998   -2.1513 H   0  0  0  0  0  0  0  0  0  0  0  0
    1.1484   -2.3737   -0.8696 H   0  0  0  0  0  0  0  0  0  0  0  0
    0.0959   -3.6637   -0.2953 H   0  0  0  0  0  0  0  0  0  0  0  0
    0.9237   -2.5848    1.6872 H   0  0  0  0  0  0  0  0  0  0  0  0
   -1.3687   -2.9503    2.1190 H   0  0  0  0  0  0  0  0  0  0  0  0
   -1.2115   -1.2266    2.5588 H   0  0  0  0  0  0  0  0  0  0  0  0
    0.0970    0.1578    1.2875 H   0  0  0  0  0  0  0  0  0  0  0  0
    1.8236    1.7796    0.9428 H   0  0  0  0  0  0  0  0  0  0  0  0
    4.1803    2.3287    0.3906 H   0  0  0  0  0  0  0  0  0  0  0  0
    6.1062    2.6802   -0.0676 H   0  0  0  0  0  0  0  0  0  0  0  0
    8.4897    2.9997   -0.6433 H   0  0  0  0  0  0  0  0  0  0  0  0
    9.9269    1.0758   -1.1445 H   0  0  0  0  0  0  0  0  0  0  0  0
    8.9192   -1.1918   -1.0565 H   0  0  0  0  0  0  0  0  0  0  0  0
    6.5301   -1.5130   -0.4796 H   0  0  0  0  0  0  0  0  0  0  0  0
  1  2  1  0
  2  3  2  0
  3  4  1  0
  4  5  2  0
  5  6  1  0
  6  7  2  0
  7  8  1  0
  8  9  2  0
  9 10  1  0
  5 11  1  0
 11 12  2  0
 11 13  1  0
 13 14  1  0
 14 15  1  0
 15 16  1  0
 16 17  1  0
 17 18  1  0
 17 19  1  0
 19 20  1  0
 20 21  2  0
 21 22  1  0
 22 23  2  0
 23 24  1  0
 24 25  2  0
 23 26  1  0
 26 27  2  0
 27 28  1  0
 28 29  2  0
 29 30  1  0
 30 31  2  0
  9  2  1  0
 18 13  1  0
 25 20  1  0
 31 26  1  0
  1 32  1  0
  3 33  1  0
  4 34  1  0
  6 35  1  0
  7 36  1  0
  8 37  1  0
 14 38  1  0
 14 39  1  0
 15 40  1  0
 15 41  1  0
 16 42  1  0
 16 43  1  0
 17 44  1  1
 18 45  1  0
 18 46  1  0
 19 47  1  0
 21 48  1  0
 22 49  1  0
 27 50  1  0
 28 51  1  0
 29 52  1  0
 30 53  1  0
 31 54  1  0
M  END
$$$$
[H]N=C(N([H])[H])N([H])C([H])([H])C([H])([H])C([H])([H])[C@@]([H])(B(O[H])O[H])N([H])C(=O)[C@@]1([H])N(C(=O)[C@@]([H])(N([H])C(=O)[C@@]([H])(N([H])C(=O)[C@@]([H])(N([H])C(=O)C([H])([H])O[H])C([H])([H])OC([H])([H])c2c([H])c([H])c([H])c([H])c2[H])C([H])([H])C([H])([H])C(=O)O[H])C([H])([H])C([H])(C([H])([H])[H])C([H])([H])[H])C([H])([H])C([H])([H])C1([H])[H]
     RDKit          3D

106107  0  0  0  0  0  0  0  0999 V2000
   -0.7464   -4.0384   -0.9841 C   0  0  0  0  0  0  0  0  0  0  0  0
   -0.7297   -4.3222    0.4699 C   0  0  0  0  0  0  0  0  0  0  0  0
   -1.2795   -5.6985    0.7350 C   0  0  0  0  0  0  0  0  0  0  0  0
   -1.4620   -3.2877    1.3201 C   0  0  0  0  0  0  0  0  0  0  0  0
   -0.9001   -1.9417    1.1960 C   0  0  2  0  0  0  0  0  0  0  0  0
    0.5072   -1.8548    1.5875 N   0  0  0  0  0  0  0  0  0  0  0  0
    1.4792   -1.1152    0.8893 C   0  0  0  0  0  0  0  0  0  0  0  0
    1.1346   -0.4876   -0.1256 O   0  0  0  0  0  0  0  0  0  0  0  0
    2.8956   -1.0567    1.3228 C   0  0  2  0  0  0  0  0  0  0  0  0
    3.1445   -0.8611    2.7553 C   0  0  0  0  0  0  0  0  0  0  0  0
    2.5519    0.3794    3.3781 C   0  0  0  0  0  0  0  0  0  0  0  0
    2.9003    0.4276    4.8207 C   0  0  0  0  0  0  0  0  0  0  0  0
    2.0601    1.0813    5.7480 O   0  0  0  0  0  0  0  0  0  0  0  0
    3.9359   -0.1075    5.2694 O   0  0  0  0  0  0  0  0  0  0  0  0
    3.6956   -0.1818    0.4454 N   0  0  0  0  0  0  0  0  0  0  0  0
    4.5595   -0.7281   -0.5083 C   0  0  0  0  0  0  0  0  0  0  0  0
    4.6176   -2.0078   -0.5689 O   0  0  0  0  0  0  0  0  0  0  0  0
    5.4030   -0.0107   -1.4538 C   0  0  2  0  0  0  0  0  0  0  0  0
    4.9223    1.3547   -1.8541 C   0  0  0  0  0  0  0  0  0  0  0  0
    4.8257    2.2794   -0.8620 O   0  0  0  0  0  0  0  0  0  0  0  0
    5.9778    2.6544   -0.2272 C   0  0  0  0  0  0  0  0  0  0  0  0
    6.9721    3.3466   -1.0877 C   0  0  0  0  0  0  0  0  0  0  0  0
    6.7656    4.7125   -1.3132 C   0  0  0  0  0  0  0  0  0  0  0  0
    7.6793    5.3877   -2.0909 C   0  0  0  0  0  0  0  0  0  0  0  0
    8.7715    4.7583   -2.6407 C   0  0  0  0  0  0  0  0  0  0  0  0
    8.9633    3.4072   -2.4103 C   0  0  0  0  0  0  0  0  0  0  0  0
    8.0504    2.7381   -1.6351 C   0  0  0  0  0  0  0  0  0  0  0  0
    5.5194   -0.8426   -2.6742 N   0  0  0  0  0  0  0  0  0  0  0  0
    6.7597   -1.2294   -3.2237 C   0  0  0  0  0  0  0  0  0  0  0  0
    7.8682   -0.9044   -2.7378 O   0  0  0  0  0  0  0  0  0  0  0  0
    6.7600   -2.0734   -4.4490 C   0  0  0  0  0  0  0  0  0  0  0  0
    8.0399   -2.3871   -4.8728 O   0  0  0  0  0  0  0  0  0  0  0  0
   -1.6147   -0.8029    1.7856 C   0  0  0  0  0  0  0  0  0  0  0  0
   -0.9232    0.3090    1.7467 O   0  0  0  0  0  0  0  0  0  0  0  0
   -2.8754   -0.6983    2.3689 N   0  0  0  0  0  0  0  0  0  0  0  0
   -3.3535    0.6456    2.8300 C   0  0  0  0  0  0  0  0  0  0  0  0
   -4.5397    0.4108    3.6908 C   0  0  0  0  0  0  0  0  0  0  0  0
   -4.4264   -1.0317    4.0409 C   0  0  0  0  0  0  0  0  0  0  0  0
   -3.9404   -1.6074    2.7073 C   0  0  1  0  0  0  0  0  0  0  0  0
   -5.0339   -1.6778    1.7319 C   0  0  0  0  0  0  0  0  0  0  0  0
   -5.9799   -2.4944    2.0164 O   0  0  0  0  0  0  0  0  0  0  0  0
   -5.1157   -0.9231    0.5243 N   0  0  0  0  0  0  0  0  0  0  0  0
   -6.2175   -1.0434   -0.3864 C   0  0  1  0  0  0  0  0  0  0  0  0
   -7.0386    0.2168   -0.5296 C   0  0  0  0  0  0  0  0  0  0  0  0
   -6.2693    1.3920   -1.0642 C   0  0  0  0  0  0  0  0  0  0  0  0
   -7.2720    2.5475   -1.1479 C   0  0  0  0  0  0  0  0  0  0  0  0
   -6.6711    3.7447   -1.6578 N   0  0  0  0  0  0  0  0  0  0  0  0
   -7.4349    4.9244   -1.8194 C   0  0  0  0  0  0  0  0  0  0  0  0
   -7.8160    5.3059   -3.1423 N   0  0  0  0  0  0  0  0  0  0  0  0
   -7.8266    5.7024   -0.8777 N   0  0  0  0  0  0  0  0  0  0  0  0
   -5.7713   -1.5925   -1.8024 B   0  0  0  0  0  0  0  0  0  0  0  0
   -4.5858   -2.4331   -1.8838 O   0  0  0  0  0  0  0  0  0  0  0  0
   -6.7914   -1.7622   -2.8291 O   0  0  0  0  0  0  0  0  0  0  0  0
   -1.6777   -3.4992   -1.3151 H   0  0  0  0  0  0  0  0  0  0  0  0
    0.1603   -3.5159   -1.3740 H   0  0  0  0  0  0  0  0  0  0  0  0
   -0.7906   -5.0091   -1.5341 H   0  0  0  0  0  0  0  0  0  0  0  0
    0.3420   -4.3012    0.8236 H   0  0  0  0  0  0  0  0  0  0  0  0
   -2.4027   -5.6301    0.7113 H   0  0  0  0  0  0  0  0  0  0  0  0
   -1.0253   -6.0085    1.7563 H   0  0  0  0  0  0  0  0  0  0  0  0
   -0.9687   -6.4193   -0.0346 H   0  0  0  0  0  0  0  0  0  0  0  0
   -2.5233   -3.3681    0.9675 H   0  0  0  0  0  0  0  0  0  0  0  0
   -1.4653   -3.6216    2.3773 H   0  0  0  0  0  0  0  0  0  0  0  0
   -0.8553   -1.6653    0.0796 H   0  0  0  0  0  0  0  0  0  0  0  0
    0.8196   -2.3751    2.4400 H   0  0  0  0  0  0  0  0  0  0  0  0
    3.3383   -2.1021    1.0909 H   0  0  0  0  0  0  0  0  0  0  0  0
    4.2113   -0.9731    2.9604 H   0  0  0  0  0  0  0  0  0  0  0  0
    2.6486   -1.7217    3.3002 H   0  0  0  0  0  0  0  0  0  0  0  0
    3.0203    1.3177    2.9436 H   0  0  0  0  0  0  0  0  0  0  0  0
    1.4782    0.4679    3.2785 H   0  0  0  0  0  0  0  0  0  0  0  0
    1.3114    0.5657    6.2091 H   0  0  0  0  0  0  0  0  0  0  0  0
    3.6121    0.8452    0.5465 H   0  0  0  0  0  0  0  0  0  0  0  0
    6.4495    0.1147   -1.1028 H   0  0  0  0  0  0  0  0  0  0  0  0
    3.9112    1.2314   -2.3050 H   0  0  0  0  0  0  0  0  0  0  0  0
    5.5443    1.7249   -2.7285 H   0  0  0  0  0  0  0  0  0  0  0  0
    5.6782    3.4047    0.5588 H   0  0  0  0  0  0  0  0  0  0  0  0
    6.4897    1.8343    0.3415 H   0  0  0  0  0  0  0  0  0  0  0  0
    5.8887    5.2171   -0.8743 H   0  0  0  0  0  0  0  0  0  0  0  0
    7.5410    6.4644   -2.2878 H   0  0  0  0  0  0  0  0  0  0  0  0
    9.5021    5.2834   -3.2607 H   0  0  0  0  0  0  0  0  0  0  0  0
    9.8253    2.8904   -2.8386 H   0  0  0  0  0  0  0  0  0  0  0  0
    8.2168    1.6751   -1.4661 H   0  0  0  0  0  0  0  0  0  0  0  0
    4.6311   -1.1411   -3.1165 H   0  0  0  0  0  0  0  0  0  0  0  0
    6.1726   -3.0223   -4.2550 H   0  0  0  0  0  0  0  0  0  0  0  0
    6.1943   -1.5284   -5.2380 H   0  0  0  0  0  0  0  0  0  0  0  0
    8.3135   -3.2729   -4.5265 H   0  0  0  0  0  0  0  0  0  0  0  0
   -3.5384    1.3008    1.9549 H   0  0  0  0  0  0  0  0  0  0  0  0
   -2.4655    1.0510    3.4087 H   0  0  0  0  0  0  0  0  0  0  0  0
   -5.5161    0.6949    3.2452 H   0  0  0  0  0  0  0  0  0  0  0  0
   -4.4199    0.9999    4.6422 H   0  0  0  0  0  0  0  0  0  0  0  0
   -5.3028   -1.5216    4.4455 H   0  0  0  0  0  0  0  0  0  0  0  0
   -3.5355   -1.1310    4.7307 H   0  0  0  0  0  0  0  0  0  0  0  0
   -3.5098   -2.6100    2.8771 H   0  0  0  0  0  0  0  0  0  0  0  0
   -4.3483   -0.2696    0.3087 H   0  0  0  0  0  0  0  0  0  0  0  0
   -6.9164   -1.8127    0.0297 H   0  0  0  0  0  0  0  0  0  0  0  0
   -7.3203    0.5120    0.5305 H   0  0  0  0  0  0  0  0  0  0  0  0
   -8.0024    0.0673   -1.0347 H   0  0  0  0  0  0  0  0  0  0  0  0
   -5.4106    1.6447   -0.4567 H   0  0  0  0  0  0  0  0  0  0  0  0
   -5.9750    1.1848   -2.1302 H   0  0  0  0  0  0  0  0  0  0  0  0
   -8.1277    2.2552   -1.8128 H   0  0  0  0  0  0  0  0  0  0  0  0
   -7.7317    2.7586   -0.1646 H   0  0  0  0  0  0  0  0  0  0  0  0
   -5.6775    3.7468   -1.9102 H   0  0  0  0  0  0  0  0  0  0  0  0
   -7.2067    5.8669   -3.7634 H   0  0  0  0  0  0  0  0  0  0  0  0
   -8.7525    4.9882   -3.4577 H   0  0  0  0  0  0  0  0  0  0  0  0
   -7.6365    5.5720    0.1245 H   0  0  0  0  0  0  0  0  0  0  0  0
   -4.8153   -3.3453   -1.5498 H   0  0  0  0  0  0  0  0  0  0  0  0
   -7.5274   -2.3371   -2.5649 H   0  0  0  0  0  0  0  0  0  0  0  0
  1  2  1  0
  2  3  1  0
  2  4  1  0
  4  5  1  0
  5  6  1  0
  6  7  1  0
  7  8  2  0
  7  9  1  0
  9 10  1  0
 10 11  1  0
 11 12  1  0
 12 13  1  0
 12 14  2  0
  9 15  1  0
 15 16  1  0
 16 17  2  0
 16 18  1  0
 18 19  1  0
 19 20  1  0
 20 21  1  0
 21 22  1  0
 22 23  2  0
 23 24  1  0
 24 25  2  0
 25 26  1  0
 26 27  2  0
 18 28  1  0
 28 29  1  0
 29 30  2  0
 29 31  1  0
 31 32  1  0
  5 33  1  0
 33 34  2  0
 33 35  1  0
 35 36  1  0
 36 37  1  0
 37 38  1  0
 38 39  1  0
 39 40  1  0
 40 41  2  0
 40 42  1  0
 42 43  1  0
 43 44  1  0
 44 45  1  0
 45 46  1  0
 46 47  1  0
 47 48  1  0
 48 49  1  0
 48 50  2  3
 43 51  1  0
 51 52  1  0
 51 53  1  0
 27 22  1  0
 39 35  1  0
  1 54  1  0
  1 55  1  0
  1 56  1  0
  2 57  1  0
  3 58  1  0
  3 59  1  0
  3 60  1  0
  4 61  1  0
  4 62  1  0
  5 63  1  6
  6 64  1  0
  9 65  1  6
 10 66  1  0
 10 67  1  0
 11 68  1  0
 11 69  1  0
 13 70  1  0
 15 71  1  0
 18 72  1  1
 19 73  1  0
 19 74  1  0
 21 75  1  0
 21 76  1  0
 23 77  1  0
 24 78  1  0
 25 79  1  0
 26 80  1  0
 27 81  1  0
 28 82  1  0
 31 83  1  0
 31 84  1  0
 32 85  1  0
 36 86  1  0
 36 87  1  0
 37 88  1  0
 37 89  1  0
 38 90  1  0
 38 91  1  0
 39 92  1  1
 42 93  1  0
 43 94  1  1
 44 95  1  0
 44 96  1  0
 45 97  1  0
 45 98  1  0
 46 99  1  0
 46100  1  0
 47101  1  0
 49102  1  0
 49103  1  0
 50104  1  0
 52105  1  0
 53106  1  0
M  END
$$$$
[H]c1c([H])c([H])c2c(c1[H])c1c3c(c4c5c([H])c([H])c([H])c([H])c5n5c4c1n2[C@@]1([H])O[C@@]5(C([H])([H])[H])[C@]([H])(OC([H])([H])[H])[C@@]([H])(N([H])C([H])([H])[H])C1([H])[H])C([H])([H])N([H])C3=O
     RDKit          3D

 61 68  0  0  0  0  0  0  0  0999 V2000
   -4.6824   -2.6084   -1.1301 C   0  0  0  0  0  0  0  0  0  0  0  0
   -4.1050   -1.2596   -1.1633 N   0  0  0  0  0  0  0  0  0  0  0  0
   -3.0657   -1.2438   -0.1784 C   0  0  1  0  0  0  0  0  0  0  0  0
   -1.9320   -2.2629   -0.5284 C   0  0  0  0  0  0  0  0  0  0  0  0
   -0.8127   -1.4706   -0.4549 C   0  0  2  0  0  0  0  0  0  0  0  0
   -1.0111   -0.4908   -1.4175 O   0  0  0  0  0  0  0  0  0  0  0  0
   -1.4568    0.6572   -0.7117 C   0  0  1  0  0  0  0  0  0  0  0  0
   -1.9792    1.5339   -1.8979 C   0  0  0  0  0  0  0  0  0  0  0  0
   -2.5355    0.1729    0.1174 C   0  0  2  0  0  0  0  0  0  0  0  0
   -2.5382    0.4775    1.4723 O   0  0  0  0  0  0  0  0  0  0  0  0
   -3.5450    1.3139    1.8880 C   0  0  0  0  0  0  0  0  0  0  0  0
   -0.2581    1.2765   -0.1878 N   0  0  0  0  0  0  0  0  0  0  0  0
   -0.0794    2.6039    0.0500 C   0  0  0  0  0  0  0  0  0  0  0  0
   -0.9336    3.6760    0.0237 C   0  0  0  0  0  0  0  0  0  0  0  0
   -0.4970    4.9509    0.3208 C   0  0  0  0  0  0  0  0  0  0  0  0
    0.8328    5.2015    0.6609 C   0  0  0  0  0  0  0  0  0  0  0  0
    1.7094    4.1367    0.6942 C   0  0  0  0  0  0  0  0  0  0  0  0
    1.2326    2.8804    0.3909 C   0  0  0  0  0  0  0  0  0  0  0  0
    1.8932    1.6993    0.3717 C   0  0  0  0  0  0  0  0  0  0  0  0
    3.2003    1.2539    0.5708 C   0  0  0  0  0  0  0  0  0  0  0  0
    4.3685    2.1051    0.9440 C   0  0  0  0  0  0  0  0  0  0  0  0
    5.4542    1.1712    1.0330 N   0  0  0  0  0  0  0  0  0  0  0  0
    5.0063   -0.1496    0.7277 C   0  0  0  0  0  0  0  0  0  0  0  0
    5.8023   -1.1008    0.7440 O   0  0  0  0  0  0  0  0  0  0  0  0
    3.5869   -0.0743    0.4404 C   0  0  0  0  0  0  0  0  0  0  0  0
    2.6649   -1.0457    0.1009 C   0  0  0  0  0  0  0  0  0  0  0  0
    2.6666   -2.3969   -0.0552 C   0  0  0  0  0  0  0  0  0  0  0  0
    3.6298   -3.3474    0.0095 C   0  0  0  0  0  0  0  0  0  0  0  0
    3.2674   -4.6762   -0.2094 C   0  0  0  0  0  0  0  0  0  0  0  0
    1.9630   -5.0189   -0.4854 C   0  0  0  0  0  0  0  0  0  0  0  0
    0.9799   -4.0309   -0.5497 C   0  0  0  0  0  0  0  0  0  0  0  0
    1.3349   -2.7371   -0.3360 C   0  0  0  0  0  0  0  0  0  0  0  0
    0.5725   -1.6575   -0.3514 N   0  0  0  0  0  0  0  0  0  0  0  0
    1.3877   -0.5991   -0.0910 C   0  0  0  0  0  0  0  0  0  0  0  0
    0.9992    0.7501    0.0329 C   0  0  0  0  0  0  0  0  0  0  0  0
   -5.7825   -2.5816   -1.2582 H   0  0  0  0  0  0  0  0  0  0  0  0
   -4.5135   -3.0759   -0.1174 H   0  0  0  0  0  0  0  0  0  0  0  0
   -4.2080   -3.2804   -1.8567 H   0  0  0  0  0  0  0  0  0  0  0  0
   -4.8591   -0.6382   -0.7999 H   0  0  0  0  0  0  0  0  0  0  0  0
   -3.5045   -1.5842    0.7821 H   0  0  0  0  0  0  0  0  0  0  0  0
   -2.2748   -2.7255   -1.4860 H   0  0  0  0  0  0  0  0  0  0  0  0
   -1.9621   -3.1122    0.2071 H   0  0  0  0  0  0  0  0  0  0  0  0
   -0.9757   -1.0437    0.6400 H   0  0  0  0  0  0  0  0  0  0  0  0
   -2.9476    1.9147   -1.5829 H   0  0  0  0  0  0  0  0  0  0  0  0
   -1.2333    2.2876   -2.1876 H   0  0  0  0  0  0  0  0  0  0  0  0
   -2.1519    0.9159   -2.8009 H   0  0  0  0  0  0  0  0  0  0  0  0
   -3.4564    0.7811   -0.2222 H   0  0  0  0  0  0  0  0  0  0  0  0
   -3.4439    1.4823    2.9756 H   0  0  0  0  0  0  0  0  0  0  0  0
   -4.5130    0.8417    1.6143 H   0  0  0  0  0  0  0  0  0  0  0  0
   -3.4392    2.2941    1.3395 H   0  0  0  0  0  0  0  0  0  0  0  0
   -1.9783    3.5529   -0.2219 H   0  0  0  0  0  0  0  0  0  0  0  0
   -1.2227    5.7485    0.2800 H   0  0  0  0  0  0  0  0  0  0  0  0
    1.1307    6.1969    0.8831 H   0  0  0  0  0  0  0  0  0  0  0  0
    2.7680    4.2870    0.9578 H   0  0  0  0  0  0  0  0  0  0  0  0
    4.5382    2.8824    0.1635 H   0  0  0  0  0  0  0  0  0  0  0  0
    4.1440    2.5676    1.9087 H   0  0  0  0  0  0  0  0  0  0  0  0
    6.4343    1.4428    1.2895 H   0  0  0  0  0  0  0  0  0  0  0  0
    4.6374   -3.0945    0.2183 H   0  0  0  0  0  0  0  0  0  0  0  0
    4.0507   -5.4107   -0.1522 H   0  0  0  0  0  0  0  0  0  0  0  0
    1.6782   -6.0475   -0.6552 H   0  0  0  0  0  0  0  0  0  0  0  0
   -0.0356   -4.2917   -0.7636 H   0  0  0  0  0  0  0  0  0  0  0  0
  1  2  1  0
  2  3  1  0
  3  4  1  0
  4  5  1  0
  5  6  1  0
  6  7  1  0
  7  8  1  6
  7  9  1  0
  9 10  1  0
 10 11  1  0
  7 12  1  0
 12 13  1  0
 13 14  2  0
 14 15  1  0
 15 16  2  0
 16 17  1  0
 17 18  2  0
 18 19  1  0
 19 20  2  0
 20 21  1  0
 21 22  1  0
 22 23  1  0
 23 24  2  0
 23 25  1  0
 25 26  2  0
 26 27  1  0
 27 28  2  0
 28 29  1  0
 29 30  2  0
 30 31  1  0
 31 32  2  0
 32 33  1  0
 33 34  1  0
 34 35  2  0
  9  3  1  0
 35 12  1  0
 33  5  1  0
 18 13  1  0
 35 19  1  0
 25 20  1  0
 34 26  1  0
 32 27  1  0
  1 36  1  0
  1 37  1  0
  1 38  1  0
  2 39  1  0
  3 40  1  1
  4 41  1  0
  4 42  1  0
  5 43  1  1
  8 44  1  0
  8 45  1  0
  8 46  1  0
  9 47  1  6
 11 48  1  0
 11 49  1  0
 11 50  1  0
 14 51  1  0
 15 52  1  0
 16 53  1  0
 17 54  1  0
 21 55  1  0
 21 56  1  0
 22 57  1  0
 28 58  1  0
 29 59  1  0
 30 60  1  0
 31 61  1  0
M  END
$$$$
[H]N=C(N([H])[H])N([H])C([H])([H])C([H])([H])C([H])([H])[C@@]([H])(C(=O)N([H])[C@]([H])(C(=O)N([H])[H])C([H])([H])c1c([H])nc([H])n1[H])N([H])C(=O)[C@@]([H])(N([H])C(=O)c1c([H])c([H])c(S(=O)(=O)N([H])[H])c([H])c1[H])C([H])([H])c1c([H])nc([H])n1[H]
     RDKit          3D

 78 80  0  0  0  0  0  0  0  0999 V2000
    9.6117    2.1997    2.2557 N   0  0  0  0  0  0  0  0  0  0  0  0
    9.6336    1.0454    0.9430 S   0  0  0  0  0  0  0  0  0  0  0  0
   10.5500    1.5979   -0.1045 O   0  0  0  0  0  0  0  0  0  0  0  0
   10.1562   -0.2710    1.4482 O   0  0  0  0  0  0  0  0  0  0  0  0
    8.0006    0.8335    0.3451 C   0  0  0  0  0  0  0  0  0  0  0  0
    7.1502   -0.1216    0.8616 C   0  0  0  0  0  0  0  0  0  0  0  0
    5.8592   -0.2651    0.3712 C   0  0  0  0  0  0  0  0  0  0  0  0
    5.3621    0.5249   -0.6419 C   0  0  0  0  0  0  0  0  0  0  0  0
    6.2244    1.4870   -1.1596 C   0  0  0  0  0  0  0  0  0  0  0  0
    7.4942    1.6178   -0.6674 C   0  0  0  0  0  0  0  0  0  0  0  0
    4.0313    0.4254   -1.1879 C   0  0  0  0  0  0  0  0  0  0  0  0
    3.7305    1.0742   -2.2111 O   0  0  0  0  0  0  0  0  0  0  0  0
    3.0454   -0.4001   -0.5841 N   0  0  0  0  0  0  0  0  0  0  0  0
    1.7121   -0.4890   -1.1471 C   0  0  1  0  0  0  0  0  0  0  0  0
    1.4190   -1.8654   -1.6301 C   0  0  0  0  0  0  0  0  0  0  0  0
    1.4405   -2.9392   -0.6259 C   0  0  0  0  0  0  0  0  0  0  0  0
    1.3070   -4.3005   -0.9553 C   0  0  0  0  0  0  0  0  0  0  0  0
    1.3431   -5.0169    0.1767 N   0  0  0  0  0  0  0  0  0  0  0  0
    1.4914   -4.1978    1.2109 C   0  0  0  0  0  0  0  0  0  0  0  0
    1.5479   -2.9480    0.7061 N   0  0  0  0  0  0  0  0  0  0  0  0
    0.6764    0.1073   -0.2794 C   0  0  0  0  0  0  0  0  0  0  0  0
    1.0408    0.6530    0.8007 O   0  0  0  0  0  0  0  0  0  0  0  0
   -0.6723    0.0468   -0.6841 N   0  0  0  0  0  0  0  0  0  0  0  0
   -1.7842    0.6134    0.1090 C   0  0  1  0  0  0  0  0  0  0  0  0
   -2.4846    1.5232   -0.8748 C   0  0  0  0  0  0  0  0  0  0  0  0
   -3.6507    2.2763   -0.3617 C   0  0  0  0  0  0  0  0  0  0  0  0
   -3.2371    3.2018    0.7662 C   0  0  0  0  0  0  0  0  0  0  0  0
   -2.2622    4.1854    0.3162 N   0  0  0  0  0  0  0  0  0  0  0  0
   -2.6361    5.2258   -0.5952 C   0  0  0  0  0  0  0  0  0  0  0  0
   -3.2404    6.4363   -0.1111 N   0  0  0  0  0  0  0  0  0  0  0  0
   -2.4488    5.1214   -1.8646 N   0  0  0  0  0  0  0  0  0  0  0  0
   -2.6330   -0.6137    0.4106 C   0  0  0  0  0  0  0  0  0  0  0  0
   -2.3061   -1.7183   -0.1384 O   0  0  0  0  0  0  0  0  0  0  0  0
   -3.7396   -0.5791    1.2555 N   0  0  0  0  0  0  0  0  0  0  0  0
   -4.5850   -1.6688    1.5621 C   0  0  1  0  0  0  0  0  0  0  0  0
   -4.6532   -2.8041    0.5712 C   0  0  0  0  0  0  0  0  0  0  0  0
   -5.1664   -2.4073   -0.7465 C   0  0  0  0  0  0  0  0  0  0  0  0
   -5.6553   -1.2036   -1.2251 C   0  0  0  0  0  0  0  0  0  0  0  0
   -6.0150   -1.3060   -2.5129 N   0  0  0  0  0  0  0  0  0  0  0  0
   -5.7526   -2.5809   -2.8518 C   0  0  0  0  0  0  0  0  0  0  0  0
   -5.2427   -3.2467   -1.7949 N   0  0  0  0  0  0  0  0  0  0  0  0
   -4.3208   -2.1913    2.9006 C   0  0  0  0  0  0  0  0  0  0  0  0
   -5.0279   -3.2962    3.4588 N   0  0  0  0  0  0  0  0  0  0  0  0
   -3.4140   -1.6299    3.5995 O   0  0  0  0  0  0  0  0  0  0  0  0
    9.6469    3.1497    1.7928 H   0  0  0  0  0  0  0  0  0  0  0  0
    8.6343    2.1429    2.6646 H   0  0  0  0  0  0  0  0  0  0  0  0
    7.5297   -0.7522    1.6607 H   0  0  0  0  0  0  0  0  0  0  0  0
    5.2349   -1.0401    0.8207 H   0  0  0  0  0  0  0  0  0  0  0  0
    5.8799    2.1294   -1.9549 H   0  0  0  0  0  0  0  0  0  0  0  0
    8.1645    2.3734   -1.0761 H   0  0  0  0  0  0  0  0  0  0  0  0
    3.3226   -0.9254    0.2630 H   0  0  0  0  0  0  0  0  0  0  0  0
    1.6842    0.1611   -2.0899 H   0  0  0  0  0  0  0  0  0  0  0  0
    2.2308   -2.0987   -2.3958 H   0  0  0  0  0  0  0  0  0  0  0  0
    0.4909   -1.9039   -2.2604 H   0  0  0  0  0  0  0  0  0  0  0  0
    1.1956   -4.6551   -1.9782 H   0  0  0  0  0  0  0  0  0  0  0  0
    1.5614   -4.4118    2.2695 H   0  0  0  0  0  0  0  0  0  0  0  0
    1.6519   -2.0998    1.3047 H   0  0  0  0  0  0  0  0  0  0  0  0
   -0.9331   -0.4063   -1.5682 H   0  0  0  0  0  0  0  0  0  0  0  0
   -1.4610    1.1286    1.0021 H   0  0  0  0  0  0  0  0  0  0  0  0
   -2.6817    0.9798   -1.8246 H   0  0  0  0  0  0  0  0  0  0  0  0
   -1.6970    2.2834   -1.1598 H   0  0  0  0  0  0  0  0  0  0  0  0
   -4.5471    1.7004   -0.1122 H   0  0  0  0  0  0  0  0  0  0  0  0
   -3.9883    2.9459   -1.2216 H   0  0  0  0  0  0  0  0  0  0  0  0
   -4.1520    3.6939    1.1559 H   0  0  0  0  0  0  0  0  0  0  0  0
   -2.7685    2.5957    1.5615 H   0  0  0  0  0  0  0  0  0  0  0  0
   -1.2703    4.1774    0.6290 H   0  0  0  0  0  0  0  0  0  0  0  0
   -3.8767    6.4032    0.7080 H   0  0  0  0  0  0  0  0  0  0  0  0
   -3.0095    7.3181   -0.6133 H   0  0  0  0  0  0  0  0  0  0  0  0
   -2.7036    5.8445   -2.5441 H   0  0  0  0  0  0  0  0  0  0  0  0
   -3.9476    0.3643    1.7159 H   0  0  0  0  0  0  0  0  0  0  0  0
   -5.6732   -1.2777    1.5627 H   0  0  0  0  0  0  0  0  0  0  0  0
   -5.4676   -3.4863    0.9979 H   0  0  0  0  0  0  0  0  0  0  0  0
   -3.7838   -3.4430    0.5054 H   0  0  0  0  0  0  0  0  0  0  0  0
   -5.7329   -0.3156   -0.6377 H   0  0  0  0  0  0  0  0  0  0  0  0
   -5.9233   -3.0140   -3.8286 H   0  0  0  0  0  0  0  0  0  0  0  0
   -4.9645   -4.2640   -1.8394 H   0  0  0  0  0  0  0  0  0  0  0  0
   -4.5992   -3.8172    4.2568 H   0  0  0  0  0  0  0  0  0  0  0  0
   -5.9465   -3.6165    3.1201 H   0  0  0  0  0  0  0  0  0  0  0  0
  1  2  1  0
  2  3  2  0
  2  4  2  0
  2  5  1  0
  5  6  2  0
  6  7  1  0
  7  8  2  0
  8  9  1  0
  9 10  2  0
  8 11  1  0
 11 12  2  0
 11 13  1  0
 13 14  1  0
 14 15  1  0
 15 16  1  0
 16 17  2  0
 17 18  1  0
 18 19  2  0
 19 20  1  0
 14 21  1  0
 21 22  2  0
 21 23  1  0
 23 24  1  0
 24 25  1  0
 25 26  1  0
 26 27  1  0
 27 28  1  0
 28 29  1  0
 29 30  1  0
 29 31  2  3
 24 32  1  0
 32 33  2  0
 32 34  1  0
 34 35  1  0
 35 36  1  0
 36 37  1  0
 37 38  2  0
 38 39  1  0
 39 40  2  0
 40 41  1  0
 35 42  1  0
 42 43  1  0
 42 44  2  0
 10  5  1  0
 20 16  1  0
 41 37  1  0
  1 45  1  0
  1 46  1  0
  6 47  1  0
  7 48  1  0
  9 49  1  0
 10 50  1  0
 13 51  1  0
 14 52  1  6
 15 53  1  0
 15 54  1  0
 17 55  1  0
 19 56  1  0
 20 57  1  0
 23 58  1  0
 24 59  1  1
 25 60  1  0
 25 61  1  0
 26 62  1  0
 26 63  1  0
 27 64  1  0
 27 65  1  0
 28 66  1  0
 30 67  1  0
 30 68  1  0
 31 69  1  0
 34 70  1  0
 35 71  1  1
 36 72  1  0
 36 73  1  0
 38 74  1  0
 40 75  1  0
 41 76  1  0
 43 77  1  0
 43 78  1  0
M  END
$$$$
[H]O[C@@]1(C(=O)C([H])=C([H])[H])C([H])([H])C([H])([H])[C@]2([H])[C@]1(C([H])([H])[H])C([H])([H])C([H])([H])[C@]1([H])c3c([H])c([H])c([N+](=O)[O-])c([H])c3C([H])([H])C([H])([H])[C@]12[H]
     RDKit          3D

 51 54  0  0  0  0  0  0  0  0999 V2000
    1.6083   -1.4996    1.4183 C   0  0  0  0  0  0  0  0  0  0  0  0
    1.6732   -0.3941    0.3902 C   0  0  2  0  0  0  0  0  0  0  0  0
    1.1181    0.8780    0.8967 C   0  0  0  0  0  0  0  0  0  0  0  0
   -0.1557    1.3706    0.3584 C   0  0  0  0  0  0  0  0  0  0  0  0
   -0.9740    0.4970   -0.5174 C   0  0  1  0  0  0  0  0  0  0  0  0
   -0.4717   -0.9575   -0.5580 C   0  0  1  0  0  0  0  0  0  0  0  0
   -1.2941   -1.6772   -1.6083 C   0  0  0  0  0  0  0  0  0  0  0  0
   -2.7017   -1.7985   -1.0844 C   0  0  0  0  0  0  0  0  0  0  0  0
   -3.2234   -0.4974   -0.5640 C   0  0  0  0  0  0  0  0  0  0  0  0
   -4.5930   -0.4110   -0.3528 C   0  0  0  0  0  0  0  0  0  0  0  0
   -5.1667    0.7376    0.1209 C   0  0  0  0  0  0  0  0  0  0  0  0
   -4.3628    1.8208    0.3896 C   0  0  0  0  0  0  0  0  0  0  0  0
   -2.9789    1.7312    0.1754 C   0  0  0  0  0  0  0  0  0  0  0  0
   -2.4163    0.5758   -0.2992 C   0  0  0  0  0  0  0  0  0  0  0  0
   -6.5825    0.8483    0.3466 N   0  0  0  0  0  0  0  0  0  0  0  0
   -7.3496   -0.2422    0.0705 O   0  0  0  0  0  0  0  0  0  0  0  0
   -7.0869    1.8977    0.7768 O   0  0  0  0  0  0  0  0  0  0  0  0
    0.9472   -0.8161   -0.8951 C   0  0  2  0  0  0  0  0  0  0  0  0
    1.7260   -1.9989   -1.2802 C   0  0  0  0  0  0  0  0  0  0  0  0
    3.1419   -1.3947   -1.2321 C   0  0  0  0  0  0  0  0  0  0  0  0
    3.0821   -0.3425   -0.1256 C   0  0  2  0  0  0  0  0  0  0  0  0
    4.0012   -0.7807    0.8491 O   0  0  0  0  0  0  0  0  0  0  0  0
    3.5068    0.9900   -0.5985 C   0  0  0  0  0  0  0  0  0  0  0  0
    2.8785    1.6336   -1.4793 O   0  0  0  0  0  0  0  0  0  0  0  0
    4.7050    1.6277   -0.0460 C   0  0  0  0  0  0  0  0  0  0  0  0
    5.1152    2.8089   -0.4388 C   0  0  0  0  0  0  0  0  0  0  0  0
    0.9092   -2.3059    1.1693 H   0  0  0  0  0  0  0  0  0  0  0  0
    1.2173   -1.0365    2.3637 H   0  0  0  0  0  0  0  0  0  0  0  0
    2.5719   -1.9438    1.6763 H   0  0  0  0  0  0  0  0  0  0  0  0
    1.9368    1.6552    0.7950 H   0  0  0  0  0  0  0  0  0  0  0  0
    1.0544    0.7710    2.0240 H   0  0  0  0  0  0  0  0  0  0  0  0
   -0.8251    1.6726    1.2208 H   0  0  0  0  0  0  0  0  0  0  0  0
    0.0311    2.3637   -0.1528 H   0  0  0  0  0  0  0  0  0  0  0  0
   -0.8045    0.8462   -1.5824 H   0  0  0  0  0  0  0  0  0  0  0  0
   -0.7349   -1.3844    0.4082 H   0  0  0  0  0  0  0  0  0  0  0  0
   -1.2647   -1.1801   -2.5847 H   0  0  0  0  0  0  0  0  0  0  0  0
   -0.8856   -2.6964   -1.7054 H   0  0  0  0  0  0  0  0  0  0  0  0
   -3.3638   -2.1921   -1.8768 H   0  0  0  0  0  0  0  0  0  0  0  0
   -2.7171   -2.5641   -0.2638 H   0  0  0  0  0  0  0  0  0  0  0  0
   -5.2247   -1.2559   -0.5618 H   0  0  0  0  0  0  0  0  0  0  0  0
   -4.8231    2.7196    0.7617 H   0  0  0  0  0  0  0  0  0  0  0  0
   -2.4303    2.6325    0.4144 H   0  0  0  0  0  0  0  0  0  0  0  0
    1.0880   -0.0319   -1.6602 H   0  0  0  0  0  0  0  0  0  0  0  0
    1.7026   -2.8633   -0.6219 H   0  0  0  0  0  0  0  0  0  0  0  0
    1.5024   -2.3071   -2.3301 H   0  0  0  0  0  0  0  0  0  0  0  0
    3.2362   -0.8274   -2.1888 H   0  0  0  0  0  0  0  0  0  0  0  0
    3.9068   -2.1468   -1.0755 H   0  0  0  0  0  0  0  0  0  0  0  0
    3.9257   -0.2753    1.6779 H   0  0  0  0  0  0  0  0  0  0  0  0
    5.2904    1.1156    0.7217 H   0  0  0  0  0  0  0  0  0  0  0  0
    5.9920    3.2775   -0.0356 H   0  0  0  0  0  0  0  0  0  0  0  0
    4.5631    3.3502   -1.1981 H   0  0  0  0  0  0  0  0  0  0  0  0
  2  1  1  1
  2  3  1  0
  3  4  1  0
  4  5  1  0
  5  6  1  0
  6  7  1  0
  7  8  1  0
  8  9  1  0
  9 10  2  0
 10 11  1  0
 11 12  2  0
 12 13  1  0
 13 14  2  0
 11 15  1  0
 15 16  1  0
 15 17  2  0
  6 18  1  0
 18 19  1  0
 19 20  1  0
 20 21  1  0
 21 22  1  1
 21 23  1  0
 23 24  2  0
 23 25  1  0
 25 26  2  3
 18  2  1  0
 21  2  1  0
 14  5  1  0
 14  9  1  0
  1 27  1  0
  1 28  1  0
  1 29  1  0
  3 30  1  0
  3 31  1  0
  4 32  1  0
  4 33  1  0
  5 34  1  6
  6 35  1  1
  7 36  1  0
  7 37  1  0
  8 38  1  0
  8 39  1  0
 10 40  1  0
 12 41  1  0
 13 42  1  0
 18 43  1  6
 19 44  1  0
 19 45  1  0
 20 46  1  0
 20 47  1  0
 22 48  1  0
 25 49  1  0
 26 50  1  0
 26 51  1  0
M  CHG  2  15   1  16  -1
M  END
$$$$
[H]OC(=O)c1c(C([H])([H])[H])nc(-c2c([H])c([H])c(OC([H])(C([H])([H])[H])C([H])([H])[H])c(C#N)c2[H])n1[H]
     RDKit          3D

 36 37  0  0  0  0  0  0  0  0999 V2000
   -5.4526    0.7071    0.6904 C   0  0  0  0  0  0  0  0  0  0  0  0
   -4.5453   -0.3286   -0.0249 C   0  0  0  0  0  0  0  0  0  0  0  0
   -5.3286   -0.6387   -1.3322 C   0  0  0  0  0  0  0  0  0  0  0  0
   -3.3282    0.1137   -0.2832 O   0  0  0  0  0  0  0  0  0  0  0  0
   -2.0171    0.0230   -0.1356 C   0  0  0  0  0  0  0  0  0  0  0  0
   -1.2227    0.9831   -0.8082 C   0  0  0  0  0  0  0  0  0  0  0  0
    0.1409    0.9979   -0.7366 C   0  0  0  0  0  0  0  0  0  0  0  0
    0.7798    0.0533    0.0110 C   0  0  0  0  0  0  0  0  0  0  0  0
    0.0310   -0.8878    0.6721 C   0  0  0  0  0  0  0  0  0  0  0  0
   -1.3632   -0.9252    0.6157 C   0  0  0  0  0  0  0  0  0  0  0  0
   -2.0652   -1.9648    1.3535 C   0  0  0  0  0  0  0  0  0  0  0  0
   -2.5944   -2.7980    1.9468 N   0  0  0  0  0  0  0  0  0  0  0  0
    2.2333    0.0241    0.1211 C   0  0  0  0  0  0  0  0  0  0  0  0
    2.9709   -0.8459    0.8188 N   0  0  0  0  0  0  0  0  0  0  0  0
    4.2839   -0.5527    0.6783 C   0  0  0  0  0  0  0  0  0  0  0  0
    5.4142   -1.2838    1.2956 C   0  0  0  0  0  0  0  0  0  0  0  0
    4.3600    0.5506   -0.1452 C   0  0  0  0  0  0  0  0  0  0  0  0
    3.0964    0.8736   -0.4642 N   0  0  0  0  0  0  0  0  0  0  0  0
    5.5934    1.2046   -0.5614 C   0  0  0  0  0  0  0  0  0  0  0  0
    5.5916    2.3139   -1.3943 O   0  0  0  0  0  0  0  0  0  0  0  0
    6.7095    0.7774   -0.1731 O   0  0  0  0  0  0  0  0  0  0  0  0
   -5.7528    1.4847   -0.0436 H   0  0  0  0  0  0  0  0  0  0  0  0
   -6.3697    0.1788    1.0232 H   0  0  0  0  0  0  0  0  0  0  0  0
   -4.9443    1.1318    1.5632 H   0  0  0  0  0  0  0  0  0  0  0  0
   -4.6168   -1.2140    0.6356 H   0  0  0  0  0  0  0  0  0  0  0  0
   -5.7413    0.3039   -1.7490 H   0  0  0  0  0  0  0  0  0  0  0  0
   -6.1437   -1.3256   -1.0316 H   0  0  0  0  0  0  0  0  0  0  0  0
   -4.6779   -1.1112   -2.0696 H   0  0  0  0  0  0  0  0  0  0  0  0
   -1.7145    1.7364   -1.4034 H   0  0  0  0  0  0  0  0  0  0  0  0
    0.7593    1.7339   -1.2516 H   0  0  0  0  0  0  0  0  0  0  0  0
    0.5360   -1.6556    1.2790 H   0  0  0  0  0  0  0  0  0  0  0  0
    6.2012   -1.5196    0.5628 H   0  0  0  0  0  0  0  0  0  0  0  0
    5.0313   -2.2820    1.6549 H   0  0  0  0  0  0  0  0  0  0  0  0
    5.8167   -0.7826    2.1977 H   0  0  0  0  0  0  0  0  0  0  0  0
    2.8477    1.6641   -1.0727 H   0  0  0  0  0  0  0  0  0  0  0  0
    5.4810    3.2603   -1.0396 H   0  0  0  0  0  0  0  0  0  0  0  0
  1  2  1  0
  2  3  1  0
  2  4  1  0
  4  5  1  0
  5  6  2  0
  6  7  1  0
  7  8  2  0
  8  9  1  0
  9 10  2  0
 10 11  1  0
 11 12  3  0
  8 13  1  0
 13 14  2  0
 14 15  1  0
 15 16  1  0
 15 17  2  0
 17 18  1  0
 17 19  1  0
 19 20  1  0
 19 21  2  0
 10  5  1  0
 18 13  1  0
  1 22  1  0
  1 23  1  0
  1 24  1  0
  2 25  1  0
  3 26  1  0
  3 27  1  0
  3 28  1  0
  6 29  1  0
  7 30  1  0
  9 31  1  0
 16 32  1  0
 16 33  1  0
 16 34  1  0
 18 35  1  0
 20 36  1  0
M  END
$$$$
[H]c1nc(C(=O)N([H])c2nnc(C(F)(F)F)o2)c([H])c(N([H])C([H])([H])c2c([H])c([H])c(Cl)c([H])c2[H])c1S(=O)(=O)C1([H])C([H])([H])C([H])([H])C([H])([H])C1([H])[H]
     RDKit          3D

 54 57  0  0  0  0  0  0  0  0999 V2000
   -5.7713    6.0654   -1.1748 Cl  0  0  0  0  0  0  0  0  0  0  0  0
   -4.4367    5.0250   -0.7583 C   0  0  0  0  0  0  0  0  0  0  0  0
   -3.1811    5.5637   -0.8349 C   0  0  0  0  0  0  0  0  0  0  0  0
   -2.0987    4.7526   -0.5026 C   0  0  0  0  0  0  0  0  0  0  0  0
   -2.3015    3.4507   -0.1190 C   0  0  0  0  0  0  0  0  0  0  0  0
   -1.1713    2.5761    0.2291 C   0  0  0  0  0  0  0  0  0  0  0  0
   -1.4487    1.1712   -0.0536 N   0  0  0  0  0  0  0  0  0  0  0  0
   -0.4038    0.2533    0.2362 C   0  0  0  0  0  0  0  0  0  0  0  0
    0.8739    0.6664    0.5119 C   0  0  0  0  0  0  0  0  0  0  0  0
    1.9577   -0.1813    0.7482 C   0  0  0  0  0  0  0  0  0  0  0  0
    1.6851   -1.4812    0.6877 N   0  0  0  0  0  0  0  0  0  0  0  0
    0.4277   -1.9727    0.4027 C   0  0  0  0  0  0  0  0  0  0  0  0
   -0.6315   -1.0988    0.1715 C   0  0  0  0  0  0  0  0  0  0  0  0
   -2.2224   -1.7661   -0.1780 S   0  0  0  0  0  0  0  0  0  0  0  0
   -2.5741   -1.4452   -1.6288 O   0  0  0  0  0  0  0  0  0  0  0  0
   -3.1942   -1.1167    0.7236 O   0  0  0  0  0  0  0  0  0  0  0  0
   -2.1496   -3.4920   -0.0487 C   0  0  0  0  0  0  0  0  0  0  0  0
   -3.5585   -4.1332    0.0189 C   0  0  0  0  0  0  0  0  0  0  0  0
   -3.3319   -5.5855   -0.2810 C   0  0  0  0  0  0  0  0  0  0  0  0
   -1.8804   -5.6716   -0.7326 C   0  0  0  0  0  0  0  0  0  0  0  0
   -1.6129   -4.2517   -1.2309 C   0  0  0  0  0  0  0  0  0  0  0  0
    3.2586    0.3969    1.0071 C   0  0  0  0  0  0  0  0  0  0  0  0
    3.1992    1.7646    1.0480 O   0  0  0  0  0  0  0  0  0  0  0  0
    4.4446   -0.0729    1.2117 N   0  0  0  0  0  0  0  0  0  0  0  0
    5.5942    0.8139    0.7326 C   0  0  0  0  0  0  0  0  0  0  0  0
    5.2292    1.7722   -0.2009 N   0  0  0  0  0  0  0  0  0  0  0  0
    6.3577    2.4151   -0.5092 N   0  0  0  0  0  0  0  0  0  0  0  0
    7.3630    1.8660    0.2105 C   0  0  0  0  0  0  0  0  0  0  0  0
    6.7716    0.8922    0.9349 O   0  0  0  0  0  0  0  0  0  0  0  0
    8.7927    2.2487    0.1696 C   0  0  0  0  0  0  0  0  0  0  0  0
    9.1233    2.8773    1.3125 F   0  0  0  0  0  0  0  0  0  0  0  0
    9.5029    1.0397    0.1006 F   0  0  0  0  0  0  0  0  0  0  0  0
    9.0501    3.0090   -0.9723 F   0  0  0  0  0  0  0  0  0  0  0  0
   -3.5691    2.9237   -0.0434 C   0  0  0  0  0  0  0  0  0  0  0  0
   -4.6588    3.7356   -0.3744 C   0  0  0  0  0  0  0  0  0  0  0  0
   -2.9578    6.5473   -1.1454 H   0  0  0  0  0  0  0  0  0  0  0  0
   -1.0775    5.1215   -0.5355 H   0  0  0  0  0  0  0  0  0  0  0  0
   -0.9195    2.6823    1.3552 H   0  0  0  0  0  0  0  0  0  0  0  0
   -0.2430    2.9523   -0.2351 H   0  0  0  0  0  0  0  0  0  0  0  0
   -2.3574    0.8800   -0.4325 H   0  0  0  0  0  0  0  0  0  0  0  0
    1.0873    1.7170    0.5607 H   0  0  0  0  0  0  0  0  0  0  0  0
    0.2851   -3.0369    0.3780 H   0  0  0  0  0  0  0  0  0  0  0  0
   -1.6539   -3.8297    0.8906 H   0  0  0  0  0  0  0  0  0  0  0  0
   -3.9238   -3.9932    1.0298 H   0  0  0  0  0  0  0  0  0  0  0  0
   -4.2031   -3.6352   -0.7339 H   0  0  0  0  0  0  0  0  0  0  0  0
   -3.4595   -6.2507    0.6197 H   0  0  0  0  0  0  0  0  0  0  0  0
   -3.9420   -5.9273   -1.1370 H   0  0  0  0  0  0  0  0  0  0  0  0
   -1.2528   -5.8114    0.2095 H   0  0  0  0  0  0  0  0  0  0  0  0
   -1.7107   -6.4530   -1.4771 H   0  0  0  0  0  0  0  0  0  0  0  0
   -0.5221   -4.0873   -1.4027 H   0  0  0  0  0  0  0  0  0  0  0  0
   -2.1885   -4.0671   -2.1568 H   0  0  0  0  0  0  0  0  0  0  0  0
    4.9856   -1.0250    1.2670 H   0  0  0  0  0  0  0  0  0  0  0  0
   -3.7634    1.9114    0.2785 H   0  0  0  0  0  0  0  0  0  0  0  0
   -5.6182    3.2948   -0.3208 H   0  0  0  0  0  0  0  0  0  0  0  0
  1  2  1  0
  2  3  2  0
  3  4  1  0
  4  5  2  0
  5  6  1  0
  6  7  1  0
  7  8  1  0
  8  9  2  0
  9 10  1  0
 10 11  2  0
 11 12  1  0
 12 13  2  0
 13 14  1  0
 14 15  2  0
 14 16  2  0
 14 17  1  0
 17 18  1  0
 18 19  1  0
 19 20  1  0
 20 21  1  0
 10 22  1  0
 22 23  2  0
 22 24  1  0
 24 25  1  0
 25 26  2  0
 26 27  1  0
 27 28  2  0
 28 29  1  0
 28 30  1  0
 30 31  1  0
 30 32  1  0
 30 33  1  0
  5 34  1  0
 34 35  2  0
 35  2  1  0
 13  8  1  0
 21 17  1  0
 29 25  1  0
  3 36  1  0
  4 37  1  0
  6 38  1  0
  6 39  1  0
  7 40  1  0
  9 41  1  0
 12 42  1  0
 17 43  1  0
 18 44  1  0
 18 45  1  0
 19 46  1  0
 19 47  1  0
 20 48  1  0
 20 49  1  0
 21 50  1  0
 21 51  1  0
 24 52  1  0
 34 53  1  0
 35 54  1  0
M  END
$$$$
[H]c1nc(N([H])c2c([H])c([H])c(N3C([H])([H])C([H])([H])C([H])(N4C([H])([H])C([H])([H])N(C([H])([H])[H])C([H])([H])C4([H])[H])C([H])([H])C3([H])[H])c([H])c2OC([H])([H])[H])nc(N([H])c2c([H])c([H])c([H])c([H])c2S(=O)(=O)C([H])(C([H])([H])[H])C([H])([H])[H])c1Cl
     RDKit          3D

 82 86  0  0  0  0  0  0  0  0999 V2000
   -0.1870    3.7228   -1.2569 C   0  0  0  0  0  0  0  0  0  0  0  0
    0.4390    2.5297   -0.8437 O   0  0  0  0  0  0  0  0  0  0  0  0
   -0.3483    1.4775   -0.4024 C   0  0  0  0  0  0  0  0  0  0  0  0
   -1.7220    1.6350   -0.3827 C   0  0  0  0  0  0  0  0  0  0  0  0
   -2.5624    0.6308    0.0436 C   0  0  0  0  0  0  0  0  0  0  0  0
   -1.9599   -0.5357    0.4478 C   0  0  0  0  0  0  0  0  0  0  0  0
   -0.5748   -0.7280    0.4408 C   0  0  0  0  0  0  0  0  0  0  0  0
    0.2576    0.2764    0.0150 C   0  0  0  0  0  0  0  0  0  0  0  0
    1.6540    0.2011   -0.0367 N   0  0  0  0  0  0  0  0  0  0  0  0
    2.4984   -0.8842    0.3177 C   0  0  0  0  0  0  0  0  0  0  0  0
    2.1033   -2.0726    0.7812 N   0  0  0  0  0  0  0  0  0  0  0  0
    2.9559   -3.0558    1.0957 C   0  0  0  0  0  0  0  0  0  0  0  0
    4.3092   -2.8632    0.9451 C   0  0  0  0  0  0  0  0  0  0  0  0
    5.4455   -4.1449    1.3534 Cl  0  0  0  0  0  0  0  0  0  0  0  0
    4.7527   -1.6166    0.4572 C   0  0  0  0  0  0  0  0  0  0  0  0
    6.1380   -1.4466    0.3110 N   0  0  0  0  0  0  0  0  0  0  0  0
    6.9009   -0.3576   -0.1368 C   0  0  0  0  0  0  0  0  0  0  0  0
    6.2766    0.8084   -0.5266 C   0  0  0  0  0  0  0  0  0  0  0  0
    7.0240    1.9039   -0.9778 C   0  0  0  0  0  0  0  0  0  0  0  0
    8.3820    1.8034   -1.0274 C   0  0  0  0  0  0  0  0  0  0  0  0
    9.0024    0.6381   -0.6374 C   0  0  0  0  0  0  0  0  0  0  0  0
    8.2961   -0.4485   -0.1920 C   0  0  0  0  0  0  0  0  0  0  0  0
    9.0842   -1.8926    0.2913 S   0  0  0  0  0  0  0  0  0  0  0  0
    8.6633   -3.0312   -0.6035 O   0  0  0  0  0  0  0  0  0  0  0  0
    8.8235   -2.3045    1.7132 O   0  0  0  0  0  0  0  0  0  0  0  0
   10.8572   -1.7881    0.1370 C   0  0  0  0  0  0  0  0  0  0  0  0
   11.2609   -1.6791   -1.2975 C   0  0  0  0  0  0  0  0  0  0  0  0
   11.4760   -0.7869    1.0544 C   0  0  0  0  0  0  0  0  0  0  0  0
    3.8248   -0.7008    0.1721 N   0  0  0  0  0  0  0  0  0  0  0  0
   -3.9818    0.8060    0.0512 N   0  0  0  0  0  0  0  0  0  0  0  0
   -4.5241    1.9609   -0.5784 C   0  0  0  0  0  0  0  0  0  0  0  0
   -6.0011    1.9283   -0.8544 C   0  0  0  0  0  0  0  0  0  0  0  0
   -6.8245    1.3726    0.2584 C   0  0  0  0  0  0  0  0  0  0  0  0
   -6.0036    0.6088    1.2781 C   0  0  0  0  0  0  0  0  0  0  0  0
   -4.8657   -0.1463    0.6796 C   0  0  0  0  0  0  0  0  0  0  0  0
   -7.9560    0.6086   -0.0875 N   0  0  0  0  0  0  0  0  0  0  0  0
   -7.7905   -0.5856   -0.8057 C   0  0  0  0  0  0  0  0  0  0  0  0
   -9.1362   -1.0235   -1.3907 C   0  0  0  0  0  0  0  0  0  0  0  0
  -10.1390   -0.8718   -0.3544 N   0  0  0  0  0  0  0  0  0  0  0  0
  -10.0361   -1.8235    0.7053 C   0  0  0  0  0  0  0  0  0  0  0  0
  -10.3349    0.4834    0.0484 C   0  0  0  0  0  0  0  0  0  0  0  0
   -9.1475    1.3193   -0.4248 C   0  0  0  0  0  0  0  0  0  0  0  0
    0.5375    4.4499   -1.6799 H   0  0  0  0  0  0  0  0  0  0  0  0
   -0.9481    3.5330   -2.0530 H   0  0  0  0  0  0  0  0  0  0  0  0
   -0.6880    4.2523   -0.4156 H   0  0  0  0  0  0  0  0  0  0  0  0
   -2.1476    2.5764   -0.7105 H   0  0  0  0  0  0  0  0  0  0  0  0
   -2.6020   -1.3517    0.7883 H   0  0  0  0  0  0  0  0  0  0  0  0
   -0.2121   -1.6859    0.7807 H   0  0  0  0  0  0  0  0  0  0  0  0
    2.1500    1.0935   -0.3956 H   0  0  0  0  0  0  0  0  0  0  0  0
    2.6174   -4.0222    1.4737 H   0  0  0  0  0  0  0  0  0  0  0  0
    6.7215   -2.3022    0.5911 H   0  0  0  0  0  0  0  0  0  0  0  0
    5.2202    0.9989   -0.5296 H   0  0  0  0  0  0  0  0  0  0  0  0
    6.5603    2.8305   -1.2896 H   0  0  0  0  0  0  0  0  0  0  0  0
    9.0220    2.6252   -1.3712 H   0  0  0  0  0  0  0  0  0  0  0  0
   10.0936    0.6299   -0.7052 H   0  0  0  0  0  0  0  0  0  0  0  0
   11.2252   -2.8031    0.4806 H   0  0  0  0  0  0  0  0  0  0  0  0
   11.9033   -0.7785   -1.4926 H   0  0  0  0  0  0  0  0  0  0  0  0
   10.3307   -1.5514   -1.9199 H   0  0  0  0  0  0  0  0  0  0  0  0
   11.7765   -2.5763   -1.6995 H   0  0  0  0  0  0  0  0  0  0  0  0
   12.0225   -1.2557    1.8769 H   0  0  0  0  0  0  0  0  0  0  0  0
   12.1781   -0.1622    0.4319 H   0  0  0  0  0  0  0  0  0  0  0  0
   10.7434   -0.0899    1.5079 H   0  0  0  0  0  0  0  0  0  0  0  0
   -4.2803    2.8410    0.0525 H   0  0  0  0  0  0  0  0  0  0  0  0
   -3.9354    2.1199   -1.5269 H   0  0  0  0  0  0  0  0  0  0  0  0
   -6.3084    2.9635   -1.1164 H   0  0  0  0  0  0  0  0  0  0  0  0
   -6.1470    1.3325   -1.7818 H   0  0  0  0  0  0  0  0  0  0  0  0
   -7.2139    2.2642    0.8421 H   0  0  0  0  0  0  0  0  0  0  0  0
   -6.6586   -0.1075    1.8153 H   0  0  0  0  0  0  0  0  0  0  0  0
   -5.5929    1.2907    2.0626 H   0  0  0  0  0  0  0  0  0  0  0  0
   -5.1731   -0.8869   -0.0780 H   0  0  0  0  0  0  0  0  0  0  0  0
   -4.3121   -0.6097    1.5260 H   0  0  0  0  0  0  0  0  0  0  0  0
   -7.5080   -1.4012   -0.0997 H   0  0  0  0  0  0  0  0  0  0  0  0
   -7.0082   -0.5774   -1.5870 H   0  0  0  0  0  0  0  0  0  0  0  0
   -9.4445   -0.3742   -2.2343 H   0  0  0  0  0  0  0  0  0  0  0  0
   -9.0261   -2.0597   -1.7202 H   0  0  0  0  0  0  0  0  0  0  0  0
   -9.1822   -2.5377    0.5321 H   0  0  0  0  0  0  0  0  0  0  0  0
   -9.9814   -1.3564    1.7041 H   0  0  0  0  0  0  0  0  0  0  0  0
  -10.9456   -2.4645    0.6802 H   0  0  0  0  0  0  0  0  0  0  0  0
  -11.2261    0.8855   -0.4545 H   0  0  0  0  0  0  0  0  0  0  0  0
  -10.4517    0.5517    1.1515 H   0  0  0  0  0  0  0  0  0  0  0  0
   -9.2778    1.5186   -1.4917 H   0  0  0  0  0  0  0  0  0  0  0  0
   -9.1611    2.2698    0.1783 H   0  0  0  0  0  0  0  0  0  0  0  0
  1  2  1  0
  2  3  1  0
  3  4  2  0
  4  5  1  0
  5  6  2  0
  6  7  1  0
  7  8  2  0
  8  9  1  0
  9 10  1  0
 10 11  2  0
 11 12  1  0
 12 13  2  0
 13 14  1  0
 13 15  1  0
 15 16  1  0
 16 17  1  0
 17 18  2  0
 18 19  1  0
 19 20  2  0
 20 21  1  0
 21 22  2  0
 22 23  1  0
 23 24  2  0
 23 25  2  0
 23 26  1  0
 26 27  1  0
 26 28  1  0
 15 29  2  0
  5 30  1  0
 30 31  1  0
 31 32  1  0
 32 33  1  0
 33 34  1  0
 34 35  1  0
 33 36  1  0
 36 37  1  0
 37 38  1  0
 38 39  1  0
 39 40  1  0
 39 41  1  0
 41 42  1  0
  8  3  1  0
 29 10  1  0
 35 30  1  0
 42 36  1  0
 22 17  1  0
  1 43  1  0
  1 44  1  0
  1 45  1  0
  4 46  1  0
  6 47  1  0
  7 48  1  0
  9 49  1  0
 12 50  1  0
 16 51  1  0
 18 52  1  0
 19 53  1  0
 20 54  1  0
 21 55  1  0
 26 56  1  0
 27 57  1  0
 27 58  1  0
 27 59  1  0
 28 60  1  0
 28 61  1  0
 28 62  1  0
 31 63  1  0
 31 64  1  0
 32 65  1  0
 32 66  1  0
 33 67  1  0
 34 68  1  0
 34 69  1  0
 35 70  1  0
 35 71  1  0
 37 72  1  0
 37 73  1  0
 38 74  1  0
 38 75  1  0
 40 76  1  0
 40 77  1  0
 40 78  1  0
 41 79  1  0
 41 80  1  0
 42 81  1  0
 42 82  1  0
M  END
$$$$
[H]OC([H])([H])C([H])([H])Oc1c(-c2c([H])c([H])c(C3([H])C([H])([H])C([H])([H])N(C(=O)C([H])([H])F)C([H])([H])C3([H])[H])c([H])c2[H])c([H])nc2c([H])c([H])c(N([H])S(=O)(=O)c3c([H])nc(F)c([H])c3[H])c([H])c12
     RDKit          3D

 69 73  0  0  0  0  0  0  0  0999 V2000
   11.1706   -1.1014    1.1195 F   0  0  0  0  0  0  0  0  0  0  0  0
    9.8600   -1.2574    0.7044 C   0  0  0  0  0  0  0  0  0  0  0  0
    9.1322    0.0318    0.7501 C   0  0  0  0  0  0  0  0  0  0  0  0
    9.7498    1.0585    1.1320 O   0  0  0  0  0  0  0  0  0  0  0  0
    7.7663    0.1402    0.3775 N   0  0  0  0  0  0  0  0  0  0  0  0
    7.0444    1.3793    0.4142 C   0  0  0  0  0  0  0  0  0  0  0  0
    5.5765    1.0378    0.5956 C   0  0  0  0  0  0  0  0  0  0  0  0
    5.1265    0.4243   -0.7371 C   0  0  0  0  0  0  0  0  0  0  0  0
    6.0052   -0.7340   -1.0961 C   0  0  0  0  0  0  0  0  0  0  0  0
    7.0559   -1.0416   -0.0601 C   0  0  0  0  0  0  0  0  0  0  0  0
    3.7070    0.0082   -0.6607 C   0  0  0  0  0  0  0  0  0  0  0  0
    3.3135   -0.9722    0.2179 C   0  0  0  0  0  0  0  0  0  0  0  0
    1.9749   -1.3729    0.2981 C   0  0  0  0  0  0  0  0  0  0  0  0
    1.0367   -0.7755   -0.5161 C   0  0  0  0  0  0  0  0  0  0  0  0
    1.4461    0.2052   -1.3912 C   0  0  0  0  0  0  0  0  0  0  0  0
    2.7761    0.6070   -1.4746 C   0  0  0  0  0  0  0  0  0  0  0  0
   -0.3682   -1.1566   -0.4730 C   0  0  0  0  0  0  0  0  0  0  0  0
   -0.7571   -2.4947   -0.4526 C   0  0  0  0  0  0  0  0  0  0  0  0
   -2.0516   -2.8342   -0.4140 N   0  0  0  0  0  0  0  0  0  0  0  0
   -3.0339   -1.9028   -0.3931 C   0  0  0  0  0  0  0  0  0  0  0  0
   -4.3576   -2.2729   -0.3539 C   0  0  0  0  0  0  0  0  0  0  0  0
   -5.3555   -1.2907   -0.3331 C   0  0  0  0  0  0  0  0  0  0  0  0
   -5.0517    0.0304   -0.3502 C   0  0  0  0  0  0  0  0  0  0  0  0
   -5.9556    1.1159   -0.3536 N   0  0  0  0  0  0  0  0  0  0  0  0
   -7.2429    1.4342    0.6870 S   0  0  0  0  0  0  0  0  0  0  0  0
   -6.7924    1.6815    2.1116 O   0  0  0  0  0  0  0  0  0  0  0  0
   -7.8910    2.7541    0.2669 O   0  0  0  0  0  0  0  0  0  0  0  0
   -8.4397    0.1823    0.6163 C   0  0  0  0  0  0  0  0  0  0  0  0
   -9.3606    0.0609   -0.4017 C   0  0  0  0  0  0  0  0  0  0  0  0
  -10.3166   -0.9285   -0.4022 C   0  0  0  0  0  0  0  0  0  0  0  0
  -10.3590   -1.8193    0.6338 C   0  0  0  0  0  0  0  0  0  0  0  0
  -11.3050   -2.7942    0.6283 F   0  0  0  0  0  0  0  0  0  0  0  0
   -9.4577   -1.7029    1.6333 N   0  0  0  0  0  0  0  0  0  0  0  0
   -8.5222   -0.7411    1.6416 C   0  0  0  0  0  0  0  0  0  0  0  0
   -3.6901    0.3595   -0.3906 C   0  0  0  0  0  0  0  0  0  0  0  0
   -2.6759   -0.5651   -0.4127 C   0  0  0  0  0  0  0  0  0  0  0  0
   -1.3383   -0.1814   -0.4528 C   0  0  0  0  0  0  0  0  0  0  0  0
   -1.0438    1.1626   -0.4705 O   0  0  0  0  0  0  0  0  0  0  0  0
   -0.8516    1.8940    0.7252 C   0  0  0  0  0  0  0  0  0  0  0  0
   -0.5425    3.3442    0.3796 C   0  0  0  0  0  0  0  0  0  0  0  0
   -0.3663    3.9961    1.6194 O   0  0  0  0  0  0  0  0  0  0  0  0
    9.3719   -1.9606    1.3993 H   0  0  0  0  0  0  0  0  0  0  0  0
    9.8123   -1.7261   -0.3107 H   0  0  0  0  0  0  0  0  0  0  0  0
    7.4088    2.0726    1.2198 H   0  0  0  0  0  0  0  0  0  0  0  0
    7.1487    1.8667   -0.5784 H   0  0  0  0  0  0  0  0  0  0  0  0
    5.0360    1.9687    0.7933 H   0  0  0  0  0  0  0  0  0  0  0  0
    5.4589    0.2929    1.4247 H   0  0  0  0  0  0  0  0  0  0  0  0
    5.2864    1.2208   -1.4893 H   0  0  0  0  0  0  0  0  0  0  0  0
    6.5009   -0.5918   -2.0814 H   0  0  0  0  0  0  0  0  0  0  0  0
    5.3732   -1.6573   -1.1892 H   0  0  0  0  0  0  0  0  0  0  0  0
    6.5701   -1.4656    0.8547 H   0  0  0  0  0  0  0  0  0  0  0  0
    7.7862   -1.7382   -0.4935 H   0  0  0  0  0  0  0  0  0  0  0  0
    4.0348   -1.4467    0.8589 H   0  0  0  0  0  0  0  0  0  0  0  0
    1.6969   -2.1527    1.0052 H   0  0  0  0  0  0  0  0  0  0  0  0
    0.7739    0.7286   -2.0702 H   0  0  0  0  0  0  0  0  0  0  0  0
    3.0957    1.3770   -2.1620 H   0  0  0  0  0  0  0  0  0  0  0  0
   -0.0067   -3.2408   -0.4682 H   0  0  0  0  0  0  0  0  0  0  0  0
   -4.6480   -3.3266   -0.3385 H   0  0  0  0  0  0  0  0  0  0  0  0
   -6.3681   -1.6054   -0.3173 H   0  0  0  0  0  0  0  0  0  0  0  0
   -5.7671    1.8195   -1.1451 H   0  0  0  0  0  0  0  0  0  0  0  0
   -9.3118    0.7838   -1.2243 H   0  0  0  0  0  0  0  0  0  0  0  0
  -11.0152   -0.9872   -1.2153 H   0  0  0  0  0  0  0  0  0  0  0  0
   -7.8173   -0.6641    2.4403 H   0  0  0  0  0  0  0  0  0  0  0  0
   -3.3865    1.4060   -0.4064 H   0  0  0  0  0  0  0  0  0  0  0  0
   -1.7752    1.9232    1.3451 H   0  0  0  0  0  0  0  0  0  0  0  0
   -0.0662    1.4577    1.3721 H   0  0  0  0  0  0  0  0  0  0  0  0
   -1.3940    3.8309   -0.1244 H   0  0  0  0  0  0  0  0  0  0  0  0
    0.3627    3.4573   -0.2260 H   0  0  0  0  0  0  0  0  0  0  0  0
    0.2238    3.3887    2.1447 H   0  0  0  0  0  0  0  0  0  0  0  0
  1  2  1  0
  2  3  1  0
  3  4  2  0
  3  5  1  0
  5  6  1  0
  6  7  1  0
  7  8  1  0
  8  9  1  0
  9 10  1  0
  8 11  1  0
 11 12  2  0
 12 13  1  0
 13 14  2  0
 14 15  1  0
 15 16  2  0
 14 17  1  0
 17 18  2  0
 18 19  1  0
 19 20  2  0
 20 21  1  0
 21 22  2  0
 22 23  1  0
 23 24  1  0
 24 25  1  0
 25 26  2  0
 25 27  2  0
 25 28  1  0
 28 29  2  0
 29 30  1  0
 30 31  2  0
 31 32  1  0
 31 33  1  0
 33 34  2  0
 23 35  2  0
 35 36  1  0
 36 37  2  0
 37 38  1  0
 38 39  1  0
 39 40  1  0
 40 41  1  0
 10  5  1  0
 16 11  1  0
 37 17  1  0
 36 20  1  0
 34 28  1  0
  2 42  1  0
  2 43  1  0
  6 44  1  0
  6 45  1  0
  7 46  1  0
  7 47  1  0
  8 48  1  0
  9 49  1  0
  9 50  1  0
 10 51  1  0
 10 52  1  0
 12 53  1  0
 13 54  1  0
 15 55  1  0
 16 56  1  0
 18 57  1  0
 21 58  1  0
 22 59  1  0
 24 60  1  0
 29 61  1  0
 30 62  1  0
 34 63  1  0
 35 64  1  0
 39 65  1  0
 39 66  1  0
 40 67  1  0
 40 68  1  0
 41 69  1  0
M  END
$$$$
[H]c1nc(N([H])c2c([H])c(OC([H])([H])[H])c(OC([H])([H])[H])c(OC([H])([H])[H])c2[H])nc(N([H])c2c([H])c([H])c(C([H])([H])N3C([H])([H])C([H])([H])N(C([H])([H])[H])C([H])([H])C3([H])[H])c([H])c2[H])c1C#N
     RDKit          3D

 67 70  0  0  0  0  0  0  0  0999 V2000
    4.7526    4.1680   -0.9779 C   0  0  0  0  0  0  0  0  0  0  0  0
    5.8991    3.3556   -0.6897 O   0  0  0  0  0  0  0  0  0  0  0  0
    5.6777    2.0191   -0.3521 C   0  0  0  0  0  0  0  0  0  0  0  0
    4.4105    1.4882   -0.2944 C   0  0  0  0  0  0  0  0  0  0  0  0
    4.1949    0.1405    0.0467 C   0  0  0  0  0  0  0  0  0  0  0  0
    2.8608   -0.3146    0.0608 N   0  0  0  0  0  0  0  0  0  0  0  0
    2.3516   -1.4762    0.6868 C   0  0  0  0  0  0  0  0  0  0  0  0
    3.1001   -2.3326    1.3916 N   0  0  0  0  0  0  0  0  0  0  0  0
    2.6366   -3.4390    1.9936 C   0  0  0  0  0  0  0  0  0  0  0  0
    1.2932   -3.6932    1.8648 C   0  0  0  0  0  0  0  0  0  0  0  0
    0.7854   -4.8541    2.4914 C   0  0  0  0  0  0  0  0  0  0  0  0
    0.3542   -5.7992    3.0001 N   0  0  0  0  0  0  0  0  0  0  0  0
    0.4471   -2.8426    1.1426 C   0  0  0  0  0  0  0  0  0  0  0  0
   -0.9119   -3.1832    1.0819 N   0  0  0  0  0  0  0  0  0  0  0  0
   -1.9557   -2.4960    0.4076 C   0  0  0  0  0  0  0  0  0  0  0  0
   -1.7875   -1.5179   -0.5383 C   0  0  0  0  0  0  0  0  0  0  0  0
   -2.8800   -0.8741   -1.1391 C   0  0  0  0  0  0  0  0  0  0  0  0
   -4.1779   -1.1854   -0.8158 C   0  0  0  0  0  0  0  0  0  0  0  0
   -5.3416   -0.5076   -1.4418 C   0  0  0  0  0  0  0  0  0  0  0  0
   -5.0223    0.7617   -2.0324 N   0  0  0  0  0  0  0  0  0  0  0  0
   -6.2227    1.3238   -2.6548 C   0  0  0  0  0  0  0  0  0  0  0  0
   -7.3515    1.5095   -1.7234 C   0  0  0  0  0  0  0  0  0  0  0  0
   -7.0536    2.0674   -0.4557 N   0  0  0  0  0  0  0  0  0  0  0  0
   -8.0565    1.8469    0.5455 C   0  0  0  0  0  0  0  0  0  0  0  0
   -5.7190    1.9429    0.0084 C   0  0  0  0  0  0  0  0  0  0  0  0
   -4.6749    1.7713   -1.0237 C   0  0  0  0  0  0  0  0  0  0  0  0
   -4.3540   -2.1684    0.1342 C   0  0  0  0  0  0  0  0  0  0  0  0
   -3.2907   -2.8021    0.7259 C   0  0  0  0  0  0  0  0  0  0  0  0
    1.0416   -1.7864    0.6008 N   0  0  0  0  0  0  0  0  0  0  0  0
    5.3110   -0.6022    0.3138 C   0  0  0  0  0  0  0  0  0  0  0  0
    6.6036   -0.0544    0.2536 C   0  0  0  0  0  0  0  0  0  0  0  0
    7.7232   -0.8254    0.5291 O   0  0  0  0  0  0  0  0  0  0  0  0
    7.6304   -2.1912    0.8821 C   0  0  0  0  0  0  0  0  0  0  0  0
    6.7960    1.2623   -0.0802 C   0  0  0  0  0  0  0  0  0  0  0  0
    8.0649    1.8276   -0.1463 O   0  0  0  0  0  0  0  0  0  0  0  0
    8.6049    2.4234    1.0374 C   0  0  0  0  0  0  0  0  0  0  0  0
    4.0310    4.1188   -0.1155 H   0  0  0  0  0  0  0  0  0  0  0  0
    5.0350    5.2256   -1.0955 H   0  0  0  0  0  0  0  0  0  0  0  0
    4.2748    3.8214   -1.9068 H   0  0  0  0  0  0  0  0  0  0  0  0
    3.5512    2.0939   -0.5095 H   0  0  0  0  0  0  0  0  0  0  0  0
    2.1082    0.2645   -0.4621 H   0  0  0  0  0  0  0  0  0  0  0  0
    3.3183   -4.0643    2.5374 H   0  0  0  0  0  0  0  0  0  0  0  0
   -1.2200   -4.0745    1.6005 H   0  0  0  0  0  0  0  0  0  0  0  0
   -0.8003   -1.2291   -0.8495 H   0  0  0  0  0  0  0  0  0  0  0  0
   -2.7037   -0.1062   -1.8865 H   0  0  0  0  0  0  0  0  0  0  0  0
   -5.7887   -1.1463   -2.2330 H   0  0  0  0  0  0  0  0  0  0  0  0
   -6.1657   -0.3454   -0.7048 H   0  0  0  0  0  0  0  0  0  0  0  0
   -5.9114    2.3129   -3.0844 H   0  0  0  0  0  0  0  0  0  0  0  0
   -6.4943    0.6028   -3.4629 H   0  0  0  0  0  0  0  0  0  0  0  0
   -8.1001    2.1906   -2.2192 H   0  0  0  0  0  0  0  0  0  0  0  0
   -7.8874    0.5476   -1.5875 H   0  0  0  0  0  0  0  0  0  0  0  0
   -7.6183    1.4726    1.5062 H   0  0  0  0  0  0  0  0  0  0  0  0
   -8.7497    1.0682    0.1996 H   0  0  0  0  0  0  0  0  0  0  0  0
   -8.6128    2.7756    0.8221 H   0  0  0  0  0  0  0  0  0  0  0  0
   -5.6799    1.0630    0.7045 H   0  0  0  0  0  0  0  0  0  0  0  0
   -5.4592    2.8289    0.6218 H   0  0  0  0  0  0  0  0  0  0  0  0
   -4.5608    2.7240   -1.6187 H   0  0  0  0  0  0  0  0  0  0  0  0
   -3.7072    1.5929   -0.5477 H   0  0  0  0  0  0  0  0  0  0  0  0
   -5.3898   -2.4110    0.3863 H   0  0  0  0  0  0  0  0  0  0  0  0
   -3.4587   -3.5721    1.4713 H   0  0  0  0  0  0  0  0  0  0  0  0
    5.2300   -1.6357    0.5658 H   0  0  0  0  0  0  0  0  0  0  0  0
    7.2309   -2.7240   -0.0045 H   0  0  0  0  0  0  0  0  0  0  0  0
    8.6608   -2.5393    1.1180 H   0  0  0  0  0  0  0  0  0  0  0  0
    6.9506   -2.2497    1.7560 H   0  0  0  0  0  0  0  0  0  0  0  0
    8.0081    2.1154    1.9345 H   0  0  0  0  0  0  0  0  0  0  0  0
    9.6366    2.1061    1.2295 H   0  0  0  0  0  0  0  0  0  0  0  0
    8.5331    3.5299    1.0016 H   0  0  0  0  0  0  0  0  0  0  0  0
  1  2  1  0
  2  3  1  0
  3  4  2  0
  4  5  1  0
  5  6  1  0
  6  7  1  0
  7  8  2  0
  8  9  1  0
  9 10  2  0
 10 11  1  0
 11 12  3  0
 10 13  1  0
 13 14  1  0
 14 15  1  0
 15 16  2  0
 16 17  1  0
 17 18  2  0
 18 19  1  0
 19 20  1  0
 20 21  1  0
 21 22  1  0
 22 23  1  0
 23 24  1  0
 23 25  1  0
 25 26  1  0
 18 27  1  0
 27 28  2  0
 13 29  2  0
  5 30  2  0
 30 31  1  0
 31 32  1  0
 32 33  1  0
 31 34  2  0
 34 35  1  0
 35 36  1  0
 34  3  1  0
 29  7  1  0
 28 15  1  0
 26 20  1  0
  1 37  1  0
  1 38  1  0
  1 39  1  0
  4 40  1  0
  6 41  1  0
  9 42  1  0
 14 43  1  0
 16 44  1  0
 17 45  1  0
 19 46  1  0
 19 47  1  0
 21 48  1  0
 21 49  1  0
 22 50  1  0
 22 51  1  0
 24 52  1  0
 24 53  1  0
 24 54  1  0
 25 55  1  0
 25 56  1  0
 26 57  1  0
 26 58  1  0
 27 59  1  0
 28 60  1  0
 30 61  1  0
 33 62  1  0
 33 63  1  0
 33 64  1  0
 36 65  1  0
 36 66  1  0
 36 67  1  0
M  END
$$$$
[H]c1nc(Br)c([H])c([H])c1OC([H])([H])C([H])([H])C([H])([H])N1C([H])([H])C([H])([H])C2([H])N([H])C2([H])C1([H])[H]
     RDKit          3D

 36 38  0  0  0  0  0  0  0  0999 V2000
   -4.4577   -0.2939   -0.7102 C   0  0  0  0  0  0  0  0  0  0  0  0
   -3.2821   -1.1810   -1.0194 C   0  0  0  0  0  0  0  0  0  0  0  0
   -2.2654   -1.2183    0.1026 C   0  0  0  0  0  0  0  0  0  0  0  0
   -1.8879    0.1074    0.4540 N   0  0  0  0  0  0  0  0  0  0  0  0
   -0.7451    0.1874    1.3312 C   0  0  0  0  0  0  0  0  0  0  0  0
    0.5558   -0.2356    0.7148 C   0  0  0  0  0  0  0  0  0  0  0  0
    0.9288    0.6058   -0.4833 C   0  0  0  0  0  0  0  0  0  0  0  0
    2.1061    0.2021   -1.0250 O   0  0  0  0  0  0  0  0  0  0  0  0
    3.3946    0.1230   -0.6745 C   0  0  0  0  0  0  0  0  0  0  0  0
    3.9534    0.5123    0.5121 C   0  0  0  0  0  0  0  0  0  0  0  0
    5.3256    0.3845    0.7911 C   0  0  0  0  0  0  0  0  0  0  0  0
    6.1630   -0.1548   -0.1621 C   0  0  0  0  0  0  0  0  0  0  0  0
    8.0416   -0.3537    0.1670 Br  0  0  0  0  0  0  0  0  0  0  0  0
    5.6094   -0.5337   -1.3230 N   0  0  0  0  0  0  0  0  0  0  0  0
    4.3032   -0.4199   -1.6073 C   0  0  0  0  0  0  0  0  0  0  0  0
   -3.0156    0.7858    1.0570 C   0  0  0  0  0  0  0  0  0  0  0  0
   -4.2622    0.7242    0.2533 C   0  0  0  0  0  0  0  0  0  0  0  0
   -4.3016    1.0684   -1.1443 N   0  0  0  0  0  0  0  0  0  0  0  0
   -5.4419   -0.7976   -0.7905 H   0  0  0  0  0  0  0  0  0  0  0  0
   -2.7608   -0.8028   -1.9229 H   0  0  0  0  0  0  0  0  0  0  0  0
   -3.6202   -2.2272   -1.2815 H   0  0  0  0  0  0  0  0  0  0  0  0
   -1.4256   -1.8501   -0.2544 H   0  0  0  0  0  0  0  0  0  0  0  0
   -2.7014   -1.7078    1.0208 H   0  0  0  0  0  0  0  0  0  0  0  0
   -0.6417    1.2325    1.6921 H   0  0  0  0  0  0  0  0  0  0  0  0
   -0.9560   -0.4343    2.2225 H   0  0  0  0  0  0  0  0  0  0  0  0
    0.5670   -1.3234    0.4715 H   0  0  0  0  0  0  0  0  0  0  0  0
    1.3363   -0.1072    1.4771 H   0  0  0  0  0  0  0  0  0  0  0  0
    0.9040    1.6818   -0.1585 H   0  0  0  0  0  0  0  0  0  0  0  0
    0.1381    0.5587   -1.2737 H   0  0  0  0  0  0  0  0  0  0  0  0
    3.3280    0.9529    1.2703 H   0  0  0  0  0  0  0  0  0  0  0  0
    5.7407    0.6958    1.7280 H   0  0  0  0  0  0  0  0  0  0  0  0
    3.9088   -0.7425   -2.5653 H   0  0  0  0  0  0  0  0  0  0  0  0
   -3.2122    0.2617    2.0288 H   0  0  0  0  0  0  0  0  0  0  0  0
   -2.7138    1.8233    1.3341 H   0  0  0  0  0  0  0  0  0  0  0  0
   -5.1593    1.1104    0.8120 H   0  0  0  0  0  0  0  0  0  0  0  0
   -3.4541    1.3656   -1.6449 H   0  0  0  0  0  0  0  0  0  0  0  0
  1  2  1  0
  2  3  1  0
  3  4  1  0
  4  5  1  0
  5  6  1  0
  6  7  1  0
  7  8  1  0
  8  9  1  0
  9 10  2  0
 10 11  1  0
 11 12  2  0
 12 13  1  0
 12 14  1  0
 14 15  2  0
  4 16  1  0
 16 17  1  0
 17 18  1  0
 17  1  1  0
 18  1  1  0
 15  9  1  0
  1 19  1  0
  2 20  1  0
  2 21  1  0
  3 22  1  0
  3 23  1  0
  5 24  1  0
  5 25  1  0
  6 26  1  0
  6 27  1  0
  7 28  1  0
  7 29  1  0
 10 30  1  0
 11 31  1  0
 15 32  1  0
 16 33  1  0
 16 34  1  0
 17 35  1  0
 18 36  1  0
M  END
$$$$
[H]OC([H])([H])C1([H])C([H])([H])C([H])([H])[C@@]2([H])[C@@]([H])(O[H])C([H])([H])[C@]([H])(O[H])[N+]12C([H])([H])O[H]
     RDKit          3D

 32 33  0  0  0  0  0  0  0  0999 V2000
   -0.6400   -0.3525   -1.1305 C   0  0  2  0  0  0  0  0  0  0  0  0
   -0.4868   -1.4602   -1.9449 O   0  0  0  0  0  0  0  0  0  0  0  0
    0.0779   -0.4530    0.1028 N   0  0  0  0  0  0  0  0  0  0  0  0
    0.0434   -1.8377    0.5461 C   0  0  0  0  0  0  0  0  0  0  0  0
   -0.5690   -1.9494    1.7989 O   0  0  0  0  0  0  0  0  0  0  0  0
    1.4231    0.0099    0.0576 C   0  0  0  0  0  0  0  0  0  0  0  0
    2.0497   -0.0082   -1.3023 C   0  0  0  0  0  0  0  0  0  0  0  0
    3.3600    0.4739   -1.1675 O   0  0  0  0  0  0  0  0  0  0  0  0
    1.4772    1.3687    0.7095 C   0  0  0  0  0  0  0  0  0  0  0  0
    0.0020    1.7730    0.6740 C   0  0  0  0  0  0  0  0  0  0  0  0
   -0.6413    0.4230    1.0046 C   0  0  1  0  0  0  0  0  0  0  0  0
   -2.0814    0.3788    0.6457 C   0  0  1  0  0  0  0  0  0  0  0  0
   -2.5804    1.6770    0.5800 O   0  0  0  0  0  0  0  0  0  0  0  0
   -2.0973   -0.3178   -0.6799 C   0  0  0  0  0  0  0  0  0  0  0  0
   -0.4751    0.5922   -1.6800 H   0  0  0  0  0  0  0  0  0  0  0  0
   -1.3381   -1.9386   -2.1223 H   0  0  0  0  0  0  0  0  0  0  0  0
   -0.5076   -2.4778   -0.1884 H   0  0  0  0  0  0  0  0  0  0  0  0
    1.0634   -2.2662    0.6109 H   0  0  0  0  0  0  0  0  0  0  0  0
    0.1200   -2.0175    2.4970 H   0  0  0  0  0  0  0  0  0  0  0  0
    2.0525   -0.6667    0.7077 H   0  0  0  0  0  0  0  0  0  0  0  0
    2.0765   -1.0709   -1.6389 H   0  0  0  0  0  0  0  0  0  0  0  0
    1.5463    0.6018   -2.0478 H   0  0  0  0  0  0  0  0  0  0  0  0
    3.6127    0.6230   -0.2361 H   0  0  0  0  0  0  0  0  0  0  0  0
    2.1228    2.0847    0.2049 H   0  0  0  0  0  0  0  0  0  0  0  0
    1.7393    1.2855    1.7974 H   0  0  0  0  0  0  0  0  0  0  0  0
   -0.2599    2.4677    1.4718 H   0  0  0  0  0  0  0  0  0  0  0  0
   -0.2945    2.1108   -0.3298 H   0  0  0  0  0  0  0  0  0  0  0  0
   -0.4021    0.1684    2.0348 H   0  0  0  0  0  0  0  0  0  0  0  0
   -2.6172   -0.2057    1.4263 H   0  0  0  0  0  0  0  0  0  0  0  0
   -2.4998    1.9987   -0.3444 H   0  0  0  0  0  0  0  0  0  0  0  0
   -2.5583   -1.3110   -0.6625 H   0  0  0  0  0  0  0  0  0  0  0  0
   -2.7180    0.2960   -1.3945 H   0  0  0  0  0  0  0  0  0  0  0  0
  1  2  1  0
  1  3  1  0
  3  4  1  0
  4  5  1  0
  3  6  1  0
  6  7  1  0
  7  8  1  0
  6  9  1  0
  9 10  1  0
 10 11  1  0
 11 12  1  0
 12 13  1  0
 12 14  1  0
 14  1  1  0
 11  3  1  0
  1 15  1  6
  2 16  1  0
  4 17  1  0
  4 18  1  0
  5 19  1  0
  6 20  1  0
  7 21  1  0
  7 22  1  0
  8 23  1  0
  9 24  1  0
  9 25  1  0
 10 26  1  0
 10 27  1  0
 11 28  1  1
 12 29  1  1
 13 30  1  0
 14 31  1  0
 14 32  1  0
M  CHG  1   3   1
M  END
$$$$
[H]c1nc(N([H])c2c([H])c([H])c(C(F)(F)F)c([H])c2OC([H])(C([H])([H])[H])C([H])([H])[H])nc(N([H])c2c([H])c([H])c([H])c([H])c2S(=O)(=O)C([H])(C([H])([H])[H])C([H])([H])[H])c1Cl
     RDKit          3D

 59 61  0  0  0  0  0  0  0  0999 V2000
   -6.1155   -2.0494   -1.3889 C   0  0  0  0  0  0  0  0  0  0  0  0
   -4.6062   -1.7723   -1.7454 C   0  0  0  0  0  0  0  0  0  0  0  0
   -3.9100   -3.0972   -1.6737 C   0  0  0  0  0  0  0  0  0  0  0  0
   -4.0879   -0.8073   -0.9322 O   0  0  0  0  0  0  0  0  0  0  0  0
   -4.4205    0.4357   -0.5382 C   0  0  0  0  0  0  0  0  0  0  0  0
   -5.5770    1.1106   -0.8049 C   0  0  0  0  0  0  0  0  0  0  0  0
   -5.8869    2.3820   -0.3699 C   0  0  0  0  0  0  0  0  0  0  0  0
   -4.9232    2.9964    0.4003 C   0  0  0  0  0  0  0  0  0  0  0  0
   -3.7300    2.3535    0.6958 C   0  0  0  0  0  0  0  0  0  0  0  0
   -3.4319    1.0987    0.2586 C   0  0  0  0  0  0  0  0  0  0  0  0
   -2.1760    0.4934    0.3880 N   0  0  0  0  0  0  0  0  0  0  0  0
   -1.1769    0.8089    1.3256 C   0  0  0  0  0  0  0  0  0  0  0  0
   -1.2379    1.6538    2.3462 N   0  0  0  0  0  0  0  0  0  0  0  0
   -0.1778    1.9725    3.1044 C   0  0  0  0  0  0  0  0  0  0  0  0
    1.0647    1.4286    2.8566 C   0  0  0  0  0  0  0  0  0  0  0  0
    2.4608    1.8265    3.8207 Cl  0  0  0  0  0  0  0  0  0  0  0  0
    1.1606    0.5373    1.7847 C   0  0  0  0  0  0  0  0  0  0  0  0
    2.4528    0.0697    1.4191 N   0  0  0  0  0  0  0  0  0  0  0  0
    2.7717   -0.8179    0.3752 C   0  0  0  0  0  0  0  0  0  0  0  0
    1.8760   -1.6893   -0.2412 C   0  0  0  0  0  0  0  0  0  0  0  0
    2.2277   -2.5381   -1.2712 C   0  0  0  0  0  0  0  0  0  0  0  0
    3.5268   -2.5278   -1.7135 C   0  0  0  0  0  0  0  0  0  0  0  0
    4.4455   -1.6588   -1.1021 C   0  0  0  0  0  0  0  0  0  0  0  0
    4.0857   -0.8257   -0.0877 C   0  0  0  0  0  0  0  0  0  0  0  0
    5.2851    0.2337    0.6122 S   0  0  0  0  0  0  0  0  0  0  0  0
    5.5509   -0.1708    2.0636 O   0  0  0  0  0  0  0  0  0  0  0  0
    4.8596    1.6534    0.6021 O   0  0  0  0  0  0  0  0  0  0  0  0
    6.8637    0.1141   -0.2075 C   0  0  0  0  0  0  0  0  0  0  0  0
    7.5980   -1.1099    0.2528 C   0  0  0  0  0  0  0  0  0  0  0  0
    7.7106    1.3036    0.3217 C   0  0  0  0  0  0  0  0  0  0  0  0
    0.0747    0.2716    1.0909 N   0  0  0  0  0  0  0  0  0  0  0  0
   -7.1722    3.0705   -0.7214 C   0  0  0  0  0  0  0  0  0  0  0  0
   -7.0374    3.4177   -2.0767 F   0  0  0  0  0  0  0  0  0  0  0  0
   -8.2778    2.3015   -0.4916 F   0  0  0  0  0  0  0  0  0  0  0  0
   -7.2315    4.2833   -0.0541 F   0  0  0  0  0  0  0  0  0  0  0  0
   -6.2280   -1.6630   -0.3589 H   0  0  0  0  0  0  0  0  0  0  0  0
   -6.2473   -3.1678   -1.3693 H   0  0  0  0  0  0  0  0  0  0  0  0
   -6.7612   -1.5535   -2.1316 H   0  0  0  0  0  0  0  0  0  0  0  0
   -4.6471   -1.3877   -2.7801 H   0  0  0  0  0  0  0  0  0  0  0  0
   -2.8840   -2.9084   -1.2121 H   0  0  0  0  0  0  0  0  0  0  0  0
   -4.4396   -3.7558   -0.9117 H   0  0  0  0  0  0  0  0  0  0  0  0
   -3.8002   -3.6344   -2.6294 H   0  0  0  0  0  0  0  0  0  0  0  0
   -6.3579    0.6269   -1.4170 H   0  0  0  0  0  0  0  0  0  0  0  0
   -5.0975    4.0011    0.7765 H   0  0  0  0  0  0  0  0  0  0  0  0
   -3.0035    2.9304    1.3099 H   0  0  0  0  0  0  0  0  0  0  0  0
   -1.9591   -0.2998   -0.3140 H   0  0  0  0  0  0  0  0  0  0  0  0
   -0.3125    2.6670    3.9269 H   0  0  0  0  0  0  0  0  0  0  0  0
    3.2482    0.4354    1.9938 H   0  0  0  0  0  0  0  0  0  0  0  0
    0.8671   -1.7409    0.0905 H   0  0  0  0  0  0  0  0  0  0  0  0
    1.5243   -3.1992   -1.7313 H   0  0  0  0  0  0  0  0  0  0  0  0
    3.8736   -3.1629   -2.5091 H   0  0  0  0  0  0  0  0  0  0  0  0
    5.4490   -1.6867   -1.4989 H   0  0  0  0  0  0  0  0  0  0  0  0
    6.7266    0.2411   -1.2796 H   0  0  0  0  0  0  0  0  0  0  0  0
    7.4198   -1.2065    1.3497 H   0  0  0  0  0  0  0  0  0  0  0  0
    8.7200   -0.9487    0.1404 H   0  0  0  0  0  0  0  0  0  0  0  0
    7.4129   -2.0245   -0.3076 H   0  0  0  0  0  0  0  0  0  0  0  0
    7.3965    1.4582    1.3470 H   0  0  0  0  0  0  0  0  0  0  0  0
    7.4770    2.2073   -0.2880 H   0  0  0  0  0  0  0  0  0  0  0  0
    8.7850    1.0195    0.2947 H   0  0  0  0  0  0  0  0  0  0  0  0
  1  2  1  0
  2  3  1  0
  2  4  1  0
  4  5  1  0
  5  6  2  0
  6  7  1  0
  7  8  2  0
  8  9  1  0
  9 10  2  0
 10 11  1  0
 11 12  1  0
 12 13  2  0
 13 14  1  0
 14 15  2  0
 15 16  1  0
 15 17  1  0
 17 18  1  0
 18 19  1  0
 19 20  2  0
 20 21  1  0
 21 22  2  0
 22 23  1  0
 23 24  2  0
 24 25  1  0
 25 26  2  0
 25 27  2  0
 25 28  1  0
 28 29  1  0
 28 30  1  0
 17 31  2  0
  7 32  1  0
 32 33  1  0
 32 34  1  0
 32 35  1  0
 10  5  1  0
 31 12  1  0
 24 19  1  0
  1 36  1  0
  1 37  1  0
  1 38  1  0
  2 39  1  0
  3 40  1  0
  3 41  1  0
  3 42  1  0
  6 43  1  0
  8 44  1  0
  9 45  1  0
 11 46  1  0
 14 47  1  0
 18 48  1  0
 20 49  1  0
 21 50  1  0
 22 51  1  0
 23 52  1  0
 28 53  1  0
 29 54  1  0
 29 55  1  0
 29 56  1  0
 30 57  1  0
 30 58  1  0
 30 59  1  0
M  END
$$$$
[H]OC([H])([H])[C@@]1([H])O[C@]([H])(n2c([H])c([H])c(=O)n([H])c2=O)[C@]([H])(O[H])[C@]1([H])O[H]
     RDKit          3D

 29 30  0  0  0  0  0  0  0  0999 V2000
   -0.8582   -1.1850    0.3006 C   0  0  2  0  0  0  0  0  0  0  0  0
   -0.1627   -2.0931   -0.4720 O   0  0  0  0  0  0  0  0  0  0  0  0
   -2.1328   -0.7517   -0.4233 C   0  0  2  0  0  0  0  0  0  0  0  0
   -2.1527   -1.3429   -1.6806 O   0  0  0  0  0  0  0  0  0  0  0  0
   -1.9798    0.7554   -0.6258 C   0  0  1  0  0  0  0  0  0  0  0  0
   -2.7427    1.4985    0.4596 C   0  0  0  0  0  0  0  0  0  0  0  0
   -2.4931    2.8561    0.3138 O   0  0  0  0  0  0  0  0  0  0  0  0
   -0.6208    0.9640   -0.5493 O   0  0  0  0  0  0  0  0  0  0  0  0
   -0.1431    0.1308    0.4595 C   0  0  2  0  0  0  0  0  0  0  0  0
    1.2796    0.0329    0.3361 N   0  0  0  0  0  0  0  0  0  0  0  0
    1.9590    1.0116   -0.2890 C   0  0  0  0  0  0  0  0  0  0  0  0
    1.3186    1.9779   -0.7428 O   0  0  0  0  0  0  0  0  0  0  0  0
    3.3038    0.9763   -0.4371 N   0  0  0  0  0  0  0  0  0  0  0  0
    4.0577   -0.0358    0.0278 C   0  0  0  0  0  0  0  0  0  0  0  0
    5.3108   -0.0714   -0.1086 O   0  0  0  0  0  0  0  0  0  0  0  0
    3.3726   -1.0644    0.6813 C   0  0  0  0  0  0  0  0  0  0  0  0
    2.0019   -0.9966    0.8147 C   0  0  0  0  0  0  0  0  0  0  0  0
   -1.1682   -1.5811    1.2816 H   0  0  0  0  0  0  0  0  0  0  0  0
   -0.5677   -2.9949   -0.2762 H   0  0  0  0  0  0  0  0  0  0  0  0
   -3.0375   -1.0030    0.1448 H   0  0  0  0  0  0  0  0  0  0  0  0
   -2.4595   -2.2688   -1.5687 H   0  0  0  0  0  0  0  0  0  0  0  0
   -2.3389    1.0230   -1.6184 H   0  0  0  0  0  0  0  0  0  0  0  0
   -3.8318    1.3574    0.2414 H   0  0  0  0  0  0  0  0  0  0  0  0
   -2.5262    1.1146    1.4578 H   0  0  0  0  0  0  0  0  0  0  0  0
   -2.2385    3.0821   -0.6215 H   0  0  0  0  0  0  0  0  0  0  0  0
   -0.4310    0.5682    1.4273 H   0  0  0  0  0  0  0  0  0  0  0  0
    3.8290    1.7496   -0.9296 H   0  0  0  0  0  0  0  0  0  0  0  0
    3.9506   -1.8995    1.0705 H   0  0  0  0  0  0  0  0  0  0  0  0
    1.5015   -1.8100    1.3262 H   0  0  0  0  0  0  0  0  0  0  0  0
  1  2  1  0
  1  3  1  0
  3  4  1  0
  3  5  1  0
  5  6  1  0
  6  7  1  0
  5  8  1  0
  8  9  1  0
  9 10  1  0
 10 11  1  0
 11 12  2  0
 11 13  1  0
 13 14  1  0
 14 15  2  0
 14 16  1  0
 16 17  2  0
  9  1  1  0
 17 10  1  0
  1 18  1  1
  2 19  1  0
  3 20  1  1
  4 21  1  0
  5 22  1  6
  6 23  1  0
  6 24  1  0
  7 25  1  0
  9 26  1  1
 13 27  1  0
 16 28  1  0
 17 29  1  0
M  END
$$$$
[H]c1c([H])c(N2C(=O)C(=O)N(c3c([H])c([H])c(C#N)c([H])c3[H])C(C([H])([H])[H])(C([H])([H])[H])C2=O)c([H])c([H])c1C#N
     RDKit          3D

 41 43  0  0  0  0  0  0  0  0999 V2000
    0.5420    1.1257    0.9098 C   0  0  0  0  0  0  0  0  0  0  0  0
    1.1542    1.9462    1.6773 O   0  0  0  0  0  0  0  0  0  0  0  0
    1.2866    0.2730    0.0467 N   0  0  0  0  0  0  0  0  0  0  0  0
    2.6778    0.1539    0.3109 C   0  0  0  0  0  0  0  0  0  0  0  0
    3.5250    1.0756   -0.2654 C   0  0  0  0  0  0  0  0  0  0  0  0
    4.8967    1.0476   -0.0711 C   0  0  0  0  0  0  0  0  0  0  0  0
    5.4190    0.0513    0.7339 C   0  0  0  0  0  0  0  0  0  0  0  0
    6.8373    0.0031    0.9489 C   0  0  0  0  0  0  0  0  0  0  0  0
    7.9875   -0.0323    1.1110 N   0  0  0  0  0  0  0  0  0  0  0  0
    4.6100   -0.8928    1.3318 C   0  0  0  0  0  0  0  0  0  0  0  0
    3.2304   -0.8266    1.1082 C   0  0  0  0  0  0  0  0  0  0  0  0
    0.5945   -0.3923   -1.0062 C   0  0  0  0  0  0  0  0  0  0  0  0
    1.1919   -1.7568   -1.3267 C   0  0  0  0  0  0  0  0  0  0  0  0
    0.6333    0.3964   -2.3182 C   0  0  0  0  0  0  0  0  0  0  0  0
   -0.8452   -0.6145   -0.7132 C   0  0  0  0  0  0  0  0  0  0  0  0
   -1.4420   -1.6127   -1.2445 O   0  0  0  0  0  0  0  0  0  0  0  0
   -1.6255    0.2201    0.1339 N   0  0  0  0  0  0  0  0  0  0  0  0
   -3.0527    0.1641    0.1479 C   0  0  0  0  0  0  0  0  0  0  0  0
   -3.8489    0.4488   -0.9373 C   0  0  0  0  0  0  0  0  0  0  0  0
   -5.2159    0.3827   -0.8810 C   0  0  0  0  0  0  0  0  0  0  0  0
   -5.8642    0.0213    0.2868 C   0  0  0  0  0  0  0  0  0  0  0  0
   -7.2951   -0.0484    0.3480 C   0  0  0  0  0  0  0  0  0  0  0  0
   -8.4625   -0.0879    0.3876 N   0  0  0  0  0  0  0  0  0  0  0  0
   -5.0714   -0.2652    1.3776 C   0  0  0  0  0  0  0  0  0  0  0  0
   -3.6864   -0.1972    1.3177 C   0  0  0  0  0  0  0  0  0  0  0  0
   -0.9014    1.1171    0.9700 C   0  0  0  0  0  0  0  0  0  0  0  0
   -1.5515    1.8747    1.7364 O   0  0  0  0  0  0  0  0  0  0  0  0
    3.1099    1.8493   -0.8915 H   0  0  0  0  0  0  0  0  0  0  0  0
    5.5718    1.7721   -0.5229 H   0  0  0  0  0  0  0  0  0  0  0  0
    5.0364   -1.6601    1.9548 H   0  0  0  0  0  0  0  0  0  0  0  0
    2.5633   -1.5525    1.5626 H   0  0  0  0  0  0  0  0  0  0  0  0
    1.2069   -2.3854   -0.4196 H   0  0  0  0  0  0  0  0  0  0  0  0
    2.1825   -1.5909   -1.7723 H   0  0  0  0  0  0  0  0  0  0  0  0
    0.5297   -2.1955   -2.1079 H   0  0  0  0  0  0  0  0  0  0  0  0
    1.6517    0.4246   -2.7401 H   0  0  0  0  0  0  0  0  0  0  0  0
    0.3731    1.4398   -2.0331 H   0  0  0  0  0  0  0  0  0  0  0  0
   -0.1123   -0.0558   -3.0049 H   0  0  0  0  0  0  0  0  0  0  0  0
   -3.3761    0.7339   -1.8639 H   0  0  0  0  0  0  0  0  0  0  0  0
   -5.8150    0.6174   -1.7697 H   0  0  0  0  0  0  0  0  0  0  0  0
   -5.5733   -0.5477    2.2901 H   0  0  0  0  0  0  0  0  0  0  0  0
   -3.0721   -0.4242    2.1793 H   0  0  0  0  0  0  0  0  0  0  0  0
  1  2  2  0
  1  3  1  0
  3  4  1  0
  4  5  2  0
  5  6  1  0
  6  7  2  0
  7  8  1  0
  8  9  3  0
  7 10  1  0
 10 11  2  0
  3 12  1  0
 12 13  1  0
 12 14  1  0
 12 15  1  0
 15 16  2  0
 15 17  1  0
 17 18  1  0
 18 19  2  0
 19 20  1  0
 20 21  2  0
 21 22  1  0
 22 23  3  0
 21 24  1  0
 24 25  2  0
 17 26  1  0
 26 27  2  0
 26  1  1  0
 11  4  1  0
 25 18  1  0
  5 28  1  0
  6 29  1  0
 10 30  1  0
 11 31  1  0
 13 32  1  0
 13 33  1  0
 13 34  1  0
 14 35  1  0
 14 36  1  0
 14 37  1  0
 19 38  1  0
 20 39  1  0
 24 40  1  0
 25 41  1  0
M  END
$$$$
[H]OC(=O)c1c([H])c([H])c(N([H])C(=O)c2c([H])c([H])c(OC3([H])C([H])([H])C([H])([H])N(S(=O)(=O)c4c([H])c([H])c(C(F)(F)F)c([H])c4[H])C([H])([H])C3([H])[H])c([H])c2[H])c([H])c1[H]
     RDKit          3D

 61 64  0  0  0  0  0  0  0  0999 V2000
   10.2190    3.7918    0.2484 F   0  0  0  0  0  0  0  0  0  0  0  0
   10.5671    2.4915    0.5488 C   0  0  0  0  0  0  0  0  0  0  0  0
   11.2889    2.4009    1.7284 F   0  0  0  0  0  0  0  0  0  0  0  0
   11.3924    1.9873   -0.4477 F   0  0  0  0  0  0  0  0  0  0  0  0
    9.3521    1.6538    0.5916 C   0  0  0  0  0  0  0  0  0  0  0  0
    8.3679    1.9027    1.5244 C   0  0  0  0  0  0  0  0  0  0  0  0
    7.2153    1.1103    1.5858 C   0  0  0  0  0  0  0  0  0  0  0  0
    7.0260    0.0585    0.7223 C   0  0  0  0  0  0  0  0  0  0  0  0
    8.0303   -0.1845   -0.2197 C   0  0  0  0  0  0  0  0  0  0  0  0
    9.1640    0.5856   -0.2912 C   0  0  0  0  0  0  0  0  0  0  0  0
    5.6261   -0.9904    0.8254 S   0  0  0  0  0  0  0  0  0  0  0  0
    5.9125   -2.2475    0.0345 O   0  0  0  0  0  0  0  0  0  0  0  0
    5.5407   -1.4255    2.2825 O   0  0  0  0  0  0  0  0  0  0  0  0
    4.2155   -0.2342    0.3981 N   0  0  0  0  0  0  0  0  0  0  0  0
    3.1668   -0.1321    1.3790 C   0  0  0  0  0  0  0  0  0  0  0  0
    1.9564   -0.9523    0.9256 C   0  0  0  0  0  0  0  0  0  0  0  0
    1.4842   -0.2391   -0.3874 C   0  0  0  0  0  0  0  0  0  0  0  0
    2.5795   -0.5047   -1.3954 C   0  0  0  0  0  0  0  0  0  0  0  0
    3.8703    0.0901   -0.9035 C   0  0  0  0  0  0  0  0  0  0  0  0
    0.2872   -0.7316   -0.7885 O   0  0  0  0  0  0  0  0  0  0  0  0
   -1.0152   -0.6728   -0.4666 C   0  0  0  0  0  0  0  0  0  0  0  0
   -1.5017   -0.0414    0.6755 C   0  0  0  0  0  0  0  0  0  0  0  0
   -2.8431   -0.0350    0.9266 C   0  0  0  0  0  0  0  0  0  0  0  0
   -3.7744   -0.6214    0.1103 C   0  0  0  0  0  0  0  0  0  0  0  0
   -3.2915   -1.2462   -1.0269 C   0  0  0  0  0  0  0  0  0  0  0  0
   -1.9579   -1.2875   -1.3317 C   0  0  0  0  0  0  0  0  0  0  0  0
   -5.1981   -0.5704    0.4434 C   0  0  0  0  0  0  0  0  0  0  0  0
   -5.4651   -0.8030    1.6492 O   0  0  0  0  0  0  0  0  0  0  0  0
   -6.1844   -0.2751   -0.5236 N   0  0  0  0  0  0  0  0  0  0  0  0
   -7.5481   -0.2087   -0.2666 C   0  0  0  0  0  0  0  0  0  0  0  0
   -8.3215    0.5912   -1.1427 C   0  0  0  0  0  0  0  0  0  0  0  0
   -9.6707    0.6868   -0.9337 C   0  0  0  0  0  0  0  0  0  0  0  0
  -10.3097    0.0411    0.0851 C   0  0  0  0  0  0  0  0  0  0  0  0
   -9.5835   -0.7503    0.9561 C   0  0  0  0  0  0  0  0  0  0  0  0
   -8.1987   -0.8377    0.7272 C   0  0  0  0  0  0  0  0  0  0  0  0
  -11.7379    0.1950    0.2578 C   0  0  0  0  0  0  0  0  0  0  0  0
  -12.4547   -0.4371    1.2613 O   0  0  0  0  0  0  0  0  0  0  0  0
  -12.4025    0.9367   -0.5299 O   0  0  0  0  0  0  0  0  0  0  0  0
    8.5138    2.7276    2.2073 H   0  0  0  0  0  0  0  0  0  0  0  0
    6.4748    1.3507    2.3284 H   0  0  0  0  0  0  0  0  0  0  0  0
    7.9054   -1.0226   -0.9137 H   0  0  0  0  0  0  0  0  0  0  0  0
    9.9413    0.3996   -1.0203 H   0  0  0  0  0  0  0  0  0  0  0  0
    2.8438    0.9188    1.4149 H   0  0  0  0  0  0  0  0  0  0  0  0
    3.5462   -0.4288    2.3511 H   0  0  0  0  0  0  0  0  0  0  0  0
    2.2734   -1.9641    0.6993 H   0  0  0  0  0  0  0  0  0  0  0  0
    1.2042   -0.8097    1.7062 H   0  0  0  0  0  0  0  0  0  0  0  0
    1.5105    0.8264   -0.0918 H   0  0  0  0  0  0  0  0  0  0  0  0
    2.6899   -1.6122   -1.5792 H   0  0  0  0  0  0  0  0  0  0  0  0
    2.2919    0.0244   -2.3400 H   0  0  0  0  0  0  0  0  0  0  0  0
    4.6724   -0.2822   -1.5986 H   0  0  0  0  0  0  0  0  0  0  0  0
    3.8101    1.1988   -1.0706 H   0  0  0  0  0  0  0  0  0  0  0  0
   -0.7887    0.4314    1.3483 H   0  0  0  0  0  0  0  0  0  0  0  0
   -3.1679    0.4535    1.8264 H   0  0  0  0  0  0  0  0  0  0  0  0
   -4.0002   -1.7297   -1.7083 H   0  0  0  0  0  0  0  0  0  0  0  0
   -1.5716   -1.7586   -2.2067 H   0  0  0  0  0  0  0  0  0  0  0  0
   -5.8293   -0.0960   -1.5156 H   0  0  0  0  0  0  0  0  0  0  0  0
   -7.8588    1.1038   -1.9596 H   0  0  0  0  0  0  0  0  0  0  0  0
  -10.2477    1.3171   -1.6337 H   0  0  0  0  0  0  0  0  0  0  0  0
  -10.0827   -1.2589    1.7565 H   0  0  0  0  0  0  0  0  0  0  0  0
   -7.6671   -1.4834    1.4297 H   0  0  0  0  0  0  0  0  0  0  0  0
  -12.2675   -1.4007    1.5083 H   0  0  0  0  0  0  0  0  0  0  0  0
  1  2  1  0
  2  3  1  0
  2  4  1  0
  2  5  1  0
  5  6  2  0
  6  7  1  0
  7  8  2  0
  8  9  1  0
  9 10  2  0
  8 11  1  0
 11 12  2  0
 11 13  2  0
 11 14  1  0
 14 15  1  0
 15 16  1  0
 16 17  1  0
 17 18  1  0
 18 19  1  0
 17 20  1  0
 20 21  1  0
 21 22  2  0
 22 23  1  0
 23 24  2  0
 24 25  1  0
 25 26  2  0
 24 27  1  0
 27 28  2  0
 27 29  1  0
 29 30  1  0
 30 31  2  0
 31 32  1  0
 32 33  2  0
 33 34  1  0
 34 35  2  0
 33 36  1  0
 36 37  1  0
 36 38  2  0
 10  5  1  0
 19 14  1  0
 26 21  1  0
 35 30  1  0
  6 39  1  0
  7 40  1  0
  9 41  1  0
 10 42  1  0
 15 43  1  0
 15 44  1  0
 16 45  1  0
 16 46  1  0
 17 47  1  0
 18 48  1  0
 18 49  1  0
 19 50  1  0
 19 51  1  0
 22 52  1  0
 23 53  1  0
 25 54  1  0
 26 55  1  0
 29 56  1  0
 31 57  1  0
 32 58  1  0
 34 59  1  0
 35 60  1  0
 37 61  1  0
M  END
$$$$
[H]C1=C([H])C([H])(F)C([H])([H])C([H])=C1N([H])C(=O)C1(C(=O)N([H])c2c([H])c([H])c(Oc3c([H])c([H])nc4c([H])c(OC([H])([H])C([H])([H])C([H])([H])N5C([H])([H])C([H])([H])OC([H])([H])C5([H])[H])c(OC([H])([H])[H])c([H])c34)c(F)c2[H])C([H])([H])C1([H])[H]
     RDKit          3D

 82 87  0  0  0  0  0  0  0  0999 V2000
    3.9666    3.0495   -1.7322 C   0  0  0  0  0  0  0  0  0  0  0  0
    4.8184    1.9472   -1.5191 O   0  0  0  0  0  0  0  0  0  0  0  0
    4.2779    0.7150   -1.2054 C   0  0  0  0  0  0  0  0  0  0  0  0
    2.9355    0.4830   -1.0834 C   0  0  0  0  0  0  0  0  0  0  0  0
    2.5057   -0.7878   -0.7673 C   0  0  0  0  0  0  0  0  0  0  0  0
    1.1302   -1.0757   -0.6337 C   0  0  0  0  0  0  0  0  0  0  0  0
    0.2693   -0.0306   -0.8259 O   0  0  0  0  0  0  0  0  0  0  0  0
   -1.0898   -0.1642   -0.6451 C   0  0  0  0  0  0  0  0  0  0  0  0
   -1.9847   -0.0120   -1.6950 C   0  0  0  0  0  0  0  0  0  0  0  0
   -3.3381   -0.1282   -1.5809 C   0  0  0  0  0  0  0  0  0  0  0  0
   -3.8905   -0.4214   -0.3289 C   0  0  0  0  0  0  0  0  0  0  0  0
   -5.3238   -0.4986   -0.2135 N   0  0  0  0  0  0  0  0  0  0  0  0
   -5.9613   -1.3830    0.6262 C   0  0  0  0  0  0  0  0  0  0  0  0
   -5.1921   -2.1849    1.2964 O   0  0  0  0  0  0  0  0  0  0  0  0
   -7.4011   -1.5958    0.9101 C   0  0  0  0  0  0  0  0  0  0  0  0
   -7.6820   -2.4618    2.1265 C   0  0  0  0  0  0  0  0  0  0  0  0
   -7.8126   -3.1190    0.8294 C   0  0  0  0  0  0  0  0  0  0  0  0
   -8.4706   -0.6963    0.4763 C   0  0  0  0  0  0  0  0  0  0  0  0
   -9.6747   -1.1656    0.7176 O   0  0  0  0  0  0  0  0  0  0  0  0
   -8.4814    0.5528   -0.1324 N   0  0  0  0  0  0  0  0  0  0  0  0
   -9.7446    1.2195   -0.4499 C   0  0  0  0  0  0  0  0  0  0  0  0
   -9.9496    2.4040    0.0799 C   0  0  0  0  0  0  0  0  0  0  0  0
  -11.1350    3.2347   -0.1097 C   0  0  0  0  0  0  0  0  0  0  0  0
  -12.2008    2.6387   -0.9439 C   0  0  0  0  0  0  0  0  0  0  0  0
  -12.4721    3.4850   -2.0494 F   0  0  0  0  0  0  0  0  0  0  0  0
  -11.8730    1.3187   -1.4859 C   0  0  0  0  0  0  0  0  0  0  0  0
  -10.7586    0.6480   -1.2759 C   0  0  0  0  0  0  0  0  0  0  0  0
   -3.0432   -0.5784    0.7341 C   0  0  0  0  0  0  0  0  0  0  0  0
   -1.6522   -0.4525    0.5863 C   0  0  0  0  0  0  0  0  0  0  0  0
   -0.8827   -0.5957    1.6903 F   0  0  0  0  0  0  0  0  0  0  0  0
    0.7223   -2.3515   -0.3227 C   0  0  0  0  0  0  0  0  0  0  0  0
    1.6378   -3.3635   -0.1352 C   0  0  0  0  0  0  0  0  0  0  0  0
    2.9451   -3.0865   -0.2619 N   0  0  0  0  0  0  0  0  0  0  0  0
    3.3732   -1.8309   -0.5703 C   0  0  0  0  0  0  0  0  0  0  0  0
    4.7330   -1.5901   -0.6954 C   0  0  0  0  0  0  0  0  0  0  0  0
    5.1920   -0.3333   -1.0085 C   0  0  0  0  0  0  0  0  0  0  0  0
    6.5206   -0.0853   -1.1253 O   0  0  0  0  0  0  0  0  0  0  0  0
    7.5310   -0.9938   -0.8772 C   0  0  0  0  0  0  0  0  0  0  0  0
    7.6262   -1.3701    0.5948 C   0  0  0  0  0  0  0  0  0  0  0  0
    7.9359   -0.0985    1.3961 C   0  0  0  0  0  0  0  0  0  0  0  0
    9.1945    0.4265    0.9288 N   0  0  0  0  0  0  0  0  0  0  0  0
    9.4053    1.7864    1.4776 C   0  0  0  0  0  0  0  0  0  0  0  0
   10.8161    2.1639    1.0165 C   0  0  0  0  0  0  0  0  0  0  0  0
   11.2632    1.3549   -0.0281 O   0  0  0  0  0  0  0  0  0  0  0  0
   11.4615    0.0232    0.3872 C   0  0  0  0  0  0  0  0  0  0  0  0
   10.3466   -0.3576    1.3702 C   0  0  0  0  0  0  0  0  0  0  0  0
    4.5770    3.9509   -1.9692 H   0  0  0  0  0  0  0  0  0  0  0  0
    3.3066    3.2216   -0.8582 H   0  0  0  0  0  0  0  0  0  0  0  0
    3.3086    2.7911   -2.5987 H   0  0  0  0  0  0  0  0  0  0  0  0
    2.2243    1.2761   -1.2311 H   0  0  0  0  0  0  0  0  0  0  0  0
   -1.5528    0.2161   -2.6750 H   0  0  0  0  0  0  0  0  0  0  0  0
   -4.0246   -0.0039   -2.4200 H   0  0  0  0  0  0  0  0  0  0  0  0
   -5.8260    0.1518   -0.8369 H   0  0  0  0  0  0  0  0  0  0  0  0
   -6.8106   -2.7138    2.7607 H   0  0  0  0  0  0  0  0  0  0  0  0
   -8.5985   -2.2800    2.7131 H   0  0  0  0  0  0  0  0  0  0  0  0
   -7.0275   -3.7752    0.4011 H   0  0  0  0  0  0  0  0  0  0  0  0
   -8.7992   -3.3162    0.3639 H   0  0  0  0  0  0  0  0  0  0  0  0
   -7.6334    1.0911   -0.3743 H   0  0  0  0  0  0  0  0  0  0  0  0
   -9.1652    2.8388    0.7401 H   0  0  0  0  0  0  0  0  0  0  0  0
  -11.5358    3.5321    0.9159 H   0  0  0  0  0  0  0  0  0  0  0  0
  -10.8538    4.2484   -0.5572 H   0  0  0  0  0  0  0  0  0  0  0  0
  -13.1586    2.5647   -0.3407 H   0  0  0  0  0  0  0  0  0  0  0  0
  -12.6648    0.8691   -2.1323 H   0  0  0  0  0  0  0  0  0  0  0  0
  -10.6018   -0.3227   -1.7168 H   0  0  0  0  0  0  0  0  0  0  0  0
   -3.4037   -0.7893    1.7394 H   0  0  0  0  0  0  0  0  0  0  0  0
   -0.3200   -2.5956   -0.2356 H   0  0  0  0  0  0  0  0  0  0  0  0
    1.2680   -4.3480    0.1079 H   0  0  0  0  0  0  0  0  0  0  0  0
    5.3620   -2.4538   -0.5623 H   0  0  0  0  0  0  0  0  0  0  0  0
    7.4424   -1.9223   -1.5038 H   0  0  0  0  0  0  0  0  0  0  0  0
    8.4920   -0.5348   -1.2249 H   0  0  0  0  0  0  0  0  0  0  0  0
    6.7751   -1.8921    1.0071 H   0  0  0  0  0  0  0  0  0  0  0  0
    8.4922   -2.0400    0.6815 H   0  0  0  0  0  0  0  0  0  0  0  0
    7.1233    0.6400    1.3255 H   0  0  0  0  0  0  0  0  0  0  0  0
    8.0487   -0.4301    2.4644 H   0  0  0  0  0  0  0  0  0  0  0  0
    9.4079    1.7624    2.5778 H   0  0  0  0  0  0  0  0  0  0  0  0
    8.6320    2.4413    1.0296 H   0  0  0  0  0  0  0  0  0  0  0  0
   11.5508    2.0414    1.8480 H   0  0  0  0  0  0  0  0  0  0  0  0
   10.8264    3.2054    0.6080 H   0  0  0  0  0  0  0  0  0  0  0  0
   11.3001   -0.6008   -0.5146 H   0  0  0  0  0  0  0  0  0  0  0  0
   12.4569   -0.1361    0.8078 H   0  0  0  0  0  0  0  0  0  0  0  0
   10.1090   -1.3943    1.4038 H   0  0  0  0  0  0  0  0  0  0  0  0
   10.6797    0.0679    2.3647 H   0  0  0  0  0  0  0  0  0  0  0  0
  1  2  1  0
  2  3  1  0
  3  4  2  0
  4  5  1  0
  5  6  2  0
  6  7  1  0
  7  8  1  0
  8  9  2  0
  9 10  1  0
 10 11  2  0
 11 12  1  0
 12 13  1  0
 13 14  2  0
 13 15  1  0
 15 16  1  0
 16 17  1  0
 15 18  1  0
 18 19  2  0
 18 20  1  0
 20 21  1  0
 21 22  2  0
 22 23  1  0
 23 24  1  0
 24 25  1  0
 24 26  1  0
 26 27  2  0
 11 28  1  0
 28 29  2  0
 29 30  1  0
  6 31  1  0
 31 32  2  0
 32 33  1  0
 33 34  2  0
 34 35  1  0
 35 36  2  0
 36 37  1  0
 37 38  1  0
 38 39  1  0
 39 40  1  0
 40 41  1  0
 41 42  1  0
 42 43  1  0
 43 44  1  0
 44 45  1  0
 45 46  1  0
 36  3  1  0
 46 41  1  0
 34  5  1  0
 29  8  1  0
 17 15  1  0
 27 21  1  0
  1 47  1  0
  1 48  1  0
  1 49  1  0
  4 50  1  0
  9 51  1  0
 10 52  1  0
 12 53  1  0
 16 54  1  0
 16 55  1  0
 17 56  1  0
 17 57  1  0
 20 58  1  0
 22 59  1  0
 23 60  1  0
 23 61  1  0
 24 62  1  0
 26 63  1  0
 27 64  1  0
 28 65  1  0
 31 66  1  0
 32 67  1  0
 35 68  1  0
 38 69  1  0
 38 70  1  0
 39 71  1  0
 39 72  1  0
 40 73  1  0
 40 74  1  0
 42 75  1  0
 42 76  1  0
 43 77  1  0
 43 78  1  0
 45 79  1  0
 45 80  1  0
 46 81  1  0
 46 82  1  0
M  END
$$$$
[H]OC(=O)c1c([H])c([H])c(N([H])C(=O)c2c([H])c([H])c(N([H])C(=O)c3c([H])c([H])c(C(F)(F)F)c([H])c3[H])c([H])c2[H])c([H])c1[H]
     RDKit          3D

 46 48  0  0  0  0  0  0  0  0999 V2000
   -7.7791    0.2736   -0.0516 C   0  0  0  0  0  0  0  0  0  0  0  0
   -9.2055    0.1345   -0.5081 C   0  0  0  0  0  0  0  0  0  0  0  0
   -9.5825    1.0682   -1.4120 F   0  0  0  0  0  0  0  0  0  0  0  0
   -9.3659   -1.1799   -1.0164 F   0  0  0  0  0  0  0  0  0  0  0  0
  -10.0058    0.1608    0.6191 F   0  0  0  0  0  0  0  0  0  0  0  0
   -7.3899    0.0961    1.2613 C   0  0  0  0  0  0  0  0  0  0  0  0
   -6.0476    0.2223    1.6042 C   0  0  0  0  0  0  0  0  0  0  0  0
   -5.0673    0.5233    0.6849 C   0  0  0  0  0  0  0  0  0  0  0  0
   -3.6518    0.5600    1.1245 C   0  0  0  0  0  0  0  0  0  0  0  0
   -3.3555    0.5454    2.3344 O   0  0  0  0  0  0  0  0  0  0  0  0
   -2.6696    0.5969    0.1340 N   0  0  0  0  0  0  0  0  0  0  0  0
   -1.2905    0.5988    0.4330 C   0  0  0  0  0  0  0  0  0  0  0  0
   -0.4965   -0.1860   -0.4049 C   0  0  0  0  0  0  0  0  0  0  0  0
    0.8546   -0.2823   -0.2688 C   0  0  0  0  0  0  0  0  0  0  0  0
    1.4307    0.4781    0.7957 C   0  0  0  0  0  0  0  0  0  0  0  0
    2.9076    0.3351    0.9441 C   0  0  0  0  0  0  0  0  0  0  0  0
    3.3928    0.4684    2.0672 O   0  0  0  0  0  0  0  0  0  0  0  0
    3.6357    0.0457   -0.2050 N   0  0  0  0  0  0  0  0  0  0  0  0
    5.0032   -0.2113   -0.3473 C   0  0  0  0  0  0  0  0  0  0  0  0
    5.5453   -0.2738   -1.6306 C   0  0  0  0  0  0  0  0  0  0  0  0
    6.8205   -0.6282   -1.9221 C   0  0  0  0  0  0  0  0  0  0  0  0
    7.6829   -0.9660   -0.8434 C   0  0  0  0  0  0  0  0  0  0  0  0
    9.0493   -1.3666   -1.1671 C   0  0  0  0  0  0  0  0  0  0  0  0
    9.4235   -1.3890   -2.3270 O   0  0  0  0  0  0  0  0  0  0  0  0
    9.8296   -1.7098   -0.0682 O   0  0  0  0  0  0  0  0  0  0  0  0
    7.1856   -0.9111    0.4004 C   0  0  0  0  0  0  0  0  0  0  0  0
    5.8822   -0.5463    0.6881 C   0  0  0  0  0  0  0  0  0  0  0  0
    0.6742    1.2333    1.6023 C   0  0  0  0  0  0  0  0  0  0  0  0
   -0.7292    1.3048    1.4281 C   0  0  0  0  0  0  0  0  0  0  0  0
   -5.4524    0.7048   -0.6184 C   0  0  0  0  0  0  0  0  0  0  0  0
   -6.8062    0.5760   -0.9769 C   0  0  0  0  0  0  0  0  0  0  0  0
   -8.1475   -0.1351    2.0015 H   0  0  0  0  0  0  0  0  0  0  0  0
   -5.7454    0.0825    2.6429 H   0  0  0  0  0  0  0  0  0  0  0  0
   -2.9340    0.6431   -0.9044 H   0  0  0  0  0  0  0  0  0  0  0  0
   -0.9494   -0.7528   -1.2270 H   0  0  0  0  0  0  0  0  0  0  0  0
    1.4932   -0.8749   -0.8596 H   0  0  0  0  0  0  0  0  0  0  0  0
    3.0602    0.0482   -1.1228 H   0  0  0  0  0  0  0  0  0  0  0  0
    4.8410    0.0025   -2.4603 H   0  0  0  0  0  0  0  0  0  0  0  0
    7.2099   -0.6644   -2.9400 H   0  0  0  0  0  0  0  0  0  0  0  0
    9.4467   -2.4232    0.5718 H   0  0  0  0  0  0  0  0  0  0  0  0
    7.8511   -1.1715    1.2610 H   0  0  0  0  0  0  0  0  0  0  0  0
    5.5101   -0.4965    1.6936 H   0  0  0  0  0  0  0  0  0  0  0  0
    1.0983    1.8390    2.4379 H   0  0  0  0  0  0  0  0  0  0  0  0
   -1.2949    1.9512    2.1262 H   0  0  0  0  0  0  0  0  0  0  0  0
   -4.7527    0.9474   -1.3851 H   0  0  0  0  0  0  0  0  0  0  0  0
   -7.1089    0.7288   -2.0205 H   0  0  0  0  0  0  0  0  0  0  0  0
  1  2  1  0
  2  3  1  0
  2  4  1  0
  2  5  1  0
  1  6  2  0
  6  7  1  0
  7  8  2  0
  8  9  1  0
  9 10  2  0
  9 11  1  0
 11 12  1  0
 12 13  2  0
 13 14  1  0
 14 15  2  0
 15 16  1  0
 16 17  2  0
 16 18  1  0
 18 19  1  0
 19 20  2  0
 20 21  1  0
 21 22  2  0
 22 23  1  0
 23 24  2  0
 23 25  1  0
 22 26  1  0
 26 27  2  0
 15 28  1  0
 28 29  2  0
  8 30  1  0
 30 31  2  0
 31  1  1  0
 29 12  1  0
 27 19  1  0
  6 32  1  0
  7 33  1  0
 11 34  1  0
 13 35  1  0
 14 36  1  0
 18 37  1  0
 20 38  1  0
 21 39  1  0
 25 40  1  0
 26 41  1  0
 27 42  1  0
 28 43  1  0
 29 44  1  0
 30 45  1  0
 31 46  1  0
M  END
$$$$
[H]/C(=C1\C(=O)N([H])c2c([H])c([H])c([H])c([H])c21)c1c([H])c([H])c(-c2c([H])c([H])c(C(=O)N([H])C([H])([H])[H])c([H])c2[H])c([H])c1[H]
     RDKit          3D

 45 48  0  0  0  0  0  0  0  0999 V2000
    2.6515   -0.7336    0.8541 C   0  0  0  0  0  0  0  0  0  0  0  0
    2.0854    0.2767    0.0864 C   0  0  0  0  0  0  0  0  0  0  0  0
    0.7031    0.6799    0.3679 C   0  0  0  0  0  0  0  0  0  0  0  0
    0.1946    0.6074    1.6506 C   0  0  0  0  0  0  0  0  0  0  0  0
   -1.1273    1.0067    1.8730 C   0  0  0  0  0  0  0  0  0  0  0  0
   -1.9388    1.4695    0.8606 C   0  0  0  0  0  0  0  0  0  0  0  0
   -3.2397    1.9691    1.1528 C   0  0  0  0  0  0  0  0  0  0  0  0
   -4.3572    1.3404    0.9780 C   0  0  0  0  0  0  0  0  0  0  0  0
   -5.7206    1.8694    1.2771 C   0  0  0  0  0  0  0  0  0  0  0  0
   -5.9701    2.9991    1.7165 O   0  0  0  0  0  0  0  0  0  0  0  0
   -6.6832    0.8796    0.9803 N   0  0  0  0  0  0  0  0  0  0  0  0
   -5.9554   -0.2399    0.5098 C   0  0  0  0  0  0  0  0  0  0  0  0
   -4.5959   -0.0171    0.4924 C   0  0  0  0  0  0  0  0  0  0  0  0
   -3.7050   -0.9754    0.0855 C   0  0  0  0  0  0  0  0  0  0  0  0
   -4.2230   -2.2041   -0.3211 C   0  0  0  0  0  0  0  0  0  0  0  0
   -5.5786   -2.4238   -0.3053 C   0  0  0  0  0  0  0  0  0  0  0  0
   -6.4471   -1.4522    0.1070 C   0  0  0  0  0  0  0  0  0  0  0  0
   -1.4158    1.5366   -0.4199 C   0  0  0  0  0  0  0  0  0  0  0  0
   -0.1130    1.1423   -0.6375 C   0  0  0  0  0  0  0  0  0  0  0  0
    2.8529    0.8358   -0.9021 C   0  0  0  0  0  0  0  0  0  0  0  0
    4.1492    0.3943   -1.1142 C   0  0  0  0  0  0  0  0  0  0  0  0
    4.7131   -0.6049   -0.3570 C   0  0  0  0  0  0  0  0  0  0  0  0
    6.0722   -1.0516   -0.6225 C   0  0  0  0  0  0  0  0  0  0  0  0
    6.6635   -1.7638    0.2525 O   0  0  0  0  0  0  0  0  0  0  0  0
    6.7932   -0.7449   -1.8055 N   0  0  0  0  0  0  0  0  0  0  0  0
    8.1450   -1.2093   -2.0361 C   0  0  0  0  0  0  0  0  0  0  0  0
    3.9390   -1.1685    0.6401 C   0  0  0  0  0  0  0  0  0  0  0  0
    2.0403   -1.1759    1.6388 H   0  0  0  0  0  0  0  0  0  0  0  0
    0.8118    0.2484    2.4628 H   0  0  0  0  0  0  0  0  0  0  0  0
   -1.4672    0.9260    2.8992 H   0  0  0  0  0  0  0  0  0  0  0  0
   -3.3458    2.9977    1.5751 H   0  0  0  0  0  0  0  0  0  0  0  0
   -7.7145    1.0074    1.1055 H   0  0  0  0  0  0  0  0  0  0  0  0
   -2.6518   -0.9115    0.0584 H   0  0  0  0  0  0  0  0  0  0  0  0
   -3.5836   -3.0030   -0.6552 H   0  0  0  0  0  0  0  0  0  0  0  0
   -6.0060   -3.3786   -0.6203 H   0  0  0  0  0  0  0  0  0  0  0  0
   -7.5164   -1.6741    0.1020 H   0  0  0  0  0  0  0  0  0  0  0  0
   -2.0346    1.8947   -1.2240 H   0  0  0  0  0  0  0  0  0  0  0  0
    0.3356    1.1814   -1.6435 H   0  0  0  0  0  0  0  0  0  0  0  0
    2.4255    1.6276   -1.5111 H   0  0  0  0  0  0  0  0  0  0  0  0
    4.7296    0.8627   -1.9068 H   0  0  0  0  0  0  0  0  0  0  0  0
    6.3432   -0.1683   -2.5468 H   0  0  0  0  0  0  0  0  0  0  0  0
    8.1285   -1.8069   -2.9813 H   0  0  0  0  0  0  0  0  0  0  0  0
    8.8193   -0.3559   -2.1115 H   0  0  0  0  0  0  0  0  0  0  0  0
    8.4095   -1.9374   -1.2360 H   0  0  0  0  0  0  0  0  0  0  0  0
    4.3847   -1.9495    1.2313 H   0  0  0  0  0  0  0  0  0  0  0  0
  1  2  2  0
  2  3  1  0
  3  4  2  0
  4  5  1  0
  5  6  2  0
  6  7  1  0
  7  8  2  0
  8  9  1  0
  9 10  2  0
  9 11  1  0
 11 12  1  0
 12 13  2  0
 13 14  1  0
 14 15  2  0
 15 16  1  0
 16 17  2  0
  6 18  1  0
 18 19  2  0
  2 20  1  0
 20 21  2  0
 21 22  1  0
 22 23  1  0
 23 24  2  0
 23 25  1  0
 25 26  1  0
 22 27  2  0
 27  1  1  0
 19  3  1  0
 13  8  1  0
 17 12  1  0
  1 28  1  0
  4 29  1  0
  5 30  1  0
  7 31  1  0
 11 32  1  0
 14 33  1  0
 15 34  1  0
 16 35  1  0
 17 36  1  0
 18 37  1  0
 19 38  1  0
 20 39  1  0
 21 40  1  0
 25 41  1  0
 26 42  1  0
 26 43  1  0
 26 44  1  0
 27 45  1  0
M  END
$$$$
[H]O[C@@]1([H])[C@]([H])(C([H])([H])OP(=O)(O[H])OP(=O)(O[H])O[H])O[C@@]1([H])n1c([H])nc2c(N([H])[H])nc([H])nc21
     RDKit          3D

 38 40  0  0  0  0  0  0  0  0999 V2000
    6.5534    1.8673    1.2735 N   0  0  0  0  0  0  0  0  0  0  0  0
    5.6958    1.1926    0.3778 C   0  0  0  0  0  0  0  0  0  0  0  0
    6.1297    0.7050   -0.7990 N   0  0  0  0  0  0  0  0  0  0  0  0
    5.3407    0.0678   -1.6554 C   0  0  0  0  0  0  0  0  0  0  0  0
    4.0524   -0.1086   -1.3544 N   0  0  0  0  0  0  0  0  0  0  0  0
    3.5271    0.3498   -0.1889 C   0  0  0  0  0  0  0  0  0  0  0  0
    2.2895    0.3000    0.3355 N   0  0  0  0  0  0  0  0  0  0  0  0
    2.3621    0.9164    1.5111 C   0  0  0  0  0  0  0  0  0  0  0  0
    3.6250    1.3560    1.7404 N   0  0  0  0  0  0  0  0  0  0  0  0
    4.3535    1.0052    0.6844 C   0  0  0  0  0  0  0  0  0  0  0  0
    1.1605   -0.3061   -0.2884 C   0  0  2  0  0  0  0  0  0  0  0  0
    0.1538    0.6084   -0.6051 O   0  0  0  0  0  0  0  0  0  0  0  0
   -0.6764    0.0161    0.3228 C   0  0  1  0  0  0  0  0  0  0  0  0
   -1.9576   -0.4734   -0.3588 C   0  0  0  0  0  0  0  0  0  0  0  0
   -2.7420   -1.0567    0.6352 O   0  0  0  0  0  0  0  0  0  0  0  0
   -4.1907   -1.6378    0.0012 P   0  0  0  0  0  0  0  0  0  0  0  0
   -4.4295   -3.2222    0.5413 O   0  0  0  0  0  0  0  0  0  0  0  0
   -4.1032   -1.6804   -1.5112 O   0  0  0  0  0  0  0  0  0  0  0  0
   -5.5124   -0.7196    0.5080 O   0  0  0  0  0  0  0  0  0  0  0  0
   -5.7900    0.5952   -0.5048 P   0  0  0  0  0  0  0  0  0  0  0  0
   -4.8098    1.8703   -0.0089 O   0  0  0  0  0  0  0  0  0  0  0  0
   -7.4042    1.0933   -0.3486 O   0  0  0  0  0  0  0  0  0  0  0  0
   -5.5319    0.2614   -1.9522 O   0  0  0  0  0  0  0  0  0  0  0  0
    0.2570   -1.1245    0.5763 C   0  0  2  0  0  0  0  0  0  0  0  0
    0.6416   -1.3076    1.8899 O   0  0  0  0  0  0  0  0  0  0  0  0
    7.4306    1.3727    1.5822 H   0  0  0  0  0  0  0  0  0  0  0  0
    6.3085    2.8257    1.6078 H   0  0  0  0  0  0  0  0  0  0  0  0
    5.7219   -0.3193   -2.6082 H   0  0  0  0  0  0  0  0  0  0  0  0
    1.5664    1.0637    2.2008 H   0  0  0  0  0  0  0  0  0  0  0  0
    1.4105   -0.8787   -1.2154 H   0  0  0  0  0  0  0  0  0  0  0  0
   -0.8562    0.6978    1.1675 H   0  0  0  0  0  0  0  0  0  0  0  0
   -2.4395    0.3742   -0.8500 H   0  0  0  0  0  0  0  0  0  0  0  0
   -1.6920   -1.2629   -1.0796 H   0  0  0  0  0  0  0  0  0  0  0  0
   -3.5656   -3.6443    0.7796 H   0  0  0  0  0  0  0  0  0  0  0  0
   -5.3257    2.5840    0.4496 H   0  0  0  0  0  0  0  0  0  0  0  0
   -7.7683    0.8638    0.5509 H   0  0  0  0  0  0  0  0  0  0  0  0
   -0.0768   -2.0821    0.1408 H   0  0  0  0  0  0  0  0  0  0  0  0
    0.2920   -2.1624    2.2506 H   0  0  0  0  0  0  0  0  0  0  0  0
  1  2  1  0
  2  3  2  0
  3  4  1  0
  4  5  2  0
  5  6  1  0
  6  7  1  0
  7  8  1  0
  8  9  2  0
  9 10  1  0
  7 11  1  0
 11 12  1  0
 12 13  1  0
 13 14  1  0
 14 15  1  0
 15 16  1  0
 16 17  1  0
 16 18  2  0
 16 19  1  0
 19 20  1  0
 20 21  1  0
 20 22  1  0
 20 23  2  0
 13 24  1  0
 24 25  1  0
 10  2  1  0
 24 11  1  0
 10  6  2  0
  1 26  1  0
  1 27  1  0
  4 28  1  0
  8 29  1  0
 11 30  1  6
 13 31  1  1
 14 32  1  0
 14 33  1  0
 17 34  1  0
 21 35  1  0
 22 36  1  0
 24 37  1  6
 25 38  1  0
M  END
$$$$
[H]c1c([H])c([H])c2c(c1[H])N=C(N1C([H])([H])C([H])([H])N(C([H])([H])[H])C([H])([H])C1([H])[H])c1c([H])c(F)c([H])c([H])c1S2
     RDKit          3D

 41 44  0  0  0  0  0  0  0  0999 V2000
   -4.8121   -1.0051    0.6921 C   0  0  0  0  0  0  0  0  0  0  0  0
   -3.4465   -0.7289    0.3752 N   0  0  0  0  0  0  0  0  0  0  0  0
   -2.9340    0.2562    1.2744 C   0  0  0  0  0  0  0  0  0  0  0  0
   -1.8292    1.0550    0.6162 C   0  0  0  0  0  0  0  0  0  0  0  0
   -1.0992    0.2368   -0.3155 N   0  0  0  0  0  0  0  0  0  0  0  0
   -1.8025   -0.4011   -1.3944 C   0  0  0  0  0  0  0  0  0  0  0  0
   -3.2725   -0.4104   -1.0245 C   0  0  0  0  0  0  0  0  0  0  0  0
    0.3003    0.0750   -0.1343 C   0  0  0  0  0  0  0  0  0  0  0  0
    0.7452   -1.1031    0.1051 N   0  0  0  0  0  0  0  0  0  0  0  0
    2.0210   -1.6151    0.3295 C   0  0  0  0  0  0  0  0  0  0  0  0
    2.1077   -2.9657   -0.0323 C   0  0  0  0  0  0  0  0  0  0  0  0
    3.2617   -3.6761    0.1027 C   0  0  0  0  0  0  0  0  0  0  0  0
    4.3830   -3.0517    0.6107 C   0  0  0  0  0  0  0  0  0  0  0  0
    4.3250   -1.7391    0.9700 C   0  0  0  0  0  0  0  0  0  0  0  0
    3.1512   -1.0476    0.8238 C   0  0  0  0  0  0  0  0  0  0  0  0
    3.3189    0.6578    1.3568 S   0  0  0  0  0  0  0  0  0  0  0  0
    2.2931    1.6723    0.2963 C   0  0  0  0  0  0  0  0  0  0  0  0
    2.9008    2.8845    0.0942 C   0  0  0  0  0  0  0  0  0  0  0  0
    2.2557    3.7984   -0.7096 C   0  0  0  0  0  0  0  0  0  0  0  0
    1.0420    3.4713   -1.2748 C   0  0  0  0  0  0  0  0  0  0  0  0
    0.3594    4.3467   -2.0829 F   0  0  0  0  0  0  0  0  0  0  0  0
    0.4547    2.2251   -1.0448 C   0  0  0  0  0  0  0  0  0  0  0  0
    1.0846    1.2957   -0.2426 C   0  0  0  0  0  0  0  0  0  0  0  0
   -5.5044   -0.1707    0.4218 H   0  0  0  0  0  0  0  0  0  0  0  0
   -5.1096   -1.9702    0.2577 H   0  0  0  0  0  0  0  0  0  0  0  0
   -4.8840   -1.1224    1.8074 H   0  0  0  0  0  0  0  0  0  0  0  0
   -2.5314   -0.2381    2.1852 H   0  0  0  0  0  0  0  0  0  0  0  0
   -3.6932    0.9982    1.6162 H   0  0  0  0  0  0  0  0  0  0  0  0
   -1.2067    1.4663    1.4227 H   0  0  0  0  0  0  0  0  0  0  0  0
   -2.2952    1.8965    0.0752 H   0  0  0  0  0  0  0  0  0  0  0  0
   -1.4927   -1.4755   -1.5135 H   0  0  0  0  0  0  0  0  0  0  0  0
   -1.7118    0.1164   -2.3494 H   0  0  0  0  0  0  0  0  0  0  0  0
   -3.7788   -1.2073   -1.6015 H   0  0  0  0  0  0  0  0  0  0  0  0
   -3.6732    0.5907   -1.2855 H   0  0  0  0  0  0  0  0  0  0  0  0
    1.2319   -3.4751   -0.4354 H   0  0  0  0  0  0  0  0  0  0  0  0
    3.3268   -4.7191   -0.1773 H   0  0  0  0  0  0  0  0  0  0  0  0
    5.2925   -3.6161    0.7158 H   0  0  0  0  0  0  0  0  0  0  0  0
    5.2101   -1.2421    1.3723 H   0  0  0  0  0  0  0  0  0  0  0  0
    3.8458    3.1772    0.5166 H   0  0  0  0  0  0  0  0  0  0  0  0
    2.6649    4.7825   -0.9234 H   0  0  0  0  0  0  0  0  0  0  0  0
   -0.4995    1.9781   -1.4963 H   0  0  0  0  0  0  0  0  0  0  0  0
  1  2  1  0
  2  3  1  0
  3  4  1  0
  4  5  1  0
  5  6  1  0
  6  7  1  0
  5  8  1  0
  8  9  2  0
  9 10  1  0
 10 11  2  0
 11 12  1  0
 12 13  2  0
 13 14  1  0
 14 15  2  0
 15 16  1  0
 16 17  1  0
 17 18  2  0
 18 19  1  0
 19 20  2  0
 20 21  1  0
 20 22  1  0
 22 23  2  0
  7  2  1  0
 23  8  1  0
 15 10  1  0
 23 17  1  0
  1 24  1  0
  1 25  1  0
  1 26  1  0
  3 27  1  0
  3 28  1  0
  4 29  1  0
  4 30  1  0
  6 31  1  0
  6 32  1  0
  7 33  1  0
  7 34  1  0
 11 35  1  0
 12 36  1  0
 13 37  1  0
 14 38  1  0
 18 39  1  0
 19 40  1  0
 22 41  1  0
M  END
$$$$
[H]c1c([H])c([H])c(/C(=C2/C(=O)N([H])c3c([H])c(C(=O)OC([H])([H])[H])c([H])c([H])c32)N([H])c2c([H])c([H])c(N(C(=O)C([H])([H])N3C([H])([H])C([H])([H])N(C([H])([H])[H])C([H])([H])C3([H])[H])C([H])([H])[H])c([H])c2[H])c([H])c1[H]
     RDKit          3D

 73 77  0  0  0  0  0  0  0  0999 V2000
   -9.6259    2.7362   -3.1505 C   0  0  0  0  0  0  0  0  0  0  0  0
   -8.5822    2.1423   -2.4234 O   0  0  0  0  0  0  0  0  0  0  0  0
   -7.8814    1.0256   -2.8716 C   0  0  0  0  0  0  0  0  0  0  0  0
   -8.1814    0.5157   -3.9683 O   0  0  0  0  0  0  0  0  0  0  0  0
   -6.8215    0.5153   -2.0123 C   0  0  0  0  0  0  0  0  0  0  0  0
   -6.4947    1.0717   -0.8140 C   0  0  0  0  0  0  0  0  0  0  0  0
   -5.4728    0.5613   -0.0049 C   0  0  0  0  0  0  0  0  0  0  0  0
   -4.7972   -0.5386   -0.4611 C   0  0  0  0  0  0  0  0  0  0  0  0
   -3.6924   -1.2784    0.1218 C   0  0  0  0  0  0  0  0  0  0  0  0
   -3.1406   -1.1461    1.2984 C   0  0  0  0  0  0  0  0  0  0  0  0
   -2.0489   -2.0001    1.6122 N   0  0  0  0  0  0  0  0  0  0  0  0
   -0.6955   -1.7404    1.2757 C   0  0  0  0  0  0  0  0  0  0  0  0
   -0.3049   -0.6232    0.5755 C   0  0  0  0  0  0  0  0  0  0  0  0
    1.0409   -0.3967    0.2619 C   0  0  0  0  0  0  0  0  0  0  0  0
    1.9996   -1.2983    0.6546 C   0  0  0  0  0  0  0  0  0  0  0  0
    1.6109   -2.4148    1.3542 C   0  0  0  0  0  0  0  0  0  0  0  0
    0.2717   -2.6400    1.6660 C   0  0  0  0  0  0  0  0  0  0  0  0
    3.3997   -1.0553    0.3267 N   0  0  0  0  0  0  0  0  0  0  0  0
    4.2743   -1.0443    1.4779 C   0  0  0  0  0  0  0  0  0  0  0  0
    3.8217   -0.9048   -0.9850 C   0  0  0  0  0  0  0  0  0  0  0  0
    2.8737   -1.1517   -1.8665 O   0  0  0  0  0  0  0  0  0  0  0  0
    5.0990   -0.5334   -1.5790 C   0  0  0  0  0  0  0  0  0  0  0  0
    6.1819   -0.1535   -0.7808 N   0  0  0  0  0  0  0  0  0  0  0  0
    6.1479    1.1188   -0.1443 C   0  0  0  0  0  0  0  0  0  0  0  0
    7.0593    2.1225   -0.8152 C   0  0  0  0  0  0  0  0  0  0  0  0
    8.4000    1.6684   -0.9414 N   0  0  0  0  0  0  0  0  0  0  0  0
    9.2089    2.3796   -1.8600 C   0  0  0  0  0  0  0  0  0  0  0  0
    8.6125    0.2731   -0.8355 C   0  0  0  0  0  0  0  0  0  0  0  0
    7.4754   -0.6243   -1.1164 C   0  0  0  0  0  0  0  0  0  0  0  0
   -3.6419   -0.3131    2.3473 C   0  0  0  0  0  0  0  0  0  0  0  0
   -3.0180    0.7830    2.8957 C   0  0  0  0  0  0  0  0  0  0  0  0
   -3.5184    1.4571    3.9801 C   0  0  0  0  0  0  0  0  0  0  0  0
   -4.6869    1.0413    4.5595 C   0  0  0  0  0  0  0  0  0  0  0  0
   -5.3502   -0.0483    4.0505 C   0  0  0  0  0  0  0  0  0  0  0  0
   -4.8397   -0.7104    2.9694 C   0  0  0  0  0  0  0  0  0  0  0  0
   -3.3759   -2.3505   -0.8690 C   0  0  0  0  0  0  0  0  0  0  0  0
   -2.4929   -3.2072   -0.7677 O   0  0  0  0  0  0  0  0  0  0  0  0
   -4.2699   -2.2220   -1.9626 N   0  0  0  0  0  0  0  0  0  0  0  0
   -5.1182   -1.1186   -1.6868 C   0  0  0  0  0  0  0  0  0  0  0  0
   -6.1305   -0.5894   -2.4585 C   0  0  0  0  0  0  0  0  0  0  0  0
   -9.4840    3.8397   -3.1260 H   0  0  0  0  0  0  0  0  0  0  0  0
  -10.6287    2.4400   -2.7994 H   0  0  0  0  0  0  0  0  0  0  0  0
   -9.5092    2.4513   -4.2231 H   0  0  0  0  0  0  0  0  0  0  0  0
   -7.0554    1.9338   -0.4979 H   0  0  0  0  0  0  0  0  0  0  0  0
   -5.2980    1.1170    0.8877 H   0  0  0  0  0  0  0  0  0  0  0  0
   -2.3225   -2.8839    2.1371 H   0  0  0  0  0  0  0  0  0  0  0  0
   -1.0852    0.0650    0.2820 H   0  0  0  0  0  0  0  0  0  0  0  0
    1.2956    0.4918   -0.2875 H   0  0  0  0  0  0  0  0  0  0  0  0
    2.3988   -3.1019    1.6458 H   0  0  0  0  0  0  0  0  0  0  0  0
   -0.0090   -3.5256    2.2172 H   0  0  0  0  0  0  0  0  0  0  0  0
    4.3098   -0.0784    2.0033 H   0  0  0  0  0  0  0  0  0  0  0  0
    5.2439   -1.4894    1.2146 H   0  0  0  0  0  0  0  0  0  0  0  0
    3.8678   -1.7578    2.2758 H   0  0  0  0  0  0  0  0  0  0  0  0
    4.9292    0.2743   -2.3603 H   0  0  0  0  0  0  0  0  0  0  0  0
    5.4335   -1.4380   -2.1821 H   0  0  0  0  0  0  0  0  0  0  0  0
    6.5430    1.0192    0.8973 H   0  0  0  0  0  0  0  0  0  0  0  0
    5.1051    1.4958   -0.1442 H   0  0  0  0  0  0  0  0  0  0  0  0
    7.0209    3.0816   -0.2641 H   0  0  0  0  0  0  0  0  0  0  0  0
    6.6418    2.3090   -1.8254 H   0  0  0  0  0  0  0  0  0  0  0  0
    9.5515    1.7468   -2.6801 H   0  0  0  0  0  0  0  0  0  0  0  0
    8.6875    3.2979   -2.1848 H   0  0  0  0  0  0  0  0  0  0  0  0
   10.1414    2.7025   -1.3095 H   0  0  0  0  0  0  0  0  0  0  0  0
    9.4640   -0.0087   -1.5031 H   0  0  0  0  0  0  0  0  0  0  0  0
    8.9967    0.0613    0.2048 H   0  0  0  0  0  0  0  0  0  0  0  0
    7.6214   -1.6038   -0.5691 H   0  0  0  0  0  0  0  0  0  0  0  0
    7.4535   -0.9472   -2.2000 H   0  0  0  0  0  0  0  0  0  0  0  0
   -2.1060    1.1196    2.4536 H   0  0  0  0  0  0  0  0  0  0  0  0
   -3.0267    2.3165    4.4077 H   0  0  0  0  0  0  0  0  0  0  0  0
   -5.1025    1.5578    5.4176 H   0  0  0  0  0  0  0  0  0  0  0  0
   -6.2843   -0.3557    4.5382 H   0  0  0  0  0  0  0  0  0  0  0  0
   -5.4043   -1.5664    2.6063 H   0  0  0  0  0  0  0  0  0  0  0  0
   -4.3057   -2.8330   -2.8311 H   0  0  0  0  0  0  0  0  0  0  0  0
   -6.3795   -1.0398   -3.4080 H   0  0  0  0  0  0  0  0  0  0  0  0
  1  2  1  0
  2  3  1  0
  3  4  2  0
  3  5  1  0
  5  6  2  0
  6  7  1  0
  7  8  2  0
  8  9  1  0
  9 10  2  0
 10 11  1  0
 11 12  1  0
 12 13  2  0
 13 14  1  0
 14 15  2  0
 15 16  1  0
 16 17  2  0
 15 18  1  0
 18 19  1  0
 18 20  1  0
 20 21  2  0
 20 22  1  0
 22 23  1  0
 23 24  1  0
 24 25  1  0
 25 26  1  0
 26 27  1  0
 26 28  1  0
 28 29  1  0
 10 30  1  0
 30 31  2  0
 31 32  1  0
 32 33  2  0
 33 34  1  0
 34 35  2  0
  9 36  1  0
 36 37  2  0
 36 38  1  0
 38 39  1  0
 39 40  2  0
 40  5  1  0
 39  8  1  0
 17 12  1  0
 29 23  1  0
 35 30  1  0
  1 41  1  0
  1 42  1  0
  1 43  1  0
  6 44  1  0
  7 45  1  0
 11 46  1  0
 13 47  1  0
 14 48  1  0
 16 49  1  0
 17 50  1  0
 19 51  1  0
 19 52  1  0
 19 53  1  0
 22 54  1  0
 22 55  1  0
 24 56  1  0
 24 57  1  0
 25 58  1  0
 25 59  1  0
 27 60  1  0
 27 61  1  0
 27 62  1  0
 28 63  1  0
 28 64  1  0
 29 65  1  0
 29 66  1  0
 31 67  1  0
 32 68  1  0
 33 69  1  0
 34 70  1  0
 35 71  1  0
 38 72  1  0
 40 73  1  0
M  END
$$$$
[H]c1c([H])c([H])c2c(c1[H])c1c3c(c4c5c([H])c([H])c([H])c([H])c5n5c4c1n2[C@]1([H])O[C@]5(C([H])([H])[H])[C@@]([H])(OC([H])([H])[H])[C@]([H])(N([H])C([H])([H])[H])C1([H])[H])C([H])([H])N([H])C3=O
     RDKit          3D

 61 68  0  0  0  0  0  0  0  0999 V2000
   -5.0032    2.3015   -0.0847 C   0  0  0  0  0  0  0  0  0  0  0  0
   -4.2911    1.1206   -0.5239 N   0  0  0  0  0  0  0  0  0  0  0  0
   -3.1564    0.9314    0.3042 C   0  0  2  0  0  0  0  0  0  0  0  0
   -2.1540    2.1226    0.1663 C   0  0  0  0  0  0  0  0  0  0  0  0
   -0.9665    1.4540   -0.0205 C   0  0  1  0  0  0  0  0  0  0  0  0
   -1.1415    0.7448   -1.1981 O   0  0  0  0  0  0  0  0  0  0  0  0
   -1.4119   -0.5987   -0.7868 C   0  0  2  0  0  0  0  0  0  0  0  0
   -1.8712   -1.2254   -2.1322 C   0  0  0  0  0  0  0  0  0  0  0  0
   -2.4889   -0.4501    0.1598 C   0  0  1  0  0  0  0  0  0  0  0  0
   -2.3890   -1.1153    1.3880 O   0  0  0  0  0  0  0  0  0  0  0  0
   -3.3269   -2.1274    1.5521 C   0  0  0  0  0  0  0  0  0  0  0  0
   -0.1378   -1.2020   -0.4914 N   0  0  0  0  0  0  0  0  0  0  0  0
    0.1616   -2.5344   -0.6109 C   0  0  0  0  0  0  0  0  0  0  0  0
   -0.5901   -3.6465   -0.8619 C   0  0  0  0  0  0  0  0  0  0  0  0
    0.0056   -4.9014   -0.9123 C   0  0  0  0  0  0  0  0  0  0  0  0
    1.3589   -5.0700   -0.7130 C   0  0  0  0  0  0  0  0  0  0  0  0
    2.1437   -3.9569   -0.4556 C   0  0  0  0  0  0  0  0  0  0  0  0
    1.5172   -2.7445   -0.4151 C   0  0  0  0  0  0  0  0  0  0  0  0
    2.0596   -1.5148   -0.1645 C   0  0  0  0  0  0  0  0  0  0  0  0
    3.3310   -1.0167    0.0798 C   0  0  0  0  0  0  0  0  0  0  0  0
    4.6039   -1.7769    0.1721 C   0  0  0  0  0  0  0  0  0  0  0  0
    5.6037   -0.7850    0.4503 N   0  0  0  0  0  0  0  0  0  0  0  0
    5.0034    0.5280    0.5134 C   0  0  0  0  0  0  0  0  0  0  0  0
    5.7188    1.5160    0.7371 O   0  0  0  0  0  0  0  0  0  0  0  0
    3.6006    0.3262    0.2783 C   0  0  0  0  0  0  0  0  0  0  0  0
    2.5644    1.2461    0.2408 C   0  0  0  0  0  0  0  0  0  0  0  0
    2.4247    2.5831    0.4378 C   0  0  0  0  0  0  0  0  0  0  0  0
    3.2960    3.5951    0.7015 C   0  0  0  0  0  0  0  0  0  0  0  0
    2.7602    4.8881    0.8432 C   0  0  0  0  0  0  0  0  0  0  0  0
    1.4157    5.1498    0.7252 C   0  0  0  0  0  0  0  0  0  0  0  0
    0.5372    4.1127    0.4564 C   0  0  0  0  0  0  0  0  0  0  0  0
    1.0796    2.8483    0.3203 C   0  0  0  0  0  0  0  0  0  0  0  0
    0.4024    1.7469    0.0621 N   0  0  0  0  0  0  0  0  0  0  0  0
    1.3106    0.7318   -0.0025 C   0  0  0  0  0  0  0  0  0  0  0  0
    1.0507   -0.6266   -0.2113 C   0  0  0  0  0  0  0  0  0  0  0  0
   -4.4222    3.2206   -0.0758 H   0  0  0  0  0  0  0  0  0  0  0  0
   -5.9751    2.4312   -0.6421 H   0  0  0  0  0  0  0  0  0  0  0  0
   -5.3325    2.1331    0.9827 H   0  0  0  0  0  0  0  0  0  0  0  0
   -4.9231    0.3185   -0.4524 H   0  0  0  0  0  0  0  0  0  0  0  0
   -3.5204    0.9543    1.3717 H   0  0  0  0  0  0  0  0  0  0  0  0
   -2.2319    2.7634    1.0681 H   0  0  0  0  0  0  0  0  0  0  0  0
   -2.5549    2.7584   -0.6810 H   0  0  0  0  0  0  0  0  0  0  0  0
   -1.0177    0.7572    0.9341 H   0  0  0  0  0  0  0  0  0  0  0  0
   -2.1640   -0.4180   -2.8609 H   0  0  0  0  0  0  0  0  0  0  0  0
   -1.0623   -1.7738   -2.6232 H   0  0  0  0  0  0  0  0  0  0  0  0
   -2.8063   -1.7859   -1.9703 H   0  0  0  0  0  0  0  0  0  0  0  0
   -3.3692   -1.0206   -0.3155 H   0  0  0  0  0  0  0  0  0  0  0  0
   -4.3685   -1.7465    1.5031 H   0  0  0  0  0  0  0  0  0  0  0  0
   -3.1360   -2.7642    2.4105 H   0  0  0  0  0  0  0  0  0  0  0  0
   -3.2309   -2.7727    0.6280 H   0  0  0  0  0  0  0  0  0  0  0  0
   -1.6587   -3.5713   -1.0137 H   0  0  0  0  0  0  0  0  0  0  0  0
   -0.5879   -5.7740   -1.1105 H   0  0  0  0  0  0  0  0  0  0  0  0
    1.8233   -6.0462   -0.7522 H   0  0  0  0  0  0  0  0  0  0  0  0
    3.2016   -4.0714   -0.2980 H   0  0  0  0  0  0  0  0  0  0  0  0
    4.5688   -2.4736    1.0276 H   0  0  0  0  0  0  0  0  0  0  0  0
    4.8295   -2.3223   -0.7651 H   0  0  0  0  0  0  0  0  0  0  0  0
    6.6092   -1.0259    0.5823 H   0  0  0  0  0  0  0  0  0  0  0  0
    4.3503    3.4578    0.8021 H   0  0  0  0  0  0  0  0  0  0  0  0
    3.4660    5.6873    1.0540 H   0  0  0  0  0  0  0  0  0  0  0  0
    1.0161    6.1615    0.8387 H   0  0  0  0  0  0  0  0  0  0  0  0
   -0.5241    4.2689    0.3538 H   0  0  0  0  0  0  0  0  0  0  0  0
  1  2  1  0
  2  3  1  0
  3  4  1  0
  4  5  1  0
  5  6  1  0
  6  7  1  0
  7  8  1  6
  7  9  1  0
  9 10  1  0
 10 11  1  0
  7 12  1  0
 12 13  1  0
 13 14  2  0
 14 15  1  0
 15 16  2  0
 16 17  1  0
 17 18  2  0
 18 19  1  0
 19 20  2  0
 20 21  1  0
 21 22  1  0
 22 23  1  0
 23 24  2  0
 23 25  1  0
 25 26  2  0
 26 27  1  0
 27 28  2  0
 28 29  1  0
 29 30  2  0
 30 31  1  0
 31 32  2  0
 32 33  1  0
 33 34  1  0
 34 35  2  0
  9  3  1  0
 35 12  1  0
 33  5  1  0
 18 13  1  0
 35 19  1  0
 25 20  1  0
 34 26  1  0
 32 27  1  0
  1 36  1  0
  1 37  1  0
  1 38  1  0
  2 39  1  0
  3 40  1  1
  4 41  1  0
  4 42  1  0
  5 43  1  1
  8 44  1  0
  8 45  1  0
  8 46  1  0
  9 47  1  6
 11 48  1  0
 11 49  1  0
 11 50  1  0
 14 51  1  0
 15 52  1  0
 16 53  1  0
 17 54  1  0
 21 55  1  0
 21 56  1  0
 22 57  1  0
 28 58  1  0
 29 59  1  0
 30 60  1  0
 31 61  1  0
M  END
$$$$
[H]c1c([H])c([H])c2c(c1[H])c1c3c(c4c5c([H])c([H])c([H])c([H])c5n5c4c1n2[C@@]1([H])O[C@]5(C([H])([H])[H])[C@]([H])(OC([H])([H])[H])[C@]([H])(N([H])C([H])([H])[H])C1([H])[H])C([H])([H])N([H])C3=O
     RDKit          3D

 61 68  0  0  0  0  0  0  0  0999 V2000
   -4.3076   -2.7064   -1.0127 C   0  0  0  0  0  0  0  0  0  0  0  0
   -3.8413   -1.4965   -0.4024 N   0  0  0  0  0  0  0  0  0  0  0  0
   -2.8068   -0.8179   -1.1200 C   0  0  2  0  0  0  0  0  0  0  0  0
   -1.5321   -1.5571   -1.2793 C   0  0  0  0  0  0  0  0  0  0  0  0
   -0.9506   -1.8190    0.0799 C   0  0  2  0  0  0  0  0  0  0  0  0
   -1.3671   -1.0159    1.0665 O   0  0  0  0  0  0  0  0  0  0  0  0
   -1.6263    0.3282    0.7847 C   0  0  2  0  0  0  0  0  0  0  0  0
   -2.4526    0.7344    2.0200 C   0  0  0  0  0  0  0  0  0  0  0  0
   -2.4608    0.5220   -0.4360 C   0  0  2  0  0  0  0  0  0  0  0  0
   -3.7392    1.0476   -0.1862 O   0  0  0  0  0  0  0  0  0  0  0  0
   -3.9090    2.1550   -1.0110 C   0  0  0  0  0  0  0  0  0  0  0  0
   -0.3558    1.0286    0.7685 N   0  0  0  0  0  0  0  0  0  0  0  0
   -0.1473    2.3243    1.0623 C   0  0  0  0  0  0  0  0  0  0  0  0
   -1.0041    3.3431    1.4011 C   0  0  0  0  0  0  0  0  0  0  0  0
   -0.5448    4.6334    1.6529 C   0  0  0  0  0  0  0  0  0  0  0  0
    0.8011    4.9401    1.5697 C   0  0  0  0  0  0  0  0  0  0  0  0
    1.6591    3.9324    1.2321 C   0  0  0  0  0  0  0  0  0  0  0  0
    1.1909    2.6634    0.9865 C   0  0  0  0  0  0  0  0  0  0  0  0
    1.8420    1.5282    0.6254 C   0  0  0  0  0  0  0  0  0  0  0  0
    3.1761    1.2314    0.3831 C   0  0  0  0  0  0  0  0  0  0  0  0
    4.3461    2.1315    0.4687 C   0  0  0  0  0  0  0  0  0  0  0  0
    5.4561    1.3051    0.1169 N   0  0  0  0  0  0  0  0  0  0  0  0
    5.0112   -0.0319   -0.1687 C   0  0  0  0  0  0  0  0  0  0  0  0
    5.8125   -0.9140   -0.4933 O   0  0  0  0  0  0  0  0  0  0  0  0
    3.5755   -0.0398    0.0083 C   0  0  0  0  0  0  0  0  0  0  0  0
    2.6044   -1.0059   -0.1182 C   0  0  0  0  0  0  0  0  0  0  0  0
    2.6369   -2.3451   -0.4820 C   0  0  0  0  0  0  0  0  0  0  0  0
    3.6347   -3.2140   -0.8364 C   0  0  0  0  0  0  0  0  0  0  0  0
    3.2673   -4.5274   -1.1453 C   0  0  0  0  0  0  0  0  0  0  0  0
    1.9686   -4.9612   -1.1050 C   0  0  0  0  0  0  0  0  0  0  0  0
    0.9788   -4.0774   -0.7474 C   0  0  0  0  0  0  0  0  0  0  0  0
    1.3219   -2.7626   -0.4352 C   0  0  0  0  0  0  0  0  0  0  0  0
    0.5132   -1.7826   -0.0732 N   0  0  0  0  0  0  0  0  0  0  0  0
    1.2701   -0.7014    0.1270 C   0  0  0  0  0  0  0  0  0  0  0  0
    0.9045    0.5628    0.4982 C   0  0  0  0  0  0  0  0  0  0  0  0
   -4.7764   -3.3247   -0.1923 H   0  0  0  0  0  0  0  0  0  0  0  0
   -3.5111   -3.3078   -1.4542 H   0  0  0  0  0  0  0  0  0  0  0  0
   -5.1383   -2.5088   -1.7489 H   0  0  0  0  0  0  0  0  0  0  0  0
   -4.6542   -0.8478   -0.3131 H   0  0  0  0  0  0  0  0  0  0  0  0
   -3.2277   -0.5268   -2.1174 H   0  0  0  0  0  0  0  0  0  0  0  0
   -1.7139   -2.4796   -1.8617 H   0  0  0  0  0  0  0  0  0  0  0  0
   -0.8639   -0.9327   -1.9263 H   0  0  0  0  0  0  0  0  0  0  0  0
   -1.1932   -2.8648    0.3524 H   0  0  0  0  0  0  0  0  0  0  0  0
   -3.3606    1.2871    1.7713 H   0  0  0  0  0  0  0  0  0  0  0  0
   -2.8493   -0.1854    2.5577 H   0  0  0  0  0  0  0  0  0  0  0  0
   -1.8393    1.2346    2.7844 H   0  0  0  0  0  0  0  0  0  0  0  0
   -1.9325    1.1245   -1.2048 H   0  0  0  0  0  0  0  0  0  0  0  0
   -3.8257    1.8893   -2.0936 H   0  0  0  0  0  0  0  0  0  0  0  0
   -4.9094    2.6080   -0.8052 H   0  0  0  0  0  0  0  0  0  0  0  0
   -3.1669    2.9606   -0.8414 H   0  0  0  0  0  0  0  0  0  0  0  0
   -2.0659    3.1986    1.4706 H   0  0  0  0  0  0  0  0  0  0  0  0
   -1.2295    5.4138    1.9161 H   0  0  0  0  0  0  0  0  0  0  0  0
    1.2019    5.9275    1.7574 H   0  0  0  0  0  0  0  0  0  0  0  0
    2.7144    4.1379    1.1588 H   0  0  0  0  0  0  0  0  0  0  0  0
    4.2537    2.9810   -0.2452 H   0  0  0  0  0  0  0  0  0  0  0  0
    4.3986    2.4903    1.5256 H   0  0  0  0  0  0  0  0  0  0  0  0
    6.4429    1.6442    0.0780 H   0  0  0  0  0  0  0  0  0  0  0  0
    4.6662   -2.9639   -0.8926 H   0  0  0  0  0  0  0  0  0  0  0  0
    4.0400   -5.2302   -1.4274 H   0  0  0  0  0  0  0  0  0  0  0  0
    1.6739   -5.9808   -1.3442 H   0  0  0  0  0  0  0  0  0  0  0  0
   -0.0595   -4.3794   -0.7035 H   0  0  0  0  0  0  0  0  0  0  0  0
  1  2  1  0
  2  3  1  0
  3  4  1  0
  4  5  1  0
  5  6  1  0
  6  7  1  0
  7  8  1  1
  7  9  1  0
  9 10  1  0
 10 11  1  0
  7 12  1  0
 12 13  1  0
 13 14  2  0
 14 15  1  0
 15 16  2  0
 16 17  1  0
 17 18  2  0
 18 19  1  0
 19 20  2  0
 20 21  1  0
 21 22  1  0
 22 23  1  0
 23 24  2  0
 23 25  1  0
 25 26  2  0
 26 27  1  0
 27 28  2  0
 28 29  1  0
 29 30  2  0
 30 31  1  0
 31 32  2  0
 32 33  1  0
 33 34  1  0
 34 35  2  0
  9  3  1  0
 35 12  1  0
 33  5  1  0
 18 13  1  0
 35 19  1  0
 25 20  1  0
 34 26  1  0
 32 27  1  0
  1 36  1  0
  1 37  1  0
  1 38  1  0
  2 39  1  0
  3 40  1  6
  4 41  1  0
  4 42  1  0
  5 43  1  1
  8 44  1  0
  8 45  1  0
  8 46  1  0
  9 47  1  6
 11 48  1  0
 11 49  1  0
 11 50  1  0
 14 51  1  0
 15 52  1  0
 16 53  1  0
 17 54  1  0
 21 55  1  0
 21 56  1  0
 22 57  1  0
 28 58  1  0
 29 59  1  0
 30 60  1  0
 31 61  1  0
M  END
$$$$
[H]c1c([H])c([H])c(C([H])([H])OC(=O)N([H])[C@]([H])(C(=O)N([H])[C@]([H])(C(=O)N([H])C([H])([H])C#N)C([H])([H])C([H])(C([H])([H])[H])C([H])([H])[H])C([H])([H])C([H])(C([H])([H])[H])C([H])([H])[H])c([H])c1[H]
     RDKit          3D

 62 62  0  0  0  0  0  0  0  0999 V2000
   -5.7807    2.0395   -0.8081 C   0  0  0  0  0  0  0  0  0  0  0  0
   -5.1815    1.1610    0.3196 C   0  0  0  0  0  0  0  0  0  0  0  0
   -4.8543    2.1831    1.4207 C   0  0  0  0  0  0  0  0  0  0  0  0
   -3.9707    0.5541   -0.2592 C   0  0  0  0  0  0  0  0  0  0  0  0
   -3.1555   -0.3686    0.5945 C   0  0  2  0  0  0  0  0  0  0  0  0
   -2.0251   -0.7682   -0.2934 N   0  0  0  0  0  0  0  0  0  0  0  0
   -0.6953   -0.3685   -0.0089 C   0  0  0  0  0  0  0  0  0  0  0  0
   -0.4996    0.3295    1.0103 O   0  0  0  0  0  0  0  0  0  0  0  0
    0.4603   -0.7393   -0.8600 C   0  0  2  0  0  0  0  0  0  0  0  0
    0.4509   -2.2314   -0.9413 C   0  0  0  0  0  0  0  0  0  0  0  0
    1.5130   -2.8708   -1.7479 C   0  0  0  0  0  0  0  0  0  0  0  0
    2.9187   -2.6358   -1.3487 C   0  0  0  0  0  0  0  0  0  0  0  0
    1.2355   -4.3815   -1.7034 C   0  0  0  0  0  0  0  0  0  0  0  0
    1.6459   -0.1699   -0.2784 N   0  0  0  0  0  0  0  0  0  0  0  0
    2.4225    0.8316   -0.9255 C   0  0  0  0  0  0  0  0  0  0  0  0
    2.0335    1.2168   -2.0540 O   0  0  0  0  0  0  0  0  0  0  0  0
    3.5620    1.3939   -0.3887 O   0  0  0  0  0  0  0  0  0  0  0  0
    4.3063    2.3869   -1.0643 C   0  0  0  0  0  0  0  0  0  0  0  0
    5.4759    2.8297   -0.2863 C   0  0  0  0  0  0  0  0  0  0  0  0
    6.6642    2.1715   -0.4119 C   0  0  0  0  0  0  0  0  0  0  0  0
    7.7814    2.5514    0.2960 C   0  0  0  0  0  0  0  0  0  0  0  0
    7.7409    3.6192    1.1651 C   0  0  0  0  0  0  0  0  0  0  0  0
    6.5386    4.2933    1.2989 C   0  0  0  0  0  0  0  0  0  0  0  0
    5.4210    3.9124    0.5900 C   0  0  0  0  0  0  0  0  0  0  0  0
   -3.8445   -1.5738    1.0664 C   0  0  0  0  0  0  0  0  0  0  0  0
   -3.4924   -2.6918    0.6099 O   0  0  0  0  0  0  0  0  0  0  0  0
   -4.8877   -1.5477    2.0143 N   0  0  0  0  0  0  0  0  0  0  0  0
   -5.5458   -2.7949    2.4478 C   0  0  0  0  0  0  0  0  0  0  0  0
   -4.5518   -3.6921    3.0584 C   0  0  0  0  0  0  0  0  0  0  0  0
   -3.7759   -4.4033    3.5321 N   0  0  0  0  0  0  0  0  0  0  0  0
   -6.2670    1.4167   -1.5602 H   0  0  0  0  0  0  0  0  0  0  0  0
   -6.5024    2.7605   -0.3691 H   0  0  0  0  0  0  0  0  0  0  0  0
   -4.9751    2.6516   -1.2783 H   0  0  0  0  0  0  0  0  0  0  0  0
   -5.9939    0.4862    0.6009 H   0  0  0  0  0  0  0  0  0  0  0  0
   -5.7410    2.8231    1.6277 H   0  0  0  0  0  0  0  0  0  0  0  0
   -4.6115    1.6603    2.3616 H   0  0  0  0  0  0  0  0  0  0  0  0
   -4.0648    2.8414    1.0500 H   0  0  0  0  0  0  0  0  0  0  0  0
   -3.3332    1.3797   -0.6658 H   0  0  0  0  0  0  0  0  0  0  0  0
   -4.2936   -0.0005   -1.1912 H   0  0  0  0  0  0  0  0  0  0  0  0
   -2.6947    0.2322    1.3999 H   0  0  0  0  0  0  0  0  0  0  0  0
   -2.2015   -1.3500   -1.1389 H   0  0  0  0  0  0  0  0  0  0  0  0
    0.2910   -0.2744   -1.8598 H   0  0  0  0  0  0  0  0  0  0  0  0
    0.3657   -2.6427    0.0775 H   0  0  0  0  0  0  0  0  0  0  0  0
   -0.5299   -2.4986   -1.4382 H   0  0  0  0  0  0  0  0  0  0  0  0
    1.4300   -2.6226   -2.8468 H   0  0  0  0  0  0  0  0  0  0  0  0
    3.4968   -3.6001   -1.4822 H   0  0  0  0  0  0  0  0  0  0  0  0
    3.4652   -1.9230   -2.0007 H   0  0  0  0  0  0  0  0  0  0  0  0
    3.0120   -2.4192   -0.2694 H   0  0  0  0  0  0  0  0  0  0  0  0
    2.0083   -4.9305   -2.2928 H   0  0  0  0  0  0  0  0  0  0  0  0
    0.2669   -4.5985   -2.1991 H   0  0  0  0  0  0  0  0  0  0  0  0
    1.1513   -4.7404   -0.6597 H   0  0  0  0  0  0  0  0  0  0  0  0
    2.0128   -0.4628    0.6725 H   0  0  0  0  0  0  0  0  0  0  0  0
    4.6518    2.0731   -2.0636 H   0  0  0  0  0  0  0  0  0  0  0  0
    3.6620    3.2917   -1.2245 H   0  0  0  0  0  0  0  0  0  0  0  0
    6.7174    1.3311   -1.0884 H   0  0  0  0  0  0  0  0  0  0  0  0
    8.6981    2.0221    0.1812 H   0  0  0  0  0  0  0  0  0  0  0  0
    8.6116    3.9125    1.7149 H   0  0  0  0  0  0  0  0  0  0  0  0
    6.4838    5.1368    1.9774 H   0  0  0  0  0  0  0  0  0  0  0  0
    4.4846    4.4436    0.6990 H   0  0  0  0  0  0  0  0  0  0  0  0
   -5.2627   -0.6950    2.4816 H   0  0  0  0  0  0  0  0  0  0  0  0
   -6.3072   -2.5912    3.1907 H   0  0  0  0  0  0  0  0  0  0  0  0
   -5.9404   -3.3495    1.5501 H   0  0  0  0  0  0  0  0  0  0  0  0
  1  2  1  0
  2  3  1  0
  2  4  1  0
  4  5  1  0
  5  6  1  0
  6  7  1  0
  7  8  2  0
  7  9  1  0
  9 10  1  0
 10 11  1  0
 11 12  1  0
 11 13  1  0
  9 14  1  0
 14 15  1  0
 15 16  2  0
 15 17  1  0
 17 18  1  0
 18 19  1  0
 19 20  2  0
 20 21  1  0
 21 22  2  0
 22 23  1  0
 23 24  2  0
  5 25  1  0
 25 26  2  0
 25 27  1  0
 27 28  1  0
 28 29  1  0
 29 30  3  0
 24 19  1  0
  1 31  1  0
  1 32  1  0
  1 33  1  0
  2 34  1  0
  3 35  1  0
  3 36  1  0
  3 37  1  0
  4 38  1  0
  4 39  1  0
  5 40  1  1
  6 41  1  0
  9 42  1  6
 10 43  1  0
 10 44  1  0
 11 45  1  0
 12 46  1  0
 12 47  1  0
 12 48  1  0
 13 49  1  0
 13 50  1  0
 13 51  1  0
 14 52  1  0
 18 53  1  0
 18 54  1  0
 20 55  1  0
 21 56  1  0
 22 57  1  0
 23 58  1  0
 24 59  1  0
 27 60  1  0
 28 61  1  0
 28 62  1  0
M  END
$$$$
[H]OC(=O)[C@@]([H])(N([H])C(=O)[C@@]([H])(N([H])C(=O)[C@@]([H])(N([H])C(=O)C([H])([H])[H])C([H])([H])c1c([H])c([H])c(O[H])c([H])c1[H])C([H])([H])c1c([H])c([H])c(O[H])c([H])c1[H])C([H])([H])c1c([H])n([H])c2c([H])c([H])c([H])c([H])c12
     RDKit          3D

 74 77  0  0  0  0  0  0  0  0999 V2000
    3.8821    1.1322   -3.2469 O   0  0  0  0  0  0  0  0  0  0  0  0
    4.7669    0.3080   -2.9127 C   0  0  0  0  0  0  0  0  0  0  0  0
    4.6501   -0.4448   -1.7305 N   0  0  0  0  0  0  0  0  0  0  0  0
    3.5695   -0.3971   -0.7813 C   0  0  1  0  0  0  0  0  0  0  0  0
    3.4310    0.9851   -0.1816 C   0  0  0  0  0  0  0  0  0  0  0  0
    4.6301    1.4502    0.5453 C   0  0  0  0  0  0  0  0  0  0  0  0
    5.6178    2.2303   -0.0103 C   0  0  0  0  0  0  0  0  0  0  0  0
    6.7310    2.6188    0.7254 C   0  0  0  0  0  0  0  0  0  0  0  0
    6.8961    2.2436    2.0387 C   0  0  0  0  0  0  0  0  0  0  0  0
    8.0101    2.6366    2.7626 O   0  0  0  0  0  0  0  0  0  0  0  0
    5.9013    1.4569    2.6038 C   0  0  0  0  0  0  0  0  0  0  0  0
    4.7965    1.0684    1.8804 C   0  0  0  0  0  0  0  0  0  0  0  0
    2.2686   -0.7660   -1.3502 C   0  0  0  0  0  0  0  0  0  0  0  0
    2.1797   -1.0073   -2.5748 O   0  0  0  0  0  0  0  0  0  0  0  0
    1.0732   -0.8666   -0.5644 N   0  0  0  0  0  0  0  0  0  0  0  0
   -0.1622   -1.2184   -1.1844 C   0  0  1  0  0  0  0  0  0  0  0  0
   -0.3422   -2.7210   -1.0738 C   0  0  0  0  0  0  0  0  0  0  0  0
   -0.3614   -3.2303    0.3046 C   0  0  0  0  0  0  0  0  0  0  0  0
   -1.4901   -3.4252    1.0621 C   0  0  0  0  0  0  0  0  0  0  0  0
   -1.4591   -3.9069    2.3473 C   0  0  0  0  0  0  0  0  0  0  0  0
   -0.2557   -4.2197    2.9365 C   0  0  0  0  0  0  0  0  0  0  0  0
   -0.1881   -4.7145    4.2508 O   0  0  0  0  0  0  0  0  0  0  0  0
    0.8944   -4.0361    2.2045 C   0  0  0  0  0  0  0  0  0  0  0  0
    0.8380   -3.5491    0.9101 C   0  0  0  0  0  0  0  0  0  0  0  0
   -1.3493   -0.5336   -0.5327 C   0  0  0  0  0  0  0  0  0  0  0  0
   -1.1459   -0.3931    0.7240 O   0  0  0  0  0  0  0  0  0  0  0  0
   -2.4393   -0.1528   -1.2664 N   0  0  0  0  0  0  0  0  0  0  0  0
   -3.5200    0.2249   -1.9932 C   0  0  1  0  0  0  0  0  0  0  0  0
   -4.9071   -0.1352   -1.4896 C   0  0  0  0  0  0  0  0  0  0  0  0
   -5.2835    0.3234   -0.1713 C   0  0  0  0  0  0  0  0  0  0  0  0
   -5.1807   -0.5238    0.9593 C   0  0  0  0  0  0  0  0  0  0  0  0
   -5.5625    0.1383    2.0472 N   0  0  0  0  0  0  0  0  0  0  0  0
   -5.9244    1.4104    1.6999 C   0  0  0  0  0  0  0  0  0  0  0  0
   -6.3911    2.4422    2.4775 C   0  0  0  0  0  0  0  0  0  0  0  0
   -6.6971    3.6309    1.8637 C   0  0  0  0  0  0  0  0  0  0  0  0
   -6.5300    3.7483    0.5083 C   0  0  0  0  0  0  0  0  0  0  0  0
   -6.0692    2.7326   -0.2712 C   0  0  0  0  0  0  0  0  0  0  0  0
   -5.7476    1.5090    0.3328 C   0  0  0  0  0  0  0  0  0  0  0  0
   -3.4582    1.5641   -2.6197 C   0  0  0  0  0  0  0  0  0  0  0  0
   -4.3887    2.0529   -3.4949 O   0  0  0  0  0  0  0  0  0  0  0  0
   -2.4279    2.2544   -2.2718 O   0  0  0  0  0  0  0  0  0  0  0  0
    5.9296    0.1720   -3.8214 C   0  0  0  0  0  0  0  0  0  0  0  0
    5.4789   -1.1180   -1.5542 H   0  0  0  0  0  0  0  0  0  0  0  0
    3.8590   -1.0840    0.0645 H   0  0  0  0  0  0  0  0  0  0  0  0
    2.5200    1.0275    0.4737 H   0  0  0  0  0  0  0  0  0  0  0  0
    3.2074    1.7375   -0.9837 H   0  0  0  0  0  0  0  0  0  0  0  0
    5.5577    2.5786   -1.0295 H   0  0  0  0  0  0  0  0  0  0  0  0
    7.4887    3.2432    0.2239 H   0  0  0  0  0  0  0  0  0  0  0  0
    8.0410    3.4905    3.2961 H   0  0  0  0  0  0  0  0  0  0  0  0
    5.9938    1.1352    3.6498 H   0  0  0  0  0  0  0  0  0  0  0  0
    4.0337    0.4476    2.3702 H   0  0  0  0  0  0  0  0  0  0  0  0
    1.1806   -0.6660    0.4719 H   0  0  0  0  0  0  0  0  0  0  0  0
   -0.1324   -1.0032   -2.2577 H   0  0  0  0  0  0  0  0  0  0  0  0
    0.4843   -3.1757   -1.6906 H   0  0  0  0  0  0  0  0  0  0  0  0
   -1.2802   -3.0586   -1.5629 H   0  0  0  0  0  0  0  0  0  0  0  0
   -2.4478   -3.1709    0.5791 H   0  0  0  0  0  0  0  0  0  0  0  0
   -2.3587   -4.0464    2.9004 H   0  0  0  0  0  0  0  0  0  0  0  0
   -0.2349   -5.7338    4.3555 H   0  0  0  0  0  0  0  0  0  0  0  0
    1.8217   -4.2914    2.6988 H   0  0  0  0  0  0  0  0  0  0  0  0
    1.7679   -3.4261    0.3918 H   0  0  0  0  0  0  0  0  0  0  0  0
   -2.9880    0.4178   -0.1616 H   0  0  0  0  0  0  0  0  0  0  0  0
   -3.5160   -0.4643   -2.9803 H   0  0  0  0  0  0  0  0  0  0  0  0
   -5.6236    0.3514   -2.2233 H   0  0  0  0  0  0  0  0  0  0  0  0
   -5.1222   -1.2373   -1.6548 H   0  0  0  0  0  0  0  0  0  0  0  0
   -4.8494   -1.5529    0.9652 H   0  0  0  0  0  0  0  0  0  0  0  0
   -5.6002   -0.2027    3.0370 H   0  0  0  0  0  0  0  0  0  0  0  0
   -6.5265    2.3553    3.5277 H   0  0  0  0  0  0  0  0  0  0  0  0
   -7.0649    4.4585    2.4318 H   0  0  0  0  0  0  0  0  0  0  0  0
   -6.7723    4.6998   -0.0060 H   0  0  0  0  0  0  0  0  0  0  0  0
   -5.9532    2.8104   -1.3444 H   0  0  0  0  0  0  0  0  0  0  0  0
   -4.5103    3.0620   -3.5427 H   0  0  0  0  0  0  0  0  0  0  0  0
    6.0491   -0.9127   -4.1252 H   0  0  0  0  0  0  0  0  0  0  0  0
    6.8668    0.4266   -3.2510 H   0  0  0  0  0  0  0  0  0  0  0  0
    5.8454    0.8103   -4.7111 H   0  0  0  0  0  0  0  0  0  0  0  0
  1  2  2  0
  2  3  1  0
  3  4  1  0
  4  5  1  0
  5  6  1  0
  6  7  2  0
  7  8  1  0
  8  9  2  0
  9 10  1  0
  9 11  1  0
 11 12  2  0
  4 13  1  0
 13 14  2  0
 13 15  1  0
 15 16  1  0
 16 17  1  0
 17 18  1  0
 18 19  2  0
 19 20  1  0
 20 21  2  0
 21 22  1  0
 21 23  1  0
 23 24  2  0
 16 25  1  0
 25 26  2  0
 25 27  1  0
 27 28  1  0
 28 29  1  0
 29 30  1  0
 30 31  2  0
 31 32  1  0
 32 33  1  0
 33 34  2  0
 34 35  1  0
 35 36  2  0
 36 37  1  0
 37 38  2  0
 28 39  1  0
 39 40  1  0
 39 41  2  0
  2 42  1  0
 12  6  1  0
 24 18  1  0
 38 30  1  0
 38 33  1  0
  3 43  1  0
  4 44  1  1
  5 45  1  0
  5 46  1  0
  7 47  1  0
  8 48  1  0
 10 49  1  0
 11 50  1  0
 12 51  1  0
 15 52  1  0
 16 53  1  6
 17 54  1  0
 17 55  1  0
 19 56  1  0
 20 57  1  0
 22 58  1  0
 23 59  1  0
 24 60  1  0
 27 61  1  0
 28 62  1  6
 29 63  1  0
 29 64  1  0
 31 65  1  0
 32 66  1  0
 34 67  1  0
 35 68  1  0
 36 69  1  0
 37 70  1  0
 40 71  1  0
 42 72  1  0
 42 73  1  0
 42 74  1  0
M  END
$$$$
[H]Oc1c([H])c([H])c(C(=O)/C([H])=C(\[H])c2c([H])c([H])c(O[H])c(O[H])c2[H])c([H])c1Br
     RDKit          3D

 31 32  0  0  0  0  0  0  0  0999 V2000
   -6.3108    0.8373    0.3187 O   0  0  0  0  0  0  0  0  0  0  0  0
   -4.9320    0.5925    0.2712 C   0  0  0  0  0  0  0  0  0  0  0  0
   -4.4360   -0.6850    0.2535 C   0  0  0  0  0  0  0  0  0  0  0  0
   -3.0593   -0.9136    0.2060 C   0  0  0  0  0  0  0  0  0  0  0  0
   -2.1534    0.1100    0.1753 C   0  0  0  0  0  0  0  0  0  0  0  0
   -0.6968   -0.0832    0.1251 C   0  0  0  0  0  0  0  0  0  0  0  0
   -0.0833   -1.2275    0.1034 C   0  0  0  0  0  0  0  0  0  0  0  0
    1.2722   -1.6265    0.0565 C   0  0  0  0  0  0  0  0  0  0  0  0
    1.3874   -2.9541    0.0519 O   0  0  0  0  0  0  0  0  0  0  0  0
    2.5315   -0.9450    0.0135 C   0  0  0  0  0  0  0  0  0  0  0  0
    2.7038    0.3990    0.0082 C   0  0  0  0  0  0  0  0  0  0  0  0
    3.9602    1.0286   -0.0347 C   0  0  0  0  0  0  0  0  0  0  0  0
    5.0852    0.2385   -0.0738 C   0  0  0  0  0  0  0  0  0  0  0  0
    6.3320    0.8439   -0.1164 O   0  0  0  0  0  0  0  0  0  0  0  0
    4.9605   -1.1246   -0.0701 C   0  0  0  0  0  0  0  0  0  0  0  0
    6.5227   -2.2457   -0.1243 Br  0  0  0  0  0  0  0  0  0  0  0  0
    3.7266   -1.7045   -0.0279 C   0  0  0  0  0  0  0  0  0  0  0  0
   -2.6740    1.3926    0.1938 C   0  0  0  0  0  0  0  0  0  0  0  0
   -4.0287    1.6420    0.2405 C   0  0  0  0  0  0  0  0  0  0  0  0
   -4.5165    2.9479    0.2579 O   0  0  0  0  0  0  0  0  0  0  0  0
   -6.9207    0.0315    0.3394 H   0  0  0  0  0  0  0  0  0  0  0  0
   -5.1378   -1.5242    0.2773 H   0  0  0  0  0  0  0  0  0  0  0  0
   -2.7529   -1.9304    0.1950 H   0  0  0  0  0  0  0  0  0  0  0  0
   -0.1014    0.7987    0.1050 H   0  0  0  0  0  0  0  0  0  0  0  0
   -0.8254   -2.0887    0.1285 H   0  0  0  0  0  0  0  0  0  0  0  0
    1.8931    1.0805    0.0364 H   0  0  0  0  0  0  0  0  0  0  0  0
    4.0151    2.1134   -0.0361 H   0  0  0  0  0  0  0  0  0  0  0  0
    6.4542    1.8300   -0.1201 H   0  0  0  0  0  0  0  0  0  0  0  0
    3.6630   -2.7818   -0.0262 H   0  0  0  0  0  0  0  0  0  0  0  0
   -1.9912    2.2328    0.1707 H   0  0  0  0  0  0  0  0  0  0  0  0
   -3.8873    3.7157    0.2366 H   0  0  0  0  0  0  0  0  0  0  0  0
  1  2  1  0
  2  3  2  0
  3  4  1  0
  4  5  2  0
  5  6  1  0
  6  7  2  0
  7  8  1  0
  8  9  2  0
  8 10  1  0
 10 11  2  0
 11 12  1  0
 12 13  2  0
 13 14  1  0
 13 15  1  0
 15 16  1  0
 15 17  2  0
  5 18  1  0
 18 19  2  0
 19 20  1  0
 19  2  1  0
 17 10  1  0
  1 21  1  0
  3 22  1  0
  4 23  1  0
  6 24  1  0
  7 25  1  0
 11 26  1  0
 12 27  1  0
 14 28  1  0
 17 29  1  0
 18 30  1  0
 20 31  1  0
M  END
$$$$
[H]c1c([H])c(C([H])([H])C([H])([H])[C@]2([H])C([H])([H])C([H])([H])C([H])([H])C([H])([H])[C@@]2([H])n2c([H])nc3c(N([H])[H])nc(SC([H])([H])[H])nc32)c([H])c([H])c1Cl
     RDKit          3D

 51 54  0  0  0  0  0  0  0  0999 V2000
    6.7750    2.1032   -0.2216 C   0  0  0  0  0  0  0  0  0  0  0  0
    6.0158    1.3449    1.2330 S   0  0  0  0  0  0  0  0  0  0  0  0
    4.9267    0.0303    0.6872 C   0  0  0  0  0  0  0  0  0  0  0  0
    5.4332   -1.2154    0.5489 N   0  0  0  0  0  0  0  0  0  0  0  0
    4.6593   -2.2341    0.1434 C   0  0  0  0  0  0  0  0  0  0  0  0
    5.1292   -3.5431   -0.0174 N   0  0  0  0  0  0  0  0  0  0  0  0
    3.3160   -1.9956   -0.1368 C   0  0  0  0  0  0  0  0  0  0  0  0
    2.2875   -2.7381   -0.5463 N   0  0  0  0  0  0  0  0  0  0  0  0
    1.1937   -1.9596   -0.6510 C   0  0  0  0  0  0  0  0  0  0  0  0
    1.4985   -0.6796   -0.3059 N   0  0  0  0  0  0  0  0  0  0  0  0
    0.5211    0.3926   -0.3181 C   0  0  2  0  0  0  0  0  0  0  0  0
    0.9046    1.5778    0.4743 C   0  0  0  0  0  0  0  0  0  0  0  0
    0.6112    1.2843    1.9413 C   0  0  0  0  0  0  0  0  0  0  0  0
   -0.8817    1.4694    2.0369 C   0  0  0  0  0  0  0  0  0  0  0  0
   -1.5654    0.5492    1.1005 C   0  0  0  0  0  0  0  0  0  0  0  0
   -0.8651   -0.1502    0.0320 C   0  0  1  0  0  0  0  0  0  0  0  0
   -1.6635   -0.2457   -1.2255 C   0  0  0  0  0  0  0  0  0  0  0  0
   -3.0044   -0.7881   -1.2945 C   0  0  0  0  0  0  0  0  0  0  0  0
   -4.1619   -0.2800   -0.6304 C   0  0  0  0  0  0  0  0  0  0  0  0
   -4.9179    0.8114   -1.1033 C   0  0  0  0  0  0  0  0  0  0  0  0
   -6.0575    1.2406   -0.5002 C   0  0  0  0  0  0  0  0  0  0  0  0
   -6.5184    0.6078    0.6167 C   0  0  0  0  0  0  0  0  0  0  0  0
   -7.9753    1.1016    1.4486 Cl  0  0  0  0  0  0  0  0  0  0  0  0
   -5.8193   -0.4664    1.1241 C   0  0  0  0  0  0  0  0  0  0  0  0
   -4.6824   -0.8717    0.4975 C   0  0  0  0  0  0  0  0  0  0  0  0
    2.7855   -0.7070    0.0046 C   0  0  0  0  0  0  0  0  0  0  0  0
    3.6468    0.2084    0.4099 N   0  0  0  0  0  0  0  0  0  0  0  0
    5.9895    2.4134   -0.9510 H   0  0  0  0  0  0  0  0  0  0  0  0
    7.4877    1.3909   -0.7174 H   0  0  0  0  0  0  0  0  0  0  0  0
    7.3792    2.9974    0.0926 H   0  0  0  0  0  0  0  0  0  0  0  0
    4.7796   -4.3281    0.5611 H   0  0  0  0  0  0  0  0  0  0  0  0
    5.8528   -3.7395   -0.7394 H   0  0  0  0  0  0  0  0  0  0  0  0
    0.2566   -2.3932   -0.9726 H   0  0  0  0  0  0  0  0  0  0  0  0
    0.4585    0.7118   -1.3788 H   0  0  0  0  0  0  0  0  0  0  0  0
    0.2026    2.4283    0.2055 H   0  0  0  0  0  0  0  0  0  0  0  0
    1.8816    1.9914    0.2767 H   0  0  0  0  0  0  0  0  0  0  0  0
    1.1781    1.9566    2.6140 H   0  0  0  0  0  0  0  0  0  0  0  0
    0.8006    0.2294    2.2037 H   0  0  0  0  0  0  0  0  0  0  0  0
   -1.2069    1.2879    3.0936 H   0  0  0  0  0  0  0  0  0  0  0  0
   -1.1257    2.5325    1.7800 H   0  0  0  0  0  0  0  0  0  0  0  0
   -2.4292    1.1626    0.6988 H   0  0  0  0  0  0  0  0  0  0  0  0
   -2.0876   -0.2050    1.7793 H   0  0  0  0  0  0  0  0  0  0  0  0
   -0.6810   -1.2086    0.3646 H   0  0  0  0  0  0  0  0  0  0  0  0
   -1.0090   -0.7158   -2.0601 H   0  0  0  0  0  0  0  0  0  0  0  0
   -1.6378    0.8508   -1.6387 H   0  0  0  0  0  0  0  0  0  0  0  0
   -3.2455   -0.9972   -2.4149 H   0  0  0  0  0  0  0  0  0  0  0  0
   -2.9121   -1.8966   -0.9536 H   0  0  0  0  0  0  0  0  0  0  0  0
   -4.5370    1.2972   -1.9859 H   0  0  0  0  0  0  0  0  0  0  0  0
   -6.6407    2.0835   -0.8660 H   0  0  0  0  0  0  0  0  0  0  0  0
   -6.1868   -0.9700    2.0133 H   0  0  0  0  0  0  0  0  0  0  0  0
   -4.1589   -1.7268    0.9324 H   0  0  0  0  0  0  0  0  0  0  0  0
  1  2  1  0
  2  3  1  0
  3  4  2  0
  4  5  1  0
  5  6  1  0
  5  7  2  0
  7  8  1  0
  8  9  2  0
  9 10  1  0
 10 11  1  0
 11 12  1  0
 12 13  1  0
 13 14  1  0
 14 15  1  0
 15 16  1  0
 16 17  1  0
 17 18  1  0
 18 19  1  0
 19 20  2  0
 20 21  1  0
 21 22  2  0
 22 23  1  0
 22 24  1  0
 24 25  2  0
 10 26  1  0
 26 27  2  0
 27  3  1  0
 26  7  1  0
 16 11  1  0
 25 19  1  0
  1 28  1  0
  1 29  1  0
  1 30  1  0
  6 31  1  0
  6 32  1  0
  9 33  1  0
 11 34  1  6
 12 35  1  0
 12 36  1  0
 13 37  1  0
 13 38  1  0
 14 39  1  0
 14 40  1  0
 15 41  1  0
 15 42  1  0
 16 43  1  1
 17 44  1  0
 17 45  1  0
 18 46  1  0
 18 47  1  0
 20 48  1  0
 21 49  1  0
 24 50  1  0
 25 51  1  0
M  END
$$$$
[H]c1nc([H])c([H])c(Oc2c([H])c(N([H])C(=O)N([H])c3c([H])c([H])c([H])c(Br)c3[H])c([H])c(N([H])c3c([H])c([H])c([H])c(OC([H])([H])[H])c3[H])c2[H])c1[H]
     RDKit          3D

 54 57  0  0  0  0  0  0  0  0999 V2000
   -0.6973    6.0137    1.1673 C   0  0  0  0  0  0  0  0  0  0  0  0
   -1.7447    6.3319    0.4055 N   0  0  0  0  0  0  0  0  0  0  0  0
   -2.7129    5.4253    0.1682 C   0  0  0  0  0  0  0  0  0  0  0  0
   -2.6129    4.1471    0.7261 C   0  0  0  0  0  0  0  0  0  0  0  0
   -1.5368    3.8030    1.5154 C   0  0  0  0  0  0  0  0  0  0  0  0
   -1.4032    2.5473    2.0850 O   0  0  0  0  0  0  0  0  0  0  0  0
   -0.7423    1.5035    1.4191 C   0  0  0  0  0  0  0  0  0  0  0  0
    0.5952    1.3243    1.5842 C   0  0  0  0  0  0  0  0  0  0  0  0
    1.2751    0.2722    0.9162 C   0  0  0  0  0  0  0  0  0  0  0  0
    2.6510    0.1359    1.1561 N   0  0  0  0  0  0  0  0  0  0  0  0
    3.5495   -0.5279    0.2993 C   0  0  0  0  0  0  0  0  0  0  0  0
    3.1569   -1.0424   -0.7637 O   0  0  0  0  0  0  0  0  0  0  0  0
    4.9333   -0.6302    0.6236 N   0  0  0  0  0  0  0  0  0  0  0  0
    5.8920   -1.2601   -0.1776 C   0  0  0  0  0  0  0  0  0  0  0  0
    5.7895   -1.3051   -1.5345 C   0  0  0  0  0  0  0  0  0  0  0  0
    6.7631   -1.9785   -2.2687 C   0  0  0  0  0  0  0  0  0  0  0  0
    7.7977   -2.5774   -1.6207 C   0  0  0  0  0  0  0  0  0  0  0  0
    7.9198   -2.5415   -0.2394 C   0  0  0  0  0  0  0  0  0  0  0  0
    9.3965   -3.4026    0.5990 Br  0  0  0  0  0  0  0  0  0  0  0  0
    6.9776   -1.8895    0.4829 C   0  0  0  0  0  0  0  0  0  0  0  0
    0.4895   -0.5175    0.1205 C   0  0  0  0  0  0  0  0  0  0  0  0
   -0.8844   -0.3542   -0.0652 C   0  0  0  0  0  0  0  0  0  0  0  0
   -1.5386   -1.2454   -0.9518 N   0  0  0  0  0  0  0  0  0  0  0  0
   -2.8939   -1.6020   -0.9664 C   0  0  0  0  0  0  0  0  0  0  0  0
   -3.6562   -1.5235    0.1730 C   0  0  0  0  0  0  0  0  0  0  0  0
   -5.0108   -1.8444    0.1984 C   0  0  0  0  0  0  0  0  0  0  0  0
   -5.7585   -1.7501    1.3883 O   0  0  0  0  0  0  0  0  0  0  0  0
   -7.1285   -2.0818    1.3829 C   0  0  0  0  0  0  0  0  0  0  0  0
   -5.5829   -2.2526   -0.9711 C   0  0  0  0  0  0  0  0  0  0  0  0
   -4.8256   -2.3346   -2.1176 C   0  0  0  0  0  0  0  0  0  0  0  0
   -3.4864   -2.0178   -2.1463 C   0  0  0  0  0  0  0  0  0  0  0  0
   -1.4905    0.6777    0.6023 C   0  0  0  0  0  0  0  0  0  0  0  0
   -0.5617    4.7528    1.7401 C   0  0  0  0  0  0  0  0  0  0  0  0
    0.0730    6.7517    1.3496 H   0  0  0  0  0  0  0  0  0  0  0  0
   -3.5586    5.6984   -0.4532 H   0  0  0  0  0  0  0  0  0  0  0  0
   -3.3995    3.4165    0.5310 H   0  0  0  0  0  0  0  0  0  0  0  0
    1.2066    1.9605    2.2210 H   0  0  0  0  0  0  0  0  0  0  0  0
    3.0636    0.5558    2.0450 H   0  0  0  0  0  0  0  0  0  0  0  0
    5.2929   -0.2044    1.5325 H   0  0  0  0  0  0  0  0  0  0  0  0
    4.9826   -0.8140   -2.0792 H   0  0  0  0  0  0  0  0  0  0  0  0
    6.6419   -1.9893   -3.3362 H   0  0  0  0  0  0  0  0  0  0  0  0
    8.5648   -3.1050   -2.1637 H   0  0  0  0  0  0  0  0  0  0  0  0
    7.0163   -1.8268    1.5489 H   0  0  0  0  0  0  0  0  0  0  0  0
    0.9609   -1.3577   -0.4036 H   0  0  0  0  0  0  0  0  0  0  0  0
   -0.9472   -1.7211   -1.7164 H   0  0  0  0  0  0  0  0  0  0  0  0
   -3.2694   -1.2228    1.1562 H   0  0  0  0  0  0  0  0  0  0  0  0
   -7.2550   -3.0619    0.8761 H   0  0  0  0  0  0  0  0  0  0  0  0
   -7.4822   -2.1743    2.4315 H   0  0  0  0  0  0  0  0  0  0  0  0
   -7.7409   -1.2888    0.8768 H   0  0  0  0  0  0  0  0  0  0  0  0
   -6.6254   -2.5180   -1.0313 H   0  0  0  0  0  0  0  0  0  0  0  0
   -5.2683   -2.6602   -3.0636 H   0  0  0  0  0  0  0  0  0  0  0  0
   -2.9201   -2.0958   -3.0757 H   0  0  0  0  0  0  0  0  0  0  0  0
   -2.5562    0.8706    0.4864 H   0  0  0  0  0  0  0  0  0  0  0  0
    0.3016    4.5308    2.3523 H   0  0  0  0  0  0  0  0  0  0  0  0
  1  2  2  0
  2  3  1  0
  3  4  2  0
  4  5  1  0
  5  6  1  0
  6  7  1  0
  7  8  2  0
  8  9  1  0
  9 10  1  0
 10 11  1  0
 11 12  2  0
 11 13  1  0
 13 14  1  0
 14 15  2  0
 15 16  1  0
 16 17  2  0
 17 18  1  0
 18 19  1  0
 18 20  2  0
  9 21  2  0
 21 22  1  0
 22 23  1  0
 23 24  1  0
 24 25  2  0
 25 26  1  0
 26 27  1  0
 27 28  1  0
 26 29  2  0
 29 30  1  0
 30 31  2  0
 22 32  2  0
  5 33  2  0
 33  1  1  0
 32  7  1  0
 20 14  1  0
 31 24  1  0
  1 34  1  0
  3 35  1  0
  4 36  1  0
  8 37  1  0
 10 38  1  0
 13 39  1  0
 15 40  1  0
 16 41  1  0
 17 42  1  0
 20 43  1  0
 21 44  1  0
 23 45  1  0
 25 46  1  0
 28 47  1  0
 28 48  1  0
 28 49  1  0
 29 50  1  0
 30 51  1  0
 31 52  1  0
 32 53  1  0
 33 54  1  0
M  END
$$$$
[H]OC([H])([H])c1nc(-c2c([H])c([H])c([H])c(S(=O)(=O)N([H])C(=O)[C@@]([H])(N([H])[H])C([H])([H])C([H])([H])[H])c2[H])c([H])c(N([H])[H])n1
     RDKit          3D

 44 45  0  0  0  0  0  0  0  0999 V2000
    6.9298    1.2322   -1.4077 C   0  0  0  0  0  0  0  0  0  0  0  0
    5.8120    1.6655   -0.5168 C   0  0  0  0  0  0  0  0  0  0  0  0
    4.9139    0.4866   -0.2081 C   0  0  2  0  0  0  0  0  0  0  0  0
    4.3342   -0.0806   -1.3914 N   0  0  0  0  0  0  0  0  0  0  0  0
    3.8564    0.9337    0.7081 C   0  0  0  0  0  0  0  0  0  0  0  0
    4.1905    1.4444    1.8058 O   0  0  0  0  0  0  0  0  0  0  0  0
    2.4824    0.8172    0.4124 N   0  0  0  0  0  0  0  0  0  0  0  0
    1.2589    1.3513    1.5020 S   0  0  0  0  0  0  0  0  0  0  0  0
    0.5857    2.5371    0.8221 O   0  0  0  0  0  0  0  0  0  0  0  0
    1.8419    1.7861    2.8172 O   0  0  0  0  0  0  0  0  0  0  0  0
    0.0634    0.1020    1.7104 C   0  0  0  0  0  0  0  0  0  0  0  0
    0.2680   -0.8828    2.6579 C   0  0  0  0  0  0  0  0  0  0  0  0
   -0.6742   -1.8665    2.8597 C   0  0  0  0  0  0  0  0  0  0  0  0
   -1.8534   -1.8607    2.0889 C   0  0  0  0  0  0  0  0  0  0  0  0
   -2.0786   -0.9007    1.1492 C   0  0  0  0  0  0  0  0  0  0  0  0
   -1.1117    0.0818    0.9632 C   0  0  0  0  0  0  0  0  0  0  0  0
   -3.2896   -0.8568    0.3655 C   0  0  0  0  0  0  0  0  0  0  0  0
   -4.3462   -1.7056    0.5369 C   0  0  0  0  0  0  0  0  0  0  0  0
   -5.5069   -1.6249   -0.2191 C   0  0  0  0  0  0  0  0  0  0  0  0
   -6.5706   -2.5162   -0.0046 N   0  0  0  0  0  0  0  0  0  0  0  0
   -5.5887   -0.6693   -1.1589 N   0  0  0  0  0  0  0  0  0  0  0  0
   -4.5510    0.1977   -1.3587 C   0  0  0  0  0  0  0  0  0  0  0  0
   -4.6542    1.2616   -2.4176 C   0  0  0  0  0  0  0  0  0  0  0  0
   -5.8663    1.1909   -3.0586 O   0  0  0  0  0  0  0  0  0  0  0  0
   -3.4574    0.0873   -0.6139 N   0  0  0  0  0  0  0  0  0  0  0  0
    7.7227    2.0129   -1.3988 H   0  0  0  0  0  0  0  0  0  0  0  0
    6.5362    1.0554   -2.4200 H   0  0  0  0  0  0  0  0  0  0  0  0
    7.3361    0.2664   -1.0068 H   0  0  0  0  0  0  0  0  0  0  0  0
    5.1767    2.4657   -0.9357 H   0  0  0  0  0  0  0  0  0  0  0  0
    6.2034    2.0440    0.4442 H   0  0  0  0  0  0  0  0  0  0  0  0
    5.4791   -0.3144    0.3163 H   0  0  0  0  0  0  0  0  0  0  0  0
    3.6690   -0.8525   -1.1810 H   0  0  0  0  0  0  0  0  0  0  0  0
    5.0292   -0.2983   -2.1326 H   0  0  0  0  0  0  0  0  0  0  0  0
    2.2028    0.3950   -0.4918 H   0  0  0  0  0  0  0  0  0  0  0  0
    1.1920   -0.8737    3.2488 H   0  0  0  0  0  0  0  0  0  0  0  0
   -0.5317   -2.6454    3.5964 H   0  0  0  0  0  0  0  0  0  0  0  0
   -2.5912   -2.6305    2.2433 H   0  0  0  0  0  0  0  0  0  0  0  0
   -1.2342    0.8607    0.2387 H   0  0  0  0  0  0  0  0  0  0  0  0
   -4.3096   -2.4815    1.2847 H   0  0  0  0  0  0  0  0  0  0  0  0
   -6.9228   -3.1122   -0.7716 H   0  0  0  0  0  0  0  0  0  0  0  0
   -7.0139   -2.5853    0.9283 H   0  0  0  0  0  0  0  0  0  0  0  0
   -4.5879    2.2459   -1.8842 H   0  0  0  0  0  0  0  0  0  0  0  0
   -3.7789    1.2268   -3.0936 H   0  0  0  0  0  0  0  0  0  0  0  0
   -6.5654    1.0094   -2.3914 H   0  0  0  0  0  0  0  0  0  0  0  0
  1  2  1  0
  2  3  1  0
  3  4  1  0
  3  5  1  0
  5  6  2  0
  5  7  1  0
  7  8  1  0
  8  9  2  0
  8 10  2  0
  8 11  1  0
 11 12  2  0
 12 13  1  0
 13 14  2  0
 14 15  1  0
 15 16  2  0
 15 17  1  0
 17 18  2  0
 18 19  1  0
 19 20  1  0
 19 21  2  0
 21 22  1  0
 22 23  1  0
 23 24  1  0
 22 25  2  0
 16 11  1  0
 25 17  1  0
  1 26  1  0
  1 27  1  0
  1 28  1  0
  2 29  1  0
  2 30  1  0
  3 31  1  1
  4 32  1  0
  4 33  1  0
  7 34  1  0
 12 35  1  0
 13 36  1  0
 14 37  1  0
 16 38  1  0
 18 39  1  0
 20 40  1  0
 20 41  1  0
 23 42  1  0
 23 43  1  0
 24 44  1  0
M  END
$$$$
[H]c1c([H])c([H])c(C(=O)N([H])c2nnc(-c3c([H])c([H])c(Oc4c([H])c([H])c([N+](=O)[O-])c([H])c4[N+](=O)[O-])c([H])c3[H])s2)c([H])c1[H]
     RDKit          3D

 46 49  0  0  0  0  0  0  0  0999 V2000
   -9.5479    1.6496   -2.4267 O   0  0  0  0  0  0  0  0  0  0  0  0
   -8.7582    0.5540   -2.1908 N   0  0  0  0  0  0  0  0  0  0  0  0
   -8.9629   -0.4853   -2.8374 O   0  0  0  0  0  0  0  0  0  0  0  0
   -7.7099    0.5723   -1.2277 C   0  0  0  0  0  0  0  0  0  0  0  0
   -7.4515    1.7172   -0.4923 C   0  0  0  0  0  0  0  0  0  0  0  0
   -6.4512    1.7486    0.4307 C   0  0  0  0  0  0  0  0  0  0  0  0
   -5.6871    0.5899    0.6185 C   0  0  0  0  0  0  0  0  0  0  0  0
   -4.6670    0.6111    1.5502 O   0  0  0  0  0  0  0  0  0  0  0  0
   -3.3235    0.5025    1.2504 C   0  0  0  0  0  0  0  0  0  0  0  0
   -2.4751    0.4066    2.3530 C   0  0  0  0  0  0  0  0  0  0  0  0
   -1.1373    0.2991    2.1173 C   0  0  0  0  0  0  0  0  0  0  0  0
   -0.5904    0.2811    0.8543 C   0  0  0  0  0  0  0  0  0  0  0  0
   -1.4004    0.3737   -0.2293 C   0  0  0  0  0  0  0  0  0  0  0  0
   -2.7798    0.4853   -0.0150 C   0  0  0  0  0  0  0  0  0  0  0  0
    0.8727    0.1532    0.7460 C   0  0  0  0  0  0  0  0  0  0  0  0
    1.7497    0.0626    1.7381 N   0  0  0  0  0  0  0  0  0  0  0  0
    2.9792   -0.0458    1.4789 N   0  0  0  0  0  0  0  0  0  0  0  0
    3.3919   -0.0691    0.2161 C   0  0  0  0  0  0  0  0  0  0  0  0
    4.7350   -0.1877   -0.2889 N   0  0  0  0  0  0  0  0  0  0  0  0
    5.8296   -0.2941    0.5918 C   0  0  0  0  0  0  0  0  0  0  0  0
    5.6331   -0.2776    1.8565 O   0  0  0  0  0  0  0  0  0  0  0  0
    7.1907   -0.4234    0.1083 C   0  0  0  0  0  0  0  0  0  0  0  0
    8.2501   -0.2531    1.0035 C   0  0  0  0  0  0  0  0  0  0  0  0
    9.5470   -0.3700    0.6094 C   0  0  0  0  0  0  0  0  0  0  0  0
    9.8209   -0.6662   -0.7174 C   0  0  0  0  0  0  0  0  0  0  0  0
    8.8132   -0.8426   -1.6351 C   0  0  0  0  0  0  0  0  0  0  0  0
    7.5054   -0.7149   -1.1916 C   0  0  0  0  0  0  0  0  0  0  0  0
    1.9038    0.0751   -0.6155 S   0  0  0  0  0  0  0  0  0  0  0  0
   -5.9290   -0.5437   -0.0929 C   0  0  0  0  0  0  0  0  0  0  0  0
   -6.9658   -0.5494   -1.0397 C   0  0  0  0  0  0  0  0  0  0  0  0
   -5.2189   -1.7861    0.0640 N   0  0  0  0  0  0  0  0  0  0  0  0
   -4.9974   -2.6438   -0.9886 O   0  0  0  0  0  0  0  0  0  0  0  0
   -4.8338   -2.1178    1.1902 O   0  0  0  0  0  0  0  0  0  0  0  0
   -8.0591    2.6073   -0.6549 H   0  0  0  0  0  0  0  0  0  0  0  0
   -6.2224    2.6425    1.0293 H   0  0  0  0  0  0  0  0  0  0  0  0
   -2.8339    0.4153    3.3590 H   0  0  0  0  0  0  0  0  0  0  0  0
   -0.4746    0.2254    2.9746 H   0  0  0  0  0  0  0  0  0  0  0  0
   -1.0013    0.3620   -1.2309 H   0  0  0  0  0  0  0  0  0  0  0  0
   -3.4601    0.5614   -0.8498 H   0  0  0  0  0  0  0  0  0  0  0  0
    4.8841   -0.1988   -1.3109 H   0  0  0  0  0  0  0  0  0  0  0  0
    8.0653   -0.0169    2.0582 H   0  0  0  0  0  0  0  0  0  0  0  0
   10.4075   -0.2469    1.2724 H   0  0  0  0  0  0  0  0  0  0  0  0
   10.8451   -0.7675   -1.0698 H   0  0  0  0  0  0  0  0  0  0  0  0
    8.9982   -1.0750   -2.6817 H   0  0  0  0  0  0  0  0  0  0  0  0
    6.6735   -0.8540   -1.8994 H   0  0  0  0  0  0  0  0  0  0  0  0
   -7.1572   -1.4659   -1.6151 H   0  0  0  0  0  0  0  0  0  0  0  0
  1  2  1  0
  2  3  2  0
  2  4  1  0
  4  5  2  0
  5  6  1  0
  6  7  2  0
  7  8  1  0
  8  9  1  0
  9 10  2  0
 10 11  1  0
 11 12  2  0
 12 13  1  0
 13 14  2  0
 12 15  1  0
 15 16  2  0
 16 17  1  0
 17 18  2  0
 18 19  1  0
 19 20  1  0
 20 21  2  0
 20 22  1  0
 22 23  2  0
 23 24  1  0
 24 25  2  0
 25 26  1  0
 26 27  2  0
 18 28  1  0
  7 29  1  0
 29 30  2  0
 29 31  1  0
 31 32  1  0
 31 33  2  0
 30  4  1  0
 14  9  1  0
 28 15  1  0
 27 22  1  0
  5 34  1  0
  6 35  1  0
 10 36  1  0
 11 37  1  0
 13 38  1  0
 14 39  1  0
 19 40  1  0
 23 41  1  0
 24 42  1  0
 25 43  1  0
 26 44  1  0
 27 45  1  0
 30 46  1  0
M  CHG  4   1  -1   2   1  31   1  32  -1
M  END
$$$$
[H]c1c([H])c([H])c(C([H])([H])OC(=O)N([H])[C@]([H])(C(=O)N([H])[C@]([H])(C(=O)N([H])[C@]([H])(C(=O)N([H])[C@]([H])(C(=O)N([H])[H])C([H])([H])C([H])(C([H])([H])[H])C([H])([H])[H])C([H])([H])c2c([H])c([H])c([H])c([H])c2[H])C([H])([H])c2c([H])c([H])c([H])c([H])c2[H])C([H])([H])c2c([H])c([H])c([H])c([H])c2[H])c([H])c1[H]
     RDKit          3D

 99102  0  0  0  0  0  0  0  0999 V2000
   -8.3549    3.2512    0.5062 C   0  0  0  0  0  0  0  0  0  0  0  0
   -6.8230    3.1214    0.3904 C   0  0  0  0  0  0  0  0  0  0  0  0
   -6.2601    4.5003    0.5299 C   0  0  0  0  0  0  0  0  0  0  0  0
   -6.5487    2.4845   -0.9179 C   0  0  0  0  0  0  0  0  0  0  0  0
   -5.1401    2.2382   -1.2974 C   0  0  2  0  0  0  0  0  0  0  0  0
   -4.4461    1.3775   -0.3326 N   0  0  0  0  0  0  0  0  0  0  0  0
   -3.9455    0.1167   -0.6813 C   0  0  0  0  0  0  0  0  0  0  0  0
   -4.1530   -0.1858   -1.9423 O   0  0  0  0  0  0  0  0  0  0  0  0
   -3.2404   -0.8809    0.0970 C   0  0  2  0  0  0  0  0  0  0  0  0
   -3.1930   -0.7530    1.5694 C   0  0  0  0  0  0  0  0  0  0  0  0
   -4.5179   -0.8159    2.2636 C   0  0  0  0  0  0  0  0  0  0  0  0
   -5.1702    0.2246    2.8344 C   0  0  0  0  0  0  0  0  0  0  0  0
   -6.4063    0.0863    3.4233 C   0  0  0  0  0  0  0  0  0  0  0  0
   -7.0669   -1.1237    3.4720 C   0  0  0  0  0  0  0  0  0  0  0  0
   -6.4095   -2.1882    2.8939 C   0  0  0  0  0  0  0  0  0  0  0  0
   -5.1746   -2.0612    2.3033 C   0  0  0  0  0  0  0  0  0  0  0  0
   -2.0529   -1.3309   -0.5720 N   0  0  0  0  0  0  0  0  0  0  0  0
   -0.8938   -1.9463   -0.1308 C   0  0  0  0  0  0  0  0  0  0  0  0
   -0.7270   -2.1852    1.1229 O   0  0  0  0  0  0  0  0  0  0  0  0
    0.2354   -2.3717   -1.0502 C   0  0  2  0  0  0  0  0  0  0  0  0
   -0.1972   -3.5950   -1.8309 C   0  0  0  0  0  0  0  0  0  0  0  0
    0.8176   -4.1230   -2.7458 C   0  0  0  0  0  0  0  0  0  0  0  0
    0.9601   -3.7194   -4.0519 C   0  0  0  0  0  0  0  0  0  0  0  0
    1.9424   -4.2695   -4.8836 C   0  0  0  0  0  0  0  0  0  0  0  0
    2.8045   -5.2367   -4.4247 C   0  0  0  0  0  0  0  0  0  0  0  0
    2.6693   -5.6469   -3.1145 C   0  0  0  0  0  0  0  0  0  0  0  0
    1.7059   -5.1092   -2.2945 C   0  0  0  0  0  0  0  0  0  0  0  0
    1.4372   -2.6008   -0.2944 N   0  0  0  0  0  0  0  0  0  0  0  0
    2.5686   -1.7631   -0.5284 C   0  0  0  0  0  0  0  0  0  0  0  0
    2.4761   -0.8573   -1.4045 O   0  0  0  0  0  0  0  0  0  0  0  0
    3.8660   -1.8830    0.1997 C   0  0  2  0  0  0  0  0  0  0  0  0
    3.5234   -1.8762    1.6583 C   0  0  0  0  0  0  0  0  0  0  0  0
    4.7241   -2.0164    2.5130 C   0  0  0  0  0  0  0  0  0  0  0  0
    5.2057   -3.3108    2.7918 C   0  0  0  0  0  0  0  0  0  0  0  0
    6.2980   -3.5065    3.6051 C   0  0  0  0  0  0  0  0  0  0  0  0
    6.9626   -2.4575    4.1783 C   0  0  0  0  0  0  0  0  0  0  0  0
    6.5099   -1.1819    3.9198 C   0  0  0  0  0  0  0  0  0  0  0  0
    5.4060   -0.9806    3.0975 C   0  0  0  0  0  0  0  0  0  0  0  0
    4.7769   -0.8653   -0.2369 N   0  0  0  0  0  0  0  0  0  0  0  0
    4.5633    0.5184   -0.0528 C   0  0  0  0  0  0  0  0  0  0  0  0
    3.5145    0.8999    0.5416 O   0  0  0  0  0  0  0  0  0  0  0  0
    5.4498    1.5034   -0.4937 O   0  0  0  0  0  0  0  0  0  0  0  0
    5.0881    2.8642   -0.2225 C   0  0  0  0  0  0  0  0  0  0  0  0
    6.1185    3.7494   -0.7831 C   0  0  0  0  0  0  0  0  0  0  0  0
    7.2942    3.9566   -0.1123 C   0  0  0  0  0  0  0  0  0  0  0  0
    8.2362    4.8028   -0.6428 C   0  0  0  0  0  0  0  0  0  0  0  0
    8.0120    5.4476   -1.8462 C   0  0  0  0  0  0  0  0  0  0  0  0
    6.8247    5.2267   -2.5064 C   0  0  0  0  0  0  0  0  0  0  0  0
    5.8951    4.3895   -1.9785 C   0  0  0  0  0  0  0  0  0  0  0  0
   -4.3391    3.4117   -1.6629 C   0  0  0  0  0  0  0  0  0  0  0  0
   -4.7620    4.4045   -2.5819 N   0  0  0  0  0  0  0  0  0  0  0  0
   -3.2062    3.5721   -1.1459 O   0  0  0  0  0  0  0  0  0  0  0  0
   -8.8132    2.2442    0.6456 H   0  0  0  0  0  0  0  0  0  0  0  0
   -8.6404    3.8561    1.4026 H   0  0  0  0  0  0  0  0  0  0  0  0
   -8.7667    3.6731   -0.4174 H   0  0  0  0  0  0  0  0  0  0  0  0
   -6.5126    2.4956    1.2581 H   0  0  0  0  0  0  0  0  0  0  0  0
   -6.7336    4.9408    1.4576 H   0  0  0  0  0  0  0  0  0  0  0  0
   -5.1710    4.4443    0.7284 H   0  0  0  0  0  0  0  0  0  0  0  0
   -6.5519    5.1580   -0.2847 H   0  0  0  0  0  0  0  0  0  0  0  0
   -7.1233    1.5303   -1.0030 H   0  0  0  0  0  0  0  0  0  0  0  0
   -7.0109    3.1361   -1.7240 H   0  0  0  0  0  0  0  0  0  0  0  0
   -5.1890    1.5989   -2.2484 H   0  0  0  0  0  0  0  0  0  0  0  0
   -4.3141    1.7889    0.6120 H   0  0  0  0  0  0  0  0  0  0  0  0
   -3.9360   -1.8578   -0.0513 H   0  0  0  0  0  0  0  0  0  0  0  0
   -2.5824    0.0905    1.9384 H   0  0  0  0  0  0  0  0  0  0  0  0
   -2.6679   -1.6756    1.9875 H   0  0  0  0  0  0  0  0  0  0  0  0
   -4.7337    1.2212    2.8592 H   0  0  0  0  0  0  0  0  0  0  0  0
   -6.9205    0.9303    3.8795 H   0  0  0  0  0  0  0  0  0  0  0  0
   -8.0364   -1.2272    3.9320 H   0  0  0  0  0  0  0  0  0  0  0  0
   -6.9306   -3.1421    2.9274 H   0  0  0  0  0  0  0  0  0  0  0  0
   -4.6674   -2.9036    1.8486 H   0  0  0  0  0  0  0  0  0  0  0  0
   -2.0677   -1.1583   -1.6500 H   0  0  0  0  0  0  0  0  0  0  0  0
    0.3944   -1.5472   -1.7527 H   0  0  0  0  0  0  0  0  0  0  0  0
   -0.4673   -4.3619   -1.0408 H   0  0  0  0  0  0  0  0  0  0  0  0
   -1.1854   -3.3899   -2.3388 H   0  0  0  0  0  0  0  0  0  0  0  0
    0.3176   -2.9631   -4.4842 H   0  0  0  0  0  0  0  0  0  0  0  0
    2.0705   -3.9615   -5.9198 H   0  0  0  0  0  0  0  0  0  0  0  0
    3.5683   -5.6648   -5.0855 H   0  0  0  0  0  0  0  0  0  0  0  0
    3.3250   -6.3957   -2.7346 H   0  0  0  0  0  0  0  0  0  0  0  0
    1.6339   -5.4547   -1.2734 H   0  0  0  0  0  0  0  0  0  0  0  0
    1.5448   -3.3458    0.4245 H   0  0  0  0  0  0  0  0  0  0  0  0
    4.2980   -2.8838   -0.0403 H   0  0  0  0  0  0  0  0  0  0  0  0
    2.9041   -2.7994    1.8438 H   0  0  0  0  0  0  0  0  0  0  0  0
    2.9511   -0.9795    1.9815 H   0  0  0  0  0  0  0  0  0  0  0  0
    4.6865   -4.1375    2.3449 H   0  0  0  0  0  0  0  0  0  0  0  0
    6.6149   -4.5159    3.7791 H   0  0  0  0  0  0  0  0  0  0  0  0
    7.8340   -2.6330    4.8262 H   0  0  0  0  0  0  0  0  0  0  0  0
    7.0289   -0.3559    4.3708 H   0  0  0  0  0  0  0  0  0  0  0  0
    5.0627    0.0325    2.9171 H   0  0  0  0  0  0  0  0  0  0  0  0
    5.6589   -1.1340   -0.7254 H   0  0  0  0  0  0  0  0  0  0  0  0
    4.0927    3.0809   -0.6879 H   0  0  0  0  0  0  0  0  0  0  0  0
    5.0076    2.9228    0.8950 H   0  0  0  0  0  0  0  0  0  0  0  0
    7.5194    3.4642    0.8431 H   0  0  0  0  0  0  0  0  0  0  0  0
    9.1672    4.9682   -0.1193 H   0  0  0  0  0  0  0  0  0  0  0  0
    8.7705    6.1257   -2.2664 H   0  0  0  0  0  0  0  0  0  0  0  0
    6.6463    5.7229   -3.4406 H   0  0  0  0  0  0  0  0  0  0  0  0
    4.9592    4.2308   -2.5338 H   0  0  0  0  0  0  0  0  0  0  0  0
   -4.4143    5.3818   -2.6054 H   0  0  0  0  0  0  0  0  0  0  0  0
   -5.4778    4.1448   -3.2941 H   0  0  0  0  0  0  0  0  0  0  0  0
  1  2  1  0
  2  3  1  0
  2  4  1  0
  4  5  1  0
  5  6  1  0
  6  7  1  0
  7  8  2  0
  7  9  1  0
  9 10  1  0
 10 11  1  0
 11 12  2  0
 12 13  1  0
 13 14  2  0
 14 15  1  0
 15 16  2  0
  9 17  1  0
 17 18  1  0
 18 19  2  0
 18 20  1  0
 20 21  1  0
 21 22  1  0
 22 23  2  0
 23 24  1  0
 24 25  2  0
 25 26  1  0
 26 27  2  0
 20 28  1  0
 28 29  1  0
 29 30  2  0
 29 31  1  0
 31 32  1  0
 32 33  1  0
 33 34  2  0
 34 35  1  0
 35 36  2  0
 36 37  1  0
 37 38  2  0
 31 39  1  0
 39 40  1  0
 40 41  2  0
 40 42  1  0
 42 43  1  0
 43 44  1  0
 44 45  2  0
 45 46  1  0
 46 47  2  0
 47 48  1  0
 48 49  2  0
  5 50  1  0
 50 51  1  0
 50 52  2  0
 16 11  1  0
 27 22  1  0
 38 33  1  0
 49 44  1  0
  1 53  1  0
  1 54  1  0
  1 55  1  0
  2 56  1  0
  3 57  1  0
  3 58  1  0
  3 59  1  0
  4 60  1  0
  4 61  1  0
  5 62  1  6
  6 63  1  0
  9 64  1  1
 10 65  1  0
 10 66  1  0
 12 67  1  0
 13 68  1  0
 14 69  1  0
 15 70  1  0
 16 71  1  0
 17 72  1  0
 20 73  1  6
 21 74  1  0
 21 75  1  0
 23 76  1  0
 24 77  1  0
 25 78  1  0
 26 79  1  0
 27 80  1  0
 28 81  1  0
 31 82  1  6
 32 83  1  0
 32 84  1  0
 34 85  1  0
 35 86  1  0
 36 87  1  0
 37 88  1  0
 38 89  1  0
 39 90  1  0
 43 91  1  0
 43 92  1  0
 45 93  1  0
 46 94  1  0
 47 95  1  0
 48 96  1  0
 49 97  1  0
 51 98  1  0
 51 99  1  0
M  END
$$$$
[H]c1c(C([H])([H])[H])nc(C([H])([H])[H])c(OC([H])([H])C([H])([H])N2C([H])([H])C([H])([H])N(C([H])([H])C([H])([H])C([H])([H])[H])C([H])([H])C2([H])[H])c1[H]
     RDKit          3D

 47 48  0  0  0  0  0  0  0  0999 V2000
    6.4073    1.2211    0.3170 C   0  0  0  0  0  0  0  0  0  0  0  0
    5.2505    1.8994   -0.3752 C   0  0  0  0  0  0  0  0  0  0  0  0
    3.9842    1.4964    0.3532 C   0  0  0  0  0  0  0  0  0  0  0  0
    3.8394    0.0649    0.2967 N   0  0  0  0  0  0  0  0  0  0  0  0
    3.5691   -0.3332   -1.0579 C   0  0  0  0  0  0  0  0  0  0  0  0
    2.4104   -1.3333   -1.1052 C   0  0  0  0  0  0  0  0  0  0  0  0
    1.2697   -0.6126   -0.5895 N   0  0  0  0  0  0  0  0  0  0  0  0
    0.0320   -1.2842   -0.8036 C   0  0  0  0  0  0  0  0  0  0  0  0
   -1.0913   -0.4059   -0.3138 C   0  0  0  0  0  0  0  0  0  0  0  0
   -2.2915   -1.1234   -0.5509 O   0  0  0  0  0  0  0  0  0  0  0  0
   -3.4883   -0.5407   -0.1821 C   0  0  0  0  0  0  0  0  0  0  0  0
   -3.5029    0.7129    0.4029 C   0  0  0  0  0  0  0  0  0  0  0  0
   -4.7151    1.2597    0.7562 C   0  0  0  0  0  0  0  0  0  0  0  0
   -5.8855    0.5628    0.5269 C   0  0  0  0  0  0  0  0  0  0  0  0
   -7.1942    1.1521    0.9088 C   0  0  0  0  0  0  0  0  0  0  0  0
   -5.8174   -0.6516   -0.0441 N   0  0  0  0  0  0  0  0  0  0  0  0
   -4.6694   -1.2193   -0.4020 C   0  0  0  0  0  0  0  0  0  0  0  0
   -4.6040   -2.5670   -1.0348 C   0  0  0  0  0  0  0  0  0  0  0  0
    1.4806   -0.0644    0.7113 C   0  0  0  0  0  0  0  0  0  0  0  0
    2.8500   -0.3625    1.2310 C   0  0  0  0  0  0  0  0  0  0  0  0
    6.0879    0.4259    1.0236 H   0  0  0  0  0  0  0  0  0  0  0  0
    7.0962    0.7471   -0.4294 H   0  0  0  0  0  0  0  0  0  0  0  0
    6.9475    1.9807    0.9073 H   0  0  0  0  0  0  0  0  0  0  0  0
    5.3120    3.0046   -0.3481 H   0  0  0  0  0  0  0  0  0  0  0  0
    5.2169    1.5978   -1.4352 H   0  0  0  0  0  0  0  0  0  0  0  0
    3.0854    1.9530   -0.1349 H   0  0  0  0  0  0  0  0  0  0  0  0
    4.0497    1.9017    1.3623 H   0  0  0  0  0  0  0  0  0  0  0  0
    4.4622   -0.8154   -1.5374 H   0  0  0  0  0  0  0  0  0  0  0  0
    3.2218    0.5414   -1.6476 H   0  0  0  0  0  0  0  0  0  0  0  0
    2.6176   -2.2708   -0.6010 H   0  0  0  0  0  0  0  0  0  0  0  0
    2.2149   -1.5167   -2.1794 H   0  0  0  0  0  0  0  0  0  0  0  0
   -0.1010   -1.5744   -1.8490 H   0  0  0  0  0  0  0  0  0  0  0  0
    0.0050   -2.2038   -0.1409 H   0  0  0  0  0  0  0  0  0  0  0  0
   -1.0129   -0.0501    0.7053 H   0  0  0  0  0  0  0  0  0  0  0  0
   -1.1906    0.5191   -0.9557 H   0  0  0  0  0  0  0  0  0  0  0  0
   -2.5930    1.2725    0.5893 H   0  0  0  0  0  0  0  0  0  0  0  0
   -4.8144    2.2336    1.2178 H   0  0  0  0  0  0  0  0  0  0  0  0
   -7.5686    1.7854    0.0707 H   0  0  0  0  0  0  0  0  0  0  0  0
   -7.8922    0.3027    1.0632 H   0  0  0  0  0  0  0  0  0  0  0  0
   -7.0603    1.7611    1.8213 H   0  0  0  0  0  0  0  0  0  0  0  0
   -3.7816   -3.1757   -0.6155 H   0  0  0  0  0  0  0  0  0  0  0  0
   -4.4378   -2.4822   -2.1294 H   0  0  0  0  0  0  0  0  0  0  0  0
   -5.5680   -3.1013   -0.8695 H   0  0  0  0  0  0  0  0  0  0  0  0
    0.7494   -0.4902    1.4576 H   0  0  0  0  0  0  0  0  0  0  0  0
    1.2789    1.0288    0.6670 H   0  0  0  0  0  0  0  0  0  0  0  0
    2.9063   -1.4471    1.4628 H   0  0  0  0  0  0  0  0  0  0  0  0
    2.9351    0.2012    2.2055 H   0  0  0  0  0  0  0  0  0  0  0  0
  1  2  1  0
  2  3  1  0
  3  4  1  0
  4  5  1  0
  5  6  1  0
  6  7  1  0
  7  8  1  0
  8  9  1  0
  9 10  1  0
 10 11  1  0
 11 12  2  0
 12 13  1  0
 13 14  2  0
 14 15  1  0
 14 16  1  0
 16 17  2  0
 17 18  1  0
  7 19  1  0
 19 20  1  0
 20  4  1  0
 17 11  1  0
  1 21  1  0
  1 22  1  0
  1 23  1  0
  2 24  1  0
  2 25  1  0
  3 26  1  0
  3 27  1  0
  5 28  1  0
  5 29  1  0
  6 30  1  0
  6 31  1  0
  8 32  1  0
  8 33  1  0
  9 34  1  0
  9 35  1  0
 12 36  1  0
 13 37  1  0
 15 38  1  0
 15 39  1  0
 15 40  1  0
 18 41  1  0
 18 42  1  0
 18 43  1  0
 19 44  1  0
 19 45  1  0
 20 46  1  0
 20 47  1  0
M  END
$$$$
[H]c1nc([H])c([H])c(C([H])([H])N([H])C(=O)c2nc(N([H])c3c([H])c([H])c(F)c(Cl)c3[H])c([H])c([H])c2[H])c1[H]
     RDKit          3D

 39 41  0  0  0  0  0  0  0  0999 V2000
    7.7997    1.6946    0.0747 F   0  0  0  0  0  0  0  0  0  0  0  0
    6.4966    1.3800   -0.1560 C   0  0  0  0  0  0  0  0  0  0  0  0
    5.5571    1.4763    0.8574 C   0  0  0  0  0  0  0  0  0  0  0  0
    4.2217    1.1573    0.6323 C   0  0  0  0  0  0  0  0  0  0  0  0
    3.8335    0.7399   -0.6174 C   0  0  0  0  0  0  0  0  0  0  0  0
    2.5053    0.3884   -0.9035 N   0  0  0  0  0  0  0  0  0  0  0  0
    1.7106   -0.4317   -0.0545 C   0  0  0  0  0  0  0  0  0  0  0  0
    2.1454   -1.0840    1.0653 C   0  0  0  0  0  0  0  0  0  0  0  0
    1.3223   -1.8504    1.8893 C   0  0  0  0  0  0  0  0  0  0  0  0
   -0.0051   -1.9572    1.5547 C   0  0  0  0  0  0  0  0  0  0  0  0
   -0.4328   -1.2961    0.4228 C   0  0  0  0  0  0  0  0  0  0  0  0
    0.3729   -0.5699   -0.3473 N   0  0  0  0  0  0  0  0  0  0  0  0
   -1.8645   -1.4280    0.0823 C   0  0  0  0  0  0  0  0  0  0  0  0
   -2.6442   -2.1186    0.7941 O   0  0  0  0  0  0  0  0  0  0  0  0
   -2.3468   -0.7661   -1.0571 N   0  0  0  0  0  0  0  0  0  0  0  0
   -3.7554   -0.8895   -1.4041 C   0  0  0  0  0  0  0  0  0  0  0  0
   -4.5425   -0.0291   -0.5053 C   0  0  0  0  0  0  0  0  0  0  0  0
   -5.9216   -0.1312   -0.5432 C   0  0  0  0  0  0  0  0  0  0  0  0
   -6.7256    0.6518    0.2751 C   0  0  0  0  0  0  0  0  0  0  0  0
   -6.1346    1.5218    1.1155 N   0  0  0  0  0  0  0  0  0  0  0  0
   -4.7968    1.6541    1.1855 C   0  0  0  0  0  0  0  0  0  0  0  0
   -3.9933    0.8763    0.3723 C   0  0  0  0  0  0  0  0  0  0  0  0
    4.7974    0.6458   -1.6408 C   0  0  0  0  0  0  0  0  0  0  0  0
    6.1177    0.9632   -1.4120 C   0  0  0  0  0  0  0  0  0  0  0  0
    7.3309    0.8508   -2.6748 Cl  0  0  0  0  0  0  0  0  0  0  0  0
    5.8369    1.8020    1.8488 H   0  0  0  0  0  0  0  0  0  0  0  0
    3.5271    1.2621    1.4555 H   0  0  0  0  0  0  0  0  0  0  0  0
    2.0700    0.7546   -1.8040 H   0  0  0  0  0  0  0  0  0  0  0  0
    3.1959   -1.0421    1.3412 H   0  0  0  0  0  0  0  0  0  0  0  0
    1.7101   -2.3500    2.7675 H   0  0  0  0  0  0  0  0  0  0  0  0
   -0.7231   -2.5428    2.1507 H   0  0  0  0  0  0  0  0  0  0  0  0
   -1.7117   -0.1963   -1.6455 H   0  0  0  0  0  0  0  0  0  0  0  0
   -3.8783   -0.5719   -2.4737 H   0  0  0  0  0  0  0  0  0  0  0  0
   -4.1014   -1.9520   -1.3632 H   0  0  0  0  0  0  0  0  0  0  0  0
   -6.3660   -0.8283   -1.2188 H   0  0  0  0  0  0  0  0  0  0  0  0
   -7.8118    0.5501    0.2241 H   0  0  0  0  0  0  0  0  0  0  0  0
   -4.3340    2.3629    1.8710 H   0  0  0  0  0  0  0  0  0  0  0  0
   -2.9311    0.9867    0.4310 H   0  0  0  0  0  0  0  0  0  0  0  0
    4.4697    0.3167   -2.6152 H   0  0  0  0  0  0  0  0  0  0  0  0
  1  2  1  0
  2  3  2  0
  3  4  1  0
  4  5  2  0
  5  6  1  0
  6  7  1  0
  7  8  2  0
  8  9  1  0
  9 10  2  0
 10 11  1  0
 11 12  2  0
 11 13  1  0
 13 14  2  0
 13 15  1  0
 15 16  1  0
 16 17  1  0
 17 18  2  0
 18 19  1  0
 19 20  2  0
 20 21  1  0
 21 22  2  0
  5 23  1  0
 23 24  2  0
 24 25  1  0
 24  2  1  0
 12  7  1  0
 22 17  1  0
  3 26  1  0
  4 27  1  0
  6 28  1  0
  8 29  1  0
  9 30  1  0
 10 31  1  0
 15 32  1  0
 16 33  1  0
 16 34  1  0
 18 35  1  0
 19 36  1  0
 21 37  1  0
 22 38  1  0
 23 39  1  0
M  END
$$$$
[H]c1c([H])c([H])c2c(c1[H])c1c3c(c4c5c([H])c([H])c([H])c([H])c5n5c4c1n2[C@@]1(C([H])([H])[H])O[C@]5([H])C([H])([H])[C@]([H])(N([H])C([H])([H])[H])[C@]1([H])OC([H])([H])[H])C(=O)N([H])C3([H])[H]
     RDKit          3D

 61 68  0  0  0  0  0  0  0  0999 V2000
   -4.0469   -1.7704    1.7208 C   0  0  0  0  0  0  0  0  0  0  0  0
   -2.8051   -1.1267    1.8532 N   0  0  0  0  0  0  0  0  0  0  0  0
   -2.0631   -0.7295    0.7453 C   0  0  1  0  0  0  0  0  0  0  0  0
   -1.6837   -1.8762   -0.1711 C   0  0  0  0  0  0  0  0  0  0  0  0
   -0.8984   -1.4098   -1.3642 C   0  0  1  0  0  0  0  0  0  0  0  0
   -1.1746   -0.2090   -1.8664 O   0  0  0  0  0  0  0  0  0  0  0  0
   -1.4577    0.8633   -1.0142 C   0  0  1  0  0  0  0  0  0  0  0  0
   -2.0247    1.8974   -1.9699 C   0  0  0  0  0  0  0  0  0  0  0  0
   -2.5753    0.3728   -0.1181 C   0  0  1  0  0  0  0  0  0  0  0  0
   -3.5198   -0.1711   -0.9735 O   0  0  0  0  0  0  0  0  0  0  0  0
   -4.7628    0.3638   -0.9969 C   0  0  0  0  0  0  0  0  0  0  0  0
   -0.2701    1.3169   -0.3284 N   0  0  0  0  0  0  0  0  0  0  0  0
   -0.0959    2.5647    0.1722 C   0  0  0  0  0  0  0  0  0  0  0  0
   -0.9035    3.6566    0.2781 C   0  0  0  0  0  0  0  0  0  0  0  0
   -0.4867    4.8568    0.8587 C   0  0  0  0  0  0  0  0  0  0  0  0
    0.7815    4.9813    1.3559 C   0  0  0  0  0  0  0  0  0  0  0  0
    1.6018    3.8897    1.2562 C   0  0  0  0  0  0  0  0  0  0  0  0
    1.2013    2.7011    0.6855 C   0  0  0  0  0  0  0  0  0  0  0  0
    1.8231    1.4953    0.4914 C   0  0  0  0  0  0  0  0  0  0  0  0
    3.0935    1.0534    0.7971 C   0  0  0  0  0  0  0  0  0  0  0  0
    4.2347    1.7462    1.4443 C   0  0  0  0  0  0  0  0  0  0  0  0
    5.2812    0.7805    1.4850 N   0  0  0  0  0  0  0  0  0  0  0  0
    4.8379   -0.4605    0.9036 C   0  0  0  0  0  0  0  0  0  0  0  0
    5.5848   -1.4446    0.8345 O   0  0  0  0  0  0  0  0  0  0  0  0
    3.4679   -0.2585    0.4835 C   0  0  0  0  0  0  0  0  0  0  0  0
    2.5253   -1.0802   -0.1335 C   0  0  0  0  0  0  0  0  0  0  0  0
    2.5255   -2.4091   -0.5522 C   0  0  0  0  0  0  0  0  0  0  0  0
    3.4661   -3.3824   -0.5335 C   0  0  0  0  0  0  0  0  0  0  0  0
    3.1394   -4.6508   -1.0457 C   0  0  0  0  0  0  0  0  0  0  0  0
    1.8931   -4.8946   -1.5532 C   0  0  0  0  0  0  0  0  0  0  0  0
    0.9234   -3.9194   -1.5814 C   0  0  0  0  0  0  0  0  0  0  0  0
    1.2579   -2.6757   -1.0743 C   0  0  0  0  0  0  0  0  0  0  0  0
    0.5170   -1.5633   -0.9812 N   0  0  0  0  0  0  0  0  0  0  0  0
    1.2574   -0.6011   -0.4262 C   0  0  0  0  0  0  0  0  0  0  0  0
    0.9293    0.6883   -0.1091 C   0  0  0  0  0  0  0  0  0  0  0  0
   -4.8662   -1.0159    1.9108 H   0  0  0  0  0  0  0  0  0  0  0  0
   -4.1813   -2.6236    2.4398 H   0  0  0  0  0  0  0  0  0  0  0  0
   -4.2705   -2.2084    0.7307 H   0  0  0  0  0  0  0  0  0  0  0  0
   -2.8232   -0.4664    2.6590 H   0  0  0  0  0  0  0  0  0  0  0  0
   -1.0753   -0.3131    1.1783 H   0  0  0  0  0  0  0  0  0  0  0  0
   -1.0881   -2.5934    0.4138 H   0  0  0  0  0  0  0  0  0  0  0  0
   -2.6116   -2.3396   -0.5348 H   0  0  0  0  0  0  0  0  0  0  0  0
   -1.0616   -2.1696   -2.1624 H   0  0  0  0  0  0  0  0  0  0  0  0
   -2.9480    2.3656   -1.6768 H   0  0  0  0  0  0  0  0  0  0  0  0
   -1.2023    2.6448   -2.1814 H   0  0  0  0  0  0  0  0  0  0  0  0
   -2.2291    1.4720   -2.9983 H   0  0  0  0  0  0  0  0  0  0  0  0
   -3.0338    1.1533    0.4695 H   0  0  0  0  0  0  0  0  0  0  0  0
   -5.2481    0.3628   -0.0036 H   0  0  0  0  0  0  0  0  0  0  0  0
   -4.9197    1.3034   -1.5454 H   0  0  0  0  0  0  0  0  0  0  0  0
   -5.3837   -0.3816   -1.6336 H   0  0  0  0  0  0  0  0  0  0  0  0
   -1.9195    3.5996   -0.0805 H   0  0  0  0  0  0  0  0  0  0  0  0
   -1.1927    5.6764    0.9018 H   0  0  0  0  0  0  0  0  0  0  0  0
    1.1278    5.9226    1.8176 H   0  0  0  0  0  0  0  0  0  0  0  0
    2.6056    3.9573    1.6392 H   0  0  0  0  0  0  0  0  0  0  0  0
    4.5809    2.6270    0.8499 H   0  0  0  0  0  0  0  0  0  0  0  0
    3.9928    2.1189    2.4526 H   0  0  0  0  0  0  0  0  0  0  0  0
    6.2242    0.9648    1.8822 H   0  0  0  0  0  0  0  0  0  0  0  0
    4.4453   -3.2357   -0.1500 H   0  0  0  0  0  0  0  0  0  0  0  0
    3.9157   -5.4107   -1.0164 H   0  0  0  0  0  0  0  0  0  0  0  0
    1.6559   -5.8901   -1.9485 H   0  0  0  0  0  0  0  0  0  0  0  0
   -0.0671   -4.1156   -1.9855 H   0  0  0  0  0  0  0  0  0  0  0  0
  1  2  1  0
  2  3  1  0
  3  4  1  0
  4  5  1  0
  5  6  1  0
  6  7  1  0
  7  8  1  6
  7  9  1  0
  9 10  1  0
 10 11  1  0
  7 12  1  0
 12 13  1  0
 13 14  2  0
 14 15  1  0
 15 16  2  0
 16 17  1  0
 17 18  2  0
 18 19  1  0
 19 20  2  0
 20 21  1  0
 21 22  1  0
 22 23  1  0
 23 24  2  0
 23 25  1  0
 25 26  2  0
 26 27  1  0
 27 28  2  0
 28 29  1  0
 29 30  2  0
 30 31  1  0
 31 32  2  0
 32 33  1  0
 33 34  1  0
 34 35  2  0
  9  3  1  0
 35 12  1  0
 33  5  1  0
 18 13  1  0
 35 19  1  0
 25 20  1  0
 34 26  1  0
 32 27  1  0
  1 36  1  0
  1 37  1  0
  1 38  1  0
  2 39  1  0
  3 40  1  1
  4 41  1  0
  4 42  1  0
  5 43  1  6
  8 44  1  0
  8 45  1  0
  8 46  1  0
  9 47  1  1
 11 48  1  0
 11 49  1  0
 11 50  1  0
 14 51  1  0
 15 52  1  0
 16 53  1  0
 17 54  1  0
 21 55  1  0
 21 56  1  0
 22 57  1  0
 28 58  1  0
 29 59  1  0
 30 60  1  0
 31 61  1  0
M  END
$$$$
[H]C1=C2C([H])([H])C([H])([H])[C@]3([H])[C@]4([H])C([H])([H])C([H])([H])C(=O)[C@@]4(C([H])([H])[H])C([H])([H])C([H])([H])[C@]3([H])[C@@]2(C([H])([H])[H])C([H])([H])C([H])([H])C1=O
     RDKit          3D

 47 50  0  0  0  0  0  0  0  0999 V2000
    2.6459    0.7460    1.1942 C   0  0  0  0  0  0  0  0  0  0  0  0
    2.3326    0.6818   -0.2709 C   0  0  2  0  0  0  0  0  0  0  0  0
    1.4283    1.7630   -0.7533 C   0  0  0  0  0  0  0  0  0  0  0  0
    0.1130    1.3605   -1.2787 C   0  0  0  0  0  0  0  0  0  0  0  0
   -0.5213    0.1105   -0.7958 C   0  0  1  0  0  0  0  0  0  0  0  0
    0.4140   -0.9685   -0.3412 C   0  0  2  0  0  0  0  0  0  0  0  0
    0.2174   -1.3451    1.1086 C   0  0  0  0  0  0  0  0  0  0  0  0
   -1.1790   -1.9185    1.2286 C   0  0  0  0  0  0  0  0  0  0  0  0
   -2.1778   -1.0006    0.5661 C   0  0  0  0  0  0  0  0  0  0  0  0
   -3.3938   -1.4803    0.4598 C   0  0  0  0  0  0  0  0  0  0  0  0
   -4.4330   -0.6704   -0.1650 C   0  0  0  0  0  0  0  0  0  0  0  0
   -5.4803   -1.1321   -0.6365 O   0  0  0  0  0  0  0  0  0  0  0  0
   -4.1808    0.7841   -0.2176 C   0  0  0  0  0  0  0  0  0  0  0  0
   -2.7778    1.0139   -0.7329 C   0  0  0  0  0  0  0  0  0  0  0  0
   -1.7185    0.3294    0.1049 C   0  0  2  0  0  0  0  0  0  0  0  0
   -1.4626    1.2121    1.2782 C   0  0  0  0  0  0  0  0  0  0  0  0
    1.7877   -0.6303   -0.7405 C   0  0  2  0  0  0  0  0  0  0  0  0
    2.8797   -1.5716   -0.4184 C   0  0  0  0  0  0  0  0  0  0  0  0
    4.1288   -0.7601   -0.7935 C   0  0  0  0  0  0  0  0  0  0  0  0
    3.6543    0.6380   -0.9647 C   0  0  0  0  0  0  0  0  0  0  0  0
    4.1637    1.5804   -1.5239 O   0  0  0  0  0  0  0  0  0  0  0  0
    1.8603    1.3368    1.6934 H   0  0  0  0  0  0  0  0  0  0  0  0
    2.8451   -0.2197    1.6650 H   0  0  0  0  0  0  0  0  0  0  0  0
    3.5889    1.3518    1.3271 H   0  0  0  0  0  0  0  0  0  0  0  0
    2.0180    2.3192   -1.5470 H   0  0  0  0  0  0  0  0  0  0  0  0
    1.3316    2.5535    0.0513 H   0  0  0  0  0  0  0  0  0  0  0  0
   -0.6103    2.1975   -1.0324 H   0  0  0  0  0  0  0  0  0  0  0  0
    0.1614    1.4231   -2.4091 H   0  0  0  0  0  0  0  0  0  0  0  0
   -1.0332   -0.3162   -1.7231 H   0  0  0  0  0  0  0  0  0  0  0  0
    0.2031   -1.9600   -0.8668 H   0  0  0  0  0  0  0  0  0  0  0  0
    0.4304   -0.5848    1.8397 H   0  0  0  0  0  0  0  0  0  0  0  0
    0.9234   -2.2009    1.3010 H   0  0  0  0  0  0  0  0  0  0  0  0
   -1.4618   -2.1347    2.2709 H   0  0  0  0  0  0  0  0  0  0  0  0
   -1.2168   -2.9022    0.6762 H   0  0  0  0  0  0  0  0  0  0  0  0
   -3.6467   -2.4817    0.8319 H   0  0  0  0  0  0  0  0  0  0  0  0
   -4.8666    1.3417   -0.8506 H   0  0  0  0  0  0  0  0  0  0  0  0
   -4.2306    1.2246    0.7998 H   0  0  0  0  0  0  0  0  0  0  0  0
   -2.6818    0.7688   -1.8083 H   0  0  0  0  0  0  0  0  0  0  0  0
   -2.6098    2.1281   -0.6456 H   0  0  0  0  0  0  0  0  0  0  0  0
   -0.4832    1.6730    1.3342 H   0  0  0  0  0  0  0  0  0  0  0  0
   -1.6012    0.6320    2.2251 H   0  0  0  0  0  0  0  0  0  0  0  0
   -2.2095    2.0564    1.3715 H   0  0  0  0  0  0  0  0  0  0  0  0
    1.7670   -0.5485   -1.8725 H   0  0  0  0  0  0  0  0  0  0  0  0
    2.7856   -2.4601   -1.0943 H   0  0  0  0  0  0  0  0  0  0  0  0
    2.9199   -1.9544    0.5972 H   0  0  0  0  0  0  0  0  0  0  0  0
    4.8811   -0.8412    0.0295 H   0  0  0  0  0  0  0  0  0  0  0  0
    4.4953   -1.1439   -1.7460 H   0  0  0  0  0  0  0  0  0  0  0  0
  2  1  1  1
  2  3  1  0
  3  4  1  0
  4  5  1  0
  5  6  1  0
  6  7  1  0
  7  8  1  0
  8  9  1  0
  9 10  2  0
 10 11  1  0
 11 12  2  0
 11 13  1  0
 13 14  1  0
 14 15  1  0
 15 16  1  1
  6 17  1  0
 17 18  1  0
 18 19  1  0
 19 20  1  0
 20 21  2  0
 17  2  1  0
 20  2  1  0
 15  5  1  0
 15  9  1  0
  1 22  1  0
  1 23  1  0
  1 24  1  0
  3 25  1  0
  3 26  1  0
  4 27  1  0
  4 28  1  0
  5 29  1  6
  6 30  1  6
  7 31  1  0
  7 32  1  0
  8 33  1  0
  8 34  1  0
 10 35  1  0
 13 36  1  0
 13 37  1  0
 14 38  1  0
 14 39  1  0
 16 40  1  0
 16 41  1  0
 16 42  1  0
 17 43  1  6
 18 44  1  0
 18 45  1  0
 19 46  1  0
 19 47  1  0
M  END
$$$$
[H]c1nc2c([H])c(C(=O)N([H])C([H])([H])C([H])([H])C([H])([H])N3C(=O)C([H])([H])C([H])([H])C3([H])[H])sc2c(Oc2c([H])c([H])c(N([H])C(=O)N([H])c3c([H])c(C([H])([H])[H])c([H])c([H])c3F)c([H])c2[H])c1[H]
     RDKit          3D

 68 72  0  0  0  0  0  0  0  0999 V2000
   10.4543    3.9120    0.9597 C   0  0  0  0  0  0  0  0  0  0  0  0
   10.6666    2.6518    0.1760 C   0  0  0  0  0  0  0  0  0  0  0  0
   11.9193    2.2948   -0.2043 C   0  0  0  0  0  0  0  0  0  0  0  0
   12.0763    1.1306   -0.9233 C   0  0  0  0  0  0  0  0  0  0  0  0
   11.0345    0.3204   -1.2709 C   0  0  0  0  0  0  0  0  0  0  0  0
   11.2382   -0.8210   -1.9824 F   0  0  0  0  0  0  0  0  0  0  0  0
    9.7344    0.7089   -0.8654 C   0  0  0  0  0  0  0  0  0  0  0  0
    8.7111   -0.1633   -1.2527 N   0  0  0  0  0  0  0  0  0  0  0  0
    7.3337   -0.0234   -0.9849 C   0  0  0  0  0  0  0  0  0  0  0  0
    6.9185    0.9559   -0.3414 O   0  0  0  0  0  0  0  0  0  0  0  0
    6.4614   -1.0161   -1.4646 N   0  0  0  0  0  0  0  0  0  0  0  0
    5.0822   -1.0287   -1.2978 C   0  0  0  0  0  0  0  0  0  0  0  0
    4.3710   -2.2349   -1.4554 C   0  0  0  0  0  0  0  0  0  0  0  0
    3.0109   -2.2793   -1.3215 C   0  0  0  0  0  0  0  0  0  0  0  0
    2.2499   -1.1666   -1.0279 C   0  0  0  0  0  0  0  0  0  0  0  0
    0.8705   -1.2410   -0.8972 O   0  0  0  0  0  0  0  0  0  0  0  0
    0.3857   -1.5056    0.3726 C   0  0  0  0  0  0  0  0  0  0  0  0
    1.1756   -1.6939    1.4827 C   0  0  0  0  0  0  0  0  0  0  0  0
    0.4914   -1.9459    2.6522 C   0  0  0  0  0  0  0  0  0  0  0  0
   -0.8208   -2.0114    2.7499 N   0  0  0  0  0  0  0  0  0  0  0  0
   -1.6453   -1.8299    1.6683 C   0  0  0  0  0  0  0  0  0  0  0  0
   -2.9980   -1.8745    1.6515 C   0  0  0  0  0  0  0  0  0  0  0  0
   -3.6110   -1.6615    0.4471 C   0  0  0  0  0  0  0  0  0  0  0  0
   -2.2939   -1.4084   -0.6129 S   0  0  0  0  0  0  0  0  0  0  0  0
   -1.0109   -1.5781    0.4912 C   0  0  0  0  0  0  0  0  0  0  0  0
   -5.0592   -1.6561    0.1556 C   0  0  0  0  0  0  0  0  0  0  0  0
   -5.4558   -1.4425   -1.0133 O   0  0  0  0  0  0  0  0  0  0  0  0
   -5.9871   -1.8899    1.1868 N   0  0  0  0  0  0  0  0  0  0  0  0
   -7.4232   -1.8989    0.9814 C   0  0  0  0  0  0  0  0  0  0  0  0
   -7.9556   -0.5817    0.4662 C   0  0  0  0  0  0  0  0  0  0  0  0
   -9.4754   -0.6621    0.2778 C   0  0  0  0  0  0  0  0  0  0  0  0
   -9.9627    0.6092   -0.2157 N   0  0  0  0  0  0  0  0  0  0  0  0
  -10.3990    1.7100    0.5998 C   0  0  0  0  0  0  0  0  0  0  0  0
  -11.1629    2.6077   -0.3600 C   0  0  0  0  0  0  0  0  0  0  0  0
  -10.5601    2.3294   -1.7210 C   0  0  0  0  0  0  0  0  0  0  0  0
  -10.0733    0.9363   -1.5924 C   0  0  0  0  0  0  0  0  0  0  0  0
   -9.8116    0.1952   -2.5752 O   0  0  0  0  0  0  0  0  0  0  0  0
    2.9507    0.0073   -0.8758 C   0  0  0  0  0  0  0  0  0  0  0  0
    4.3469    0.0810   -1.0081 C   0  0  0  0  0  0  0  0  0  0  0  0
    9.5914    1.8611   -0.1555 C   0  0  0  0  0  0  0  0  0  0  0  0
   10.3754    3.6413    2.0458 H   0  0  0  0  0  0  0  0  0  0  0  0
   11.3245    4.5737    0.7746 H   0  0  0  0  0  0  0  0  0  0  0  0
    9.5142    4.3760    0.6546 H   0  0  0  0  0  0  0  0  0  0  0  0
   12.7817    2.9181    0.0550 H   0  0  0  0  0  0  0  0  0  0  0  0
   13.1080    0.8878   -1.2058 H   0  0  0  0  0  0  0  0  0  0  0  0
    8.9523   -1.0389   -1.8108 H   0  0  0  0  0  0  0  0  0  0  0  0
    6.8783   -1.8336   -2.0064 H   0  0  0  0  0  0  0  0  0  0  0  0
    4.9445   -3.1301   -1.6876 H   0  0  0  0  0  0  0  0  0  0  0  0
    2.4662   -3.2199   -1.4454 H   0  0  0  0  0  0  0  0  0  0  0  0
    2.2374   -1.6341    1.3688 H   0  0  0  0  0  0  0  0  0  0  0  0
    1.0799   -2.1056    3.5787 H   0  0  0  0  0  0  0  0  0  0  0  0
   -3.6265   -2.0740    2.5617 H   0  0  0  0  0  0  0  0  0  0  0  0
   -5.6001   -2.0683    2.1645 H   0  0  0  0  0  0  0  0  0  0  0  0
   -7.9660   -2.2698    1.8517 H   0  0  0  0  0  0  0  0  0  0  0  0
   -7.6206   -2.6430    0.1552 H   0  0  0  0  0  0  0  0  0  0  0  0
   -7.7533    0.2524    1.1752 H   0  0  0  0  0  0  0  0  0  0  0  0
   -7.5572   -0.3067   -0.5254 H   0  0  0  0  0  0  0  0  0  0  0  0
   -9.7459   -1.4461   -0.4428 H   0  0  0  0  0  0  0  0  0  0  0  0
   -9.9058   -0.8553    1.2947 H   0  0  0  0  0  0  0  0  0  0  0  0
  -11.0532    1.3870    1.4316 H   0  0  0  0  0  0  0  0  0  0  0  0
   -9.5669    2.2749    1.0499 H   0  0  0  0  0  0  0  0  0  0  0  0
  -12.2165    2.3136   -0.3299 H   0  0  0  0  0  0  0  0  0  0  0  0
  -11.0051    3.6812   -0.1061 H   0  0  0  0  0  0  0  0  0  0  0  0
  -11.3854    2.4006   -2.4576 H   0  0  0  0  0  0  0  0  0  0  0  0
   -9.7465    3.0478   -1.9727 H   0  0  0  0  0  0  0  0  0  0  0  0
    2.3635    0.8998   -0.6428 H   0  0  0  0  0  0  0  0  0  0  0  0
    4.7295    1.0726   -0.8730 H   0  0  0  0  0  0  0  0  0  0  0  0
    8.6250    2.2017    0.1769 H   0  0  0  0  0  0  0  0  0  0  0  0
  1  2  1  0
  2  3  2  0
  3  4  1  0
  4  5  2  0
  5  6  1  0
  5  7  1  0
  7  8  1  0
  8  9  1  0
  9 10  2  0
  9 11  1  0
 11 12  1  0
 12 13  2  0
 13 14  1  0
 14 15  2  0
 15 16  1  0
 16 17  1  0
 17 18  2  0
 18 19  1  0
 19 20  2  0
 20 21  1  0
 21 22  1  0
 22 23  2  0
 23 24  1  0
 24 25  1  0
 23 26  1  0
 26 27  2  0
 26 28  1  0
 28 29  1  0
 29 30  1  0
 30 31  1  0
 31 32  1  0
 32 33  1  0
 33 34  1  0
 34 35  1  0
 35 36  1  0
 36 37  2  0
 15 38  1  0
 38 39  2  0
  7 40  2  0
 40  2  1  0
 39 12  1  0
 25 17  1  0
 36 32  1  0
 25 21  2  0
  1 41  1  0
  1 42  1  0
  1 43  1  0
  3 44  1  0
  4 45  1  0
  8 46  1  0
 11 47  1  0
 13 48  1  0
 14 49  1  0
 18 50  1  0
 19 51  1  0
 22 52  1  0
 28 53  1  0
 29 54  1  0
 29 55  1  0
 30 56  1  0
 30 57  1  0
 31 58  1  0
 31 59  1  0
 33 60  1  0
 33 61  1  0
 34 62  1  0
 34 63  1  0
 35 64  1  0
 35 65  1  0
 38 66  1  0
 39 67  1  0
 40 68  1  0
M  END
$$$$
[H]OC(=O)C([H])([H])[C@@]([H])(C(=O)C([H])([H])SC([H])([H])c1c([H])c([H])c([H])c([H])c1[H])N([H])C(=O)[C@@]([H])(N([H])C(=O)[C@@]([H])(N([H])C(=O)OC([H])([H])c1c([H])c([H])c([H])c([H])c1[H])C([H])(C([H])([H])[H])C([H])([H])[H])C([H])([H])[H]
     RDKit          3D

 74 75  0  0  0  0  0  0  0  0999 V2000
   -3.7273   -2.9388   -2.0593 C   0  0  0  0  0  0  0  0  0  0  0  0
   -3.8220   -1.4664   -1.7775 C   0  0  0  0  0  0  0  0  0  0  0  0
   -5.3227   -1.1024   -1.8751 C   0  0  0  0  0  0  0  0  0  0  0  0
   -3.4244   -1.1639   -0.3817 C   0  0  2  0  0  0  0  0  0  0  0  0
   -3.5803    0.2589   -0.0604 N   0  0  0  0  0  0  0  0  0  0  0  0
   -4.5951    0.7734    0.7866 C   0  0  0  0  0  0  0  0  0  0  0  0
   -5.4128   -0.0297    1.3023 O   0  0  0  0  0  0  0  0  0  0  0  0
   -4.7448    2.0981    1.0794 O   0  0  0  0  0  0  0  0  0  0  0  0
   -5.6875    2.7261    1.8686 C   0  0  0  0  0  0  0  0  0  0  0  0
   -7.0886    2.5978    1.4614 C   0  0  0  0  0  0  0  0  0  0  0  0
   -8.0321    3.0354    2.3950 C   0  0  0  0  0  0  0  0  0  0  0  0
   -9.3659    2.9593    2.1083 C   0  0  0  0  0  0  0  0  0  0  0  0
   -9.7716    2.4464    0.8898 C   0  0  0  0  0  0  0  0  0  0  0  0
   -8.8404    2.0217   -0.0147 C   0  0  0  0  0  0  0  0  0  0  0  0
   -7.4697    2.0933    0.2625 C   0  0  0  0  0  0  0  0  0  0  0  0
   -2.1163   -1.6261    0.1004 C   0  0  0  0  0  0  0  0  0  0  0  0
   -1.7669   -1.2793    1.3124 O   0  0  0  0  0  0  0  0  0  0  0  0
   -1.1627   -2.3928   -0.5609 N   0  0  0  0  0  0  0  0  0  0  0  0
    0.0804   -2.7424    0.1299 C   0  0  1  0  0  0  0  0  0  0  0  0
    0.4894   -4.1186   -0.2489 C   0  0  0  0  0  0  0  0  0  0  0  0
    1.1363   -1.7287   -0.1661 C   0  0  0  0  0  0  0  0  0  0  0  0
    0.8334   -0.7106   -0.8552 O   0  0  0  0  0  0  0  0  0  0  0  0
    2.4324   -1.9483    0.3391 N   0  0  0  0  0  0  0  0  0  0  0  0
    3.4585   -0.9295    0.0661 C   0  0  1  0  0  0  0  0  0  0  0  0
    4.2048   -0.6451    1.3486 C   0  0  0  0  0  0  0  0  0  0  0  0
    4.8950   -1.8028    1.9166 C   0  0  0  0  0  0  0  0  0  0  0  0
    5.5973   -1.5897    3.1263 O   0  0  0  0  0  0  0  0  0  0  0  0
    4.9489   -2.9544    1.4746 O   0  0  0  0  0  0  0  0  0  0  0  0
    4.3433   -1.3459   -1.0224 C   0  0  0  0  0  0  0  0  0  0  0  0
    4.2881   -2.5630   -1.3322 O   0  0  0  0  0  0  0  0  0  0  0  0
    5.2834   -0.5592   -1.8235 C   0  0  0  0  0  0  0  0  0  0  0  0
    6.9985   -0.6990   -1.5024 S   0  0  0  0  0  0  0  0  0  0  0  0
    7.7241    0.1079   -0.1159 C   0  0  0  0  0  0  0  0  0  0  0  0
    7.7891    1.5843   -0.3209 C   0  0  0  0  0  0  0  0  0  0  0  0
    8.9032    2.0751   -0.9715 C   0  0  0  0  0  0  0  0  0  0  0  0
    9.0839    3.4105   -1.2050 C   0  0  0  0  0  0  0  0  0  0  0  0
    8.1178    4.2858   -0.7740 C   0  0  0  0  0  0  0  0  0  0  0  0
    6.9990    3.8184   -0.1241 C   0  0  0  0  0  0  0  0  0  0  0  0
    6.8263    2.4495    0.1090 C   0  0  0  0  0  0  0  0  0  0  0  0
   -3.0543   -3.2120   -2.8869 H   0  0  0  0  0  0  0  0  0  0  0  0
   -4.7496   -3.3589   -2.3096 H   0  0  0  0  0  0  0  0  0  0  0  0
   -3.4225   -3.4526   -1.1277 H   0  0  0  0  0  0  0  0  0  0  0  0
   -3.2590   -0.8618   -2.5344 H   0  0  0  0  0  0  0  0  0  0  0  0
   -5.4283   -0.0267   -1.6480 H   0  0  0  0  0  0  0  0  0  0  0  0
   -5.8259   -1.6883   -1.0794 H   0  0  0  0  0  0  0  0  0  0  0  0
   -5.7113   -1.3949   -2.8690 H   0  0  0  0  0  0  0  0  0  0  0  0
   -4.2049   -1.6694    0.2717 H   0  0  0  0  0  0  0  0  0  0  0  0
   -2.9137    0.9445   -0.4736 H   0  0  0  0  0  0  0  0  0  0  0  0
   -5.4592    3.8349    1.8108 H   0  0  0  0  0  0  0  0  0  0  0  0
   -5.6187    2.4949    2.9514 H   0  0  0  0  0  0  0  0  0  0  0  0
   -7.7260    3.4403    3.3534 H   0  0  0  0  0  0  0  0  0  0  0  0
  -10.1384    3.2910    2.8049 H   0  0  0  0  0  0  0  0  0  0  0  0
  -10.8194    2.3769    0.6432 H   0  0  0  0  0  0  0  0  0  0  0  0
   -9.0972    1.6105   -0.9834 H   0  0  0  0  0  0  0  0  0  0  0  0
   -6.7379    1.7714   -0.4488 H   0  0  0  0  0  0  0  0  0  0  0  0
   -1.2134   -2.7540   -1.5322 H   0  0  0  0  0  0  0  0  0  0  0  0
   -0.0768   -2.6483    1.2323 H   0  0  0  0  0  0  0  0  0  0  0  0
    1.2633   -4.0584   -1.0383 H   0  0  0  0  0  0  0  0  0  0  0  0
    0.8690   -4.6564    0.6573 H   0  0  0  0  0  0  0  0  0  0  0  0
   -0.4097   -4.6535   -0.6642 H   0  0  0  0  0  0  0  0  0  0  0  0
    2.6562   -2.7828    0.8793 H   0  0  0  0  0  0  0  0  0  0  0  0
    2.9454    0.0057   -0.2456 H   0  0  0  0  0  0  0  0  0  0  0  0
    3.4900   -0.1914    2.1115 H   0  0  0  0  0  0  0  0  0  0  0  0
    4.9246    0.1559    1.1570 H   0  0  0  0  0  0  0  0  0  0  0  0
    5.0507   -1.3555    3.9351 H   0  0  0  0  0  0  0  0  0  0  0  0
    5.0694   -0.7294   -2.9199 H   0  0  0  0  0  0  0  0  0  0  0  0
    4.9924    0.5409   -1.6904 H   0  0  0  0  0  0  0  0  0  0  0  0
    8.7947   -0.2500   -0.0044 H   0  0  0  0  0  0  0  0  0  0  0  0
    7.2761   -0.1335    0.8750 H   0  0  0  0  0  0  0  0  0  0  0  0
    9.6610    1.3715   -1.3061 H   0  0  0  0  0  0  0  0  0  0  0  0
    9.9812    3.7271   -1.7201 H   0  0  0  0  0  0  0  0  0  0  0  0
    8.2423    5.3540   -0.9495 H   0  0  0  0  0  0  0  0  0  0  0  0
    6.2026    4.4548    0.2405 H   0  0  0  0  0  0  0  0  0  0  0  0
    5.9449    2.0983    0.6229 H   0  0  0  0  0  0  0  0  0  0  0  0
  1  2  1  0
  2  3  1  0
  2  4  1  0
  4  5  1  0
  5  6  1  0
  6  7  2  0
  6  8  1  0
  8  9  1  0
  9 10  1  0
 10 11  2  0
 11 12  1  0
 12 13  2  0
 13 14  1  0
 14 15  2  0
  4 16  1  0
 16 17  2  0
 16 18  1  0
 18 19  1  0
 19 20  1  0
 19 21  1  0
 21 22  2  0
 21 23  1  0
 23 24  1  0
 24 25  1  0
 25 26  1  0
 26 27  1  0
 26 28  2  0
 24 29  1  0
 29 30  2  0
 29 31  1  0
 31 32  1  0
 32 33  1  0
 33 34  1  0
 34 35  2  0
 35 36  1  0
 36 37  2  0
 37 38  1  0
 38 39  2  0
 15 10  1  0
 39 34  1  0
  1 40  1  0
  1 41  1  0
  1 42  1  0
  2 43  1  0
  3 44  1  0
  3 45  1  0
  3 46  1  0
  4 47  1  1
  5 48  1  0
  9 49  1  0
  9 50  1  0
 11 51  1  0
 12 52  1  0
 13 53  1  0
 14 54  1  0
 15 55  1  0
 18 56  1  0
 19 57  1  1
 20 58  1  0
 20 59  1  0
 20 60  1  0
 23 61  1  0
 24 62  1  6
 25 63  1  0
 25 64  1  0
 27 65  1  0
 31 66  1  0
 31 67  1  0
 33 68  1  0
 33 69  1  0
 35 70  1  0
 36 71  1  0
 37 72  1  0
 38 73  1  0
 39 74  1  0
M  END
$$$$
[H]c1nc([H])c(C([H])([H])C(=O)N([H])C(C(=O)C([H])([H])C(N2C([H])([H])C([H])([H])N(C(=O)C([H])([H])C([H])([H])c3c([H])c([H])c([H])c([H])c3[H])C([H])([H])C2([H])[H])(C([H])([H])[H])C([H])([H])[H])(C([H])([H])C([H])([H])[H])C([H])([H])C([H])([H])[H])nc1[H]
     RDKit          3D

 78 80  0  0  0  0  0  0  0  0999 V2000
   -3.9568    2.1838   -1.1566 C   0  0  0  0  0  0  0  0  0  0  0  0
   -4.1021    1.8522    0.2560 C   0  0  0  0  0  0  0  0  0  0  0  0
   -3.5293    0.5712    0.8189 C   0  0  0  0  0  0  0  0  0  0  0  0
   -3.8365    0.6000    2.3194 C   0  0  0  0  0  0  0  0  0  0  0  0
   -3.2831    1.7884    3.0437 C   0  0  0  0  0  0  0  0  0  0  0  0
   -4.3335   -0.5171    0.3130 N   0  0  0  0  0  0  0  0  0  0  0  0
   -4.6562   -1.0299   -0.9058 C   0  0  0  0  0  0  0  0  0  0  0  0
   -4.2917   -0.6502   -2.0204 O   0  0  0  0  0  0  0  0  0  0  0  0
   -5.5944   -2.2300   -0.9559 C   0  0  0  0  0  0  0  0  0  0  0  0
   -6.9021   -1.8795   -1.5081 C   0  0  0  0  0  0  0  0  0  0  0  0
   -7.1649   -1.9503   -2.8447 C   0  0  0  0  0  0  0  0  0  0  0  0
   -8.3996   -1.6163   -3.3164 N   0  0  0  0  0  0  0  0  0  0  0  0
   -9.3667   -1.2156   -2.4748 C   0  0  0  0  0  0  0  0  0  0  0  0
   -9.1097   -1.1385   -1.1003 C   0  0  0  0  0  0  0  0  0  0  0  0
   -7.8875   -1.4753   -0.6910 N   0  0  0  0  0  0  0  0  0  0  0  0
   -2.1323    0.2888    0.4728 C   0  0  0  0  0  0  0  0  0  0  0  0
   -1.9519   -0.0909   -0.6683 O   0  0  0  0  0  0  0  0  0  0  0  0
   -0.9330    0.3949    1.3071 C   0  0  0  0  0  0  0  0  0  0  0  0
    0.2421    1.1570    0.8038 C   0  0  0  0  0  0  0  0  0  0  0  0
   -0.1339    2.6078    0.4830 C   0  0  0  0  0  0  0  0  0  0  0  0
    1.1437    1.3492    2.0795 C   0  0  0  0  0  0  0  0  0  0  0  0
    1.0744    0.6633   -0.1832 N   0  0  0  0  0  0  0  0  0  0  0  0
    2.3114    1.3500   -0.2884 C   0  0  0  0  0  0  0  0  0  0  0  0
    3.5016    0.6501    0.3343 C   0  0  0  0  0  0  0  0  0  0  0  0
    3.4872   -0.7275   -0.1083 N   0  0  0  0  0  0  0  0  0  0  0  0
    2.4846   -1.0784   -1.0753 C   0  0  0  0  0  0  0  0  0  0  0  0
    1.0928   -0.6420   -0.6500 C   0  0  0  0  0  0  0  0  0  0  0  0
    4.4289   -1.6476    0.4067 C   0  0  0  0  0  0  0  0  0  0  0  0
    4.4054   -2.8056   -0.0616 O   0  0  0  0  0  0  0  0  0  0  0  0
    5.4017   -1.2938    1.4557 C   0  0  0  0  0  0  0  0  0  0  0  0
    6.7724   -1.8335    1.2664 C   0  0  0  0  0  0  0  0  0  0  0  0
    7.4657   -1.2980    0.0439 C   0  0  0  0  0  0  0  0  0  0  0  0
    7.4574   -1.8969   -1.1833 C   0  0  0  0  0  0  0  0  0  0  0  0
    8.1108   -1.3268   -2.2800 C   0  0  0  0  0  0  0  0  0  0  0  0
    8.7746   -0.1485   -2.1325 C   0  0  0  0  0  0  0  0  0  0  0  0
    8.8130    0.5026   -0.8995 C   0  0  0  0  0  0  0  0  0  0  0  0
    8.1635   -0.0773    0.1605 C   0  0  0  0  0  0  0  0  0  0  0  0
   -3.8463    3.3284   -1.2182 H   0  0  0  0  0  0  0  0  0  0  0  0
   -4.8869    2.0671   -1.7917 H   0  0  0  0  0  0  0  0  0  0  0  0
   -3.0317    1.8581   -1.6762 H   0  0  0  0  0  0  0  0  0  0  0  0
   -5.2249    1.8795    0.4742 H   0  0  0  0  0  0  0  0  0  0  0  0
   -3.7617    2.7410    0.8749 H   0  0  0  0  0  0  0  0  0  0  0  0
   -4.9383    0.6294    2.4240 H   0  0  0  0  0  0  0  0  0  0  0  0
   -3.4902   -0.3061    2.8257 H   0  0  0  0  0  0  0  0  0  0  0  0
   -2.7223    1.4494    3.9664 H   0  0  0  0  0  0  0  0  0  0  0  0
   -4.1209    2.4156    3.4846 H   0  0  0  0  0  0  0  0  0  0  0  0
   -2.5942    2.4222    2.4619 H   0  0  0  0  0  0  0  0  0  0  0  0
   -4.7979   -1.0714    1.1568 H   0  0  0  0  0  0  0  0  0  0  0  0
   -5.6358   -2.6322    0.0704 H   0  0  0  0  0  0  0  0  0  0  0  0
   -5.1275   -3.0409   -1.5768 H   0  0  0  0  0  0  0  0  0  0  0  0
   -6.4088   -2.2702   -3.5776 H   0  0  0  0  0  0  0  0  0  0  0  0
  -10.3772   -0.9367   -2.8112 H   0  0  0  0  0  0  0  0  0  0  0  0
   -9.9034   -0.8113   -0.4114 H   0  0  0  0  0  0  0  0  0  0  0  0
   -1.1113    0.6101    2.3870 H   0  0  0  0  0  0  0  0  0  0  0  0
   -0.5025   -0.6814    1.4398 H   0  0  0  0  0  0  0  0  0  0  0  0
    0.5919    3.1199   -0.1614 H   0  0  0  0  0  0  0  0  0  0  0  0
   -0.2549    3.2031    1.4028 H   0  0  0  0  0  0  0  0  0  0  0  0
   -1.0984    2.6590   -0.0534 H   0  0  0  0  0  0  0  0  0  0  0  0
    0.3849    1.6755    2.8566 H   0  0  0  0  0  0  0  0  0  0  0  0
    1.8220    2.1774    1.9660 H   0  0  0  0  0  0  0  0  0  0  0  0
    1.5326    0.4026    2.4334 H   0  0  0  0  0  0  0  0  0  0  0  0
    2.3686    2.3789    0.0523 H   0  0  0  0  0  0  0  0  0  0  0  0
    2.5528    1.3992   -1.3930 H   0  0  0  0  0  0  0  0  0  0  0  0
    4.3980    1.1536   -0.1536 H   0  0  0  0  0  0  0  0  0  0  0  0
    3.6357    0.7808    1.3965 H   0  0  0  0  0  0  0  0  0  0  0  0
    2.7170   -0.5241   -2.0295 H   0  0  0  0  0  0  0  0  0  0  0  0
    2.4804   -2.1836   -1.2833 H   0  0  0  0  0  0  0  0  0  0  0  0
    0.7012   -1.4386    0.0120 H   0  0  0  0  0  0  0  0  0  0  0  0
    0.5262   -0.7929   -1.6368 H   0  0  0  0  0  0  0  0  0  0  0  0
    5.4616   -0.1982    1.6395 H   0  0  0  0  0  0  0  0  0  0  0  0
    5.0231   -1.7587    2.4219 H   0  0  0  0  0  0  0  0  0  0  0  0
    6.7840   -2.9533    1.1409 H   0  0  0  0  0  0  0  0  0  0  0  0
    7.4561   -1.6170    2.1094 H   0  0  0  0  0  0  0  0  0  0  0  0
    6.9343   -2.8532   -1.3006 H   0  0  0  0  0  0  0  0  0  0  0  0
    8.0652   -1.8556   -3.2297 H   0  0  0  0  0  0  0  0  0  0  0  0
    9.3005    0.3345   -2.9662 H   0  0  0  0  0  0  0  0  0  0  0  0
    9.3529    1.4397   -0.8264 H   0  0  0  0  0  0  0  0  0  0  0  0
    8.1797    0.4107    1.1349 H   0  0  0  0  0  0  0  0  0  0  0  0
  1  2  1  0
  2  3  1  0
  3  4  1  0
  4  5  1  0
  3  6  1  0
  6  7  1  0
  7  8  2  0
  7  9  1  0
  9 10  1  0
 10 11  2  0
 11 12  1  0
 12 13  2  0
 13 14  1  0
 14 15  2  0
  3 16  1  0
 16 17  2  0
 16 18  1  0
 18 19  1  0
 19 20  1  0
 19 21  1  0
 19 22  1  0
 22 23  1  0
 23 24  1  0
 24 25  1  0
 25 26  1  0
 26 27  1  0
 25 28  1  0
 28 29  2  0
 28 30  1  0
 30 31  1  0
 31 32  1  0
 32 33  2  0
 33 34  1  0
 34 35  2  0
 35 36  1  0
 36 37  2  0
 15 10  1  0
 27 22  1  0
 37 32  1  0
  1 38  1  0
  1 39  1  0
  1 40  1  0
  2 41  1  0
  2 42  1  0
  4 43  1  0
  4 44  1  0
  5 45  1  0
  5 46  1  0
  5 47  1  0
  6 48  1  0
  9 49  1  0
  9 50  1  0
 11 51  1  0
 13 52  1  0
 14 53  1  0
 18 54  1  0
 18 55  1  0
 20 56  1  0
 20 57  1  0
 20 58  1  0
 21 59  1  0
 21 60  1  0
 21 61  1  0
 23 62  1  0
 23 63  1  0
 24 64  1  0
 24 65  1  0
 26 66  1  0
 26 67  1  0
 27 68  1  0
 27 69  1  0
 30 70  1  0
 30 71  1  0
 31 72  1  0
 31 73  1  0
 33 74  1  0
 34 75  1  0
 35 76  1  0
 36 77  1  0
 37 78  1  0
M  END
$$$$
[H]O[C@]1([H])C([H])([H])C([H])([H])[C@]([H])(c2nc(-c3c([H])c([H])c(C(=O)N([H])c4nc([H])c([H])c(C(F)(F)F)c4[H])c([H])c3[H])c3c(N([H])[H])nc([H])c([H])n32)C([H])([H])C1([H])[H]
     RDKit          3D

 59 63  0  0  0  0  0  0  0  0999 V2000
    0.1507    0.9912    2.5755 N   0  0  0  0  0  0  0  0  0  0  0  0
   -1.2378    1.0936    2.2902 C   0  0  0  0  0  0  0  0  0  0  0  0
   -2.0248    1.8387    3.1168 N   0  0  0  0  0  0  0  0  0  0  0  0
   -3.3246    1.9670    2.8824 C   0  0  0  0  0  0  0  0  0  0  0  0
   -3.9026    1.3590    1.8050 C   0  0  0  0  0  0  0  0  0  0  0  0
   -3.1618    0.6156    0.9597 N   0  0  0  0  0  0  0  0  0  0  0  0
   -3.4333   -0.0562   -0.1647 C   0  0  0  0  0  0  0  0  0  0  0  0
   -2.2717   -0.6022   -0.6158 N   0  0  0  0  0  0  0  0  0  0  0  0
   -1.2396   -0.2895    0.2081 C   0  0  0  0  0  0  0  0  0  0  0  0
    0.1718   -0.5899   -0.0094 C   0  0  0  0  0  0  0  0  0  0  0  0
    0.9468   -1.3304    0.8145 C   0  0  0  0  0  0  0  0  0  0  0  0
    2.3285   -1.4118    0.5952 C   0  0  0  0  0  0  0  0  0  0  0  0
    2.9163   -0.7597   -0.4369 C   0  0  0  0  0  0  0  0  0  0  0  0
    2.1193   -0.0002   -1.2977 C   0  0  0  0  0  0  0  0  0  0  0  0
    0.7716    0.0759   -1.0779 C   0  0  0  0  0  0  0  0  0  0  0  0
    4.3796   -0.6810   -0.6638 C   0  0  0  0  0  0  0  0  0  0  0  0
    4.7671   -0.2221   -1.7983 O   0  0  0  0  0  0  0  0  0  0  0  0
    5.2768   -1.0717    0.3139 N   0  0  0  0  0  0  0  0  0  0  0  0
    6.7005   -0.8041    0.2748 C   0  0  0  0  0  0  0  0  0  0  0  0
    7.2880    0.0707   -0.6030 C   0  0  0  0  0  0  0  0  0  0  0  0
    8.6771    0.2972   -0.6261 C   0  0  0  0  0  0  0  0  0  0  0  0
    9.4870   -0.3701    0.2510 C   0  0  0  0  0  0  0  0  0  0  0  0
    8.8719   -1.2521    1.1302 C   0  0  0  0  0  0  0  0  0  0  0  0
    7.5494   -1.4492    1.1295 N   0  0  0  0  0  0  0  0  0  0  0  0
    9.1905    1.2884   -1.6133 C   0  0  0  0  0  0  0  0  0  0  0  0
   10.4787    1.6309   -1.3199 F   0  0  0  0  0  0  0  0  0  0  0  0
    8.3229    2.3945   -1.5367 F   0  0  0  0  0  0  0  0  0  0  0  0
    9.0360    0.7593   -2.8784 F   0  0  0  0  0  0  0  0  0  0  0  0
   -1.8114    0.4782    1.2056 C   0  0  0  0  0  0  0  0  0  0  0  0
   -4.7517   -0.2159   -0.8264 C   0  0  2  0  0  0  0  0  0  0  0  0
   -5.4787    1.0102   -1.1861 C   0  0  0  0  0  0  0  0  0  0  0  0
   -6.8060    0.6933   -1.8499 C   0  0  0  0  0  0  0  0  0  0  0  0
   -7.5692   -0.4292   -1.2589 C   0  0  2  0  0  0  0  0  0  0  0  0
   -8.9025   -0.0897   -0.9677 O   0  0  0  0  0  0  0  0  0  0  0  0
   -6.9958   -1.0326   -0.0121 C   0  0  0  0  0  0  0  0  0  0  0  0
   -5.5306   -1.2746   -0.0900 C   0  0  0  0  0  0  0  0  0  0  0  0
    0.5354    0.4078    3.3449 H   0  0  0  0  0  0  0  0  0  0  0  0
    0.7967    1.5446    1.9825 H   0  0  0  0  0  0  0  0  0  0  0  0
   -3.9746    2.5652    3.5419 H   0  0  0  0  0  0  0  0  0  0  0  0
   -4.9654    1.4305    1.6073 H   0  0  0  0  0  0  0  0  0  0  0  0
    0.5590   -1.8921    1.6625 H   0  0  0  0  0  0  0  0  0  0  0  0
    2.9531   -2.0150    1.2642 H   0  0  0  0  0  0  0  0  0  0  0  0
    2.5742    0.5388   -2.1249 H   0  0  0  0  0  0  0  0  0  0  0  0
    0.1440    0.6707   -1.7463 H   0  0  0  0  0  0  0  0  0  0  0  0
    4.9038   -1.4706    1.2185 H   0  0  0  0  0  0  0  0  0  0  0  0
    6.6868    0.6470   -1.2971 H   0  0  0  0  0  0  0  0  0  0  0  0
   10.5584   -0.2066    0.2464 H   0  0  0  0  0  0  0  0  0  0  0  0
    9.5198   -1.7909    1.8414 H   0  0  0  0  0  0  0  0  0  0  0  0
   -4.5149   -0.7271   -1.8347 H   0  0  0  0  0  0  0  0  0  0  0  0
   -5.6560    1.7744   -0.4462 H   0  0  0  0  0  0  0  0  0  0  0  0
   -4.8873    1.5030   -2.0196 H   0  0  0  0  0  0  0  0  0  0  0  0
   -6.7204    0.6371   -2.9725 H   0  0  0  0  0  0  0  0  0  0  0  0
   -7.4479    1.6181   -1.7101 H   0  0  0  0  0  0  0  0  0  0  0  0
   -7.5862   -1.2587   -2.0296 H   0  0  0  0  0  0  0  0  0  0  0  0
   -9.2507   -0.5698   -0.1647 H   0  0  0  0  0  0  0  0  0  0  0  0
   -7.2013   -0.3646    0.8669 H   0  0  0  0  0  0  0  0  0  0  0  0
   -7.5127   -2.0002    0.1528 H   0  0  0  0  0  0  0  0  0  0  0  0
   -5.3653   -2.3038   -0.5184 H   0  0  0  0  0  0  0  0  0  0  0  0
   -5.1368   -1.3693    0.9574 H   0  0  0  0  0  0  0  0  0  0  0  0
  1  2  1  0
  2  3  2  0
  3  4  1  0
  4  5  2  0
  5  6  1  0
  6  7  1  0
  7  8  2  0
  8  9  1  0
  9 10  1  0
 10 11  2  0
 11 12  1  0
 12 13  2  0
 13 14  1  0
 14 15  2  0
 13 16  1  0
 16 17  2  0
 16 18  1  0
 18 19  1  0
 19 20  2  0
 20 21  1  0
 21 22  2  0
 22 23  1  0
 23 24  2  0
 21 25  1  0
 25 26  1  0
 25 27  1  0
 25 28  1  0
  9 29  2  0
  7 30  1  0
 30 31  1  0
 31 32  1  0
 32 33  1  0
 33 34  1  0
 33 35  1  0
 35 36  1  0
 29  2  1  0
 36 30  1  0
 29  6  1  0
 15 10  1  0
 24 19  1  0
  1 37  1  0
  1 38  1  0
  4 39  1  0
  5 40  1  0
 11 41  1  0
 12 42  1  0
 14 43  1  0
 15 44  1  0
 18 45  1  0
 20 46  1  0
 22 47  1  0
 23 48  1  0
 30 49  1  6
 31 50  1  0
 31 51  1  0
 32 52  1  0
 32 53  1  0
 33 54  1  6
 34 55  1  0
 35 56  1  0
 35 57  1  0
 36 58  1  0
 36 59  1  0
M  END
$$$$
[H]c1c([H])c([H])c2c(c1[H])c(C([H])([H])[C@]1([H])N([H])C(=O)[C@]([H])(C([H])([H])C([H])([H])C([H])([H])N=C(N([H])[H])N([H])[H])N([H])C(=O)C3([H])C([H])([H])C([H])([H])N1C([H])([H])C3([H])[H])c([H])n2[H]
     RDKit          3D

 62 65  0  0  0  0  0  0  0  0999 V2000
    6.6539   -1.7004   -0.8841 N   0  0  0  0  0  0  0  0  0  0  0  0
    5.3468   -1.8140   -1.4242 C   0  0  0  0  0  0  0  0  0  0  0  0
    5.1347   -2.8773   -2.3705 N   0  0  0  0  0  0  0  0  0  0  0  0
    4.3767   -1.0440   -1.1240 N   0  0  0  0  0  0  0  0  0  0  0  0
    4.4531    0.0591   -0.1929 C   0  0  0  0  0  0  0  0  0  0  0  0
    4.1758   -0.3159    1.2253 C   0  0  0  0  0  0  0  0  0  0  0  0
    2.8285   -0.8952    1.4544 C   0  0  0  0  0  0  0  0  0  0  0  0
    1.6788    0.0304    1.0800 C   0  0  2  0  0  0  0  0  0  0  0  0
    1.7200    1.2486    1.8351 N   0  0  0  0  0  0  0  0  0  0  0  0
    0.8457    2.3194    1.8958 C   0  0  0  0  0  0  0  0  0  0  0  0
    0.2864    2.5914    3.0358 O   0  0  0  0  0  0  0  0  0  0  0  0
    0.3971    3.2723    0.8618 C   0  0  0  0  0  0  0  0  0  0  0  0
    0.6492    2.9417   -0.5496 C   0  0  0  0  0  0  0  0  0  0  0  0
   -0.5456    2.4157   -1.3088 C   0  0  0  0  0  0  0  0  0  0  0  0
   -1.4025    1.5723   -0.5265 N   0  0  0  0  0  0  0  0  0  0  0  0
   -1.7074    2.0725    0.7707 C   0  0  0  0  0  0  0  0  0  0  0  0
   -1.1192    3.4482    1.0249 C   0  0  0  0  0  0  0  0  0  0  0  0
   -1.0087    0.1734   -0.5736 C   0  0  2  0  0  0  0  0  0  0  0  0
   -1.7779   -0.6139   -1.5730 C   0  0  0  0  0  0  0  0  0  0  0  0
   -3.2255   -0.6892   -1.4201 C   0  0  0  0  0  0  0  0  0  0  0  0
   -4.0966    0.1391   -2.0940 C   0  0  0  0  0  0  0  0  0  0  0  0
   -5.3330   -0.1562   -1.7264 N   0  0  0  0  0  0  0  0  0  0  0  0
   -5.2972   -1.1559   -0.8305 C   0  0  0  0  0  0  0  0  0  0  0  0
   -6.3184   -1.8353   -0.1507 C   0  0  0  0  0  0  0  0  0  0  0  0
   -6.0498   -2.8659    0.7372 C   0  0  0  0  0  0  0  0  0  0  0  0
   -4.7292   -3.2005    0.9283 C   0  0  0  0  0  0  0  0  0  0  0  0
   -3.7204   -2.5413    0.2680 C   0  0  0  0  0  0  0  0  0  0  0  0
   -3.9869   -1.5037   -0.6256 C   0  0  0  0  0  0  0  0  0  0  0  0
   -0.8313   -0.3917    0.7233 N   0  0  0  0  0  0  0  0  0  0  0  0
    0.4443   -0.7792    1.2814 C   0  0  0  0  0  0  0  0  0  0  0  0
    0.4697   -1.8517    1.9602 O   0  0  0  0  0  0  0  0  0  0  0  0
    6.8002   -1.2299    0.0309 H   0  0  0  0  0  0  0  0  0  0  0  0
    7.4933   -2.0742   -1.3718 H   0  0  0  0  0  0  0  0  0  0  0  0
    5.9123   -3.4494   -2.7603 H   0  0  0  0  0  0  0  0  0  0  0  0
    4.1628   -3.0994   -2.6923 H   0  0  0  0  0  0  0  0  0  0  0  0
    3.7897    0.8749   -0.5481 H   0  0  0  0  0  0  0  0  0  0  0  0
    5.5044    0.4585   -0.2837 H   0  0  0  0  0  0  0  0  0  0  0  0
    4.9155   -1.1138    1.5082 H   0  0  0  0  0  0  0  0  0  0  0  0
    4.4186    0.5495    1.8676 H   0  0  0  0  0  0  0  0  0  0  0  0
    2.7241   -1.8053    0.8461 H   0  0  0  0  0  0  0  0  0  0  0  0
    2.7358   -1.1936    2.5174 H   0  0  0  0  0  0  0  0  0  0  0  0
    1.7826    0.1524   -0.0179 H   0  0  0  0  0  0  0  0  0  0  0  0
    2.5923    1.3321    2.4674 H   0  0  0  0  0  0  0  0  0  0  0  0
    0.7971    4.3024    1.1226 H   0  0  0  0  0  0  0  0  0  0  0  0
    0.8608    3.9342   -1.0753 H   0  0  0  0  0  0  0  0  0  0  0  0
    1.5883    2.3845   -0.7430 H   0  0  0  0  0  0  0  0  0  0  0  0
   -1.1661    3.2174   -1.7578 H   0  0  0  0  0  0  0  0  0  0  0  0
   -0.1542    1.7975   -2.1472 H   0  0  0  0  0  0  0  0  0  0  0  0
   -1.3601    1.4464    1.6144 H   0  0  0  0  0  0  0  0  0  0  0  0
   -2.8144    2.1905    0.9449 H   0  0  0  0  0  0  0  0  0  0  0  0
   -1.5073    4.1165    0.2046 H   0  0  0  0  0  0  0  0  0  0  0  0
   -1.3919    3.8011    2.0188 H   0  0  0  0  0  0  0  0  0  0  0  0
    0.0461    0.2301   -1.0174 H   0  0  0  0  0  0  0  0  0  0  0  0
   -1.5055   -0.2316   -2.5849 H   0  0  0  0  0  0  0  0  0  0  0  0
   -1.3509   -1.6616   -1.5431 H   0  0  0  0  0  0  0  0  0  0  0  0
   -3.8353    0.9101   -2.8089 H   0  0  0  0  0  0  0  0  0  0  0  0
   -6.2483    0.2933   -2.0554 H   0  0  0  0  0  0  0  0  0  0  0  0
   -7.3433   -1.5354   -0.3346 H   0  0  0  0  0  0  0  0  0  0  0  0
   -6.8801   -3.3533    1.2325 H   0  0  0  0  0  0  0  0  0  0  0  0
   -4.4968   -3.9958    1.6111 H   0  0  0  0  0  0  0  0  0  0  0  0
   -2.6797   -2.7775    0.3921 H   0  0  0  0  0  0  0  0  0  0  0  0
   -1.7007   -0.5233    1.3228 H   0  0  0  0  0  0  0  0  0  0  0  0
  1  2  1  0
  2  3  1  0
  2  4  2  3
  4  5  1  0
  5  6  1  0
  6  7  1  0
  7  8  1  0
  8  9  1  0
  9 10  1  0
 10 11  2  0
 10 12  1  0
 12 13  1  0
 13 14  1  0
 14 15  1  0
 15 16  1  0
 16 17  1  0
 15 18  1  0
 18 19  1  0
 19 20  1  0
 20 21  2  0
 21 22  1  0
 22 23  1  0
 23 24  2  0
 24 25  1  0
 25 26  2  0
 26 27  1  0
 27 28  2  0
 18 29  1  0
 29 30  1  0
 30 31  2  0
 30  8  1  0
 17 12  1  0
 28 20  1  0
 28 23  1  0
  1 32  1  0
  1 33  1  0
  3 34  1  0
  3 35  1  0
  5 36  1  0
  5 37  1  0
  6 38  1  0
  6 39  1  0
  7 40  1  0
  7 41  1  0
  8 42  1  6
  9 43  1  0
 12 44  1  0
 13 45  1  0
 13 46  1  0
 14 47  1  0
 14 48  1  0
 16 49  1  0
 16 50  1  0
 17 51  1  0
 17 52  1  0
 18 53  1  6
 19 54  1  0
 19 55  1  0
 21 56  1  0
 22 57  1  0
 24 58  1  0
 25 59  1  0
 26 60  1  0
 27 61  1  0
 29 62  1  0
M  END
$$$$
[H]c1c([H])c([H])c(C([H])([H])[C@@]([H])(C(=O)N([H])C([H])([H])[H])N([H])C(=O)[C@@]2([H])N(C(=O)[C@]([H])(N([H])C(=O)[C@@]([H])(N([H])C(=O)[C@@]([H])(N([H])C(=O)[C@@]([H])(N([H])C(=O)[C@@]3([H])N([H])C([H])([H])C([H])([H])C3([H])[H])C([H])([H])c3c([H])c([H])c([H])c([H])c3[H])C([H])([H])c3c([H])c([H])c([H])c([H])c3[H])C([H])([H])c3c([H])c([H])c([H])c([H])c3[H])C([H])([H])C([H])([H])C([H])([H])N=C(N([H])[H])N([H])[H])C([H])([H])C([H])([H])C2([H])[H])c([H])c1[H]
     RDKit          3D

138143  0  0  0  0  0  0  0  0999 V2000
   11.2049    1.5092    0.5002 C   0  0  0  0  0  0  0  0  0  0  0  0
    9.8134    1.7621    0.8522 N   0  0  0  0  0  0  0  0  0  0  0  0
    9.0767    0.8574    1.6447 C   0  0  0  0  0  0  0  0  0  0  0  0
    9.6302   -0.1904    2.0424 O   0  0  0  0  0  0  0  0  0  0  0  0
    7.6721    1.1468    1.9900 C   0  0  2  0  0  0  0  0  0  0  0  0
    7.4985    2.1724    3.0770 C   0  0  0  0  0  0  0  0  0  0  0  0
    8.0638    3.4901    2.8248 C   0  0  0  0  0  0  0  0  0  0  0  0
    7.3727    4.4797    2.1401 C   0  0  0  0  0  0  0  0  0  0  0  0
    7.9479    5.7236    1.9497 C   0  0  0  0  0  0  0  0  0  0  0  0
    9.2068    6.0343    2.4196 C   0  0  0  0  0  0  0  0  0  0  0  0
    9.9070    5.0590    3.1034 C   0  0  0  0  0  0  0  0  0  0  0  0
    9.3276    3.8314    3.2862 C   0  0  0  0  0  0  0  0  0  0  0  0
    7.1007   -0.1362    2.4520 N   0  0  0  0  0  0  0  0  0  0  0  0
    6.1202   -0.8164    1.7148 C   0  0  0  0  0  0  0  0  0  0  0  0
    5.7541   -0.2414    0.6206 O   0  0  0  0  0  0  0  0  0  0  0  0
    5.4879   -2.0975    2.0629 C   0  0  2  0  0  0  0  0  0  0  0  0
    6.4837   -3.1983    2.3673 C   0  0  0  0  0  0  0  0  0  0  0  0
    6.4835   -4.0889    1.1245 C   0  0  0  0  0  0  0  0  0  0  0  0
    5.8386   -3.1799    0.0961 C   0  0  0  0  0  0  0  0  0  0  0  0
    4.7466   -2.6323    0.9125 N   0  0  0  0  0  0  0  0  0  0  0  0
    3.3721   -2.6039    0.6913 C   0  0  0  0  0  0  0  0  0  0  0  0
    2.6480   -2.0549    1.5725 O   0  0  0  0  0  0  0  0  0  0  0  0
    2.6894   -3.1661   -0.5032 C   0  0  1  0  0  0  0  0  0  0  0  0
    2.8093   -4.6456   -0.6447 C   0  0  0  0  0  0  0  0  0  0  0  0
    2.1025   -5.1578   -1.8830 C   0  0  0  0  0  0  0  0  0  0  0  0
    2.6783   -4.5606   -3.1251 C   0  0  0  0  0  0  0  0  0  0  0  0
    4.0773   -4.8928   -3.2330 N   0  0  0  0  0  0  0  0  0  0  0  0
    4.5180   -5.9024   -3.8703 C   0  0  0  0  0  0  0  0  0  0  0  0
    3.6020   -6.7615   -4.5167 N   0  0  0  0  0  0  0  0  0  0  0  0
    5.8951   -6.1733   -3.9442 N   0  0  0  0  0  0  0  0  0  0  0  0
    1.2647   -2.8416   -0.4282 N   0  0  0  0  0  0  0  0  0  0  0  0
    0.6952   -1.6564   -0.9529 C   0  0  0  0  0  0  0  0  0  0  0  0
    1.4776   -0.8344   -1.4833 O   0  0  0  0  0  0  0  0  0  0  0  0
   -0.7264   -1.4023   -0.8835 C   0  0  2  0  0  0  0  0  0  0  0  0
   -1.4247   -1.7442   -2.2296 C   0  0  0  0  0  0  0  0  0  0  0  0
   -0.8953   -0.9472   -3.3448 C   0  0  0  0  0  0  0  0  0  0  0  0
    0.1312   -1.4605   -4.1391 C   0  0  0  0  0  0  0  0  0  0  0  0
    0.6633   -0.7469   -5.1851 C   0  0  0  0  0  0  0  0  0  0  0  0
    0.1819    0.5037   -5.4677 C   0  0  0  0  0  0  0  0  0  0  0  0
   -0.8370    1.0451   -4.7007 C   0  0  0  0  0  0  0  0  0  0  0  0
   -1.3566    0.3144   -3.6563 C   0  0  0  0  0  0  0  0  0  0  0  0
   -1.1231   -0.0393   -0.6071 N   0  0  0  0  0  0  0  0  0  0  0  0
   -2.4110    0.2034   -0.0007 C   0  0  0  0  0  0  0  0  0  0  0  0
   -3.1164   -0.7834    0.2447 O   0  0  0  0  0  0  0  0  0  0  0  0
   -2.8758    1.5737    0.3120 C   0  0  2  0  0  0  0  0  0  0  0  0
   -2.4712    2.0001    1.6995 C   0  0  0  0  0  0  0  0  0  0  0  0
   -2.9495    3.3713    1.9513 C   0  0  0  0  0  0  0  0  0  0  0  0
   -4.0853    3.6631    2.6578 C   0  0  0  0  0  0  0  0  0  0  0  0
   -4.5406    4.9717    2.8636 C   0  0  0  0  0  0  0  0  0  0  0  0
   -3.8319    6.0283    2.3446 C   0  0  0  0  0  0  0  0  0  0  0  0
   -2.6875    5.7684    1.6325 C   0  0  0  0  0  0  0  0  0  0  0  0
   -2.2522    4.4726    1.4378 C   0  0  0  0  0  0  0  0  0  0  0  0
   -4.2335    1.8110   -0.0332 N   0  0  0  0  0  0  0  0  0  0  0  0
   -5.3368    1.2058    0.5871 C   0  0  0  0  0  0  0  0  0  0  0  0
   -5.2157    0.4051    1.5297 O   0  0  0  0  0  0  0  0  0  0  0  0
   -6.6851    1.5527    0.0671 C   0  0  2  0  0  0  0  0  0  0  0  0
   -7.0445    3.0102    0.2626 C   0  0  0  0  0  0  0  0  0  0  0  0
   -8.3990    3.2008   -0.3153 C   0  0  0  0  0  0  0  0  0  0  0  0
   -8.5826    3.5604   -1.6470 C   0  0  0  0  0  0  0  0  0  0  0  0
   -9.8333    3.7321   -2.1951 C   0  0  0  0  0  0  0  0  0  0  0  0
  -10.9638    3.5496   -1.4287 C   0  0  0  0  0  0  0  0  0  0  0  0
  -10.8006    3.1895   -0.0918 C   0  0  0  0  0  0  0  0  0  0  0  0
   -9.5288    3.0208    0.4419 C   0  0  0  0  0  0  0  0  0  0  0  0
   -7.6614    0.7366    0.7748 N   0  0  0  0  0  0  0  0  0  0  0  0
   -8.4821   -0.1929    0.0615 C   0  0  0  0  0  0  0  0  0  0  0  0
   -8.3212   -0.2721   -1.1945 O   0  0  0  0  0  0  0  0  0  0  0  0
   -9.4556   -1.0003    0.7831 C   0  0  2  0  0  0  0  0  0  0  0  0
   -8.8524   -2.0381    1.7085 C   0  0  0  0  0  0  0  0  0  0  0  0
  -10.1135   -2.8538    2.0305 C   0  0  0  0  0  0  0  0  0  0  0  0
  -10.9370   -2.7252    0.7851 C   0  0  0  0  0  0  0  0  0  0  0  0
  -10.1963   -1.8864   -0.1343 N   0  0  0  0  0  0  0  0  0  0  0  0
   11.8921    2.1194    1.1071 H   0  0  0  0  0  0  0  0  0  0  0  0
   11.3134    1.7034   -0.5927 H   0  0  0  0  0  0  0  0  0  0  0  0
   11.3939    0.4272    0.6303 H   0  0  0  0  0  0  0  0  0  0  0  0
    9.3272    2.6250    0.4956 H   0  0  0  0  0  0  0  0  0  0  0  0
    7.1681    1.4993    1.0742 H   0  0  0  0  0  0  0  0  0  0  0  0
    6.3896    2.3116    3.2205 H   0  0  0  0  0  0  0  0  0  0  0  0
    7.8852    1.7784    4.0485 H   0  0  0  0  0  0  0  0  0  0  0  0
    6.3978    4.2663    1.7658 H   0  0  0  0  0  0  0  0  0  0  0  0
    7.4335    6.5216    1.4179 H   0  0  0  0  0  0  0  0  0  0  0  0
    9.6753    7.0143    2.2761 H   0  0  0  0  0  0  0  0  0  0  0  0
   10.8976    5.3033    3.4711 H   0  0  0  0  0  0  0  0  0  0  0  0
    9.8977    3.0800    3.8258 H   0  0  0  0  0  0  0  0  0  0  0  0
    7.4558   -0.5135    3.3402 H   0  0  0  0  0  0  0  0  0  0  0  0
    4.8058   -1.9830    2.8924 H   0  0  0  0  0  0  0  0  0  0  0  0
    7.5012   -2.8471    2.5259 H   0  0  0  0  0  0  0  0  0  0  0  0
    6.1618   -3.7926    3.2612 H   0  0  0  0  0  0  0  0  0  0  0  0
    7.5363   -4.3269    0.8303 H   0  0  0  0  0  0  0  0  0  0  0  0
    5.9264   -5.0091    1.2881 H   0  0  0  0  0  0  0  0  0  0  0  0
    6.6170   -2.3775   -0.0828 H   0  0  0  0  0  0  0  0  0  0  0  0
    5.5491   -3.6336   -0.8265 H   0  0  0  0  0  0  0  0  0  0  0  0
    3.1450   -2.6563   -1.3818 H   0  0  0  0  0  0  0  0  0  0  0  0
    3.8059   -5.0770   -0.6440 H   0  0  0  0  0  0  0  0  0  0  0  0
    2.2844   -5.1050    0.2532 H   0  0  0  0  0  0  0  0  0  0  0  0
    1.0211   -5.0191   -1.8459 H   0  0  0  0  0  0  0  0  0  0  0  0
    2.2968   -6.2619   -1.9215 H   0  0  0  0  0  0  0  0  0  0  0  0
    2.1168   -4.9615   -3.9988 H   0  0  0  0  0  0  0  0  0  0  0  0
    2.5214   -3.4558   -3.1385 H   0  0  0  0  0  0  0  0  0  0  0  0
    3.5166   -7.7484   -4.2255 H   0  0  0  0  0  0  0  0  0  0  0  0
    3.0161   -6.3905   -5.2837 H   0  0  0  0  0  0  0  0  0  0  0  0
    6.2924   -6.6697   -4.7597 H   0  0  0  0  0  0  0  0  0  0  0  0
    6.5246   -5.8760   -3.1733 H   0  0  0  0  0  0  0  0  0  0  0  0
    0.6428   -3.5339    0.0427 H   0  0  0  0  0  0  0  0  0  0  0  0
   -1.2807   -2.0610   -0.1712 H   0  0  0  0  0  0  0  0  0  0  0  0
   -2.4820   -1.4549   -2.0662 H   0  0  0  0  0  0  0  0  0  0  0  0
   -1.3852   -2.8174   -2.4405 H   0  0  0  0  0  0  0  0  0  0  0  0
    0.5230   -2.4450   -3.9373 H   0  0  0  0  0  0  0  0  0  0  0  0
    1.4616   -1.1242   -5.8163 H   0  0  0  0  0  0  0  0  0  0  0  0
    0.5740    1.0997   -6.2844 H   0  0  0  0  0  0  0  0  0  0  0  0
   -1.2230    2.0196   -4.9073 H   0  0  0  0  0  0  0  0  0  0  0  0
   -2.1525    0.7679   -3.0778 H   0  0  0  0  0  0  0  0  0  0  0  0
   -0.5115    0.7651   -0.8332 H   0  0  0  0  0  0  0  0  0  0  0  0
   -2.2402    2.2646   -0.3623 H   0  0  0  0  0  0  0  0  0  0  0  0
   -2.9280    1.3509    2.4768 H   0  0  0  0  0  0  0  0  0  0  0  0
   -1.3629    1.9409    1.7314 H   0  0  0  0  0  0  0  0  0  0  0  0
   -4.6711    2.8422    3.1007 H   0  0  0  0  0  0  0  0  0  0  0  0
   -5.4527    5.1178    3.4337 H   0  0  0  0  0  0  0  0  0  0  0  0
   -4.1936    7.0498    2.5072 H   0  0  0  0  0  0  0  0  0  0  0  0
   -2.1417    6.6065    1.2300 H   0  0  0  0  0  0  0  0  0  0  0  0
   -1.3561    4.2323    0.8850 H   0  0  0  0  0  0  0  0  0  0  0  0
   -4.4317    2.5190   -0.8465 H   0  0  0  0  0  0  0  0  0  0  0  0
   -6.6720    1.3566   -1.0140 H   0  0  0  0  0  0  0  0  0  0  0  0
   -7.0820    3.1484    1.3781 H   0  0  0  0  0  0  0  0  0  0  0  0
   -6.2766    3.6334   -0.1988 H   0  0  0  0  0  0  0  0  0  0  0  0
   -7.7463    3.7222   -2.3052 H   0  0  0  0  0  0  0  0  0  0  0  0
   -9.9924    4.0154   -3.2375 H   0  0  0  0  0  0  0  0  0  0  0  0
  -11.9659    3.6639   -1.7857 H   0  0  0  0  0  0  0  0  0  0  0  0
  -11.6646    3.0321    0.5535 H   0  0  0  0  0  0  0  0  0  0  0  0
   -9.4768    2.7412    1.4836 H   0  0  0  0  0  0  0  0  0  0  0  0
   -7.7319    0.8641    1.8026 H   0  0  0  0  0  0  0  0  0  0  0  0
  -10.2278   -0.4195    1.3329 H   0  0  0  0  0  0  0  0  0  0  0  0
   -8.1763   -2.7028    1.1706 H   0  0  0  0  0  0  0  0  0  0  0  0
   -8.4438   -1.5808    2.6321 H   0  0  0  0  0  0  0  0  0  0  0  0
   -9.8940   -3.8826    2.3193 H   0  0  0  0  0  0  0  0  0  0  0  0
  -10.6454   -2.2807    2.8293 H   0  0  0  0  0  0  0  0  0  0  0  0
  -11.9151   -2.2116    0.9775 H   0  0  0  0  0  0  0  0  0  0  0  0
  -11.1383   -3.7385    0.3338 H   0  0  0  0  0  0  0  0  0  0  0  0
   -9.4202   -2.4771   -0.5675 H   0  0  0  0  0  0  0  0  0  0  0  0
  1  2  1  0
  2  3  1  0
  3  4  2  0
  3  5  1  0
  5  6  1  0
  6  7  1  0
  7  8  2  0
  8  9  1  0
  9 10  2  0
 10 11  1  0
 11 12  2  0
  5 13  1  0
 13 14  1  0
 14 15  2  0
 14 16  1  0
 16 17  1  0
 17 18  1  0
 18 19  1  0
 19 20  1  0
 20 21  1  0
 21 22  2  0
 21 23  1  0
 23 24  1  0
 24 25  1  0
 25 26  1  0
 26 27  1  0
 27 28  2  3
 28 29  1  0
 28 30  1  0
 23 31  1  0
 31 32  1  0
 32 33  2  0
 32 34  1  0
 34 35  1  0
 35 36  1  0
 36 37  2  0
 37 38  1  0
 38 39  2  0
 39 40  1  0
 40 41  2  0
 34 42  1  0
 42 43  1  0
 43 44  2  0
 43 45  1  0
 45 46  1  0
 46 47  1  0
 47 48  2  0
 48 49  1  0
 49 50  2  0
 50 51  1  0
 51 52  2  0
 45 53  1  0
 53 54  1  0
 54 55  2  0
 54 56  1  0
 56 57  1  0
 57 58  1  0
 58 59  2  0
 59 60  1  0
 60 61  2  0
 61 62  1  0
 62 63  2  0
 56 64  1  0
 64 65  1  0
 65 66  2  0
 65 67  1  0
 67 68  1  0
 68 69  1  0
 69 70  1  0
 70 71  1  0
 12  7  1  0
 20 16  1  0
 41 36  1  0
 52 47  1  0
 63 58  1  0
 71 67  1  0
  1 72  1  0
  1 73  1  0
  1 74  1  0
  2 75  1  0
  5 76  1  6
  6 77  1  0
  6 78  1  0
  8 79  1  0
  9 80  1  0
 10 81  1  0
 11 82  1  0
 12 83  1  0
 13 84  1  0
 16 85  1  1
 17 86  1  0
 17 87  1  0
 18 88  1  0
 18 89  1  0
 19 90  1  0
 19 91  1  0
 23 92  1  6
 24 93  1  0
 24 94  1  0
 25 95  1  0
 25 96  1  0
 26 97  1  0
 26 98  1  0
 29 99  1  0
 29100  1  0
 30101  1  0
 30102  1  0
 31103  1  0
 34104  1  1
 35105  1  0
 35106  1  0
 37107  1  0
 38108  1  0
 39109  1  0
 40110  1  0
 41111  1  0
 42112  1  0
 45113  1  6
 46114  1  0
 46115  1  0
 48116  1  0
 49117  1  0
 50118  1  0
 51119  1  0
 52120  1  0
 53121  1  0
 56122  1  6
 57123  1  0
 57124  1  0
 59125  1  0
 60126  1  0
 61127  1  0
 62128  1  0
 63129  1  0
 64130  1  0
 67131  1  1
 68132  1  0
 68133  1  0
 69134  1  0
 69135  1  0
 70136  1  0
 70137  1  0
 71138  1  0
M  END
$$$$
[H]C([H])=C([H])C([H])([H])N([H])c1nc2nc([H])c([H])c([H])n2c(=O)c1C([H])([H])C([H])([H])N1C([H])([H])C([H])([H])C([H])([H])C1([H])[H]
     RDKit          3D

 43 45  0  0  0  0  0  0  0  0999 V2000
    3.5059    3.4278   -0.4162 C   0  0  0  0  0  0  0  0  0  0  0  0
    2.2437    3.3428   -0.0468 C   0  0  0  0  0  0  0  0  0  0  0  0
    1.1327    2.8619   -0.9008 C   0  0  0  0  0  0  0  0  0  0  0  0
    0.5080    1.7040   -0.3014 N   0  0  0  0  0  0  0  0  0  0  0  0
    1.2402    0.4721   -0.1292 C   0  0  0  0  0  0  0  0  0  0  0  0
    2.5212    0.3715   -0.5251 N   0  0  0  0  0  0  0  0  0  0  0  0
    3.2360   -0.7596   -0.3814 C   0  0  0  0  0  0  0  0  0  0  0  0
    4.5325   -0.8281   -0.7957 N   0  0  0  0  0  0  0  0  0  0  0  0
    5.2496   -1.9521   -0.6567 C   0  0  0  0  0  0  0  0  0  0  0  0
    4.6851   -3.0663   -0.0888 C   0  0  0  0  0  0  0  0  0  0  0  0
    3.3951   -3.0218    0.3313 C   0  0  0  0  0  0  0  0  0  0  0  0
    2.6989   -1.8582    0.1717 N   0  0  0  0  0  0  0  0  0  0  0  0
    1.4234   -1.8076    0.5832 C   0  0  0  0  0  0  0  0  0  0  0  0
    0.9380   -2.8542    1.1014 O   0  0  0  0  0  0  0  0  0  0  0  0
    0.6852   -0.6510    0.4383 C   0  0  0  0  0  0  0  0  0  0  0  0
   -0.7229   -0.6305    0.8954 C   0  0  0  0  0  0  0  0  0  0  0  0
   -1.7129   -0.7695   -0.2362 C   0  0  0  0  0  0  0  0  0  0  0  0
   -3.0429   -0.7328    0.3133 N   0  0  0  0  0  0  0  0  0  0  0  0
   -4.0573   -0.9241   -0.6977 C   0  0  0  0  0  0  0  0  0  0  0  0
   -5.3022   -0.2370   -0.1896 C   0  0  0  0  0  0  0  0  0  0  0  0
   -4.7558    0.9002    0.6501 C   0  0  0  0  0  0  0  0  0  0  0  0
   -3.3739    0.4325    1.0563 C   0  0  0  0  0  0  0  0  0  0  0  0
    4.2320    3.7910    0.2808 H   0  0  0  0  0  0  0  0  0  0  0  0
    3.8223    3.1394   -1.4025 H   0  0  0  0  0  0  0  0  0  0  0  0
    1.9702    3.6495    0.9797 H   0  0  0  0  0  0  0  0  0  0  0  0
    0.3724    3.6768   -0.9227 H   0  0  0  0  0  0  0  0  0  0  0  0
    1.5123    2.6328   -1.9222 H   0  0  0  0  0  0  0  0  0  0  0  0
   -0.4836    1.7514    0.0180 H   0  0  0  0  0  0  0  0  0  0  0  0
    6.2893   -2.0397   -0.9782 H   0  0  0  0  0  0  0  0  0  0  0  0
    5.2454   -3.9944    0.0378 H   0  0  0  0  0  0  0  0  0  0  0  0
    2.9163   -3.9018    0.7920 H   0  0  0  0  0  0  0  0  0  0  0  0
   -0.9068   -1.5407    1.5433 H   0  0  0  0  0  0  0  0  0  0  0  0
   -0.9682    0.2964    1.4524 H   0  0  0  0  0  0  0  0  0  0  0  0
   -1.5598   -1.8216   -0.6235 H   0  0  0  0  0  0  0  0  0  0  0  0
   -1.5572   -0.0615   -1.0506 H   0  0  0  0  0  0  0  0  0  0  0  0
   -3.7670   -0.5545   -1.6957 H   0  0  0  0  0  0  0  0  0  0  0  0
   -4.2458   -2.0211   -0.8064 H   0  0  0  0  0  0  0  0  0  0  0  0
   -5.9134   -0.9345    0.4171 H   0  0  0  0  0  0  0  0  0  0  0  0
   -5.9492    0.1546   -1.0066 H   0  0  0  0  0  0  0  0  0  0  0  0
   -4.6091    1.8227    0.0264 H   0  0  0  0  0  0  0  0  0  0  0  0
   -5.3659    1.1043    1.5504 H   0  0  0  0  0  0  0  0  0  0  0  0
   -2.6455    1.2698    0.9832 H   0  0  0  0  0  0  0  0  0  0  0  0
   -3.4165    0.1609    2.1520 H   0  0  0  0  0  0  0  0  0  0  0  0
  1  2  2  3
  2  3  1  0
  3  4  1  0
  4  5  1  0
  5  6  1  0
  6  7  2  0
  7  8  1  0
  8  9  2  0
  9 10  1  0
 10 11  2  0
 11 12  1  0
 12 13  1  0
 13 14  2  0
 13 15  1  0
 15 16  1  0
 16 17  1  0
 17 18  1  0
 18 19  1  0
 19 20  1  0
 20 21  1  0
 21 22  1  0
 15  5  2  0
 22 18  1  0
 12  7  1  0
  1 23  1  0
  1 24  1  0
  2 25  1  0
  3 26  1  0
  3 27  1  0
  4 28  1  0
  9 29  1  0
 10 30  1  0
 11 31  1  0
 16 32  1  0
 16 33  1  0
 17 34  1  0
 17 35  1  0
 19 36  1  0
 19 37  1  0
 20 38  1  0
 20 39  1  0
 21 40  1  0
 21 41  1  0
 22 42  1  0
 22 43  1  0
M  END
$$$$
[H]c1c([H])c(N2C([H])([H])C([H])([H])N(c3c([H])c([H])c(N([H])C(=O)N4C([H])([H])C([H])([H])N(C(=O)C([H])([H])[H])C([H])([H])C4([H])[H])c([H])c3[H])C([H])([H])C2([H])[H])c([H])c([H])c1C(=O)N1C([H])([H])C([H])([H])OC([H])([H])C1([H])[H]
     RDKit          3D

 74 78  0  0  0  0  0  0  0  0999 V2000
  -11.7247    0.7716    1.7092 C   0  0  0  0  0  0  0  0  0  0  0  0
  -11.4271    0.6190    0.2709 C   0  0  0  0  0  0  0  0  0  0  0  0
  -12.1845    1.2636   -0.5324 O   0  0  0  0  0  0  0  0  0  0  0  0
  -10.3704   -0.1890   -0.1752 N   0  0  0  0  0  0  0  0  0  0  0  0
   -9.5456   -0.8915    0.7599 C   0  0  0  0  0  0  0  0  0  0  0  0
   -8.1349   -0.3452    0.5970 C   0  0  0  0  0  0  0  0  0  0  0  0
   -7.7565   -0.3854   -0.7760 N   0  0  0  0  0  0  0  0  0  0  0  0
   -8.6501   -0.4732   -1.9046 C   0  0  0  0  0  0  0  0  0  0  0  0
  -10.0866   -0.3423   -1.5726 C   0  0  0  0  0  0  0  0  0  0  0  0
   -6.3433   -0.3251   -1.0885 C   0  0  0  0  0  0  0  0  0  0  0  0
   -5.9701   -0.3834   -2.2965 O   0  0  0  0  0  0  0  0  0  0  0  0
   -5.3728   -0.2034   -0.0880 N   0  0  0  0  0  0  0  0  0  0  0  0
   -3.9772   -0.1468   -0.2265 C   0  0  0  0  0  0  0  0  0  0  0  0
   -3.1919    0.4013    0.7947 C   0  0  0  0  0  0  0  0  0  0  0  0
   -1.8352    0.4502    0.7134 C   0  0  0  0  0  0  0  0  0  0  0  0
   -1.1587   -0.0389   -0.3822 C   0  0  0  0  0  0  0  0  0  0  0  0
   -1.9245   -0.5750   -1.3809 C   0  0  0  0  0  0  0  0  0  0  0  0
   -3.3235   -0.6420   -1.3310 C   0  0  0  0  0  0  0  0  0  0  0  0
    0.2653   -0.0014   -0.5044 N   0  0  0  0  0  0  0  0  0  0  0  0
    0.8720   -0.6977   -1.6010 C   0  0  0  0  0  0  0  0  0  0  0  0
    2.3320   -0.9968   -1.4358 C   0  0  0  0  0  0  0  0  0  0  0  0
    3.0358    0.0986   -0.7718 N   0  0  0  0  0  0  0  0  0  0  0  0
    2.2769    1.2618   -0.3899 C   0  0  0  0  0  0  0  0  0  0  0  0
    1.0918    0.7115    0.4299 C   0  0  0  0  0  0  0  0  0  0  0  0
    4.4018   -0.0424   -0.5387 C   0  0  0  0  0  0  0  0  0  0  0  0
    5.0723   -1.2022   -0.8933 C   0  0  0  0  0  0  0  0  0  0  0  0
    6.4102   -1.3830   -0.6819 C   0  0  0  0  0  0  0  0  0  0  0  0
    7.1731   -0.3542   -0.0744 C   0  0  0  0  0  0  0  0  0  0  0  0
    6.5375    0.8022    0.2858 C   0  0  0  0  0  0  0  0  0  0  0  0
    5.1690    0.9213    0.0413 C   0  0  0  0  0  0  0  0  0  0  0  0
    8.5690   -0.5915    0.1277 C   0  0  0  0  0  0  0  0  0  0  0  0
    8.9799   -1.7658   -0.2857 O   0  0  0  0  0  0  0  0  0  0  0  0
    9.5474    0.1965    0.6784 N   0  0  0  0  0  0  0  0  0  0  0  0
   10.9199   -0.3977    0.7264 C   0  0  0  0  0  0  0  0  0  0  0  0
   11.3645   -0.2671    2.1654 C   0  0  0  0  0  0  0  0  0  0  0  0
   11.4110    1.0570    2.5610 O   0  0  0  0  0  0  0  0  0  0  0  0
   10.9099    1.9232    1.6232 C   0  0  0  0  0  0  0  0  0  0  0  0
    9.4707    1.5037    1.2162 C   0  0  0  0  0  0  0  0  0  0  0  0
  -10.9961    1.3501    2.2784 H   0  0  0  0  0  0  0  0  0  0  0  0
  -11.8021   -0.2617    2.1307 H   0  0  0  0  0  0  0  0  0  0  0  0
  -12.7266    1.2400    1.8875 H   0  0  0  0  0  0  0  0  0  0  0  0
   -9.8894   -0.8575    1.7943 H   0  0  0  0  0  0  0  0  0  0  0  0
   -9.4590   -1.9760    0.4519 H   0  0  0  0  0  0  0  0  0  0  0  0
   -7.5092   -0.9722    1.2698 H   0  0  0  0  0  0  0  0  0  0  0  0
   -8.1753    0.7197    0.9231 H   0  0  0  0  0  0  0  0  0  0  0  0
   -8.4521   -1.3561   -2.5532 H   0  0  0  0  0  0  0  0  0  0  0  0
   -8.3766    0.4050   -2.5641 H   0  0  0  0  0  0  0  0  0  0  0  0
  -10.6474   -1.2571   -1.9375 H   0  0  0  0  0  0  0  0  0  0  0  0
  -10.5782    0.5041   -2.1371 H   0  0  0  0  0  0  0  0  0  0  0  0
   -5.7377   -0.1437    0.9129 H   0  0  0  0  0  0  0  0  0  0  0  0
   -3.7239    0.7845    1.6521 H   0  0  0  0  0  0  0  0  0  0  0  0
   -1.2445    0.8777    1.5141 H   0  0  0  0  0  0  0  0  0  0  0  0
   -1.4368   -0.9751   -2.2757 H   0  0  0  0  0  0  0  0  0  0  0  0
   -3.8024   -1.0985   -2.1768 H   0  0  0  0  0  0  0  0  0  0  0  0
    0.3427   -1.6981   -1.6615 H   0  0  0  0  0  0  0  0  0  0  0  0
    0.6577   -0.2118   -2.5776 H   0  0  0  0  0  0  0  0  0  0  0  0
    2.7698   -1.0639   -2.4501 H   0  0  0  0  0  0  0  0  0  0  0  0
    2.4669   -1.9562   -0.9333 H   0  0  0  0  0  0  0  0  0  0  0  0
    1.7885    1.6369   -1.3432 H   0  0  0  0  0  0  0  0  0  0  0  0
    2.7983    2.0426    0.1384 H   0  0  0  0  0  0  0  0  0  0  0  0
    1.5768   -0.0215    1.1379 H   0  0  0  0  0  0  0  0  0  0  0  0
    0.5964    1.5178    0.9819 H   0  0  0  0  0  0  0  0  0  0  0  0
    4.4677   -1.9874   -1.3622 H   0  0  0  0  0  0  0  0  0  0  0  0
    6.8817   -2.3149   -0.9820 H   0  0  0  0  0  0  0  0  0  0  0  0
    7.0035    1.6427    0.7472 H   0  0  0  0  0  0  0  0  0  0  0  0
    4.7201    1.8512    0.3450 H   0  0  0  0  0  0  0  0  0  0  0  0
   11.5397    0.2194    0.0639 H   0  0  0  0  0  0  0  0  0  0  0  0
   10.8927   -1.4578    0.4206 H   0  0  0  0  0  0  0  0  0  0  0  0
   12.3137   -0.8093    2.2912 H   0  0  0  0  0  0  0  0  0  0  0  0
   10.6154   -0.8316    2.7964 H   0  0  0  0  0  0  0  0  0  0  0  0
   11.5407    2.1061    0.7467 H   0  0  0  0  0  0  0  0  0  0  0  0
   10.7716    2.9108    2.1177 H   0  0  0  0  0  0  0  0  0  0  0  0
    8.8155    1.6264    2.1063 H   0  0  0  0  0  0  0  0  0  0  0  0
    9.1654    2.2943    0.4773 H   0  0  0  0  0  0  0  0  0  0  0  0
  1  2  1  0
  2  3  2  0
  2  4  1  0
  4  5  1  0
  5  6  1  0
  6  7  1  0
  7  8  1  0
  8  9  1  0
  7 10  1  0
 10 11  2  0
 10 12  1  0
 12 13  1  0
 13 14  2  0
 14 15  1  0
 15 16  2  0
 16 17  1  0
 17 18  2  0
 16 19  1  0
 19 20  1  0
 20 21  1  0
 21 22  1  0
 22 23  1  0
 23 24  1  0
 22 25  1  0
 25 26  2  0
 26 27  1  0
 27 28  2  0
 28 29  1  0
 29 30  2  0
 28 31  1  0
 31 32  2  0
 31 33  1  0
 33 34  1  0
 34 35  1  0
 35 36  1  0
 36 37  1  0
 37 38  1  0
  9  4  1  0
 18 13  1  0
 24 19  1  0
 30 25  1  0
 38 33  1  0
  1 39  1  0
  1 40  1  0
  1 41  1  0
  5 42  1  0
  5 43  1  0
  6 44  1  0
  6 45  1  0
  8 46  1  0
  8 47  1  0
  9 48  1  0
  9 49  1  0
 12 50  1  0
 14 51  1  0
 15 52  1  0
 17 53  1  0
 18 54  1  0
 20 55  1  0
 20 56  1  0
 21 57  1  0
 21 58  1  0
 23 59  1  0
 23 60  1  0
 24 61  1  0
 24 62  1  0
 26 63  1  0
 27 64  1  0
 29 65  1  0
 30 66  1  0
 34 67  1  0
 34 68  1  0
 35 69  1  0
 35 70  1  0
 37 71  1  0
 37 72  1  0
 38 73  1  0
 38 74  1  0
M  END
$$$$
[H]ON([H])C(=O)[C@]1([H])C([H])([H])C([H])([H])[C@@]([H])(N([H])C(=O)c2c([H])c([H])c(OC([H])([H])C(F)(F)F)c([H])c2[H])C([H])([H])C1([H])[H]
     RDKit          3D

 44 45  0  0  0  0  0  0  0  0999 V2000
    7.4936    0.3626   -0.3649 O   0  0  0  0  0  0  0  0  0  0  0  0
    6.3034    0.9241   -0.1247 N   0  0  0  0  0  0  0  0  0  0  0  0
    5.3522    0.3351    0.7445 C   0  0  0  0  0  0  0  0  0  0  0  0
    5.6549   -0.7523    1.2997 O   0  0  0  0  0  0  0  0  0  0  0  0
    4.0407    1.0029    0.9772 C   0  0  1  0  0  0  0  0  0  0  0  0
    3.2493    1.1709   -0.2967 C   0  0  0  0  0  0  0  0  0  0  0  0
    3.0051   -0.2042   -0.8698 C   0  0  0  0  0  0  0  0  0  0  0  0
    2.0911   -0.9865    0.0387 C   0  0  1  0  0  0  0  0  0  0  0  0
    2.6961   -1.0875    1.4030 C   0  0  0  0  0  0  0  0  0  0  0  0
    3.2349    0.1965    1.9424 C   0  0  0  0  0  0  0  0  0  0  0  0
    0.7365   -0.4777    0.0449 N   0  0  0  0  0  0  0  0  0  0  0  0
   -0.3796   -1.1878   -0.4113 C   0  0  0  0  0  0  0  0  0  0  0  0
   -0.2195   -2.3400   -0.8580 O   0  0  0  0  0  0  0  0  0  0  0  0
   -1.7109   -0.6166   -0.3763 C   0  0  0  0  0  0  0  0  0  0  0  0
   -1.9870    0.6420    0.0747 C   0  0  0  0  0  0  0  0  0  0  0  0
   -3.2614    1.1206    0.0824 C   0  0  0  0  0  0  0  0  0  0  0  0
   -4.2999    0.3314   -0.3701 C   0  0  0  0  0  0  0  0  0  0  0  0
   -5.5812    0.8294   -0.3559 O   0  0  0  0  0  0  0  0  0  0  0  0
   -6.6820    0.0760   -0.8032 C   0  0  0  0  0  0  0  0  0  0  0  0
   -7.9473    0.9006   -0.6596 C   0  0  0  0  0  0  0  0  0  0  0  0
   -7.8469    2.0449   -1.4084 F   0  0  0  0  0  0  0  0  0  0  0  0
   -8.1035    1.2254    0.6756 F   0  0  0  0  0  0  0  0  0  0  0  0
   -9.0201    0.1467   -1.1018 F   0  0  0  0  0  0  0  0  0  0  0  0
   -4.0440   -0.9239   -0.8226 C   0  0  0  0  0  0  0  0  0  0  0  0
   -2.7611   -1.4068   -0.8308 C   0  0  0  0  0  0  0  0  0  0  0  0
    8.2238    0.7515    0.1967 H   0  0  0  0  0  0  0  0  0  0  0  0
    6.0830    1.8264   -0.6012 H   0  0  0  0  0  0  0  0  0  0  0  0
    4.1921    2.0117    1.4452 H   0  0  0  0  0  0  0  0  0  0  0  0
    3.7806    1.8010   -1.0387 H   0  0  0  0  0  0  0  0  0  0  0  0
    2.2736    1.6017   -0.0164 H   0  0  0  0  0  0  0  0  0  0  0  0
    3.9746   -0.7343   -0.8906 H   0  0  0  0  0  0  0  0  0  0  0  0
    2.5990   -0.1695   -1.9021 H   0  0  0  0  0  0  0  0  0  0  0  0
    2.0341   -2.0235   -0.3935 H   0  0  0  0  0  0  0  0  0  0  0  0
    3.4772   -1.9017    1.3459 H   0  0  0  0  0  0  0  0  0  0  0  0
    1.9553   -1.4721    2.1388 H   0  0  0  0  0  0  0  0  0  0  0  0
    2.3960    0.7955    2.3507 H   0  0  0  0  0  0  0  0  0  0  0  0
    3.8659   -0.0660    2.8377 H   0  0  0  0  0  0  0  0  0  0  0  0
    0.6246    0.4834    0.4210 H   0  0  0  0  0  0  0  0  0  0  0  0
   -1.1944    1.2622    0.4267 H   0  0  0  0  0  0  0  0  0  0  0  0
   -3.4850    2.1394    0.4474 H   0  0  0  0  0  0  0  0  0  0  0  0
   -6.8015   -0.8129   -0.1476 H   0  0  0  0  0  0  0  0  0  0  0  0
   -6.5877   -0.2067   -1.8692 H   0  0  0  0  0  0  0  0  0  0  0  0
   -4.8659   -1.5617   -1.1859 H   0  0  0  0  0  0  0  0  0  0  0  0
   -2.5588   -2.4130   -1.1938 H   0  0  0  0  0  0  0  0  0  0  0  0
  1  2  1  0
  2  3  1  0
  3  4  2  0
  3  5  1  0
  5  6  1  0
  6  7  1  0
  7  8  1  0
  8  9  1  0
  9 10  1  0
  8 11  1  0
 11 12  1  0
 12 13  2  0
 12 14  1  0
 14 15  2  0
 15 16  1  0
 16 17  2  0
 17 18  1  0
 18 19  1  0
 19 20  1  0
 20 21  1  0
 20 22  1  0
 20 23  1  0
 17 24  1  0
 24 25  2  0
 10  5  1  0
 25 14  1  0
  1 26  1  0
  2 27  1  0
  5 28  1  1
  6 29  1  0
  6 30  1  0
  7 31  1  0
  7 32  1  0
  8 33  1  6
  9 34  1  0
  9 35  1  0
 10 36  1  0
 10 37  1  0
 11 38  1  0
 15 39  1  0
 16 40  1  0
 19 41  1  0
 19 42  1  0
 24 43  1  0
 25 44  1  0
M  END
$$$$
[H]c1c([H])c(C(F)(F)F)c([H])c([H])c1-c1c([H])c([H])c([C@]([H])(N([H])[C@]([H])(C(=O)N([H])C([H])([H])C#N)C([H])([H])C([H])(C([H])([H])[H])C([H])([H])[H])C(F)(F)F)c([H])c1[H]
     RDKit          3D

 56 57  0  0  0  0  0  0  0  0999 V2000
   -4.1961    2.9272    0.0623 C   0  0  0  0  0  0  0  0  0  0  0  0
   -3.5613    1.6060   -0.4901 C   0  0  0  0  0  0  0  0  0  0  0  0
   -4.6634    1.1155   -1.4429 C   0  0  0  0  0  0  0  0  0  0  0  0
   -3.4023    0.7628    0.6927 C   0  0  0  0  0  0  0  0  0  0  0  0
   -2.8234   -0.5920    0.6831 C   0  0  2  0  0  0  0  0  0  0  0  0
   -1.5135   -0.7864    0.2972 N   0  0  0  0  0  0  0  0  0  0  0  0
   -0.8028   -0.5850   -0.8424 C   0  0  1  0  0  0  0  0  0  0  0  0
    0.7023   -0.4805   -0.6325 C   0  0  0  0  0  0  0  0  0  0  0  0
    1.3773    0.4355   -1.4075 C   0  0  0  0  0  0  0  0  0  0  0  0
    2.7503    0.6461   -1.2276 C   0  0  0  0  0  0  0  0  0  0  0  0
    3.4384   -0.0629   -0.2701 C   0  0  0  0  0  0  0  0  0  0  0  0
    2.7385   -0.9678    0.4807 C   0  0  0  0  0  0  0  0  0  0  0  0
    1.3730   -1.1890    0.3118 C   0  0  0  0  0  0  0  0  0  0  0  0
    4.8509    0.1853   -0.0322 C   0  0  0  0  0  0  0  0  0  0  0  0
    5.7145    0.5599   -1.0092 C   0  0  0  0  0  0  0  0  0  0  0  0
    7.0439    0.8240   -0.6841 C   0  0  0  0  0  0  0  0  0  0  0  0
    7.5351    0.7228    0.5990 C   0  0  0  0  0  0  0  0  0  0  0  0
    6.6395    0.3365    1.5917 C   0  0  0  0  0  0  0  0  0  0  0  0
    5.3274    0.0728    1.2871 C   0  0  0  0  0  0  0  0  0  0  0  0
    8.9469    1.0158    0.9761 C   0  0  0  0  0  0  0  0  0  0  0  0
    9.1238    0.8656    2.3471 F   0  0  0  0  0  0  0  0  0  0  0  0
    9.2116    2.3529    0.6783 F   0  0  0  0  0  0  0  0  0  0  0  0
    9.7604    0.1622    0.2854 F   0  0  0  0  0  0  0  0  0  0  0  0
   -1.0472   -1.4410   -2.0280 C   0  0  0  0  0  0  0  0  0  0  0  0
   -0.1557   -1.0403   -3.0850 F   0  0  0  0  0  0  0  0  0  0  0  0
   -0.6789   -2.7589   -1.8307 F   0  0  0  0  0  0  0  0  0  0  0  0
   -2.2677   -1.3226   -2.6313 F   0  0  0  0  0  0  0  0  0  0  0  0
   -3.7743   -1.7225    0.4503 C   0  0  0  0  0  0  0  0  0  0  0  0
   -3.5681   -2.8065   -0.0816 O   0  0  0  0  0  0  0  0  0  0  0  0
   -5.1458   -1.5478    0.9072 N   0  0  0  0  0  0  0  0  0  0  0  0
   -6.1435   -2.5643    0.7257 C   0  0  0  0  0  0  0  0  0  0  0  0
   -7.4250   -2.0563    1.2961 C   0  0  0  0  0  0  0  0  0  0  0  0
   -8.4209   -1.6480    1.7182 N   0  0  0  0  0  0  0  0  0  0  0  0
   -4.2399    3.6799   -0.7160 H   0  0  0  0  0  0  0  0  0  0  0  0
   -3.6297    3.3055    0.9190 H   0  0  0  0  0  0  0  0  0  0  0  0
   -5.2114    2.7213    0.4100 H   0  0  0  0  0  0  0  0  0  0  0  0
   -2.6951    1.9787   -1.0201 H   0  0  0  0  0  0  0  0  0  0  0  0
   -4.6182    0.0439   -1.6028 H   0  0  0  0  0  0  0  0  0  0  0  0
   -4.5583    1.6965   -2.3839 H   0  0  0  0  0  0  0  0  0  0  0  0
   -5.6689    1.3259   -1.0094 H   0  0  0  0  0  0  0  0  0  0  0  0
   -2.6637    1.3693    1.3847 H   0  0  0  0  0  0  0  0  0  0  0  0
   -4.3292    0.8807    1.3275 H   0  0  0  0  0  0  0  0  0  0  0  0
   -2.7225   -0.7527    1.8806 H   0  0  0  0  0  0  0  0  0  0  0  0
   -1.0212   -1.5133    0.9628 H   0  0  0  0  0  0  0  0  0  0  0  0
   -1.0065    0.4832   -1.2671 H   0  0  0  0  0  0  0  0  0  0  0  0
    0.9250    1.0424   -2.1860 H   0  0  0  0  0  0  0  0  0  0  0  0
    3.2923    1.3715   -1.8374 H   0  0  0  0  0  0  0  0  0  0  0  0
    3.2495   -1.5385    1.2340 H   0  0  0  0  0  0  0  0  0  0  0  0
    0.8528   -1.9195    0.9179 H   0  0  0  0  0  0  0  0  0  0  0  0
    5.3663    0.6529   -2.0102 H   0  0  0  0  0  0  0  0  0  0  0  0
    7.7343    1.1202   -1.4517 H   0  0  0  0  0  0  0  0  0  0  0  0
    7.0386    0.2564    2.6183 H   0  0  0  0  0  0  0  0  0  0  0  0
    4.6514   -0.2260    2.0871 H   0  0  0  0  0  0  0  0  0  0  0  0
   -5.4273   -0.6686    1.4020 H   0  0  0  0  0  0  0  0  0  0  0  0
   -5.8938   -3.5238    1.2016 H   0  0  0  0  0  0  0  0  0  0  0  0
   -6.3684   -2.8051   -0.3487 H   0  0  0  0  0  0  0  0  0  0  0  0
  1  2  1  0
  2  3  1  0
  2  4  1  0
  4  5  1  0
  5  6  1  0
  6  7  1  0
  7  8  1  0
  8  9  2  0
  9 10  1  0
 10 11  2  0
 11 12  1  0
 12 13  2  0
 11 14  1  0
 14 15  2  0
 15 16  1  0
 16 17  2  0
 17 18  1  0
 18 19  2  0
 17 20  1  0
 20 21  1  0
 20 22  1  0
 20 23  1  0
  7 24  1  0
 24 25  1  0
 24 26  1  0
 24 27  1  0
  5 28  1  0
 28 29  2  0
 28 30  1  0
 30 31  1  0
 31 32  1  0
 32 33  3  0
 13  8  1  0
 19 14  1  0
  1 34  1  0
  1 35  1  0
  1 36  1  0
  2 37  1  0
  3 38  1  0
  3 39  1  0
  3 40  1  0
  4 41  1  0
  4 42  1  0
  5 43  1  1
  6 44  1  0
  7 45  1  6
  9 46  1  0
 10 47  1  0
 12 48  1  0
 13 49  1  0
 15 50  1  0
 16 51  1  0
 18 52  1  0
 19 53  1  0
 30 54  1  0
 31 55  1  0
 31 56  1  0
M  END
$$$$
[H]c1nc(N([H])C(=O)c2c([H])c([H])c(N3C([H])([H])C([H])([H])OC([H])([H])C3([H])[H])c([H])c2[H])nc(N([H])c2c([H])c([H])c([H])c([H])c2C(=O)N([H])C([H])([H])[H])c1Br
     RDKit          3D

 56 59  0  0  0  0  0  0  0  0999 V2000
   -9.4455   -0.3076    1.9894 C   0  0  0  0  0  0  0  0  0  0  0  0
   -8.4144   -0.9216    1.1314 N   0  0  0  0  0  0  0  0  0  0  0  0
   -7.1508   -0.2821    0.9053 C   0  0  0  0  0  0  0  0  0  0  0  0
   -7.0080    0.8364    1.4973 O   0  0  0  0  0  0  0  0  0  0  0  0
   -6.1634   -0.9088    0.0618 C   0  0  0  0  0  0  0  0  0  0  0  0
   -6.4270   -2.2097   -0.3701 C   0  0  0  0  0  0  0  0  0  0  0  0
   -5.4846   -2.9199   -1.1140 C   0  0  0  0  0  0  0  0  0  0  0  0
   -4.2923   -2.3293   -1.4201 C   0  0  0  0  0  0  0  0  0  0  0  0
   -4.0402   -1.0358   -0.9883 C   0  0  0  0  0  0  0  0  0  0  0  0
   -4.9470   -0.2943   -0.2486 C   0  0  0  0  0  0  0  0  0  0  0  0
   -4.6979    1.0553    0.0767 N   0  0  0  0  0  0  0  0  0  0  0  0
   -3.4509    1.7188    0.1641 C   0  0  0  0  0  0  0  0  0  0  0  0
   -2.2483    1.1169    0.0049 N   0  0  0  0  0  0  0  0  0  0  0  0
   -1.0782    1.7546    0.1197 C   0  0  0  0  0  0  0  0  0  0  0  0
    0.1694    1.1148   -0.0511 N   0  0  0  0  0  0  0  0  0  0  0  0
    1.3779    1.8146    0.0739 C   0  0  0  0  0  0  0  0  0  0  0  0
    1.3617    3.0646    0.3509 O   0  0  0  0  0  0  0  0  0  0  0  0
    2.6771    1.1845   -0.0986 C   0  0  0  0  0  0  0  0  0  0  0  0
    3.8200    1.9650   -0.1119 C   0  0  0  0  0  0  0  0  0  0  0  0
    5.0720    1.4268   -0.2721 C   0  0  0  0  0  0  0  0  0  0  0  0
    5.2549    0.0608   -0.4301 C   0  0  0  0  0  0  0  0  0  0  0  0
    4.1258   -0.7157   -0.4174 C   0  0  0  0  0  0  0  0  0  0  0  0
    2.8511   -0.1641   -0.2538 C   0  0  0  0  0  0  0  0  0  0  0  0
    6.5409   -0.5110   -0.6024 N   0  0  0  0  0  0  0  0  0  0  0  0
    6.7460   -1.9410   -0.6751 C   0  0  0  0  0  0  0  0  0  0  0  0
    8.1058   -2.2338   -0.0799 C   0  0  0  0  0  0  0  0  0  0  0  0
    9.1380   -1.5858   -0.6938 O   0  0  0  0  0  0  0  0  0  0  0  0
    8.7482   -0.5102   -1.4763 C   0  0  0  0  0  0  0  0  0  0  0  0
    7.7163    0.3242   -0.7191 C   0  0  0  0  0  0  0  0  0  0  0  0
   -1.0907    3.0746    0.4111 N   0  0  0  0  0  0  0  0  0  0  0  0
   -2.2629    3.7319    0.5817 C   0  0  0  0  0  0  0  0  0  0  0  0
   -3.4759    3.0919    0.4673 C   0  0  0  0  0  0  0  0  0  0  0  0
   -5.1258    4.0076    0.6988 Br  0  0  0  0  0  0  0  0  0  0  0  0
  -10.0362    0.3393    1.3191 H   0  0  0  0  0  0  0  0  0  0  0  0
   -8.9439    0.3294    2.7332 H   0  0  0  0  0  0  0  0  0  0  0  0
  -10.0327   -1.0871    2.4972 H   0  0  0  0  0  0  0  0  0  0  0  0
   -8.6831   -1.8153    0.7236 H   0  0  0  0  0  0  0  0  0  0  0  0
   -7.3519   -2.7212   -0.1528 H   0  0  0  0  0  0  0  0  0  0  0  0
   -5.7117   -3.9355   -1.4408 H   0  0  0  0  0  0  0  0  0  0  0  0
   -3.5386   -2.8741   -2.0038 H   0  0  0  0  0  0  0  0  0  0  0  0
   -3.0953   -0.6247   -1.2786 H   0  0  0  0  0  0  0  0  0  0  0  0
   -5.5363    1.6515    0.2300 H   0  0  0  0  0  0  0  0  0  0  0  0
    0.1628    0.1004   -0.2755 H   0  0  0  0  0  0  0  0  0  0  0  0
    3.7573    3.0454    0.0067 H   0  0  0  0  0  0  0  0  0  0  0  0
    5.9299    2.0757   -0.2735 H   0  0  0  0  0  0  0  0  0  0  0  0
    4.1630   -1.7867   -0.5335 H   0  0  0  0  0  0  0  0  0  0  0  0
    1.9701   -0.7948   -0.2442 H   0  0  0  0  0  0  0  0  0  0  0  0
    6.6013   -2.3608   -1.6762 H   0  0  0  0  0  0  0  0  0  0  0  0
    6.0130   -2.4076    0.0255 H   0  0  0  0  0  0  0  0  0  0  0  0
    8.2614   -3.3372   -0.2065 H   0  0  0  0  0  0  0  0  0  0  0  0
    8.0566   -2.0796    1.0260 H   0  0  0  0  0  0  0  0  0  0  0  0
    9.5799    0.0840   -1.8484 H   0  0  0  0  0  0  0  0  0  0  0  0
    8.2050   -0.9359   -2.3600 H   0  0  0  0  0  0  0  0  0  0  0  0
    8.0899    0.5882    0.2918 H   0  0  0  0  0  0  0  0  0  0  0  0
    7.5139    1.2722   -1.2546 H   0  0  0  0  0  0  0  0  0  0  0  0
   -2.2754    4.8021    0.8181 H   0  0  0  0  0  0  0  0  0  0  0  0
  1  2  1  0
  2  3  1  0
  3  4  2  0
  3  5  1  0
  5  6  2  0
  6  7  1  0
  7  8  2  0
  8  9  1  0
  9 10  2  0
 10 11  1  0
 11 12  1  0
 12 13  2  0
 13 14  1  0
 14 15  1  0
 15 16  1  0
 16 17  2  0
 16 18  1  0
 18 19  2  0
 19 20  1  0
 20 21  2  0
 21 22  1  0
 22 23  2  0
 21 24  1  0
 24 25  1  0
 25 26  1  0
 26 27  1  0
 27 28  1  0
 28 29  1  0
 14 30  2  0
 30 31  1  0
 31 32  2  0
 32 33  1  0
 10  5  1  0
 32 12  1  0
 23 18  1  0
 29 24  1  0
  1 34  1  0
  1 35  1  0
  1 36  1  0
  2 37  1  0
  6 38  1  0
  7 39  1  0
  8 40  1  0
  9 41  1  0
 11 42  1  0
 15 43  1  0
 19 44  1  0
 20 45  1  0
 22 46  1  0
 23 47  1  0
 25 48  1  0
 25 49  1  0
 26 50  1  0
 26 51  1  0
 28 52  1  0
 28 53  1  0
 29 54  1  0
 29 55  1  0
 31 56  1  0
M  END
$$$$
[H]c1nc([H])c2c(c1[H])c1c3c(c4c5c([H])c([H])c([H])c([H])c5n5c4c1n2[C@]1([H])O[C@@]5(C([H])([H])[H])[C@]([H])(OC([H])([H])[H])[C@]([H])(N([H])C([H])([H])[H])C1([H])[H])C([H])([H])N([H])C3=O
     RDKit          3D

 60 67  0  0  0  0  0  0  0  0999 V2000
   -3.1203   -2.0476    1.8754 C   0  0  0  0  0  0  0  0  0  0  0  0
   -2.6551   -0.7988    1.2969 N   0  0  0  0  0  0  0  0  0  0  0  0
   -2.7568   -0.8726   -0.1790 C   0  0  2  0  0  0  0  0  0  0  0  0
   -1.8934   -1.9233   -0.7191 C   0  0  0  0  0  0  0  0  0  0  0  0
   -0.8687   -1.5006   -1.7321 C   0  0  1  0  0  0  0  0  0  0  0  0
   -0.9085   -0.2844   -2.1974 O   0  0  0  0  0  0  0  0  0  0  0  0
   -1.3146    0.8168   -1.4415 C   0  0  1  0  0  0  0  0  0  0  0  0
   -1.5582    1.8498   -2.5607 C   0  0  0  0  0  0  0  0  0  0  0  0
   -2.5682    0.4898   -0.7941 C   0  0  2  0  0  0  0  0  0  0  0  0
   -3.0228    1.3518    0.1994 O   0  0  0  0  0  0  0  0  0  0  0  0
   -4.2633    1.9046   -0.0233 C   0  0  0  0  0  0  0  0  0  0  0  0
   -0.2109    1.2493   -0.5960 N   0  0  0  0  0  0  0  0  0  0  0  0
    0.0085    2.4661   -0.1002 C   0  0  0  0  0  0  0  0  0  0  0  0
   -0.6801    3.6445   -0.1619 C   0  0  0  0  0  0  0  0  0  0  0  0
   -0.2261    4.7868    0.4539 C   0  0  0  0  0  0  0  0  0  0  0  0
    0.9677    4.8002    1.1773 C   0  0  0  0  0  0  0  0  0  0  0  0
    1.6646    3.6241    1.2452 C   0  0  0  0  0  0  0  0  0  0  0  0
    1.1999    2.4922    0.6260 C   0  0  0  0  0  0  0  0  0  0  0  0
    1.7134    1.2258    0.5592 C   0  0  0  0  0  0  0  0  0  0  0  0
    2.8695    0.6458    1.0743 C   0  0  0  0  0  0  0  0  0  0  0  0
    3.9503    1.2377    1.8969 C   0  0  0  0  0  0  0  0  0  0  0  0
    4.8967    0.2021    2.1515 N   0  0  0  0  0  0  0  0  0  0  0  0
    4.4398   -0.9921    1.5172 C   0  0  0  0  0  0  0  0  0  0  0  0
    5.0821   -2.0380    1.5843 O   0  0  0  0  0  0  0  0  0  0  0  0
    3.1845   -0.6953    0.8571 C   0  0  0  0  0  0  0  0  0  0  0  0
    2.2793   -1.4185    0.0995 C   0  0  0  0  0  0  0  0  0  0  0  0
    2.2276   -2.7321   -0.3146 C   0  0  0  0  0  0  0  0  0  0  0  0
    3.0547   -3.8105   -0.1421 C   0  0  0  0  0  0  0  0  0  0  0  0
    2.6828   -5.0177   -0.7131 C   0  0  0  0  0  0  0  0  0  0  0  0
    1.5471   -5.1474   -1.4199 N   0  0  0  0  0  0  0  0  0  0  0  0
    0.7145   -4.0933   -1.6029 C   0  0  0  0  0  0  0  0  0  0  0  0
    1.0585   -2.8983   -1.0518 C   0  0  0  0  0  0  0  0  0  0  0  0
    0.4190   -1.7420   -1.0911 N   0  0  0  0  0  0  0  0  0  0  0  0
    1.1167   -0.8276   -0.4157 C   0  0  0  0  0  0  0  0  0  0  0  0
    0.8335    0.5151   -0.1820 C   0  0  0  0  0  0  0  0  0  0  0  0
   -3.7672   -2.5695    1.1103 H   0  0  0  0  0  0  0  0  0  0  0  0
   -2.3048   -2.7402    2.1332 H   0  0  0  0  0  0  0  0  0  0  0  0
   -3.7900   -1.8630    2.7490 H   0  0  0  0  0  0  0  0  0  0  0  0
   -1.6693   -0.6569    1.5557 H   0  0  0  0  0  0  0  0  0  0  0  0
   -3.8361   -1.2133   -0.3067 H   0  0  0  0  0  0  0  0  0  0  0  0
   -1.4355   -2.4805    0.1575 H   0  0  0  0  0  0  0  0  0  0  0  0
   -2.5064   -2.7451   -1.2032 H   0  0  0  0  0  0  0  0  0  0  0  0
   -0.9371   -2.2208   -2.6186 H   0  0  0  0  0  0  0  0  0  0  0  0
   -2.5223    2.3706   -2.4481 H   0  0  0  0  0  0  0  0  0  0  0  0
   -0.6798    2.5594   -2.6066 H   0  0  0  0  0  0  0  0  0  0  0  0
   -1.5981    1.4092   -3.5707 H   0  0  0  0  0  0  0  0  0  0  0  0
   -3.3775    0.5295   -1.5876 H   0  0  0  0  0  0  0  0  0  0  0  0
   -5.0653    1.1412   -0.1275 H   0  0  0  0  0  0  0  0  0  0  0  0
   -4.5046    2.5990    0.8404 H   0  0  0  0  0  0  0  0  0  0  0  0
   -4.2727    2.5236   -0.9315 H   0  0  0  0  0  0  0  0  0  0  0  0
   -1.5836    3.6747   -0.6928 H   0  0  0  0  0  0  0  0  0  0  0  0
   -0.7489    5.7328    0.4221 H   0  0  0  0  0  0  0  0  0  0  0  0
    1.3295    5.6913    1.6620 H   0  0  0  0  0  0  0  0  0  0  0  0
    2.6016    3.6146    1.8069 H   0  0  0  0  0  0  0  0  0  0  0  0
    4.4454    2.0590    1.3001 H   0  0  0  0  0  0  0  0  0  0  0  0
    3.5438    1.6453    2.8468 H   0  0  0  0  0  0  0  0  0  0  0  0
    5.7693    0.3406    2.7163 H   0  0  0  0  0  0  0  0  0  0  0  0
    3.9450   -3.7720    0.3930 H   0  0  0  0  0  0  0  0  0  0  0  0
    3.2971   -5.8998   -0.6081 H   0  0  0  0  0  0  0  0  0  0  0  0
   -0.1961   -4.1919   -2.1676 H   0  0  0  0  0  0  0  0  0  0  0  0
  1  2  1  0
  2  3  1  0
  3  4  1  0
  4  5  1  0
  5  6  1  0
  6  7  1  0
  7  8  1  6
  7  9  1  0
  9 10  1  0
 10 11  1  0
  7 12  1  0
 12 13  1  0
 13 14  2  0
 14 15  1  0
 15 16  2  0
 16 17  1  0
 17 18  2  0
 18 19  1  0
 19 20  2  0
 20 21  1  0
 21 22  1  0
 22 23  1  0
 23 24  2  0
 23 25  1  0
 25 26  2  0
 26 27  1  0
 27 28  2  0
 28 29  1  0
 29 30  2  0
 30 31  1  0
 31 32  2  0
 32 33  1  0
 33 34  1  0
 34 35  2  0
  9  3  1  0
 35 12  1  0
 33  5  1  0
 18 13  1  0
 35 19  1  0
 25 20  1  0
 34 26  1  0
 32 27  1  0
  1 36  1  0
  1 37  1  0
  1 38  1  0
  2 39  1  0
  3 40  1  1
  4 41  1  0
  4 42  1  0
  5 43  1  6
  8 44  1  0
  8 45  1  0
  8 46  1  0
  9 47  1  6
 11 48  1  0
 11 49  1  0
 11 50  1  0
 14 51  1  0
 15 52  1  0
 16 53  1  0
 17 54  1  0
 21 55  1  0
 21 56  1  0
 22 57  1  0
 28 58  1  0
 29 59  1  0
 31 60  1  0
M  END
$$$$
[H]OC(=C(O[H])N1C([H])([H])C([H])([H])C([H])(Oc2c([H])c(F)c([H])c([H])c2F)C([H])([H])C1([H])[H])c1sc(C(=O)N2C([H])([H])C([H])([H])OC([H])([H])C2([H])[H])c([H])c1[H]
     RDKit          3D

 56 59  0  0  0  0  0  0  0  0999 V2000
   -0.3259   -4.3597    0.4448 O   0  0  0  0  0  0  0  0  0  0  0  0
    0.1129   -3.1369   -0.1398 C   0  0  0  0  0  0  0  0  0  0  0  0
   -0.9878   -2.2999   -0.5793 C   0  0  0  0  0  0  0  0  0  0  0  0
   -2.0934   -1.9937    0.1967 C   0  0  0  0  0  0  0  0  0  0  0  0
   -3.0548   -1.2497   -0.3479 C   0  0  0  0  0  0  0  0  0  0  0  0
   -2.9159   -0.8228   -1.6315 C   0  0  0  0  0  0  0  0  0  0  0  0
   -1.3619   -1.5243   -2.0343 S   0  0  0  0  0  0  0  0  0  0  0  0
   -3.7229   -0.0123   -2.5225 C   0  0  0  0  0  0  0  0  0  0  0  0
   -3.2404    0.1835   -3.6964 O   0  0  0  0  0  0  0  0  0  0  0  0
   -4.9484    0.5779   -2.2622 N   0  0  0  0  0  0  0  0  0  0  0  0
   -5.6908    0.4896   -1.0327 C   0  0  0  0  0  0  0  0  0  0  0  0
   -6.9899    1.2741   -1.1994 C   0  0  0  0  0  0  0  0  0  0  0  0
   -6.6804    2.6093   -1.4791 O   0  0  0  0  0  0  0  0  0  0  0  0
   -5.9569    2.7198   -2.6558 C   0  0  0  0  0  0  0  0  0  0  0  0
   -5.6191    1.4047   -3.3015 C   0  0  0  0  0  0  0  0  0  0  0  0
    1.3604   -2.9255   -0.2092 C   0  0  0  0  0  0  0  0  0  0  0  0
    2.1665   -4.0018    0.3341 O   0  0  0  0  0  0  0  0  0  0  0  0
    2.0900   -1.8486   -0.7084 N   0  0  0  0  0  0  0  0  0  0  0  0
    3.5396   -2.0983   -0.9837 C   0  0  0  0  0  0  0  0  0  0  0  0
    4.2835   -1.3968    0.1589 C   0  0  0  0  0  0  0  0  0  0  0  0
    3.6206   -0.0690    0.4706 C   0  0  0  0  0  0  0  0  0  0  0  0
    2.9206    0.4453   -0.7729 C   0  0  0  0  0  0  0  0  0  0  0  0
    1.7022   -0.4975   -0.9875 C   0  0  0  0  0  0  0  0  0  0  0  0
    4.5665    0.8150    0.9613 O   0  0  0  0  0  0  0  0  0  0  0  0
    4.5694    1.5105    2.1358 C   0  0  0  0  0  0  0  0  0  0  0  0
    3.5880    1.4253    3.0996 C   0  0  0  0  0  0  0  0  0  0  0  0
    3.6645    2.1772    4.2770 C   0  0  0  0  0  0  0  0  0  0  0  0
    2.6965    2.0992    5.2242 F   0  0  0  0  0  0  0  0  0  0  0  0
    4.7187    3.0128    4.4939 C   0  0  0  0  0  0  0  0  0  0  0  0
    5.7163    3.1146    3.5402 C   0  0  0  0  0  0  0  0  0  0  0  0
    5.6260    2.3627    2.3781 C   0  0  0  0  0  0  0  0  0  0  0  0
    6.6175    2.4828    1.4558 F   0  0  0  0  0  0  0  0  0  0  0  0
    0.3002   -4.9469    0.9618 H   0  0  0  0  0  0  0  0  0  0  0  0
   -2.1348   -2.3806    1.2412 H   0  0  0  0  0  0  0  0  0  0  0  0
   -3.9696   -0.9780    0.2378 H   0  0  0  0  0  0  0  0  0  0  0  0
   -6.0091   -0.5471   -0.7848 H   0  0  0  0  0  0  0  0  0  0  0  0
   -5.1599    0.9462   -0.1711 H   0  0  0  0  0  0  0  0  0  0  0  0
   -7.5703    1.1878   -0.2698 H   0  0  0  0  0  0  0  0  0  0  0  0
   -7.5598    0.8816   -2.0491 H   0  0  0  0  0  0  0  0  0  0  0  0
   -6.5681    3.3282   -3.3648 H   0  0  0  0  0  0  0  0  0  0  0  0
   -5.0136    3.2974   -2.5245 H   0  0  0  0  0  0  0  0  0  0  0  0
   -4.8128    1.6275   -4.0421 H   0  0  0  0  0  0  0  0  0  0  0  0
   -6.4664    0.9094   -3.7548 H   0  0  0  0  0  0  0  0  0  0  0  0
    2.5660   -4.6721   -0.2820 H   0  0  0  0  0  0  0  0  0  0  0  0
    3.8431   -1.6355   -1.9206 H   0  0  0  0  0  0  0  0  0  0  0  0
    3.7860   -3.1631   -0.9000 H   0  0  0  0  0  0  0  0  0  0  0  0
    5.3355   -1.3117   -0.1644 H   0  0  0  0  0  0  0  0  0  0  0  0
    4.2813   -2.0495    1.0693 H   0  0  0  0  0  0  0  0  0  0  0  0
    2.7923   -0.2540    1.1999 H   0  0  0  0  0  0  0  0  0  0  0  0
    3.5226    0.3600   -1.6785 H   0  0  0  0  0  0  0  0  0  0  0  0
    2.5082    1.4364   -0.5897 H   0  0  0  0  0  0  0  0  0  0  0  0
    0.8822   -0.1999   -0.3481 H   0  0  0  0  0  0  0  0  0  0  0  0
    1.4459   -0.4493   -2.0715 H   0  0  0  0  0  0  0  0  0  0  0  0
    2.7567    0.7691    2.9403 H   0  0  0  0  0  0  0  0  0  0  0  0
    4.7429    3.5862    5.4302 H   0  0  0  0  0  0  0  0  0  0  0  0
    6.5303    3.7904    3.7554 H   0  0  0  0  0  0  0  0  0  0  0  0
  1  2  1  0
  2  3  1  0
  3  4  2  0
  4  5  1  0
  5  6  2  0
  6  7  1  0
  6  8  1  0
  8  9  2  0
  8 10  1  0
 10 11  1  0
 11 12  1  0
 12 13  1  0
 13 14  1  0
 14 15  1  0
  2 16  2  3
 16 17  1  0
 16 18  1  0
 18 19  1  0
 19 20  1  0
 20 21  1  0
 21 22  1  0
 22 23  1  0
 21 24  1  0
 24 25  1  0
 25 26  2  0
 26 27  1  0
 27 28  1  0
 27 29  2  0
 29 30  1  0
 30 31  2  0
 31 32  1  0
  7  3  1  0
 15 10  1  0
 23 18  1  0
 31 25  1  0
  1 33  1  0
  4 34  1  0
  5 35  1  0
 11 36  1  0
 11 37  1  0
 12 38  1  0
 12 39  1  0
 14 40  1  0
 14 41  1  0
 15 42  1  0
 15 43  1  0
 17 44  1  0
 19 45  1  0
 19 46  1  0
 20 47  1  0
 20 48  1  0
 21 49  1  0
 22 50  1  0
 22 51  1  0
 23 52  1  0
 23 53  1  0
 26 54  1  0
 29 55  1  0
 30 56  1  0
M  END
$$$$
[H]c1c([H])c(C(=O)N2C([H])([H])C3(C2([H])[H])C([H])([H])C([H])([H])N(C(=O)c2c([H])c([H])c(C(F)(F)F)c([H])c2[H])C([H])([H])C3([H])[H])c([H])c([H])c1C#N
     RDKit          3D

 51 54  0  0  0  0  0  0  0  0999 V2000
   -8.7214    1.6819   -0.8934 F   0  0  0  0  0  0  0  0  0  0  0  0
   -8.5177    0.9850    0.2980 C   0  0  0  0  0  0  0  0  0  0  0  0
   -9.4737    0.0136    0.3929 F   0  0  0  0  0  0  0  0  0  0  0  0
   -8.7529    1.9055    1.3031 F   0  0  0  0  0  0  0  0  0  0  0  0
   -7.1481    0.4166    0.3706 C   0  0  0  0  0  0  0  0  0  0  0  0
   -6.0948    1.2186    0.0172 C   0  0  0  0  0  0  0  0  0  0  0  0
   -4.7701    0.7200    0.0699 C   0  0  0  0  0  0  0  0  0  0  0  0
   -4.4700   -0.5478    0.4619 C   0  0  0  0  0  0  0  0  0  0  0  0
   -5.5757   -1.3447    0.8212 C   0  0  0  0  0  0  0  0  0  0  0  0
   -6.8650   -0.8636    0.7716 C   0  0  0  0  0  0  0  0  0  0  0  0
   -3.1749   -1.1458    0.4955 C   0  0  0  0  0  0  0  0  0  0  0  0
   -3.1318   -2.3949    0.9309 O   0  0  0  0  0  0  0  0  0  0  0  0
   -1.9083   -0.6873    0.1558 N   0  0  0  0  0  0  0  0  0  0  0  0
   -0.7754   -1.6245    0.2943 C   0  0  0  0  0  0  0  0  0  0  0  0
    0.3042   -0.9204    1.0541 C   0  0  0  0  0  0  0  0  0  0  0  0
    0.8355    0.2165    0.2492 C   0  0  0  0  0  0  0  0  0  0  0  0
    2.1647   -0.0333   -0.4159 C   0  0  0  0  0  0  0  0  0  0  0  0
    2.8632    0.6343    0.6148 N   0  0  0  0  0  0  0  0  0  0  0  0
    1.5845    1.2570    1.0194 C   0  0  0  0  0  0  0  0  0  0  0  0
    4.2044    0.8064    1.0961 C   0  0  0  0  0  0  0  0  0  0  0  0
    4.3278    1.4616    2.1611 O   0  0  0  0  0  0  0  0  0  0  0  0
    5.3815    0.2694    0.4069 C   0  0  0  0  0  0  0  0  0  0  0  0
    6.5991    0.3768    1.0980 C   0  0  0  0  0  0  0  0  0  0  0  0
    7.7746   -0.0189    0.4825 C   0  0  0  0  0  0  0  0  0  0  0  0
    7.8266   -0.5194   -0.7925 C   0  0  0  0  0  0  0  0  0  0  0  0
    6.6217   -0.6195   -1.4560 C   0  0  0  0  0  0  0  0  0  0  0  0
    5.4113   -0.2301   -0.8639 C   0  0  0  0  0  0  0  0  0  0  0  0
    9.0714   -0.8934   -1.3949 C   0  0  0  0  0  0  0  0  0  0  0  0
   10.0995   -1.1830   -1.8705 N   0  0  0  0  0  0  0  0  0  0  0  0
   -0.1384    0.7179   -0.7700 C   0  0  0  0  0  0  0  0  0  0  0  0
   -1.5977    0.6170   -0.3203 C   0  0  0  0  0  0  0  0  0  0  0  0
   -6.2688    2.2553   -0.3114 H   0  0  0  0  0  0  0  0  0  0  0  0
   -4.0172    1.4086   -0.2084 H   0  0  0  0  0  0  0  0  0  0  0  0
   -5.3856   -2.3670    1.1504 H   0  0  0  0  0  0  0  0  0  0  0  0
   -7.7038   -1.5011    1.0641 H   0  0  0  0  0  0  0  0  0  0  0  0
   -1.0985   -2.5625    0.7687 H   0  0  0  0  0  0  0  0  0  0  0  0
   -0.4010   -1.8983   -0.7178 H   0  0  0  0  0  0  0  0  0  0  0  0
    1.1557   -1.6005    1.3097 H   0  0  0  0  0  0  0  0  0  0  0  0
   -0.1491   -0.5112    1.9939 H   0  0  0  0  0  0  0  0  0  0  0  0
    2.3164   -1.1404   -0.5112 H   0  0  0  0  0  0  0  0  0  0  0  0
    2.2347    0.4028   -1.4569 H   0  0  0  0  0  0  0  0  0  0  0  0
    1.3831    1.1967    2.1035 H   0  0  0  0  0  0  0  0  0  0  0  0
    1.5020    2.2976    0.6254 H   0  0  0  0  0  0  0  0  0  0  0  0
    6.5724    0.7620    2.1153 H   0  0  0  0  0  0  0  0  0  0  0  0
    8.7145    0.0736    1.0213 H   0  0  0  0  0  0  0  0  0  0  0  0
    6.6145   -1.0079   -2.4727 H   0  0  0  0  0  0  0  0  0  0  0  0
    4.5126   -0.3286   -1.4294 H   0  0  0  0  0  0  0  0  0  0  0  0
   -0.0145    0.1933   -1.7283 H   0  0  0  0  0  0  0  0  0  0  0  0
    0.0556    1.7923   -0.9453 H   0  0  0  0  0  0  0  0  0  0  0  0
   -2.1584    0.8344   -1.2690 H   0  0  0  0  0  0  0  0  0  0  0  0
   -1.8186    1.4296    0.3951 H   0  0  0  0  0  0  0  0  0  0  0  0
  1  2  1  0
  2  3  1  0
  2  4  1  0
  2  5  1  0
  5  6  2  0
  6  7  1  0
  7  8  2  0
  8  9  1  0
  9 10  2  0
  8 11  1  0
 11 12  2  0
 11 13  1  0
 13 14  1  0
 14 15  1  0
 15 16  1  0
 16 17  1  0
 17 18  1  0
 18 19  1  0
 18 20  1  0
 20 21  2  0
 20 22  1  0
 22 23  2  0
 23 24  1  0
 24 25  2  0
 25 26  1  0
 26 27  2  0
 25 28  1  0
 28 29  3  0
 16 30  1  0
 30 31  1  0
 10  5  1  0
 31 13  1  0
 19 16  1  0
 27 22  1  0
  6 32  1  0
  7 33  1  0
  9 34  1  0
 10 35  1  0
 14 36  1  0
 14 37  1  0
 15 38  1  0
 15 39  1  0
 17 40  1  0
 17 41  1  0
 19 42  1  0
 19 43  1  0
 23 44  1  0
 24 45  1  0
 26 46  1  0
 27 47  1  0
 30 48  1  0
 30 49  1  0
 31 50  1  0
 31 51  1  0
M  END
$$$$
[H]c1c([H])c([H])c(C([H])([H])[C@@]([H])(C(=O)N([H])[H])N([H])C(=O)[C@]([H])(N([H])C(=O)[C@@]([H])(N([H])C(=O)[C@@]([H])(N([H])C(=O)C([H])([H])[H])C([H])([H])c2c([H])c([H])c([H])c([H])c2[H])C([H])([H])c2c([H])c([H])c([H])c([H])c2[H])C([H])([H])c2c([H])c([H])c([H])c([H])c2[H])c([H])c1[H]
     RDKit          3D

 89 92  0  0  0  0  0  0  0  0999 V2000
   -6.7880   -0.1163    3.3964 C   0  0  0  0  0  0  0  0  0  0  0  0
   -6.6607    1.2600    2.7407 C   0  0  0  0  0  0  0  0  0  0  0  0
   -7.2860    2.1659    3.3069 O   0  0  0  0  0  0  0  0  0  0  0  0
   -5.8771    1.3118    1.6205 N   0  0  0  0  0  0  0  0  0  0  0  0
   -5.0865    1.3662    0.4896 C   0  0  1  0  0  0  0  0  0  0  0  0
   -5.0021    2.7375   -0.1922 C   0  0  0  0  0  0  0  0  0  0  0  0
   -6.3398    3.1726   -0.6524 C   0  0  0  0  0  0  0  0  0  0  0  0
   -6.8331    2.6244   -1.8423 C   0  0  0  0  0  0  0  0  0  0  0  0
   -8.0379    2.9682   -2.3986 C   0  0  0  0  0  0  0  0  0  0  0  0
   -8.7900    3.9001   -1.7456 C   0  0  0  0  0  0  0  0  0  0  0  0
   -8.3646    4.4694   -0.5892 C   0  0  0  0  0  0  0  0  0  0  0  0
   -7.1308    4.0970   -0.0449 C   0  0  0  0  0  0  0  0  0  0  0  0
   -3.7284    0.8503    0.7711 C   0  0  0  0  0  0  0  0  0  0  0  0
   -3.2374    1.1665    1.9166 O   0  0  0  0  0  0  0  0  0  0  0  0
   -2.9121    0.0552   -0.0541 N   0  0  0  0  0  0  0  0  0  0  0  0
   -1.5991   -0.3620    0.4064 C   0  0  1  0  0  0  0  0  0  0  0  0
   -1.6853   -1.5710    1.2775 C   0  0  0  0  0  0  0  0  0  0  0  0
   -2.2973   -2.7492    0.6378 C   0  0  0  0  0  0  0  0  0  0  0  0
   -3.6660   -2.9570    0.6345 C   0  0  0  0  0  0  0  0  0  0  0  0
   -4.2206   -4.0721    0.0843 C   0  0  0  0  0  0  0  0  0  0  0  0
   -3.4025   -5.0210   -0.4822 C   0  0  0  0  0  0  0  0  0  0  0  0
   -2.0380   -4.8472   -0.4954 C   0  0  0  0  0  0  0  0  0  0  0  0
   -1.5066   -3.7307    0.0550 C   0  0  0  0  0  0  0  0  0  0  0  0
   -0.5561   -0.3766   -0.6065 C   0  0  0  0  0  0  0  0  0  0  0  0
   -0.8207    0.0047   -1.8184 O   0  0  0  0  0  0  0  0  0  0  0  0
    0.7809   -0.7861   -0.3435 N   0  0  0  0  0  0  0  0  0  0  0  0
    1.8538   -0.7692   -1.2588 C   0  0  2  0  0  0  0  0  0  0  0  0
    2.4714   -1.9568   -1.8233 C   0  0  0  0  0  0  0  0  0  0  0  0
    3.1093   -2.9917   -1.0646 C   0  0  0  0  0  0  0  0  0  0  0  0
    2.3946   -4.1546   -0.7361 C   0  0  0  0  0  0  0  0  0  0  0  0
    2.9405   -5.2007   -0.0193 C   0  0  0  0  0  0  0  0  0  0  0  0
    4.2391   -5.1377    0.4084 C   0  0  0  0  0  0  0  0  0  0  0  0
    4.9761   -4.0303    0.1119 C   0  0  0  0  0  0  0  0  0  0  0  0
    4.4021   -2.9881   -0.6113 C   0  0  0  0  0  0  0  0  0  0  0  0
    2.8398    0.3266   -0.9014 C   0  0  0  0  0  0  0  0  0  0  0  0
    2.4527    1.1768   -0.0526 O   0  0  0  0  0  0  0  0  0  0  0  0
    4.1211    0.4508   -1.4341 N   0  0  0  0  0  0  0  0  0  0  0  0
    5.0715    1.5297   -1.0624 C   0  0  1  0  0  0  0  0  0  0  0  0
    5.8894    0.9030    0.0743 C   0  0  0  0  0  0  0  0  0  0  0  0
    6.9327    1.6964    0.6559 C   0  0  0  0  0  0  0  0  0  0  0  0
    8.2385    1.5137    0.1681 C   0  0  0  0  0  0  0  0  0  0  0  0
    9.2871    2.2426    0.7198 C   0  0  0  0  0  0  0  0  0  0  0  0
    9.0933    3.1346    1.7245 C   0  0  0  0  0  0  0  0  0  0  0  0
    7.7969    3.3228    2.2159 C   0  0  0  0  0  0  0  0  0  0  0  0
    6.7625    2.6137    1.6817 C   0  0  0  0  0  0  0  0  0  0  0  0
    5.9941    1.7997   -2.1741 C   0  0  0  0  0  0  0  0  0  0  0  0
    6.8083    2.9408   -2.3147 N   0  0  0  0  0  0  0  0  0  0  0  0
    6.1065    0.9491   -3.1480 O   0  0  0  0  0  0  0  0  0  0  0  0
   -5.8008   -0.5022    3.6771 H   0  0  0  0  0  0  0  0  0  0  0  0
   -7.2704   -0.8092    2.6675 H   0  0  0  0  0  0  0  0  0  0  0  0
   -7.4258   -0.0627    4.2875 H   0  0  0  0  0  0  0  0  0  0  0  0
   -5.9031    2.6657    1.6632 H   0  0  0  0  0  0  0  0  0  0  0  0
   -5.5802    0.7678   -0.3811 H   0  0  0  0  0  0  0  0  0  0  0  0
   -4.6600    3.4316    0.6248 H   0  0  0  0  0  0  0  0  0  0  0  0
   -4.2689    2.7299   -1.0259 H   0  0  0  0  0  0  0  0  0  0  0  0
   -6.2364    1.8842   -2.3557 H   0  0  0  0  0  0  0  0  0  0  0  0
   -8.3985    2.5337   -3.3213 H   0  0  0  0  0  0  0  0  0  0  0  0
   -9.7600    4.2075   -2.1525 H   0  0  0  0  0  0  0  0  0  0  0  0
   -8.9667    5.2102   -0.0745 H   0  0  0  0  0  0  0  0  0  0  0  0
   -6.8214    4.5854    0.8696 H   0  0  0  0  0  0  0  0  0  0  0  0
   -3.2457   -0.2283   -0.9848 H   0  0  0  0  0  0  0  0  0  0  0  0
   -1.3203    0.5106    1.1482 H   0  0  0  0  0  0  0  0  0  0  0  0
   -2.2635   -1.3277    2.2319 H   0  0  0  0  0  0  0  0  0  0  0  0
   -0.6373   -1.8516    1.5813 H   0  0  0  0  0  0  0  0  0  0  0  0
   -4.3414   -2.2193    1.0793 H   0  0  0  0  0  0  0  0  0  0  0  0
   -5.2841   -4.2028    0.0938 H   0  0  0  0  0  0  0  0  0  0  0  0
   -3.8250   -5.8994   -0.9197 H   0  0  0  0  0  0  0  0  0  0  0  0
   -1.4038   -5.6389   -0.9658 H   0  0  0  0  0  0  0  0  0  0  0  0
   -0.4606   -3.5511    0.0749 H   0  0  0  0  0  0  0  0  0  0  0  0
    0.9906   -1.1324    0.6403 H   0  0  0  0  0  0  0  0  0  0  0  0
    1.3498   -0.2585   -2.2061 H   0  0  0  0  0  0  0  0  0  0  0  0
    3.1968   -1.5840   -2.6485 H   0  0  0  0  0  0  0  0  0  0  0  0
    1.7008   -2.4939   -2.5187 H   0  0  0  0  0  0  0  0  0  0  0  0
    1.3664   -4.2666   -1.0682 H   0  0  0  0  0  0  0  0  0  0  0  0
    2.3586   -6.0864    0.2216 H   0  0  0  0  0  0  0  0  0  0  0  0
    4.6478   -5.9707    0.9697 H   0  0  0  0  0  0  0  0  0  0  0  0
    5.9977   -3.9934    0.4478 H   0  0  0  0  0  0  0  0  0  0  0  0
    5.0374   -2.1604   -0.8093 H   0  0  0  0  0  0  0  0  0  0  0  0
    4.5189   -0.2042   -2.1391 H   0  0  0  0  0  0  0  0  0  0  0  0
    4.4728    2.3547   -0.7030 H   0  0  0  0  0  0  0  0  0  0  0  0
    5.1631    0.6215    0.8898 H   0  0  0  0  0  0  0  0  0  0  0  0
    6.2699   -0.0743   -0.3570 H   0  0  0  0  0  0  0  0  0  0  0  0
    8.4335    0.8206   -0.6172 H   0  0  0  0  0  0  0  0  0  0  0  0
   10.2869    2.0614    0.3074 H   0  0  0  0  0  0  0  0  0  0  0  0
    9.8980    3.7134    2.1693 H   0  0  0  0  0  0  0  0  0  0  0  0
    7.5740    4.0343    3.0276 H   0  0  0  0  0  0  0  0  0  0  0  0
    5.7481    2.7319    2.0248 H   0  0  0  0  0  0  0  0  0  0  0  0
    7.7913    2.8604   -2.5889 H   0  0  0  0  0  0  0  0  0  0  0  0
    6.3759    3.8615   -2.1435 H   0  0  0  0  0  0  0  0  0  0  0  0
  1  2  1  0
  2  3  2  0
  2  4  1  0
  4  5  1  0
  5  6  1  0
  6  7  1  0
  7  8  2  0
  8  9  1  0
  9 10  2  0
 10 11  1  0
 11 12  2  0
  5 13  1  0
 13 14  2  0
 13 15  1  0
 15 16  1  0
 16 17  1  0
 17 18  1  0
 18 19  2  0
 19 20  1  0
 20 21  2  0
 21 22  1  0
 22 23  2  0
 16 24  1  0
 24 25  2  0
 24 26  1  0
 26 27  1  0
 27 28  1  0
 28 29  1  0
 29 30  2  0
 30 31  1  0
 31 32  2  0
 32 33  1  0
 33 34  2  0
 27 35  1  0
 35 36  2  0
 35 37  1  0
 37 38  1  0
 38 39  1  0
 39 40  1  0
 40 41  2  0
 41 42  1  0
 42 43  2  0
 43 44  1  0
 44 45  2  0
 38 46  1  0
 46 47  1  0
 46 48  2  0
 12  7  1  0
 23 18  1  0
 34 29  1  0
 45 40  1  0
  1 49  1  0
  1 50  1  0
  1 51  1  0
  4 52  1  0
  5 53  1  6
  6 54  1  0
  6 55  1  0
  8 56  1  0
  9 57  1  0
 10 58  1  0
 11 59  1  0
 12 60  1  0
 15 61  1  0
 16 62  1  1
 17 63  1  0
 17 64  1  0
 19 65  1  0
 20 66  1  0
 21 67  1  0
 22 68  1  0
 23 69  1  0
 26 70  1  0
 27 71  1  6
 28 72  1  0
 28 73  1  0
 30 74  1  0
 31 75  1  0
 32 76  1  0
 33 77  1  0
 34 78  1  0
 37 79  1  0
 38 80  1  1
 39 81  1  0
 39 82  1  0
 41 83  1  0
 42 84  1  0
 43 85  1  0
 44 86  1  0
 45 87  1  0
 47 88  1  0
 47 89  1  0
M  END
$$$$
[H]c1c([H])c(N2C([H])([H])C(=O)N(c3c([H])c([H])c([N+](=O)[O-])c([H])c3[H])C([H])([H])C2([H])[H])c([H])c([H])c1N1C([H])([H])C([H])([H])OC([H])([H])C1([H])[H]
     RDKit          3D

 50 53  0  0  0  0  0  0  0  0999 V2000
    9.3702    1.3744   -0.9440 O   0  0  0  0  0  0  0  0  0  0  0  0
    8.8025    0.2098   -0.4975 N   0  0  0  0  0  0  0  0  0  0  0  0
    9.5150   -0.7734   -0.3235 O   0  0  0  0  0  0  0  0  0  0  0  0
    7.3960    0.1716   -0.2485 C   0  0  0  0  0  0  0  0  0  0  0  0
    6.6431    1.2892   -0.4642 C   0  0  0  0  0  0  0  0  0  0  0  0
    5.2624    1.2612   -0.2282 C   0  0  0  0  0  0  0  0  0  0  0  0
    4.6075    0.1334    0.2212 C   0  0  0  0  0  0  0  0  0  0  0  0
    5.3687   -0.9716    0.4327 C   0  0  0  0  0  0  0  0  0  0  0  0
    6.7512   -0.9590    0.2015 C   0  0  0  0  0  0  0  0  0  0  0  0
    3.2101    0.1914    0.4229 N   0  0  0  0  0  0  0  0  0  0  0  0
    2.5066    1.4814    0.3836 C   0  0  0  0  0  0  0  0  0  0  0  0
    1.0335    1.3737    0.2389 C   0  0  0  0  0  0  0  0  0  0  0  0
    0.4238    0.1905    0.7618 N   0  0  0  0  0  0  0  0  0  0  0  0
    1.2025   -0.8041    1.5035 C   0  0  0  0  0  0  0  0  0  0  0  0
    2.4537   -0.9850    0.6559 C   0  0  0  0  0  0  0  0  0  0  0  0
    2.7583   -2.1138    0.2105 O   0  0  0  0  0  0  0  0  0  0  0  0
   -0.9364   -0.0427    0.5284 C   0  0  0  0  0  0  0  0  0  0  0  0
   -1.8633   -0.3823    1.4595 C   0  0  0  0  0  0  0  0  0  0  0  0
   -3.2043   -0.6214    1.1704 C   0  0  0  0  0  0  0  0  0  0  0  0
   -3.6475   -0.5139   -0.1441 C   0  0  0  0  0  0  0  0  0  0  0  0
   -2.6933   -0.1644   -1.1081 C   0  0  0  0  0  0  0  0  0  0  0  0
   -1.3784    0.0655   -0.7886 C   0  0  0  0  0  0  0  0  0  0  0  0
   -4.9846   -0.7261   -0.5069 N   0  0  0  0  0  0  0  0  0  0  0  0
   -5.3953   -0.9884   -1.8618 C   0  0  0  0  0  0  0  0  0  0  0  0
   -6.3374    0.1420   -2.2316 C   0  0  0  0  0  0  0  0  0  0  0  0
   -7.4347    0.0593   -1.3953 O   0  0  0  0  0  0  0  0  0  0  0  0
   -7.1619    0.2623   -0.0551 C   0  0  0  0  0  0  0  0  0  0  0  0
   -6.0591   -0.6722    0.4478 C   0  0  0  0  0  0  0  0  0  0  0  0
    7.1414    2.1865   -0.8197 H   0  0  0  0  0  0  0  0  0  0  0  0
    4.7811    2.2048   -0.4283 H   0  0  0  0  0  0  0  0  0  0  0  0
    4.9943   -1.9158    0.7930 H   0  0  0  0  0  0  0  0  0  0  0  0
    7.3499   -1.8396    0.3708 H   0  0  0  0  0  0  0  0  0  0  0  0
    2.8726    1.9456   -0.5837 H   0  0  0  0  0  0  0  0  0  0  0  0
    2.8411    2.1463    1.1768 H   0  0  0  0  0  0  0  0  0  0  0  0
    0.7427    1.4635   -0.8361 H   0  0  0  0  0  0  0  0  0  0  0  0
    0.5836    2.2888    0.7111 H   0  0  0  0  0  0  0  0  0  0  0  0
    1.4634   -0.3384    2.4699 H   0  0  0  0  0  0  0  0  0  0  0  0
    0.6868   -1.7510    1.6299 H   0  0  0  0  0  0  0  0  0  0  0  0
   -1.5640   -0.4753    2.4824 H   0  0  0  0  0  0  0  0  0  0  0  0
   -3.9091   -0.8925    1.9531 H   0  0  0  0  0  0  0  0  0  0  0  0
   -3.0163   -0.0701   -2.1509 H   0  0  0  0  0  0  0  0  0  0  0  0
   -0.7083    0.3254   -1.5972 H   0  0  0  0  0  0  0  0  0  0  0  0
   -4.6179   -1.2044   -2.5777 H   0  0  0  0  0  0  0  0  0  0  0  0
   -6.0580   -1.8998   -1.8267 H   0  0  0  0  0  0  0  0  0  0  0  0
   -5.7668    1.0801   -2.0745 H   0  0  0  0  0  0  0  0  0  0  0  0
   -6.7112    0.0398   -3.2709 H   0  0  0  0  0  0  0  0  0  0  0  0
   -8.0780   -0.0168    0.5045 H   0  0  0  0  0  0  0  0  0  0  0  0
   -6.9156    1.3214    0.1631 H   0  0  0  0  0  0  0  0  0  0  0  0
   -5.8059   -0.3899    1.4574 H   0  0  0  0  0  0  0  0  0  0  0  0
   -6.5146   -1.6959    0.4768 H   0  0  0  0  0  0  0  0  0  0  0  0
  1  2  1  0
  2  3  2  0
  2  4  1  0
  4  5  2  0
  5  6  1  0
  6  7  2  0
  7  8  1  0
  8  9  2  0
  7 10  1  0
 10 11  1  0
 11 12  1  0
 12 13  1  0
 13 14  1  0
 14 15  1  0
 15 16  2  0
 13 17  1  0
 17 18  2  0
 18 19  1  0
 19 20  2  0
 20 21  1  0
 21 22  2  0
 20 23  1  0
 23 24  1  0
 24 25  1  0
 25 26  1  0
 26 27  1  0
 27 28  1  0
  9  4  1  0
 15 10  1  0
 22 17  1  0
 28 23  1  0
  5 29  1  0
  6 30  1  0
  8 31  1  0
  9 32  1  0
 11 33  1  0
 11 34  1  0
 12 35  1  0
 12 36  1  0
 14 37  1  0
 14 38  1  0
 18 39  1  0
 19 40  1  0
 21 41  1  0
 22 42  1  0
 24 43  1  0
 24 44  1  0
 25 45  1  0
 25 46  1  0
 27 47  1  0
 27 48  1  0
 28 49  1  0
 28 50  1  0
M  CHG  2   1  -1   2   1
M  END
$$$$
[H]c1c([H])c(S(=O)(=O)C(C([H])([H])[H])(C([H])([H])[H])C([H])([H])[H])c([H])c([H])c1C([H])([H])Oc1c([H])c([H])c2c(=O)n(C([H])([H])C([H])(F)F)c(=O)n(C([H])([H])[H])c2c1[H]
     RDKit          3D

 56 58  0  0  0  0  0  0  0  0999 V2000
   -7.0097   -1.1192   -0.6495 C   0  0  0  0  0  0  0  0  0  0  0  0
   -7.0777    0.0385    0.3223 C   0  0  0  0  0  0  0  0  0  0  0  0
   -7.0666    1.3755   -0.3614 C   0  0  0  0  0  0  0  0  0  0  0  0
   -8.3878   -0.0868    1.0689 C   0  0  0  0  0  0  0  0  0  0  0  0
   -5.7321   -0.1220    1.4727 S   0  0  0  0  0  0  0  0  0  0  0  0
   -5.7985    1.0436    2.4172 O   0  0  0  0  0  0  0  0  0  0  0  0
   -5.8958   -1.3857    2.2607 O   0  0  0  0  0  0  0  0  0  0  0  0
   -4.1898   -0.0940    0.6445 C   0  0  0  0  0  0  0  0  0  0  0  0
   -3.6299   -1.2765    0.2035 C   0  0  0  0  0  0  0  0  0  0  0  0
   -2.4160   -1.2182   -0.4441 C   0  0  0  0  0  0  0  0  0  0  0  0
   -1.7868   -0.0088   -0.6409 C   0  0  0  0  0  0  0  0  0  0  0  0
   -0.4777    0.0367   -1.3412 C   0  0  0  0  0  0  0  0  0  0  0  0
    0.5473   -0.0881   -0.3870 O   0  0  0  0  0  0  0  0  0  0  0  0
    1.8947   -0.0831   -0.7150 C   0  0  0  0  0  0  0  0  0  0  0  0
    2.8143   -0.2127    0.3055 C   0  0  0  0  0  0  0  0  0  0  0  0
    4.1767   -0.2187    0.0775 C   0  0  0  0  0  0  0  0  0  0  0  0
    5.0920   -0.3430    1.0499 N   0  0  0  0  0  0  0  0  0  0  0  0
    4.6250   -0.4781    2.4100 C   0  0  0  0  0  0  0  0  0  0  0  0
    6.4273   -0.3468    0.8077 C   0  0  0  0  0  0  0  0  0  0  0  0
    7.2516   -0.4665    1.7553 O   0  0  0  0  0  0  0  0  0  0  0  0
    6.9032   -0.2235   -0.4447 N   0  0  0  0  0  0  0  0  0  0  0  0
    8.3090   -0.2267   -0.7056 C   0  0  0  0  0  0  0  0  0  0  0  0
    8.9150    1.1613   -0.6638 C   0  0  0  0  0  0  0  0  0  0  0  0
   10.2663    1.0736   -0.9241 F   0  0  0  0  0  0  0  0  0  0  0  0
    8.3347    1.9968   -1.5791 F   0  0  0  0  0  0  0  0  0  0  0  0
    6.0057   -0.0970   -1.4401 C   0  0  0  0  0  0  0  0  0  0  0  0
    6.3683    0.0242   -2.6497 O   0  0  0  0  0  0  0  0  0  0  0  0
    4.6464   -0.0910   -1.2137 C   0  0  0  0  0  0  0  0  0  0  0  0
    3.7232    0.0381   -2.2288 C   0  0  0  0  0  0  0  0  0  0  0  0
    2.3615    0.0433   -1.9940 C   0  0  0  0  0  0  0  0  0  0  0  0
   -2.3641    1.1607   -0.1920 C   0  0  0  0  0  0  0  0  0  0  0  0
   -3.5792    1.1348    0.4600 C   0  0  0  0  0  0  0  0  0  0  0  0
   -6.4638   -0.8507   -1.5754 H   0  0  0  0  0  0  0  0  0  0  0  0
   -6.5505   -2.0208   -0.1997 H   0  0  0  0  0  0  0  0  0  0  0  0
   -8.0412   -1.4260   -0.9748 H   0  0  0  0  0  0  0  0  0  0  0  0
   -6.6962    1.3218   -1.4052 H   0  0  0  0  0  0  0  0  0  0  0  0
   -6.3952    2.1140    0.1510 H   0  0  0  0  0  0  0  0  0  0  0  0
   -8.0762    1.8423   -0.4133 H   0  0  0  0  0  0  0  0  0  0  0  0
   -9.1867   -0.4839    0.4000 H   0  0  0  0  0  0  0  0  0  0  0  0
   -8.6931    0.9154    1.4894 H   0  0  0  0  0  0  0  0  0  0  0  0
   -8.3000   -0.7491    1.9535 H   0  0  0  0  0  0  0  0  0  0  0  0
   -4.1360   -2.2405    0.3629 H   0  0  0  0  0  0  0  0  0  0  0  0
   -1.9351   -2.1339   -0.8111 H   0  0  0  0  0  0  0  0  0  0  0  0
   -0.4244    0.9908   -1.8985 H   0  0  0  0  0  0  0  0  0  0  0  0
   -0.3687   -0.7981   -2.0693 H   0  0  0  0  0  0  0  0  0  0  0  0
    2.4961   -0.3156    1.3340 H   0  0  0  0  0  0  0  0  0  0  0  0
    5.4496   -0.4556    3.1464 H   0  0  0  0  0  0  0  0  0  0  0  0
    4.1429   -1.4755    2.5098 H   0  0  0  0  0  0  0  0  0  0  0  0
    3.9162    0.3303    2.6660 H   0  0  0  0  0  0  0  0  0  0  0  0
    8.4988   -0.7417   -1.6541 H   0  0  0  0  0  0  0  0  0  0  0  0
    8.8487   -0.8197    0.0807 H   0  0  0  0  0  0  0  0  0  0  0  0
    8.7967    1.5969    0.3277 H   0  0  0  0  0  0  0  0  0  0  0  0
    4.1216    0.1366   -3.2327 H   0  0  0  0  0  0  0  0  0  0  0  0
    1.6484    0.1442   -2.7888 H   0  0  0  0  0  0  0  0  0  0  0  0
   -1.8682    2.1280   -0.3454 H   0  0  0  0  0  0  0  0  0  0  0  0
   -4.0343    2.0501    0.8130 H   0  0  0  0  0  0  0  0  0  0  0  0
  1  2  1  0
  2  3  1  0
  2  4  1  0
  2  5  1  0
  5  6  2  0
  5  7  2  0
  5  8  1  0
  8  9  2  0
  9 10  1  0
 10 11  2  0
 11 12  1  0
 12 13  1  0
 13 14  1  0
 14 15  2  0
 15 16  1  0
 16 17  1  0
 17 18  1  0
 17 19  1  0
 19 20  2  0
 19 21  1  0
 21 22  1  0
 22 23  1  0
 23 24  1  0
 23 25  1  0
 21 26  1  0
 26 27  2  0
 26 28  1  0
 28 29  1  0
 29 30  2  0
 11 31  1  0
 31 32  2  0
 32  8  1  0
 30 14  1  0
 28 16  2  0
  1 33  1  0
  1 34  1  0
  1 35  1  0
  3 36  1  0
  3 37  1  0
  3 38  1  0
  4 39  1  0
  4 40  1  0
  4 41  1  0
  9 42  1  0
 10 43  1  0
 12 44  1  0
 12 45  1  0
 15 46  1  0
 18 47  1  0
 18 48  1  0
 18 49  1  0
 22 50  1  0
 22 51  1  0
 23 52  1  0
 29 53  1  0
 30 54  1  0
 31 55  1  0
 32 56  1  0
M  END
$$$$
[H]OB(O[H])[C@@]([H])(N([H])C(=O)[C@@]([H])(N([H])C(=O)[C@@]([H])(N([H])C(=O)OC([H])([H])c1c([H])c([H])c([H])c([H])c1[H])C([H])([H])c1c([H])c([H])c([H])c([H])c1[H])C([H])([H])c1c([H])c([H])c([H])c([H])c1[H])C([H])([H])C([H])(C([H])([H])[H])C([H])([H])[H]
     RDKit          3D

 79 81  0  0  0  0  0  0  0  0999 V2000
   -6.7336    1.5800    0.3616 C   0  0  0  0  0  0  0  0  0  0  0  0
   -5.2121    1.3615    0.5236 C   0  0  0  0  0  0  0  0  0  0  0  0
   -4.9708    1.6840    2.0019 C   0  0  0  0  0  0  0  0  0  0  0  0
   -4.5651    2.2991   -0.4221 C   0  0  0  0  0  0  0  0  0  0  0  0
   -3.1017    2.3299   -0.5182 C   0  0  2  0  0  0  0  0  0  0  0  0
   -2.4530    1.1261   -0.9174 N   0  0  0  0  0  0  0  0  0  0  0  0
   -1.5376    0.3717   -0.1846 C   0  0  0  0  0  0  0  0  0  0  0  0
   -1.2665    0.7997    1.0021 O   0  0  0  0  0  0  0  0  0  0  0  0
   -0.8476   -0.8453   -0.6220 C   0  0  2  0  0  0  0  0  0  0  0  0
   -1.6260   -2.0654   -0.8998 C   0  0  0  0  0  0  0  0  0  0  0  0
   -2.6520   -2.0445   -1.9338 C   0  0  0  0  0  0  0  0  0  0  0  0
   -2.3352   -2.2197   -3.2599 C   0  0  0  0  0  0  0  0  0  0  0  0
   -3.3148   -2.2442   -4.2057 C   0  0  0  0  0  0  0  0  0  0  0  0
   -4.6457   -2.0950   -3.8683 C   0  0  0  0  0  0  0  0  0  0  0  0
   -4.9318   -1.9214   -2.5338 C   0  0  0  0  0  0  0  0  0  0  0  0
   -3.9739   -1.8911   -1.5499 C   0  0  0  0  0  0  0  0  0  0  0  0
    0.1028   -1.2424    0.4599 N   0  0  0  0  0  0  0  0  0  0  0  0
    1.4204   -0.7921    0.5013 C   0  0  0  0  0  0  0  0  0  0  0  0
    1.7514    0.0349   -0.4534 O   0  0  0  0  0  0  0  0  0  0  0  0
    2.4858   -1.0798    1.4297 C   0  0  2  0  0  0  0  0  0  0  0  0
    2.4593   -2.1368    2.4312 C   0  0  0  0  0  0  0  0  0  0  0  0
    2.3837   -3.5434    1.9343 C   0  0  0  0  0  0  0  0  0  0  0  0
    3.5540   -4.1495    1.4487 C   0  0  0  0  0  0  0  0  0  0  0  0
    3.4715   -5.4576    1.0473 C   0  0  0  0  0  0  0  0  0  0  0  0
    2.3267   -6.1719    1.1010 C   0  0  0  0  0  0  0  0  0  0  0  0
    1.1752   -5.5782    1.5797 C   0  0  0  0  0  0  0  0  0  0  0  0
    1.2255   -4.2581    1.9922 C   0  0  0  0  0  0  0  0  0  0  0  0
    3.0768    0.1559    1.9105 N   0  0  0  0  0  0  0  0  0  0  0  0
    4.2788    0.7126    1.4352 C   0  0  0  0  0  0  0  0  0  0  0  0
    4.9133    0.1409    0.5325 O   0  0  0  0  0  0  0  0  0  0  0  0
    4.7191    1.8929    1.9978 O   0  0  0  0  0  0  0  0  0  0  0  0
    5.8961    2.5410    1.5994 C   0  0  0  0  0  0  0  0  0  0  0  0
    5.8856    2.9518    0.1697 C   0  0  0  0  0  0  0  0  0  0  0  0
    6.6609    2.3359   -0.7738 C   0  0  0  0  0  0  0  0  0  0  0  0
    6.6137    2.7501   -2.0737 C   0  0  0  0  0  0  0  0  0  0  0  0
    5.7682    3.7993   -2.4070 C   0  0  0  0  0  0  0  0  0  0  0  0
    4.9911    4.4144   -1.4562 C   0  0  0  0  0  0  0  0  0  0  0  0
    5.0329    4.0053   -0.1503 C   0  0  0  0  0  0  0  0  0  0  0  0
   -2.3541    3.0777    0.6878 B   0  0  0  0  0  0  0  0  0  0  0  0
   -0.9762    3.5364    0.3271 O   0  0  0  0  0  0  0  0  0  0  0  0
   -3.1195    4.1193    1.4175 O   0  0  0  0  0  0  0  0  0  0  0  0
   -7.1257    0.9960   -0.4900 H   0  0  0  0  0  0  0  0  0  0  0  0
   -7.2638    1.3840    1.3260 H   0  0  0  0  0  0  0  0  0  0  0  0
   -6.8629    2.6605    0.1595 H   0  0  0  0  0  0  0  0  0  0  0  0
   -5.0659    0.2961    0.3604 H   0  0  0  0  0  0  0  0  0  0  0  0
   -3.9239    1.5205    2.3123 H   0  0  0  0  0  0  0  0  0  0  0  0
   -5.5395    0.9211    2.6301 H   0  0  0  0  0  0  0  0  0  0  0  0
   -5.4142    2.6440    2.2998 H   0  0  0  0  0  0  0  0  0  0  0  0
   -5.0298    3.3032   -0.2775 H   0  0  0  0  0  0  0  0  0  0  0  0
   -4.9442    1.9977   -1.4571 H   0  0  0  0  0  0  0  0  0  0  0  0
   -2.8503    3.0641   -1.3882 H   0  0  0  0  0  0  0  0  0  0  0  0
   -2.6959    0.7982   -1.9034 H   0  0  0  0  0  0  0  0  0  0  0  0
   -0.1573   -0.5802   -1.4820 H   0  0  0  0  0  0  0  0  0  0  0  0
   -2.0260   -2.5213    0.0659 H   0  0  0  0  0  0  0  0  0  0  0  0
   -0.8832   -2.8613   -1.2242 H   0  0  0  0  0  0  0  0  0  0  0  0
   -1.2802   -2.3419   -3.5605 H   0  0  0  0  0  0  0  0  0  0  0  0
   -3.0736   -2.3841   -5.2677 H   0  0  0  0  0  0  0  0  0  0  0  0
   -5.4525   -2.1107   -4.6180 H   0  0  0  0  0  0  0  0  0  0  0  0
   -5.9823   -1.8041   -2.2794 H   0  0  0  0  0  0  0  0  0  0  0  0
   -4.2452   -1.7541   -0.5080 H   0  0  0  0  0  0  0  0  0  0  0  0
   -0.2708   -1.8521    1.2127 H   0  0  0  0  0  0  0  0  0  0  0  0
    3.3690   -1.4540    0.6811 H   0  0  0  0  0  0  0  0  0  0  0  0
    1.5831   -1.9767    3.1222 H   0  0  0  0  0  0  0  0  0  0  0  0
    3.3670   -2.0822    3.1072 H   0  0  0  0  0  0  0  0  0  0  0  0
    4.4749   -3.5629    1.4094 H   0  0  0  0  0  0  0  0  0  0  0  0
    4.3669   -5.9508    0.6645 H   0  0  0  0  0  0  0  0  0  0  0  0
    2.2588   -7.2153    0.7791 H   0  0  0  0  0  0  0  0  0  0  0  0
    0.2415   -6.1025    1.6436 H   0  0  0  0  0  0  0  0  0  0  0  0
    0.3035   -3.7991    2.3805 H   0  0  0  0  0  0  0  0  0  0  0  0
    2.5059    0.6228    2.6774 H   0  0  0  0  0  0  0  0  0  0  0  0
    6.7815    1.8746    1.7732 H   0  0  0  0  0  0  0  0  0  0  0  0
    6.0299    3.4658    2.2144 H   0  0  0  0  0  0  0  0  0  0  0  0
    7.3096    1.5234   -0.5050 H   0  0  0  0  0  0  0  0  0  0  0  0
    7.2082    2.2980   -2.8669 H   0  0  0  0  0  0  0  0  0  0  0  0
    5.7571    4.1024   -3.4613 H   0  0  0  0  0  0  0  0  0  0  0  0
    4.3360    5.2398   -1.7592 H   0  0  0  0  0  0  0  0  0  0  0  0
    4.4277    4.4894    0.5773 H   0  0  0  0  0  0  0  0  0  0  0  0
   -0.6193    3.9415    1.1487 H   0  0  0  0  0  0  0  0  0  0  0  0
   -3.1893    4.9263    0.8410 H   0  0  0  0  0  0  0  0  0  0  0  0
  1  2  1  0
  2  3  1  0
  2  4  1  0
  4  5  1  0
  5  6  1  0
  6  7  1  0
  7  8  2  0
  7  9  1  0
  9 10  1  0
 10 11  1  0
 11 12  2  0
 12 13  1  0
 13 14  2  0
 14 15  1  0
 15 16  2  0
  9 17  1  0
 17 18  1  0
 18 19  2  0
 18 20  1  0
 20 21  1  0
 21 22  1  0
 22 23  2  0
 23 24  1  0
 24 25  2  0
 25 26  1  0
 26 27  2  0
 20 28  1  0
 28 29  1  0
 29 30  2  0
 29 31  1  0
 31 32  1  0
 32 33  1  0
 33 34  2  0
 34 35  1  0
 35 36  2  0
 36 37  1  0
 37 38  2  0
  5 39  1  0
 39 40  1  0
 39 41  1  0
 16 11  1  0
 27 22  1  0
 38 33  1  0
  1 42  1  0
  1 43  1  0
  1 44  1  0
  2 45  1  0
  3 46  1  0
  3 47  1  0
  3 48  1  0
  4 49  1  0
  4 50  1  0
  5 51  1  6
  6 52  1  0
  9 53  1  6
 10 54  1  0
 10 55  1  0
 12 56  1  0
 13 57  1  0
 14 58  1  0
 15 59  1  0
 16 60  1  0
 17 61  1  0
 20 62  1  6
 21 63  1  0
 21 64  1  0
 23 65  1  0
 24 66  1  0
 25 67  1  0
 26 68  1  0
 27 69  1  0
 28 70  1  0
 32 71  1  0
 32 72  1  0
 34 73  1  0
 35 74  1  0
 36 75  1  0
 37 76  1  0
 38 77  1  0
 40 78  1  0
 41 79  1  0
M  END
$$$$
[H]OC(=O)C([H])([H])[C@@]([H])(C(=O)C([H])([H])Oc1c([H])c([H])c([H])c([H])c1[H])N([H])C(=O)[C@@]([H])(N([H])C(=O)OC([H])([H])c1c([H])c([H])c([H])c([H])c1[H])C([H])(C([H])([H])[H])C([H])([H])[H]
     RDKit          3D

 61 62  0  0  0  0  0  0  0  0999 V2000
   -1.3978    0.3142    3.0038 C   0  0  0  0  0  0  0  0  0  0  0  0
   -1.1630    1.5508    2.1833 C   0  0  0  0  0  0  0  0  0  0  0  0
   -2.2174    2.6141    2.4563 C   0  0  0  0  0  0  0  0  0  0  0  0
   -1.1708    1.2904    0.7081 C   0  0  2  0  0  0  0  0  0  0  0  0
   -2.4225    0.7453    0.2432 N   0  0  0  0  0  0  0  0  0  0  0  0
   -3.2436    1.4118   -0.7118 C   0  0  0  0  0  0  0  0  0  0  0  0
   -2.8838    2.5186   -1.1856 O   0  0  0  0  0  0  0  0  0  0  0  0
   -4.4468    0.8937   -1.1576 O   0  0  0  0  0  0  0  0  0  0  0  0
   -5.2326    1.5901   -2.1110 C   0  0  0  0  0  0  0  0  0  0  0  0
   -6.4473    0.8110   -2.3930 C   0  0  0  0  0  0  0  0  0  0  0  0
   -7.6215    1.0547   -1.7080 C   0  0  0  0  0  0  0  0  0  0  0  0
   -8.7843    0.3593   -1.9299 C   0  0  0  0  0  0  0  0  0  0  0  0
   -8.7881   -0.6377   -2.8867 C   0  0  0  0  0  0  0  0  0  0  0  0
   -7.6435   -0.9110   -3.5889 C   0  0  0  0  0  0  0  0  0  0  0  0
   -6.4663   -0.1883   -3.3464 C   0  0  0  0  0  0  0  0  0  0  0  0
   -0.0104    0.4699    0.2997 C   0  0  0  0  0  0  0  0  0  0  0  0
   -0.1100   -0.5811   -0.3735 O   0  0  0  0  0  0  0  0  0  0  0  0
    1.2874    0.8936    0.6892 N   0  0  0  0  0  0  0  0  0  0  0  0
    2.4903    0.1493    0.3286 C   0  0  1  0  0  0  0  0  0  0  0  0
    3.4044    0.9699   -0.5186 C   0  0  0  0  0  0  0  0  0  0  0  0
    3.8757    2.1990    0.1464 C   0  0  0  0  0  0  0  0  0  0  0  0
    3.6479    2.5324    1.4639 O   0  0  0  0  0  0  0  0  0  0  0  0
    4.5515    3.0080   -0.5798 O   0  0  0  0  0  0  0  0  0  0  0  0
    3.1819   -0.3180    1.5437 C   0  0  0  0  0  0  0  0  0  0  0  0
    2.7030    0.0906    2.6261 O   0  0  0  0  0  0  0  0  0  0  0  0
    4.3564   -1.2061    1.5719 C   0  0  0  0  0  0  0  0  0  0  0  0
    4.7185   -1.6353    0.3092 O   0  0  0  0  0  0  0  0  0  0  0  0
    5.7768   -2.4804    0.0375 C   0  0  0  0  0  0  0  0  0  0  0  0
    6.5399   -2.9439    1.0752 C   0  0  0  0  0  0  0  0  0  0  0  0
    7.6164   -3.7935    0.8884 C   0  0  0  0  0  0  0  0  0  0  0  0
    7.9449   -4.1990   -0.4024 C   0  0  0  0  0  0  0  0  0  0  0  0
    7.1714   -3.7300   -1.4626 C   0  0  0  0  0  0  0  0  0  0  0  0
    6.1097   -2.8864   -1.2297 C   0  0  0  0  0  0  0  0  0  0  0  0
   -0.4441   -0.0679    3.4644 H   0  0  0  0  0  0  0  0  0  0  0  0
   -2.0579    0.5827    3.8479 H   0  0  0  0  0  0  0  0  0  0  0  0
   -1.7878   -0.5433    2.4200 H   0  0  0  0  0  0  0  0  0  0  0  0
   -0.1980    1.9913    2.5000 H   0  0  0  0  0  0  0  0  0  0  0  0
   -1.9080    3.5335    1.9145 H   0  0  0  0  0  0  0  0  0  0  0  0
   -3.2011    2.2299    2.1518 H   0  0  0  0  0  0  0  0  0  0  0  0
   -2.2002    2.8569    3.5461 H   0  0  0  0  0  0  0  0  0  0  0  0
   -1.0409    2.2707    0.1913 H   0  0  0  0  0  0  0  0  0  0  0  0
   -2.7538   -0.1720    0.6098 H   0  0  0  0  0  0  0  0  0  0  0  0
   -5.5259    2.5940   -1.7596 H   0  0  0  0  0  0  0  0  0  0  0  0
   -4.6372    1.6600   -3.0427 H   0  0  0  0  0  0  0  0  0  0  0  0
   -7.6258    1.8329   -0.9565 H   0  0  0  0  0  0  0  0  0  0  0  0
   -9.7141    0.5371   -1.4018 H   0  0  0  0  0  0  0  0  0  0  0  0
   -9.6832   -1.2059   -3.0892 H   0  0  0  0  0  0  0  0  0  0  0  0
   -7.6327   -1.6865   -4.3389 H   0  0  0  0  0  0  0  0  0  0  0  0
   -5.5621   -0.3911   -3.8879 H   0  0  0  0  0  0  0  0  0  0  0  0
    1.3897    1.7558    1.2482 H   0  0  0  0  0  0  0  0  0  0  0  0
    2.1466   -0.7272   -0.2587 H   0  0  0  0  0  0  0  0  0  0  0  0
    2.9390    1.2062   -1.5190 H   0  0  0  0  0  0  0  0  0  0  0  0
    4.3030    0.3835   -0.7737 H   0  0  0  0  0  0  0  0  0  0  0  0
    4.3895    2.5087    2.1349 H   0  0  0  0  0  0  0  0  0  0  0  0
    5.2042   -0.7739    2.1543 H   0  0  0  0  0  0  0  0  0  0  0  0
    4.0649   -2.1195    2.1745 H   0  0  0  0  0  0  0  0  0  0  0  0
    6.3228   -2.6547    2.0988 H   0  0  0  0  0  0  0  0  0  0  0  0
    8.2093   -4.1544    1.6959 H   0  0  0  0  0  0  0  0  0  0  0  0
    8.7738   -4.8586   -0.5841 H   0  0  0  0  0  0  0  0  0  0  0  0
    7.4034   -4.0286   -2.4723 H   0  0  0  0  0  0  0  0  0  0  0  0
    5.5002   -2.5155   -2.0566 H   0  0  0  0  0  0  0  0  0  0  0  0
  1  2  1  0
  2  3  1  0
  2  4  1  0
  4  5  1  0
  5  6  1  0
  6  7  2  0
  6  8  1  0
  8  9  1  0
  9 10  1  0
 10 11  2  0
 11 12  1  0
 12 13  2  0
 13 14  1  0
 14 15  2  0
  4 16  1  0
 16 17  2  0
 16 18  1  0
 18 19  1  0
 19 20  1  0
 20 21  1  0
 21 22  1  0
 21 23  2  0
 19 24  1  0
 24 25  2  0
 24 26  1  0
 26 27  1  0
 27 28  1  0
 28 29  2  0
 29 30  1  0
 30 31  2  0
 31 32  1  0
 32 33  2  0
 15 10  1  0
 33 28  1  0
  1 34  1  0
  1 35  1  0
  1 36  1  0
  2 37  1  0
  3 38  1  0
  3 39  1  0
  3 40  1  0
  4 41  1  6
  5 42  1  0
  9 43  1  0
  9 44  1  0
 11 45  1  0
 12 46  1  0
 13 47  1  0
 14 48  1  0
 15 49  1  0
 18 50  1  0
 19 51  1  6
 20 52  1  0
 20 53  1  0
 22 54  1  0
 26 55  1  0
 26 56  1  0
 29 57  1  0
 30 58  1  0
 31 59  1  0
 32 60  1  0
 33 61  1  0
M  END
$$$$
[H]c1c([H])c([H])c(-c2c([H])c([H])c([H])c([H])c2OC([H])(C2=NC([H])([H])C([H])([H])N2[H])C([H])([H])[H])c([H])c1[H]
     RDKit          3D

 38 40  0  0  0  0  0  0  0  0999 V2000
   -2.5726   -1.4432    0.3272 C   0  0  0  0  0  0  0  0  0  0  0  0
   -1.5821   -0.8533   -0.6548 C   0  0  0  0  0  0  0  0  0  0  0  0
   -0.3247   -0.6463   -0.1231 O   0  0  0  0  0  0  0  0  0  0  0  0
    0.8850   -1.1559   -0.4797 C   0  0  0  0  0  0  0  0  0  0  0  0
    1.0443   -2.0305   -1.5466 C   0  0  0  0  0  0  0  0  0  0  0  0
    2.2654   -2.5591   -1.9230 C   0  0  0  0  0  0  0  0  0  0  0  0
    3.3588   -2.1728   -1.1740 C   0  0  0  0  0  0  0  0  0  0  0  0
    3.2127   -1.3062   -0.1140 C   0  0  0  0  0  0  0  0  0  0  0  0
    1.9846   -0.7764    0.2623 C   0  0  0  0  0  0  0  0  0  0  0  0
    1.9317    0.1361    1.4069 C   0  0  0  0  0  0  0  0  0  0  0  0
    2.6250   -0.2448    2.5622 C   0  0  0  0  0  0  0  0  0  0  0  0
    2.6577    0.5148    3.6920 C   0  0  0  0  0  0  0  0  0  0  0  0
    1.9860    1.7091    3.7142 C   0  0  0  0  0  0  0  0  0  0  0  0
    1.2939    2.1110    2.5906 C   0  0  0  0  0  0  0  0  0  0  0  0
    1.2706    1.3208    1.4413 C   0  0  0  0  0  0  0  0  0  0  0  0
   -2.1554    0.3995   -1.2674 C   0  0  0  0  0  0  0  0  0  0  0  0
   -1.6926    1.5937   -1.2263 N   0  0  0  0  0  0  0  0  0  0  0  0
   -2.5097    2.5491   -1.9293 C   0  0  0  0  0  0  0  0  0  0  0  0
   -3.8332    1.8290   -2.0538 C   0  0  0  0  0  0  0  0  0  0  0  0
   -3.3769    0.4510   -2.0311 N   0  0  0  0  0  0  0  0  0  0  0  0
   -3.3436   -0.6656    0.5677 H   0  0  0  0  0  0  0  0  0  0  0  0
   -2.0674   -1.6702    1.3004 H   0  0  0  0  0  0  0  0  0  0  0  0
   -3.1128   -2.3072   -0.0629 H   0  0  0  0  0  0  0  0  0  0  0  0
   -1.5168   -1.5863   -1.4842 H   0  0  0  0  0  0  0  0  0  0  0  0
    0.2011   -2.3516   -2.1542 H   0  0  0  0  0  0  0  0  0  0  0  0
    2.3419   -3.2357   -2.7595 H   0  0  0  0  0  0  0  0  0  0  0  0
    4.3189   -2.5811   -1.4606 H   0  0  0  0  0  0  0  0  0  0  0  0
    4.0859   -1.0050    0.4750 H   0  0  0  0  0  0  0  0  0  0  0  0
    3.1640   -1.1964    2.5539 H   0  0  0  0  0  0  0  0  0  0  0  0
    3.1894    0.2296    4.5875 H   0  0  0  0  0  0  0  0  0  0  0  0
    1.9971    2.3340    4.6055 H   0  0  0  0  0  0  0  0  0  0  0  0
    0.7734    3.0529    2.6305 H   0  0  0  0  0  0  0  0  0  0  0  0
    0.7330    1.6459    0.5794 H   0  0  0  0  0  0  0  0  0  0  0  0
   -2.0341    2.7112   -2.9258 H   0  0  0  0  0  0  0  0  0  0  0  0
   -2.6013    3.4905   -1.3548 H   0  0  0  0  0  0  0  0  0  0  0  0
   -4.3693    2.0912   -2.9769 H   0  0  0  0  0  0  0  0  0  0  0  0
   -4.4231    1.9961   -1.1328 H   0  0  0  0  0  0  0  0  0  0  0  0
   -3.8046   -0.3778   -2.4620 H   0  0  0  0  0  0  0  0  0  0  0  0
  1  2  1  0
  2  3  1  0
  3  4  1  0
  4  5  2  0
  5  6  1  0
  6  7  2  0
  7  8  1  0
  8  9  2  0
  9 10  1  0
 10 11  2  0
 11 12  1  0
 12 13  2  0
 13 14  1  0
 14 15  2  0
  2 16  1  0
 16 17  2  0
 17 18  1  0
 18 19  1  0
 19 20  1  0
  9  4  1  0
 15 10  1  0
 20 16  1  0
  1 21  1  0
  1 22  1  0
  1 23  1  0
  2 24  1  0
  5 25  1  0
  6 26  1  0
  7 27  1  0
  8 28  1  0
 11 29  1  0
 12 30  1  0
 13 31  1  0
 14 32  1  0
 15 33  1  0
 18 34  1  0
 18 35  1  0
 19 36  1  0
 19 37  1  0
 20 38  1  0
M  END
$$$$
[H]/C(=C(/[H])c1nc2c([H])c([H])c([H])c([H])c2n1[H])c1c([H])c(C(F)(F)F)nc2c([H])c([H])c([H])c([H])c12
     RDKit          3D

 37 40  0  0  0  0  0  0  0  0999 V2000
   -4.6926    3.2061    1.5716 F   0  0  0  0  0  0  0  0  0  0  0  0
   -4.8612    2.6288    0.3348 C   0  0  0  0  0  0  0  0  0  0  0  0
   -4.6478    3.4880   -0.6999 F   0  0  0  0  0  0  0  0  0  0  0  0
   -6.1761    2.2183    0.2766 F   0  0  0  0  0  0  0  0  0  0  0  0
   -3.9803    1.4177    0.1979 C   0  0  0  0  0  0  0  0  0  0  0  0
   -2.6118    1.4868    0.4560 C   0  0  0  0  0  0  0  0  0  0  0  0
   -1.8265    0.4023    0.3520 C   0  0  0  0  0  0  0  0  0  0  0  0
   -0.3653    0.3113    0.5079 C   0  0  0  0  0  0  0  0  0  0  0  0
    0.3840    0.7923   -0.4528 C   0  0  0  0  0  0  0  0  0  0  0  0
    1.8300    0.7328   -0.3756 C   0  0  0  0  0  0  0  0  0  0  0  0
    2.7098    1.1502   -1.2983 N   0  0  0  0  0  0  0  0  0  0  0  0
    3.9644    0.8227   -0.9325 C   0  0  0  0  0  0  0  0  0  0  0  0
    5.2024    0.9892   -1.5640 C   0  0  0  0  0  0  0  0  0  0  0  0
    6.3594    0.5128   -1.0046 C   0  0  0  0  0  0  0  0  0  0  0  0
    6.2918   -0.1292    0.1961 C   0  0  0  0  0  0  0  0  0  0  0  0
    5.0553   -0.2948    0.8320 C   0  0  0  0  0  0  0  0  0  0  0  0
    3.8886    0.1892    0.2543 C   0  0  0  0  0  0  0  0  0  0  0  0
    2.5838    0.1400    0.5787 N   0  0  0  0  0  0  0  0  0  0  0  0
   -2.4224   -0.8335   -0.0343 C   0  0  0  0  0  0  0  0  0  0  0  0
   -1.6305   -1.9734   -0.1895 C   0  0  0  0  0  0  0  0  0  0  0  0
   -2.1992   -3.1825   -0.6126 C   0  0  0  0  0  0  0  0  0  0  0  0
   -3.5683   -3.2250   -0.8711 C   0  0  0  0  0  0  0  0  0  0  0  0
   -4.3324   -2.1086   -0.7125 C   0  0  0  0  0  0  0  0  0  0  0  0
   -3.7499   -0.9037   -0.2912 C   0  0  0  0  0  0  0  0  0  0  0  0
   -4.4918    0.2348   -0.1703 N   0  0  0  0  0  0  0  0  0  0  0  0
   -2.1706    2.4357    0.7549 H   0  0  0  0  0  0  0  0  0  0  0  0
    0.0550   -0.0982    1.3941 H   0  0  0  0  0  0  0  0  0  0  0  0
   -0.0271    1.2836   -1.3442 H   0  0  0  0  0  0  0  0  0  0  0  0
    5.2233    1.5145   -2.5313 H   0  0  0  0  0  0  0  0  0  0  0  0
    7.3085    0.6349   -1.5344 H   0  0  0  0  0  0  0  0  0  0  0  0
    7.1922   -0.4756    0.6658 H   0  0  0  0  0  0  0  0  0  0  0  0
    5.0134   -0.7803    1.7761 H   0  0  0  0  0  0  0  0  0  0  0  0
    2.2086   -0.2982    1.4270 H   0  0  0  0  0  0  0  0  0  0  0  0
   -0.5782   -1.8875    0.0453 H   0  0  0  0  0  0  0  0  0  0  0  0
   -1.6134   -4.0794   -0.7337 H   0  0  0  0  0  0  0  0  0  0  0  0
   -3.9514   -4.1971   -1.2127 H   0  0  0  0  0  0  0  0  0  0  0  0
   -5.3738   -2.1248   -0.9105 H   0  0  0  0  0  0  0  0  0  0  0  0
  1  2  1  0
  2  3  1  0
  2  4  1  0
  2  5  1  0
  5  6  2  0
  6  7  1  0
  7  8  1  0
  8  9  2  0
  9 10  1  0
 10 11  2  0
 11 12  1  0
 12 13  2  0
 13 14  1  0
 14 15  2  0
 15 16  1  0
 16 17  2  0
 17 18  1  0
  7 19  2  0
 19 20  1  0
 20 21  2  0
 21 22  1  0
 22 23  2  0
 23 24  1  0
 24 25  2  0
 25  5  1  0
 18 10  1  0
 24 19  1  0
 17 12  1  0
  6 26  1  0
  8 27  1  0
  9 28  1  0
 13 29  1  0
 14 30  1  0
 15 31  1  0
 16 32  1  0
 18 33  1  0
 20 34  1  0
 21 35  1  0
 22 36  1  0
 23 37  1  0
M  END
$$$$
[H]OC(=O)c1nc(C(=O)c2c([H])c([H])c([H])c([H])c2[H])c2c([H])c(O[H])c(O[H])c([H])c2c1[H]
     RDKit          3D

 34 36  0  0  0  0  0  0  0  0999 V2000
   -0.5753    3.4031   -2.5794 O   0  0  0  0  0  0  0  0  0  0  0  0
   -1.6547    2.7445   -2.0228 C   0  0  0  0  0  0  0  0  0  0  0  0
   -2.7966    3.2169   -2.1487 O   0  0  0  0  0  0  0  0  0  0  0  0
   -1.4697    1.5033   -1.2908 C   0  0  0  0  0  0  0  0  0  0  0  0
   -2.5941    0.8922   -0.7597 C   0  0  0  0  0  0  0  0  0  0  0  0
   -2.4603   -0.2897   -0.0595 C   0  0  0  0  0  0  0  0  0  0  0  0
   -3.5882   -0.8974    0.4789 C   0  0  0  0  0  0  0  0  0  0  0  0
   -3.4647   -2.0674    1.1855 C   0  0  0  0  0  0  0  0  0  0  0  0
   -4.5639   -2.7352    1.7578 O   0  0  0  0  0  0  0  0  0  0  0  0
   -2.2020   -2.5884    1.3270 C   0  0  0  0  0  0  0  0  0  0  0  0
   -2.0421   -3.7583    2.0286 O   0  0  0  0  0  0  0  0  0  0  0  0
   -1.0685   -1.9766    0.7846 C   0  0  0  0  0  0  0  0  0  0  0  0
   -1.1811   -0.8183    0.0814 C   0  0  0  0  0  0  0  0  0  0  0  0
   -0.0550   -0.2127   -0.4482 C   0  0  0  0  0  0  0  0  0  0  0  0
   -0.2570    0.9556   -1.1289 N   0  0  0  0  0  0  0  0  0  0  0  0
    1.2946   -0.7677   -0.3649 C   0  0  0  0  0  0  0  0  0  0  0  0
    1.4399   -2.0059   -0.5613 O   0  0  0  0  0  0  0  0  0  0  0  0
    2.4708    0.0317   -0.0783 C   0  0  0  0  0  0  0  0  0  0  0  0
    2.4593    1.2351    0.5894 C   0  0  0  0  0  0  0  0  0  0  0  0
    3.6479    1.9144    0.8271 C   0  0  0  0  0  0  0  0  0  0  0  0
    4.8468    1.3904    0.3940 C   0  0  0  0  0  0  0  0  0  0  0  0
    4.8927    0.1952   -0.2759 C   0  0  0  0  0  0  0  0  0  0  0  0
    3.7065   -0.4719   -0.5048 C   0  0  0  0  0  0  0  0  0  0  0  0
   -0.5123    4.4188   -2.6372 H   0  0  0  0  0  0  0  0  0  0  0  0
   -3.5940    1.2997   -0.8651 H   0  0  0  0  0  0  0  0  0  0  0  0
   -4.5675   -0.4498    0.3476 H   0  0  0  0  0  0  0  0  0  0  0  0
   -5.4938   -2.3574    1.6572 H   0  0  0  0  0  0  0  0  0  0  0  0
   -1.1085   -4.1457    2.1326 H   0  0  0  0  0  0  0  0  0  0  0  0
   -0.0962   -2.4262    0.9469 H   0  0  0  0  0  0  0  0  0  0  0  0
    1.5061    1.6549    0.9358 H   0  0  0  0  0  0  0  0  0  0  0  0
    3.6835    2.8620    1.3534 H   0  0  0  0  0  0  0  0  0  0  0  0
    5.8153    1.8945    0.5617 H   0  0  0  0  0  0  0  0  0  0  0  0
    5.8337   -0.2262   -0.6248 H   0  0  0  0  0  0  0  0  0  0  0  0
    3.7487   -1.4173   -1.0391 H   0  0  0  0  0  0  0  0  0  0  0  0
  1  2  1  0
  2  3  2  0
  2  4  1  0
  4  5  2  0
  5  6  1  0
  6  7  2  0
  7  8  1  0
  8  9  1  0
  8 10  2  0
 10 11  1  0
 10 12  1  0
 12 13  2  0
 13 14  1  0
 14 15  2  0
 14 16  1  0
 16 17  2  0
 16 18  1  0
 18 19  2  0
 19 20  1  0
 20 21  2  0
 21 22  1  0
 22 23  2  0
 15  4  1  0
 23 18  1  0
 13  6  1  0
  1 24  1  0
  5 25  1  0
  7 26  1  0
  9 27  1  0
 11 28  1  0
 12 29  1  0
 19 30  1  0
 20 31  1  0
 21 32  1  0
 22 33  1  0
 23 34  1  0
M  END
$$$$
[H]N=C(N1C([H])([H])[C@@]2([H])N([H])C([H])([H])c3c([H])c(O[H])c([H])c([H])c3C([H])([H])[C@@]([H])(C(=O)N([H])[C@]([H])(C(=O)N3C([H])([H])C([H])([H])N([H])C([H])([H])C3([H])[H])C([H])([H])C([H])([H])C([H])([H])C([H])([H])c3c([H])c([H])c([H])c([H])c3[H])N([H])[C@]2([H])C1([H])[H])C([H])([H])[H]
     RDKit          3D

 87 91  0  0  0  0  0  0  0  0999 V2000
    6.8133    1.8699    0.9599 C   0  0  0  0  0  0  0  0  0  0  0  0
    7.3905    2.9208    1.6296 C   0  0  0  0  0  0  0  0  0  0  0  0
    7.5911    4.1313    1.0054 C   0  0  0  0  0  0  0  0  0  0  0  0
    7.2027    4.2773   -0.3097 C   0  0  0  0  0  0  0  0  0  0  0  0
    6.6231    3.2324   -0.9929 C   0  0  0  0  0  0  0  0  0  0  0  0
    6.4202    2.0052   -0.3582 C   0  0  0  0  0  0  0  0  0  0  0  0
    5.8068    0.9263   -1.1207 C   0  0  0  0  0  0  0  0  0  0  0  0
    4.2962    0.8798   -1.0739 C   0  0  0  0  0  0  0  0  0  0  0  0
    3.8571    0.7148    0.3461 C   0  0  0  0  0  0  0  0  0  0  0  0
    2.3934    0.6165    0.5382 C   0  0  0  0  0  0  0  0  0  0  0  0
    1.7082   -0.5820   -0.0822 C   0  0  2  0  0  0  0  0  0  0  0  0
    0.2717   -0.3449    0.2546 N   0  0  0  0  0  0  0  0  0  0  0  0
   -0.7077   -0.1893   -0.7159 C   0  0  0  0  0  0  0  0  0  0  0  0
   -2.1647    0.0414   -0.4590 C   0  0  2  0  0  0  0  0  0  0  0  0
   -2.8943   -1.2703   -0.2664 C   0  0  0  0  0  0  0  0  0  0  0  0
   -3.2498   -1.4451    1.1397 C   0  0  0  0  0  0  0  0  0  0  0  0
   -2.3146   -2.1515    1.9034 C   0  0  0  0  0  0  0  0  0  0  0  0
   -2.4495   -2.4293    3.2389 C   0  0  0  0  0  0  0  0  0  0  0  0
   -3.5964   -1.9717    3.8560 C   0  0  0  0  0  0  0  0  0  0  0  0
   -3.7836   -2.2280    5.2179 O   0  0  0  0  0  0  0  0  0  0  0  0
   -4.5189   -1.2779    3.1106 C   0  0  0  0  0  0  0  0  0  0  0  0
   -4.3795   -0.9971    1.7539 C   0  0  0  0  0  0  0  0  0  0  0  0
   -5.5132   -0.2594    1.1828 C   0  0  0  0  0  0  0  0  0  0  0  0
   -5.4430    0.2743   -0.0845 N   0  0  0  0  0  0  0  0  0  0  0  0
   -4.6223    1.4256   -0.2965 C   0  0  2  0  0  0  0  0  0  0  0  0
   -5.5249    2.6255   -0.4929 C   0  0  0  0  0  0  0  0  0  0  0  0
   -5.4321    2.9261   -1.8903 N   0  0  0  0  0  0  0  0  0  0  0  0
   -6.4909    3.4367   -2.6669 C   0  0  0  0  0  0  0  0  0  0  0  0
   -6.2745    4.3218   -3.5539 N   0  0  0  0  0  0  0  0  0  0  0  0
   -7.8603    2.9358   -2.4448 C   0  0  0  0  0  0  0  0  0  0  0  0
   -4.0683    2.5988   -2.2983 C   0  0  0  0  0  0  0  0  0  0  0  0
   -3.9512    1.2194   -1.6295 C   0  0  1  0  0  0  0  0  0  0  0  0
   -2.6456    0.7367   -1.6362 N   0  0  0  0  0  0  0  0  0  0  0  0
   -0.3391   -0.2441   -1.9275 O   0  0  0  0  0  0  0  0  0  0  0  0
    2.1324   -1.7991    0.6404 C   0  0  0  0  0  0  0  0  0  0  0  0
    1.6381   -1.8949    1.8287 O   0  0  0  0  0  0  0  0  0  0  0  0
    2.9610   -2.8353    0.2447 N   0  0  0  0  0  0  0  0  0  0  0  0
    3.5711   -2.8995   -1.0505 C   0  0  0  0  0  0  0  0  0  0  0  0
    4.0499   -4.3053   -1.3451 C   0  0  0  0  0  0  0  0  0  0  0  0
    3.1600   -5.3276   -0.8833 N   0  0  0  0  0  0  0  0  0  0  0  0
    2.7795   -5.2460    0.4903 C   0  0  0  0  0  0  0  0  0  0  0  0
    3.2748   -3.9605    1.1379 C   0  0  0  0  0  0  0  0  0  0  0  0
    6.6617    0.9376    1.4481 H   0  0  0  0  0  0  0  0  0  0  0  0
    7.6813    2.7625    2.6595 H   0  0  0  0  0  0  0  0  0  0  0  0
    8.0425    4.9655    1.5165 H   0  0  0  0  0  0  0  0  0  0  0  0
    7.3701    5.2361   -0.7782 H   0  0  0  0  0  0  0  0  0  0  0  0
    6.3256    3.3586   -2.0206 H   0  0  0  0  0  0  0  0  0  0  0  0
    6.2505   -0.0463   -0.7934 H   0  0  0  0  0  0  0  0  0  0  0  0
    6.1669    1.0308   -2.1888 H   0  0  0  0  0  0  0  0  0  0  0  0
    3.9663    0.0719   -1.7295 H   0  0  0  0  0  0  0  0  0  0  0  0
    3.8785    1.8298   -1.5115 H   0  0  0  0  0  0  0  0  0  0  0  0
    4.4365   -0.1204    0.7880 H   0  0  0  0  0  0  0  0  0  0  0  0
    4.1849    1.6408    0.9117 H   0  0  0  0  0  0  0  0  0  0  0  0
    1.9330    1.5686    0.1872 H   0  0  0  0  0  0  0  0  0  0  0  0
    2.1971    0.6044    1.6461 H   0  0  0  0  0  0  0  0  0  0  0  0
    1.8473   -0.6842   -1.1472 H   0  0  0  0  0  0  0  0  0  0  0  0
    0.0563   -0.2950    1.2600 H   0  0  0  0  0  0  0  0  0  0  0  0
   -2.2238    0.7226    0.3976 H   0  0  0  0  0  0  0  0  0  0  0  0
   -3.7293   -1.3908   -0.9874 H   0  0  0  0  0  0  0  0  0  0  0  0
   -2.1792   -2.0801   -0.5592 H   0  0  0  0  0  0  0  0  0  0  0  0
   -1.3919   -2.5401    1.4420 H   0  0  0  0  0  0  0  0  0  0  0  0
   -1.6980   -2.9828    3.8016 H   0  0  0  0  0  0  0  0  0  0  0  0
   -4.2578   -3.0770    5.4498 H   0  0  0  0  0  0  0  0  0  0  0  0
   -5.4043   -0.9475    3.6759 H   0  0  0  0  0  0  0  0  0  0  0  0
   -6.3763   -0.9976    1.1992 H   0  0  0  0  0  0  0  0  0  0  0  0
   -5.8598    0.5260    1.9212 H   0  0  0  0  0  0  0  0  0  0  0  0
   -6.2260    0.1705   -0.7364 H   0  0  0  0  0  0  0  0  0  0  0  0
   -3.9647    1.6766    0.5284 H   0  0  0  0  0  0  0  0  0  0  0  0
   -6.5604    2.3942   -0.1647 H   0  0  0  0  0  0  0  0  0  0  0  0
   -5.1904    3.5073    0.1268 H   0  0  0  0  0  0  0  0  0  0  0  0
   -5.3058    4.6681   -3.7032 H   0  0  0  0  0  0  0  0  0  0  0  0
   -8.6368    3.5193   -2.9843 H   0  0  0  0  0  0  0  0  0  0  0  0
   -8.1406    3.0262   -1.3535 H   0  0  0  0  0  0  0  0  0  0  0  0
   -7.9533    1.8344   -2.6620 H   0  0  0  0  0  0  0  0  0  0  0  0
   -4.0388    2.5156   -3.3972 H   0  0  0  0  0  0  0  0  0  0  0  0
   -3.3349    3.3080   -1.9167 H   0  0  0  0  0  0  0  0  0  0  0  0
   -4.5769    0.5560   -2.2978 H   0  0  0  0  0  0  0  0  0  0  0  0
   -1.9029    1.4158   -1.9128 H   0  0  0  0  0  0  0  0  0  0  0  0
    2.8726   -2.5230   -1.8472 H   0  0  0  0  0  0  0  0  0  0  0  0
    4.4717   -2.2503   -1.0930 H   0  0  0  0  0  0  0  0  0  0  0  0
    4.1517   -4.4058   -2.4355 H   0  0  0  0  0  0  0  0  0  0  0  0
    5.0557   -4.4093   -0.8694 H   0  0  0  0  0  0  0  0  0  0  0  0
    3.5638   -6.2754   -1.1326 H   0  0  0  0  0  0  0  0  0  0  0  0
    3.2112   -6.0902    1.0519 H   0  0  0  0  0  0  0  0  0  0  0  0
    1.6727   -5.3056    0.5801 H   0  0  0  0  0  0  0  0  0  0  0  0
    2.8583   -3.8324    2.1356 H   0  0  0  0  0  0  0  0  0  0  0  0
    4.3791   -4.0506    1.1797 H   0  0  0  0  0  0  0  0  0  0  0  0
  1  2  2  0
  2  3  1  0
  3  4  2  0
  4  5  1  0
  5  6  2  0
  6  7  1  0
  7  8  1  0
  8  9  1  0
  9 10  1  0
 10 11  1  0
 11 12  1  0
 12 13  1  0
 13 14  1  0
 14 15  1  0
 15 16  1  0
 16 17  2  0
 17 18  1  0
 18 19  2  0
 19 20  1  0
 19 21  1  0
 21 22  2  0
 22 23  1  0
 23 24  1  0
 24 25  1  0
 25 26  1  0
 26 27  1  0
 27 28  1  0
 28 29  2  3
 28 30  1  0
 27 31  1  0
 31 32  1  0
 32 33  1  0
 13 34  2  0
 11 35  1  0
 35 36  2  0
 35 37  1  0
 37 38  1  0
 38 39  1  0
 39 40  1  0
 40 41  1  0
 41 42  1  0
  6  1  1  0
 33 14  1  0
 42 37  1  0
 22 16  1  0
 32 25  1  0
  1 43  1  0
  2 44  1  0
  3 45  1  0
  4 46  1  0
  5 47  1  0
  7 48  1  0
  7 49  1  0
  8 50  1  0
  8 51  1  0
  9 52  1  0
  9 53  1  0
 10 54  1  0
 10 55  1  0
 11 56  1  6
 12 57  1  0
 14 58  1  1
 15 59  1  0
 15 60  1  0
 17 61  1  0
 18 62  1  0
 20 63  1  0
 21 64  1  0
 23 65  1  0
 23 66  1  0
 24 67  1  0
 25 68  1  1
 26 69  1  0
 26 70  1  0
 29 71  1  0
 30 72  1  0
 30 73  1  0
 30 74  1  0
 31 75  1  0
 31 76  1  0
 32 77  1  6
 33 78  1  0
 38 79  1  0
 38 80  1  0
 39 81  1  0
 39 82  1  0
 40 83  1  0
 41 84  1  0
 41 85  1  0
 42 86  1  0
 42 87  1  0
M  END
$$$$
[H]OC([H])([H])C(=O)[C@@]1(O[H])C([H])([H])C([H])([H])[C@]2([H])[C@]1(C([H])([H])[H])C([H])([H])C([H])([H])[C@]1([H])[C@]3(C([H])([H])[H])C(=C([H])C(=O)C([H])([H])C3([H])[H])C([H])([H])C([H])([H])[C@@]21[H]
     RDKit          3D

 55 58  0  0  0  0  0  0  0  0999 V2000
    1.9768   -0.3044   -1.9995 C   0  0  0  0  0  0  0  0  0  0  0  0
    1.7983   -0.2849   -0.5287 C   0  0  2  0  0  0  0  0  0  0  0  0
    1.1015   -1.4934    0.0185 C   0  0  0  0  0  0  0  0  0  0  0  0
   -0.3408   -1.4826   -0.3829 C   0  0  0  0  0  0  0  0  0  0  0  0
   -1.0331   -0.2356    0.1853 C   0  0  1  0  0  0  0  0  0  0  0  0
   -0.3575    0.9427   -0.5188 C   0  0  1  0  0  0  0  0  0  0  0  0
   -1.0833    2.2368   -0.2279 C   0  0  0  0  0  0  0  0  0  0  0  0
   -2.4414    2.1189   -0.9341 C   0  0  0  0  0  0  0  0  0  0  0  0
   -3.1523    1.0185   -0.1896 C   0  0  0  0  0  0  0  0  0  0  0  0
   -4.3636    1.2797    0.2724 C   0  0  0  0  0  0  0  0  0  0  0  0
   -5.1524    0.3052    1.0056 C   0  0  0  0  0  0  0  0  0  0  0  0
   -6.2454    0.6010    1.5531 O   0  0  0  0  0  0  0  0  0  0  0  0
   -4.6065   -1.0872    1.0864 C   0  0  0  0  0  0  0  0  0  0  0  0
   -3.1075   -0.9498    1.2164 C   0  0  0  0  0  0  0  0  0  0  0  0
   -2.5019   -0.2766   -0.0014 C   0  0  2  0  0  0  0  0  0  0  0  0
   -2.8866   -1.1588   -1.1957 C   0  0  0  0  0  0  0  0  0  0  0  0
    1.0361    0.9335   -0.0377 C   0  0  2  0  0  0  0  0  0  0  0  0
    1.9344    2.0327   -0.4793 C   0  0  0  0  0  0  0  0  0  0  0  0
    3.3349    1.4481   -0.2451 C   0  0  0  0  0  0  0  0  0  0  0  0
    3.1101    0.0052    0.1518 C   0  0  1  0  0  0  0  0  0  0  0  0
    2.9327   -0.1033    1.5456 O   0  0  0  0  0  0  0  0  0  0  0  0
    4.2170   -0.8418   -0.3123 C   0  0  0  0  0  0  0  0  0  0  0  0
    4.5508   -0.8160   -1.4773 O   0  0  0  0  0  0  0  0  0  0  0  0
    4.9871   -1.7610    0.5676 C   0  0  0  0  0  0  0  0  0  0  0  0
    4.5857   -1.7688    1.8803 O   0  0  0  0  0  0  0  0  0  0  0  0
    2.6990    0.4285   -2.4019 H   0  0  0  0  0  0  0  0  0  0  0  0
    1.0371   -0.1013   -2.5691 H   0  0  0  0  0  0  0  0  0  0  0  0
    2.3332   -1.3378   -2.2848 H   0  0  0  0  0  0  0  0  0  0  0  0
    1.2064   -1.4643    1.1364 H   0  0  0  0  0  0  0  0  0  0  0  0
    1.5458   -2.4390   -0.3769 H   0  0  0  0  0  0  0  0  0  0  0  0
   -0.3786   -1.4112   -1.4898 H   0  0  0  0  0  0  0  0  0  0  0  0
   -0.8808   -2.3764   -0.0350 H   0  0  0  0  0  0  0  0  0  0  0  0
   -0.7309   -0.1886    1.2520 H   0  0  0  0  0  0  0  0  0  0  0  0
   -0.5110    0.7570   -1.6010 H   0  0  0  0  0  0  0  0  0  0  0  0
   -0.4912    3.0543   -0.6389 H   0  0  0  0  0  0  0  0  0  0  0  0
   -1.2897    2.3260    0.8602 H   0  0  0  0  0  0  0  0  0  0  0  0
   -2.2123    1.7801   -1.9648 H   0  0  0  0  0  0  0  0  0  0  0  0
   -2.9831    3.0663   -0.8798 H   0  0  0  0  0  0  0  0  0  0  0  0
   -4.8181    2.2655    0.1105 H   0  0  0  0  0  0  0  0  0  0  0  0
   -4.9266   -1.6740    0.2267 H   0  0  0  0  0  0  0  0  0  0  0  0
   -4.9651   -1.5296    2.0449 H   0  0  0  0  0  0  0  0  0  0  0  0
   -2.8917   -0.3284    2.0958 H   0  0  0  0  0  0  0  0  0  0  0  0
   -2.6668   -1.9663    1.2644 H   0  0  0  0  0  0  0  0  0  0  0  0
   -3.9676   -0.9929   -1.4399 H   0  0  0  0  0  0  0  0  0  0  0  0
   -2.7480   -2.2039   -0.8565 H   0  0  0  0  0  0  0  0  0  0  0  0
   -2.2684   -0.9264   -2.0851 H   0  0  0  0  0  0  0  0  0  0  0  0
    1.0416    0.8885    1.0583 H   0  0  0  0  0  0  0  0  0  0  0  0
    1.8206    2.8814    0.2270 H   0  0  0  0  0  0  0  0  0  0  0  0
    1.7952    2.3609   -1.5110 H   0  0  0  0  0  0  0  0  0  0  0  0
    3.8400    1.9528    0.6030 H   0  0  0  0  0  0  0  0  0  0  0  0
    3.8745    1.5467   -1.1921 H   0  0  0  0  0  0  0  0  0  0  0  0
    3.0501    0.7825    1.9796 H   0  0  0  0  0  0  0  0  0  0  0  0
    4.9351   -2.8068    0.1887 H   0  0  0  0  0  0  0  0  0  0  0  0
    6.0576   -1.4009    0.5560 H   0  0  0  0  0  0  0  0  0  0  0  0
    5.2006   -1.3010    2.5028 H   0  0  0  0  0  0  0  0  0  0  0  0
  2  1  1  6
  2  3  1  0
  3  4  1  0
  4  5  1  0
  5  6  1  0
  6  7  1  0
  7  8  1  0
  8  9  1  0
  9 10  2  0
 10 11  1  0
 11 12  2  0
 11 13  1  0
 13 14  1  0
 14 15  1  0
 15 16  1  6
  6 17  1  0
 17 18  1  0
 18 19  1  0
 19 20  1  0
 20 21  1  1
 20 22  1  0
 22 23  2  0
 22 24  1  0
 24 25  1  0
 17  2  1  0
 20  2  1  0
 15  5  1  0
 15  9  1  0
  1 26  1  0
  1 27  1  0
  1 28  1  0
  3 29  1  0
  3 30  1  0
  4 31  1  0
  4 32  1  0
  5 33  1  1
  6 34  1  6
  7 35  1  0
  7 36  1  0
  8 37  1  0
  8 38  1  0
 10 39  1  0
 13 40  1  0
 13 41  1  0
 14 42  1  0
 14 43  1  0
 16 44  1  0
 16 45  1  0
 16 46  1  0
 17 47  1  1
 18 48  1  0
 18 49  1  0
 19 50  1  0
 19 51  1  0
 21 52  1  0
 24 53  1  0
 24 54  1  0
 25 55  1  0
M  END
$$$$
[H]c1c([H])c2c(c([H])c1Br)C([H])([H])C([H])([H])[C@]([H])(N1C([H])([H])C([H])([H])C([H])([H])[C@@]([H])(C([H])(C([H])([H])[H])C([H])([H])[H])C1([H])[H])N2[H]
     RDKit          3D

 45 47  0  0  0  0  0  0  0  0999 V2000
   -4.2119    0.5850   -1.7876 C   0  0  0  0  0  0  0  0  0  0  0  0
   -2.7475    0.4417   -1.3641 C   0  0  0  0  0  0  0  0  0  0  0  0
   -2.3911    1.6396   -0.5754 C   0  0  0  0  0  0  0  0  0  0  0  0
   -2.4958   -0.8895   -0.7145 C   0  0  2  0  0  0  0  0  0  0  0  0
   -3.2942   -1.1498    0.5109 C   0  0  0  0  0  0  0  0  0  0  0  0
   -2.6590   -0.7803    1.7974 C   0  0  0  0  0  0  0  0  0  0  0  0
   -1.1965   -0.5985    1.7847 C   0  0  0  0  0  0  0  0  0  0  0  0
   -0.4599   -1.0917    0.7019 N   0  0  0  0  0  0  0  0  0  0  0  0
   -1.0399   -1.1742   -0.5770 C   0  0  0  0  0  0  0  0  0  0  0  0
    0.8046   -0.4222    0.6191 C   0  0  1  0  0  0  0  0  0  0  0  0
    1.7024   -0.6232    1.8088 C   0  0  0  0  0  0  0  0  0  0  0  0
    2.6845    0.5568    1.7885 C   0  0  0  0  0  0  0  0  0  0  0  0
    3.4057    0.4815    0.4796 C   0  0  0  0  0  0  0  0  0  0  0  0
    4.6425    1.0953    0.4433 C   0  0  0  0  0  0  0  0  0  0  0  0
    5.3518    1.0564   -0.7388 C   0  0  0  0  0  0  0  0  0  0  0  0
    7.0662    1.9184   -0.7570 Br  0  0  0  0  0  0  0  0  0  0  0  0
    4.8374    0.4212   -1.8521 C   0  0  0  0  0  0  0  0  0  0  0  0
    3.6017   -0.1883   -1.8045 C   0  0  0  0  0  0  0  0  0  0  0  0
    2.8675   -0.1648   -0.6310 C   0  0  0  0  0  0  0  0  0  0  0  0
    1.5906   -0.7789   -0.5414 N   0  0  0  0  0  0  0  0  0  0  0  0
   -4.7587    0.8665   -0.8588 H   0  0  0  0  0  0  0  0  0  0  0  0
   -4.3116    1.4414   -2.4796 H   0  0  0  0  0  0  0  0  0  0  0  0
   -4.6011   -0.3665   -2.1960 H   0  0  0  0  0  0  0  0  0  0  0  0
   -2.1600    0.4586   -2.3063 H   0  0  0  0  0  0  0  0  0  0  0  0
   -2.9812    1.7837    0.3516 H   0  0  0  0  0  0  0  0  0  0  0  0
   -2.6768    2.5274   -1.2187 H   0  0  0  0  0  0  0  0  0  0  0  0
   -1.2965    1.7835   -0.4067 H   0  0  0  0  0  0  0  0  0  0  0  0
   -2.8767   -1.6273   -1.4920 H   0  0  0  0  0  0  0  0  0  0  0  0
   -3.5060   -2.2606    0.5555 H   0  0  0  0  0  0  0  0  0  0  0  0
   -4.3121   -0.6980    0.3685 H   0  0  0  0  0  0  0  0  0  0  0  0
   -2.9985   -1.4967    2.6054 H   0  0  0  0  0  0  0  0  0  0  0  0
   -3.1239    0.1942    2.1351 H   0  0  0  0  0  0  0  0  0  0  0  0
   -0.8986    0.4821    1.9423 H   0  0  0  0  0  0  0  0  0  0  0  0
   -0.7948   -1.0930    2.7224 H   0  0  0  0  0  0  0  0  0  0  0  0
   -0.7719   -2.1949   -0.9916 H   0  0  0  0  0  0  0  0  0  0  0  0
   -0.5113   -0.4780   -1.2971 H   0  0  0  0  0  0  0  0  0  0  0  0
    0.6024    0.6744    0.5365 H   0  0  0  0  0  0  0  0  0  0  0  0
    2.3285   -1.5297    1.6328 H   0  0  0  0  0  0  0  0  0  0  0  0
    1.1990   -0.7079    2.7674 H   0  0  0  0  0  0  0  0  0  0  0  0
    3.3678    0.5289    2.6521 H   0  0  0  0  0  0  0  0  0  0  0  0
    2.0602    1.4726    1.7507 H   0  0  0  0  0  0  0  0  0  0  0  0
    5.0438    1.5980    1.3322 H   0  0  0  0  0  0  0  0  0  0  0  0
    5.4430    0.4280   -2.7427 H   0  0  0  0  0  0  0  0  0  0  0  0
    3.1842   -0.6893   -2.6665 H   0  0  0  0  0  0  0  0  0  0  0  0
    1.2917   -1.4319   -1.2873 H   0  0  0  0  0  0  0  0  0  0  0  0
  1  2  1  0
  2  3  1  0
  2  4  1  0
  4  5  1  0
  5  6  1  0
  6  7  1  0
  7  8  1  0
  8  9  1  0
  8 10  1  0
 10 11  1  0
 11 12  1  0
 12 13  1  0
 13 14  2  0
 14 15  1  0
 15 16  1  0
 15 17  2  0
 17 18  1  0
 18 19  2  0
 19 20  1  0
  9  4  1  0
 20 10  1  0
 19 13  1  0
  1 21  1  0
  1 22  1  0
  1 23  1  0
  2 24  1  0
  3 25  1  0
  3 26  1  0
  3 27  1  0
  4 28  1  6
  5 29  1  0
  5 30  1  0
  6 31  1  0
  6 32  1  0
  7 33  1  0
  7 34  1  0
  9 35  1  0
  9 36  1  0
 10 37  1  6
 11 38  1  0
 11 39  1  0
 12 40  1  0
 12 41  1  0
 14 42  1  0
 17 43  1  0
 18 44  1  0
 20 45  1  0
M  END
$$$$
[H]OC(=O)C([H])([H])Oc1c(N2C([H])([H])C([H])([H])N(C([H])([H])[H])C([H])([H])C2([H])[H])nc(C([H])([H])[H])c([H])c1C([H])([H])n1c([H])c([H])c([H])c1[H]
     RDKit          3D

 49 51  0  0  0  0  0  0  0  0999 V2000
   -5.4865   -0.8388   -0.4223 C   0  0  0  0  0  0  0  0  0  0  0  0
   -4.6852    0.3254   -0.0969 N   0  0  0  0  0  0  0  0  0  0  0  0
   -3.8797    0.7229   -1.1888 C   0  0  0  0  0  0  0  0  0  0  0  0
   -2.5428    1.2115   -0.7435 C   0  0  0  0  0  0  0  0  0  0  0  0
   -1.9241    0.1992    0.0628 N   0  0  0  0  0  0  0  0  0  0  0  0
   -2.6849   -0.3090    1.1813 C   0  0  0  0  0  0  0  0  0  0  0  0
   -4.0892    0.2594    1.1888 C   0  0  0  0  0  0  0  0  0  0  0  0
   -0.6262   -0.2691   -0.2244 C   0  0  0  0  0  0  0  0  0  0  0  0
   -0.5673   -1.4380   -0.9355 N   0  0  0  0  0  0  0  0  0  0  0  0
    0.5622   -2.0366   -1.3018 C   0  0  0  0  0  0  0  0  0  0  0  0
    0.5950   -3.3027   -2.0785 C   0  0  0  0  0  0  0  0  0  0  0  0
    1.7436   -1.3919   -0.9108 C   0  0  0  0  0  0  0  0  0  0  0  0
    1.7482   -0.2364   -0.2066 C   0  0  0  0  0  0  0  0  0  0  0  0
    3.0092    0.4065    0.2074 C   0  0  0  0  0  0  0  0  0  0  0  0
    4.1182   -0.5236    0.1898 N   0  0  0  0  0  0  0  0  0  0  0  0
    4.9868   -0.8058   -0.8050 C   0  0  0  0  0  0  0  0  0  0  0  0
    5.8958   -1.7468   -0.4452 C   0  0  0  0  0  0  0  0  0  0  0  0
    5.5914   -2.0884    0.8597 C   0  0  0  0  0  0  0  0  0  0  0  0
    4.5066   -1.3295    1.2196 C   0  0  0  0  0  0  0  0  0  0  0  0
    0.5373    0.3612    0.1572 C   0  0  0  0  0  0  0  0  0  0  0  0
    0.5490    1.5419    0.8739 O   0  0  0  0  0  0  0  0  0  0  0  0
    0.6242    2.8362    0.3712 C   0  0  0  0  0  0  0  0  0  0  0  0
    0.6170    3.8549    1.4773 C   0  0  0  0  0  0  0  0  0  0  0  0
    0.6483    5.1990    1.1622 O   0  0  0  0  0  0  0  0  0  0  0  0
    0.5826    3.5249    2.6852 O   0  0  0  0  0  0  0  0  0  0  0  0
   -6.2539   -0.9766    0.3745 H   0  0  0  0  0  0  0  0  0  0  0  0
   -4.8580   -1.7416   -0.5287 H   0  0  0  0  0  0  0  0  0  0  0  0
   -5.9977   -0.6197   -1.3793 H   0  0  0  0  0  0  0  0  0  0  0  0
   -4.3823    1.5545   -1.7537 H   0  0  0  0  0  0  0  0  0  0  0  0
   -3.8123   -0.1091   -1.9346 H   0  0  0  0  0  0  0  0  0  0  0  0
   -1.9034    1.5330   -1.5925 H   0  0  0  0  0  0  0  0  0  0  0  0
   -2.7283    2.0970   -0.0650 H   0  0  0  0  0  0  0  0  0  0  0  0
   -2.6404   -1.4003    1.2854 H   0  0  0  0  0  0  0  0  0  0  0  0
   -2.1784    0.1090    2.1038 H   0  0  0  0  0  0  0  0  0  0  0  0
   -4.6833   -0.3638    1.8852 H   0  0  0  0  0  0  0  0  0  0  0  0
   -4.0369    1.2770    1.6359 H   0  0  0  0  0  0  0  0  0  0  0  0
    1.5645   -3.8177   -1.9746 H   0  0  0  0  0  0  0  0  0  0  0  0
    0.3937   -3.0098   -3.1444 H   0  0  0  0  0  0  0  0  0  0  0  0
   -0.2678   -3.9146   -1.7564 H   0  0  0  0  0  0  0  0  0  0  0  0
    2.6588   -1.9166   -1.2301 H   0  0  0  0  0  0  0  0  0  0  0  0
    3.2133    1.1947   -0.5759 H   0  0  0  0  0  0  0  0  0  0  0  0
    2.9111    0.8854    1.2110 H   0  0  0  0  0  0  0  0  0  0  0  0
    4.9303   -0.3165   -1.7669 H   0  0  0  0  0  0  0  0  0  0  0  0
    6.6853   -2.1322   -1.0715 H   0  0  0  0  0  0  0  0  0  0  0  0
    6.1197   -2.8167    1.4634 H   0  0  0  0  0  0  0  0  0  0  0  0
    3.9904   -1.3329    2.1867 H   0  0  0  0  0  0  0  0  0  0  0  0
    1.5940    3.0169   -0.1554 H   0  0  0  0  0  0  0  0  0  0  0  0
   -0.1602    3.0262   -0.3528 H   0  0  0  0  0  0  0  0  0  0  0  0
    0.0122    5.6482    0.5168 H   0  0  0  0  0  0  0  0  0  0  0  0
  1  2  1  0
  2  3  1  0
  3  4  1  0
  4  5  1  0
  5  6  1  0
  6  7  1  0
  5  8  1  0
  8  9  2  0
  9 10  1  0
 10 11  1  0
 10 12  2  0
 12 13  1  0
 13 14  1  0
 14 15  1  0
 15 16  1  0
 16 17  2  0
 17 18  1  0
 18 19  2  0
 13 20  2  0
 20 21  1  0
 21 22  1  0
 22 23  1  0
 23 24  1  0
 23 25  2  0
  7  2  1  0
 20  8  1  0
 19 15  1  0
  1 26  1  0
  1 27  1  0
  1 28  1  0
  3 29  1  0
  3 30  1  0
  4 31  1  0
  4 32  1  0
  6 33  1  0
  6 34  1  0
  7 35  1  0
  7 36  1  0
 11 37  1  0
 11 38  1  0
 11 39  1  0
 12 40  1  0
 14 41  1  0
 14 42  1  0
 16 43  1  0
 17 44  1  0
 18 45  1  0
 19 46  1  0
 22 47  1  0
 22 48  1  0
 24 49  1  0
M  END
$$$$
[H]OC(=O)C([H])([H])[C@@]([H])(C(=O)N([H])[C@]([H])(C(=O)N1C([H])([H])C([H])([H])C([H])([H])[C@@]1([H])C(=O)N([H])[C@]([H])(C(=O)C([H])([H])[H])C([H])([H])[H])C([H])([H])c1c([H])c([H])c([H])c([H])c1[H])N([H])C(=O)[C@@]([H])(N([H])C(=O)[C@]([H])(N([H])C(=O)[C@@]([H])(N([H])C(=O)[C@]([H])(N([H])C(=O)[C@@]([H])(N([H])C(=O)[C@@]([H])(N([H])C(=O)C([H])([H])[H])C([H])([H])[H])C([H])([H])[H])C([H])([H])[H])C([H])([H])c1c([H])c([H])c([H])c([H])c1[H])C([H])([H])[H])C([H])([H])c1c([H])c([H])c([H])c([H])c1[H]
     RDKit          3D

147150  0  0  0  0  0  0  0  0999 V2000
   -9.9289   -5.0724    1.4762 C   0  0  0  0  0  0  0  0  0  0  0  0
  -10.9376   -4.3530    0.6709 C   0  0  2  0  0  0  0  0  0  0  0  0
  -10.7073   -2.9614    0.4312 N   0  0  0  0  0  0  0  0  0  0  0  0
  -11.6004   -1.8610    0.4778 C   0  0  0  0  0  0  0  0  0  0  0  0
  -12.8273   -2.0579    0.8015 O   0  0  0  0  0  0  0  0  0  0  0  0
  -11.1727   -0.4997    0.1810 C   0  0  2  0  0  0  0  0  0  0  0  0
  -12.4086    0.3999    0.1326 C   0  0  0  0  0  0  0  0  0  0  0  0
  -12.2196    1.1844   -1.1632 C   0  0  0  0  0  0  0  0  0  0  0  0
  -11.6248    0.0511   -1.9905 C   0  0  0  0  0  0  0  0  0  0  0  0
  -10.4646   -0.2358   -1.0298 N   0  0  0  0  0  0  0  0  0  0  0  0
   -9.1582   -0.0771   -1.4277 C   0  0  0  0  0  0  0  0  0  0  0  0
   -9.0325    0.0983   -2.7751 O   0  0  0  0  0  0  0  0  0  0  0  0
   -7.8908   -0.0379   -0.7985 C   0  0  2  0  0  0  0  0  0  0  0  0
   -7.7260    0.9880    0.3284 C   0  0  0  0  0  0  0  0  0  0  0  0
   -7.9862    2.3963    0.0163 C   0  0  0  0  0  0  0  0  0  0  0  0
   -8.8066    3.0887    0.9106 C   0  0  0  0  0  0  0  0  0  0  0  0
   -9.1330    4.3887    0.7828 C   0  0  0  0  0  0  0  0  0  0  0  0
   -8.6605    5.0845   -0.2716 C   0  0  0  0  0  0  0  0  0  0  0  0
   -7.8573    4.4564   -1.1887 C   0  0  0  0  0  0  0  0  0  0  0  0
   -7.5225    3.0938   -1.0317 C   0  0  0  0  0  0  0  0  0  0  0  0
   -6.7401    0.3423   -1.7244 N   0  0  0  0  0  0  0  0  0  0  0  0
   -5.4623    0.1679   -1.3044 C   0  0  0  0  0  0  0  0  0  0  0  0
   -5.3772   -0.4643   -0.1014 O   0  0  0  0  0  0  0  0  0  0  0  0
   -4.1318    0.5141   -1.8182 C   0  0  2  0  0  0  0  0  0  0  0  0
   -3.7936    0.2004   -3.2297 C   0  0  0  0  0  0  0  0  0  0  0  0
   -4.7136    1.0127   -4.1513 C   0  0  0  0  0  0  0  0  0  0  0  0
   -4.6129    2.4137   -4.0303 O   0  0  0  0  0  0  0  0  0  0  0  0
   -5.4709    0.4967   -4.9314 O   0  0  0  0  0  0  0  0  0  0  0  0
   -3.1681    0.2339   -0.8135 N   0  0  0  0  0  0  0  0  0  0  0  0
   -1.9461    0.8789   -0.5792 C   0  0  0  0  0  0  0  0  0  0  0  0
   -1.4682    1.7285   -1.3312 O   0  0  0  0  0  0  0  0  0  0  0  0
   -1.3190    0.3914    0.7206 C   0  0  2  0  0  0  0  0  0  0  0  0
   -2.0304    1.1550    1.8489 C   0  0  0  0  0  0  0  0  0  0  0  0
   -1.8032    2.5915    1.7557 C   0  0  0  0  0  0  0  0  0  0  0  0
   -0.7821    3.1876    2.4501 C   0  0  0  0  0  0  0  0  0  0  0  0
   -0.4432    4.5453    2.3926 C   0  0  0  0  0  0  0  0  0  0  0  0
   -1.2376    5.3345    1.5500 C   0  0  0  0  0  0  0  0  0  0  0  0
   -2.2660    4.7856    0.8450 C   0  0  0  0  0  0  0  0  0  0  0  0
   -2.5535    3.4306    0.9406 C   0  0  0  0  0  0  0  0  0  0  0  0
    0.0676    0.4319    0.8279 N   0  0  0  0  0  0  0  0  0  0  0  0
    0.9646   -0.2811   -0.0729 C   0  0  0  0  0  0  0  0  0  0  0  0
    0.4042   -0.8200   -1.0221 O   0  0  0  0  0  0  0  0  0  0  0  0
    2.3557   -0.2480    0.2692 C   0  0  1  0  0  0  0  0  0  0  0  0
    2.6848   -1.8010    0.5683 C   0  0  0  0  0  0  0  0  0  0  0  0
    3.4023    0.1621   -0.6320 N   0  0  0  0  0  0  0  0  0  0  0  0
    4.5178    0.7447    0.0987 C   0  0  0  0  0  0  0  0  0  0  0  0
    4.2955    0.7956    1.3647 O   0  0  0  0  0  0  0  0  0  0  0  0
    5.7719    1.2193   -0.3996 C   0  0  2  0  0  0  0  0  0  0  0  0
    6.2913    0.5333   -1.6598 C   0  0  0  0  0  0  0  0  0  0  0  0
    6.3216   -0.9195   -1.6350 C   0  0  0  0  0  0  0  0  0  0  0  0
    6.8165   -1.6488   -0.5993 C   0  0  0  0  0  0  0  0  0  0  0  0
    6.8917   -3.0434   -0.6529 C   0  0  0  0  0  0  0  0  0  0  0  0
    6.4440   -3.6438   -1.7905 C   0  0  0  0  0  0  0  0  0  0  0  0
    5.9386   -2.9468   -2.8584 C   0  0  0  0  0  0  0  0  0  0  0  0
    5.8752   -1.5694   -2.7670 C   0  0  0  0  0  0  0  0  0  0  0  0
    6.7421    1.3356    0.6639 N   0  0  0  0  0  0  0  0  0  0  0  0
    7.7730    2.2393    0.7223 C   0  0  0  0  0  0  0  0  0  0  0  0
    8.0611    3.1181   -0.0490 O   0  0  0  0  0  0  0  0  0  0  0  0
    8.7514    2.0618    1.9689 C   0  0  1  0  0  0  0  0  0  0  0  0
    8.0940    2.6222    3.1342 C   0  0  0  0  0  0  0  0  0  0  0  0
    9.2355    0.8196    1.8263 N   0  0  0  0  0  0  0  0  0  0  0  0
    9.7429   -0.5049    1.6825 C   0  0  0  0  0  0  0  0  0  0  0  0
    9.3323   -1.4866    2.3153 O   0  0  0  0  0  0  0  0  0  0  0  0
   10.8129   -0.6495    0.6916 C   0  0  2  0  0  0  0  0  0  0  0  0
   10.3441   -0.0482   -0.6627 C   0  0  0  0  0  0  0  0  0  0  0  0
   11.5416   -1.7651    0.3055 N   0  0  0  0  0  0  0  0  0  0  0  0
   12.9353   -1.7994    0.6982 C   0  0  0  0  0  0  0  0  0  0  0  0
   13.3596   -0.9869    1.5085 O   0  0  0  0  0  0  0  0  0  0  0  0
   13.8625   -2.8253    0.0605 C   0  0  2  0  0  0  0  0  0  0  0  0
   14.3250   -3.9403    0.8354 C   0  0  0  0  0  0  0  0  0  0  0  0
   15.0147   -1.7982   -0.1618 N   0  0  0  0  0  0  0  0  0  0  0  0
   14.6431   -0.8417   -1.2020 C   0  0  0  0  0  0  0  0  0  0  0  0
   15.5445    0.3016   -1.4485 C   0  0  0  0  0  0  0  0  0  0  0  0
   13.6091   -1.0034   -1.8204 O   0  0  0  0  0  0  0  0  0  0  0  0
  -12.3281   -4.7917    0.9366 C   0  0  0  0  0  0  0  0  0  0  0  0
  -12.3700   -5.5678    2.3042 C   0  0  0  0  0  0  0  0  0  0  0  0
  -13.3421   -4.6988    0.4301 O   0  0  0  0  0  0  0  0  0  0  0  0
  -10.0006   -6.1844    1.1902 H   0  0  0  0  0  0  0  0  0  0  0  0
  -10.1498   -5.0579    2.5912 H   0  0  0  0  0  0  0  0  0  0  0  0
   -8.9021   -4.7531    1.2481 H   0  0  0  0  0  0  0  0  0  0  0  0
  -10.8295   -4.8035   -0.4076 H   0  0  0  0  0  0  0  0  0  0  0  0
   -9.6994   -2.6960    0.1683 H   0  0  0  0  0  0  0  0  0  0  0  0
  -10.6105   -0.1113    1.0891 H   0  0  0  0  0  0  0  0  0  0  0  0
  -13.2853   -0.2404   -0.0212 H   0  0  0  0  0  0  0  0  0  0  0  0
  -12.4807    1.0753    0.9693 H   0  0  0  0  0  0  0  0  0  0  0  0
  -11.4455    1.9655   -1.0237 H   0  0  0  0  0  0  0  0  0  0  0  0
  -13.1211    1.5179   -1.6408 H   0  0  0  0  0  0  0  0  0  0  0  0
  -11.2680    0.3278   -2.9676 H   0  0  0  0  0  0  0  0  0  0  0  0
  -12.2471   -0.8340   -1.9431 H   0  0  0  0  0  0  0  0  0  0  0  0
   -7.5630   -1.0074   -0.3906 H   0  0  0  0  0  0  0  0  0  0  0  0
   -6.6966    0.9775    0.7901 H   0  0  0  0  0  0  0  0  0  0  0  0
   -8.3792    0.6339    1.1745 H   0  0  0  0  0  0  0  0  0  0  0  0
   -9.1993    2.5294    1.8059 H   0  0  0  0  0  0  0  0  0  0  0  0
   -9.7703    4.8913    1.5663 H   0  0  0  0  0  0  0  0  0  0  0  0
   -8.9003    6.1354   -0.3593 H   0  0  0  0  0  0  0  0  0  0  0  0
   -7.4812    5.0074   -2.0705 H   0  0  0  0  0  0  0  0  0  0  0  0
   -6.8790    2.7406   -1.8154 H   0  0  0  0  0  0  0  0  0  0  0  0
   -7.1026    0.6732   -2.6363 H   0  0  0  0  0  0  0  0  0  0  0  0
   -4.1154    1.7003   -1.8850 H   0  0  0  0  0  0  0  0  0  0  0  0
   -2.7496    0.5116   -3.4738 H   0  0  0  0  0  0  0  0  0  0  0  0
   -3.9577   -0.8347   -3.5234 H   0  0  0  0  0  0  0  0  0  0  0  0
   -3.7040    2.7655   -3.7392 H   0  0  0  0  0  0  0  0  0  0  0  0
   -3.4477   -0.5830   -0.1556 H   0  0  0  0  0  0  0  0  0  0  0  0
   -1.6597   -0.6665    0.7592 H   0  0  0  0  0  0  0  0  0  0  0  0
   -3.1206    0.8956    1.7314 H   0  0  0  0  0  0  0  0  0  0  0  0
   -1.7318    0.7603    2.8085 H   0  0  0  0  0  0  0  0  0  0  0  0
   -0.1509    2.5908    3.1107 H   0  0  0  0  0  0  0  0  0  0  0  0
    0.3332    5.0155    2.9392 H   0  0  0  0  0  0  0  0  0  0  0  0
   -1.0339    6.3917    1.4426 H   0  0  0  0  0  0  0  0  0  0  0  0
   -2.9081    5.3664    0.2055 H   0  0  0  0  0  0  0  0  0  0  0  0
   -3.3932    3.0275    0.3332 H   0  0  0  0  0  0  0  0  0  0  0  0
    0.5059    0.9942    1.5642 H   0  0  0  0  0  0  0  0  0  0  0  0
    2.4985    0.1546    1.3109 H   0  0  0  0  0  0  0  0  0  0  0  0
    2.3394   -2.0235    1.5731 H   0  0  0  0  0  0  0  0  0  0  0  0
    2.2307   -2.3991   -0.2299 H   0  0  0  0  0  0  0  0  0  0  0  0
    3.7844   -1.8471    0.4951 H   0  0  0  0  0  0  0  0  0  0  0  0
    3.3819    0.0832   -1.6156 H   0  0  0  0  0  0  0  0  0  0  0  0
    5.6726    2.3050   -0.7605 H   0  0  0  0  0  0  0  0  0  0  0  0
    5.7992    0.9748   -2.5833 H   0  0  0  0  0  0  0  0  0  0  0  0
    7.3806    0.8865   -1.7452 H   0  0  0  0  0  0  0  0  0  0  0  0
    7.1558   -1.1970    0.3008 H   0  0  0  0  0  0  0  0  0  0  0  0
    7.2902   -3.5684    0.2106 H   0  0  0  0  0  0  0  0  0  0  0  0
    6.4934   -4.7422   -1.8333 H   0  0  0  0  0  0  0  0  0  0  0  0
    5.5919   -3.4690   -3.7969 H   0  0  0  0  0  0  0  0  0  0  0  0
    5.4763   -0.9972   -3.6063 H   0  0  0  0  0  0  0  0  0  0  0  0
    6.6343    0.6310    1.4946 H   0  0  0  0  0  0  0  0  0  0  0  0
    9.5901    2.8521    1.7086 H   0  0  0  0  0  0  0  0  0  0  0  0
    7.3714    1.9990    3.6536 H   0  0  0  0  0  0  0  0  0  0  0  0
    7.5867    3.5960    2.8462 H   0  0  0  0  0  0  0  0  0  0  0  0
    8.8658    2.9383    3.9394 H   0  0  0  0  0  0  0  0  0  0  0  0
    8.3001    0.2896    2.6769 H   0  0  0  0  0  0  0  0  0  0  0  0
   11.6288    0.1693    1.0143 H   0  0  0  0  0  0  0  0  0  0  0  0
   10.3585   -0.8656   -1.4588 H   0  0  0  0  0  0  0  0  0  0  0  0
    9.3077    0.2570   -0.5658 H   0  0  0  0  0  0  0  0  0  0  0  0
   10.9969    0.7899   -0.9934 H   0  0  0  0  0  0  0  0  0  0  0  0
   11.1392   -2.5470   -0.2175 H   0  0  0  0  0  0  0  0  0  0  0  0
   13.4329   -3.0180   -0.9665 H   0  0  0  0  0  0  0  0  0  0  0  0
   14.2428   -4.8826    0.1953 H   0  0  0  0  0  0  0  0  0  0  0  0
   15.3891   -3.9088    1.2036 H   0  0  0  0  0  0  0  0  0  0  0  0
   13.6361   -4.1768    1.6963 H   0  0  0  0  0  0  0  0  0  0  0  0
   15.8443   -1.7867    0.3118 H   0  0  0  0  0  0  0  0  0  0  0  0
   15.6909    0.8753   -0.4915 H   0  0  0  0  0  0  0  0  0  0  0  0
   14.9572    1.0267   -2.1179 H   0  0  0  0  0  0  0  0  0  0  0  0
   16.4536    0.0375   -1.9340 H   0  0  0  0  0  0  0  0  0  0  0  0
  -13.4206   -5.7731    2.5197 H   0  0  0  0  0  0  0  0  0  0  0  0
  -12.0364   -4.8065    3.0613 H   0  0  0  0  0  0  0  0  0  0  0  0
  -11.6623   -6.3562    2.3345 H   0  0  0  0  0  0  0  0  0  0  0  0
  1  2  1  0
  2  3  1  0
  3  4  1  0
  4  5  2  0
  4  6  1  0
  6  7  1  0
  7  8  1  0
  8  9  1  0
  9 10  1  0
 10 11  1  0
 11 12  2  0
 11 13  1  0
 13 14  1  0
 14 15  1  0
 15 16  2  0
 16 17  1  0
 17 18  2  0
 18 19  1  0
 19 20  2  0
 13 21  1  0
 21 22  1  0
 22 23  2  0
 22 24  1  0
 24 25  1  0
 25 26  1  0
 26 27  1  0
 26 28  2  0
 24 29  1  0
 29 30  1  0
 30 31  2  0
 30 32  1  0
 32 33  1  0
 33 34  1  0
 34 35  2  0
 35 36  1  0
 36 37  2  0
 37 38  1  0
 38 39  2  0
 32 40  1  0
 40 41  1  0
 41 42  2  0
 41 43  1  0
 43 44  1  0
 43 45  1  0
 45 46  1  0
 46 47  2  0
 46 48  1  0
 48 49  1  0
 49 50  1  0
 50 51  2  0
 51 52  1  0
 52 53  2  0
 53 54  1  0
 54 55  2  0
 48 56  1  0
 56 57  1  0
 57 58  2  0
 57 59  1  0
 59 60  1  0
 59 61  1  0
 61 62  1  0
 62 63  2  0
 62 64  1  0
 64 65  1  0
 64 66  1  0
 66 67  1  0
 67 68  2  0
 67 69  1  0
 69 70  1  0
 69 71  1  0
 71 72  1  0
 72 73  1  0
 72 74  2  0
  2 75  1  0
 75 76  1  0
 75 77  2  0
 10  6  1  0
 20 15  1  0
 39 34  1  0
 55 50  1  0
  1 78  1  0
  1 79  1  0
  1 80  1  0
  2 81  1  6
  3 82  1  0
  6 83  1  1
  7 84  1  0
  7 85  1  0
  8 86  1  0
  8 87  1  0
  9 88  1  0
  9 89  1  0
 13 90  1  1
 14 91  1  0
 14 92  1  0
 16 93  1  0
 17 94  1  0
 18 95  1  0
 19 96  1  0
 20 97  1  0
 21 98  1  0
 24 99  1  6
 25100  1  0
 25101  1  0
 27102  1  0
 29103  1  0
 32104  1  1
 33105  1  0
 33106  1  0
 35107  1  0
 36108  1  0
 37109  1  0
 38110  1  0
 39111  1  0
 40112  1  0
 43113  1  1
 44114  1  0
 44115  1  0
 44116  1  0
 45117  1  0
 48118  1  6
 49119  1  0
 49120  1  0
 51121  1  0
 52122  1  0
 53123  1  0
 54124  1  0
 55125  1  0
 56126  1  0
 59127  1  6
 60128  1  0
 60129  1  0
 60130  1  0
 61131  1  0
 64132  1  1
 65133  1  0
 65134  1  0
 65135  1  0
 66136  1  0
 69137  1  6
 70138  1  0
 70139  1  0
 70140  1  0
 71141  1  0
 73142  1  0
 73143  1  0
 73144  1  0
 76145  1  0
 76146  1  0
 76147  1  0
M  END
$$$$
[H]c1c([H])c([C@]([H])(N([H])[C@]([H])(C(=O)N([H])C2(C#N)C([H])([H])C2([H])[H])C([H])([H])C(F)(C([H])([H])[H])C([H])([H])[H])C(F)(F)F)c([H])c([H])c1-c1c([H])c([H])c(S(=O)(=O)C([H])([H])[H])c([H])c1[H]
     RDKit          3D

 63 65  0  0  0  0  0  0  0  0999 V2000
   -5.5217   -3.0463    0.8900 C   0  0  0  0  0  0  0  0  0  0  0  0
   -4.8726   -2.3416   -0.2940 C   0  0  0  0  0  0  0  0  0  0  0  0
   -4.0963   -3.4074   -1.0477 C   0  0  0  0  0  0  0  0  0  0  0  0
   -5.8265   -1.7196   -1.0096 F   0  0  0  0  0  0  0  0  0  0  0  0
   -3.8515   -1.3886    0.3765 C   0  0  0  0  0  0  0  0  0  0  0  0
   -3.0918   -0.6408   -0.6035 C   0  0  2  0  0  0  0  0  0  0  0  0
   -1.9731    0.2089   -0.1867 N   0  0  0  0  0  0  0  0  0  0  0  0
   -0.9952   -0.3439    0.6324 C   0  0  1  0  0  0  0  0  0  0  0  0
    0.4306   -0.1060    0.3006 C   0  0  0  0  0  0  0  0  0  0  0  0
    1.0668    1.0952    0.5097 C   0  0  0  0  0  0  0  0  0  0  0  0
    2.4224    1.2414    0.2658 C   0  0  0  0  0  0  0  0  0  0  0  0
    3.1869    0.1879   -0.2047 C   0  0  0  0  0  0  0  0  0  0  0  0
    2.5858   -1.0182   -0.4338 C   0  0  0  0  0  0  0  0  0  0  0  0
    1.2300   -1.1536   -0.1791 C   0  0  0  0  0  0  0  0  0  0  0  0
    4.6317    0.3314   -0.2876 C   0  0  0  0  0  0  0  0  0  0  0  0
    5.4677   -0.2262   -1.2066 C   0  0  0  0  0  0  0  0  0  0  0  0
    6.8412   -0.0632   -1.0946 C   0  0  0  0  0  0  0  0  0  0  0  0
    7.4003    0.6617   -0.0580 C   0  0  0  0  0  0  0  0  0  0  0  0
    6.5471    1.2325    0.8810 C   0  0  0  0  0  0  0  0  0  0  0  0
    5.2057    1.0649    0.7594 C   0  0  0  0  0  0  0  0  0  0  0  0
    9.1325    0.8759    0.1097 S   0  0  0  0  0  0  0  0  0  0  0  0
    9.8787   -0.7200    0.3342 C   0  0  0  0  0  0  0  0  0  0  0  0
    9.3557    1.6858    1.3860 O   0  0  0  0  0  0  0  0  0  0  0  0
    9.7441    1.6030   -1.0370 O   0  0  0  0  0  0  0  0  0  0  0  0
   -1.2158    0.0336    2.0824 C   0  0  0  0  0  0  0  0  0  0  0  0
   -1.2196    1.4422    2.2127 F   0  0  0  0  0  0  0  0  0  0  0  0
   -0.0386   -0.3118    2.8099 F   0  0  0  0  0  0  0  0  0  0  0  0
   -2.2841   -0.4045    2.7374 F   0  0  0  0  0  0  0  0  0  0  0  0
   -3.9504    0.5741   -1.1480 C   0  0  0  0  0  0  0  0  0  0  0  0
   -4.0400    0.6393   -2.3609 O   0  0  0  0  0  0  0  0  0  0  0  0
   -4.4743    1.4517   -0.2363 N   0  0  0  0  0  0  0  0  0  0  0  0
   -5.1911    2.6359   -0.1628 C   0  0  0  0  0  0  0  0  0  0  0  0
   -6.5752    2.9132   -0.6981 C   0  0  0  0  0  0  0  0  0  0  0  0
   -6.3560    2.7663    0.7742 C   0  0  0  0  0  0  0  0  0  0  0  0
   -4.3122    3.8614   -0.1685 C   0  0  0  0  0  0  0  0  0  0  0  0
   -3.6157    4.7866   -0.1649 N   0  0  0  0  0  0  0  0  0  0  0  0
   -6.1474   -2.3250    1.4119 H   0  0  0  0  0  0  0  0  0  0  0  0
   -6.1674   -3.8465    0.4757 H   0  0  0  0  0  0  0  0  0  0  0  0
   -4.7321   -3.4955    1.5478 H   0  0  0  0  0  0  0  0  0  0  0  0
   -4.0436   -3.2377   -2.1336 H   0  0  0  0  0  0  0  0  0  0  0  0
   -4.5851   -4.3790   -0.8599 H   0  0  0  0  0  0  0  0  0  0  0  0
   -3.0748   -3.4618   -0.6081 H   0  0  0  0  0  0  0  0  0  0  0  0
   -3.2118   -2.1242    0.9267 H   0  0  0  0  0  0  0  0  0  0  0  0
   -4.4721   -0.8569    1.1135 H   0  0  0  0  0  0  0  0  0  0  0  0
   -2.7609   -1.2376   -1.4521 H   0  0  0  0  0  0  0  0  0  0  0  0
   -1.5181    0.4756   -1.1116 H   0  0  0  0  0  0  0  0  0  0  0  0
   -1.0670   -1.5092    0.5957 H   0  0  0  0  0  0  0  0  0  0  0  0
    0.5213    1.9563    0.8577 H   0  0  0  0  0  0  0  0  0  0  0  0
    2.9477    2.1793    0.4241 H   0  0  0  0  0  0  0  0  0  0  0  0
    3.1646   -1.8663   -0.8182 H   0  0  0  0  0  0  0  0  0  0  0  0
    0.7385   -2.0907   -0.3610 H   0  0  0  0  0  0  0  0  0  0  0  0
    5.0502   -0.8068   -2.0380 H   0  0  0  0  0  0  0  0  0  0  0  0
    7.4920   -0.5161   -1.8452 H   0  0  0  0  0  0  0  0  0  0  0  0
    6.9880    1.8060    1.7014 H   0  0  0  0  0  0  0  0  0  0  0  0
    4.5314    1.5208    1.5082 H   0  0  0  0  0  0  0  0  0  0  0  0
    9.8989   -1.2329   -0.6638 H   0  0  0  0  0  0  0  0  0  0  0  0
    9.2566   -1.3435    0.9871 H   0  0  0  0  0  0  0  0  0  0  0  0
   10.8988   -0.6539    0.7781 H   0  0  0  0  0  0  0  0  0  0  0  0
   -4.2736    1.0911    0.8259 H   0  0  0  0  0  0  0  0  0  0  0  0
   -7.1874    2.1342   -1.1750 H   0  0  0  0  0  0  0  0  0  0  0  0
   -6.8041    3.9747   -1.0278 H   0  0  0  0  0  0  0  0  0  0  0  0
   -6.3700    3.6269    1.4597 H   0  0  0  0  0  0  0  0  0  0  0  0
   -6.6983    1.8175    1.2621 H   0  0  0  0  0  0  0  0  0  0  0  0
  1  2  1  0
  2  3  1  0
  2  4  1  0
  2  5  1  0
  5  6  1  0
  6  7  1  0
  7  8  1  0
  8  9  1  0
  9 10  2  0
 10 11  1  0
 11 12  2  0
 12 13  1  0
 13 14  2  0
 12 15  1  0
 15 16  2  0
 16 17  1  0
 17 18  2  0
 18 19  1  0
 19 20  2  0
 18 21  1  0
 21 22  1  0
 21 23  2  0
 21 24  2  0
  8 25  1  0
 25 26  1  0
 25 27  1  0
 25 28  1  0
  6 29  1  0
 29 30  2  0
 29 31  1  0
 31 32  1  0
 32 33  1  0
 33 34  1  0
 32 35  1  0
 35 36  3  0
 14  9  1  0
 20 15  1  0
 34 32  1  0
  1 37  1  0
  1 38  1  0
  1 39  1  0
  3 40  1  0
  3 41  1  0
  3 42  1  0
  5 43  1  0
  5 44  1  0
  6 45  1  6
  7 46  1  0
  8 47  1  1
 10 48  1  0
 11 49  1  0
 13 50  1  0
 14 51  1  0
 16 52  1  0
 17 53  1  0
 19 54  1  0
 20 55  1  0
 22 56  1  0
 22 57  1  0
 22 58  1  0
 31 59  1  0
 33 60  1  0
 33 61  1  0
 34 62  1  0
 34 63  1  0
M  END
$$$$
[H]c1nc(-c2c([H])c([H])c3nc(N([H])C(=O)c4c([H])c(OC([H])([H])[H])c([H])c([H])c4F)n([H])c3c2[H])c([H])c([H])c1[H]
     RDKit          3D

 42 45  0  0  0  0  0  0  0  0999 V2000
   -6.4171    1.7208    2.3343 C   0  0  0  0  0  0  0  0  0  0  0  0
   -7.0383    0.7878    1.4729 O   0  0  0  0  0  0  0  0  0  0  0  0
   -6.2507   -0.0244    0.6420 C   0  0  0  0  0  0  0  0  0  0  0  0
   -6.8999   -0.9132   -0.1752 C   0  0  0  0  0  0  0  0  0  0  0  0
   -6.1732   -1.7255   -1.0018 C   0  0  0  0  0  0  0  0  0  0  0  0
   -4.7878   -1.6173   -0.9813 C   0  0  0  0  0  0  0  0  0  0  0  0
   -4.1402   -2.4727   -1.8051 F   0  0  0  0  0  0  0  0  0  0  0  0
   -4.0943   -0.7500   -0.1888 C   0  0  0  0  0  0  0  0  0  0  0  0
   -4.8811    0.0609    0.6408 C   0  0  0  0  0  0  0  0  0  0  0  0
   -2.6683   -0.5645   -0.1469 C   0  0  0  0  0  0  0  0  0  0  0  0
   -2.2215   -0.0140    0.9329 O   0  0  0  0  0  0  0  0  0  0  0  0
   -1.7674   -0.9223   -1.1565 N   0  0  0  0  0  0  0  0  0  0  0  0
   -0.3602   -0.7388   -1.1099 C   0  0  0  0  0  0  0  0  0  0  0  0
    0.4880   -1.1039   -2.1222 N   0  0  0  0  0  0  0  0  0  0  0  0
    1.7495   -0.8024   -1.7802 C   0  0  0  0  0  0  0  0  0  0  0  0
    2.9744   -0.9374   -2.3841 C   0  0  0  0  0  0  0  0  0  0  0  0
    4.1565   -0.5222   -1.7734 C   0  0  0  0  0  0  0  0  0  0  0  0
    4.1023    0.0406   -0.5283 C   0  0  0  0  0  0  0  0  0  0  0  0
    2.8536    0.1736    0.0771 C   0  0  0  0  0  0  0  0  0  0  0  0
    1.6859   -0.2368   -0.5267 C   0  0  0  0  0  0  0  0  0  0  0  0
    0.3720   -0.2136   -0.1451 N   0  0  0  0  0  0  0  0  0  0  0  0
    5.3114    0.5018    0.1764 C   0  0  0  0  0  0  0  0  0  0  0  0
    6.5614    0.3998   -0.3614 C   0  0  0  0  0  0  0  0  0  0  0  0
    7.6658    0.8450    0.3346 C   0  0  0  0  0  0  0  0  0  0  0  0
    7.5177    1.3951    1.5755 C   0  0  0  0  0  0  0  0  0  0  0  0
    6.2479    1.4830    2.0874 C   0  0  0  0  0  0  0  0  0  0  0  0
    5.1886    1.0500    1.4067 N   0  0  0  0  0  0  0  0  0  0  0  0
   -5.7840    2.4358    1.7659 H   0  0  0  0  0  0  0  0  0  0  0  0
   -5.7717    1.2225    3.0715 H   0  0  0  0  0  0  0  0  0  0  0  0
   -7.2189    2.3190    2.8233 H   0  0  0  0  0  0  0  0  0  0  0  0
   -7.9908   -0.9925   -0.1857 H   0  0  0  0  0  0  0  0  0  0  0  0
   -6.6856   -2.4262   -1.6460 H   0  0  0  0  0  0  0  0  0  0  0  0
   -4.4154    0.7926    1.3170 H   0  0  0  0  0  0  0  0  0  0  0  0
   -2.1607   -1.3732   -2.0430 H   0  0  0  0  0  0  0  0  0  0  0  0
    3.0497   -1.3718   -3.3535 H   0  0  0  0  0  0  0  0  0  0  0  0
    5.1119   -0.6561   -2.3068 H   0  0  0  0  0  0  0  0  0  0  0  0
    2.8378    0.6217    1.0615 H   0  0  0  0  0  0  0  0  0  0  0  0
    0.0930    0.1720    0.7689 H   0  0  0  0  0  0  0  0  0  0  0  0
    6.6980   -0.0342   -1.3454 H   0  0  0  0  0  0  0  0  0  0  0  0
    8.6305    0.7318   -0.1558 H   0  0  0  0  0  0  0  0  0  0  0  0
    8.3639    1.7436    2.1250 H   0  0  0  0  0  0  0  0  0  0  0  0
    6.0678    1.9152    3.0782 H   0  0  0  0  0  0  0  0  0  0  0  0
  1  2  1  0
  2  3  1  0
  3  4  2  0
  4  5  1  0
  5  6  2  0
  6  7  1  0
  6  8  1  0
  8  9  2  0
  8 10  1  0
 10 11  2  0
 10 12  1  0
 12 13  1  0
 13 14  2  0
 14 15  1  0
 15 16  2  0
 16 17  1  0
 17 18  2  0
 18 19  1  0
 19 20  2  0
 20 21  1  0
 18 22  1  0
 22 23  2  0
 23 24  1  0
 24 25  2  0
 25 26  1  0
 26 27  2  0
  9  3  1  0
 21 13  1  0
 27 22  1  0
 20 15  1  0
  1 28  1  0
  1 29  1  0
  1 30  1  0
  4 31  1  0
  5 32  1  0
  9 33  1  0
 12 34  1  0
 16 35  1  0
 17 36  1  0
 19 37  1  0
 21 38  1  0
 23 39  1  0
 24 40  1  0
 25 41  1  0
 26 42  1  0
M  END
$$$$
[H]O[C@]1([H])[C@@]([H])(C([H])([H])OS(=O)(=O)N([H])C(=O)[C@@]([H])(N([H])[H])C([H])(C([H])([H])[H])C([H])([H])C([H])([H])[H])O[C@@]([H])(n2c([H])nc3c(N([H])[H])nc([H])nc32)[C@]1([H])O[H]
     RDKit          3D

 56 58  0  0  0  0  0  0  0  0999 V2000
    7.4415   -0.0528    1.1288 C   0  0  0  0  0  0  0  0  0  0  0  0
    6.8989   -0.8772   -0.0076 C   0  0  0  0  0  0  0  0  0  0  0  0
    6.0176   -0.1155   -0.9316 C   0  0  0  0  0  0  0  0  0  0  0  0
    6.7168    1.0689   -1.5810 C   0  0  0  0  0  0  0  0  0  0  0  0
    4.6546    0.2190   -0.4435 C   0  0  2  0  0  0  0  0  0  0  0  0
    4.5690    0.9988    0.7466 N   0  0  0  0  0  0  0  0  0  0  0  0
    3.7295   -0.9051   -0.5222 C   0  0  0  0  0  0  0  0  0  0  0  0
    3.8637   -1.7592   -1.4297 O   0  0  0  0  0  0  0  0  0  0  0  0
    2.6813   -1.0458    0.4038 N   0  0  0  0  0  0  0  0  0  0  0  0
    1.5940   -2.3725    0.2740 S   0  0  0  0  0  0  0  0  0  0  0  0
    1.4437   -3.1438    1.5346 O   0  0  0  0  0  0  0  0  0  0  0  0
    2.0965   -3.3436   -0.7975 O   0  0  0  0  0  0  0  0  0  0  0  0
    0.0781   -1.7692   -0.2154 O   0  0  0  0  0  0  0  0  0  0  0  0
   -0.0822   -0.4882    0.3008 C   0  0  0  0  0  0  0  0  0  0  0  0
   -1.3876    0.0451   -0.1510 C   0  0  1  0  0  0  0  0  0  0  0  0
   -2.5148   -0.6991    0.2377 O   0  0  0  0  0  0  0  0  0  0  0  0
   -3.5019    0.1294   -0.3478 C   0  0  2  0  0  0  0  0  0  0  0  0
   -3.2288    1.4463    0.2863 C   0  0  2  0  0  0  0  0  0  0  0  0
   -3.5990    2.5236   -0.5364 O   0  0  0  0  0  0  0  0  0  0  0  0
   -1.6920    1.4550    0.3573 C   0  0  2  0  0  0  0  0  0  0  0  0
   -1.1832    2.3384   -0.6016 O   0  0  0  0  0  0  0  0  0  0  0  0
   -4.8223   -0.3672   -0.2296 N   0  0  0  0  0  0  0  0  0  0  0  0
   -5.1708   -1.6359   -0.5172 C   0  0  0  0  0  0  0  0  0  0  0  0
   -6.4810   -1.8175   -0.3249 N   0  0  0  0  0  0  0  0  0  0  0  0
   -6.9970   -0.6514    0.0943 C   0  0  0  0  0  0  0  0  0  0  0  0
   -8.2864   -0.2780    0.4332 C   0  0  0  0  0  0  0  0  0  0  0  0
   -9.3515   -1.1957    0.3663 N   0  0  0  0  0  0  0  0  0  0  0  0
   -8.4752    0.9961    0.8177 N   0  0  0  0  0  0  0  0  0  0  0  0
   -7.4285    1.8537    0.8623 C   0  0  0  0  0  0  0  0  0  0  0  0
   -6.1838    1.5015    0.5379 N   0  0  0  0  0  0  0  0  0  0  0  0
   -5.9616    0.2310    0.1477 C   0  0  0  0  0  0  0  0  0  0  0  0
    7.3400    1.0402    0.9690 H   0  0  0  0  0  0  0  0  0  0  0  0
    8.5457   -0.2248    1.1734 H   0  0  0  0  0  0  0  0  0  0  0  0
    7.0684   -0.3391    2.1266 H   0  0  0  0  0  0  0  0  0  0  0  0
    6.3626   -1.7299    0.4211 H   0  0  0  0  0  0  0  0  0  0  0  0
    7.7576   -1.2542   -0.6148 H   0  0  0  0  0  0  0  0  0  0  0  0
    5.8436   -0.8255   -1.8137 H   0  0  0  0  0  0  0  0  0  0  0  0
    7.6691    1.3189   -1.0734 H   0  0  0  0  0  0  0  0  0  0  0  0
    6.0384    1.9716   -1.5162 H   0  0  0  0  0  0  0  0  0  0  0  0
    6.9577    0.9149   -2.6434 H   0  0  0  0  0  0  0  0  0  0  0  0
    4.2573    0.9535   -1.2655 H   0  0  0  0  0  0  0  0  0  0  0  0
    4.5724    0.4547    1.6169 H   0  0  0  0  0  0  0  0  0  0  0  0
    5.1014    1.8727    0.7436 H   0  0  0  0  0  0  0  0  0  0  0  0
    2.5522   -0.3601    1.1613 H   0  0  0  0  0  0  0  0  0  0  0  0
    0.7370    0.1153   -0.1990 H   0  0  0  0  0  0  0  0  0  0  0  0
    0.0839   -0.4698    1.3785 H   0  0  0  0  0  0  0  0  0  0  0  0
   -1.4429    0.0596   -1.2751 H   0  0  0  0  0  0  0  0  0  0  0  0
   -3.1651    0.2149   -1.4140 H   0  0  0  0  0  0  0  0  0  0  0  0
   -3.5785    1.5530    1.3247 H   0  0  0  0  0  0  0  0  0  0  0  0
   -3.7594    3.2948    0.0782 H   0  0  0  0  0  0  0  0  0  0  0  0
   -1.3260    1.6407    1.3661 H   0  0  0  0  0  0  0  0  0  0  0  0
   -1.3953    1.9386   -1.4807 H   0  0  0  0  0  0  0  0  0  0  0  0
   -4.4871   -2.4201   -0.8566 H   0  0  0  0  0  0  0  0  0  0  0  0
   -9.3448   -2.0174    1.0047 H   0  0  0  0  0  0  0  0  0  0  0  0
  -10.1602   -1.1115   -0.2883 H   0  0  0  0  0  0  0  0  0  0  0  0
   -7.6659    2.8568    1.1840 H   0  0  0  0  0  0  0  0  0  0  0  0
  1  2  1  0
  2  3  1  0
  3  4  1  0
  3  5  1  0
  5  6  1  0
  5  7  1  0
  7  8  2  0
  7  9  1  0
  9 10  1  0
 10 11  2  0
 10 12  2  0
 10 13  1  0
 13 14  1  0
 14 15  1  0
 15 16  1  0
 16 17  1  0
 17 18  1  0
 18 19  1  0
 18 20  1  0
 20 21  1  0
 17 22  1  0
 22 23  1  0
 23 24  2  0
 24 25  1  0
 25 26  2  0
 26 27  1  0
 26 28  1  0
 28 29  2  0
 29 30  1  0
 30 31  2  0
 20 15  1  0
 31 22  1  0
 31 25  1  0
  1 32  1  0
  1 33  1  0
  1 34  1  0
  2 35  1  0
  2 36  1  0
  3 37  1  0
  4 38  1  0
  4 39  1  0
  4 40  1  0
  5 41  1  6
  6 42  1  0
  6 43  1  0
  9 44  1  0
 14 45  1  0
 14 46  1  0
 15 47  1  6
 17 48  1  6
 18 49  1  1
 19 50  1  0
 20 51  1  1
 21 52  1  0
 23 53  1  0
 27 54  1  0
 27 55  1  0
 29 56  1  0
M  END
$$$$
[H]O[C@]1([H])[C@]([H])(C([H])([H])OP(=O)(O[H])OP(=O)(O[H])O[H])O[C@@]([H])(n2c([H])nc3c(N([H])[H])nc([H])nc32)[C@]1([H])O[H]
     RDKit          3D

 42 44  0  0  0  0  0  0  0  0999 V2000
   -5.8446    2.6190   -0.6862 N   0  0  0  0  0  0  0  0  0  0  0  0
   -5.1740    1.4068   -0.3319 C   0  0  0  0  0  0  0  0  0  0  0  0
   -5.7696    0.2138   -0.4507 N   0  0  0  0  0  0  0  0  0  0  0  0
   -5.1183   -0.9270   -0.0692 C   0  0  0  0  0  0  0  0  0  0  0  0
   -3.8757   -0.8611    0.4337 N   0  0  0  0  0  0  0  0  0  0  0  0
   -3.2500    0.2935    0.5652 C   0  0  0  0  0  0  0  0  0  0  0  0
   -2.0080    0.6229    1.0361 N   0  0  0  0  0  0  0  0  0  0  0  0
   -1.9017    1.9615    0.9266 C   0  0  0  0  0  0  0  0  0  0  0  0
   -3.0414    2.4373    0.4110 N   0  0  0  0  0  0  0  0  0  0  0  0
   -3.9036    1.4620    0.1720 C   0  0  0  0  0  0  0  0  0  0  0  0
   -1.1048   -0.3212    1.6055 C   0  0  2  0  0  0  0  0  0  0  0  0
    0.2179    0.0443    1.3917 O   0  0  0  0  0  0  0  0  0  0  0  0
    0.4927   -0.3062    0.1031 C   0  0  1  0  0  0  0  0  0  0  0  0
    1.9507   -0.7069   -0.1357 C   0  0  0  0  0  0  0  0  0  0  0  0
    2.6941    0.3378    0.5011 O   0  0  0  0  0  0  0  0  0  0  0  0
    3.5402    1.2436   -0.5750 P   0  0  0  0  0  0  0  0  0  0  0  0
    2.5862    1.4415   -2.0117 O   0  0  0  0  0  0  0  0  0  0  0  0
    3.4726    2.6891    0.0389 O   0  0  0  0  0  0  0  0  0  0  0  0
    5.0487    0.9473   -1.0150 O   0  0  0  0  0  0  0  0  0  0  0  0
    6.0125   -0.0001   -0.0520 P   0  0  0  0  0  0  0  0  0  0  0  0
    6.2857   -1.4519   -0.8736 O   0  0  0  0  0  0  0  0  0  0  0  0
    7.5297    0.7562    0.1952 O   0  0  0  0  0  0  0  0  0  0  0  0
    5.3727   -0.3189    1.2575 O   0  0  0  0  0  0  0  0  0  0  0  0
   -0.4122   -1.4297   -0.2984 C   0  0  1  0  0  0  0  0  0  0  0  0
    0.2126   -2.5360   -0.8387 O   0  0  0  0  0  0  0  0  0  0  0  0
   -1.0602   -1.7050    1.0595 C   0  0  1  0  0  0  0  0  0  0  0  0
   -0.0737   -2.3529    1.8740 O   0  0  0  0  0  0  0  0  0  0  0  0
   -6.4262    3.0121    0.1292 H   0  0  0  0  0  0  0  0  0  0  0  0
   -5.8110    3.0614   -1.5756 H   0  0  0  0  0  0  0  0  0  0  0  0
   -5.6615   -1.8819   -0.1746 H   0  0  0  0  0  0  0  0  0  0  0  0
   -1.0555    2.5794    1.1955 H   0  0  0  0  0  0  0  0  0  0  0  0
   -1.2548   -0.3920    2.7425 H   0  0  0  0  0  0  0  0  0  0  0  0
    0.2636    0.5619   -0.5750 H   0  0  0  0  0  0  0  0  0  0  0  0
    2.1848   -0.9411   -1.1096 H   0  0  0  0  0  0  0  0  0  0  0  0
    2.1099   -1.6274    0.5079 H   0  0  0  0  0  0  0  0  0  0  0  0
    2.3956    0.5551   -2.3891 H   0  0  0  0  0  0  0  0  0  0  0  0
    5.7727   -1.4498   -1.7356 H   0  0  0  0  0  0  0  0  0  0  0  0
    7.9762    0.2643    0.9122 H   0  0  0  0  0  0  0  0  0  0  0  0
   -1.2340   -1.0607   -0.9797 H   0  0  0  0  0  0  0  0  0  0  0  0
   -0.1645   -2.6570   -1.7882 H   0  0  0  0  0  0  0  0  0  0  0  0
   -1.9468   -2.3000    1.0338 H   0  0  0  0  0  0  0  0  0  0  0  0
   -0.0271   -3.2841    1.6312 H   0  0  0  0  0  0  0  0  0  0  0  0
  1  2  1  0
  2  3  2  0
  3  4  1  0
  4  5  2  0
  5  6  1  0
  6  7  1  0
  7  8  1  0
  8  9  2  0
  9 10  1  0
  7 11  1  0
 11 12  1  0
 12 13  1  0
 13 14  1  0
 14 15  1  0
 15 16  1  0
 16 17  1  0
 16 18  2  0
 16 19  1  0
 19 20  1  0
 20 21  1  0
 20 22  1  0
 20 23  2  0
 13 24  1  0
 24 25  1  0
 24 26  1  0
 26 27  1  0
 10  2  1  0
 26 11  1  0
 10  6  2  0
  1 28  1  0
  1 29  1  0
  4 30  1  0
  8 31  1  0
 11 32  1  1
 13 33  1  6
 14 34  1  0
 14 35  1  0
 17 36  1  0
 21 37  1  0
 22 38  1  0
 24 39  1  6
 25 40  1  0
 26 41  1  6
 27 42  1  0
M  END
$$$$
[H]Oc1c([H])c([H])c(C(=O)O[C@@]2([H])[C@@]([H])(O[H])[C@]([H])(O[H])[C@]([H])(O[H])[C@]([H])(O[H])[C@@]2([H])O[H])c([H])c1O[H]
     RDKit          3D

 38 39  0  0  0  0  0  0  0  0999 V2000
   -3.7126   -1.2128   -2.0102 O   0  0  0  0  0  0  0  0  0  0  0  0
   -2.6695   -0.5002   -1.3729 C   0  0  2  0  0  0  0  0  0  0  0  0
   -2.0363   -1.4162   -0.3963 C   0  0  1  0  0  0  0  0  0  0  0  0
   -1.1144   -2.2214   -1.1047 O   0  0  0  0  0  0  0  0  0  0  0  0
   -1.2850   -0.7563    0.7105 C   0  0  1  0  0  0  0  0  0  0  0  0
   -0.0158   -0.2999    0.2803 O   0  0  0  0  0  0  0  0  0  0  0  0
    1.1761   -0.7343    0.7884 C   0  0  0  0  0  0  0  0  0  0  0  0
    1.1670   -1.5987    1.7014 O   0  0  0  0  0  0  0  0  0  0  0  0
    2.4787   -0.2574    0.3379 C   0  0  0  0  0  0  0  0  0  0  0  0
    3.6563   -0.7204    0.8756 C   0  0  0  0  0  0  0  0  0  0  0  0
    4.8968   -0.2841    0.4654 C   0  0  0  0  0  0  0  0  0  0  0  0
    6.0849   -0.7539    1.0107 O   0  0  0  0  0  0  0  0  0  0  0  0
    4.9660    0.6647   -0.5344 C   0  0  0  0  0  0  0  0  0  0  0  0
    6.2164    1.1075   -0.9510 O   0  0  0  0  0  0  0  0  0  0  0  0
    3.7992    1.1464   -1.0913 C   0  0  0  0  0  0  0  0  0  0  0  0
    2.5676    0.6974   -0.6673 C   0  0  0  0  0  0  0  0  0  0  0  0
   -2.1166    0.3491    1.3049 C   0  0  1  0  0  0  0  0  0  0  0  0
   -1.5549    0.8862    2.4528 O   0  0  0  0  0  0  0  0  0  0  0  0
   -2.4060    1.3860    0.2543 C   0  0  2  0  0  0  0  0  0  0  0  0
   -3.1570    2.4203    0.8277 O   0  0  0  0  0  0  0  0  0  0  0  0
   -3.2786    0.7321   -0.7920 C   0  0  2  0  0  0  0  0  0  0  0  0
   -4.5260    0.4855   -0.1957 O   0  0  0  0  0  0  0  0  0  0  0  0
   -4.6011   -0.9121   -1.6854 H   0  0  0  0  0  0  0  0  0  0  0  0
   -1.9563   -0.2235   -2.1899 H   0  0  0  0  0  0  0  0  0  0  0  0
   -2.7809   -2.1528    0.0239 H   0  0  0  0  0  0  0  0  0  0  0  0
   -1.4998   -2.3999   -2.0208 H   0  0  0  0  0  0  0  0  0  0  0  0
   -1.1697   -1.5270    1.5295 H   0  0  0  0  0  0  0  0  0  0  0  0
    3.6088   -1.4622    1.6576 H   0  0  0  0  0  0  0  0  0  0  0  0
    5.9969   -1.4486    1.7412 H   0  0  0  0  0  0  0  0  0  0  0  0
    6.3696    1.7843   -1.6599 H   0  0  0  0  0  0  0  0  0  0  0  0
    3.8804    1.8876   -1.8712 H   0  0  0  0  0  0  0  0  0  0  0  0
    1.6363    1.0626   -1.0916 H   0  0  0  0  0  0  0  0  0  0  0  0
   -3.0882   -0.0986    1.5999 H   0  0  0  0  0  0  0  0  0  0  0  0
   -1.5007    0.1586    3.1206 H   0  0  0  0  0  0  0  0  0  0  0  0
   -1.5006    1.8478   -0.1700 H   0  0  0  0  0  0  0  0  0  0  0  0
   -3.8114    2.0795    1.4892 H   0  0  0  0  0  0  0  0  0  0  0  0
   -3.4441    1.4613   -1.6156 H   0  0  0  0  0  0  0  0  0  0  0  0
   -5.2758    0.8235   -0.7518 H   0  0  0  0  0  0  0  0  0  0  0  0
  1  2  1  0
  2  3  1  0
  3  4  1  0
  3  5  1  0
  5  6  1  0
  6  7  1  0
  7  8  2  0
  7  9  1  0
  9 10  2  0
 10 11  1  0
 11 12  1  0
 11 13  2  0
 13 14  1  0
 13 15  1  0
 15 16  2  0
  5 17  1  0
 17 18  1  0
 17 19  1  0
 19 20  1  0
 19 21  1  0
 21 22  1  0
 21  2  1  0
 16  9  1  0
  1 23  1  0
  2 24  1  6
  3 25  1  1
  4 26  1  0
  5 27  1  1
 10 28  1  0
 12 29  1  0
 14 30  1  0
 15 31  1  0
 16 32  1  0
 17 33  1  1
 18 34  1  0
 19 35  1  6
 20 36  1  0
 21 37  1  6
 22 38  1  0
M  END
$$$$
[H]c1c([H])c(Cl)c(-c2c([H])c3c([H])nc(N([H])c4c([H])c([H])c(N5C([H])([H])C([H])([H])N(C([H])([H])[H])C([H])([H])C5([H])[H])c([H])c4[H])nc3n(C([H])([H])[H])c2=O)c(Cl)c1[H]
     RDKit          3D

 58 62  0  0  0  0  0  0  0  0999 V2000
    8.7224   -0.7038   -1.0744 C   0  0  0  0  0  0  0  0  0  0  0  0
    7.4397   -0.3590   -1.6865 N   0  0  0  0  0  0  0  0  0  0  0  0
    7.0422    0.9098   -1.1085 C   0  0  0  0  0  0  0  0  0  0  0  0
    6.3179    0.6491    0.1968 C   0  0  0  0  0  0  0  0  0  0  0  0
    5.0438    0.0436   -0.1284 N   0  0  0  0  0  0  0  0  0  0  0  0
    5.0923   -0.9153   -1.2399 C   0  0  0  0  0  0  0  0  0  0  0  0
    6.5145   -1.4160   -1.3667 C   0  0  0  0  0  0  0  0  0  0  0  0
    3.8252    0.3062    0.5286 C   0  0  0  0  0  0  0  0  0  0  0  0
    3.7214    1.1243    1.6305 C   0  0  0  0  0  0  0  0  0  0  0  0
    2.5219    1.3736    2.2571 C   0  0  0  0  0  0  0  0  0  0  0  0
    1.3265    0.7971    1.7969 C   0  0  0  0  0  0  0  0  0  0  0  0
    0.1469    1.0923    2.4998 N   0  0  0  0  0  0  0  0  0  0  0  0
   -1.1899    0.8532    2.1110 C   0  0  0  0  0  0  0  0  0  0  0  0
   -2.2165    1.2108    2.9512 N   0  0  0  0  0  0  0  0  0  0  0  0
   -3.5029    1.0306    2.6538 C   0  0  0  0  0  0  0  0  0  0  0  0
   -3.8747    0.4675    1.4698 C   0  0  0  0  0  0  0  0  0  0  0  0
   -5.2097    0.2655    1.1275 C   0  0  0  0  0  0  0  0  0  0  0  0
   -5.5448   -0.3068   -0.0798 C   0  0  0  0  0  0  0  0  0  0  0  0
   -6.9463   -0.5110   -0.4233 C   0  0  0  0  0  0  0  0  0  0  0  0
   -7.5727   -1.6909   -0.0816 C   0  0  0  0  0  0  0  0  0  0  0  0
   -6.7254   -2.9692    0.7637 Cl  0  0  0  0  0  0  0  0  0  0  0  0
   -8.9062   -1.9121   -0.3963 C   0  0  0  0  0  0  0  0  0  0  0  0
   -9.6532   -0.9477   -1.0678 C   0  0  0  0  0  0  0  0  0  0  0  0
   -9.0241    0.2360   -1.4104 C   0  0  0  0  0  0  0  0  0  0  0  0
   -7.7010    0.4264   -1.0849 C   0  0  0  0  0  0  0  0  0  0  0  0
   -6.9498    1.9389   -1.5390 Cl  0  0  0  0  0  0  0  0  0  0  0  0
   -4.5000   -0.6566   -0.9040 C   0  0  0  0  0  0  0  0  0  0  0  0
   -4.7838   -1.1819   -2.0136 O   0  0  0  0  0  0  0  0  0  0  0  0
   -3.2127   -0.4601   -0.5703 N   0  0  0  0  0  0  0  0  0  0  0  0
   -2.1231   -0.8424   -1.4667 C   0  0  0  0  0  0  0  0  0  0  0  0
   -2.8626    0.0985    0.6064 C   0  0  0  0  0  0  0  0  0  0  0  0
   -1.5959    0.3058    0.9635 N   0  0  0  0  0  0  0  0  0  0  0  0
    1.4499   -0.0143    0.6998 C   0  0  0  0  0  0  0  0  0  0  0  0
    2.6757   -0.2660    0.0631 C   0  0  0  0  0  0  0  0  0  0  0  0
    8.4600   -1.1949   -0.0924 H   0  0  0  0  0  0  0  0  0  0  0  0
    9.2266   -1.4433   -1.7258 H   0  0  0  0  0  0  0  0  0  0  0  0
    9.3445    0.2028   -0.8899 H   0  0  0  0  0  0  0  0  0  0  0  0
    7.8706    1.5909   -0.9005 H   0  0  0  0  0  0  0  0  0  0  0  0
    6.3455    1.3995   -1.8075 H   0  0  0  0  0  0  0  0  0  0  0  0
    6.2737    1.5522    0.7954 H   0  0  0  0  0  0  0  0  0  0  0  0
    6.9057   -0.1203    0.7570 H   0  0  0  0  0  0  0  0  0  0  0  0
    4.7414   -0.4993   -2.1814 H   0  0  0  0  0  0  0  0  0  0  0  0
    4.5014   -1.8035   -0.8821 H   0  0  0  0  0  0  0  0  0  0  0  0
    6.5452   -2.1425   -2.2209 H   0  0  0  0  0  0  0  0  0  0  0  0
    6.8537   -1.9325   -0.4561 H   0  0  0  0  0  0  0  0  0  0  0  0
    4.6486    1.5712    1.9890 H   0  0  0  0  0  0  0  0  0  0  0  0
    2.4849    2.0217    3.1179 H   0  0  0  0  0  0  0  0  0  0  0  0
    0.2484    1.5552    3.4589 H   0  0  0  0  0  0  0  0  0  0  0  0
   -4.2586    1.3336    3.3571 H   0  0  0  0  0  0  0  0  0  0  0  0
   -5.9798    0.5697    1.8346 H   0  0  0  0  0  0  0  0  0  0  0  0
   -9.4125   -2.8283   -0.1374 H   0  0  0  0  0  0  0  0  0  0  0  0
  -10.7017   -1.1457   -1.3040 H   0  0  0  0  0  0  0  0  0  0  0  0
   -9.6092    0.9884   -1.9349 H   0  0  0  0  0  0  0  0  0  0  0  0
   -1.4230   -1.4968   -0.8848 H   0  0  0  0  0  0  0  0  0  0  0  0
   -2.4850   -1.4366   -2.3206 H   0  0  0  0  0  0  0  0  0  0  0  0
   -1.5780    0.0677   -1.7368 H   0  0  0  0  0  0  0  0  0  0  0  0
    0.5779   -0.5003    0.2943 H   0  0  0  0  0  0  0  0  0  0  0  0
    2.6748   -0.9267   -0.8068 H   0  0  0  0  0  0  0  0  0  0  0  0
  1  2  1  0
  2  3  1  0
  3  4  1  0
  4  5  1  0
  5  6  1  0
  6  7  1  0
  5  8  1  0
  8  9  2  0
  9 10  1  0
 10 11  2  0
 11 12  1  0
 12 13  1  0
 13 14  2  0
 14 15  1  0
 15 16  2  0
 16 17  1  0
 17 18  2  0
 18 19  1  0
 19 20  2  0
 20 21  1  0
 20 22  1  0
 22 23  2  0
 23 24  1  0
 24 25  2  0
 25 26  1  0
 18 27  1  0
 27 28  2  0
 27 29  1  0
 29 30  1  0
 29 31  1  0
 31 32  2  0
 11 33  1  0
 33 34  2  0
  7  2  1  0
 34  8  1  0
 32 13  1  0
 31 16  1  0
 25 19  1  0
  1 35  1  0
  1 36  1  0
  1 37  1  0
  3 38  1  0
  3 39  1  0
  4 40  1  0
  4 41  1  0
  6 42  1  0
  6 43  1  0
  7 44  1  0
  7 45  1  0
  9 46  1  0
 10 47  1  0
 12 48  1  0
 15 49  1  0
 17 50  1  0
 22 51  1  0
 23 52  1  0
 24 53  1  0
 30 54  1  0
 30 55  1  0
 30 56  1  0
 33 57  1  0
 34 58  1  0
M  END
$$$$
[H]c1c(Cl)c([H])c2c(oc(=O)n2C([H])([H])C([H])([H])N2C([H])([H])C([H])([H])C([H])([H])C([H])([H])C2([H])[H])c1[H]
     RDKit          3D

 36 38  0  0  0  0  0  0  0  0999 V2000
    4.8983    3.0076   -0.1150 Cl  0  0  0  0  0  0  0  0  0  0  0  0
    4.3350    1.3589   -0.1766 C   0  0  0  0  0  0  0  0  0  0  0  0
    5.1053    0.3808   -0.7315 C   0  0  0  0  0  0  0  0  0  0  0  0
    4.6873   -0.9406   -0.7964 C   0  0  0  0  0  0  0  0  0  0  0  0
    3.4290   -1.2165   -0.2598 C   0  0  0  0  0  0  0  0  0  0  0  0
    2.7392   -2.3225   -0.1545 O   0  0  0  0  0  0  0  0  0  0  0  0
    1.5650   -2.1040    0.4401 C   0  0  0  0  0  0  0  0  0  0  0  0
    0.7304   -3.0535    0.6469 O   0  0  0  0  0  0  0  0  0  0  0  0
    1.4825   -0.8169    0.7324 N   0  0  0  0  0  0  0  0  0  0  0  0
    0.4248   -0.0812    1.3587 C   0  0  0  0  0  0  0  0  0  0  0  0
   -0.5569    0.5508    0.4289 C   0  0  0  0  0  0  0  0  0  0  0  0
   -1.3227   -0.2949   -0.4072 N   0  0  0  0  0  0  0  0  0  0  0  0
   -2.0614    0.5154   -1.3596 C   0  0  0  0  0  0  0  0  0  0  0  0
   -3.1045    1.3497   -0.7114 C   0  0  0  0  0  0  0  0  0  0  0  0
   -4.1678    0.4006   -0.1587 C   0  0  0  0  0  0  0  0  0  0  0  0
   -3.4883   -0.5289    0.7894 C   0  0  0  0  0  0  0  0  0  0  0  0
   -2.2385   -1.1568    0.3051 C   0  0  0  0  0  0  0  0  0  0  0  0
    2.6384   -0.2378    0.3048 C   0  0  0  0  0  0  0  0  0  0  0  0
    3.0936    1.0635    0.3480 C   0  0  0  0  0  0  0  0  0  0  0  0
    6.0774    0.5890   -1.1470 H   0  0  0  0  0  0  0  0  0  0  0  0
    5.2814   -1.7244   -1.2306 H   0  0  0  0  0  0  0  0  0  0  0  0
   -0.0895   -0.6882    2.1585 H   0  0  0  0  0  0  0  0  0  0  0  0
    0.8489    0.7853    1.9619 H   0  0  0  0  0  0  0  0  0  0  0  0
    0.0531    1.2112   -0.2556 H   0  0  0  0  0  0  0  0  0  0  0  0
   -1.1600    1.2587    1.0395 H   0  0  0  0  0  0  0  0  0  0  0  0
   -2.5551   -0.1852   -2.0560 H   0  0  0  0  0  0  0  0  0  0  0  0
   -1.3352    1.0960   -1.9669 H   0  0  0  0  0  0  0  0  0  0  0  0
   -2.7849    1.9890    0.1118 H   0  0  0  0  0  0  0  0  0  0  0  0
   -3.5516    2.0266   -1.4814 H   0  0  0  0  0  0  0  0  0  0  0  0
   -4.8706    1.0396    0.4188 H   0  0  0  0  0  0  0  0  0  0  0  0
   -4.7372   -0.1019   -0.9528 H   0  0  0  0  0  0  0  0  0  0  0  0
   -3.3989   -0.0445    1.7881 H   0  0  0  0  0  0  0  0  0  0  0  0
   -4.2205   -1.3730    0.9741 H   0  0  0  0  0  0  0  0  0  0  0  0
   -1.7260   -1.6333    1.1671 H   0  0  0  0  0  0  0  0  0  0  0  0
   -2.5110   -1.9821   -0.4025 H   0  0  0  0  0  0  0  0  0  0  0  0
    2.4907    1.8635    0.7893 H   0  0  0  0  0  0  0  0  0  0  0  0
  1  2  1  0
  2  3  2  0
  3  4  1  0
  4  5  2  0
  5  6  1  0
  6  7  1  0
  7  8  2  0
  7  9  1  0
  9 10  1  0
 10 11  1  0
 11 12  1  0
 12 13  1  0
 13 14  1  0
 14 15  1  0
 15 16  1  0
 16 17  1  0
  9 18  1  0
 18 19  2  0
 19  2  1  0
 18  5  1  0
 17 12  1  0
  3 20  1  0
  4 21  1  0
 10 22  1  0
 10 23  1  0
 11 24  1  0
 11 25  1  0
 13 26  1  0
 13 27  1  0
 14 28  1  0
 14 29  1  0
 15 30  1  0
 15 31  1  0
 16 32  1  0
 16 33  1  0
 17 34  1  0
 17 35  1  0
 19 36  1  0
M  END
$$$$
[H]c1c([H])c([H])c2c(c1[H])c1c3c(c4c5c([H])c([H])c([H])c([H])c5n5c4c1n2[C@@]1(C([H])([H])[H])O[C@]5([H])C([H])([H])[C@@]([H])(N([H])C([H])([H])[H])[C@]1([H])OC([H])([H])[H])C(=O)N([H])C3([H])[H]
     RDKit          3D

 61 68  0  0  0  0  0  0  0  0999 V2000
   -4.2237   -2.8432    0.3826 C   0  0  0  0  0  0  0  0  0  0  0  0
   -3.9057   -1.4325    0.5018 N   0  0  0  0  0  0  0  0  0  0  0  0
   -2.8904   -1.1052   -0.4771 C   0  0  2  0  0  0  0  0  0  0  0  0
   -1.6096   -1.8440   -0.2521 C   0  0  0  0  0  0  0  0  0  0  0  0
   -0.7088   -1.5028   -1.4165 C   0  0  1  0  0  0  0  0  0  0  0  0
   -0.8845   -0.3006   -1.9539 O   0  0  0  0  0  0  0  0  0  0  0  0
   -1.3461    0.7528   -1.1378 C   0  0  1  0  0  0  0  0  0  0  0  0
   -1.7403    1.7918   -2.2066 C   0  0  0  0  0  0  0  0  0  0  0  0
   -2.5519    0.3972   -0.3647 C   0  0  1  0  0  0  0  0  0  0  0  0
   -3.7280    1.0404   -0.7349 O   0  0  0  0  0  0  0  0  0  0  0  0
   -4.4091    1.6430    0.2931 C   0  0  0  0  0  0  0  0  0  0  0  0
   -0.2432    1.3012   -0.3712 N   0  0  0  0  0  0  0  0  0  0  0  0
   -0.1500    2.5723    0.1151 C   0  0  0  0  0  0  0  0  0  0  0  0
   -1.0130    3.6203    0.1152 C   0  0  0  0  0  0  0  0  0  0  0  0
   -0.6622    4.8168    0.7053 C   0  0  0  0  0  0  0  0  0  0  0  0
    0.5564    5.0071    1.3135 C   0  0  0  0  0  0  0  0  0  0  0  0
    1.4278    3.9124    1.3017 C   0  0  0  0  0  0  0  0  0  0  0  0
    1.0695    2.7394    0.7170 C   0  0  0  0  0  0  0  0  0  0  0  0
    1.7448    1.5602    0.6114 C   0  0  0  0  0  0  0  0  0  0  0  0
    3.0026    1.1148    1.0209 C   0  0  0  0  0  0  0  0  0  0  0  0
    4.0512    1.8684    1.7455 C   0  0  0  0  0  0  0  0  0  0  0  0
    5.1397    0.9552    1.9147 N   0  0  0  0  0  0  0  0  0  0  0  0
    4.7713   -0.3013    1.3242 C   0  0  0  0  0  0  0  0  0  0  0  0
    5.5554   -1.2594    1.3460 O   0  0  0  0  0  0  0  0  0  0  0  0
    3.4374   -0.1804    0.7736 C   0  0  0  0  0  0  0  0  0  0  0  0
    2.5811   -1.0261    0.1058 C   0  0  0  0  0  0  0  0  0  0  0  0
    2.6500   -2.3566   -0.2823 C   0  0  0  0  0  0  0  0  0  0  0  0
    3.6197   -3.3040   -0.1586 C   0  0  0  0  0  0  0  0  0  0  0  0
    3.3603   -4.5863   -0.6724 C   0  0  0  0  0  0  0  0  0  0  0  0
    2.1660   -4.8681   -1.2784 C   0  0  0  0  0  0  0  0  0  0  0  0
    1.1884   -3.9049   -1.4007 C   0  0  0  0  0  0  0  0  0  0  0  0
    1.4343   -2.6584   -0.9038 C   0  0  0  0  0  0  0  0  0  0  0  0
    0.6610   -1.5889   -0.9043 N   0  0  0  0  0  0  0  0  0  0  0  0
    1.3192   -0.5864   -0.3083 C   0  0  0  0  0  0  0  0  0  0  0  0
    0.9427    0.7002   -0.0433 C   0  0  0  0  0  0  0  0  0  0  0  0
   -5.1750   -3.0655    0.9449 H   0  0  0  0  0  0  0  0  0  0  0  0
   -3.4375   -3.4831    0.8520 H   0  0  0  0  0  0  0  0  0  0  0  0
   -4.3878   -3.1627   -0.6570 H   0  0  0  0  0  0  0  0  0  0  0  0
   -3.5372   -1.3003    1.4753 H   0  0  0  0  0  0  0  0  0  0  0  0
   -3.2760   -1.3576   -1.4683 H   0  0  0  0  0  0  0  0  0  0  0  0
   -1.1170   -1.5869    0.7072 H   0  0  0  0  0  0  0  0  0  0  0  0
   -1.7938   -2.9364   -0.2500 H   0  0  0  0  0  0  0  0  0  0  0  0
   -0.8365   -2.2959   -2.1809 H   0  0  0  0  0  0  0  0  0  0  0  0
   -2.7389    2.1947   -2.0710 H   0  0  0  0  0  0  0  0  0  0  0  0
   -1.0026    2.6042   -2.2901 H   0  0  0  0  0  0  0  0  0  0  0  0
   -1.7554    1.3331   -3.2327 H   0  0  0  0  0  0  0  0  0  0  0  0
   -2.3963    0.5380    0.7318 H   0  0  0  0  0  0  0  0  0  0  0  0
   -5.3222    2.1084   -0.1800 H   0  0  0  0  0  0  0  0  0  0  0  0
   -3.8691    2.4834    0.7750 H   0  0  0  0  0  0  0  0  0  0  0  0
   -4.8200    0.9287    1.0434 H   0  0  0  0  0  0  0  0  0  0  0  0
   -2.0049    3.5118   -0.3417 H   0  0  0  0  0  0  0  0  0  0  0  0
   -1.3998    5.6339    0.6763 H   0  0  0  0  0  0  0  0  0  0  0  0
    0.8459    5.9384    1.7795 H   0  0  0  0  0  0  0  0  0  0  0  0
    2.4090    4.0394    1.7823 H   0  0  0  0  0  0  0  0  0  0  0  0
    4.3999    2.7474    1.1660 H   0  0  0  0  0  0  0  0  0  0  0  0
    3.6319    2.2028    2.7259 H   0  0  0  0  0  0  0  0  0  0  0  0
    6.0324    1.1980    2.3917 H   0  0  0  0  0  0  0  0  0  0  0  0
    4.5530   -3.1288    0.3000 H   0  0  0  0  0  0  0  0  0  0  0  0
    4.1480   -5.3162   -0.5604 H   0  0  0  0  0  0  0  0  0  0  0  0
    1.9956   -5.8657   -1.6641 H   0  0  0  0  0  0  0  0  0  0  0  0
    0.2419   -4.1081   -1.8751 H   0  0  0  0  0  0  0  0  0  0  0  0
  1  2  1  0
  2  3  1  0
  3  4  1  0
  4  5  1  0
  5  6  1  0
  6  7  1  0
  7  8  1  6
  7  9  1  0
  9 10  1  0
 10 11  1  0
  7 12  1  0
 12 13  1  0
 13 14  2  0
 14 15  1  0
 15 16  2  0
 16 17  1  0
 17 18  2  0
 18 19  1  0
 19 20  2  0
 20 21  1  0
 21 22  1  0
 22 23  1  0
 23 24  2  0
 23 25  1  0
 25 26  2  0
 26 27  1  0
 27 28  2  0
 28 29  1  0
 29 30  2  0
 30 31  1  0
 31 32  2  0
 32 33  1  0
 33 34  1  0
 34 35  2  0
  9  3  1  0
 35 12  1  0
 33  5  1  0
 18 13  1  0
 35 19  1  0
 25 20  1  0
 34 26  1  0
 32 27  1  0
  1 36  1  0
  1 37  1  0
  1 38  1  0
  2 39  1  0
  3 40  1  6
  4 41  1  0
  4 42  1  0
  5 43  1  6
  8 44  1  0
  8 45  1  0
  8 46  1  0
  9 47  1  1
 11 48  1  0
 11 49  1  0
 11 50  1  0
 14 51  1  0
 15 52  1  0
 16 53  1  0
 17 54  1  0
 21 55  1  0
 21 56  1  0
 22 57  1  0
 28 58  1  0
 29 59  1  0
 30 60  1  0
 31 61  1  0
M  END
$$$$
[H]c1c([H])c([H])c(C([H])([H])OC(=O)[C@@]([H])(N([H])C(=O)[C@@]([H])(N([H])C(=O)[C@]2([H])OC(=O)[C@@]2([H])[C@@]([H])(C([H])([H])[H])C([H])([H])C([H])([H])[H])C([H])([H])c2c([H])c([H])c([H])c([H])c2[H])C([H])([H])C([H])(C([H])([H])[H])C([H])([H])[H])c([H])c1[H]
     RDKit          3D

 76 78  0  0  0  0  0  0  0  0999 V2000
   -5.2138   -3.1334    3.1961 C   0  0  0  0  0  0  0  0  0  0  0  0
   -5.9546   -1.8848    3.5812 C   0  0  0  0  0  0  0  0  0  0  0  0
   -6.0712   -0.8816    2.4700 C   0  0  2  0  0  0  0  0  0  0  0  0
   -6.7856   -1.3980    1.2641 C   0  0  0  0  0  0  0  0  0  0  0  0
   -4.7111   -0.3439    2.0670 C   0  0  1  0  0  0  0  0  0  0  0  0
   -4.7405    0.6802    0.9453 C   0  0  1  0  0  0  0  0  0  0  0  0
   -4.4028    1.6510    1.9206 O   0  0  0  0  0  0  0  0  0  0  0  0
   -4.2236    0.7510    2.9486 C   0  0  0  0  0  0  0  0  0  0  0  0
   -3.8169    0.8480    4.1273 O   0  0  0  0  0  0  0  0  0  0  0  0
   -3.6854    0.3894   -0.0372 C   0  0  0  0  0  0  0  0  0  0  0  0
   -3.8953   -0.4941   -0.9046 O   0  0  0  0  0  0  0  0  0  0  0  0
   -2.4444    1.0642   -0.0436 N   0  0  0  0  0  0  0  0  0  0  0  0
   -1.4114    0.7323   -1.0454 C   0  0  1  0  0  0  0  0  0  0  0  0
   -1.4249    1.8070   -2.1331 C   0  0  0  0  0  0  0  0  0  0  0  0
   -1.1374    3.1372   -1.6102 C   0  0  0  0  0  0  0  0  0  0  0  0
    0.1455    3.6287   -1.5761 C   0  0  0  0  0  0  0  0  0  0  0  0
    0.4532    4.8754   -1.0823 C   0  0  0  0  0  0  0  0  0  0  0  0
   -0.5705    5.6702   -0.5983 C   0  0  0  0  0  0  0  0  0  0  0  0
   -1.8756    5.1927   -0.6229 C   0  0  0  0  0  0  0  0  0  0  0  0
   -2.1485    3.9317   -1.1280 C   0  0  0  0  0  0  0  0  0  0  0  0
   -0.0891    0.5618   -0.4581 C   0  0  0  0  0  0  0  0  0  0  0  0
    0.2008    1.3464    0.5082 O   0  0  0  0  0  0  0  0  0  0  0  0
    0.8880   -0.4120   -0.8857 N   0  0  0  0  0  0  0  0  0  0  0  0
    2.1600   -0.4142   -0.1730 C   0  0  1  0  0  0  0  0  0  0  0  0
    1.8984   -1.4571    0.9564 C   0  0  0  0  0  0  0  0  0  0  0  0
    3.0818   -1.6410    1.8464 C   0  0  0  0  0  0  0  0  0  0  0  0
    2.6484   -2.6972    2.8881 C   0  0  0  0  0  0  0  0  0  0  0  0
    3.4337   -0.4126    2.6484 C   0  0  0  0  0  0  0  0  0  0  0  0
    3.2653   -0.9701   -0.9451 C   0  0  0  0  0  0  0  0  0  0  0  0
    2.9982   -1.5553   -2.0322 O   0  0  0  0  0  0  0  0  0  0  0  0
    4.5901   -0.9231   -0.6059 O   0  0  0  0  0  0  0  0  0  0  0  0
    5.6967   -1.4407   -1.2415 C   0  0  0  0  0  0  0  0  0  0  0  0
    5.9525   -1.0503   -2.6308 C   0  0  0  0  0  0  0  0  0  0  0  0
    5.6379   -1.9110   -3.6569 C   0  0  0  0  0  0  0  0  0  0  0  0
    5.8590   -1.6185   -4.9794 C   0  0  0  0  0  0  0  0  0  0  0  0
    6.4230   -0.4066   -5.3132 C   0  0  0  0  0  0  0  0  0  0  0  0
    6.7469    0.4706   -4.3226 C   0  0  0  0  0  0  0  0  0  0  0  0
    6.5168    0.1623   -2.9631 C   0  0  0  0  0  0  0  0  0  0  0  0
   -4.1216   -2.9509    3.3068 H   0  0  0  0  0  0  0  0  0  0  0  0
   -5.5057   -3.5605    2.2365 H   0  0  0  0  0  0  0  0  0  0  0  0
   -5.4444   -3.8988    3.9930 H   0  0  0  0  0  0  0  0  0  0  0  0
   -5.3592   -1.4053    4.4083 H   0  0  0  0  0  0  0  0  0  0  0  0
   -6.9184   -2.1636    4.0213 H   0  0  0  0  0  0  0  0  0  0  0  0
   -6.6441   -0.0170    2.8795 H   0  0  0  0  0  0  0  0  0  0  0  0
   -7.4728   -2.2354    1.5084 H   0  0  0  0  0  0  0  0  0  0  0  0
   -6.0481   -1.7676    0.5341 H   0  0  0  0  0  0  0  0  0  0  0  0
   -7.3715   -0.5823    0.7659 H   0  0  0  0  0  0  0  0  0  0  0  0
   -3.9614   -1.1703    1.9204 H   0  0  0  0  0  0  0  0  0  0  0  0
   -5.7721    0.7885    0.5403 H   0  0  0  0  0  0  0  0  0  0  0  0
   -2.2848    1.7988    0.6814 H   0  0  0  0  0  0  0  0  0  0  0  0
   -1.7401   -0.1855   -1.5417 H   0  0  0  0  0  0  0  0  0  0  0  0
   -2.4579    1.7455   -2.5687 H   0  0  0  0  0  0  0  0  0  0  0  0
   -0.7368    1.4865   -2.9358 H   0  0  0  0  0  0  0  0  0  0  0  0
    0.9560    3.0222   -1.9500 H   0  0  0  0  0  0  0  0  0  0  0  0
    1.4709    5.2516   -1.0607 H   0  0  0  0  0  0  0  0  0  0  0  0
   -0.3791    6.6697   -0.1932 H   0  0  0  0  0  0  0  0  0  0  0  0
   -2.6847    5.7872   -0.2540 H   0  0  0  0  0  0  0  0  0  0  0  0
   -3.1950    3.5998   -1.1267 H   0  0  0  0  0  0  0  0  0  0  0  0
    0.6681   -1.0560   -1.6562 H   0  0  0  0  0  0  0  0  0  0  0  0
    2.2885    0.5538    0.3057 H   0  0  0  0  0  0  0  0  0  0  0  0
    1.0587   -1.0658    1.5760 H   0  0  0  0  0  0  0  0  0  0  0  0
    1.6857   -2.3946    0.4338 H   0  0  0  0  0  0  0  0  0  0  0  0
    3.9575   -2.1024    1.3665 H   0  0  0  0  0  0  0  0  0  0  0  0
    3.4963   -2.9166    3.5648 H   0  0  0  0  0  0  0  0  0  0  0  0
    1.7875   -2.3590    3.4597 H   0  0  0  0  0  0  0  0  0  0  0  0
    2.4575   -3.6262    2.2959 H   0  0  0  0  0  0  0  0  0  0  0  0
    4.0767    0.2990    2.1338 H   0  0  0  0  0  0  0  0  0  0  0  0
    3.9665   -0.7547    3.5591 H   0  0  0  0  0  0  0  0  0  0  0  0
    2.4797    0.0325    2.9928 H   0  0  0  0  0  0  0  0  0  0  0  0
    6.5916   -1.1002   -0.6056 H   0  0  0  0  0  0  0  0  0  0  0  0
    5.7791   -2.5537   -1.1745 H   0  0  0  0  0  0  0  0  0  0  0  0
    5.1907   -2.8734   -3.3506 H   0  0  0  0  0  0  0  0  0  0  0  0
    5.6081   -2.3012   -5.7598 H   0  0  0  0  0  0  0  0  0  0  0  0
    6.6118   -0.1469   -6.3596 H   0  0  0  0  0  0  0  0  0  0  0  0
    7.1919    1.4259   -4.6032 H   0  0  0  0  0  0  0  0  0  0  0  0
    6.7814    0.8721   -2.2172 H   0  0  0  0  0  0  0  0  0  0  0  0
  1  2  1  0
  2  3  1  0
  3  4  1  0
  3  5  1  0
  5  6  1  0
  6  7  1  0
  7  8  1  0
  8  9  2  0
  6 10  1  0
 10 11  2  0
 10 12  1  0
 12 13  1  0
 13 14  1  0
 14 15  1  0
 15 16  2  0
 16 17  1  0
 17 18  2  0
 18 19  1  0
 19 20  2  0
 13 21  1  0
 21 22  2  0
 21 23  1  0
 23 24  1  0
 24 25  1  0
 25 26  1  0
 26 27  1  0
 26 28  1  0
 24 29  1  0
 29 30  2  0
 29 31  1  0
 31 32  1  0
 32 33  1  0
 33 34  2  0
 34 35  1  0
 35 36  2  0
 36 37  1  0
 37 38  2  0
  8  5  1  0
 20 15  1  0
 38 33  1  0
  1 39  1  0
  1 40  1  0
  1 41  1  0
  2 42  1  0
  2 43  1  0
  3 44  1  1
  4 45  1  0
  4 46  1  0
  4 47  1  0
  5 48  1  6
  6 49  1  6
 12 50  1  0
 13 51  1  6
 14 52  1  0
 14 53  1  0
 16 54  1  0
 17 55  1  0
 18 56  1  0
 19 57  1  0
 20 58  1  0
 23 59  1  0
 24 60  1  1
 25 61  1  0
 25 62  1  0
 26 63  1  0
 27 64  1  0
 27 65  1  0
 27 66  1  0
 28 67  1  0
 28 68  1  0
 28 69  1  0
 32 70  1  0
 32 71  1  0
 34 72  1  0
 35 73  1  0
 36 74  1  0
 37 75  1  0
 38 76  1  0
M  END
$$$$
[H]OC(=O)C([H])([H])Oc1c([H])c([H])c([H])c(-c2c([H])c3c(OC([H])([H])c4c([H])c([H])c([H])c([H])c4[H])c([H])c(Cl)c([H])c3oc2=O)c1[H]
     RDKit          3D

 48 51  0  0  0  0  0  0  0  0999 V2000
    6.4022    3.4697    0.5720 O   0  0  0  0  0  0  0  0  0  0  0  0
    5.2412    2.6909    0.5348 C   0  0  0  0  0  0  0  0  0  0  0  0
    4.5967    2.7270   -0.5378 O   0  0  0  0  0  0  0  0  0  0  0  0
    4.8866    1.9126    1.7371 C   0  0  0  0  0  0  0  0  0  0  0  0
    3.7577    1.0997    1.6017 O   0  0  0  0  0  0  0  0  0  0  0  0
    3.6041    0.0389    0.7345 C   0  0  0  0  0  0  0  0  0  0  0  0
    4.6135   -0.3538   -0.1135 C   0  0  0  0  0  0  0  0  0  0  0  0
    4.4433   -1.4185   -0.9801 C   0  0  0  0  0  0  0  0  0  0  0  0
    3.2345   -2.0998   -0.9915 C   0  0  0  0  0  0  0  0  0  0  0  0
    2.1953   -1.7429   -0.1597 C   0  0  0  0  0  0  0  0  0  0  0  0
    2.4095   -0.6806    0.6825 C   0  0  0  0  0  0  0  0  0  0  0  0
    0.9359   -2.4608   -0.1760 C   0  0  0  0  0  0  0  0  0  0  0  0
   -0.2206   -1.7098   -0.1907 C   0  0  0  0  0  0  0  0  0  0  0  0
   -1.4232   -2.3949   -0.2082 C   0  0  0  0  0  0  0  0  0  0  0  0
   -2.6301   -1.6814   -0.2237 C   0  0  0  0  0  0  0  0  0  0  0  0
   -2.5871   -0.2938   -0.2211 O   0  0  0  0  0  0  0  0  0  0  0  0
   -3.7988    0.4140   -0.2367 C   0  0  0  0  0  0  0  0  0  0  0  0
   -3.6058    1.8788   -0.2321 C   0  0  0  0  0  0  0  0  0  0  0  0
   -3.4956    2.5939   -1.4236 C   0  0  0  0  0  0  0  0  0  0  0  0
   -3.3153    3.9617   -1.4187 C   0  0  0  0  0  0  0  0  0  0  0  0
   -3.2418    4.6417   -0.2102 C   0  0  0  0  0  0  0  0  0  0  0  0
   -3.3468    3.9668    0.9865 C   0  0  0  0  0  0  0  0  0  0  0  0
   -3.5264    2.6001    0.9399 C   0  0  0  0  0  0  0  0  0  0  0  0
   -3.8305   -2.3604   -0.2411 C   0  0  0  0  0  0  0  0  0  0  0  0
   -3.7936   -3.7393   -0.2425 C   0  0  0  0  0  0  0  0  0  0  0  0
   -5.3188   -4.6247   -0.2646 Cl  0  0  0  0  0  0  0  0  0  0  0  0
   -2.5957   -4.4374   -0.2271 C   0  0  0  0  0  0  0  0  0  0  0  0
   -1.3786   -3.7724   -0.2095 C   0  0  0  0  0  0  0  0  0  0  0  0
   -0.2515   -4.4500   -0.1950 O   0  0  0  0  0  0  0  0  0  0  0  0
    0.9031   -3.8289   -0.1783 C   0  0  0  0  0  0  0  0  0  0  0  0
    2.0037   -4.4556   -0.1638 O   0  0  0  0  0  0  0  0  0  0  0  0
    6.2262    4.4862    0.5766 H   0  0  0  0  0  0  0  0  0  0  0  0
    5.7536    1.2536    1.9921 H   0  0  0  0  0  0  0  0  0  0  0  0
    4.7483    2.6502    2.5801 H   0  0  0  0  0  0  0  0  0  0  0  0
    5.5869    0.1186   -0.1529 H   0  0  0  0  0  0  0  0  0  0  0  0
    5.2515   -1.7263   -1.6539 H   0  0  0  0  0  0  0  0  0  0  0  0
    3.1622   -2.9169   -1.6871 H   0  0  0  0  0  0  0  0  0  0  0  0
    1.6275   -0.3621    1.3528 H   0  0  0  0  0  0  0  0  0  0  0  0
   -0.2226   -0.6192   -0.1892 H   0  0  0  0  0  0  0  0  0  0  0  0
   -4.4749    0.1216    0.6002 H   0  0  0  0  0  0  0  0  0  0  0  0
   -4.3635    0.1632   -1.1681 H   0  0  0  0  0  0  0  0  0  0  0  0
   -3.5588    2.0196   -2.3551 H   0  0  0  0  0  0  0  0  0  0  0  0
   -3.2303    4.5121   -2.3484 H   0  0  0  0  0  0  0  0  0  0  0  0
   -3.1010    5.7097   -0.2116 H   0  0  0  0  0  0  0  0  0  0  0  0
   -3.2926    4.4764    1.9544 H   0  0  0  0  0  0  0  0  0  0  0  0
   -3.6168    2.0079    1.8609 H   0  0  0  0  0  0  0  0  0  0  0  0
   -4.7817   -1.8517   -0.2534 H   0  0  0  0  0  0  0  0  0  0  0  0
   -2.5812   -5.5339   -0.2284 H   0  0  0  0  0  0  0  0  0  0  0  0
  1  2  1  0
  2  3  2  0
  2  4  1  0
  4  5  1  0
  5  6  1  0
  6  7  2  0
  7  8  1  0
  8  9  2  0
  9 10  1  0
 10 11  2  0
 10 12  1  0
 12 13  2  0
 13 14  1  0
 14 15  2  0
 15 16  1  0
 16 17  1  0
 17 18  1  0
 18 19  2  0
 19 20  1  0
 20 21  2  0
 21 22  1  0
 22 23  2  0
 15 24  1  0
 24 25  2  0
 25 26  1  0
 25 27  1  0
 27 28  2  0
 28 29  1  0
 29 30  1  0
 30 31  2  0
 11  6  1  0
 30 12  1  0
 28 14  1  0
 23 18  1  0
  1 32  1  0
  4 33  1  0
  4 34  1  0
  7 35  1  0
  8 36  1  0
  9 37  1  0
 11 38  1  0
 13 39  1  0
 17 40  1  0
 17 41  1  0
 19 42  1  0
 20 43  1  0
 21 44  1  0
 22 45  1  0
 23 46  1  0
 24 47  1  0
 27 48  1  0
M  END
$$$$
[H]c1c([H])c([H])c2c(c1[H])c1c3c(c4c5c([H])c([H])c([H])c([H])c5n5c4c1n2[C@@]1([H])O[C@@]5(C([H])([H])[H])[C@]([H])(N([H])C([H])([H])[H])C1([H])[H])C([H])([H])N([H])C3=O
     RDKit          2D

 54 61  0  0  0  0  0  0  0  0999 V2000
    3.8173    0.5402    0.0000 C   0  0  0  0  0  0  0  0  0  0  0  0
    2.3907    1.0037    0.0000 N   0  0  0  0  0  0  0  0  0  0  0  0
    1.2760    0.0000    0.0000 C   0  0  0  0  0  0  0  0  0  0  0  0
    0.3943    1.2135    0.0000 C   0  0  0  0  0  0  0  0  0  0  0  0
   -1.0323    0.7500    0.0000 C   0  0  0  0  0  0  0  0  0  0  0  0
   -1.0323   -0.7500    0.0000 O   0  0  0  0  0  0  0  0  0  0  0  0
    0.3943   -1.2135    0.0000 C   0  0  0  0  0  0  0  0  0  0  0  0
    0.8578   -2.6401    0.0000 C   0  0  0  0  0  0  0  0  0  0  0  0
   -0.5926   -2.3431    0.0000 N   0  0  0  0  0  0  0  0  0  0  0  0
   -0.1936   -3.7891    0.0000 C   0  0  0  0  0  0  0  0  0  0  0  0
    1.1480   -4.4600    0.0000 C   0  0  0  0  0  0  0  0  0  0  0  0
    1.2377   -5.9574    0.0000 C   0  0  0  0  0  0  0  0  0  0  0  0
   -0.0141   -6.7837    0.0000 C   0  0  0  0  0  0  0  0  0  0  0  0
   -1.3557   -6.1127    0.0000 C   0  0  0  0  0  0  0  0  0  0  0  0
   -1.4454   -4.6154    0.0000 C   0  0  0  0  0  0  0  0  0  0  0  0
   -2.6182   -3.6802    0.0000 C   0  0  0  0  0  0  0  0  0  0  0  0
   -4.1997   -3.7135    0.0000 C   0  0  0  0  0  0  0  0  0  0  0  0
   -5.0814   -4.9270    0.0000 C   0  0  0  0  0  0  0  0  0  0  0  0
   -6.5080   -4.4635    0.0000 N   0  0  0  0  0  0  0  0  0  0  0  0
   -6.5080   -2.9635    0.0000 C   0  0  0  0  0  0  0  0  0  0  0  0
   -7.7215   -2.0818    0.0000 O   0  0  0  0  0  0  0  0  0  0  0  0
   -5.0814   -2.4999    0.0000 C   0  0  0  0  0  0  0  0  0  0  0  0
   -4.4713   -1.1296    0.0000 C   0  0  0  0  0  0  0  0  0  0  0  0
   -4.9983    0.2747    0.0000 C   0  0  0  0  0  0  0  0  0  0  0  0
   -6.3946    0.8228    0.0000 C   0  0  0  0  0  0  0  0  0  0  0  0
   -6.6182    2.3060    0.0000 C   0  0  0  0  0  0  0  0  0  0  0  0
   -5.4455    3.2412    0.0000 C   0  0  0  0  0  0  0  0  0  0  0  0
   -4.0491    2.6932    0.0000 C   0  0  0  0  0  0  0  0  0  0  0  0
   -3.8256    1.2100    0.0000 C   0  0  0  0  0  0  0  0  0  0  0  0
   -2.5737    0.3836    0.0000 N   0  0  0  0  0  0  0  0  0  0  0  0
   -2.9728   -1.0623    0.0000 C   0  0  0  0  0  0  0  0  0  0  0  0
   -2.0911   -2.2758    0.0000 C   0  0  0  0  0  0  0  0  0  0  0  0
    5.2439    0.0766    0.0000 H   0  0  0  0  0  0  0  0  0  0  0  0
    4.2808    1.9668    0.0000 H   0  0  0  0  0  0  0  0  0  0  0  0
    3.3538   -0.8864    0.0000 H   0  0  0  0  0  0  0  0  0  0  0  0
    2.2848    2.2141    0.0000 H   0  0  0  0  0  0  0  0  0  0  0  0
    2.3907   -1.0037    0.0000 H   0  0  0  0  0  0  0  0  0  0  0  0
   -0.2158    2.5838    0.0000 H   0  0  0  0  0  0  0  0  0  0  0  0
    1.3646    1.9448    0.0000 H   0  0  0  0  0  0  0  0  0  0  0  0
   -2.2458    1.6317    0.0000 H   0  0  0  0  0  0  0  0  0  0  0  0
    1.5017   -3.6705    0.0000 H   0  0  0  0  0  0  0  0  0  0  0  0
    2.2844   -2.1766    0.0000 H   0  0  0  0  0  0  0  0  0  0  0  0
    0.3041   -3.2136    0.0000 H   0  0  0  0  0  0  0  0  0  0  0  0
    2.3999   -3.6337    0.0000 H   0  0  0  0  0  0  0  0  0  0  0  0
    2.5793   -6.6283    0.0000 H   0  0  0  0  0  0  0  0  0  0  0  0
    0.0756   -8.2810    0.0000 H   0  0  0  0  0  0  0  0  0  0  0  0
   -2.6076   -6.9391    0.0000 H   0  0  0  0  0  0  0  0  0  0  0  0
   -3.7823   -5.6770    0.0000 H   0  0  0  0  0  0  0  0  0  0  0  0
   -5.6915   -6.2973    0.0000 H   0  0  0  0  0  0  0  0  0  0  0  0
   -7.7215   -5.3451    0.0000 H   0  0  0  0  0  0  0  0  0  0  0  0
   -7.5674   -0.1125    0.0000 H   0  0  0  0  0  0  0  0  0  0  0  0
   -8.0145    2.8540    0.0000 H   0  0  0  0  0  0  0  0  0  0  0  0
   -5.6690    4.7245    0.0000 H   0  0  0  0  0  0  0  0  0  0  0  0
   -2.8764    3.6285    0.0000 H   0  0  0  0  0  0  0  0  0  0  0  0
  1  2  1  0
  2  3  1  0
  3  4  1  0
  4  5  1  0
  5  6  1  0
  6  7  1  0
  7  8  1  6
  7  9  1  0
  9 10  1  0
 10 11  2  0
 11 12  1  0
 12 13  2  0
 13 14  1  0
 14 15  2  0
 15 16  1  0
 16 17  2  0
 17 18  1  0
 18 19  1  0
 19 20  1  0
 20 21  2  0
 20 22  1  0
 22 23  2  0
 23 24  1  0
 24 25  2  0
 25 26  1  0
 26 27  2  0
 27 28  1  0
 28 29  2  0
 29 30  1  0
 30 31  1  0
 31 32  2  0
  7  3  1  0
 32  9  1  0
 30  5  1  0
 15 10  1  0
 32 16  1  0
 22 17  1  0
 31 23  1  0
 29 24  1  0
  1 33  1  0
  1 34  1  0
  1 35  1  0
  2 36  1  0
  3 37  1  6
  4 38  1  0
  4 39  1  0
  5 40  1  1
  8 41  1  0
  8 42  1  0
  8 43  1  0
 11 44  1  0
 12 45  1  0
 13 46  1  0
 14 47  1  0
 18 48  1  0
 18 49  1  0
 19 50  1  0
 25 51  1  0
 26 52  1  0
 27 53  1  0
 28 54  1  0
M  END
$$$$
[H]ON([H])C(=O)C([H])([H])C([H])([H])C([H])([H])C([H])([H])C([H])([H])C([H])([H])C(=O)N([H])c1c([H])c([H])c([H])c(-c2nnn(-c3c([H])c([H])c([H])c([H])c3[H])c2[H])c1[H]
     RDKit          3D

 55 57  0  0  0  0  0  0  0  0999 V2000
  -10.5609    1.4542   -2.0998 O   0  0  0  0  0  0  0  0  0  0  0  0
  -10.2865    0.2999   -1.4587 N   0  0  0  0  0  0  0  0  0  0  0  0
   -9.0989    0.1659   -0.6789 C   0  0  0  0  0  0  0  0  0  0  0  0
   -8.3187    1.1425   -0.6033 O   0  0  0  0  0  0  0  0  0  0  0  0
   -8.7901   -1.0783    0.0200 C   0  0  0  0  0  0  0  0  0  0  0  0
   -7.4991   -1.1251    0.7538 C   0  0  0  0  0  0  0  0  0  0  0  0
   -6.2704   -0.9482   -0.0667 C   0  0  0  0  0  0  0  0  0  0  0  0
   -5.0049   -1.0153    0.7755 C   0  0  0  0  0  0  0  0  0  0  0  0
   -3.8406   -0.8197   -0.1921 C   0  0  0  0  0  0  0  0  0  0  0  0
   -2.5700   -0.8795    0.6025 C   0  0  0  0  0  0  0  0  0  0  0  0
   -1.3977   -0.6905   -0.3181 C   0  0  0  0  0  0  0  0  0  0  0  0
   -1.6459   -0.5252   -1.5113 O   0  0  0  0  0  0  0  0  0  0  0  0
   -0.1162   -0.7127    0.2236 N   0  0  0  0  0  0  0  0  0  0  0  0
    1.0662   -0.5538   -0.5428 C   0  0  0  0  0  0  0  0  0  0  0  0
    1.1832   -0.6813   -1.8958 C   0  0  0  0  0  0  0  0  0  0  0  0
    2.3925   -0.4869   -2.5841 C   0  0  0  0  0  0  0  0  0  0  0  0
    3.5206   -0.1530   -1.8787 C   0  0  0  0  0  0  0  0  0  0  0  0
    3.4573   -0.0118   -0.5050 C   0  0  0  0  0  0  0  0  0  0  0  0
    2.2626   -0.2094    0.1232 C   0  0  0  0  0  0  0  0  0  0  0  0
    4.6730    0.3450    0.2323 C   0  0  0  0  0  0  0  0  0  0  0  0
    5.9420    0.5758   -0.2482 C   0  0  0  0  0  0  0  0  0  0  0  0
    6.7649    0.8793    0.7987 N   0  0  0  0  0  0  0  0  0  0  0  0
    6.0119    0.8323    1.8778 N   0  0  0  0  0  0  0  0  0  0  0  0
    4.7537    0.5137    1.5612 N   0  0  0  0  0  0  0  0  0  0  0  0
    8.1511    1.1902    0.7938 C   0  0  0  0  0  0  0  0  0  0  0  0
    8.5842    2.4992    0.7069 C   0  0  0  0  0  0  0  0  0  0  0  0
    9.9305    2.7924    0.7027 C   0  0  0  0  0  0  0  0  0  0  0  0
   10.9001    1.8127    0.7836 C   0  0  0  0  0  0  0  0  0  0  0  0
   10.4713    0.5038    0.8705 C   0  0  0  0  0  0  0  0  0  0  0  0
    9.1244    0.2094    0.8748 C   0  0  0  0  0  0  0  0  0  0  0  0
  -10.1916    2.2299   -1.6131 H   0  0  0  0  0  0  0  0  0  0  0  0
  -10.9344   -0.4935   -1.5288 H   0  0  0  0  0  0  0  0  0  0  0  0
   -8.9091   -1.9305   -0.6978 H   0  0  0  0  0  0  0  0  0  0  0  0
   -9.6065   -1.2397    0.7795 H   0  0  0  0  0  0  0  0  0  0  0  0
   -7.4869   -0.4042    1.6212 H   0  0  0  0  0  0  0  0  0  0  0  0
   -7.4461   -2.1370    1.2543 H   0  0  0  0  0  0  0  0  0  0  0  0
   -6.1819   -1.7880   -0.8014 H   0  0  0  0  0  0  0  0  0  0  0  0
   -6.2038   -0.0156   -0.6400 H   0  0  0  0  0  0  0  0  0  0  0  0
   -4.9647   -0.2109    1.5250 H   0  0  0  0  0  0  0  0  0  0  0  0
   -4.8900   -1.9827    1.2735 H   0  0  0  0  0  0  0  0  0  0  0  0
   -3.9569    0.1442   -0.7158 H   0  0  0  0  0  0  0  0  0  0  0  0
   -3.8464   -1.6195   -0.9590 H   0  0  0  0  0  0  0  0  0  0  0  0
   -2.4521   -1.8476    1.1005 H   0  0  0  0  0  0  0  0  0  0  0  0
   -2.5284   -0.1006    1.3783 H   0  0  0  0  0  0  0  0  0  0  0  0
    0.0000   -0.8611    1.2872 H   0  0  0  0  0  0  0  0  0  0  0  0
    0.3277   -0.9582   -2.4930 H   0  0  0  0  0  0  0  0  0  0  0  0
    2.4287   -0.6008   -3.6635 H   0  0  0  0  0  0  0  0  0  0  0  0
    4.4782    0.0081   -2.3612 H   0  0  0  0  0  0  0  0  0  0  0  0
    2.2179   -0.0981    1.1959 H   0  0  0  0  0  0  0  0  0  0  0  0
    6.2518    0.5305   -1.2623 H   0  0  0  0  0  0  0  0  0  0  0  0
    7.8352    3.2741    0.6431 H   0  0  0  0  0  0  0  0  0  0  0  0
   10.2765    3.8228    0.6344 H   0  0  0  0  0  0  0  0  0  0  0  0
   11.9656    2.0628    0.7790 H   0  0  0  0  0  0  0  0  0  0  0  0
   11.2270   -0.2850    0.9353 H   0  0  0  0  0  0  0  0  0  0  0  0
    8.8005   -0.8251    0.9437 H   0  0  0  0  0  0  0  0  0  0  0  0
  1  2  1  0
  2  3  1  0
  3  4  2  0
  3  5  1  0
  5  6  1  0
  6  7  1  0
  7  8  1  0
  8  9  1  0
  9 10  1  0
 10 11  1  0
 11 12  2  0
 11 13  1  0
 13 14  1  0
 14 15  2  0
 15 16  1  0
 16 17  2  0
 17 18  1  0
 18 19  2  0
 18 20  1  0
 20 21  2  0
 21 22  1  0
 22 23  1  0
 23 24  2  0
 22 25  1  0
 25 26  2  0
 26 27  1  0
 27 28  2  0
 28 29  1  0
 29 30  2  0
 19 14  1  0
 24 20  1  0
 30 25  1  0
  1 31  1  0
  2 32  1  0
  5 33  1  0
  5 34  1  0
  6 35  1  0
  6 36  1  0
  7 37  1  0
  7 38  1  0
  8 39  1  0
  8 40  1  0
  9 41  1  0
  9 42  1  0
 10 43  1  0
 10 44  1  0
 13 45  1  0
 15 46  1  0
 16 47  1  0
 17 48  1  0
 19 49  1  0
 21 50  1  0
 26 51  1  0
 27 52  1  0
 28 53  1  0
 29 54  1  0
 30 55  1  0
M  END
$$$$
