[H]c1c([H])c([H])c(N([H])C(=O)[C@]2([H])C([H])([H])[C@@]3([H])N([H])[C@@]([H])(N([H])C(=O)c4c([H])c([H])c(C(F)(F)F)c([H])c4[H])C([H])([H])[C@@]23[H])c([H])c1[H]
     RDKit          3D

 49 52  0  0  0  0  0  0  0  0999 V2000
   -9.7806   -0.2641   -0.0985 F   0  0  0  0  0  0  0  0  0  0  0  0
   -8.8986   -1.1854   -0.5695 C   0  0  0  0  0  0  0  0  0  0  0  0
   -9.2778   -2.4395   -0.1142 F   0  0  0  0  0  0  0  0  0  0  0  0
   -8.9605   -1.2046   -1.9406 F   0  0  0  0  0  0  0  0  0  0  0  0
   -7.4913   -0.8899   -0.1368 C   0  0  0  0  0  0  0  0  0  0  0  0
   -6.3834   -1.3968   -0.7990 C   0  0  0  0  0  0  0  0  0  0  0  0
   -5.0938   -1.1447   -0.4182 C   0  0  0  0  0  0  0  0  0  0  0  0
   -4.8255   -0.3356    0.6935 C   0  0  0  0  0  0  0  0  0  0  0  0
   -5.9394    0.1687    1.3500 C   0  0  0  0  0  0  0  0  0  0  0  0
   -7.2200   -0.0923    0.9573 C   0  0  0  0  0  0  0  0  0  0  0  0
   -3.4805   -0.0710    1.1167 C   0  0  0  0  0  0  0  0  0  0  0  0
   -3.2011   -0.4177    2.3257 O   0  0  0  0  0  0  0  0  0  0  0  0
   -2.4866    0.5101    0.3539 N   0  0  0  0  0  0  0  0  0  0  0  0
   -1.1327    0.7538    0.8296 C   0  0  1  0  0  0  0  0  0  0  0  0
   -0.2277   -0.3826    0.2788 C   0  0  0  0  0  0  0  0  0  0  0  0
    1.1238    0.1959    0.6995 C   0  0  1  0  0  0  0  0  0  0  0  0
    2.1581    0.1474   -0.3841 C   0  0  1  0  0  0  0  0  0  0  0  0
    1.6793    1.5507   -0.7858 C   0  0  0  0  0  0  0  0  0  0  0  0
    0.9215    1.6842    0.5253 C   0  0  1  0  0  0  0  0  0  0  0  0
   -0.4959    1.9146    0.3623 N   0  0  0  0  0  0  0  0  0  0  0  0
    3.5686    0.1683    0.1198 C   0  0  0  0  0  0  0  0  0  0  0  0
    3.7659    0.4106    1.3331 O   0  0  0  0  0  0  0  0  0  0  0  0
    4.6445   -0.0804   -0.7654 N   0  0  0  0  0  0  0  0  0  0  0  0
    6.0077   -0.0869   -0.4825 C   0  0  0  0  0  0  0  0  0  0  0  0
    6.5867    0.5301    0.5837 C   0  0  0  0  0  0  0  0  0  0  0  0
    7.9655    0.4409    0.7847 C   0  0  0  0  0  0  0  0  0  0  0  0
    8.7615   -0.2620   -0.0756 C   0  0  0  0  0  0  0  0  0  0  0  0
    8.2045   -0.8978   -1.1645 C   0  0  0  0  0  0  0  0  0  0  0  0
    6.8510   -0.7937   -1.3364 C   0  0  0  0  0  0  0  0  0  0  0  0
   -6.6070   -2.0277   -1.6597 H   0  0  0  0  0  0  0  0  0  0  0  0
   -4.2459   -1.5574   -0.9574 H   0  0  0  0  0  0  0  0  0  0  0  0
   -5.7206    0.8005    2.2114 H   0  0  0  0  0  0  0  0  0  0  0  0
   -8.0743    0.3232    1.5007 H   0  0  0  0  0  0  0  0  0  0  0  0
   -2.6781    0.8228   -0.6319 H   0  0  0  0  0  0  0  0  0  0  0  0
   -1.0902    0.6599    1.9176 H   0  0  0  0  0  0  0  0  0  0  0  0
   -0.3262   -0.4358   -0.8113 H   0  0  0  0  0  0  0  0  0  0  0  0
   -0.4227   -1.3199    0.8154 H   0  0  0  0  0  0  0  0  0  0  0  0
    1.4483   -0.0798    1.7109 H   0  0  0  0  0  0  0  0  0  0  0  0
    1.9999   -0.5483   -1.2019 H   0  0  0  0  0  0  0  0  0  0  0  0
    1.0593    1.5597   -1.6930 H   0  0  0  0  0  0  0  0  0  0  0  0
    2.5160    2.2683   -0.8260 H   0  0  0  0  0  0  0  0  0  0  0  0
    1.4438    2.2791    1.2987 H   0  0  0  0  0  0  0  0  0  0  0  0
   -0.6415    2.0928   -0.6725 H   0  0  0  0  0  0  0  0  0  0  0  0
    4.3452   -0.2899   -1.7765 H   0  0  0  0  0  0  0  0  0  0  0  0
    6.0371    1.1125    1.3097 H   0  0  0  0  0  0  0  0  0  0  0  0
    8.4505    0.9234    1.6267 H   0  0  0  0  0  0  0  0  0  0  0  0
    9.8414   -0.3526    0.0505 H   0  0  0  0  0  0  0  0  0  0  0  0
    8.8702   -1.4407   -1.8260 H   0  0  0  0  0  0  0  0  0  0  0  0
    6.4515   -1.3204   -2.2174 H   0  0  0  0  0  0  0  0  0  0  0  0
  1  2  1  0
  2  3  1  0
  2  4  1  0
  2  5  1  0
  5  6  2  0
  6  7  1  0
  7  8  2  0
  8  9  1  0
  9 10  2  0
  8 11  1  0
 11 12  2  0
 11 13  1  0
 13 14  1  0
 14 15  1  0
 15 16  1  0
 16 17  1  0
 17 18  1  0
 18 19  1  0
 19 20  1  0
 17 21  1  0
 21 22  2  0
 21 23  1  0
 23 24  1  0
 24 25  2  0
 25 26  1  0
 26 27  2  0
 27 28  1  0
 28 29  2  0
 10  5  1  0
 20 14  1  0
 29 24  1  0
 19 16  1  0
  6 30  1  0
  7 31  1  0
  9 32  1  0
 10 33  1  0
 13 34  1  0
 14 35  1  1
 15 36  1  0
 15 37  1  0
 16 38  1  1
 17 39  1  6
 18 40  1  0
 18 41  1  0
 19 42  1  1
 20 43  1  0
 23 44  1  0
 25 45  1  0
 26 46  1  0
 27 47  1  0
 28 48  1  0
 29 49  1  0
M  END
$$$$
[H]c1c([H])c([H])c(N([H])C(=O)[C@]2([H])C([H])([H])[C@@]3([H])N([H])[C@@]([H])(N([H])C(=O)c4c([H])c([H])c(C(F)(F)F)c([H])c4[H])C([H])([H])[C@]23[H])c([H])c1[H]
     RDKit          3D

 49 52  0  0  0  0  0  0  0  0999 V2000
   -9.2330    0.0719    1.0304 F   0  0  0  0  0  0  0  0  0  0  0  0
   -8.7424   -0.8973    0.1899 C   0  0  0  0  0  0  0  0  0  0  0  0
   -9.1280   -2.1350    0.5808 F   0  0  0  0  0  0  0  0  0  0  0  0
   -9.2354   -0.5981   -1.0897 F   0  0  0  0  0  0  0  0  0  0  0  0
   -7.2394   -0.7964    0.0918 C   0  0  0  0  0  0  0  0  0  0  0  0
   -6.5752   -1.0645   -1.0857 C   0  0  0  0  0  0  0  0  0  0  0  0
   -5.2221   -0.9679   -1.2248 C   0  0  0  0  0  0  0  0  0  0  0  0
   -4.4334   -0.5825   -0.1498 C   0  0  0  0  0  0  0  0  0  0  0  0
   -5.0965   -0.3130    1.0350 C   0  0  0  0  0  0  0  0  0  0  0  0
   -6.4705   -0.4174    1.1531 C   0  0  0  0  0  0  0  0  0  0  0  0
   -2.9934   -0.4554   -0.2805 C   0  0  0  0  0  0  0  0  0  0  0  0
   -2.4960   -0.8536   -1.3922 O   0  0  0  0  0  0  0  0  0  0  0  0
   -2.1857    0.0593    0.6973 N   0  0  0  0  0  0  0  0  0  0  0  0
   -0.7812    0.2721    0.7679 C   0  0  1  0  0  0  0  0  0  0  0  0
    0.1036   -0.7284    0.0566 C   0  0  0  0  0  0  0  0  0  0  0  0
    0.7542    0.1147   -0.9400 C   0  0  2  0  0  0  0  0  0  0  0  0
    2.1203    0.3144   -1.2388 C   0  0  1  0  0  0  0  0  0  0  0  0
    1.7335    1.8322   -1.1302 C   0  0  0  0  0  0  0  0  0  0  0  0
    0.9251    1.3669   -0.0188 C   0  0  1  0  0  0  0  0  0  0  0  0
   -0.4233    1.5939    0.1916 N   0  0  0  0  0  0  0  0  0  0  0  0
    3.2417    0.0105   -0.3252 C   0  0  0  0  0  0  0  0  0  0  0  0
    3.1820   -0.5754    0.7645 O   0  0  0  0  0  0  0  0  0  0  0  0
    4.5316    0.4416   -0.7435 N   0  0  0  0  0  0  0  0  0  0  0  0
    5.6910    0.2589    0.0339 C   0  0  0  0  0  0  0  0  0  0  0  0
    5.7588    0.3463    1.4122 C   0  0  0  0  0  0  0  0  0  0  0  0
    6.9791    0.1465    2.0869 C   0  0  0  0  0  0  0  0  0  0  0  0
    8.1227   -0.1411    1.3986 C   0  0  0  0  0  0  0  0  0  0  0  0
    8.0755   -0.2347    0.0229 C   0  0  0  0  0  0  0  0  0  0  0  0
    6.8744   -0.0354   -0.6278 C   0  0  0  0  0  0  0  0  0  0  0  0
   -7.1970   -1.3732   -1.9252 H   0  0  0  0  0  0  0  0  0  0  0  0
   -4.7127   -1.1933   -2.1671 H   0  0  0  0  0  0  0  0  0  0  0  0
   -4.5246   -0.0109    1.9140 H   0  0  0  0  0  0  0  0  0  0  0  0
   -6.9544   -0.2052    2.0874 H   0  0  0  0  0  0  0  0  0  0  0  0
   -2.6905    0.3893    1.6066 H   0  0  0  0  0  0  0  0  0  0  0  0
   -0.3954    0.2668    1.8233 H   0  0  0  0  0  0  0  0  0  0  0  0
   -0.5031   -1.5042   -0.4192 H   0  0  0  0  0  0  0  0  0  0  0  0
    0.7824   -1.2561    0.7643 H   0  0  0  0  0  0  0  0  0  0  0  0
    0.0752    0.4123   -1.7594 H   0  0  0  0  0  0  0  0  0  0  0  0
    2.3988    0.1498   -2.2936 H   0  0  0  0  0  0  0  0  0  0  0  0
    1.2643    2.2146   -2.0188 H   0  0  0  0  0  0  0  0  0  0  0  0
    2.6390    2.3797   -0.8304 H   0  0  0  0  0  0  0  0  0  0  0  0
    1.4510    1.1400    0.8975 H   0  0  0  0  0  0  0  0  0  0  0  0
   -0.9152    1.6903   -0.7399 H   0  0  0  0  0  0  0  0  0  0  0  0
    4.6420    0.9416   -1.6774 H   0  0  0  0  0  0  0  0  0  0  0  0
    4.8733    0.5795    1.9505 H   0  0  0  0  0  0  0  0  0  0  0  0
    7.0094    0.2260    3.1704 H   0  0  0  0  0  0  0  0  0  0  0  0
    9.0440   -0.2890    1.9550 H   0  0  0  0  0  0  0  0  0  0  0  0
    8.9977   -0.4618   -0.4801 H   0  0  0  0  0  0  0  0  0  0  0  0
    6.8777   -0.1295   -1.7137 H   0  0  0  0  0  0  0  0  0  0  0  0
  1  2  1  0
  2  3  1  0
  2  4  1  0
  2  5  1  0
  5  6  2  0
  6  7  1  0
  7  8  2  0
  8  9  1  0
  9 10  2  0
  8 11  1  0
 11 12  2  0
 11 13  1  0
 13 14  1  0
 14 15  1  0
 15 16  1  0
 16 17  1  0
 17 18  1  0
 18 19  1  0
 19 20  1  0
 17 21  1  0
 21 22  2  0
 21 23  1  0
 23 24  1  0
 24 25  2  0
 25 26  1  0
 26 27  2  0
 27 28  1  0
 28 29  2  0
 10  5  1  0
 20 14  1  0
 29 24  1  0
 19 16  1  0
  6 30  1  0
  7 31  1  0
  9 32  1  0
 10 33  1  0
 13 34  1  0
 14 35  1  1
 15 36  1  0
 15 37  1  0
 16 38  1  6
 17 39  1  6
 18 40  1  0
 18 41  1  0
 19 42  1  1
 20 43  1  0
 23 44  1  0
 25 45  1  0
 26 46  1  0
 27 47  1  0
 28 48  1  0
 29 49  1  0
M  END
$$$$
[H]c1c([H])c([H])c(N([H])C(=O)[C@]2([H])C([H])([H])[C@]3([H])N([H])[C@@]([H])(N([H])C(=O)c4c([H])c([H])c(C(F)(F)F)c([H])c4[H])C([H])([H])[C@]32[H])c([H])c1[H]
     RDKit          3D

 49 52  0  0  0  0  0  0  0  0999 V2000
   -9.0523    0.8910   -0.5723 F   0  0  0  0  0  0  0  0  0  0  0  0
   -8.4460   -0.2152   -1.1552 C   0  0  0  0  0  0  0  0  0  0  0  0
   -9.2594   -1.2899   -0.9885 F   0  0  0  0  0  0  0  0  0  0  0  0
   -8.3143    0.1337   -2.5133 F   0  0  0  0  0  0  0  0  0  0  0  0
   -7.0956   -0.4619   -0.5782 C   0  0  0  0  0  0  0  0  0  0  0  0
   -6.0263   -0.8943   -1.3296 C   0  0  0  0  0  0  0  0  0  0  0  0
   -4.7785   -1.1256   -0.8267 C   0  0  0  0  0  0  0  0  0  0  0  0
   -4.5388   -0.9201    0.5309 C   0  0  0  0  0  0  0  0  0  0  0  0
   -5.6161   -0.4815    1.3016 C   0  0  0  0  0  0  0  0  0  0  0  0
   -6.8617   -0.2573    0.7671 C   0  0  0  0  0  0  0  0  0  0  0  0
   -3.2260   -1.1390    1.0949 C   0  0  0  0  0  0  0  0  0  0  0  0
   -3.0856   -2.0033    1.9934 O   0  0  0  0  0  0  0  0  0  0  0  0
   -2.1241   -0.4061    0.6607 N   0  0  0  0  0  0  0  0  0  0  0  0
   -0.7775   -0.5317    1.1531 C   0  0  1  0  0  0  0  0  0  0  0  0
    0.2342   -0.8627    0.0782 C   0  0  0  0  0  0  0  0  0  0  0  0
    1.2623    0.1481    0.3833 C   0  0  1  0  0  0  0  0  0  0  0  0
    1.9189    1.0139   -0.5369 C   0  0  1  0  0  0  0  0  0  0  0  0
    1.3533    2.1617    0.3423 C   0  0  0  0  0  0  0  0  0  0  0  0
    0.2336    1.3101    0.5356 C   0  0  2  0  0  0  0  0  0  0  0  0
   -0.3300    0.7786    1.7181 N   0  0  0  0  0  0  0  0  0  0  0  0
    3.4111    1.0911   -0.3763 C   0  0  0  0  0  0  0  0  0  0  0  0
    3.9410    2.2487   -0.2120 O   0  0  0  0  0  0  0  0  0  0  0  0
    4.2514   -0.0196   -0.4010 N   0  0  0  0  0  0  0  0  0  0  0  0
    5.6451   -0.0055   -0.2624 C   0  0  0  0  0  0  0  0  0  0  0  0
    6.3898    0.9562    0.3636 C   0  0  0  0  0  0  0  0  0  0  0  0
    7.7788    0.8786    0.3981 C   0  0  0  0  0  0  0  0  0  0  0  0
    8.4433   -0.1586   -0.1904 C   0  0  0  0  0  0  0  0  0  0  0  0
    7.6973   -1.1208   -0.8156 C   0  0  0  0  0  0  0  0  0  0  0  0
    6.3391   -1.0585   -0.8574 C   0  0  0  0  0  0  0  0  0  0  0  0
   -6.1902   -1.0618   -2.3907 H   0  0  0  0  0  0  0  0  0  0  0  0
   -3.9449   -1.4796   -1.4596 H   0  0  0  0  0  0  0  0  0  0  0  0
   -5.4311   -0.3158    2.3771 H   0  0  0  0  0  0  0  0  0  0  0  0
   -7.7053    0.0924    1.3806 H   0  0  0  0  0  0  0  0  0  0  0  0
   -2.2755    0.3224   -0.1043 H   0  0  0  0  0  0  0  0  0  0  0  0
   -0.7231   -1.2672    1.9386 H   0  0  0  0  0  0  0  0  0  0  0  0
    0.5876   -1.9113    0.1118 H   0  0  0  0  0  0  0  0  0  0  0  0
   -0.2471   -0.6200   -0.9021 H   0  0  0  0  0  0  0  0  0  0  0  0
    1.7683   -0.0370    1.3200 H   0  0  0  0  0  0  0  0  0  0  0  0
    1.6036    1.0749   -1.5961 H   0  0  0  0  0  0  0  0  0  0  0  0
    1.2280    3.0258   -0.3504 H   0  0  0  0  0  0  0  0  0  0  0  0
    1.9944    2.4072    1.2022 H   0  0  0  0  0  0  0  0  0  0  0  0
   -0.5105    1.3359   -0.2809 H   0  0  0  0  0  0  0  0  0  0  0  0
   -1.1837    1.2655    2.0298 H   0  0  0  0  0  0  0  0  0  0  0  0
    3.7721   -0.9578   -0.5361 H   0  0  0  0  0  0  0  0  0  0  0  0
    5.9127    1.7758    0.8466 H   0  0  0  0  0  0  0  0  0  0  0  0
    8.3421    1.6703    0.9128 H   0  0  0  0  0  0  0  0  0  0  0  0
    9.5571   -0.1953   -0.1532 H   0  0  0  0  0  0  0  0  0  0  0  0
    8.2684   -1.9374   -1.2769 H   0  0  0  0  0  0  0  0  0  0  0  0
    5.8099   -1.8469   -1.3643 H   0  0  0  0  0  0  0  0  0  0  0  0
  1  2  1  0
  2  3  1  0
  2  4  1  0
  2  5  1  0
  5  6  2  0
  6  7  1  0
  7  8  2  0
  8  9  1  0
  9 10  2  0
  8 11  1  0
 11 12  2  0
 11 13  1  0
 13 14  1  0
 14 15  1  0
 15 16  1  0
 16 17  1  0
 17 18  1  0
 18 19  1  0
 19 20  1  0
 17 21  1  0
 21 22  2  0
 21 23  1  0
 23 24  1  0
 24 25  2  0
 25 26  1  0
 26 27  2  0
 27 28  1  0
 28 29  2  0
 10  5  1  0
 20 14  1  0
 29 24  1  0
 19 16  1  0
  6 30  1  0
  7 31  1  0
  9 32  1  0
 10 33  1  0
 13 34  1  0
 14 35  1  1
 15 36  1  0
 15 37  1  0
 16 38  1  1
 17 39  1  6
 18 40  1  0
 18 41  1  0
 19 42  1  6
 20 43  1  0
 23 44  1  0
 25 45  1  0
 26 46  1  0
 27 47  1  0
 28 48  1  0
 29 49  1  0
M  END
$$$$
[H]c1c([H])c([H])c(N([H])C(=O)[C@]2([H])C([H])([H])[C@]3([H])N([H])[C@@]([H])(N([H])C(=O)c4c([H])c([H])c(C(F)(F)F)c([H])c4[H])C([H])([H])[C@@]32[H])c([H])c1[H]
     RDKit          3D

 49 52  0  0  0  0  0  0  0  0999 V2000
   -8.9659   -0.5429   -0.1060 F   0  0  0  0  0  0  0  0  0  0  0  0
   -8.0465   -1.4716   -0.4135 C   0  0  0  0  0  0  0  0  0  0  0  0
   -8.3864   -2.6988    0.1387 F   0  0  0  0  0  0  0  0  0  0  0  0
   -8.0467   -1.6024   -1.8059 F   0  0  0  0  0  0  0  0  0  0  0  0
   -6.6723   -1.1370    0.0396 C   0  0  0  0  0  0  0  0  0  0  0  0
   -5.5847   -1.3782   -0.8055 C   0  0  0  0  0  0  0  0  0  0  0  0
   -4.2927   -1.1063   -0.4160 C   0  0  0  0  0  0  0  0  0  0  0  0
   -3.9958   -0.5769    0.8181 C   0  0  0  0  0  0  0  0  0  0  0  0
   -5.0754   -0.3294    1.6674 C   0  0  0  0  0  0  0  0  0  0  0  0
   -6.3700   -0.6120    1.2649 C   0  0  0  0  0  0  0  0  0  0  0  0
   -2.6467   -0.2489    1.2660 C   0  0  0  0  0  0  0  0  0  0  0  0
   -2.3203   -0.3139    2.4815 O   0  0  0  0  0  0  0  0  0  0  0  0
   -1.6261    0.1662    0.3544 N   0  0  0  0  0  0  0  0  0  0  0  0
   -0.2860    0.4912    0.7813 C   0  0  1  0  0  0  0  0  0  0  0  0
    0.8048    0.0118   -0.1266 C   0  0  0  0  0  0  0  0  0  0  0  0
    0.8760    1.0691   -1.2246 C   0  0  2  0  0  0  0  0  0  0  0  0
    2.1303    1.8674   -1.2896 C   0  0  1  0  0  0  0  0  0  0  0  0
    1.4018    3.0742   -0.8273 C   0  0  0  0  0  0  0  0  0  0  0  0
    0.1742    2.2294   -0.6106 C   0  0  2  0  0  0  0  0  0  0  0  0
   -0.1262    1.9529    0.7777 N   0  0  0  0  0  0  0  0  0  0  0  0
    3.2653    1.4037   -0.4266 C   0  0  0  0  0  0  0  0  0  0  0  0
    3.5755    2.0263    0.5978 O   0  0  0  0  0  0  0  0  0  0  0  0
    3.9459    0.2456   -0.8310 N   0  0  0  0  0  0  0  0  0  0  0  0
    5.0433   -0.4002   -0.2108 C   0  0  0  0  0  0  0  0  0  0  0  0
    5.7062    0.0878    0.8774 C   0  0  0  0  0  0  0  0  0  0  0  0
    6.7917   -0.5904    1.4757 C   0  0  0  0  0  0  0  0  0  0  0  0
    7.2278   -1.7890    0.9780 C   0  0  0  0  0  0  0  0  0  0  0  0
    6.5658   -2.2929   -0.1218 C   0  0  0  0  0  0  0  0  0  0  0  0
    5.5125   -1.6239   -0.6978 C   0  0  0  0  0  0  0  0  0  0  0  0
   -5.8090   -1.7967   -1.7932 H   0  0  0  0  0  0  0  0  0  0  0  0
   -3.4619   -1.2973   -1.1055 H   0  0  0  0  0  0  0  0  0  0  0  0
   -4.8662    0.0952    2.6409 H   0  0  0  0  0  0  0  0  0  0  0  0
   -7.2111   -0.4209    1.9387 H   0  0  0  0  0  0  0  0  0  0  0  0
   -1.9091    0.2175   -0.6668 H   0  0  0  0  0  0  0  0  0  0  0  0
   -0.1887    0.1936    1.8368 H   0  0  0  0  0  0  0  0  0  0  0  0
    0.5837   -0.9656   -0.5403 H   0  0  0  0  0  0  0  0  0  0  0  0
    1.7590    0.0356    0.4630 H   0  0  0  0  0  0  0  0  0  0  0  0
    0.4695    0.7038   -2.1908 H   0  0  0  0  0  0  0  0  0  0  0  0
    2.4425    2.0168   -2.3601 H   0  0  0  0  0  0  0  0  0  0  0  0
    1.2283    3.8657   -1.5977 H   0  0  0  0  0  0  0  0  0  0  0  0
    1.8294    3.4778    0.1273 H   0  0  0  0  0  0  0  0  0  0  0  0
   -0.7033    2.5989   -1.1895 H   0  0  0  0  0  0  0  0  0  0  0  0
   -1.0744    2.3237    0.9699 H   0  0  0  0  0  0  0  0  0  0  0  0
    3.6118   -0.2520   -1.7417 H   0  0  0  0  0  0  0  0  0  0  0  0
    5.4512    1.0178    1.3278 H   0  0  0  0  0  0  0  0  0  0  0  0
    7.2754   -0.1397    2.3243 H   0  0  0  0  0  0  0  0  0  0  0  0
    8.0721   -2.3277    1.4367 H   0  0  0  0  0  0  0  0  0  0  0  0
    6.9293   -3.2266   -0.5154 H   0  0  0  0  0  0  0  0  0  0  0  0
    4.9921   -2.0308   -1.5585 H   0  0  0  0  0  0  0  0  0  0  0  0
  1  2  1  0
  2  3  1  0
  2  4  1  0
  2  5  1  0
  5  6  2  0
  6  7  1  0
  7  8  2  0
  8  9  1  0
  9 10  2  0
  8 11  1  0
 11 12  2  0
 11 13  1  0
 13 14  1  0
 14 15  1  0
 15 16  1  0
 16 17  1  0
 17 18  1  0
 18 19  1  0
 19 20  1  0
 17 21  1  0
 21 22  2  0
 21 23  1  0
 23 24  1  0
 24 25  2  0
 25 26  1  0
 26 27  2  0
 27 28  1  0
 28 29  2  0
 10  5  1  0
 20 14  1  0
 29 24  1  0
 19 16  1  0
  6 30  1  0
  7 31  1  0
  9 32  1  0
 10 33  1  0
 13 34  1  0
 14 35  1  1
 15 36  1  0
 15 37  1  0
 16 38  1  6
 17 39  1  6
 18 40  1  0
 18 41  1  0
 19 42  1  6
 20 43  1  0
 23 44  1  0
 25 45  1  0
 26 46  1  0
 27 47  1  0
 28 48  1  0
 29 49  1  0
M  END
$$$$
[H]c1c([H])c([H])c([C@]2([H])C([H])([H])[C@@]3([H])N4C([H])([H])[C@@]([H])(C([H])([H])[C@]2([H])N([H])C(=O)c2c([H])c([H])c(C(F)(F)F)c([H])c2[H])[C@@]43[H])c([H])c1[H]
     RDKit          2D

 49 53  0  0  0  0  0  0  0  0999 V2000
    1.6909   13.0554    0.0000 F   0  0  0  0  0  0  0  0  0  0  0  0
    1.9144   11.5722    0.0000 C   0  0  0  0  0  0  0  0  0  0  0  0
    3.3977   11.7958    0.0000 F   0  0  0  0  0  0  0  0  0  0  0  0
    0.4312   11.3486    0.0000 F   0  0  0  0  0  0  0  0  0  0  0  0
    2.1380   10.0889    0.0000 C   0  0  0  0  0  0  0  0  0  0  0  0
    3.5343    9.5409    0.0000 C   0  0  0  0  0  0  0  0  0  0  0  0
    3.7579    8.0577    0.0000 C   0  0  0  0  0  0  0  0  0  0  0  0
    2.5851    7.1225    0.0000 C   0  0  0  0  0  0  0  0  0  0  0  0
    1.1888    7.6705    0.0000 C   0  0  0  0  0  0  0  0  0  0  0  0
    0.9652    9.1537    0.0000 C   0  0  0  0  0  0  0  0  0  0  0  0
    2.8087    5.6392    0.0000 C   0  0  0  0  0  0  0  0  0  0  0  0
    4.2050    5.0912    0.0000 O   0  0  0  0  0  0  0  0  0  0  0  0
    1.6359    4.7040    0.0000 N   0  0  0  0  0  0  0  0  0  0  0  0
    1.8595    3.2207    0.0000 C   0  0  0  0  0  0  0  0  0  0  0  0
    2.7045    1.9814    0.0000 C   0  0  0  0  0  0  0  0  0  0  0  0
    2.2623    0.5480    0.0000 C   0  0  0  0  0  0  0  0  0  0  0  0
    0.8660    0.0000    0.0000 C   0  0  0  0  0  0  0  0  0  0  0  0
   -0.4330    0.7500    0.0000 C   0  0  0  0  0  0  0  0  0  0  0  0
   -0.6566    2.2332    0.0000 C   0  0  0  0  0  0  0  0  0  0  0  0
    0.3637    3.3328    0.0000 C   0  0  0  0  0  0  0  0  0  0  0  0
   -0.9354    4.0828    0.0000 C   0  0  0  0  0  0  0  0  0  0  0  0
   -0.9354    5.5828    0.0000 C   0  0  0  0  0  0  0  0  0  0  0  0
   -2.2344    6.3328    0.0000 C   0  0  0  0  0  0  0  0  0  0  0  0
   -3.5334    5.5828    0.0000 C   0  0  0  0  0  0  0  0  0  0  0  0
   -3.5334    4.0828    0.0000 C   0  0  0  0  0  0  0  0  0  0  0  0
   -2.2344    3.3328    0.0000 C   0  0  0  0  0  0  0  0  0  0  0  0
   -0.4330   -0.7500    0.0000 N   0  0  0  0  0  0  0  0  0  0  0  0
    1.7669   -0.8678    0.0000 C   0  0  0  0  0  0  0  0  0  0  0  0
    4.7070   10.4762    0.0000 H   0  0  0  0  0  0  0  0  0  0  0  0
    5.1542    7.5097    0.0000 H   0  0  0  0  0  0  0  0  0  0  0  0
    0.1388    6.5993    0.0000 H   0  0  0  0  0  0  0  0  0  0  0  0
   -0.4311    9.7017    0.0000 H   0  0  0  0  0  0  0  0  0  0  0  0
    0.3168    5.4181    0.0000 H   0  0  0  0  0  0  0  0  0  0  0  0
    3.1786    3.9349    0.0000 H   0  0  0  0  0  0  0  0  0  0  0  0
    3.8512    2.9484    0.0000 H   0  0  0  0  0  0  0  0  0  0  0  0
    4.0035    1.2314    0.0000 H   0  0  0  0  0  0  0  0  0  0  0  0
    3.4781   -0.3306    0.0000 H   0  0  0  0  0  0  0  0  0  0  0  0
    1.3754   -0.6132    0.0000 H   0  0  0  0  0  0  0  0  0  0  0  0
   -1.9288    0.6379    0.0000 H   0  0  0  0  0  0  0  0  0  0  0  0
   -1.9757    1.5191    0.0000 H   0  0  0  0  0  0  0  0  0  0  0  0
   -1.7763    3.2313    0.0000 H   0  0  0  0  0  0  0  0  0  0  0  0
    0.2627    4.8294    0.0000 H   0  0  0  0  0  0  0  0  0  0  0  0
    0.4454    6.1689    0.0000 H   0  0  0  0  0  0  0  0  0  0  0  0
   -2.2344    7.8328    0.0000 H   0  0  0  0  0  0  0  0  0  0  0  0
   -4.8325    6.3328    0.0000 H   0  0  0  0  0  0  0  0  0  0  0  0
   -4.8325    3.3328    0.0000 H   0  0  0  0  0  0  0  0  0  0  0  0
   -2.4172    1.8440    0.0000 H   0  0  0  0  0  0  0  0  0  0  0  0
    3.1118   -1.5321    0.0000 H   0  0  0  0  0  0  0  0  0  0  0  0
    1.2715   -2.2836    0.0000 H   0  0  0  0  0  0  0  0  0  0  0  0
  1  2  1  0
  2  3  1  0
  2  4  1  0
  2  5  1  0
  5  6  2  0
  6  7  1  0
  7  8  2  0
  8  9  1  0
  9 10  2  0
  8 11  1  0
 11 12  2  0
 11 13  1  0
 13 14  1  0
 14 15  1  0
 15 16  1  0
 16 17  1  0
 17 18  1  0
 18 19  1  0
 19 20  1  0
 20 21  1  0
 21 22  2  0
 22 23  1  0
 23 24  2  0
 24 25  1  0
 25 26  2  0
 18 27  1  0
 27 28  1  0
 10  5  1  0
 20 14  1  0
 26 21  1  0
 28 16  1  0
 27 17  1  0
  6 29  1  0
  7 30  1  0
  9 31  1  0
 10 32  1  0
 13 33  1  0
 14 34  1  6
 15 35  1  0
 15 36  1  0
 16 37  1  1
 17 38  1  6
 18 39  1  1
 19 40  1  0
 19 41  1  0
 20 42  1  6
 22 43  1  0
 23 44  1  0
 24 45  1  0
 25 46  1  0
 26 47  1  0
 28 48  1  0
 28 49  1  0
M  END
$$$$
[H]c1c([H])c([H])c(C([H])([H])N([H])C(=O)[C@]2([H])C([H])([H])[C@@]3([H])N([H])[C@@]([H])(N([H])C(=O)c4c([H])c([H])c(C(F)(F)F)c([H])c4[H])C([H])([H])[C@]23[H])c([H])c1[H]
     RDKit          3D

 52 55  0  0  0  0  0  0  0  0999 V2000
    9.4115   -0.3909   -1.2183 F   0  0  0  0  0  0  0  0  0  0  0  0
    9.0715    0.8414   -0.6481 C   0  0  0  0  0  0  0  0  0  0  0  0
    9.4134    1.9010   -1.4122 F   0  0  0  0  0  0  0  0  0  0  0  0
    9.7615    0.9482    0.5728 F   0  0  0  0  0  0  0  0  0  0  0  0
    7.5998    0.7821   -0.3088 C   0  0  0  0  0  0  0  0  0  0  0  0
    6.8383    1.9026   -0.1507 C   0  0  0  0  0  0  0  0  0  0  0  0
    5.4830    1.7749    0.1803 C   0  0  0  0  0  0  0  0  0  0  0  0
    4.8989    0.5506    0.3450 C   0  0  0  0  0  0  0  0  0  0  0  0
    5.6834   -0.5660    0.1788 C   0  0  0  0  0  0  0  0  0  0  0  0
    7.0155   -0.4446   -0.1433 C   0  0  0  0  0  0  0  0  0  0  0  0
    3.5258    0.3615    0.7232 C   0  0  0  0  0  0  0  0  0  0  0  0
    3.1917    0.9032    1.8417 O   0  0  0  0  0  0  0  0  0  0  0  0
    2.5381   -0.3512   -0.0071 N   0  0  0  0  0  0  0  0  0  0  0  0
    1.1846   -0.4978    0.4848 C   0  0  1  0  0  0  0  0  0  0  0  0
    0.2050    0.3273   -0.3444 C   0  0  0  0  0  0  0  0  0  0  0  0
   -0.3944   -0.7384   -1.1205 C   0  0  2  0  0  0  0  0  0  0  0  0
   -1.7582   -1.0472   -1.4642 C   0  0  1  0  0  0  0  0  0  0  0  0
   -1.5550   -2.3589   -0.7355 C   0  0  0  0  0  0  0  0  0  0  0  0
   -0.6320   -1.6749    0.1124 C   0  0  1  0  0  0  0  0  0  0  0  0
    0.7572   -1.9088    0.3287 N   0  0  0  0  0  0  0  0  0  0  0  0
   -2.8603   -0.1879   -1.1542 C   0  0  0  0  0  0  0  0  0  0  0  0
   -3.5789    0.1917   -2.1815 O   0  0  0  0  0  0  0  0  0  0  0  0
   -3.3327    0.3541    0.0492 N   0  0  0  0  0  0  0  0  0  0  0  0
   -4.4431    1.2295    0.1581 C   0  0  0  0  0  0  0  0  0  0  0  0
   -5.7996    0.6707    0.2093 C   0  0  0  0  0  0  0  0  0  0  0  0
   -6.1334   -0.5888    0.5902 C   0  0  0  0  0  0  0  0  0  0  0  0
   -7.4540   -0.9745    0.6375 C   0  0  0  0  0  0  0  0  0  0  0  0
   -8.4431   -0.0971    0.3019 C   0  0  0  0  0  0  0  0  0  0  0  0
   -8.1255    1.1934   -0.0913 C   0  0  0  0  0  0  0  0  0  0  0  0
   -6.8086    1.5632   -0.1338 C   0  0  0  0  0  0  0  0  0  0  0  0
    7.3179    2.8699   -0.2870 H   0  0  0  0  0  0  0  0  0  0  0  0
    4.9387    2.6953    0.2891 H   0  0  0  0  0  0  0  0  0  0  0  0
    5.2707   -1.5394    0.2984 H   0  0  0  0  0  0  0  0  0  0  0  0
    7.5944   -1.3550   -0.2616 H   0  0  0  0  0  0  0  0  0  0  0  0
    2.8128   -0.7702   -0.9154 H   0  0  0  0  0  0  0  0  0  0  0  0
    1.1044   -0.2087    1.5570 H   0  0  0  0  0  0  0  0  0  0  0  0
    0.7701    1.1281   -0.8837 H   0  0  0  0  0  0  0  0  0  0  0  0
   -0.4917    0.8076    0.4084 H   0  0  0  0  0  0  0  0  0  0  0  0
    0.3543   -1.2332   -1.7961 H   0  0  0  0  0  0  0  0  0  0  0  0
   -1.8004   -1.3215   -2.5790 H   0  0  0  0  0  0  0  0  0  0  0  0
   -1.1716   -3.1861   -1.3841 H   0  0  0  0  0  0  0  0  0  0  0  0
   -2.5022   -2.7482   -0.2690 H   0  0  0  0  0  0  0  0  0  0  0  0
   -1.0672   -1.1377    0.9604 H   0  0  0  0  0  0  0  0  0  0  0  0
    1.2403   -2.4004   -0.4173 H   0  0  0  0  0  0  0  0  0  0  0  0
   -2.8505    0.1097    0.9373 H   0  0  0  0  0  0  0  0  0  0  0  0
   -4.3751    2.0370   -0.6471 H   0  0  0  0  0  0  0  0  0  0  0  0
   -4.3128    1.8284    1.1129 H   0  0  0  0  0  0  0  0  0  0  0  0
   -5.3435   -1.2753    0.8517 H   0  0  0  0  0  0  0  0  0  0  0  0
   -7.7591   -1.9769    0.9444 H   0  0  0  0  0  0  0  0  0  0  0  0
   -9.4757   -0.4111    0.3561 H   0  0  0  0  0  0  0  0  0  0  0  0
   -8.9318    1.8433   -0.3313 H   0  0  0  0  0  0  0  0  0  0  0  0
   -6.5823    2.5760   -0.4449 H   0  0  0  0  0  0  0  0  0  0  0  0
  1  2  1  0
  2  3  1  0
  2  4  1  0
  2  5  1  0
  5  6  2  0
  6  7  1  0
  7  8  2  0
  8  9  1  0
  9 10  2  0
  8 11  1  0
 11 12  2  0
 11 13  1  0
 13 14  1  0
 14 15  1  0
 15 16  1  0
 16 17  1  0
 17 18  1  0
 18 19  1  0
 19 20  1  0
 17 21  1  0
 21 22  2  0
 21 23  1  0
 23 24  1  0
 24 25  1  0
 25 26  2  0
 26 27  1  0
 27 28  2  0
 28 29  1  0
 29 30  2  0
 10  5  1  0
 20 14  1  0
 30 25  1  0
 19 16  1  0
  6 31  1  0
  7 32  1  0
  9 33  1  0
 10 34  1  0
 13 35  1  0
 14 36  1  1
 15 37  1  0
 15 38  1  0
 16 39  1  6
 17 40  1  6
 18 41  1  0
 18 42  1  0
 19 43  1  1
 20 44  1  0
 23 45  1  0
 24 46  1  0
 24 47  1  0
 26 48  1  0
 27 49  1  0
 28 50  1  0
 29 51  1  0
 30 52  1  0
M  END
$$$$
[H]c1c([H])c([H])c([C@]2([H])C([H])([H])[C@]3([H])N4C([H])([H])[C@@]([H])(C([H])([H])[C@]2([H])N([H])C(=O)c2c([H])c([H])c(C(F)(F)F)c([H])c2[H])[C@@]43[H])c([H])c1[H]
     RDKit          2D

 49 53  0  0  0  0  0  0  0  0999 V2000
    1.6909   13.0554    0.0000 F   0  0  0  0  0  0  0  0  0  0  0  0
    1.9144   11.5722    0.0000 C   0  0  0  0  0  0  0  0  0  0  0  0
    3.3977   11.7958    0.0000 F   0  0  0  0  0  0  0  0  0  0  0  0
    0.4312   11.3486    0.0000 F   0  0  0  0  0  0  0  0  0  0  0  0
    2.1380   10.0889    0.0000 C   0  0  0  0  0  0  0  0  0  0  0  0
    3.5343    9.5409    0.0000 C   0  0  0  0  0  0  0  0  0  0  0  0
    3.7579    8.0577    0.0000 C   0  0  0  0  0  0  0  0  0  0  0  0
    2.5851    7.1225    0.0000 C   0  0  0  0  0  0  0  0  0  0  0  0
    1.1888    7.6705    0.0000 C   0  0  0  0  0  0  0  0  0  0  0  0
    0.9652    9.1537    0.0000 C   0  0  0  0  0  0  0  0  0  0  0  0
    2.8087    5.6392    0.0000 C   0  0  0  0  0  0  0  0  0  0  0  0
    4.2050    5.0912    0.0000 O   0  0  0  0  0  0  0  0  0  0  0  0
    1.6359    4.7040    0.0000 N   0  0  0  0  0  0  0  0  0  0  0  0
    1.8595    3.2207    0.0000 C   0  0  0  0  0  0  0  0  0  0  0  0
    2.7045    1.9814    0.0000 C   0  0  0  0  0  0  0  0  0  0  0  0
    2.2623    0.5480    0.0000 C   0  0  0  0  0  0  0  0  0  0  0  0
    0.8660    0.0000    0.0000 C   0  0  0  0  0  0  0  0  0  0  0  0
   -0.4330    0.7500    0.0000 C   0  0  0  0  0  0  0  0  0  0  0  0
   -0.6566    2.2332    0.0000 C   0  0  0  0  0  0  0  0  0  0  0  0
    0.3637    3.3328    0.0000 C   0  0  0  0  0  0  0  0  0  0  0  0
   -0.9354    4.0828    0.0000 C   0  0  0  0  0  0  0  0  0  0  0  0
   -0.9354    5.5828    0.0000 C   0  0  0  0  0  0  0  0  0  0  0  0
   -2.2344    6.3328    0.0000 C   0  0  0  0  0  0  0  0  0  0  0  0
   -3.5334    5.5828    0.0000 C   0  0  0  0  0  0  0  0  0  0  0  0
   -3.5334    4.0828    0.0000 C   0  0  0  0  0  0  0  0  0  0  0  0
   -2.2344    3.3328    0.0000 C   0  0  0  0  0  0  0  0  0  0  0  0
   -0.4330   -0.7500    0.0000 N   0  0  0  0  0  0  0  0  0  0  0  0
    1.7669   -0.8678    0.0000 C   0  0  0  0  0  0  0  0  0  0  0  0
    4.7070   10.4762    0.0000 H   0  0  0  0  0  0  0  0  0  0  0  0
    5.1542    7.5097    0.0000 H   0  0  0  0  0  0  0  0  0  0  0  0
    0.1388    6.5993    0.0000 H   0  0  0  0  0  0  0  0  0  0  0  0
   -0.4311    9.7017    0.0000 H   0  0  0  0  0  0  0  0  0  0  0  0
    0.3168    5.4181    0.0000 H   0  0  0  0  0  0  0  0  0  0  0  0
    3.1786    3.9349    0.0000 H   0  0  0  0  0  0  0  0  0  0  0  0
    3.8512    2.9484    0.0000 H   0  0  0  0  0  0  0  0  0  0  0  0
    4.0035    1.2314    0.0000 H   0  0  0  0  0  0  0  0  0  0  0  0
    3.4781   -0.3306    0.0000 H   0  0  0  0  0  0  0  0  0  0  0  0
    1.3754   -0.6132    0.0000 H   0  0  0  0  0  0  0  0  0  0  0  0
   -1.9288    0.6379    0.0000 H   0  0  0  0  0  0  0  0  0  0  0  0
   -1.9757    1.5191    0.0000 H   0  0  0  0  0  0  0  0  0  0  0  0
   -1.7763    3.2313    0.0000 H   0  0  0  0  0  0  0  0  0  0  0  0
    0.2627    4.8294    0.0000 H   0  0  0  0  0  0  0  0  0  0  0  0
    0.4454    6.1689    0.0000 H   0  0  0  0  0  0  0  0  0  0  0  0
   -2.2344    7.8328    0.0000 H   0  0  0  0  0  0  0  0  0  0  0  0
   -4.8325    6.3328    0.0000 H   0  0  0  0  0  0  0  0  0  0  0  0
   -4.8325    3.3328    0.0000 H   0  0  0  0  0  0  0  0  0  0  0  0
   -2.4172    1.8440    0.0000 H   0  0  0  0  0  0  0  0  0  0  0  0
    3.1118   -1.5321    0.0000 H   0  0  0  0  0  0  0  0  0  0  0  0
    1.2715   -2.2836    0.0000 H   0  0  0  0  0  0  0  0  0  0  0  0
  1  2  1  0
  2  3  1  0
  2  4  1  0
  2  5  1  0
  5  6  2  0
  6  7  1  0
  7  8  2  0
  8  9  1  0
  9 10  2  0
  8 11  1  0
 11 12  2  0
 11 13  1  0
 13 14  1  0
 14 15  1  0
 15 16  1  0
 16 17  1  0
 17 18  1  0
 18 19  1  0
 19 20  1  0
 20 21  1  0
 21 22  2  0
 22 23  1  0
 23 24  2  0
 24 25  1  0
 25 26  2  0
 18 27  1  0
 27 28  1  0
 10  5  1  0
 20 14  1  0
 26 21  1  0
 28 16  1  0
 27 17  1  0
  6 29  1  0
  7 30  1  0
  9 31  1  0
 10 32  1  0
 13 33  1  0
 14 34  1  6
 15 35  1  0
 15 36  1  0
 16 37  1  1
 17 38  1  6
 18 39  1  6
 19 40  1  0
 19 41  1  0
 20 42  1  6
 22 43  1  0
 23 44  1  0
 24 45  1  0
 25 46  1  0
 26 47  1  0
 28 48  1  0
 28 49  1  0
M  END
$$$$
[H]c1c([H])c([H])c(N([H])C(=O)N2[C@]3([H])C([H])([H])[C@@]([H])(c4c([H])c([H])c([H])c([H])c4[H])[C@@]([H])(N([H])C(=O)c4c([H])c([H])c(C(F)(F)F)c([H])c4[H])C([H])([H])[C@@]23[H])c([H])c1[H]
     RDKit          3D

 59 63  0  0  0  0  0  0  0  0999 V2000
    7.6986    2.4344   -1.8052 F   0  0  0  0  0  0  0  0  0  0  0  0
    6.8480    3.1903   -1.0667 C   0  0  0  0  0  0  0  0  0  0  0  0
    7.6009    3.8282   -0.0817 F   0  0  0  0  0  0  0  0  0  0  0  0
    6.3315    4.1698   -1.8968 F   0  0  0  0  0  0  0  0  0  0  0  0
    5.7763    2.3545   -0.4863 C   0  0  0  0  0  0  0  0  0  0  0  0
    4.8195    2.9020    0.3633 C   0  0  0  0  0  0  0  0  0  0  0  0
    3.8284    2.1078    0.8877 C   0  0  0  0  0  0  0  0  0  0  0  0
    3.7315    0.7395    0.6018 C   0  0  0  0  0  0  0  0  0  0  0  0
    4.6602    0.2117   -0.2213 C   0  0  0  0  0  0  0  0  0  0  0  0
    5.6742    1.0152   -0.7610 C   0  0  0  0  0  0  0  0  0  0  0  0
    2.6113    0.0399    1.2322 C   0  0  0  0  0  0  0  0  0  0  0  0
    2.6073    0.0290    2.4915 O   0  0  0  0  0  0  0  0  0  0  0  0
    1.5807   -0.5881    0.4872 N   0  0  0  0  0  0  0  0  0  0  0  0
    0.4989   -1.2316    1.1577 C   0  0  1  0  0  0  0  0  0  0  0  0
   -0.5473   -0.1692    1.6132 C   0  0  0  0  0  0  0  0  0  0  0  0
   -1.7786   -0.5253    0.8608 C   0  0  2  0  0  0  0  0  0  0  0  0
   -1.2577   -0.5346   -0.5776 C   0  0  1  0  0  0  0  0  0  0  0  0
   -0.9464   -1.9695   -0.7621 C   0  0  0  0  0  0  0  0  0  0  0  0
   -0.1388   -2.3800    0.4831 C   0  0  1  0  0  0  0  0  0  0  0  0
    0.7842   -3.4480    0.1805 C   0  0  0  0  0  0  0  0  0  0  0  0
    0.6144   -4.2172   -0.9459 C   0  0  0  0  0  0  0  0  0  0  0  0
    1.4978   -5.2640   -1.2345 C   0  0  0  0  0  0  0  0  0  0  0  0
    2.5537   -5.5470   -0.4006 C   0  0  0  0  0  0  0  0  0  0  0  0
    2.7255   -4.7865    0.7175 C   0  0  0  0  0  0  0  0  0  0  0  0
    1.8490   -3.7584    0.9898 C   0  0  0  0  0  0  0  0  0  0  0  0
   -2.4060    0.1541   -0.1850 N   0  0  0  0  0  0  0  0  0  0  0  0
   -3.5096    0.9833   -0.6003 C   0  0  0  0  0  0  0  0  0  0  0  0
   -3.5469    1.4072   -1.8142 O   0  0  0  0  0  0  0  0  0  0  0  0
   -4.5660    1.3563    0.2450 N   0  0  0  0  0  0  0  0  0  0  0  0
   -5.6460    2.1940   -0.0950 C   0  0  0  0  0  0  0  0  0  0  0  0
   -5.4383    3.4238   -0.7386 C   0  0  0  0  0  0  0  0  0  0  0  0
   -6.4845    4.2390   -1.0851 C   0  0  0  0  0  0  0  0  0  0  0  0
   -7.7939    3.8770   -0.8124 C   0  0  0  0  0  0  0  0  0  0  0  0
   -8.0023    2.6685   -0.1792 C   0  0  0  0  0  0  0  0  0  0  0  0
   -6.9510    1.8339    0.1775 C   0  0  0  0  0  0  0  0  0  0  0  0
    4.8844    3.9709    0.5956 H   0  0  0  0  0  0  0  0  0  0  0  0
    3.0916    2.5430    1.5493 H   0  0  0  0  0  0  0  0  0  0  0  0
    4.5967   -0.8448   -0.4597 H   0  0  0  0  0  0  0  0  0  0  0  0
    6.4117    0.5559   -1.4217 H   0  0  0  0  0  0  0  0  0  0  0  0
    1.6470   -0.5815   -0.5349 H   0  0  0  0  0  0  0  0  0  0  0  0
    0.8991   -1.5716    2.1484 H   0  0  0  0  0  0  0  0  0  0  0  0
   -0.6965   -0.1548    2.6864 H   0  0  0  0  0  0  0  0  0  0  0  0
   -0.1669    0.8121    1.2615 H   0  0  0  0  0  0  0  0  0  0  0  0
   -2.3230   -1.3777    1.2732 H   0  0  0  0  0  0  0  0  0  0  0  0
   -0.4584    0.1542   -0.8987 H   0  0  0  0  0  0  0  0  0  0  0  0
   -1.8767   -2.5326   -0.8679 H   0  0  0  0  0  0  0  0  0  0  0  0
   -0.3763   -2.0759   -1.6905 H   0  0  0  0  0  0  0  0  0  0  0  0
   -0.8930   -2.8034    1.2143 H   0  0  0  0  0  0  0  0  0  0  0  0
   -0.1782   -4.0850   -1.6633 H   0  0  0  0  0  0  0  0  0  0  0  0
    1.3627   -5.8806   -2.1302 H   0  0  0  0  0  0  0  0  0  0  0  0
    3.2459   -6.3724   -0.6061 H   0  0  0  0  0  0  0  0  0  0  0  0
    3.5700   -4.9994    1.3942 H   0  0  0  0  0  0  0  0  0  0  0  0
    2.0591   -3.2071    1.8853 H   0  0  0  0  0  0  0  0  0  0  0  0
   -4.5845    0.9908    1.2494 H   0  0  0  0  0  0  0  0  0  0  0  0
   -4.4062    3.7120   -0.9563 H   0  0  0  0  0  0  0  0  0  0  0  0
   -6.2930    5.1864   -1.5798 H   0  0  0  0  0  0  0  0  0  0  0  0
   -8.6004    4.5489   -1.1059 H   0  0  0  0  0  0  0  0  0  0  0  0
   -9.0271    2.3857    0.0331 H   0  0  0  0  0  0  0  0  0  0  0  0
   -7.1665    0.8870    0.6745 H   0  0  0  0  0  0  0  0  0  0  0  0
  1  2  1  0
  2  3  1  0
  2  4  1  0
  2  5  1  0
  5  6  2  0
  6  7  1  0
  7  8  2  0
  8  9  1  0
  9 10  2  0
  8 11  1  0
 11 12  2  0
 11 13  1  0
 13 14  1  0
 14 15  1  0
 15 16  1  0
 16 17  1  0
 17 18  1  0
 18 19  1  0
 19 20  1  0
 20 21  2  0
 21 22  1  0
 22 23  2  0
 23 24  1  0
 24 25  2  0
 17 26  1  0
 26 27  1  0
 27 28  2  0
 27 29  1  0
 29 30  1  0
 30 31  2  0
 31 32  1  0
 32 33  2  0
 33 34  1  0
 34 35  2  0
 10  5  1  0
 19 14  1  0
 25 20  1  0
 35 30  1  0
 26 16  1  0
  6 36  1  0
  7 37  1  0
  9 38  1  0
 10 39  1  0
 13 40  1  0
 14 41  1  1
 15 42  1  0
 15 43  1  0
 16 44  1  1
 17 45  1  1
 18 46  1  0
 18 47  1  0
 19 48  1  1
 21 49  1  0
 22 50  1  0
 23 51  1  0
 24 52  1  0
 25 53  1  0
 29 54  1  0
 31 55  1  0
 32 56  1  0
 33 57  1  0
 34 58  1  0
 35 59  1  0
M  END
$$$$
[H]c1c([H])c([H])c(N([H])C(=O)N2[C@@]3([H])C([H])([H])[C@]([H])(N([H])C(=O)c4c([H])c([H])c(C(F)(F)F)c([H])c4[H])[C@@]([H])(c4c([H])c([H])c([H])c([H])c4[H])C([H])([H])[C@@]23[H])c([H])c1[H]
     RDKit          3D

 59 63  0  0  0  0  0  0  0  0999 V2000
    7.9342    2.6277   -0.8971 F   0  0  0  0  0  0  0  0  0  0  0  0
    6.9613    3.4784   -0.3587 C   0  0  0  0  0  0  0  0  0  0  0  0
    7.3876    3.8049    0.8932 F   0  0  0  0  0  0  0  0  0  0  0  0
    6.8834    4.5967   -1.1655 F   0  0  0  0  0  0  0  0  0  0  0  0
    5.6793    2.7447   -0.2790 C   0  0  0  0  0  0  0  0  0  0  0  0
    4.5340    3.4723   -0.0441 C   0  0  0  0  0  0  0  0  0  0  0  0
    3.3530    2.7836    0.0261 C   0  0  0  0  0  0  0  0  0  0  0  0
    3.2489    1.3956   -0.1291 C   0  0  0  0  0  0  0  0  0  0  0  0
    4.4100    0.7124   -0.3591 C   0  0  0  0  0  0  0  0  0  0  0  0
    5.6427    1.3566   -0.4385 C   0  0  0  0  0  0  0  0  0  0  0  0
    1.9267    0.7986   -0.0505 C   0  0  0  0  0  0  0  0  0  0  0  0
    0.9903    1.4555    0.5438 O   0  0  0  0  0  0  0  0  0  0  0  0
    1.6544   -0.4815   -0.6166 N   0  0  0  0  0  0  0  0  0  0  0  0
    0.3354   -0.9708   -0.5131 C   0  0  1  0  0  0  0  0  0  0  0  0
   -0.4672   -0.3981   -1.7373 C   0  0  0  0  0  0  0  0  0  0  0  0
   -1.7308   -1.1059   -1.9566 C   0  0  1  0  0  0  0  0  0  0  0  0
   -2.3142   -1.9623   -0.9948 C   0  0  1  0  0  0  0  0  0  0  0  0
   -1.4220   -2.4889    0.0916 C   0  0  0  0  0  0  0  0  0  0  0  0
    0.0195   -2.3883   -0.4940 C   0  0  2  0  0  0  0  0  0  0  0  0
    0.8902   -3.3659    0.1249 C   0  0  0  0  0  0  0  0  0  0  0  0
    1.4782   -4.3607   -0.6525 C   0  0  0  0  0  0  0  0  0  0  0  0
    2.2804   -5.3477   -0.1465 C   0  0  0  0  0  0  0  0  0  0  0  0
    2.5449   -5.3851    1.2181 C   0  0  0  0  0  0  0  0  0  0  0  0
    1.9647   -4.3976    1.9902 C   0  0  0  0  0  0  0  0  0  0  0  0
    1.1524   -3.4032    1.4724 C   0  0  0  0  0  0  0  0  0  0  0  0
   -2.8179   -0.6253   -1.0003 N   0  0  0  0  0  0  0  0  0  0  0  0
   -3.5534    0.5456   -0.6701 C   0  0  0  0  0  0  0  0  0  0  0  0
   -3.2810    1.6405   -1.2968 O   0  0  0  0  0  0  0  0  0  0  0  0
   -4.5629    0.5468    0.3070 N   0  0  0  0  0  0  0  0  0  0  0  0
   -5.2932    1.7051    0.6631 C   0  0  0  0  0  0  0  0  0  0  0  0
   -4.7007    2.9420    0.6747 C   0  0  0  0  0  0  0  0  0  0  0  0
   -5.4424    4.1053    0.9653 C   0  0  0  0  0  0  0  0  0  0  0  0
   -6.7733    4.0206    1.2416 C   0  0  0  0  0  0  0  0  0  0  0  0
   -7.3872    2.7808    1.2374 C   0  0  0  0  0  0  0  0  0  0  0  0
   -6.6463    1.6352    0.9479 C   0  0  0  0  0  0  0  0  0  0  0  0
    4.5031    4.5467    0.0917 H   0  0  0  0  0  0  0  0  0  0  0  0
    2.4321    3.3116    0.2245 H   0  0  0  0  0  0  0  0  0  0  0  0
    4.3339   -0.3710   -0.4748 H   0  0  0  0  0  0  0  0  0  0  0  0
    6.5576    0.7906   -0.6132 H   0  0  0  0  0  0  0  0  0  0  0  0
    2.4041   -1.0044   -1.0809 H   0  0  0  0  0  0  0  0  0  0  0  0
   -0.1972   -0.4335    0.3354 H   0  0  0  0  0  0  0  0  0  0  0  0
   -0.5383    0.6763   -1.5869 H   0  0  0  0  0  0  0  0  0  0  0  0
    0.2051   -0.5606   -2.6152 H   0  0  0  0  0  0  0  0  0  0  0  0
   -2.0770   -1.1532   -3.0171 H   0  0  0  0  0  0  0  0  0  0  0  0
   -3.0324   -2.7445   -1.3712 H   0  0  0  0  0  0  0  0  0  0  0  0
   -1.6489   -3.4987    0.4094 H   0  0  0  0  0  0  0  0  0  0  0  0
   -1.4361   -1.8125    0.9903 H   0  0  0  0  0  0  0  0  0  0  0  0
   -0.1486   -2.6977   -1.5762 H   0  0  0  0  0  0  0  0  0  0  0  0
    1.2816   -4.3501   -1.7311 H   0  0  0  0  0  0  0  0  0  0  0  0
    2.7397   -6.1325   -0.7561 H   0  0  0  0  0  0  0  0  0  0  0  0
    3.1622   -6.1349    1.6723 H   0  0  0  0  0  0  0  0  0  0  0  0
    2.1859   -4.4400    3.0576 H   0  0  0  0  0  0  0  0  0  0  0  0
    0.7207   -2.6601    2.1001 H   0  0  0  0  0  0  0  0  0  0  0  0
   -4.8066   -0.3346    0.8053 H   0  0  0  0  0  0  0  0  0  0  0  0
   -3.6509    3.1120    0.4841 H   0  0  0  0  0  0  0  0  0  0  0  0
   -4.9672    5.0768    0.9877 H   0  0  0  0  0  0  0  0  0  0  0  0
   -7.3593    4.9366    1.4570 H   0  0  0  0  0  0  0  0  0  0  0  0
   -8.4321    2.7497    1.4622 H   0  0  0  0  0  0  0  0  0  0  0  0
   -7.1099    0.6604    0.9370 H   0  0  0  0  0  0  0  0  0  0  0  0
  1  2  1  0
  2  3  1  0
  2  4  1  0
  2  5  1  0
  5  6  2  0
  6  7  1  0
  7  8  2  0
  8  9  1  0
  9 10  2  0
  8 11  1  0
 11 12  2  0
 11 13  1  0
 13 14  1  0
 14 15  1  0
 15 16  1  0
 16 17  1  0
 17 18  1  0
 18 19  1  0
 19 20  1  0
 20 21  2  0
 21 22  1  0
 22 23  2  0
 23 24  1  0
 24 25  2  0
 17 26  1  0
 26 27  1  0
 27 28  2  0
 27 29  1  0
 29 30  1  0
 30 31  2  0
 31 32  1  0
 32 33  2  0
 33 34  1  0
 34 35  2  0
 10  5  1  0
 19 14  1  0
 25 20  1  0
 35 30  1  0
 26 16  1  0
  6 36  1  0
  7 37  1  0
  9 38  1  0
 10 39  1  0
 13 40  1  0
 14 41  1  1
 15 42  1  0
 15 43  1  0
 16 44  1  6
 17 45  1  6
 18 46  1  0
 18 47  1  0
 19 48  1  6
 21 49  1  0
 22 50  1  0
 23 51  1  0
 24 52  1  0
 25 53  1  0
 29 54  1  0
 31 55  1  0
 32 56  1  0
 33 57  1  0
 34 58  1  0
 35 59  1  0
M  END
$$$$
[H]c1c([H])c([H])c(N([H])C(=O)N2[C@]3([H])C([H])([H])[C@]([H])(N([H])C(=O)c4c([H])c([H])c(C(F)(F)F)c([H])c4[H])[C@@]([H])(c4c([H])c([H])c([H])c([H])c4[H])C([H])([H])[C@@]23[H])c([H])c1[H]
     RDKit          3D

 59 63  0  0  0  0  0  0  0  0999 V2000
   -8.5219    0.3463    2.6651 F   0  0  0  0  0  0  0  0  0  0  0  0
   -8.0569    1.6098    2.3370 C   0  0  0  0  0  0  0  0  0  0  0  0
   -8.9264    2.2314    1.4847 F   0  0  0  0  0  0  0  0  0  0  0  0
   -7.8677    2.2807    3.5300 F   0  0  0  0  0  0  0  0  0  0  0  0
   -6.7587    1.4479    1.5841 C   0  0  0  0  0  0  0  0  0  0  0  0
   -6.0741    2.5547    1.0918 C   0  0  0  0  0  0  0  0  0  0  0  0
   -4.8763    2.3914    0.4053 C   0  0  0  0  0  0  0  0  0  0  0  0
   -4.3291    1.1441    0.1893 C   0  0  0  0  0  0  0  0  0  0  0  0
   -5.0433    0.0556    0.6985 C   0  0  0  0  0  0  0  0  0  0  0  0
   -6.2268    0.1954    1.3788 C   0  0  0  0  0  0  0  0  0  0  0  0
   -3.0892    0.9518   -0.5415 C   0  0  0  0  0  0  0  0  0  0  0  0
   -2.9582    1.4806   -1.6863 O   0  0  0  0  0  0  0  0  0  0  0  0
   -2.0479    0.2047   -0.0157 N   0  0  0  0  0  0  0  0  0  0  0  0
   -0.7704   -0.0221   -0.7187 C   0  0  1  0  0  0  0  0  0  0  0  0
    0.3234    0.8144   -0.1237 C   0  0  0  0  0  0  0  0  0  0  0  0
    1.5340    0.0076   -0.0836 C   0  0  2  0  0  0  0  0  0  0  0  0
    1.1183   -1.0752    0.8997 C   0  0  1  0  0  0  0  0  0  0  0  0
    0.5041   -2.0891    0.0366 C   0  0  0  0  0  0  0  0  0  0  0  0
   -0.5100   -1.5058   -0.8592 C   0  0  2  0  0  0  0  0  0  0  0  0
   -0.5200   -1.9558   -2.2452 C   0  0  0  0  0  0  0  0  0  0  0  0
    0.6299   -2.2255   -2.9211 C   0  0  0  0  0  0  0  0  0  0  0  0
    0.6425   -2.6260   -4.2384 C   0  0  0  0  0  0  0  0  0  0  0  0
   -0.5603   -2.7668   -4.9220 C   0  0  0  0  0  0  0  0  0  0  0  0
   -1.7390   -2.5032   -4.2667 C   0  0  0  0  0  0  0  0  0  0  0  0
   -1.6959   -2.1030   -2.9412 C   0  0  0  0  0  0  0  0  0  0  0  0
    2.3640   -0.4749    0.9454 N   0  0  0  0  0  0  0  0  0  0  0  0
    3.6761   -0.3542    1.5571 C   0  0  0  0  0  0  0  0  0  0  0  0
    3.9809   -1.0486    2.5483 O   0  0  0  0  0  0  0  0  0  0  0  0
    4.6234    0.5562    1.0311 N   0  0  0  0  0  0  0  0  0  0  0  0
    5.9213    0.8253    1.4517 C   0  0  0  0  0  0  0  0  0  0  0  0
    6.5715    1.8966    0.8211 C   0  0  0  0  0  0  0  0  0  0  0  0
    7.8476    2.2676    1.1221 C   0  0  0  0  0  0  0  0  0  0  0  0
    8.5628    1.5912    2.0767 C   0  0  0  0  0  0  0  0  0  0  0  0
    7.9413    0.5381    2.7061 C   0  0  0  0  0  0  0  0  0  0  0  0
    6.6229    0.1594    2.3903 C   0  0  0  0  0  0  0  0  0  0  0  0
   -6.4654    3.5436    1.2370 H   0  0  0  0  0  0  0  0  0  0  0  0
   -4.3388    3.2651    0.0199 H   0  0  0  0  0  0  0  0  0  0  0  0
   -4.6181   -0.9153    0.5301 H   0  0  0  0  0  0  0  0  0  0  0  0
   -6.7867   -0.6581    1.7775 H   0  0  0  0  0  0  0  0  0  0  0  0
   -2.1605   -0.2247    0.9286 H   0  0  0  0  0  0  0  0  0  0  0  0
   -0.9447    0.4350   -1.7221 H   0  0  0  0  0  0  0  0  0  0  0  0
   -0.0385    1.1815    0.8688 H   0  0  0  0  0  0  0  0  0  0  0  0
    0.5353    1.7552   -0.6951 H   0  0  0  0  0  0  0  0  0  0  0  0
    1.9621   -0.2070   -1.0619 H   0  0  0  0  0  0  0  0  0  0  0  0
    0.4914   -0.7918    1.7774 H   0  0  0  0  0  0  0  0  0  0  0  0
    1.3236   -2.6470   -0.4552 H   0  0  0  0  0  0  0  0  0  0  0  0
    0.0866   -2.8826    0.7433 H   0  0  0  0  0  0  0  0  0  0  0  0
   -1.5051   -1.9325   -0.4642 H   0  0  0  0  0  0  0  0  0  0  0  0
    1.5584   -2.1253   -2.4007 H   0  0  0  0  0  0  0  0  0  0  0  0
    1.5674   -2.8375   -4.7508 H   0  0  0  0  0  0  0  0  0  0  0  0
   -0.5130   -3.0890   -5.9759 H   0  0  0  0  0  0  0  0  0  0  0  0
   -2.6706   -2.6141   -4.8077 H   0  0  0  0  0  0  0  0  0  0  0  0
   -2.6886   -1.9150   -2.5093 H   0  0  0  0  0  0  0  0  0  0  0  0
    4.2180    1.0939    0.1746 H   0  0  0  0  0  0  0  0  0  0  0  0
    6.0561    2.4680    0.0578 H   0  0  0  0  0  0  0  0  0  0  0  0
    8.3538    3.0915    0.6395 H   0  0  0  0  0  0  0  0  0  0  0  0
    9.5770    1.8640    2.3331 H   0  0  0  0  0  0  0  0  0  0  0  0
    8.4991    0.0088    3.4528 H   0  0  0  0  0  0  0  0  0  0  0  0
    6.2094   -0.6670    2.9151 H   0  0  0  0  0  0  0  0  0  0  0  0
  1  2  1  0
  2  3  1  0
  2  4  1  0
  2  5  1  0
  5  6  2  0
  6  7  1  0
  7  8  2  0
  8  9  1  0
  9 10  2  0
  8 11  1  0
 11 12  2  0
 11 13  1  0
 13 14  1  0
 14 15  1  0
 15 16  1  0
 16 17  1  0
 17 18  1  0
 18 19  1  0
 19 20  1  0
 20 21  2  0
 21 22  1  0
 22 23  2  0
 23 24  1  0
 24 25  2  0
 17 26  1  0
 26 27  1  0
 27 28  2  0
 27 29  1  0
 29 30  1  0
 30 31  2  0
 31 32  1  0
 32 33  2  0
 33 34  1  0
 34 35  2  0
 10  5  1  0
 19 14  1  0
 25 20  1  0
 35 30  1  0
 26 16  1  0
  6 36  1  0
  7 37  1  0
  9 38  1  0
 10 39  1  0
 13 40  1  0
 14 41  1  6
 15 42  1  0
 15 43  1  0
 16 44  1  6
 17 45  1  1
 18 46  1  0
 18 47  1  0
 19 48  1  1
 21 49  1  0
 22 50  1  0
 23 51  1  0
 24 52  1  0
 25 53  1  0
 29 54  1  0
 31 55  1  0
 32 56  1  0
 33 57  1  0
 34 58  1  0
 35 59  1  0
M  END
$$$$
