[H]c1nc2c(N([H])C3([H])C([H])([H])C([H])([H])N(C(=O)C4([H])C([H])([H])C([H])([H])OC([H])([H])C4([H])[H])C([H])([H])C3([H])[H])nc(Oc3c([H])c([H])c([H])c([H])c3C([H])([H])[H])nc2c([H])c1[H]
     RDKit          3D

 62 66  0  0  0  0  0  0  0  0999 V2000
   -2.8946   -3.4432    0.0401 C   0  0  0  0  0  0  0  0  0  0  0  0
   -4.2840   -2.9529    0.1772 C   0  0  0  0  0  0  0  0  0  0  0  0
   -5.3363   -3.8243    0.2241 C   0  0  0  0  0  0  0  0  0  0  0  0
   -6.6222   -3.3301    0.3529 C   0  0  0  0  0  0  0  0  0  0  0  0
   -6.8373   -1.9770    0.4326 C   0  0  0  0  0  0  0  0  0  0  0  0
   -5.7409   -1.1246    0.3810 C   0  0  0  0  0  0  0  0  0  0  0  0
   -4.4397   -1.5491    0.2543 C   0  0  0  0  0  0  0  0  0  0  0  0
   -3.3537   -0.7744    0.1999 O   0  0  0  0  0  0  0  0  0  0  0  0
   -3.1229    0.5528    0.2411 C   0  0  0  0  0  0  0  0  0  0  0  0
   -1.8236    1.0231    0.1542 N   0  0  0  0  0  0  0  0  0  0  0  0
   -1.4993    2.3147    0.1859 C   0  0  0  0  0  0  0  0  0  0  0  0
   -0.1938    2.8054    0.1043 N   0  0  0  0  0  0  0  0  0  0  0  0
    1.0098    2.0397   -0.0371 C   0  0  0  0  0  0  0  0  0  0  0  0
    1.1006    1.2500   -1.3075 C   0  0  0  0  0  0  0  0  0  0  0  0
    2.1867    0.2106   -1.3123 C   0  0  0  0  0  0  0  0  0  0  0  0
    2.6266   -0.1419   -0.0003 N   0  0  0  0  0  0  0  0  0  0  0  0
    1.5911   -0.1803    1.0053 C   0  0  0  0  0  0  0  0  0  0  0  0
    1.2055    1.2618    1.2293 C   0  0  0  0  0  0  0  0  0  0  0  0
    3.9535   -0.4428    0.3699 C   0  0  0  0  0  0  0  0  0  0  0  0
    4.2610   -0.7442    1.5692 O   0  0  0  0  0  0  0  0  0  0  0  0
    5.0780   -0.4245   -0.6313 C   0  0  0  0  0  0  0  0  0  0  0  0
    4.8726   -1.4642   -1.6874 C   0  0  0  0  0  0  0  0  0  0  0  0
    5.8214   -2.6447   -1.5803 C   0  0  0  0  0  0  0  0  0  0  0  0
    7.1167   -2.2431   -1.2787 O   0  0  0  0  0  0  0  0  0  0  0  0
    7.0736   -1.8104    0.0584 C   0  0  0  0  0  0  0  0  0  0  0  0
    6.3984   -0.4582    0.0553 C   0  0  0  0  0  0  0  0  0  0  0  0
   -2.5581    3.1928    0.3142 C   0  0  0  0  0  0  0  0  0  0  0  0
   -2.3377    4.4962    0.3551 N   0  0  0  0  0  0  0  0  0  0  0  0
   -3.2823    5.4437    0.4770 C   0  0  0  0  0  0  0  0  0  0  0  0
   -4.5954    5.0334    0.5680 C   0  0  0  0  0  0  0  0  0  0  0  0
   -4.8984    3.6888    0.5321 C   0  0  0  0  0  0  0  0  0  0  0  0
   -3.8645    2.7523    0.4033 C   0  0  0  0  0  0  0  0  0  0  0  0
   -4.1043    1.4443    0.3637 N   0  0  0  0  0  0  0  0  0  0  0  0
   -2.7654   -4.4552    0.5258 H   0  0  0  0  0  0  0  0  0  0  0  0
   -2.1398   -2.7576    0.4775 H   0  0  0  0  0  0  0  0  0  0  0  0
   -2.7113   -3.5863   -1.0470 H   0  0  0  0  0  0  0  0  0  0  0  0
   -5.2294   -4.8999    0.1656 H   0  0  0  0  0  0  0  0  0  0  0  0
   -7.4829   -3.9756    0.3944 H   0  0  0  0  0  0  0  0  0  0  0  0
   -7.8117   -1.5321    0.5336 H   0  0  0  0  0  0  0  0  0  0  0  0
   -5.9665   -0.0616    0.4482 H   0  0  0  0  0  0  0  0  0  0  0  0
   -0.0600    3.8648    0.1507 H   0  0  0  0  0  0  0  0  0  0  0  0
    1.9146    2.7251   -0.0867 H   0  0  0  0  0  0  0  0  0  0  0  0
    0.1376    0.7374   -1.4624 H   0  0  0  0  0  0  0  0  0  0  0  0
    1.2659    1.8958   -2.1917 H   0  0  0  0  0  0  0  0  0  0  0  0
    3.0748    0.5282   -1.8996 H   0  0  0  0  0  0  0  0  0  0  0  0
    1.8084   -0.7137   -1.8070 H   0  0  0  0  0  0  0  0  0  0  0  0
    0.6780   -0.7038    0.6531 H   0  0  0  0  0  0  0  0  0  0  0  0
    1.9594   -0.5857    1.9703 H   0  0  0  0  0  0  0  0  0  0  0  0
    0.2356    1.2002    1.7909 H   0  0  0  0  0  0  0  0  0  0  0  0
    1.9296    1.7622    1.9374 H   0  0  0  0  0  0  0  0  0  0  0  0
    5.0317    0.5794   -1.1544 H   0  0  0  0  0  0  0  0  0  0  0  0
    3.8454   -1.9278   -1.5944 H   0  0  0  0  0  0  0  0  0  0  0  0
    5.0253   -1.0439   -2.6903 H   0  0  0  0  0  0  0  0  0  0  0  0
    5.8484   -3.1400   -2.5677 H   0  0  0  0  0  0  0  0  0  0  0  0
    5.4104   -3.3418   -0.8127 H   0  0  0  0  0  0  0  0  0  0  0  0
    8.0934   -1.6621    0.4691 H   0  0  0  0  0  0  0  0  0  0  0  0
    6.4998   -2.5567    0.6165 H   0  0  0  0  0  0  0  0  0  0  0  0
    7.1134    0.3179   -0.2878 H   0  0  0  0  0  0  0  0  0  0  0  0
    6.2149   -0.2187    1.1436 H   0  0  0  0  0  0  0  0  0  0  0  0
   -3.0773    6.5061    0.5085 H   0  0  0  0  0  0  0  0  0  0  0  0
   -5.4191    5.7397    0.6687 H   0  0  0  0  0  0  0  0  0  0  0  0
   -5.9301    3.3263    0.6022 H   0  0  0  0  0  0  0  0  0  0  0  0
  1  2  1  0
  2  3  2  0
  3  4  1  0
  4  5  2  0
  5  6  1  0
  6  7  2  0
  7  8  1  0
  8  9  1  0
  9 10  2  0
 10 11  1  0
 11 12  1  0
 12 13  1  0
 13 14  1  0
 14 15  1  0
 15 16  1  0
 16 17  1  0
 17 18  1  0
 16 19  1  0
 19 20  2  0
 19 21  1  0
 21 22  1  0
 22 23  1  0
 23 24  1  0
 24 25  1  0
 25 26  1  0
 11 27  2  0
 27 28  1  0
 28 29  2  0
 29 30  1  0
 30 31  2  0
 31 32  1  0
 32 33  2  0
  7  2  1  0
 33  9  1  0
 18 13  1  0
 26 21  1  0
 32 27  1  0
  1 34  1  0
  1 35  1  0
  1 36  1  0
  3 37  1  0
  4 38  1  0
  5 39  1  0
  6 40  1  0
 12 41  1  0
 13 42  1  0
 14 43  1  0
 14 44  1  0
 15 45  1  0
 15 46  1  0
 17 47  1  0
 17 48  1  0
 18 49  1  0
 18 50  1  0
 21 51  1  0
 22 52  1  0
 22 53  1  0
 23 54  1  0
 23 55  1  0
 25 56  1  0
 25 57  1  0
 26 58  1  0
 26 59  1  0
 29 60  1  0
 30 61  1  0
 31 62  1  0
M  END
$$$$
[H]C1=C([H])C(N2C([H])([H])C([H])([H])N(C(=O)C([H])([H])[H])C([H])([H])C2([H])[H])=C(Cl)c2c([H])c([H])c(c(N(C#N)C([H])([H])C(=O)N([H])c3nc4c([H])c([H])c([H])c([H])c4o3)c2[H])C(=O)N([H])C(c2c([H])c([H])c([H])c([H])c2[H])=C1[H]
     RDKit          3D

 77 82  0  0  0  0  0  0  0  0999 V2000
   -7.8847    3.2288   -0.6650 C   0  0  0  0  0  0  0  0  0  0  0  0
   -6.5062    3.7254   -0.9591 C   0  0  0  0  0  0  0  0  0  0  0  0
   -6.3081    4.3722   -2.0439 O   0  0  0  0  0  0  0  0  0  0  0  0
   -5.4385    3.5086   -0.0936 N   0  0  0  0  0  0  0  0  0  0  0  0
   -5.5563    2.7598    1.1370 C   0  0  0  0  0  0  0  0  0  0  0  0
   -4.5857    1.5885    1.0472 C   0  0  0  0  0  0  0  0  0  0  0  0
   -3.2590    2.1093    0.7471 N   0  0  0  0  0  0  0  0  0  0  0  0
   -3.1246    3.5424    0.6194 C   0  0  0  0  0  0  0  0  0  0  0  0
   -4.1313    4.0693   -0.3946 C   0  0  0  0  0  0  0  0  0  0  0  0
   -2.2036    1.1891    0.5734 C   0  0  0  0  0  0  0  0  0  0  0  0
   -2.1557    0.2491   -0.5571 C   0  0  0  0  0  0  0  0  0  0  0  0
   -1.9967   -0.8942   -1.1287 C   0  0  0  0  0  0  0  0  0  0  0  0
   -1.6802   -2.3606   -0.9800 C   0  0  0  0  0  0  0  0  0  0  0  0
   -0.9080   -3.3535   -0.8895 C   0  0  0  0  0  0  0  0  0  0  0  0
    0.4995   -3.7416   -0.8721 N   0  0  0  0  0  0  0  0  0  0  0  0
    1.6572   -3.2965   -0.0099 C   0  0  0  0  0  0  0  0  0  0  0  0
    2.6281   -4.0864    0.0760 O   0  0  0  0  0  0  0  0  0  0  0  0
    1.3899   -1.9015    0.5995 C   0  0  0  0  0  0  0  0  0  0  0  0
    0.5171   -1.9347    1.5537 C   0  0  0  0  0  0  0  0  0  0  0  0
   -0.2321   -0.7628    1.9593 C   0  0  0  0  0  0  0  0  0  0  0  0
   -0.0621    0.3713    1.3941 C   0  0  0  0  0  0  0  0  0  0  0  0
    0.8892    0.4632    0.3869 C   0  0  0  0  0  0  0  0  0  0  0  0
    1.6365   -0.7015   -0.0229 C   0  0  0  0  0  0  0  0  0  0  0  0
    2.5860   -0.2340   -1.0168 N   0  0  0  0  0  0  0  0  0  0  0  0
    3.9430    0.0888   -0.5724 C   0  0  0  0  0  0  0  0  0  0  0  0
    4.8660   -0.9338   -1.0765 C   0  0  0  0  0  0  0  0  0  0  0  0
    4.5121   -1.9330   -1.7756 O   0  0  0  0  0  0  0  0  0  0  0  0
    6.2718   -0.8550   -0.7858 N   0  0  0  0  0  0  0  0  0  0  0  0
    6.7881    0.2729   -0.0934 C   0  0  0  0  0  0  0  0  0  0  0  0
    8.0686    0.4366    0.3511 N   0  0  0  0  0  0  0  0  0  0  0  0
    8.0866    1.6544    0.9315 C   0  0  0  0  0  0  0  0  0  0  0  0
    9.0401    2.4397    1.5727 C   0  0  0  0  0  0  0  0  0  0  0  0
    8.7537    3.6959    2.0810 C   0  0  0  0  0  0  0  0  0  0  0  0
    7.4716    4.1874    1.9453 C   0  0  0  0  0  0  0  0  0  0  0  0
    6.5103    3.4277    1.3144 C   0  0  0  0  0  0  0  0  0  0  0  0
    6.8447    2.1784    0.8235 C   0  0  0  0  0  0  0  0  0  0  0  0
    6.0731    1.3285    0.2020 O   0  0  0  0  0  0  0  0  0  0  0  0
    2.3093   -0.0795   -2.3677 C   0  0  0  0  0  0  0  0  0  0  0  0
    2.0948    0.0299   -3.4961 N   0  0  0  0  0  0  0  0  0  0  0  0
   -1.2115    1.3855    1.5829 C   0  0  0  0  0  0  0  0  0  0  0  0
   -1.4203    2.7208    2.7002 Cl  0  0  0  0  0  0  0  0  0  0  0  0
   -1.6675   -4.7084   -0.9553 C   0  0  0  0  0  0  0  0  0  0  0  0
   -1.1657   -5.8421   -0.4294 C   0  0  0  0  0  0  0  0  0  0  0  0
   -1.8094   -7.0647   -0.5853 C   0  0  0  0  0  0  0  0  0  0  0  0
   -2.9881   -7.1535   -1.2875 C   0  0  0  0  0  0  0  0  0  0  0  0
   -3.5004   -6.0043   -1.8229 C   0  0  0  0  0  0  0  0  0  0  0  0
   -2.8405   -4.7926   -1.6554 C   0  0  0  0  0  0  0  0  0  0  0  0
   -8.4708    3.2113   -1.6006 H   0  0  0  0  0  0  0  0  0  0  0  0
   -8.3360    3.9692    0.0588 H   0  0  0  0  0  0  0  0  0  0  0  0
   -7.8088    2.2080   -0.2661 H   0  0  0  0  0  0  0  0  0  0  0  0
   -6.5710    2.3674    1.3342 H   0  0  0  0  0  0  0  0  0  0  0  0
   -5.2069    3.3625    2.0128 H   0  0  0  0  0  0  0  0  0  0  0  0
   -4.9122    1.0406    0.1196 H   0  0  0  0  0  0  0  0  0  0  0  0
   -4.6454    0.9771    1.9378 H   0  0  0  0  0  0  0  0  0  0  0  0
   -2.1217    3.7899    0.3010 H   0  0  0  0  0  0  0  0  0  0  0  0
   -3.3657    4.0005    1.5896 H   0  0  0  0  0  0  0  0  0  0  0  0
   -3.8121    3.8759   -1.4255 H   0  0  0  0  0  0  0  0  0  0  0  0
   -4.2010    5.1604   -0.2434 H   0  0  0  0  0  0  0  0  0  0  0  0
   -2.3646    1.0288   -1.4525 H   0  0  0  0  0  0  0  0  0  0  0  0
   -2.1886   -0.7148   -2.2857 H   0  0  0  0  0  0  0  0  0  0  0  0
   -2.8130   -2.7677   -0.8106 H   0  0  0  0  0  0  0  0  0  0  0  0
    0.8703   -4.4378   -1.5573 H   0  0  0  0  0  0  0  0  0  0  0  0
    0.2364   -2.8216    2.3385 H   0  0  0  0  0  0  0  0  0  0  0  0
   -0.9403   -1.1150    2.8857 H   0  0  0  0  0  0  0  0  0  0  0  0
    1.2586    1.2969   -0.2175 H   0  0  0  0  0  0  0  0  0  0  0  0
    4.1406    1.0817   -1.0905 H   0  0  0  0  0  0  0  0  0  0  0  0
    3.9408    0.1898    0.5288 H   0  0  0  0  0  0  0  0  0  0  0  0
    6.9517   -1.5771   -1.1150 H   0  0  0  0  0  0  0  0  0  0  0  0
   10.0380    2.0677    1.6912 H   0  0  0  0  0  0  0  0  0  0  0  0
    9.5480    4.2406    2.5634 H   0  0  0  0  0  0  0  0  0  0  0  0
    7.2255    5.1673    2.3313 H   0  0  0  0  0  0  0  0  0  0  0  0
    5.5053    3.8242    1.2117 H   0  0  0  0  0  0  0  0  0  0  0  0
   -0.2302   -5.7561    0.1404 H   0  0  0  0  0  0  0  0  0  0  0  0
   -1.3745   -7.9485   -0.1475 H   0  0  0  0  0  0  0  0  0  0  0  0
   -3.4547   -8.1188   -1.3878 H   0  0  0  0  0  0  0  0  0  0  0  0
   -4.4378   -6.0820   -2.3817 H   0  0  0  0  0  0  0  0  0  0  0  0
   -3.2613   -3.9097   -2.1252 H   0  0  0  0  0  0  0  0  0  0  0  0
  1  2  1  0
  2  3  2  0
  2  4  1  0
  4  5  1  0
  5  6  1  0
  6  7  1  0
  7  8  1  0
  8  9  1  0
  7 10  1  0
 10 11  1  0
 11 12  2  0
 12 13  1  0
 13 14  2  0
 14 15  1  0
 15 16  1  0
 16 17  2  0
 16 18  1  0
 18 19  2  0
 19 20  1  0
 20 21  2  0
 21 22  1  0
 22 23  2  0
 23 24  1  0
 24 25  1  0
 25 26  1  0
 26 27  2  0
 26 28  1  0
 28 29  1  0
 29 30  2  0
 30 31  1  0
 31 32  2  0
 32 33  1  0
 33 34  2  0
 34 35  1  0
 35 36  2  0
 36 37  1  0
 24 38  1  0
 38 39  3  0
 21 40  1  0
 40 41  1  0
 14 42  1  0
 42 43  2  0
 43 44  1  0
 44 45  2  0
 45 46  1  0
 46 47  2  0
  9  4  1  0
 40 10  2  0
 47 42  1  0
 23 18  1  0
 37 29  1  0
 36 31  1  0
  1 48  1  0
  1 49  1  0
  1 50  1  0
  5 51  1  0
  5 52  1  0
  6 53  1  0
  6 54  1  0
  8 55  1  0
  8 56  1  0
  9 57  1  0
  9 58  1  0
 11 59  1  0
 12 60  1  0
 13 61  1  0
 15 62  1  0
 19 63  1  0
 20 64  1  0
 22 65  1  0
 25 66  1  0
 25 67  1  0
 28 68  1  0
 32 69  1  0
 33 70  1  0
 34 71  1  0
 35 72  1  0
 43 73  1  0
 44 74  1  0
 45 75  1  0
 46 76  1  0
 47 77  1  0
M  END
$$$$
[H]c1c([H])c([H])c(SC2=Nc3c([H])c([H])c(OC([H])([H])c4nn([H])c(-c5c([H])c([H])c(OC([H])([H])[H])c([H])c5[H])c4C([H])(C([H])([H])[H])C([H])([H])[H])c([H])c32)c(Cl)c1[H]
     RDKit          3D

 58 62  0  0  0  0  0  0  0  0999 V2000
   -9.7411    1.3149   -0.7129 C   0  0  0  0  0  0  0  0  0  0  0  0
   -9.1503    0.0708   -0.4508 O   0  0  0  0  0  0  0  0  0  0  0  0
   -7.7970   -0.0803   -0.1814 C   0  0  0  0  0  0  0  0  0  0  0  0
   -6.9636    1.0202   -0.1578 C   0  0  0  0  0  0  0  0  0  0  0  0
   -5.6088    0.8436    0.1144 C   0  0  0  0  0  0  0  0  0  0  0  0
   -5.0420   -0.3626    0.3602 C   0  0  0  0  0  0  0  0  0  0  0  0
   -5.9422   -1.4489    0.3236 C   0  0  0  0  0  0  0  0  0  0  0  0
   -7.2717   -1.3169    0.0630 C   0  0  0  0  0  0  0  0  0  0  0  0
   -3.6495   -0.6984    0.5824 C   0  0  0  0  0  0  0  0  0  0  0  0
   -3.3469   -1.7083    1.4971 N   0  0  0  0  0  0  0  0  0  0  0  0
   -2.0601   -1.8317    1.5518 N   0  0  0  0  0  0  0  0  0  0  0  0
   -1.4775   -0.9601    0.7202 C   0  0  0  0  0  0  0  0  0  0  0  0
   -0.0186   -0.8100    0.5497 C   0  0  0  0  0  0  0  0  0  0  0  0
    0.6724   -1.8031    1.3508 O   0  0  0  0  0  0  0  0  0  0  0  0
    2.0376   -1.8412    1.3764 C   0  0  0  0  0  0  0  0  0  0  0  0
    2.7212   -2.7703    2.1101 C   0  0  0  0  0  0  0  0  0  0  0  0
    4.0964   -2.8150    2.1454 C   0  0  0  0  0  0  0  0  0  0  0  0
    4.8079   -1.8812    1.4082 C   0  0  0  0  0  0  0  0  0  0  0  0
    6.0443   -1.3175    0.9709 N   0  0  0  0  0  0  0  0  0  0  0  0
    5.4267   -0.4397    0.2771 C   0  0  0  0  0  0  0  0  0  0  0  0
    5.9399    0.9220   -0.7914 S   0  0  0  0  0  0  0  0  0  0  0  0
    7.7145    1.0993   -0.7628 C   0  0  0  0  0  0  0  0  0  0  0  0
    8.3091    1.9479    0.1796 C   0  0  0  0  0  0  0  0  0  0  0  0
    9.6715    2.1067    0.2221 C   0  0  0  0  0  0  0  0  0  0  0  0
   10.4485    1.4101   -0.6863 C   0  0  0  0  0  0  0  0  0  0  0  0
    9.8570    0.5764   -1.6108 C   0  0  0  0  0  0  0  0  0  0  0  0
    8.4930    0.4097   -1.6626 C   0  0  0  0  0  0  0  0  0  0  0  0
    7.7322   -0.6589   -2.8398 Cl  0  0  0  0  0  0  0  0  0  0  0  0
    4.1327   -0.9563    0.6766 C   0  0  0  0  0  0  0  0  0  0  0  0
    2.7541   -0.9145    0.6432 C   0  0  0  0  0  0  0  0  0  0  0  0
   -2.4893   -0.2056    0.0641 C   0  0  0  0  0  0  0  0  0  0  0  0
   -2.2040    0.6604   -1.0498 C   0  0  0  0  0  0  0  0  0  0  0  0
   -0.9808    1.5533   -0.9633 C   0  0  0  0  0  0  0  0  0  0  0  0
   -3.2085    1.1374   -2.0154 C   0  0  0  0  0  0  0  0  0  0  0  0
   -9.8045    1.9420    0.1935 H   0  0  0  0  0  0  0  0  0  0  0  0
   -9.1242    1.8266   -1.4812 H   0  0  0  0  0  0  0  0  0  0  0  0
  -10.7339    1.1296   -1.1774 H   0  0  0  0  0  0  0  0  0  0  0  0
   -7.3634    1.9896   -0.3467 H   0  0  0  0  0  0  0  0  0  0  0  0
   -4.9774    1.7223    0.1824 H   0  0  0  0  0  0  0  0  0  0  0  0
   -5.5413   -2.4509    0.5171 H   0  0  0  0  0  0  0  0  0  0  0  0
   -7.9161   -2.1810    0.0487 H   0  0  0  0  0  0  0  0  0  0  0  0
   -4.0629   -2.2426    2.0205 H   0  0  0  0  0  0  0  0  0  0  0  0
    0.2408   -1.0757   -0.4855 H   0  0  0  0  0  0  0  0  0  0  0  0
    0.3747    0.1728    0.8089 H   0  0  0  0  0  0  0  0  0  0  0  0
    2.1871   -3.5194    2.7023 H   0  0  0  0  0  0  0  0  0  0  0  0
    4.6570   -3.5312    2.7089 H   0  0  0  0  0  0  0  0  0  0  0  0
    7.6980    2.4882    0.8874 H   0  0  0  0  0  0  0  0  0  0  0  0
   10.1601    2.7687    0.9527 H   0  0  0  0  0  0  0  0  0  0  0  0
   11.5356    1.5579   -0.6295 H   0  0  0  0  0  0  0  0  0  0  0  0
   10.4530    0.0308   -2.3205 H   0  0  0  0  0  0  0  0  0  0  0  0
    2.2954   -0.1595    0.0464 H   0  0  0  0  0  0  0  0  0  0  0  0
   -1.6845   -0.1929   -1.8064 H   0  0  0  0  0  0  0  0  0  0  0  0
   -0.9059    1.9272    0.0714 H   0  0  0  0  0  0  0  0  0  0  0  0
   -0.0402    1.1040   -1.2637 H   0  0  0  0  0  0  0  0  0  0  0  0
   -1.1455    2.4682   -1.6180 H   0  0  0  0  0  0  0  0  0  0  0  0
   -3.9408    0.4152   -2.3681 H   0  0  0  0  0  0  0  0  0  0  0  0
   -3.5870    2.1342   -1.7139 H   0  0  0  0  0  0  0  0  0  0  0  0
   -2.6815    1.4235   -3.0178 H   0  0  0  0  0  0  0  0  0  0  0  0
  1  2  1  0
  2  3  1  0
  3  4  2  0
  4  5  1  0
  5  6  2  0
  6  7  1  0
  7  8  2  0
  6  9  1  0
  9 10  1  0
 10 11  1  0
 11 12  2  0
 12 13  1  0
 13 14  1  0
 14 15  1  0
 15 16  2  0
 16 17  1  0
 17 18  2  0
 18 19  1  0
 19 20  2  0
 20 21  1  0
 21 22  1  0
 22 23  2  0
 23 24  1  0
 24 25  2  0
 25 26  1  0
 26 27  2  0
 27 28  1  0
 20 29  1  0
 29 30  2  0
 12 31  1  0
 31 32  1  0
 32 33  1  0
 32 34  1  0
  8  3  1  0
 31  9  2  0
 30 15  1  0
 29 18  1  0
 27 22  1  0
  1 35  1  0
  1 36  1  0
  1 37  1  0
  4 38  1  0
  5 39  1  0
  7 40  1  0
  8 41  1  0
 10 42  1  0
 13 43  1  0
 13 44  1  0
 16 45  1  0
 17 46  1  0
 23 47  1  0
 24 48  1  0
 25 49  1  0
 26 50  1  0
 30 51  1  0
 32 52  1  0
 33 53  1  0
 33 54  1  0
 33 55  1  0
 34 56  1  0
 34 57  1  0
 34 58  1  0
M  END
$$$$
[H]/C(C(=O)N([H])c1c([H])c([H])c([H])c([H])c1[H])=C(/[H])c1c([H])c([H])c(C([H])([H])C([H])([H])C([H])([H])C([H])([H])C([H])([H])N([H])C(=O)N([H])C([H])([H])c2c(OC([H])([H])[H])c([H])c([H])c([H])c2OC([H])([H])[H])c([H])c1[H]
     RDKit          3D

 72 74  0  0  0  0  0  0  0  0999 V2000
   -7.8971    4.3883   -1.0864 C   0  0  0  0  0  0  0  0  0  0  0  0
   -7.4819    3.0903   -0.9165 O   0  0  0  0  0  0  0  0  0  0  0  0
   -8.0786    1.9596   -0.4812 C   0  0  0  0  0  0  0  0  0  0  0  0
   -9.4113    1.9502   -0.0756 C   0  0  0  0  0  0  0  0  0  0  0  0
  -10.0285    0.8016    0.3695 C   0  0  0  0  0  0  0  0  0  0  0  0
   -9.2564   -0.3369    0.3894 C   0  0  0  0  0  0  0  0  0  0  0  0
   -7.9110   -0.3453   -0.0232 C   0  0  0  0  0  0  0  0  0  0  0  0
   -7.2084   -1.5258   -0.0109 O   0  0  0  0  0  0  0  0  0  0  0  0
   -7.6700   -2.7737    0.3789 C   0  0  0  0  0  0  0  0  0  0  0  0
   -7.2825    0.7915   -0.4618 C   0  0  0  0  0  0  0  0  0  0  0  0
   -5.9588    0.9359   -1.0444 C   0  0  0  0  0  0  0  0  0  0  0  0
   -4.7652    0.7104   -0.3875 N   0  0  0  0  0  0  0  0  0  0  0  0
   -4.1338   -0.1382    0.4730 C   0  0  0  0  0  0  0  0  0  0  0  0
   -4.6347   -1.1272    1.0497 O   0  0  0  0  0  0  0  0  0  0  0  0
   -2.7254   -0.0060    0.8495 N   0  0  0  0  0  0  0  0  0  0  0  0
   -2.1509   -0.9555    1.7377 C   0  0  0  0  0  0  0  0  0  0  0  0
   -0.6732   -0.9432    1.9176 C   0  0  0  0  0  0  0  0  0  0  0  0
   -0.0043   -1.5231    0.6787 C   0  0  0  0  0  0  0  0  0  0  0  0
   -0.2823   -0.7850   -0.5817 C   0  0  0  0  0  0  0  0  0  0  0  0
    0.4426   -1.4553   -1.7907 C   0  0  0  0  0  0  0  0  0  0  0  0
    1.8498   -1.4805   -1.3747 C   0  0  0  0  0  0  0  0  0  0  0  0
    2.4980   -0.2662   -1.3072 C   0  0  0  0  0  0  0  0  0  0  0  0
    3.8111   -0.1728   -0.9359 C   0  0  0  0  0  0  0  0  0  0  0  0
    4.5842   -1.3226   -0.5992 C   0  0  0  0  0  0  0  0  0  0  0  0
    5.9536   -1.0992   -0.2371 C   0  0  0  0  0  0  0  0  0  0  0  0
    6.8465   -1.9419    0.1871 C   0  0  0  0  0  0  0  0  0  0  0  0
    8.2025   -1.3856    0.5000 C   0  0  0  0  0  0  0  0  0  0  0  0
    9.0821   -2.2186    0.8582 O   0  0  0  0  0  0  0  0  0  0  0  0
    8.4779   -0.0529    0.4020 N   0  0  0  0  0  0  0  0  0  0  0  0
    9.5645    0.8175    0.5624 C   0  0  0  0  0  0  0  0  0  0  0  0
   10.8356    0.6162    0.0529 C   0  0  0  0  0  0  0  0  0  0  0  0
   11.8573    1.5644    0.2032 C   0  0  0  0  0  0  0  0  0  0  0  0
   11.5962    2.7219    0.8775 C   0  0  0  0  0  0  0  0  0  0  0  0
   10.3447    2.9447    1.4019 C   0  0  0  0  0  0  0  0  0  0  0  0
    9.3357    2.0345    1.2609 C   0  0  0  0  0  0  0  0  0  0  0  0
    3.9245   -2.5187   -0.6794 C   0  0  0  0  0  0  0  0  0  0  0  0
    2.5672   -2.6034   -1.0628 C   0  0  0  0  0  0  0  0  0  0  0  0
   -7.3243    5.1111   -0.4319 H   0  0  0  0  0  0  0  0  0  0  0  0
   -7.7063    4.7252   -2.1552 H   0  0  0  0  0  0  0  0  0  0  0  0
   -8.9513    4.5032   -0.8719 H   0  0  0  0  0  0  0  0  0  0  0  0
   -9.9361    2.9140   -0.1362 H   0  0  0  0  0  0  0  0  0  0  0  0
  -11.0126    0.7309    0.6842 H   0  0  0  0  0  0  0  0  0  0  0  0
   -9.6432   -1.2899    0.7477 H   0  0  0  0  0  0  0  0  0  0  0  0
   -7.0998   -3.5933   -0.2032 H   0  0  0  0  0  0  0  0  0  0  0  0
   -8.7409   -2.9004    0.1055 H   0  0  0  0  0  0  0  0  0  0  0  0
   -7.4552   -3.0606    1.4476 H   0  0  0  0  0  0  0  0  0  0  0  0
   -6.0331    0.1495   -1.9494 H   0  0  0  0  0  0  0  0  0  0  0  0
   -5.9440    1.8750   -1.7033 H   0  0  0  0  0  0  0  0  0  0  0  0
   -4.0384    1.5951   -0.6737 H   0  0  0  0  0  0  0  0  0  0  0  0
   -2.1971    0.8076    0.4953 H   0  0  0  0  0  0  0  0  0  0  0  0
   -2.3523   -2.0191    1.3617 H   0  0  0  0  0  0  0  0  0  0  0  0
   -2.6249   -0.8863    2.7346 H   0  0  0  0  0  0  0  0  0  0  0  0
   -0.2512    0.0545    2.1745 H   0  0  0  0  0  0  0  0  0  0  0  0
   -0.4627   -1.7080    2.7258 H   0  0  0  0  0  0  0  0  0  0  0  0
    1.1134   -1.5779    0.8249 H   0  0  0  0  0  0  0  0  0  0  0  0
   -0.3062   -2.6047    0.5656 H   0  0  0  0  0  0  0  0  0  0  0  0
    0.0162    0.2871   -0.5282 H   0  0  0  0  0  0  0  0  0  0  0  0
   -1.3620   -0.8204   -0.8336 H   0  0  0  0  0  0  0  0  0  0  0  0
    0.1780   -0.8537   -2.6445 H   0  0  0  0  0  0  0  0  0  0  0  0
   -0.0407   -2.4515   -1.9002 H   0  0  0  0  0  0  0  0  0  0  0  0
    1.9493    0.6671   -1.5295 H   0  0  0  0  0  0  0  0  0  0  0  0
    4.3120    0.7883   -0.8718 H   0  0  0  0  0  0  0  0  0  0  0  0
    6.2808   -0.0369   -0.3633 H   0  0  0  0  0  0  0  0  0  0  0  0
    6.5985   -2.9606    0.3091 H   0  0  0  0  0  0  0  0  0  0  0  0
    7.5994    0.5731    0.1173 H   0  0  0  0  0  0  0  0  0  0  0  0
   11.0443   -0.3205   -0.4862 H   0  0  0  0  0  0  0  0  0  0  0  0
   12.8237    1.3862   -0.2122 H   0  0  0  0  0  0  0  0  0  0  0  0
   12.3744    3.4886    0.9998 H   0  0  0  0  0  0  0  0  0  0  0  0
   10.1081    3.8750    1.9534 H   0  0  0  0  0  0  0  0  0  0  0  0
    8.3434    2.1752    1.6482 H   0  0  0  0  0  0  0  0  0  0  0  0
    4.4567   -3.4212   -0.4467 H   0  0  0  0  0  0  0  0  0  0  0  0
    2.0645   -3.5514   -1.1218 H   0  0  0  0  0  0  0  0  0  0  0  0
  1  2  1  0
  2  3  1  0
  3  4  2  0
  4  5  1  0
  5  6  2  0
  6  7  1  0
  7  8  1  0
  8  9  1  0
  7 10  2  0
 10 11  1  0
 11 12  1  0
 12 13  1  0
 13 14  2  0
 13 15  1  0
 15 16  1  0
 16 17  1  0
 17 18  1  0
 18 19  1  0
 19 20  1  0
 20 21  1  0
 21 22  2  0
 22 23  1  0
 23 24  2  0
 24 25  1  0
 25 26  2  0
 26 27  1  0
 27 28  2  0
 27 29  1  0
 29 30  1  0
 30 31  2  0
 31 32  1  0
 32 33  2  0
 33 34  1  0
 34 35  2  0
 24 36  1  0
 36 37  2  0
 10  3  1  0
 37 21  1  0
 35 30  1  0
  1 38  1  0
  1 39  1  0
  1 40  1  0
  4 41  1  0
  5 42  1  0
  6 43  1  0
  9 44  1  0
  9 45  1  0
  9 46  1  0
 11 47  1  0
 11 48  1  0
 12 49  1  0
 15 50  1  0
 16 51  1  0
 16 52  1  0
 17 53  1  0
 17 54  1  0
 18 55  1  0
 18 56  1  0
 19 57  1  0
 19 58  1  0
 20 59  1  0
 20 60  1  0
 22 61  1  0
 23 62  1  0
 25 63  1  0
 26 64  1  0
 29 65  1  0
 31 66  1  0
 32 67  1  0
 33 68  1  0
 34 69  1  0
 35 70  1  0
 36 71  1  0
 37 72  1  0
M  END
$$$$
[H]OC([H])([H])C1(S(=O)(=O)c2c([H])c([H])c(N([H])[H])c([H])c2[H])[C@@]([H])(O[H])[C@]([H])(O[H])[C@@]1([H])O[H]
     RDKit          3D

 34 35  0  0  0  0  0  0  0  0999 V2000
    4.7933   -1.4533    0.6704 N   0  0  0  0  0  0  0  0  0  0  0  0
    3.5962   -0.8469    0.2049 C   0  0  0  0  0  0  0  0  0  0  0  0
    2.7978   -1.5701   -0.6481 C   0  0  0  0  0  0  0  0  0  0  0  0
    1.6487   -0.9885   -1.0952 C   0  0  0  0  0  0  0  0  0  0  0  0
    1.2489    0.2767   -0.7394 C   0  0  0  0  0  0  0  0  0  0  0  0
    2.0480    0.9854    0.1070 C   0  0  0  0  0  0  0  0  0  0  0  0
    3.2104    0.4247    0.5725 C   0  0  0  0  0  0  0  0  0  0  0  0
   -0.2331    0.8928   -1.3781 S   0  0  0  0  0  0  0  0  0  0  0  0
   -0.4488    0.3214   -2.7542 O   0  0  0  0  0  0  0  0  0  0  0  0
   -0.0547    2.3895   -1.5746 O   0  0  0  0  0  0  0  0  0  0  0  0
   -1.6373    0.5775   -0.3750 C   0  0  0  0  0  0  0  0  0  0  0  0
   -2.8841    1.1703   -1.0460 C   0  0  0  0  0  0  0  0  0  0  0  0
   -2.7652    2.5285   -1.2171 O   0  0  0  0  0  0  0  0  0  0  0  0
   -1.5211    0.8461    1.0757 C   0  0  1  0  0  0  0  0  0  0  0  0
   -2.6068    1.5120    1.6559 O   0  0  0  0  0  0  0  0  0  0  0  0
   -1.6020   -0.6234    1.3756 C   0  0  2  0  0  0  0  0  0  0  0  0
   -0.4060   -1.1012    1.9177 O   0  0  0  0  0  0  0  0  0  0  0  0
   -1.7975   -0.8941   -0.0783 C   0  0  1  0  0  0  0  0  0  0  0  0
   -3.0410   -1.4214   -0.4208 O   0  0  0  0  0  0  0  0  0  0  0  0
    5.6418   -1.3605    0.0888 H   0  0  0  0  0  0  0  0  0  0  0  0
    4.8091   -1.9796    1.5804 H   0  0  0  0  0  0  0  0  0  0  0  0
    3.0538   -2.5774   -0.9707 H   0  0  0  0  0  0  0  0  0  0  0  0
    1.0219   -1.5885   -1.7818 H   0  0  0  0  0  0  0  0  0  0  0  0
    1.7713    2.0010    0.4206 H   0  0  0  0  0  0  0  0  0  0  0  0
    3.8830    0.9525    1.2519 H   0  0  0  0  0  0  0  0  0  0  0  0
   -3.7890    0.9660   -0.4506 H   0  0  0  0  0  0  0  0  0  0  0  0
   -3.0407    0.7057   -2.0408 H   0  0  0  0  0  0  0  0  0  0  0  0
   -2.2858    2.9644   -0.4815 H   0  0  0  0  0  0  0  0  0  0  0  0
   -0.5867    1.3121    1.4382 H   0  0  0  0  0  0  0  0  0  0  0  0
   -3.4507    1.0413    1.5632 H   0  0  0  0  0  0  0  0  0  0  0  0
   -2.4775   -0.9275    1.9942 H   0  0  0  0  0  0  0  0  0  0  0  0
   -0.1332   -1.9649    1.5202 H   0  0  0  0  0  0  0  0  0  0  0  0
   -1.0081   -1.5557   -0.5135 H   0  0  0  0  0  0  0  0  0  0  0  0
   -3.7552   -1.0149    0.1284 H   0  0  0  0  0  0  0  0  0  0  0  0
  1  2  1  0
  2  3  2  0
  3  4  1  0
  4  5  2  0
  5  6  1  0
  6  7  2  0
  5  8  1  0
  8  9  2  0
  8 10  2  0
  8 11  1  0
 11 12  1  0
 12 13  1  0
 11 14  1  0
 14 15  1  0
 14 16  1  0
 16 17  1  0
 16 18  1  0
 18 19  1  0
  7  2  1  0
 18 11  1  0
  1 20  1  0
  1 21  1  0
  3 22  1  0
  4 23  1  0
  6 24  1  0
  7 25  1  0
 12 26  1  0
 12 27  1  0
 13 28  1  0
 14 29  1  6
 15 30  1  0
 16 31  1  1
 17 32  1  0
 18 33  1  6
 19 34  1  0
M  END
$$$$
[H]c1c([H])c([H])c(C([H])([H])N([H])C(=O)N([H])C([H])([H])C([H])([H])C([H])([H])C([H])([H])C([H])([H])C([H])([H])N([H])C2([H])C([H])([H])C([H])([H])N(C([H])([H])c3c([H])c([H])c([H])c([H])c3[H])C([H])([H])C2([H])[H])c([H])c1[H]
     RDKit          3D

 69 71  0  0  0  0  0  0  0  0999 V2000
    5.2477    0.5663    0.1191 O   0  0  0  0  0  0  0  0  0  0  0  0
    4.9632   -0.0827    1.1574 C   0  0  0  0  0  0  0  0  0  0  0  0
    5.8510   -0.1325    2.2639 N   0  0  0  0  0  0  0  0  0  0  0  0
    7.1019    0.5884    2.1633 C   0  0  0  0  0  0  0  0  0  0  0  0
    8.0831   -0.1246    1.3084 C   0  0  0  0  0  0  0  0  0  0  0  0
    7.8705   -1.3777    0.7758 C   0  0  0  0  0  0  0  0  0  0  0  0
    8.8040   -2.0122   -0.0186 C   0  0  0  0  0  0  0  0  0  0  0  0
   10.0000   -1.3947   -0.3060 C   0  0  0  0  0  0  0  0  0  0  0  0
   10.2491   -0.1549    0.2015 C   0  0  0  0  0  0  0  0  0  0  0  0
    9.2892    0.4703    1.0044 C   0  0  0  0  0  0  0  0  0  0  0  0
    3.7214   -0.7615    1.1767 N   0  0  0  0  0  0  0  0  0  0  0  0
    2.7806   -0.7529    0.0999 C   0  0  0  0  0  0  0  0  0  0  0  0
    2.2628    0.6196   -0.2649 C   0  0  0  0  0  0  0  0  0  0  0  0
    1.5575    1.2684    0.9052 C   0  0  0  0  0  0  0  0  0  0  0  0
    1.0728    2.6170    0.4859 C   0  0  0  0  0  0  0  0  0  0  0  0
    0.1180    2.5922   -0.6644 C   0  0  0  0  0  0  0  0  0  0  0  0
   -1.1333    1.7896   -0.3715 C   0  0  0  0  0  0  0  0  0  0  0  0
   -2.0106    1.8074   -1.5264 N   0  0  0  0  0  0  0  0  0  0  0  0
   -3.1990    1.0133   -1.2054 C   0  0  0  0  0  0  0  0  0  0  0  0
   -4.1770    1.0347   -2.3490 C   0  0  0  0  0  0  0  0  0  0  0  0
   -5.3815    0.1951   -1.9388 C   0  0  0  0  0  0  0  0  0  0  0  0
   -5.0055   -0.9913   -1.2399 N   0  0  0  0  0  0  0  0  0  0  0  0
   -5.4150   -1.0538    0.1274 C   0  0  0  0  0  0  0  0  0  0  0  0
   -6.8942   -1.0118    0.2705 C   0  0  0  0  0  0  0  0  0  0  0  0
   -7.3992   -0.6131    1.5012 C   0  0  0  0  0  0  0  0  0  0  0  0
   -8.7646   -0.5736    1.6533 C   0  0  0  0  0  0  0  0  0  0  0  0
   -9.6114   -0.9131    0.6345 C   0  0  0  0  0  0  0  0  0  0  0  0
   -9.0903   -1.3029   -0.5689 C   0  0  0  0  0  0  0  0  0  0  0  0
   -7.7233   -1.3568   -0.7648 C   0  0  0  0  0  0  0  0  0  0  0  0
   -3.6520   -1.3987   -1.4530 C   0  0  0  0  0  0  0  0  0  0  0  0
   -2.7187   -0.3704   -0.9071 C   0  0  0  0  0  0  0  0  0  0  0  0
    5.5965   -0.6757    3.1162 H   0  0  0  0  0  0  0  0  0  0  0  0
    7.4701    0.7459    3.1964 H   0  0  0  0  0  0  0  0  0  0  0  0
    6.8418    1.5785    1.6855 H   0  0  0  0  0  0  0  0  0  0  0  0
    6.9385   -1.8672    0.9968 H   0  0  0  0  0  0  0  0  0  0  0  0
    8.6357   -2.9933   -0.4349 H   0  0  0  0  0  0  0  0  0  0  0  0
   10.7176   -1.9068   -0.9291 H   0  0  0  0  0  0  0  0  0  0  0  0
   11.1911    0.3595   -0.0105 H   0  0  0  0  0  0  0  0  0  0  0  0
    9.5443    1.4464    1.3740 H   0  0  0  0  0  0  0  0  0  0  0  0
    3.4953   -1.3071    2.0605 H   0  0  0  0  0  0  0  0  0  0  0  0
    3.1884   -1.1818   -0.8408 H   0  0  0  0  0  0  0  0  0  0  0  0
    1.8775   -1.3415    0.4018 H   0  0  0  0  0  0  0  0  0  0  0  0
    1.5187    0.4415   -1.0951 H   0  0  0  0  0  0  0  0  0  0  0  0
    3.0492    1.2387   -0.7149 H   0  0  0  0  0  0  0  0  0  0  0  0
    0.7499    0.5837    1.2200 H   0  0  0  0  0  0  0  0  0  0  0  0
    2.2516    1.3703    1.7555 H   0  0  0  0  0  0  0  0  0  0  0  0
    1.9622    3.2042    0.1595 H   0  0  0  0  0  0  0  0  0  0  0  0
    0.6589    3.1609    1.3617 H   0  0  0  0  0  0  0  0  0  0  0  0
    0.6286    2.2120   -1.5640 H   0  0  0  0  0  0  0  0  0  0  0  0
   -0.1567    3.6423   -0.8915 H   0  0  0  0  0  0  0  0  0  0  0  0
   -0.9152    0.7608   -0.0735 H   0  0  0  0  0  0  0  0  0  0  0  0
   -1.6120    2.2793    0.5079 H   0  0  0  0  0  0  0  0  0  0  0  0
   -1.5207    1.4302   -2.3574 H   0  0  0  0  0  0  0  0  0  0  0  0
   -3.6717    1.5355   -0.3534 H   0  0  0  0  0  0  0  0  0  0  0  0
   -3.7674    0.7110   -3.3074 H   0  0  0  0  0  0  0  0  0  0  0  0
   -4.5431    2.0773   -2.4822 H   0  0  0  0  0  0  0  0  0  0  0  0
   -6.0209   -0.0010   -2.8483 H   0  0  0  0  0  0  0  0  0  0  0  0
   -5.9925    0.8277   -1.2633 H   0  0  0  0  0  0  0  0  0  0  0  0
   -5.0362   -0.1521    0.6559 H   0  0  0  0  0  0  0  0  0  0  0  0
   -5.0484   -1.9616    0.6376 H   0  0  0  0  0  0  0  0  0  0  0  0
   -6.7256   -0.3449    2.3062 H   0  0  0  0  0  0  0  0  0  0  0  0
   -9.1964   -0.2656    2.6060 H   0  0  0  0  0  0  0  0  0  0  0  0
  -10.6772   -0.8753    0.7741 H   0  0  0  0  0  0  0  0  0  0  0  0
   -9.6996   -1.5894   -1.4303 H   0  0  0  0  0  0  0  0  0  0  0  0
   -7.2840   -1.6647   -1.7041 H   0  0  0  0  0  0  0  0  0  0  0  0
   -3.4952   -2.4054   -1.0284 H   0  0  0  0  0  0  0  0  0  0  0  0
   -3.4875   -1.4799   -2.5464 H   0  0  0  0  0  0  0  0  0  0  0  0
   -1.7198   -0.5596   -1.3921 H   0  0  0  0  0  0  0  0  0  0  0  0
   -2.5429   -0.4670    0.1823 H   0  0  0  0  0  0  0  0  0  0  0  0
  1  2  2  0
  2  3  1  0
  3  4  1  0
  4  5  1  0
  5  6  2  0
  6  7  1  0
  7  8  2  0
  8  9  1  0
  9 10  2  0
  2 11  1  0
 11 12  1  0
 12 13  1  0
 13 14  1  0
 14 15  1  0
 15 16  1  0
 16 17  1  0
 17 18  1  0
 18 19  1  0
 19 20  1  0
 20 21  1  0
 21 22  1  0
 22 23  1  0
 23 24  1  0
 24 25  2  0
 25 26  1  0
 26 27  2  0
 27 28  1  0
 28 29  2  0
 22 30  1  0
 30 31  1  0
 10  5  1  0
 31 19  1  0
 29 24  1  0
  3 32  1  0
  4 33  1  0
  4 34  1  0
  6 35  1  0
  7 36  1  0
  8 37  1  0
  9 38  1  0
 10 39  1  0
 11 40  1  0
 12 41  1  0
 12 42  1  0
 13 43  1  0
 13 44  1  0
 14 45  1  0
 14 46  1  0
 15 47  1  0
 15 48  1  0
 16 49  1  0
 16 50  1  0
 17 51  1  0
 17 52  1  0
 18 53  1  0
 19 54  1  0
 20 55  1  0
 20 56  1  0
 21 57  1  0
 21 58  1  0
 23 59  1  0
 23 60  1  0
 25 61  1  0
 26 62  1  0
 27 63  1  0
 28 64  1  0
 29 65  1  0
 30 66  1  0
 30 67  1  0
 31 68  1  0
 31 69  1  0
M  END
$$$$
[H]/C(=C(/[H])c1c([H])c([H])c(C([H])([H])N=C(N([H])[H])N([H])[H])c([H])c1[H])c1c([H])c([H])c([H])c([H])c1[H]
     RDKit          3D

 36 37  0  0  0  0  0  0  0  0999 V2000
    4.7916    2.5745   -1.0555 N   0  0  0  0  0  0  0  0  0  0  0  0
    5.1263    1.4536   -0.2554 C   0  0  0  0  0  0  0  0  0  0  0  0
    5.9686    1.6011    0.8914 N   0  0  0  0  0  0  0  0  0  0  0  0
    4.6794    0.2729   -0.5412 N   0  0  0  0  0  0  0  0  0  0  0  0
    3.8316   -0.0413   -1.6457 C   0  0  0  0  0  0  0  0  0  0  0  0
    2.4549   -0.3122   -1.1646 C   0  0  0  0  0  0  0  0  0  0  0  0
    1.5412    0.7173   -1.0787 C   0  0  0  0  0  0  0  0  0  0  0  0
    0.2302    0.4787   -0.6233 C   0  0  0  0  0  0  0  0  0  0  0  0
   -0.1715   -0.7791   -0.2547 C   0  0  0  0  0  0  0  0  0  0  0  0
   -1.4904   -1.0747    0.2174 C   0  0  0  0  0  0  0  0  0  0  0  0
   -2.4120   -0.1601    0.3357 C   0  0  0  0  0  0  0  0  0  0  0  0
   -3.7739   -0.4164    0.8142 C   0  0  0  0  0  0  0  0  0  0  0  0
   -4.1849   -1.6612    1.1803 C   0  0  0  0  0  0  0  0  0  0  0  0
   -5.5000   -1.8384    1.6300 C   0  0  0  0  0  0  0  0  0  0  0  0
   -6.3727   -0.7834    1.7062 C   0  0  0  0  0  0  0  0  0  0  0  0
   -5.9573    0.4736    1.3363 C   0  0  0  0  0  0  0  0  0  0  0  0
   -4.6731    0.6373    0.8989 C   0  0  0  0  0  0  0  0  0  0  0  0
    0.7719   -1.8141   -0.3488 C   0  0  0  0  0  0  0  0  0  0  0  0
    2.0515   -1.5792   -0.7936 C   0  0  0  0  0  0  0  0  0  0  0  0
    5.2323    2.7223   -1.9778 H   0  0  0  0  0  0  0  0  0  0  0  0
    4.0932    3.2598   -0.7115 H   0  0  0  0  0  0  0  0  0  0  0  0
    6.9495    1.2447    0.8822 H   0  0  0  0  0  0  0  0  0  0  0  0
    5.6360    2.0592    1.7539 H   0  0  0  0  0  0  0  0  0  0  0  0
    3.8527    0.7150   -2.4552 H   0  0  0  0  0  0  0  0  0  0  0  0
    4.2033   -0.9872   -2.1115 H   0  0  0  0  0  0  0  0  0  0  0  0
    1.8596    1.7117   -1.3706 H   0  0  0  0  0  0  0  0  0  0  0  0
   -0.4216    1.3421   -0.5871 H   0  0  0  0  0  0  0  0  0  0  0  0
   -1.7540   -2.1034    0.4945 H   0  0  0  0  0  0  0  0  0  0  0  0
   -2.1765    0.8761    0.0667 H   0  0  0  0  0  0  0  0  0  0  0  0
   -3.5461   -2.5369    1.1441 H   0  0  0  0  0  0  0  0  0  0  0  0
   -5.7945   -2.8439    1.9139 H   0  0  0  0  0  0  0  0  0  0  0  0
   -7.3711   -0.9524    2.0545 H   0  0  0  0  0  0  0  0  0  0  0  0
   -6.6299    1.3341    1.3858 H   0  0  0  0  0  0  0  0  0  0  0  0
   -4.3481    1.6361    0.6064 H   0  0  0  0  0  0  0  0  0  0  0  0
    0.5091   -2.8364   -0.0690 H   0  0  0  0  0  0  0  0  0  0  0  0
    2.7947   -2.3900   -0.8686 H   0  0  0  0  0  0  0  0  0  0  0  0
  1  2  1  0
  2  3  1  0
  2  4  2  3
  4  5  1  0
  5  6  1  0
  6  7  2  0
  7  8  1  0
  8  9  2  0
  9 10  1  0
 10 11  2  0
 11 12  1  0
 12 13  2  0
 13 14  1  0
 14 15  2  0
 15 16  1  0
 16 17  2  0
  9 18  1  0
 18 19  2  0
 19  6  1  0
 17 12  1  0
  1 20  1  0
  1 21  1  0
  3 22  1  0
  3 23  1  0
  5 24  1  0
  5 25  1  0
  7 26  1  0
  8 27  1  0
 10 28  1  0
 11 29  1  0
 13 30  1  0
 14 31  1  0
 15 32  1  0
 16 33  1  0
 17 34  1  0
 18 35  1  0
 19 36  1  0
M  END
$$$$
[H]O[C@]1([H])C([H])([H])C([H])([H])N(C(=O)c2c([H])c([H])c([H])c([H])c2[H])[C@]([H])(N([H])C(=O)c2c([H])c([H])c(F)c(-c3c([H])c([H])c(OC([H])([H])C([H])([H])C([H])([H])[H])c([H])c3[H])c2[H])C1([H])[H]
     RDKit          3D

 64 67  0  0  0  0  0  0  0  0999 V2000
    9.5396    1.0717    2.4980 C   0  0  0  0  0  0  0  0  0  0  0  0
    9.7083    1.4859    1.0540 C   0  0  0  0  0  0  0  0  0  0  0  0
    8.3552    1.7170    0.4221 C   0  0  0  0  0  0  0  0  0  0  0  0
    7.5723    0.5424    0.4581 O   0  0  0  0  0  0  0  0  0  0  0  0
    6.3011    0.5793   -0.0757 C   0  0  0  0  0  0  0  0  0  0  0  0
    5.7778    1.7252   -0.6359 C   0  0  0  0  0  0  0  0  0  0  0  0
    4.4875    1.7000   -1.1590 C   0  0  0  0  0  0  0  0  0  0  0  0
    3.7317    0.5586   -1.1265 C   0  0  0  0  0  0  0  0  0  0  0  0
    4.2964   -0.5749   -0.5537 C   0  0  0  0  0  0  0  0  0  0  0  0
    5.5589   -0.5900   -0.0295 C   0  0  0  0  0  0  0  0  0  0  0  0
    2.3592    0.4972   -1.6702 C   0  0  0  0  0  0  0  0  0  0  0  0
    1.3937   -0.1243   -0.9364 C   0  0  0  0  0  0  0  0  0  0  0  0
    0.0786   -0.2430   -1.3487 C   0  0  0  0  0  0  0  0  0  0  0  0
   -0.2089    0.3192   -2.5779 C   0  0  0  0  0  0  0  0  0  0  0  0
    0.7643    0.9564   -3.3370 C   0  0  0  0  0  0  0  0  0  0  0  0
    2.0783    1.0491   -2.8756 C   0  0  0  0  0  0  0  0  0  0  0  0
    3.0108    1.6775   -3.6401 F   0  0  0  0  0  0  0  0  0  0  0  0
   -0.9226   -0.9170   -0.5305 C   0  0  0  0  0  0  0  0  0  0  0  0
   -0.5217   -1.2942    0.6253 O   0  0  0  0  0  0  0  0  0  0  0  0
   -2.2317   -1.1426   -0.9644 N   0  0  0  0  0  0  0  0  0  0  0  0
   -3.2297   -1.8107   -0.1490 C   0  0  2  0  0  0  0  0  0  0  0  0
   -3.4313   -3.2300   -0.5490 C   0  0  0  0  0  0  0  0  0  0  0  0
   -4.9039   -3.5123   -0.6799 C   0  0  2  0  0  0  0  0  0  0  0  0
   -5.1574   -4.8219   -1.0829 O   0  0  0  0  0  0  0  0  0  0  0  0
   -5.4022   -2.5236   -1.7157 C   0  0  0  0  0  0  0  0  0  0  0  0
   -5.5319   -1.1933   -0.9660 C   0  0  0  0  0  0  0  0  0  0  0  0
   -4.4489   -1.0124   -0.0393 N   0  0  0  0  0  0  0  0  0  0  0  0
   -4.5334   -0.0980    1.0242 C   0  0  0  0  0  0  0  0  0  0  0  0
   -3.4511   -0.1833    1.7913 O   0  0  0  0  0  0  0  0  0  0  0  0
   -5.5071    0.8557    1.4240 C   0  0  0  0  0  0  0  0  0  0  0  0
   -6.5992    1.2651    0.7244 C   0  0  0  0  0  0  0  0  0  0  0  0
   -7.5299    2.1876    1.2590 C   0  0  0  0  0  0  0  0  0  0  0  0
   -7.3438    2.7001    2.5216 C   0  0  0  0  0  0  0  0  0  0  0  0
   -6.2573    2.3105    3.2472 C   0  0  0  0  0  0  0  0  0  0  0  0
   -5.3568    1.4105    2.7180 C   0  0  0  0  0  0  0  0  0  0  0  0
    9.2173    1.9914    3.0578 H   0  0  0  0  0  0  0  0  0  0  0  0
   10.4992    0.6752    2.8788 H   0  0  0  0  0  0  0  0  0  0  0  0
    8.7603    0.2948    2.6107 H   0  0  0  0  0  0  0  0  0  0  0  0
   10.2878    2.4101    1.0075 H   0  0  0  0  0  0  0  0  0  0  0  0
   10.2582    0.6827    0.5475 H   0  0  0  0  0  0  0  0  0  0  0  0
    7.8067    2.5264    0.9128 H   0  0  0  0  0  0  0  0  0  0  0  0
    8.5375    1.9402   -0.6514 H   0  0  0  0  0  0  0  0  0  0  0  0
    6.3481    2.6533   -0.6799 H   0  0  0  0  0  0  0  0  0  0  0  0
    4.0700    2.6162   -1.6051 H   0  0  0  0  0  0  0  0  0  0  0  0
    3.6952   -1.4881   -0.5253 H   0  0  0  0  0  0  0  0  0  0  0  0
    5.9387   -1.5053    0.4016 H   0  0  0  0  0  0  0  0  0  0  0  0
    1.6790   -0.5527    0.0324 H   0  0  0  0  0  0  0  0  0  0  0  0
   -1.2038    0.2776   -2.9776 H   0  0  0  0  0  0  0  0  0  0  0  0
    0.5439    1.4001   -4.3037 H   0  0  0  0  0  0  0  0  0  0  0  0
   -2.5271   -0.8275   -1.9069 H   0  0  0  0  0  0  0  0  0  0  0  0
   -2.7834   -1.8588    0.8893 H   0  0  0  0  0  0  0  0  0  0  0  0
   -3.0378   -3.9718    0.1787 H   0  0  0  0  0  0  0  0  0  0  0  0
   -2.9954   -3.4173   -1.5767 H   0  0  0  0  0  0  0  0  0  0  0  0
   -5.4254   -3.2707    0.2688 H   0  0  0  0  0  0  0  0  0  0  0  0
   -5.2161   -5.4457   -0.3404 H   0  0  0  0  0  0  0  0  0  0  0  0
   -4.6555   -2.4099   -2.5218 H   0  0  0  0  0  0  0  0  0  0  0  0
   -6.3862   -2.8821   -2.0728 H   0  0  0  0  0  0  0  0  0  0  0  0
   -6.5013   -1.2943   -0.4395 H   0  0  0  0  0  0  0  0  0  0  0  0
   -5.6265   -0.4405   -1.7540 H   0  0  0  0  0  0  0  0  0  0  0  0
   -6.7616    0.9122   -0.2740 H   0  0  0  0  0  0  0  0  0  0  0  0
   -8.3705    2.4526    0.6267 H   0  0  0  0  0  0  0  0  0  0  0  0
   -8.0395    3.4018    2.9426 H   0  0  0  0  0  0  0  0  0  0  0  0
   -6.0538    2.6795    4.2486 H   0  0  0  0  0  0  0  0  0  0  0  0
   -4.5024    1.1130    3.3137 H   0  0  0  0  0  0  0  0  0  0  0  0
  1  2  1  0
  2  3  1  0
  3  4  1  0
  4  5  1  0
  5  6  2  0
  6  7  1  0
  7  8  2  0
  8  9  1  0
  9 10  2  0
  8 11  1  0
 11 12  2  0
 12 13  1  0
 13 14  2  0
 14 15  1  0
 15 16  2  0
 16 17  1  0
 13 18  1  0
 18 19  2  0
 18 20  1  0
 20 21  1  0
 21 22  1  0
 22 23  1  0
 23 24  1  0
 23 25  1  0
 25 26  1  0
 26 27  1  0
 27 28  1  0
 28 29  2  0
 28 30  1  0
 30 31  2  0
 31 32  1  0
 32 33  2  0
 33 34  1  0
 34 35  2  0
 10  5  1  0
 16 11  1  0
 27 21  1  0
 35 30  1  0
  1 36  1  0
  1 37  1  0
  1 38  1  0
  2 39  1  0
  2 40  1  0
  3 41  1  0
  3 42  1  0
  6 43  1  0
  7 44  1  0
  9 45  1  0
 10 46  1  0
 12 47  1  0
 14 48  1  0
 15 49  1  0
 20 50  1  0
 21 51  1  1
 22 52  1  0
 22 53  1  0
 23 54  1  1
 24 55  1  0
 25 56  1  0
 25 57  1  0
 26 58  1  0
 26 59  1  0
 31 60  1  0
 32 61  1  0
 33 62  1  0
 34 63  1  0
 35 64  1  0
M  END
$$$$
[H]c1nc(C([H])([H])c2nc3c([H])c([H])c([H])c([H])c3c([H])c2[H])n(-c2c([H])c([H])c(C([H])([H])N(C([H])([H])[H])C([H])([H])[H])c([H])c2Cl)c1Cl
     RDKit          3D

 48 51  0  0  0  0  0  0  0  0999 V2000
   -3.9192    1.7967    0.7417 C   0  0  0  0  0  0  0  0  0  0  0  0
   -4.3071    1.4552   -0.5995 N   0  0  0  0  0  0  0  0  0  0  0  0
   -5.3393    2.2894   -1.1417 C   0  0  0  0  0  0  0  0  0  0  0  0
   -4.5534    0.0425   -0.7778 C   0  0  0  0  0  0  0  0  0  0  0  0
   -3.3070   -0.6809   -0.4534 C   0  0  0  0  0  0  0  0  0  0  0  0
   -3.0182   -1.1491    0.8083 C   0  0  0  0  0  0  0  0  0  0  0  0
   -1.8262   -1.8153    1.0214 C   0  0  0  0  0  0  0  0  0  0  0  0
   -0.9033   -2.0313    0.0037 C   0  0  0  0  0  0  0  0  0  0  0  0
   -1.2070   -1.5534   -1.2660 C   0  0  0  0  0  0  0  0  0  0  0  0
   -0.0707   -1.8031   -2.5799 Cl  0  0  0  0  0  0  0  0  0  0  0  0
   -2.3939   -0.8935   -1.4643 C   0  0  0  0  0  0  0  0  0  0  0  0
    0.2938   -2.7209    0.2963 N   0  0  0  0  0  0  0  0  0  0  0  0
    1.2576   -2.2975    1.1335 C   0  0  0  0  0  0  0  0  0  0  0  0
    1.3634   -1.0772    1.9416 C   0  0  0  0  0  0  0  0  0  0  0  0
    2.0996   -0.0561    1.1196 C   0  0  0  0  0  0  0  0  0  0  0  0
    1.4304    0.8411    0.3144 C   0  0  0  0  0  0  0  0  0  0  0  0
    2.2032    1.7395   -0.4034 C   0  0  0  0  0  0  0  0  0  0  0  0
    3.5791    1.7469   -0.3251 C   0  0  0  0  0  0  0  0  0  0  0  0
    4.3781    2.6380   -1.0351 C   0  0  0  0  0  0  0  0  0  0  0  0
    5.7504    2.6205   -0.9358 C   0  0  0  0  0  0  0  0  0  0  0  0
    6.3908    1.7135   -0.1239 C   0  0  0  0  0  0  0  0  0  0  0  0
    5.6001    0.8303    0.5798 C   0  0  0  0  0  0  0  0  0  0  0  0
    4.2093    0.8318    0.4931 C   0  0  0  0  0  0  0  0  0  0  0  0
    3.4601   -0.0410    1.1904 N   0  0  0  0  0  0  0  0  0  0  0  0
    2.2329   -3.2512    1.1343 N   0  0  0  0  0  0  0  0  0  0  0  0
    1.8732   -4.2471    0.3086 C   0  0  0  0  0  0  0  0  0  0  0  0
    0.6624   -3.8968   -0.2028 C   0  0  0  0  0  0  0  0  0  0  0  0
   -0.2168   -4.9137   -1.3522 Cl  0  0  0  0  0  0  0  0  0  0  0  0
   -2.8574    1.5608    0.9192 H   0  0  0  0  0  0  0  0  0  0  0  0
   -4.0630    2.8945    0.8690 H   0  0  0  0  0  0  0  0  0  0  0  0
   -4.5452    1.2769    1.5062 H   0  0  0  0  0  0  0  0  0  0  0  0
   -5.6559    3.0974   -0.4232 H   0  0  0  0  0  0  0  0  0  0  0  0
   -6.2100    1.6957   -1.4653 H   0  0  0  0  0  0  0  0  0  0  0  0
   -4.9154    2.8287   -2.0247 H   0  0  0  0  0  0  0  0  0  0  0  0
   -4.7808   -0.1250   -1.8479 H   0  0  0  0  0  0  0  0  0  0  0  0
   -5.4199   -0.3160   -0.1870 H   0  0  0  0  0  0  0  0  0  0  0  0
   -3.7270   -0.9845    1.5944 H   0  0  0  0  0  0  0  0  0  0  0  0
   -1.5966   -2.1882    2.0267 H   0  0  0  0  0  0  0  0  0  0  0  0
   -2.6121   -0.5271   -2.4675 H   0  0  0  0  0  0  0  0  0  0  0  0
    1.9599   -1.2621    2.8543 H   0  0  0  0  0  0  0  0  0  0  0  0
    0.3714   -0.6831    2.2402 H   0  0  0  0  0  0  0  0  0  0  0  0
    0.3467    0.8380    0.2520 H   0  0  0  0  0  0  0  0  0  0  0  0
    1.7134    2.4524   -1.0408 H   0  0  0  0  0  0  0  0  0  0  0  0
    3.8665    3.3411   -1.6654 H   0  0  0  0  0  0  0  0  0  0  0  0
    6.3573    3.3154   -1.4904 H   0  0  0  0  0  0  0  0  0  0  0  0
    7.4743    1.6922   -0.0391 H   0  0  0  0  0  0  0  0  0  0  0  0
    6.0748    0.1002    1.2309 H   0  0  0  0  0  0  0  0  0  0  0  0
    2.4967   -5.1246    0.1451 H   0  0  0  0  0  0  0  0  0  0  0  0
  1  2  1  0
  2  3  1  0
  2  4  1  0
  4  5  1  0
  5  6  2  0
  6  7  1  0
  7  8  2  0
  8  9  1  0
  9 10  1  0
  9 11  2  0
  8 12  1  0
 12 13  1  0
 13 14  1  0
 14 15  1  0
 15 16  2  0
 16 17  1  0
 17 18  2  0
 18 19  1  0
 19 20  2  0
 20 21  1  0
 21 22  2  0
 22 23  1  0
 23 24  2  0
 13 25  2  0
 25 26  1  0
 26 27  2  0
 27 28  1  0
 11  5  1  0
 27 12  1  0
 24 15  1  0
 23 18  1  0
  1 29  1  0
  1 30  1  0
  1 31  1  0
  3 32  1  0
  3 33  1  0
  3 34  1  0
  4 35  1  0
  4 36  1  0
  6 37  1  0
  7 38  1  0
 11 39  1  0
 14 40  1  0
 14 41  1  0
 16 42  1  0
 17 43  1  0
 19 44  1  0
 20 45  1  0
 21 46  1  0
 22 47  1  0
 26 48  1  0
M  END
$$$$
[H]c1c([H])c(C([H])([H])n2c(=O)n([H])c3c([H])c([H])c([H])c([H])c32)c([H])c(Cl)c1F
     RDKit          3D

 29 31  0  0  0  0  0  0  0  0999 V2000
   -5.0614    1.8442    0.3349 F   0  0  0  0  0  0  0  0  0  0  0  0
   -3.9476    1.1192   -0.0204 C   0  0  0  0  0  0  0  0  0  0  0  0
   -3.8129   -0.1946    0.3643 C   0  0  0  0  0  0  0  0  0  0  0  0
   -2.6891   -0.9196    0.0035 C   0  0  0  0  0  0  0  0  0  0  0  0
   -1.6767   -0.3564   -0.7457 C   0  0  0  0  0  0  0  0  0  0  0  0
   -0.5174   -1.1941   -1.0875 C   0  0  0  0  0  0  0  0  0  0  0  0
    0.5397   -1.1496   -0.1104 N   0  0  0  0  0  0  0  0  0  0  0  0
    0.6842   -1.9525    0.9575 C   0  0  0  0  0  0  0  0  0  0  0  0
   -0.0888   -2.8858    1.2849 O   0  0  0  0  0  0  0  0  0  0  0  0
    1.7865   -1.6077    1.6300 N   0  0  0  0  0  0  0  0  0  0  0  0
    2.3816   -0.5654    1.0038 C   0  0  0  0  0  0  0  0  0  0  0  0
    3.5191    0.1701    1.2585 C   0  0  0  0  0  0  0  0  0  0  0  0
    3.8614    1.1965    0.4046 C   0  0  0  0  0  0  0  0  0  0  0  0
    3.0580    1.4498   -0.6685 C   0  0  0  0  0  0  0  0  0  0  0  0
    1.9215    0.7346   -0.9457 C   0  0  0  0  0  0  0  0  0  0  0  0
    1.5694   -0.2939   -0.0989 C   0  0  0  0  0  0  0  0  0  0  0  0
   -1.8298    0.9565   -1.1201 C   0  0  0  0  0  0  0  0  0  0  0  0
   -2.9429    1.6851   -0.7664 C   0  0  0  0  0  0  0  0  0  0  0  0
   -3.1208    3.3601   -1.2534 Cl  0  0  0  0  0  0  0  0  0  0  0  0
   -4.6105   -0.6439    0.9565 H   0  0  0  0  0  0  0  0  0  0  0  0
   -2.6702   -1.9510    0.3528 H   0  0  0  0  0  0  0  0  0  0  0  0
   -0.8403   -2.2638   -1.2430 H   0  0  0  0  0  0  0  0  0  0  0  0
   -0.1591   -0.8547   -2.1011 H   0  0  0  0  0  0  0  0  0  0  0  0
    2.1871   -2.0264    2.5029 H   0  0  0  0  0  0  0  0  0  0  0  0
    4.0961   -0.1000    2.1311 H   0  0  0  0  0  0  0  0  0  0  0  0
    4.7619    1.7742    0.6115 H   0  0  0  0  0  0  0  0  0  0  0  0
    3.3350    2.2564   -1.3317 H   0  0  0  0  0  0  0  0  0  0  0  0
    1.3156    0.9849   -1.8234 H   0  0  0  0  0  0  0  0  0  0  0  0
   -1.0494    1.4281   -1.7113 H   0  0  0  0  0  0  0  0  0  0  0  0
  1  2  1  0
  2  3  2  0
  3  4  1  0
  4  5  2  0
  5  6  1  0
  6  7  1  0
  7  8  1  0
  8  9  2  0
  8 10  1  0
 10 11  1  0
 11 12  2  0
 12 13  1  0
 13 14  2  0
 14 15  1  0
 15 16  2  0
  5 17  1  0
 17 18  2  0
 18 19  1  0
 18  2  1  0
 16  7  1  0
 16 11  1  0
  3 20  1  0
  4 21  1  0
  6 22  1  0
  6 23  1  0
 10 24  1  0
 12 25  1  0
 13 26  1  0
 14 27  1  0
 15 28  1  0
 17 29  1  0
M  END
$$$$
[H]c1nc(N([H])C2([H])C([H])([H])C([H])([H])S(=O)(=O)C([H])([H])C2([H])[H])c(Cl)c([H])c1C([H])([H])[H]
     RDKit          3D

 32 33  0  0  0  0  0  0  0  0999 V2000
    5.2036    0.6815    0.3119 C   0  0  0  0  0  0  0  0  0  0  0  0
    3.7907    0.1874    0.2909 C   0  0  0  0  0  0  0  0  0  0  0  0
    2.8575    0.7543   -0.5464 C   0  0  0  0  0  0  0  0  0  0  0  0
    1.6075    0.3155   -0.5634 N   0  0  0  0  0  0  0  0  0  0  0  0
    1.1346   -0.6833    0.1979 C   0  0  0  0  0  0  0  0  0  0  0  0
   -0.2377   -1.1055    0.1235 N   0  0  0  0  0  0  0  0  0  0  0  0
   -1.2100   -0.5258   -0.7380 C   0  0  0  0  0  0  0  0  0  0  0  0
   -2.5226   -1.2242   -0.5473 C   0  0  0  0  0  0  0  0  0  0  0  0
   -3.3393   -0.6865    0.6073 C   0  0  0  0  0  0  0  0  0  0  0  0
   -3.8657    0.9531    0.0849 S   0  0  0  0  0  0  0  0  0  0  0  0
   -3.8239    1.9209    1.2206 O   0  0  0  0  0  0  0  0  0  0  0  0
   -5.2258    0.8915   -0.5309 O   0  0  0  0  0  0  0  0  0  0  0  0
   -2.6825    1.4007   -1.1944 C   0  0  0  0  0  0  0  0  0  0  0  0
   -1.3037    0.9602   -0.6813 C   0  0  0  0  0  0  0  0  0  0  0  0
    2.0481   -1.2714    1.0480 C   0  0  0  0  0  0  0  0  0  0  0  0
    1.5623   -2.5723    2.0834 Cl  0  0  0  0  0  0  0  0  0  0  0  0
    3.3731   -0.8451    1.1019 C   0  0  0  0  0  0  0  0  0  0  0  0
    5.7153    0.1828    1.1444 H   0  0  0  0  0  0  0  0  0  0  0  0
    5.2302    1.7843    0.5227 H   0  0  0  0  0  0  0  0  0  0  0  0
    5.7238    0.4489   -0.6385 H   0  0  0  0  0  0  0  0  0  0  0  0
    3.1972    1.5773   -1.1904 H   0  0  0  0  0  0  0  0  0  0  0  0
   -0.5389   -1.8933    0.7470 H   0  0  0  0  0  0  0  0  0  0  0  0
   -0.8847   -0.7882   -1.7915 H   0  0  0  0  0  0  0  0  0  0  0  0
   -3.1751   -1.1382   -1.4574 H   0  0  0  0  0  0  0  0  0  0  0  0
   -2.4092   -2.3108   -0.3680 H   0  0  0  0  0  0  0  0  0  0  0  0
   -2.7035   -0.5738    1.4907 H   0  0  0  0  0  0  0  0  0  0  0  0
   -4.2012   -1.3444    0.7382 H   0  0  0  0  0  0  0  0  0  0  0  0
   -2.9464    0.9048   -2.1362 H   0  0  0  0  0  0  0  0  0  0  0  0
   -2.6960    2.5072   -1.2993 H   0  0  0  0  0  0  0  0  0  0  0  0
   -0.5901    1.3995   -1.3872 H   0  0  0  0  0  0  0  0  0  0  0  0
   -1.1942    1.3820    0.3425 H   0  0  0  0  0  0  0  0  0  0  0  0
    4.1065   -1.2890    1.7584 H   0  0  0  0  0  0  0  0  0  0  0  0
  1  2  1  0
  2  3  2  0
  3  4  1  0
  4  5  2  0
  5  6  1  0
  6  7  1  0
  7  8  1  0
  8  9  1  0
  9 10  1  0
 10 11  2  0
 10 12  2  0
 10 13  1  0
 13 14  1  0
  5 15  1  0
 15 16  1  0
 15 17  2  0
 17  2  1  0
 14  7  1  0
  1 18  1  0
  1 19  1  0
  1 20  1  0
  3 21  1  0
  6 22  1  0
  7 23  1  0
  8 24  1  0
  8 25  1  0
  9 26  1  0
  9 27  1  0
 13 28  1  0
 13 29  1  0
 14 30  1  0
 14 31  1  0
 17 32  1  0
M  END
$$$$
[H]OC1(c2nc([H])c(Cl)c([H])n2)C([H])([H])N(C(=O)N(C([H])([H])c2c([H])c(F)c(F)c(F)c2[H])S(=O)(=O)c2c([H])c([H])c(C([H])([H])[H])c(F)c2[H])C([H])([H])C1([H])[H]
     RDKit          3D

 56 59  0  0  0  0  0  0  0  0999 V2000
    4.4940   -4.8033    1.6003 C   0  0  0  0  0  0  0  0  0  0  0  0
    4.1042   -3.5486    0.9188 C   0  0  0  0  0  0  0  0  0  0  0  0
    4.6392   -2.3453    1.2805 C   0  0  0  0  0  0  0  0  0  0  0  0
    4.2559   -1.1688    0.6336 C   0  0  0  0  0  0  0  0  0  0  0  0
    3.3317   -1.1885   -0.3824 C   0  0  0  0  0  0  0  0  0  0  0  0
    2.8100   -2.4219   -0.7235 C   0  0  0  0  0  0  0  0  0  0  0  0
    3.1638   -3.5826   -0.1124 C   0  0  0  0  0  0  0  0  0  0  0  0
    2.6145   -4.7655   -0.4825 F   0  0  0  0  0  0  0  0  0  0  0  0
    2.8265    0.2884   -1.1286 S   0  0  0  0  0  0  0  0  0  0  0  0
    3.6064    1.4276   -0.5531 O   0  0  0  0  0  0  0  0  0  0  0  0
    2.9596    0.1351   -2.5979 O   0  0  0  0  0  0  0  0  0  0  0  0
    1.1235    0.6022   -0.7595 N   0  0  0  0  0  0  0  0  0  0  0  0
    0.4586    1.3813   -1.7606 C   0  0  0  0  0  0  0  0  0  0  0  0
    0.6879    2.8550   -1.6531 C   0  0  0  0  0  0  0  0  0  0  0  0
    1.6314    3.4117   -2.4901 C   0  0  0  0  0  0  0  0  0  0  0  0
    1.8720    4.7603   -2.4445 C   0  0  0  0  0  0  0  0  0  0  0  0
    2.8008    5.3440   -3.2502 F   0  0  0  0  0  0  0  0  0  0  0  0
    1.1823    5.5706   -1.5733 C   0  0  0  0  0  0  0  0  0  0  0  0
    1.3968    6.9162   -1.4958 F   0  0  0  0  0  0  0  0  0  0  0  0
    0.2352    5.0597   -0.7224 C   0  0  0  0  0  0  0  0  0  0  0  0
   -0.4777    5.8242    0.1594 F   0  0  0  0  0  0  0  0  0  0  0  0
    0.0235    3.6920   -0.7995 C   0  0  0  0  0  0  0  0  0  0  0  0
    0.5827    0.1030    0.4197 C   0  0  0  0  0  0  0  0  0  0  0  0
    1.4534   -0.4289    1.2218 O   0  0  0  0  0  0  0  0  0  0  0  0
   -0.7454    0.0771    0.8750 N   0  0  0  0  0  0  0  0  0  0  0  0
   -1.0236   -0.4787    2.2217 C   0  0  0  0  0  0  0  0  0  0  0  0
   -2.4817   -0.4780    2.4003 C   0  0  0  0  0  0  0  0  0  0  0  0
   -3.0768    0.2189    1.2391 C   0  0  0  0  0  0  0  0  0  0  0  0
   -3.5272    1.4772    1.6922 O   0  0  0  0  0  0  0  0  0  0  0  0
   -1.9849    0.4374    0.2623 C   0  0  0  0  0  0  0  0  0  0  0  0
   -4.2305   -0.5240    0.6398 C   0  0  0  0  0  0  0  0  0  0  0  0
   -4.7707   -0.0212   -0.4767 N   0  0  0  0  0  0  0  0  0  0  0  0
   -5.8220   -0.6112   -1.1030 C   0  0  0  0  0  0  0  0  0  0  0  0
   -6.3571   -1.7605   -0.5835 C   0  0  0  0  0  0  0  0  0  0  0  0
   -7.7177   -2.5472   -1.3603 Cl  0  0  0  0  0  0  0  0  0  0  0  0
   -5.7798   -2.2563    0.5686 C   0  0  0  0  0  0  0  0  0  0  0  0
   -4.7294   -1.6369    1.1632 N   0  0  0  0  0  0  0  0  0  0  0  0
    5.2786   -5.3177    1.0238 H   0  0  0  0  0  0  0  0  0  0  0  0
    3.6276   -5.4863    1.7288 H   0  0  0  0  0  0  0  0  0  0  0  0
    4.9440   -4.5668    2.6130 H   0  0  0  0  0  0  0  0  0  0  0  0
    5.3736   -2.3503    2.0923 H   0  0  0  0  0  0  0  0  0  0  0  0
    4.7348   -0.2781    0.9817 H   0  0  0  0  0  0  0  0  0  0  0  0
    2.0808   -2.4717   -1.5281 H   0  0  0  0  0  0  0  0  0  0  0  0
    0.8663    1.0239   -2.7562 H   0  0  0  0  0  0  0  0  0  0  0  0
   -0.6221    1.2045   -1.8552 H   0  0  0  0  0  0  0  0  0  0  0  0
    2.1930    2.8121   -3.2046 H   0  0  0  0  0  0  0  0  0  0  0  0
   -0.7108    3.2937   -0.1278 H   0  0  0  0  0  0  0  0  0  0  0  0
   -0.5380    0.2431    2.9258 H   0  0  0  0  0  0  0  0  0  0  0  0
   -0.5490   -1.4853    2.3064 H   0  0  0  0  0  0  0  0  0  0  0  0
   -2.8912   -1.5233    2.5174 H   0  0  0  0  0  0  0  0  0  0  0  0
   -2.7801    0.0472    3.3735 H   0  0  0  0  0  0  0  0  0  0  0  0
   -3.8351    1.9363    0.8641 H   0  0  0  0  0  0  0  0  0  0  0  0
   -2.0633    1.4673   -0.1095 H   0  0  0  0  0  0  0  0  0  0  0  0
   -2.1813   -0.1974   -0.6533 H   0  0  0  0  0  0  0  0  0  0  0  0
   -6.2521   -0.2088   -2.0036 H   0  0  0  0  0  0  0  0  0  0  0  0
   -6.2052   -3.1565    0.9678 H   0  0  0  0  0  0  0  0  0  0  0  0
  1  2  1  0
  2  3  2  0
  3  4  1  0
  4  5  2  0
  5  6  1  0
  6  7  2  0
  7  8  1  0
  5  9  1  0
  9 10  2  0
  9 11  2  0
  9 12  1  0
 12 13  1  0
 13 14  1  0
 14 15  2  0
 15 16  1  0
 16 17  1  0
 16 18  2  0
 18 19  1  0
 18 20  1  0
 20 21  1  0
 20 22  2  0
 12 23  1  0
 23 24  2  0
 23 25  1  0
 25 26  1  0
 26 27  1  0
 27 28  1  0
 28 29  1  0
 28 30  1  0
 28 31  1  0
 31 32  2  0
 32 33  1  0
 33 34  2  0
 34 35  1  0
 34 36  1  0
 36 37  2  0
  7  2  1  0
 22 14  1  0
 30 25  1  0
 37 31  1  0
  1 38  1  0
  1 39  1  0
  1 40  1  0
  3 41  1  0
  4 42  1  0
  6 43  1  0
 13 44  1  0
 13 45  1  0
 15 46  1  0
 22 47  1  0
 26 48  1  0
 26 49  1  0
 27 50  1  0
 27 51  1  0
 29 52  1  0
 30 53  1  0
 30 54  1  0
 33 55  1  0
 36 56  1  0
M  END
$$$$
[H]C(=C(c1c([H])c([H])c([H])c([H])c1[H])n1nc([H])c([H])c1[H])c1c([H])c([H])c(C([H])([H])[H])c([H])c1C(F)(F)F
     RDKit          3D

 39 41  0  0  0  0  0  0  0  0999 V2000
    4.9663   -1.5468    0.7891 C   0  0  0  0  0  0  0  0  0  0  0  0
    3.6765   -0.9545    0.3496 C   0  0  0  0  0  0  0  0  0  0  0  0
    2.7338   -1.7395   -0.2849 C   0  0  0  0  0  0  0  0  0  0  0  0
    1.5388   -1.2344   -0.7029 C   0  0  0  0  0  0  0  0  0  0  0  0
    1.2793    0.1227   -0.4729 C   0  0  0  0  0  0  0  0  0  0  0  0
    0.0467    0.7426   -0.8795 C   0  0  0  0  0  0  0  0  0  0  0  0
   -1.1954    0.4193   -0.6180 C   0  0  0  0  0  0  0  0  0  0  0  0
   -1.6704   -0.6835    0.1923 C   0  0  0  0  0  0  0  0  0  0  0  0
   -2.8651   -1.2971   -0.0927 C   0  0  0  0  0  0  0  0  0  0  0  0
   -3.4236   -2.2833    0.7373 C   0  0  0  0  0  0  0  0  0  0  0  0
   -2.7457   -2.6456    1.8748 C   0  0  0  0  0  0  0  0  0  0  0  0
   -1.5601   -2.0287    2.1461 C   0  0  0  0  0  0  0  0  0  0  0  0
   -1.0053   -1.0515    1.3283 C   0  0  0  0  0  0  0  0  0  0  0  0
   -2.2139    1.3200   -1.1775 N   0  0  0  0  0  0  0  0  0  0  0  0
   -2.0257    2.3651   -1.9833 C   0  0  0  0  0  0  0  0  0  0  0  0
   -3.2433    2.9575   -2.2239 C   0  0  0  0  0  0  0  0  0  0  0  0
   -4.1799    2.2278   -1.5297 C   0  0  0  0  0  0  0  0  0  0  0  0
   -3.5042    1.2509   -0.9153 N   0  0  0  0  0  0  0  0  0  0  0  0
    2.2136    0.9449    0.1671 C   0  0  0  0  0  0  0  0  0  0  0  0
    3.4052    0.3798    0.5684 C   0  0  0  0  0  0  0  0  0  0  0  0
    1.9316    2.3748    0.4016 C   0  0  0  0  0  0  0  0  0  0  0  0
    0.7893    2.5707    1.1803 F   0  0  0  0  0  0  0  0  0  0  0  0
    2.9688    2.8676    1.2143 F   0  0  0  0  0  0  0  0  0  0  0  0
    1.9622    3.1564   -0.7186 F   0  0  0  0  0  0  0  0  0  0  0  0
    4.9138   -1.9255    1.8433 H   0  0  0  0  0  0  0  0  0  0  0  0
    5.7720   -0.8046    0.7513 H   0  0  0  0  0  0  0  0  0  0  0  0
    5.2263   -2.3712    0.0980 H   0  0  0  0  0  0  0  0  0  0  0  0
    2.9206   -2.8068   -0.4739 H   0  0  0  0  0  0  0  0  0  0  0  0
    0.7653   -1.7983   -1.2029 H   0  0  0  0  0  0  0  0  0  0  0  0
    0.2063    1.6371   -1.5225 H   0  0  0  0  0  0  0  0  0  0  0  0
   -3.4713   -1.1180   -0.9770 H   0  0  0  0  0  0  0  0  0  0  0  0
   -4.3639   -2.7689    0.5182 H   0  0  0  0  0  0  0  0  0  0  0  0
   -3.1315   -3.4108    2.5622 H   0  0  0  0  0  0  0  0  0  0  0  0
   -0.9848   -2.2946    3.0540 H   0  0  0  0  0  0  0  0  0  0  0  0
   -0.0564   -0.5829    1.6681 H   0  0  0  0  0  0  0  0  0  0  0  0
   -1.1153    2.7192   -2.3972 H   0  0  0  0  0  0  0  0  0  0  0  0
   -3.4412    3.8424   -2.8470 H   0  0  0  0  0  0  0  0  0  0  0  0
   -5.2620    2.4228   -1.4971 H   0  0  0  0  0  0  0  0  0  0  0  0
    4.1426    1.0247    1.0724 H   0  0  0  0  0  0  0  0  0  0  0  0
  1  2  1  0
  2  3  2  0
  3  4  1  0
  4  5  2  0
  5  6  1  0
  6  7  2  3
  7  8  1  0
  8  9  2  0
  9 10  1  0
 10 11  2  0
 11 12  1  0
 12 13  2  0
  7 14  1  0
 14 15  1  0
 15 16  2  0
 16 17  1  0
 17 18  2  0
  5 19  1  0
 19 20  2  0
 19 21  1  0
 21 22  1  0
 21 23  1  0
 21 24  1  0
 20  2  1  0
 13  8  1  0
 18 14  1  0
  1 25  1  0
  1 26  1  0
  1 27  1  0
  3 28  1  0
  4 29  1  0
  6 30  1  0
  9 31  1  0
 10 32  1  0
 11 33  1  0
 12 34  1  0
 13 35  1  0
 15 36  1  0
 16 37  1  0
 17 38  1  0
 20 39  1  0
M  END
$$$$
[H]c1nc2nc(S(=O)(=O)N(C([H])([H])[H])C([H])([H])[H])c([H])c([H])c2nc1-c1c([H])c([H])c(C(F)(F)F)c([H])c1[H]
     RDKit          3D

 39 41  0  0  0  0  0  0  0  0999 V2000
   -6.1940   -1.3788    0.9590 C   0  0  0  0  0  0  0  0  0  0  0  0
   -5.5500   -0.0639    0.8861 N   0  0  0  0  0  0  0  0  0  0  0  0
   -6.6317    0.9296    1.0623 C   0  0  0  0  0  0  0  0  0  0  0  0
   -4.7455    0.2216   -0.5795 S   0  0  0  0  0  0  0  0  0  0  0  0
   -5.0547   -1.0305   -1.4700 O   0  0  0  0  0  0  0  0  0  0  0  0
   -5.4066    1.3436   -1.3446 O   0  0  0  0  0  0  0  0  0  0  0  0
   -3.0136    0.4054   -0.4995 C   0  0  0  0  0  0  0  0  0  0  0  0
   -2.4675    1.6618   -0.4359 C   0  0  0  0  0  0  0  0  0  0  0  0
   -1.0814    1.8438   -0.3645 C   0  0  0  0  0  0  0  0  0  0  0  0
   -0.2189    0.7776   -0.3616 C   0  0  0  0  0  0  0  0  0  0  0  0
    1.1419    0.9178   -0.3294 N   0  0  0  0  0  0  0  0  0  0  0  0
    1.9624   -0.1228   -0.3708 C   0  0  0  0  0  0  0  0  0  0  0  0
    1.3501   -1.3732   -0.4507 C   0  0  0  0  0  0  0  0  0  0  0  0
    0.0075   -1.5193   -0.4724 N   0  0  0  0  0  0  0  0  0  0  0  0
   -0.7904   -0.4412   -0.4270 C   0  0  0  0  0  0  0  0  0  0  0  0
   -2.1554   -0.6456   -0.4935 N   0  0  0  0  0  0  0  0  0  0  0  0
    3.3885   -0.0790   -0.2452 C   0  0  0  0  0  0  0  0  0  0  0  0
    4.1409    0.9208    0.3340 C   0  0  0  0  0  0  0  0  0  0  0  0
    5.5438    0.8534    0.4215 C   0  0  0  0  0  0  0  0  0  0  0  0
    6.2664   -0.2009   -0.0582 C   0  0  0  0  0  0  0  0  0  0  0  0
    5.5098   -1.2293   -0.6512 C   0  0  0  0  0  0  0  0  0  0  0  0
    4.1632   -1.1485   -0.7278 C   0  0  0  0  0  0  0  0  0  0  0  0
    7.7407   -0.3633    0.0740 C   0  0  0  0  0  0  0  0  0  0  0  0
    8.0767   -1.6586    0.4164 F   0  0  0  0  0  0  0  0  0  0  0  0
    8.1956    0.4674    1.1044 F   0  0  0  0  0  0  0  0  0  0  0  0
    8.3247   -0.0007   -1.1491 F   0  0  0  0  0  0  0  0  0  0  0  0
   -6.4206   -1.6232    2.0396 H   0  0  0  0  0  0  0  0  0  0  0  0
   -7.2166   -1.2991    0.4819 H   0  0  0  0  0  0  0  0  0  0  0  0
   -5.6082   -2.1487    0.4400 H   0  0  0  0  0  0  0  0  0  0  0  0
   -6.3211    1.6190    1.8221 H   0  0  0  0  0  0  0  0  0  0  0  0
   -6.8074    1.4354    0.0695 H   0  0  0  0  0  0  0  0  0  0  0  0
   -7.5715    0.4068    1.2790 H   0  0  0  0  0  0  0  0  0  0  0  0
   -3.1444    2.5299   -0.4388 H   0  0  0  0  0  0  0  0  0  0  0  0
   -0.6790    2.8112   -0.3404 H   0  0  0  0  0  0  0  0  0  0  0  0
    1.9943   -2.2709   -0.4311 H   0  0  0  0  0  0  0  0  0  0  0  0
    3.6024    1.7852    0.7169 H   0  0  0  0  0  0  0  0  0  0  0  0
    6.0689    1.6907    0.9055 H   0  0  0  0  0  0  0  0  0  0  0  0
    6.0308   -2.0831   -1.0131 H   0  0  0  0  0  0  0  0  0  0  0  0
    3.5699   -1.9405   -1.2416 H   0  0  0  0  0  0  0  0  0  0  0  0
  1  2  1  0
  2  3  1  0
  2  4  1  0
  4  5  2  0
  4  6  2  0
  4  7  1  0
  7  8  2  0
  8  9  1  0
  9 10  2  0
 10 11  1  0
 11 12  2  0
 12 13  1  0
 13 14  2  0
 14 15  1  0
 15 16  2  0
 12 17  1  0
 17 18  2  0
 18 19  1  0
 19 20  2  0
 20 21  1  0
 21 22  2  0
 20 23  1  0
 23 24  1  0
 23 25  1  0
 23 26  1  0
 16  7  1  0
 22 17  1  0
 15 10  1  0
  1 27  1  0
  1 28  1  0
  1 29  1  0
  3 30  1  0
  3 31  1  0
  3 32  1  0
  8 33  1  0
  9 34  1  0
 13 35  1  0
 18 36  1  0
 19 37  1  0
 21 38  1  0
 22 39  1  0
M  END
$$$$
[H]OC([H])([H])C1([H])C([H])([H])N(c2c([H])c([H])c(C([H])([H])[H])c(C(=O)N([H])c3nc([H])c4c([H])c([H])c(-c5c([H])nn(C([H])([H])[H])c5[H])c([H])c4n3)c2[H])C([H])([H])C([H])([H])C1([H])[H]
     RDKit          3D

 62 66  0  0  0  0  0  0  0  0999 V2000
   10.7301    2.3767   -0.5560 C   0  0  0  0  0  0  0  0  0  0  0  0
    9.5405    1.5490   -0.5892 N   0  0  0  0  0  0  0  0  0  0  0  0
    8.5930    1.4346    0.3599 C   0  0  0  0  0  0  0  0  0  0  0  0
    7.6279    0.5433   -0.0788 C   0  0  0  0  0  0  0  0  0  0  0  0
    8.0469    0.1349   -1.3252 C   0  0  0  0  0  0  0  0  0  0  0  0
    9.2178    0.7605   -1.6211 N   0  0  0  0  0  0  0  0  0  0  0  0
    6.4031    0.1225    0.5885 C   0  0  0  0  0  0  0  0  0  0  0  0
    6.3385    0.0536    1.9690 C   0  0  0  0  0  0  0  0  0  0  0  0
    5.1696   -0.3141    2.6006 C   0  0  0  0  0  0  0  0  0  0  0  0
    4.0511   -0.6176    1.8413 C   0  0  0  0  0  0  0  0  0  0  0  0
    2.8593   -0.9534    2.4372 C   0  0  0  0  0  0  0  0  0  0  0  0
    1.7928   -1.2080    1.6577 N   0  0  0  0  0  0  0  0  0  0  0  0
    1.7968   -1.1597    0.3162 C   0  0  0  0  0  0  0  0  0  0  0  0
    0.6157   -1.3425   -0.4555 N   0  0  0  0  0  0  0  0  0  0  0  0
   -0.6243   -1.5207    0.1640 C   0  0  0  0  0  0  0  0  0  0  0  0
   -0.6516   -1.5382    1.4433 O   0  0  0  0  0  0  0  0  0  0  0  0
   -1.8819   -1.6685   -0.5670 C   0  0  0  0  0  0  0  0  0  0  0  0
   -2.9472   -0.8404   -0.1714 C   0  0  0  0  0  0  0  0  0  0  0  0
   -4.1404   -0.7709   -0.8259 C   0  0  0  0  0  0  0  0  0  0  0  0
   -4.3022   -1.5748   -1.9398 C   0  0  0  0  0  0  0  0  0  0  0  0
   -3.2707   -2.4185   -2.3687 C   0  0  0  0  0  0  0  0  0  0  0  0
   -2.0567   -2.4520   -1.6644 C   0  0  0  0  0  0  0  0  0  0  0  0
   -0.9913   -3.3621   -2.1400 C   0  0  0  0  0  0  0  0  0  0  0  0
   -5.1121    0.1860   -0.3970 N   0  0  0  0  0  0  0  0  0  0  0  0
   -4.6725    1.3840    0.3410 C   0  0  0  0  0  0  0  0  0  0  0  0
   -5.2737    1.3703    1.6997 C   0  0  0  0  0  0  0  0  0  0  0  0
   -6.6537    0.8063    1.7804 C   0  0  0  0  0  0  0  0  0  0  0  0
   -7.3550    0.7648    0.4372 C   0  0  0  0  0  0  0  0  0  0  0  0
   -7.8927    2.1160    0.0811 C   0  0  0  0  0  0  0  0  0  0  0  0
   -8.8191    2.5687    1.0299 O   0  0  0  0  0  0  0  0  0  0  0  0
   -6.5277    0.1014   -0.6268 C   0  0  0  0  0  0  0  0  0  0  0  0
    2.9698   -0.8320   -0.2789 N   0  0  0  0  0  0  0  0  0  0  0  0
    4.0650   -0.5659    0.4654 C   0  0  0  0  0  0  0  0  0  0  0  0
    5.2577   -0.1923   -0.1221 C   0  0  0  0  0  0  0  0  0  0  0  0
   10.5929    3.1283    0.2714 H   0  0  0  0  0  0  0  0  0  0  0  0
   11.6387    1.7748   -0.4097 H   0  0  0  0  0  0  0  0  0  0  0  0
   10.8391    2.9058   -1.5198 H   0  0  0  0  0  0  0  0  0  0  0  0
    8.5489    1.9343    1.3188 H   0  0  0  0  0  0  0  0  0  0  0  0
    7.5535   -0.5578   -1.9822 H   0  0  0  0  0  0  0  0  0  0  0  0
    7.2000    0.2850    2.6061 H   0  0  0  0  0  0  0  0  0  0  0  0
    5.0842   -0.3775    3.6638 H   0  0  0  0  0  0  0  0  0  0  0  0
    2.8026   -1.0076    3.5275 H   0  0  0  0  0  0  0  0  0  0  0  0
    0.6631   -1.3278   -1.4909 H   0  0  0  0  0  0  0  0  0  0  0  0
   -2.7571   -0.2661    0.7204 H   0  0  0  0  0  0  0  0  0  0  0  0
   -5.2457   -1.5291   -2.4625 H   0  0  0  0  0  0  0  0  0  0  0  0
   -3.4131   -3.0392   -3.2399 H   0  0  0  0  0  0  0  0  0  0  0  0
   -0.2473   -3.5838   -1.3449 H   0  0  0  0  0  0  0  0  0  0  0  0
   -1.4502   -4.3589   -2.4050 H   0  0  0  0  0  0  0  0  0  0  0  0
   -0.4726   -3.0342   -3.0431 H   0  0  0  0  0  0  0  0  0  0  0  0
   -3.5714    1.3943    0.4486 H   0  0  0  0  0  0  0  0  0  0  0  0
   -4.8817    2.2965   -0.2642 H   0  0  0  0  0  0  0  0  0  0  0  0
   -5.2204    2.4125    2.1383 H   0  0  0  0  0  0  0  0  0  0  0  0
   -4.5814    0.7766    2.3607 H   0  0  0  0  0  0  0  0  0  0  0  0
   -6.5837   -0.2532    2.1104 H   0  0  0  0  0  0  0  0  0  0  0  0
   -7.2954    1.3383    2.4871 H   0  0  0  0  0  0  0  0  0  0  0  0
   -8.2776    0.1284    0.6387 H   0  0  0  0  0  0  0  0  0  0  0  0
   -7.0788    2.8669    0.1077 H   0  0  0  0  0  0  0  0  0  0  0  0
   -8.3619    2.1830   -0.9098 H   0  0  0  0  0  0  0  0  0  0  0  0
   -9.0890    3.4860    0.6925 H   0  0  0  0  0  0  0  0  0  0  0  0
   -6.7165    0.5904   -1.6194 H   0  0  0  0  0  0  0  0  0  0  0  0
   -6.8785   -0.9641   -0.7017 H   0  0  0  0  0  0  0  0  0  0  0  0
    5.2965   -0.1428   -1.2048 H   0  0  0  0  0  0  0  0  0  0  0  0
  1  2  1  0
  2  3  1  0
  3  4  2  0
  4  5  1  0
  5  6  2  0
  4  7  1  0
  7  8  2  0
  8  9  1  0
  9 10  2  0
 10 11  1  0
 11 12  2  0
 12 13  1  0
 13 14  1  0
 14 15  1  0
 15 16  2  0
 15 17  1  0
 17 18  2  0
 18 19  1  0
 19 20  2  0
 20 21  1  0
 21 22  2  0
 22 23  1  0
 19 24  1  0
 24 25  1  0
 25 26  1  0
 26 27  1  0
 27 28  1  0
 28 29  1  0
 29 30  1  0
 28 31  1  0
 13 32  2  0
 32 33  1  0
 33 34  2  0
  6  2  1  0
 34  7  1  0
 33 10  1  0
 22 17  1  0
 31 24  1  0
  1 35  1  0
  1 36  1  0
  1 37  1  0
  3 38  1  0
  5 39  1  0
  8 40  1  0
  9 41  1  0
 11 42  1  0
 14 43  1  0
 18 44  1  0
 20 45  1  0
 21 46  1  0
 23 47  1  0
 23 48  1  0
 23 49  1  0
 25 50  1  0
 25 51  1  0
 26 52  1  0
 26 53  1  0
 27 54  1  0
 27 55  1  0
 28 56  1  0
 29 57  1  0
 29 58  1  0
 30 59  1  0
 31 60  1  0
 31 61  1  0
 34 62  1  0
M  END
$$$$
[H]C([H])=C([H])c1c([H])c([H])n2c(-c3c([H])c([H])c(Cl)c([H])c3[H])c(C(=O)N([H])C([H])([H])C([H])([H])N(C([H])([H])[H])C([H])([H])[H])c([H])c2c1[H]
     RDKit          3D

 48 50  0  0  0  0  0  0  0  0999 V2000
    6.5598    0.2982   -1.0538 C   0  0  0  0  0  0  0  0  0  0  0  0
    5.4850    0.6132   -0.1968 N   0  0  0  0  0  0  0  0  0  0  0  0
    5.7788    1.0269    1.1124 C   0  0  0  0  0  0  0  0  0  0  0  0
    4.2185    0.0743   -0.4963 C   0  0  0  0  0  0  0  0  0  0  0  0
    3.1853    0.5040    0.5051 C   0  0  0  0  0  0  0  0  0  0  0  0
    1.8592   -0.0344    0.2091 N   0  0  0  0  0  0  0  0  0  0  0  0
    0.7442    0.2420    1.0249 C   0  0  0  0  0  0  0  0  0  0  0  0
    0.8765    0.9548    2.0439 O   0  0  0  0  0  0  0  0  0  0  0  0
   -0.5657   -0.2924    0.7128 C   0  0  0  0  0  0  0  0  0  0  0  0
   -0.9555   -1.6131    0.9707 C   0  0  0  0  0  0  0  0  0  0  0  0
   -2.2327   -1.8278    0.5207 C   0  0  0  0  0  0  0  0  0  0  0  0
   -3.0068   -2.9946    0.5550 C   0  0  0  0  0  0  0  0  0  0  0  0
   -4.2694   -3.0076    0.0206 C   0  0  0  0  0  0  0  0  0  0  0  0
   -5.1340   -4.1752    0.0669 C   0  0  0  0  0  0  0  0  0  0  0  0
   -4.9895   -5.2121    0.8490 C   0  0  0  0  0  0  0  0  0  0  0  0
   -4.7081   -1.8269   -0.5388 C   0  0  0  0  0  0  0  0  0  0  0  0
   -3.8961   -0.7035   -0.5415 C   0  0  0  0  0  0  0  0  0  0  0  0
   -2.6583   -0.6717   -0.0172 N   0  0  0  0  0  0  0  0  0  0  0  0
   -1.6689    0.2746    0.0914 C   0  0  0  0  0  0  0  0  0  0  0  0
   -1.7744    1.6755   -0.3790 C   0  0  0  0  0  0  0  0  0  0  0  0
   -0.6999    2.4120   -0.7763 C   0  0  0  0  0  0  0  0  0  0  0  0
   -0.7926    3.7695   -1.0509 C   0  0  0  0  0  0  0  0  0  0  0  0
   -1.9720    4.4508   -0.9412 C   0  0  0  0  0  0  0  0  0  0  0  0
   -2.0740    6.1745   -1.2821 Cl  0  0  0  0  0  0  0  0  0  0  0  0
   -3.0636    3.7247   -0.5445 C   0  0  0  0  0  0  0  0  0  0  0  0
   -2.9748    2.3578   -0.2646 C   0  0  0  0  0  0  0  0  0  0  0  0
    6.7882    1.2178   -1.6703 H   0  0  0  0  0  0  0  0  0  0  0  0
    7.5129    0.0786   -0.5299 H   0  0  0  0  0  0  0  0  0  0  0  0
    6.3367   -0.5266   -1.7352 H   0  0  0  0  0  0  0  0  0  0  0  0
    5.6029    0.3010    1.9302 H   0  0  0  0  0  0  0  0  0  0  0  0
    5.2285    1.9760    1.3533 H   0  0  0  0  0  0  0  0  0  0  0  0
    6.8699    1.2922    1.1666 H   0  0  0  0  0  0  0  0  0  0  0  0
    4.2825   -1.0487   -0.5469 H   0  0  0  0  0  0  0  0  0  0  0  0
    3.9083    0.4108   -1.5001 H   0  0  0  0  0  0  0  0  0  0  0  0
    3.4974    0.1454    1.4964 H   0  0  0  0  0  0  0  0  0  0  0  0
    3.1120    1.6121    0.4832 H   0  0  0  0  0  0  0  0  0  0  0  0
    1.7478   -0.6396   -0.6384 H   0  0  0  0  0  0  0  0  0  0  0  0
   -0.3378   -2.3344    1.4465 H   0  0  0  0  0  0  0  0  0  0  0  0
   -2.6112   -3.9076    1.0108 H   0  0  0  0  0  0  0  0  0  0  0  0
   -5.9848   -4.1689   -0.6431 H   0  0  0  0  0  0  0  0  0  0  0  0
   -4.1213   -5.2001    1.5454 H   0  0  0  0  0  0  0  0  0  0  0  0
   -5.6287   -6.0592    0.8720 H   0  0  0  0  0  0  0  0  0  0  0  0
   -5.7073   -1.8003   -0.9765 H   0  0  0  0  0  0  0  0  0  0  0  0
   -4.2903    0.1725   -1.0412 H   0  0  0  0  0  0  0  0  0  0  0  0
    0.2632    1.9211   -0.9110 H   0  0  0  0  0  0  0  0  0  0  0  0
    0.1151    4.2823   -1.3551 H   0  0  0  0  0  0  0  0  0  0  0  0
   -4.0146    4.2366   -0.4483 H   0  0  0  0  0  0  0  0  0  0  0  0
   -3.8404    1.8453    0.0923 H   0  0  0  0  0  0  0  0  0  0  0  0
  1  2  1  0
  2  3  1  0
  2  4  1  0
  4  5  1  0
  5  6  1  0
  6  7  1  0
  7  8  2  0
  7  9  1  0
  9 10  1  0
 10 11  2  0
 11 12  1  0
 12 13  2  0
 13 14  1  0
 14 15  2  3
 13 16  1  0
 16 17  2  0
 17 18  1  0
 18 19  1  0
 19 20  1  0
 20 21  2  0
 21 22  1  0
 22 23  2  0
 23 24  1  0
 23 25  1  0
 25 26  2  0
 19  9  2  0
 26 20  1  0
 18 11  1  0
  1 27  1  0
  1 28  1  0
  1 29  1  0
  3 30  1  0
  3 31  1  0
  3 32  1  0
  4 33  1  0
  4 34  1  0
  5 35  1  0
  5 36  1  0
  6 37  1  0
 10 38  1  0
 12 39  1  0
 14 40  1  0
 15 41  1  0
 15 42  1  0
 16 43  1  0
 17 44  1  0
 21 45  1  0
 22 46  1  0
 25 47  1  0
 26 48  1  0
M  END
$$$$
[H]OC(=O)c1c([H])c(N([H])c2onc(C([H])([H])C([H])([H])N3C([H])([H])[C@@]([H])(C([H])([H])[H])C([H])([H])c4c([H])c([H])c([H])c([H])c4S3(=O)=O)c2[H])c([H])c(C(C([H])([H])[H])(C([H])([H])[H])C([H])([H])[H])c1[H]
     RDKit          3D

 66 69  0  0  0  0  0  0  0  0999 V2000
    4.8460   -1.1959    2.6180 C   0  0  0  0  0  0  0  0  0  0  0  0
    5.2554   -0.5934    1.2887 C   0  0  2  0  0  0  0  0  0  0  0  0
    4.7069   -1.4017    0.1297 C   0  0  0  0  0  0  0  0  0  0  0  0
    3.9397   -0.6044   -0.7768 N   0  0  0  0  0  0  0  0  0  0  0  0
    2.5612   -0.4656   -0.4726 C   0  0  0  0  0  0  0  0  0  0  0  0
    1.6168   -1.0097   -1.5212 C   0  0  0  0  0  0  0  0  0  0  0  0
    0.1950   -0.7819   -1.0690 C   0  0  0  0  0  0  0  0  0  0  0  0
   -0.5392   -1.6199   -0.2451 C   0  0  0  0  0  0  0  0  0  0  0  0
   -1.8088   -1.0183   -0.1065 C   0  0  0  0  0  0  0  0  0  0  0  0
   -2.8427   -1.5938    0.6784 N   0  0  0  0  0  0  0  0  0  0  0  0
   -4.1225   -1.0490    0.7881 C   0  0  0  0  0  0  0  0  0  0  0  0
   -4.6515   -0.1092   -0.0454 C   0  0  0  0  0  0  0  0  0  0  0  0
   -5.9449    0.4077    0.1311 C   0  0  0  0  0  0  0  0  0  0  0  0
   -6.6929   -0.0712    1.1994 C   0  0  0  0  0  0  0  0  0  0  0  0
   -6.1835   -1.0179    2.0556 C   0  0  0  0  0  0  0  0  0  0  0  0
   -4.9205   -1.4960    1.8502 C   0  0  0  0  0  0  0  0  0  0  0  0
   -7.0070   -1.4982    3.1552 C   0  0  0  0  0  0  0  0  0  0  0  0
   -8.2839   -1.0427    3.3449 O   0  0  0  0  0  0  0  0  0  0  0  0
   -6.5044   -2.3547    3.9347 O   0  0  0  0  0  0  0  0  0  0  0  0
   -6.4346    1.4089   -0.8067 C   0  0  0  0  0  0  0  0  0  0  0  0
   -6.4763    2.8120   -0.2227 C   0  0  0  0  0  0  0  0  0  0  0  0
   -5.5265    1.4490   -2.0276 C   0  0  0  0  0  0  0  0  0  0  0  0
   -7.8173    1.0943   -1.3450 C   0  0  0  0  0  0  0  0  0  0  0  0
   -1.7713    0.0596   -0.8003 O   0  0  0  0  0  0  0  0  0  0  0  0
   -0.6076    0.2371   -1.3834 N   0  0  0  0  0  0  0  0  0  0  0  0
    4.7265    0.7484   -1.3924 S   0  0  0  0  0  0  0  0  0  0  0  0
    4.1401    2.0381   -0.8368 O   0  0  0  0  0  0  0  0  0  0  0  0
    4.5605    0.8176   -2.8776 O   0  0  0  0  0  0  0  0  0  0  0  0
    6.4307    0.8036   -1.0301 C   0  0  0  0  0  0  0  0  0  0  0  0
    7.0805    1.5401   -1.9962 C   0  0  0  0  0  0  0  0  0  0  0  0
    8.4632    1.7431   -1.9540 C   0  0  0  0  0  0  0  0  0  0  0  0
    9.1994    1.2071   -0.9398 C   0  0  0  0  0  0  0  0  0  0  0  0
    8.5590    0.4717    0.0261 C   0  0  0  0  0  0  0  0  0  0  0  0
    7.1755    0.2668   -0.0137 C   0  0  0  0  0  0  0  0  0  0  0  0
    6.7514   -0.5457    1.1256 C   0  0  0  0  0  0  0  0  0  0  0  0
    4.3031   -2.1306    2.4033 H   0  0  0  0  0  0  0  0  0  0  0  0
    4.1310   -0.4934    3.1028 H   0  0  0  0  0  0  0  0  0  0  0  0
    5.6805   -1.3818    3.3027 H   0  0  0  0  0  0  0  0  0  0  0  0
    4.8901    0.4461    1.1725 H   0  0  0  0  0  0  0  0  0  0  0  0
    4.0589   -2.1918    0.5542 H   0  0  0  0  0  0  0  0  0  0  0  0
    5.5188   -1.8910   -0.4485 H   0  0  0  0  0  0  0  0  0  0  0  0
    2.3360    0.6380   -0.4063 H   0  0  0  0  0  0  0  0  0  0  0  0
    2.2728   -0.8570    0.5349 H   0  0  0  0  0  0  0  0  0  0  0  0
    1.7107   -0.4571   -2.4779 H   0  0  0  0  0  0  0  0  0  0  0  0
    1.7189   -2.0731   -1.7217 H   0  0  0  0  0  0  0  0  0  0  0  0
   -0.2287   -2.5416    0.2094 H   0  0  0  0  0  0  0  0  0  0  0  0
   -2.6387   -2.4942    1.2211 H   0  0  0  0  0  0  0  0  0  0  0  0
   -4.0777    0.2592   -0.8842 H   0  0  0  0  0  0  0  0  0  0  0  0
   -7.6871    0.3349    1.3131 H   0  0  0  0  0  0  0  0  0  0  0  0
   -4.5411   -2.2491    2.5530 H   0  0  0  0  0  0  0  0  0  0  0  0
   -9.0129   -1.6457    3.7484 H   0  0  0  0  0  0  0  0  0  0  0  0
   -6.8278    3.4999   -1.0476 H   0  0  0  0  0  0  0  0  0  0  0  0
   -7.1596    2.8594    0.6392 H   0  0  0  0  0  0  0  0  0  0  0  0
   -5.4244    3.0615    0.0719 H   0  0  0  0  0  0  0  0  0  0  0  0
   -4.5590    1.9320   -1.8315 H   0  0  0  0  0  0  0  0  0  0  0  0
   -6.0678    1.9760   -2.8608 H   0  0  0  0  0  0  0  0  0  0  0  0
   -5.4018    0.4146   -2.3996 H   0  0  0  0  0  0  0  0  0  0  0  0
   -7.9923    1.8086   -2.1762 H   0  0  0  0  0  0  0  0  0  0  0  0
   -7.8084    0.0772   -1.8435 H   0  0  0  0  0  0  0  0  0  0  0  0
   -8.6236    1.2190   -0.6290 H   0  0  0  0  0  0  0  0  0  0  0  0
    6.5695    2.0027   -2.8351 H   0  0  0  0  0  0  0  0  0  0  0  0
    8.9884    2.3284   -2.7228 H   0  0  0  0  0  0  0  0  0  0  0  0
   10.2874    1.3731   -0.9134 H   0  0  0  0  0  0  0  0  0  0  0  0
    9.1410    0.0387    0.8406 H   0  0  0  0  0  0  0  0  0  0  0  0
    7.2752   -0.2218    2.0744 H   0  0  0  0  0  0  0  0  0  0  0  0
    7.0961   -1.6156    0.9938 H   0  0  0  0  0  0  0  0  0  0  0  0
  1  2  1  0
  2  3  1  0
  3  4  1  0
  4  5  1  0
  5  6  1  0
  6  7  1  0
  7  8  1  0
  8  9  2  0
  9 10  1  0
 10 11  1  0
 11 12  2  0
 12 13  1  0
 13 14  2  0
 14 15  1  0
 15 16  2  0
 15 17  1  0
 17 18  1  0
 17 19  2  0
 13 20  1  0
 20 21  1  0
 20 22  1  0
 20 23  1  0
  9 24  1  0
 24 25  1  0
  4 26  1  0
 26 27  2  0
 26 28  2  0
 26 29  1  0
 29 30  2  0
 30 31  1  0
 31 32  2  0
 32 33  1  0
 33 34  2  0
 34 35  1  0
 35  2  1  0
 25  7  2  0
 34 29  1  0
 16 11  1  0
  1 36  1  0
  1 37  1  0
  1 38  1  0
  2 39  1  6
  3 40  1  0
  3 41  1  0
  5 42  1  0
  5 43  1  0
  6 44  1  0
  6 45  1  0
  8 46  1  0
 10 47  1  0
 12 48  1  0
 14 49  1  0
 16 50  1  0
 18 51  1  0
 21 52  1  0
 21 53  1  0
 21 54  1  0
 22 55  1  0
 22 56  1  0
 22 57  1  0
 23 58  1  0
 23 59  1  0
 23 60  1  0
 30 61  1  0
 31 62  1  0
 32 63  1  0
 33 64  1  0
 35 65  1  0
 35 66  1  0
M  END
$$$$
[H]c1c([H])c(C([H])([H])[C@@]([H])(C(=O)N2C([H])([H])C([H])([H])C([H])([H])C2([H])[H])N([H])C(=O)C([H])([H])[H])c([H])c([H])c1OC1(C(=O)N([H])C2([H])C([H])([H])C([H])([H])C([H])([H])C([H])([H])C2([H])[H])C([H])([H])C([H])([H])C([H])([H])C1([H])[H]
     RDKit          3D

 73 76  0  0  0  0  0  0  0  0999 V2000
    6.6014    2.8873    1.5386 C   0  0  0  0  0  0  0  0  0  0  0  0
    6.0253    2.0582    0.4658 C   0  0  0  0  0  0  0  0  0  0  0  0
    6.6210    2.1119   -0.6661 O   0  0  0  0  0  0  0  0  0  0  0  0
    4.8692    1.2266    0.6634 N   0  0  0  0  0  0  0  0  0  0  0  0
    4.4296    0.4236   -0.4447 C   0  0  1  0  0  0  0  0  0  0  0  0
    3.3121    1.0876   -1.2019 C   0  0  0  0  0  0  0  0  0  0  0  0
    2.0919    0.9996   -0.3934 C   0  0  0  0  0  0  0  0  0  0  0  0
    1.7587    1.7260    0.6737 C   0  0  0  0  0  0  0  0  0  0  0  0
    0.5087    1.5403    1.3379 C   0  0  0  0  0  0  0  0  0  0  0  0
   -0.3405    0.6122    0.8692 C   0  0  0  0  0  0  0  0  0  0  0  0
   -1.5937    0.3173    1.3853 O   0  0  0  0  0  0  0  0  0  0  0  0
   -2.7597    1.0298    0.9976 C   0  0  0  0  0  0  0  0  0  0  0  0
   -2.7879    1.2367   -0.5198 C   0  0  0  0  0  0  0  0  0  0  0  0
   -3.3346    2.6418   -0.7358 C   0  0  0  0  0  0  0  0  0  0  0  0
   -3.4299    3.3036    0.6036 C   0  0  0  0  0  0  0  0  0  0  0  0
   -3.0184    2.2906    1.6557 C   0  0  0  0  0  0  0  0  0  0  0  0
   -3.9234    0.0529    1.2658 C   0  0  0  0  0  0  0  0  0  0  0  0
   -3.6433   -0.9423    1.9300 O   0  0  0  0  0  0  0  0  0  0  0  0
   -5.1529    0.3371    0.7443 N   0  0  0  0  0  0  0  0  0  0  0  0
   -6.4442   -0.3407    0.7239 C   0  0  0  0  0  0  0  0  0  0  0  0
   -6.5035   -1.7024    1.3122 C   0  0  0  0  0  0  0  0  0  0  0  0
   -7.1938   -2.6379    0.2691 C   0  0  0  0  0  0  0  0  0  0  0  0
   -6.1314   -2.7065   -0.8431 C   0  0  0  0  0  0  0  0  0  0  0  0
   -6.1288   -1.3610   -1.5275 C   0  0  0  0  0  0  0  0  0  0  0  0
   -6.9170   -0.3353   -0.7335 C   0  0  0  0  0  0  0  0  0  0  0  0
   -0.0051   -0.1603   -0.2536 C   0  0  0  0  0  0  0  0  0  0  0  0
    1.1727    0.0304   -0.8601 C   0  0  0  0  0  0  0  0  0  0  0  0
    5.4831   -0.2030   -1.2151 C   0  0  0  0  0  0  0  0  0  0  0  0
    5.9288    0.1921   -2.2949 O   0  0  0  0  0  0  0  0  0  0  0  0
    6.0607   -1.4054   -0.6251 N   0  0  0  0  0  0  0  0  0  0  0  0
    6.9941   -2.3157   -1.2014 C   0  0  0  0  0  0  0  0  0  0  0  0
    6.8261   -3.6345   -0.4623 C   0  0  0  0  0  0  0  0  0  0  0  0
    6.3858   -3.2125    0.9069 C   0  0  0  0  0  0  0  0  0  0  0  0
    5.8604   -1.8278    0.7831 C   0  0  0  0  0  0  0  0  0  0  0  0
    6.9623    2.1499    2.3188 H   0  0  0  0  0  0  0  0  0  0  0  0
    7.5339    3.3943    1.1671 H   0  0  0  0  0  0  0  0  0  0  0  0
    5.8639    3.5538    1.9629 H   0  0  0  0  0  0  0  0  0  0  0  0
    4.4155    1.2347    1.5858 H   0  0  0  0  0  0  0  0  0  0  0  0
    3.9032   -0.4913    0.0882 H   0  0  0  0  0  0  0  0  0  0  0  0
    3.5366    2.2171   -1.2804 H   0  0  0  0  0  0  0  0  0  0  0  0
    3.1554    0.7126   -2.2114 H   0  0  0  0  0  0  0  0  0  0  0  0
    2.3868    2.4966    1.1082 H   0  0  0  0  0  0  0  0  0  0  0  0
    0.2800    2.1635    2.2200 H   0  0  0  0  0  0  0  0  0  0  0  0
   -1.7335    1.3113   -0.8651 H   0  0  0  0  0  0  0  0  0  0  0  0
   -3.3137    0.4561   -1.0615 H   0  0  0  0  0  0  0  0  0  0  0  0
   -4.2559    2.5884   -1.3144 H   0  0  0  0  0  0  0  0  0  0  0  0
   -2.6146    3.2514   -1.3563 H   0  0  0  0  0  0  0  0  0  0  0  0
   -2.7282    4.1795    0.6903 H   0  0  0  0  0  0  0  0  0  0  0  0
   -4.4326    3.6935    0.7576 H   0  0  0  0  0  0  0  0  0  0  0  0
   -3.7470    2.2474    2.4870 H   0  0  0  0  0  0  0  0  0  0  0  0
   -2.0716    2.6515    2.1659 H   0  0  0  0  0  0  0  0  0  0  0  0
   -5.2024    1.3237    0.2449 H   0  0  0  0  0  0  0  0  0  0  0  0
   -7.1435    0.2660    1.3181 H   0  0  0  0  0  0  0  0  0  0  0  0
   -5.6007   -2.1985    1.5943 H   0  0  0  0  0  0  0  0  0  0  0  0
   -7.1835   -1.7424    2.2231 H   0  0  0  0  0  0  0  0  0  0  0  0
   -7.2341   -3.6138    0.7804 H   0  0  0  0  0  0  0  0  0  0  0  0
   -8.1359   -2.2325   -0.0785 H   0  0  0  0  0  0  0  0  0  0  0  0
   -6.2684   -3.5494   -1.5019 H   0  0  0  0  0  0  0  0  0  0  0  0
   -5.1517   -2.8037   -0.3127 H   0  0  0  0  0  0  0  0  0  0  0  0
   -6.5922   -1.4675   -2.5086 H   0  0  0  0  0  0  0  0  0  0  0  0
   -5.0693   -1.0097   -1.6875 H   0  0  0  0  0  0  0  0  0  0  0  0
   -7.9769   -0.4511   -0.8443 H   0  0  0  0  0  0  0  0  0  0  0  0
   -6.6147    0.6659   -1.1292 H   0  0  0  0  0  0  0  0  0  0  0  0
   -0.7149   -0.8812   -0.5985 H   0  0  0  0  0  0  0  0  0  0  0  0
    1.4865   -0.5405   -1.7502 H   0  0  0  0  0  0  0  0  0  0  0  0
    6.7368   -2.5230   -2.2767 H   0  0  0  0  0  0  0  0  0  0  0  0
    8.0467   -2.0053   -1.0747 H   0  0  0  0  0  0  0  0  0  0  0  0
    6.0109   -4.2383   -0.9242 H   0  0  0  0  0  0  0  0  0  0  0  0
    7.7808   -4.1722   -0.4186 H   0  0  0  0  0  0  0  0  0  0  0  0
    5.5778   -3.8997    1.2687 H   0  0  0  0  0  0  0  0  0  0  0  0
    7.2078   -3.2214    1.6664 H   0  0  0  0  0  0  0  0  0  0  0  0
    4.8139   -1.7305    1.0520 H   0  0  0  0  0  0  0  0  0  0  0  0
    6.4652   -1.1054    1.4336 H   0  0  0  0  0  0  0  0  0  0  0  0
  1  2  1  0
  2  3  2  0
  2  4  1  0
  4  5  1  0
  5  6  1  0
  6  7  1  0
  7  8  2  0
  8  9  1  0
  9 10  2  0
 10 11  1  0
 11 12  1  0
 12 13  1  0
 13 14  1  0
 14 15  1  0
 15 16  1  0
 12 17  1  0
 17 18  2  0
 17 19  1  0
 19 20  1  0
 20 21  1  0
 21 22  1  0
 22 23  1  0
 23 24  1  0
 24 25  1  0
 10 26  1  0
 26 27  2  0
  5 28  1  0
 28 29  2  0
 28 30  1  0
 30 31  1  0
 31 32  1  0
 32 33  1  0
 33 34  1  0
 27  7  1  0
 34 30  1  0
 16 12  1  0
 25 20  1  0
  1 35  1  0
  1 36  1  0
  1 37  1  0
  4 38  1  0
  5 39  1  1
  6 40  1  0
  6 41  1  0
  8 42  1  0
  9 43  1  0
 13 44  1  0
 13 45  1  0
 14 46  1  0
 14 47  1  0
 15 48  1  0
 15 49  1  0
 16 50  1  0
 16 51  1  0
 19 52  1  0
 20 53  1  0
 21 54  1  0
 21 55  1  0
 22 56  1  0
 22 57  1  0
 23 58  1  0
 23 59  1  0
 24 60  1  0
 24 61  1  0
 25 62  1  0
 25 63  1  0
 26 64  1  0
 27 65  1  0
 31 66  1  0
 31 67  1  0
 32 68  1  0
 32 69  1  0
 33 70  1  0
 33 71  1  0
 34 72  1  0
 34 73  1  0
M  END
$$$$
[H]c1c([H])c([H])c(C([H])([H])C([H])([H])N([H])[H])c(C(=O)N2C([H])([H])c3c([H])c([H])c([H])c([H])c3C([H])([H])C2([H])[H])c1[H]
     RDKit          3D

 41 43  0  0  0  0  0  0  0  0999 V2000
   -3.1316    0.8527   -2.2662 N   0  0  0  0  0  0  0  0  0  0  0  0
   -2.7572    1.4748   -1.0048 C   0  0  0  0  0  0  0  0  0  0  0  0
   -3.2424    0.7357    0.1810 C   0  0  0  0  0  0  0  0  0  0  0  0
   -2.8326   -0.6337    0.3825 C   0  0  0  0  0  0  0  0  0  0  0  0
   -3.7203   -1.6688    0.0222 C   0  0  0  0  0  0  0  0  0  0  0  0
   -3.4420   -2.9912    0.1801 C   0  0  0  0  0  0  0  0  0  0  0  0
   -2.2274   -3.3575    0.7216 C   0  0  0  0  0  0  0  0  0  0  0  0
   -1.3281   -2.3934    1.0887 C   0  0  0  0  0  0  0  0  0  0  0  0
   -1.6437   -1.0271    0.9130 C   0  0  0  0  0  0  0  0  0  0  0  0
   -0.6633   -0.0228    1.2974 C   0  0  0  0  0  0  0  0  0  0  0  0
   -0.7701    0.5308    2.4205 O   0  0  0  0  0  0  0  0  0  0  0  0
    0.4183    0.3634    0.4677 N   0  0  0  0  0  0  0  0  0  0  0  0
    1.3614    1.3791    0.9001 C   0  0  0  0  0  0  0  0  0  0  0  0
    2.7166    1.1501    0.3361 C   0  0  0  0  0  0  0  0  0  0  0  0
    3.6983    2.0909    0.5576 C   0  0  0  0  0  0  0  0  0  0  0  0
    4.9739    1.9333    0.0596 C   0  0  0  0  0  0  0  0  0  0  0  0
    5.2903    0.8162   -0.6777 C   0  0  0  0  0  0  0  0  0  0  0  0
    4.2968   -0.1232   -0.8947 C   0  0  0  0  0  0  0  0  0  0  0  0
    3.0220    0.0197   -0.4053 C   0  0  0  0  0  0  0  0  0  0  0  0
    1.9854   -1.0114   -0.6622 C   0  0  0  0  0  0  0  0  0  0  0  0
    0.6816   -0.2187   -0.8410 C   0  0  0  0  0  0  0  0  0  0  0  0
   -2.3376    1.0543   -2.9317 H   0  0  0  0  0  0  0  0  0  0  0  0
   -3.9775    1.2416   -2.6928 H   0  0  0  0  0  0  0  0  0  0  0  0
   -3.3444    2.4552   -1.0119 H   0  0  0  0  0  0  0  0  0  0  0  0
   -1.7118    1.8223   -0.9773 H   0  0  0  0  0  0  0  0  0  0  0  0
   -4.3782    0.7728    0.1281 H   0  0  0  0  0  0  0  0  0  0  0  0
   -3.0375    1.4025    1.0716 H   0  0  0  0  0  0  0  0  0  0  0  0
   -4.6848   -1.3927   -0.4074 H   0  0  0  0  0  0  0  0  0  0  0  0
   -4.1183   -3.7864   -0.0940 H   0  0  0  0  0  0  0  0  0  0  0  0
   -1.9308   -4.3904    0.8795 H   0  0  0  0  0  0  0  0  0  0  0  0
   -0.3769   -2.6536    1.5126 H   0  0  0  0  0  0  0  0  0  0  0  0
    0.9880    2.3445    0.4670 H   0  0  0  0  0  0  0  0  0  0  0  0
    1.3841    1.4887    2.0050 H   0  0  0  0  0  0  0  0  0  0  0  0
    3.4602    2.9878    1.1448 H   0  0  0  0  0  0  0  0  0  0  0  0
    5.7555    2.6531    0.2188 H   0  0  0  0  0  0  0  0  0  0  0  0
    6.2897    0.6497   -1.0929 H   0  0  0  0  0  0  0  0  0  0  0  0
    4.4874   -1.0346   -1.4747 H   0  0  0  0  0  0  0  0  0  0  0  0
    2.1511   -1.5915   -1.5714 H   0  0  0  0  0  0  0  0  0  0  0  0
    1.8973   -1.6741    0.2473 H   0  0  0  0  0  0  0  0  0  0  0  0
   -0.1305   -0.8439   -1.2041 H   0  0  0  0  0  0  0  0  0  0  0  0
    0.9289    0.5957   -1.5567 H   0  0  0  0  0  0  0  0  0  0  0  0
  1  2  1  0
  2  3  1  0
  3  4  1  0
  4  5  2  0
  5  6  1  0
  6  7  2  0
  7  8  1  0
  8  9  2  0
  9 10  1  0
 10 11  2  0
 10 12  1  0
 12 13  1  0
 13 14  1  0
 14 15  2  0
 15 16  1  0
 16 17  2  0
 17 18  1  0
 18 19  2  0
 19 20  1  0
 20 21  1  0
  9  4  1  0
 21 12  1  0
 19 14  1  0
  1 22  1  0
  1 23  1  0
  2 24  1  0
  2 25  1  0
  3 26  1  0
  3 27  1  0
  5 28  1  0
  6 29  1  0
  7 30  1  0
  8 31  1  0
 13 32  1  0
 13 33  1  0
 15 34  1  0
 16 35  1  0
 17 36  1  0
 18 37  1  0
 20 38  1  0
 20 39  1  0
 21 40  1  0
 21 41  1  0
M  END
$$$$
[H]c1c([H])c(C([H])([H])[C@@]([H])(N2C([H])([H])C([H])([H])N(c3nnnn3C([H])([H])[H])C([H])([H])C2([H])[H])N(C([H])([H])C([H])([H])[H])C([H])([H])C([H])([H])C([H])([H])C([H])([H])[H])c([H])c(Cl)c1Cl
     RDKit          3D

 60 62  0  0  0  0  0  0  0  0999 V2000
   -3.6715   -4.9106    0.6126 C   0  0  0  0  0  0  0  0  0  0  0  0
   -3.3454   -3.4570    1.0323 C   0  0  0  0  0  0  0  0  0  0  0  0
   -2.9901   -2.6571   -0.1626 C   0  0  0  0  0  0  0  0  0  0  0  0
   -2.7035   -1.2393   -0.0635 C   0  0  0  0  0  0  0  0  0  0  0  0
   -1.6555   -0.7021    0.7516 N   0  0  0  0  0  0  0  0  0  0  0  0
   -1.9317   -0.6448    2.1164 C   0  0  0  0  0  0  0  0  0  0  0  0
   -3.0717    0.3170    2.4845 C   0  0  0  0  0  0  0  0  0  0  0  0
   -0.9198    0.3374    0.0868 C   0  0  1  0  0  0  0  0  0  0  0  0
   -1.6290    1.6079   -0.0816 C   0  0  0  0  0  0  0  0  0  0  0  0
   -0.9999    2.7230   -0.7968 C   0  0  0  0  0  0  0  0  0  0  0  0
   -1.3378    2.9504   -2.1254 C   0  0  0  0  0  0  0  0  0  0  0  0
   -0.7487    3.9900   -2.7999 C   0  0  0  0  0  0  0  0  0  0  0  0
    0.1721    4.8315   -2.2177 C   0  0  0  0  0  0  0  0  0  0  0  0
    0.9050    6.1549   -3.1296 Cl  0  0  0  0  0  0  0  0  0  0  0  0
    0.4969    4.5965   -0.9041 C   0  0  0  0  0  0  0  0  0  0  0  0
    1.6645    5.6496   -0.1468 Cl  0  0  0  0  0  0  0  0  0  0  0  0
   -0.0784    3.5590   -0.2026 C   0  0  0  0  0  0  0  0  0  0  0  0
    0.4782    0.2835    0.1884 N   0  0  0  0  0  0  0  0  0  0  0  0
    1.2611    0.6302   -0.9374 C   0  0  0  0  0  0  0  0  0  0  0  0
    2.0870   -0.6369   -1.3121 C   0  0  0  0  0  0  0  0  0  0  0  0
    2.9922   -0.7933   -0.1790 N   0  0  0  0  0  0  0  0  0  0  0  0
    2.6089   -0.4249    1.1413 C   0  0  0  0  0  0  0  0  0  0  0  0
    1.1331   -0.1574    1.3340 C   0  0  0  0  0  0  0  0  0  0  0  0
    4.2840   -1.3083   -0.4185 C   0  0  0  0  0  0  0  0  0  0  0  0
    4.6064   -2.6203   -0.5290 N   0  0  0  0  0  0  0  0  0  0  0  0
    5.9072   -2.6605   -0.7471 N   0  0  0  0  0  0  0  0  0  0  0  0
    6.3898   -1.4307   -0.7744 N   0  0  0  0  0  0  0  0  0  0  0  0
    5.4115   -0.5816   -0.5743 N   0  0  0  0  0  0  0  0  0  0  0  0
    5.4308    0.8843   -0.5012 C   0  0  0  0  0  0  0  0  0  0  0  0
   -2.7339   -5.4011    0.3595 H   0  0  0  0  0  0  0  0  0  0  0  0
   -4.1149   -5.3907    1.4952 H   0  0  0  0  0  0  0  0  0  0  0  0
   -4.3992   -4.9163   -0.2280 H   0  0  0  0  0  0  0  0  0  0  0  0
   -2.4541   -3.6280    1.7140 H   0  0  0  0  0  0  0  0  0  0  0  0
   -4.2088   -3.0376    1.5642 H   0  0  0  0  0  0  0  0  0  0  0  0
   -3.8716   -2.8479   -0.8957 H   0  0  0  0  0  0  0  0  0  0  0  0
   -2.1687   -3.2197   -0.7491 H   0  0  0  0  0  0  0  0  0  0  0  0
   -2.4742   -0.8668   -1.1174 H   0  0  0  0  0  0  0  0  0  0  0  0
   -3.6867   -0.6821    0.1348 H   0  0  0  0  0  0  0  0  0  0  0  0
   -2.2634   -1.6164    2.5097 H   0  0  0  0  0  0  0  0  0  0  0  0
   -1.0440   -0.3961    2.7240 H   0  0  0  0  0  0  0  0  0  0  0  0
   -3.6413    0.6729    1.6348 H   0  0  0  0  0  0  0  0  0  0  0  0
   -3.7288   -0.1392    3.2856 H   0  0  0  0  0  0  0  0  0  0  0  0
   -2.6004    1.1727    2.9978 H   0  0  0  0  0  0  0  0  0  0  0  0
   -1.0296   -0.0965   -1.0575 H   0  0  0  0  0  0  0  0  0  0  0  0
   -2.6582    1.5062   -0.5079 H   0  0  0  0  0  0  0  0  0  0  0  0
   -1.8588    2.0639    0.9540 H   0  0  0  0  0  0  0  0  0  0  0  0
   -2.0691    2.3051   -2.6321 H   0  0  0  0  0  0  0  0  0  0  0  0
   -1.0177    4.1631   -3.8486 H   0  0  0  0  0  0  0  0  0  0  0  0
    0.1821    3.3755    0.8422 H   0  0  0  0  0  0  0  0  0  0  0  0
    2.0659    1.3949   -0.7404 H   0  0  0  0  0  0  0  0  0  0  0  0
    0.6681    0.9045   -1.7931 H   0  0  0  0  0  0  0  0  0  0  0  0
    1.3999   -1.4832   -1.4048 H   0  0  0  0  0  0  0  0  0  0  0  0
    2.6745   -0.3831   -2.1851 H   0  0  0  0  0  0  0  0  0  0  0  0
    3.2488    0.4384    1.4841 H   0  0  0  0  0  0  0  0  0  0  0  0
    2.9269   -1.2605    1.8465 H   0  0  0  0  0  0  0  0  0  0  0  0
    0.7241   -1.1767    1.6224 H   0  0  0  0  0  0  0  0  0  0  0  0
    0.9786    0.4869    2.2371 H   0  0  0  0  0  0  0  0  0  0  0  0
    4.5710    1.3324   -1.0279 H   0  0  0  0  0  0  0  0  0  0  0  0
    6.4032    1.2061   -0.9222 H   0  0  0  0  0  0  0  0  0  0  0  0
    5.4347    1.2289    0.5595 H   0  0  0  0  0  0  0  0  0  0  0  0
  1  2  1  0
  2  3  1  0
  3  4  1  0
  4  5  1  0
  5  6  1  0
  6  7  1  0
  5  8  1  0
  8  9  1  0
  9 10  1  0
 10 11  2  0
 11 12  1  0
 12 13  2  0
 13 14  1  0
 13 15  1  0
 15 16  1  0
 15 17  2  0
  8 18  1  0
 18 19  1  0
 19 20  1  0
 20 21  1  0
 21 22  1  0
 22 23  1  0
 21 24  1  0
 24 25  2  0
 25 26  1  0
 26 27  2  0
 27 28  1  0
 28 29  1  0
 17 10  1  0
 23 18  1  0
 28 24  1  0
  1 30  1  0
  1 31  1  0
  1 32  1  0
  2 33  1  0
  2 34  1  0
  3 35  1  0
  3 36  1  0
  4 37  1  0
  4 38  1  0
  6 39  1  0
  6 40  1  0
  7 41  1  0
  7 42  1  0
  7 43  1  0
  8 44  1  6
  9 45  1  0
  9 46  1  0
 11 47  1  0
 12 48  1  0
 17 49  1  0
 19 50  1  0
 19 51  1  0
 20 52  1  0
 20 53  1  0
 22 54  1  0
 22 55  1  0
 23 56  1  0
 23 57  1  0
 29 58  1  0
 29 59  1  0
 29 60  1  0
M  END
$$$$
[H]Oc1c([H])c([H])c(-c2c(OC([H])([H])[H])nc(N([H])[H])nc2N([H])[H])c([H])c1[H]
     RDKit          3D

 29 30  0  0  0  0  0  0  0  0999 V2000
   -1.7768   -2.2899   -1.8746 C   0  0  0  0  0  0  0  0  0  0  0  0
   -0.8615   -1.5174   -1.1257 O   0  0  0  0  0  0  0  0  0  0  0  0
   -1.3182   -0.2872   -0.6789 C   0  0  0  0  0  0  0  0  0  0  0  0
   -2.5541    0.1895   -0.9264 N   0  0  0  0  0  0  0  0  0  0  0  0
   -2.9676    1.3873   -0.4802 C   0  0  0  0  0  0  0  0  0  0  0  0
   -4.2810    1.8554   -0.7627 N   0  0  0  0  0  0  0  0  0  0  0  0
   -2.1086    2.1316    0.2401 N   0  0  0  0  0  0  0  0  0  0  0  0
   -0.8460    1.6956    0.5190 C   0  0  0  0  0  0  0  0  0  0  0  0
    0.0720    2.4678    1.2762 N   0  0  0  0  0  0  0  0  0  0  0  0
   -0.4382    0.4707    0.0564 C   0  0  0  0  0  0  0  0  0  0  0  0
    0.8804   -0.0358    0.3328 C   0  0  0  0  0  0  0  0  0  0  0  0
    1.8942    0.0099   -0.6126 C   0  0  0  0  0  0  0  0  0  0  0  0
    3.1504   -0.4730   -0.3781 C   0  0  0  0  0  0  0  0  0  0  0  0
    3.4670   -1.0308    0.8184 C   0  0  0  0  0  0  0  0  0  0  0  0
    4.7107   -1.5403    1.1330 O   0  0  0  0  0  0  0  0  0  0  0  0
    2.4747   -1.0900    1.7830 C   0  0  0  0  0  0  0  0  0  0  0  0
    1.2142   -0.6043    1.5439 C   0  0  0  0  0  0  0  0  0  0  0  0
   -2.2597   -3.0571   -1.1960 H   0  0  0  0  0  0  0  0  0  0  0  0
   -1.2768   -2.9019   -2.6508 H   0  0  0  0  0  0  0  0  0  0  0  0
   -2.6084   -1.7169   -2.2988 H   0  0  0  0  0  0  0  0  0  0  0  0
   -4.8935    1.3705   -1.4421 H   0  0  0  0  0  0  0  0  0  0  0  0
   -4.6674    2.6978   -0.2976 H   0  0  0  0  0  0  0  0  0  0  0  0
    0.5797    3.2867    0.9130 H   0  0  0  0  0  0  0  0  0  0  0  0
    0.2348    2.1799    2.2626 H   0  0  0  0  0  0  0  0  0  0  0  0
    1.6492    0.4503   -1.5589 H   0  0  0  0  0  0  0  0  0  0  0  0
    3.9117   -0.4122   -1.1644 H   0  0  0  0  0  0  0  0  0  0  0  0
    5.4791   -1.0614    1.5414 H   0  0  0  0  0  0  0  0  0  0  0  0
    2.7076   -1.5287    2.7378 H   0  0  0  0  0  0  0  0  0  0  0  0
    0.4319   -0.6461    2.2901 H   0  0  0  0  0  0  0  0  0  0  0  0
  1  2  1  0
  2  3  1  0
  3  4  2  0
  4  5  1  0
  5  6  1  0
  5  7  2  0
  7  8  1  0
  8  9  1  0
  8 10  2  0
 10 11  1  0
 11 12  2  0
 12 13  1  0
 13 14  2  0
 14 15  1  0
 14 16  1  0
 16 17  2  0
 10  3  1  0
 17 11  1  0
  1 18  1  0
  1 19  1  0
  1 20  1  0
  6 21  1  0
  6 22  1  0
  9 23  1  0
  9 24  1  0
 12 25  1  0
 13 26  1  0
 15 27  1  0
 16 28  1  0
 17 29  1  0
M  END
$$$$
[H]c1c(-c2c([H])c([H])c([H])c([H])c2[H])nc(C([H])([H])Oc2c([H])c([H])c([H])c3nc(C(C([H])([H])[H])(C([H])([H])[H])C([H])([H])[H])n([H])c23)c([H])c1[H]
     RDKit          3D

 50 53  0  0  0  0  0  0  0  0999 V2000
   -6.2991    0.8718    0.9522 C   0  0  0  0  0  0  0  0  0  0  0  0
   -5.4228    0.8652   -0.3083 C   0  0  0  0  0  0  0  0  0  0  0  0
   -4.7743    2.1914   -0.5093 C   0  0  0  0  0  0  0  0  0  0  0  0
   -6.2687    0.5451   -1.4971 C   0  0  0  0  0  0  0  0  0  0  0  0
   -4.3995   -0.2161   -0.0769 C   0  0  0  0  0  0  0  0  0  0  0  0
   -4.6429   -1.5084    0.2046 N   0  0  0  0  0  0  0  0  0  0  0  0
   -3.4948   -2.1897    0.3531 C   0  0  0  0  0  0  0  0  0  0  0  0
   -3.1466   -3.4971    0.6385 C   0  0  0  0  0  0  0  0  0  0  0  0
   -1.8486   -3.9352    0.7367 C   0  0  0  0  0  0  0  0  0  0  0  0
   -0.8300   -3.0126    0.5356 C   0  0  0  0  0  0  0  0  0  0  0  0
   -1.1499   -1.6827    0.2446 C   0  0  0  0  0  0  0  0  0  0  0  0
   -0.1793   -0.7167    0.0326 O   0  0  0  0  0  0  0  0  0  0  0  0
    1.1796   -1.1134    0.1317 C   0  0  0  0  0  0  0  0  0  0  0  0
    2.0904    0.0015   -0.1539 C   0  0  0  0  0  0  0  0  0  0  0  0
    1.5689    1.1789   -0.5840 C   0  0  0  0  0  0  0  0  0  0  0  0
    2.3785    2.2535   -0.8777 C   0  0  0  0  0  0  0  0  0  0  0  0
    3.7577    2.0607   -0.7090 C   0  0  0  0  0  0  0  0  0  0  0  0
    4.2726    0.8782   -0.2793 C   0  0  0  0  0  0  0  0  0  0  0  0
    3.4141   -0.1422   -0.0068 N   0  0  0  0  0  0  0  0  0  0  0  0
    5.7101    0.6752   -0.1215 C   0  0  0  0  0  0  0  0  0  0  0  0
    6.6253    1.6757   -0.3533 C   0  0  0  0  0  0  0  0  0  0  0  0
    7.9788    1.4498   -0.1999 C   0  0  0  0  0  0  0  0  0  0  0  0
    8.4551    0.2265    0.1885 C   0  0  0  0  0  0  0  0  0  0  0  0
    7.5158   -0.7712    0.4194 C   0  0  0  0  0  0  0  0  0  0  0  0
    6.1742   -0.5594    0.2699 C   0  0  0  0  0  0  0  0  0  0  0  0
   -2.4651   -1.2758    0.1538 C   0  0  0  0  0  0  0  0  0  0  0  0
   -3.0625   -0.0920   -0.1042 N   0  0  0  0  0  0  0  0  0  0  0  0
   -7.1126    1.5930    0.8802 H   0  0  0  0  0  0  0  0  0  0  0  0
   -5.6815    1.0338    1.8536 H   0  0  0  0  0  0  0  0  0  0  0  0
   -6.6857   -0.1839    1.0315 H   0  0  0  0  0  0  0  0  0  0  0  0
   -3.7914    2.3172   -0.0100 H   0  0  0  0  0  0  0  0  0  0  0  0
   -4.6744    2.3820   -1.6103 H   0  0  0  0  0  0  0  0  0  0  0  0
   -5.4962    2.9863   -0.1620 H   0  0  0  0  0  0  0  0  0  0  0  0
   -7.2999    0.8978   -1.2807 H   0  0  0  0  0  0  0  0  0  0  0  0
   -5.9250    1.1494   -2.3640 H   0  0  0  0  0  0  0  0  0  0  0  0
   -6.2452   -0.5161   -1.7803 H   0  0  0  0  0  0  0  0  0  0  0  0
   -3.9345   -4.2265    0.7917 H   0  0  0  0  0  0  0  0  0  0  0  0
   -1.5401   -4.9428    0.9551 H   0  0  0  0  0  0  0  0  0  0  0  0
    0.2211   -3.2460    0.5822 H   0  0  0  0  0  0  0  0  0  0  0  0
    1.3484   -1.5087    1.1692 H   0  0  0  0  0  0  0  0  0  0  0  0
    1.4019   -1.9627   -0.5458 H   0  0  0  0  0  0  0  0  0  0  0  0
    0.4743    1.2880   -0.7001 H   0  0  0  0  0  0  0  0  0  0  0  0
    2.0137    3.1995   -1.2134 H   0  0  0  0  0  0  0  0  0  0  0  0
    4.4057    2.9192   -0.9437 H   0  0  0  0  0  0  0  0  0  0  0  0
    6.3056    2.6848   -0.6655 H   0  0  0  0  0  0  0  0  0  0  0  0
    8.7034    2.2394   -0.3851 H   0  0  0  0  0  0  0  0  0  0  0  0
    9.5144    0.0444    0.3042 H   0  0  0  0  0  0  0  0  0  0  0  0
    7.9255   -1.7343    0.7195 H   0  0  0  0  0  0  0  0  0  0  0  0
    5.4528   -1.3410    0.4492 H   0  0  0  0  0  0  0  0  0  0  0  0
   -2.5170    0.7665   -0.2918 H   0  0  0  0  0  0  0  0  0  0  0  0
  1  2  1  0
  2  3  1  0
  2  4  1  0
  2  5  1  0
  5  6  2  0
  6  7  1  0
  7  8  2  0
  8  9  1  0
  9 10  2  0
 10 11  1  0
 11 12  1  0
 12 13  1  0
 13 14  1  0
 14 15  2  0
 15 16  1  0
 16 17  2  0
 17 18  1  0
 18 19  2  0
 18 20  1  0
 20 21  2  0
 21 22  1  0
 22 23  2  0
 23 24  1  0
 24 25  2  0
 11 26  2  0
 26 27  1  0
 27  5  1  0
 26  7  1  0
 19 14  1  0
 25 20  1  0
  1 28  1  0
  1 29  1  0
  1 30  1  0
  3 31  1  0
  3 32  1  0
  3 33  1  0
  4 34  1  0
  4 35  1  0
  4 36  1  0
  8 37  1  0
  9 38  1  0
 10 39  1  0
 13 40  1  0
 13 41  1  0
 15 42  1  0
 16 43  1  0
 17 44  1  0
 21 45  1  0
 22 46  1  0
 23 47  1  0
 24 48  1  0
 25 49  1  0
 27 50  1  0
M  END
$$$$
[H]c1nc(-c2nnn([H])n2)c([H])c(C(=O)N([H])[C@]2([H])C([H])([H])N(C([H])([H])C([H])([H])N3C([H])([H])C([H])([H])C([H])([H])C3([H])[H])C([H])([H])C([H])([H])C2([H])[H])c1[H]
     RDKit          3D

 53 56  0  0  0  0  0  0  0  0999 V2000
    3.1052    0.3480    1.4666 O   0  0  0  0  0  0  0  0  0  0  0  0
    2.9194   -0.0242    0.2736 C   0  0  0  0  0  0  0  0  0  0  0  0
    1.6464    0.1706   -0.3063 N   0  0  0  0  0  0  0  0  0  0  0  0
    0.5763    0.7923    0.4754 C   0  0  1  0  0  0  0  0  0  0  0  0
    0.2421    2.0892   -0.2395 C   0  0  0  0  0  0  0  0  0  0  0  0
   -0.7568    2.8227    0.6158 C   0  0  0  0  0  0  0  0  0  0  0  0
   -1.7184    1.9182    1.3333 C   0  0  0  0  0  0  0  0  0  0  0  0
   -1.8591    0.6300    0.7216 N   0  0  0  0  0  0  0  0  0  0  0  0
   -2.7402    0.5730   -0.3861 C   0  0  0  0  0  0  0  0  0  0  0  0
   -4.1892    0.7765   -0.0638 C   0  0  0  0  0  0  0  0  0  0  0  0
   -4.7376   -0.1810    0.8430 N   0  0  0  0  0  0  0  0  0  0  0  0
   -4.8315   -1.5166    0.2791 C   0  0  0  0  0  0  0  0  0  0  0  0
   -5.8077   -1.3447   -0.8696 C   0  0  0  0  0  0  0  0  0  0  0  0
   -6.7097   -0.2583   -0.3538 C   0  0  0  0  0  0  0  0  0  0  0  0
   -6.1500    0.1350    1.0188 C   0  0  0  0  0  0  0  0  0  0  0  0
   -0.6391   -0.0756    0.5052 C   0  0  0  0  0  0  0  0  0  0  0  0
    4.0396   -0.6404   -0.4474 C   0  0  0  0  0  0  0  0  0  0  0  0
    3.8801   -1.1834   -1.6997 C   0  0  0  0  0  0  0  0  0  0  0  0
    4.9540   -1.7541   -2.3567 C   0  0  0  0  0  0  0  0  0  0  0  0
    6.1553   -1.7748   -1.7632 N   0  0  0  0  0  0  0  0  0  0  0  0
    6.3498   -1.2548   -0.5411 C   0  0  0  0  0  0  0  0  0  0  0  0
    5.2896   -0.6826    0.1267 C   0  0  0  0  0  0  0  0  0  0  0  0
    7.6602   -1.2848    0.0902 C   0  0  0  0  0  0  0  0  0  0  0  0
    8.7833   -1.8165   -0.4568 N   0  0  0  0  0  0  0  0  0  0  0  0
    9.7727   -1.6568    0.4103 N   0  0  0  0  0  0  0  0  0  0  0  0
    9.3073   -1.0393    1.4904 N   0  0  0  0  0  0  0  0  0  0  0  0
    8.0262   -0.8189    1.2855 N   0  0  0  0  0  0  0  0  0  0  0  0
    1.4937   -0.1339   -1.2877 H   0  0  0  0  0  0  0  0  0  0  0  0
    0.9454    1.0260    1.4793 H   0  0  0  0  0  0  0  0  0  0  0  0
   -0.1368    1.9228   -1.2480 H   0  0  0  0  0  0  0  0  0  0  0  0
    1.1757    2.7184   -0.3215 H   0  0  0  0  0  0  0  0  0  0  0  0
   -0.1504    3.4166    1.3611 H   0  0  0  0  0  0  0  0  0  0  0  0
   -1.2562    3.5791   -0.0200 H   0  0  0  0  0  0  0  0  0  0  0  0
   -1.3154    1.7591    2.3570 H   0  0  0  0  0  0  0  0  0  0  0  0
   -2.7165    2.3509    1.4605 H   0  0  0  0  0  0  0  0  0  0  0  0
   -2.6427   -0.4380   -0.8513 H   0  0  0  0  0  0  0  0  0  0  0  0
   -2.4460    1.2904   -1.1717 H   0  0  0  0  0  0  0  0  0  0  0  0
   -4.7488    0.6805   -1.0348 H   0  0  0  0  0  0  0  0  0  0  0  0
   -4.4347    1.7833    0.3098 H   0  0  0  0  0  0  0  0  0  0  0  0
   -5.3490   -2.1443    1.0390 H   0  0  0  0  0  0  0  0  0  0  0  0
   -3.8762   -1.9395   -0.0230 H   0  0  0  0  0  0  0  0  0  0  0  0
   -6.3483   -2.3191   -1.0326 H   0  0  0  0  0  0  0  0  0  0  0  0
   -5.3293   -1.1094   -1.8191 H   0  0  0  0  0  0  0  0  0  0  0  0
   -6.7834    0.6218   -1.0143 H   0  0  0  0  0  0  0  0  0  0  0  0
   -7.7146   -0.7133   -0.1485 H   0  0  0  0  0  0  0  0  0  0  0  0
   -6.5298   -0.5521    1.8158 H   0  0  0  0  0  0  0  0  0  0  0  0
   -6.3057    1.1870    1.2516 H   0  0  0  0  0  0  0  0  0  0  0  0
   -0.7156   -0.6650   -0.4328 H   0  0  0  0  0  0  0  0  0  0  0  0
   -0.5336   -0.8285    1.3284 H   0  0  0  0  0  0  0  0  0  0  0  0
    2.9350   -1.1895   -2.2134 H   0  0  0  0  0  0  0  0  0  0  0  0
    4.8611   -2.1883   -3.3433 H   0  0  0  0  0  0  0  0  0  0  0  0
    5.4507   -0.2661    1.1075 H   0  0  0  0  0  0  0  0  0  0  0  0
    9.9032   -0.7980    2.3265 H   0  0  0  0  0  0  0  0  0  0  0  0
  1  2  2  0
  2  3  1  0
  3  4  1  0
  4  5  1  0
  5  6  1  0
  6  7  1  0
  7  8  1  0
  8  9  1  0
  9 10  1  0
 10 11  1  0
 11 12  1  0
 12 13  1  0
 13 14  1  0
 14 15  1  0
  8 16  1  0
  2 17  1  0
 17 18  2  0
 18 19  1  0
 19 20  2  0
 20 21  1  0
 21 22  2  0
 21 23  1  0
 23 24  1  0
 24 25  2  0
 25 26  1  0
 26 27  1  0
 16  4  1  0
 22 17  1  0
 27 23  2  0
 15 11  1  0
  3 28  1  0
  4 29  1  1
  5 30  1  0
  5 31  1  0
  6 32  1  0
  6 33  1  0
  7 34  1  0
  7 35  1  0
  9 36  1  0
  9 37  1  0
 10 38  1  0
 10 39  1  0
 12 40  1  0
 12 41  1  0
 13 42  1  0
 13 43  1  0
 14 44  1  0
 14 45  1  0
 15 46  1  0
 15 47  1  0
 16 48  1  0
 16 49  1  0
 18 50  1  0
 19 51  1  0
 22 52  1  0
 26 53  1  0
M  END
$$$$
[H]c1nc([H])n(C([H])([H])c2c([H])c([H])c3c(C(=O)N([H])c4nc5c([H])c([H])c([H])c([H])c5s4)c(C([H])([H])[H])c([H])c([H])c3c2[H])c1[H]
     RDKit          3D

 47 51  0  0  0  0  0  0  0  0999 V2000
    2.0892   -3.6658    1.3686 C   0  0  0  0  0  0  0  0  0  0  0  0
    0.8220   -2.9620    1.0494 C   0  0  0  0  0  0  0  0  0  0  0  0
   -0.0052   -3.5196    0.0763 C   0  0  0  0  0  0  0  0  0  0  0  0
   -1.1909   -2.9299   -0.2593 C   0  0  0  0  0  0  0  0  0  0  0  0
   -1.5418   -1.7692    0.3936 C   0  0  0  0  0  0  0  0  0  0  0  0
   -2.7391   -1.1788    0.0550 C   0  0  0  0  0  0  0  0  0  0  0  0
   -3.1705   -0.0047    0.6690 C   0  0  0  0  0  0  0  0  0  0  0  0
   -4.4654    0.6232    0.2948 C   0  0  0  0  0  0  0  0  0  0  0  0
   -4.2915    1.5767   -0.7933 N   0  0  0  0  0  0  0  0  0  0  0  0
   -4.3654    1.3386   -2.1215 C   0  0  0  0  0  0  0  0  0  0  0  0
   -4.1357    2.5248   -2.7768 C   0  0  0  0  0  0  0  0  0  0  0  0
   -3.9288    3.4512   -1.8434 N   0  0  0  0  0  0  0  0  0  0  0  0
   -4.0208    2.8883   -0.6407 C   0  0  0  0  0  0  0  0  0  0  0  0
   -2.3379    0.5318    1.6295 C   0  0  0  0  0  0  0  0  0  0  0  0
   -1.1404   -0.0539    1.9716 C   0  0  0  0  0  0  0  0  0  0  0  0
   -0.7240   -1.2177    1.3555 C   0  0  0  0  0  0  0  0  0  0  0  0
    0.4892   -1.8075    1.7087 C   0  0  0  0  0  0  0  0  0  0  0  0
    1.3192   -1.1980    2.7164 C   0  0  0  0  0  0  0  0  0  0  0  0
    1.0835   -1.5497    3.9145 O   0  0  0  0  0  0  0  0  0  0  0  0
    2.3472   -0.2714    2.5362 N   0  0  0  0  0  0  0  0  0  0  0  0
    2.7239    0.2308    1.2385 C   0  0  0  0  0  0  0  0  0  0  0  0
    3.6670    1.0915    0.9308 N   0  0  0  0  0  0  0  0  0  0  0  0
    3.8659    1.4363   -0.3046 C   0  0  0  0  0  0  0  0  0  0  0  0
    4.8391    2.3436   -0.7593 C   0  0  0  0  0  0  0  0  0  0  0  0
    4.9582    2.6314   -2.0813 C   0  0  0  0  0  0  0  0  0  0  0  0
    4.1581    2.0721   -3.0450 C   0  0  0  0  0  0  0  0  0  0  0  0
    3.1997    1.1820   -2.6207 C   0  0  0  0  0  0  0  0  0  0  0  0
    3.0612    0.8719   -1.2589 C   0  0  0  0  0  0  0  0  0  0  0  0
    2.0603   -0.1292   -0.3040 S   0  0  0  0  0  0  0  0  0  0  0  0
    2.9265   -3.3459    0.7129 H   0  0  0  0  0  0  0  0  0  0  0  0
    2.3544   -3.5732    2.4567 H   0  0  0  0  0  0  0  0  0  0  0  0
    1.9669   -4.7599    1.1944 H   0  0  0  0  0  0  0  0  0  0  0  0
    0.2947   -4.4312   -0.4202 H   0  0  0  0  0  0  0  0  0  0  0  0
   -1.8192   -3.3825   -1.0207 H   0  0  0  0  0  0  0  0  0  0  0  0
   -3.4004   -1.5915   -0.6976 H   0  0  0  0  0  0  0  0  0  0  0  0
   -4.8746    1.1275    1.1762 H   0  0  0  0  0  0  0  0  0  0  0  0
   -5.2146   -0.1494   -0.0246 H   0  0  0  0  0  0  0  0  0  0  0  0
   -4.5711    0.3740   -2.5832 H   0  0  0  0  0  0  0  0  0  0  0  0
   -4.1242    2.6804   -3.8407 H   0  0  0  0  0  0  0  0  0  0  0  0
   -3.9042    3.3690    0.3299 H   0  0  0  0  0  0  0  0  0  0  0  0
   -2.6887    1.4511    2.1018 H   0  0  0  0  0  0  0  0  0  0  0  0
   -0.5203    0.3910    2.7217 H   0  0  0  0  0  0  0  0  0  0  0  0
    2.8785    0.0973    3.3442 H   0  0  0  0  0  0  0  0  0  0  0  0
    5.5216    2.8358   -0.0458 H   0  0  0  0  0  0  0  0  0  0  0  0
    5.7312    3.3490   -2.4205 H   0  0  0  0  0  0  0  0  0  0  0  0
    4.2958    2.3344   -4.0684 H   0  0  0  0  0  0  0  0  0  0  0  0
    2.5213    0.6872   -3.2898 H   0  0  0  0  0  0  0  0  0  0  0  0
  1  2  1  0
  2  3  2  0
  3  4  1  0
  4  5  2  0
  5  6  1  0
  6  7  2  0
  7  8  1  0
  8  9  1  0
  9 10  1  0
 10 11  2  0
 11 12  1  0
 12 13  2  0
  7 14  1  0
 14 15  2  0
 15 16  1  0
 16 17  2  0
 17 18  1  0
 18 19  2  0
 18 20  1  0
 20 21  1  0
 21 22  2  0
 22 23  1  0
 23 24  2  0
 24 25  1  0
 25 26  2  0
 26 27  1  0
 27 28  2  0
 28 29  1  0
 17  2  1  0
 29 21  1  0
 16  5  1  0
 28 23  1  0
 13  9  1  0
  1 30  1  0
  1 31  1  0
  1 32  1  0
  3 33  1  0
  4 34  1  0
  6 35  1  0
  8 36  1  0
  8 37  1  0
 10 38  1  0
 11 39  1  0
 13 40  1  0
 14 41  1  0
 15 42  1  0
 20 43  1  0
 24 44  1  0
 25 45  1  0
 26 46  1  0
 27 47  1  0
M  END
$$$$
[H]ON([H])C(=O)C1(N([H])c2c([H])c([H])c(-c3c([H])c([H])nc4c([H])c(C(F)(F)F)c([H])c(Cl)c34)c(Cl)c2[H])C([H])([H])OC1([H])[H]
     RDKit          3D

 45 48  0  0  0  0  0  0  0  0999 V2000
   -6.2007    2.8294    1.4795 O   0  0  0  0  0  0  0  0  0  0  0  0
   -5.8852    1.8150    0.5652 N   0  0  0  0  0  0  0  0  0  0  0  0
   -4.7199    0.9896    0.7887 C   0  0  0  0  0  0  0  0  0  0  0  0
   -4.0853    1.3110    1.8097 O   0  0  0  0  0  0  0  0  0  0  0  0
   -4.3643   -0.0773   -0.1030 C   0  0  0  0  0  0  0  0  0  0  0  0
   -5.1680   -1.3914    0.1437 C   0  0  0  0  0  0  0  0  0  0  0  0
   -5.0891   -1.5228   -1.2758 O   0  0  0  0  0  0  0  0  0  0  0  0
   -5.4021   -0.1353   -1.2748 C   0  0  0  0  0  0  0  0  0  0  0  0
   -3.1070   -0.3128   -0.6240 N   0  0  0  0  0  0  0  0  0  0  0  0
   -1.7854   -0.5704   -0.1926 C   0  0  0  0  0  0  0  0  0  0  0  0
   -0.9797   -1.4152   -1.0188 C   0  0  0  0  0  0  0  0  0  0  0  0
    0.3686   -1.5918   -0.7591 C   0  0  0  0  0  0  0  0  0  0  0  0
    0.9766   -0.9737    0.2616 C   0  0  0  0  0  0  0  0  0  0  0  0
    0.2362   -0.1512    1.0941 C   0  0  0  0  0  0  0  0  0  0  0  0
    0.9470    0.6863    2.4515 Cl  0  0  0  0  0  0  0  0  0  0  0  0
   -1.1189    0.0133    0.8307 C   0  0  0  0  0  0  0  0  0  0  0  0
    2.3661   -1.1341    0.6000 C   0  0  0  0  0  0  0  0  0  0  0  0
    2.6723   -2.1987    1.4831 C   0  0  0  0  0  0  0  0  0  0  0  0
    3.9369   -2.4322    1.8845 C   0  0  0  0  0  0  0  0  0  0  0  0
    4.9601   -1.6550    1.4577 N   0  0  0  0  0  0  0  0  0  0  0  0
    4.7000   -0.6445    0.6202 C   0  0  0  0  0  0  0  0  0  0  0  0
    5.7378    0.1852    0.1772 C   0  0  0  0  0  0  0  0  0  0  0  0
    5.5249    1.2403   -0.6667 C   0  0  0  0  0  0  0  0  0  0  0  0
    4.2419    1.5288   -1.1174 C   0  0  0  0  0  0  0  0  0  0  0  0
    3.2013    0.7143   -0.6863 C   0  0  0  0  0  0  0  0  0  0  0  0
    1.6528    1.1399   -1.3697 Cl  0  0  0  0  0  0  0  0  0  0  0  0
    3.3870   -0.3521    0.1607 C   0  0  0  0  0  0  0  0  0  0  0  0
    6.6431    2.1263   -1.1318 C   0  0  0  0  0  0  0  0  0  0  0  0
    6.5675    3.2729   -0.3664 F   0  0  0  0  0  0  0  0  0  0  0  0
    6.3398    2.5569   -2.4200 F   0  0  0  0  0  0  0  0  0  0  0  0
    7.8461    1.4846   -1.1045 F   0  0  0  0  0  0  0  0  0  0  0  0
   -7.1704    3.0842    1.3687 H   0  0  0  0  0  0  0  0  0  0  0  0
   -6.4884    1.7677   -0.2246 H   0  0  0  0  0  0  0  0  0  0  0  0
   -6.1789   -1.0554    0.4351 H   0  0  0  0  0  0  0  0  0  0  0  0
   -4.6464   -2.1100    0.7267 H   0  0  0  0  0  0  0  0  0  0  0  0
   -6.4267    0.0134   -0.9748 H   0  0  0  0  0  0  0  0  0  0  0  0
   -5.0193    0.3910   -2.1530 H   0  0  0  0  0  0  0  0  0  0  0  0
   -3.1033   -0.2709   -1.7643 H   0  0  0  0  0  0  0  0  0  0  0  0
   -1.4835   -1.8769   -1.8286 H   0  0  0  0  0  0  0  0  0  0  0  0
    0.9221   -2.2704   -1.4501 H   0  0  0  0  0  0  0  0  0  0  0  0
   -1.6449    0.6999    1.5033 H   0  0  0  0  0  0  0  0  0  0  0  0
    1.8583   -2.8145    1.8187 H   0  0  0  0  0  0  0  0  0  0  0  0
    4.2033   -3.2679    2.5678 H   0  0  0  0  0  0  0  0  0  0  0  0
    6.7349    0.0195    0.4903 H   0  0  0  0  0  0  0  0  0  0  0  0
    4.0428    2.3551   -1.8051 H   0  0  0  0  0  0  0  0  0  0  0  0
  1  2  1  0
  2  3  1  0
  3  4  2  0
  3  5  1  0
  5  6  1  0
  6  7  1  0
  7  8  1  0
  5  9  1  0
  9 10  1  0
 10 11  2  0
 11 12  1  0
 12 13  2  0
 13 14  1  0
 14 15  1  0
 14 16  2  0
 13 17  1  0
 17 18  2  0
 18 19  1  0
 19 20  2  0
 20 21  1  0
 21 22  2  0
 22 23  1  0
 23 24  2  0
 24 25  1  0
 25 26  1  0
 25 27  2  0
 23 28  1  0
 28 29  1  0
 28 30  1  0
 28 31  1  0
  8  5  1  0
 16 10  1  0
 27 17  1  0
 27 21  1  0
  1 32  1  0
  2 33  1  0
  6 34  1  0
  6 35  1  0
  8 36  1  0
  8 37  1  0
  9 38  1  0
 11 39  1  0
 12 40  1  0
 16 41  1  0
 18 42  1  0
 19 43  1  0
 22 44  1  0
 24 45  1  0
M  END
$$$$
[H]c1c(C(=O)N2C([H])([H])C([H])([H])N(C([H])([H])[H])C([H])([H])C2([H])[H])nc(-c2c([H])c(F)c(F)c(N([H])c3c([H])c([H])c(C(F)(F)F)c([H])c3[H])c2[H])nc1N1C([H])([H])C([H])([H])OC([H])([H])C1([H])[H]
     RDKit          3D

 67 71  0  0  0  0  0  0  0  0999 V2000
   -6.0394    2.7239   -0.6574 C   0  0  0  0  0  0  0  0  0  0  0  0
   -4.8996    3.5924   -0.4114 N   0  0  0  0  0  0  0  0  0  0  0  0
   -3.6833    3.0536   -0.9373 C   0  0  0  0  0  0  0  0  0  0  0  0
   -2.6481    2.8710    0.1727 C   0  0  0  0  0  0  0  0  0  0  0  0
   -3.3242    2.1004    1.1504 N   0  0  0  0  0  0  0  0  0  0  0  0
   -4.3582    2.8825    1.8771 C   0  0  0  0  0  0  0  0  0  0  0  0
   -4.8346    3.9896    0.9701 C   0  0  0  0  0  0  0  0  0  0  0  0
   -3.1268    0.7841    1.4966 C   0  0  0  0  0  0  0  0  0  0  0  0
   -3.8340    0.2178    2.4136 O   0  0  0  0  0  0  0  0  0  0  0  0
   -2.1263   -0.0650    0.8890 C   0  0  0  0  0  0  0  0  0  0  0  0
   -1.8858   -1.3736    1.3865 C   0  0  0  0  0  0  0  0  0  0  0  0
   -0.8837   -2.1637    0.8770 C   0  0  0  0  0  0  0  0  0  0  0  0
   -0.1290   -1.6340   -0.1295 N   0  0  0  0  0  0  0  0  0  0  0  0
   -0.3186   -0.4188   -0.6304 C   0  0  0  0  0  0  0  0  0  0  0  0
   -1.3217    0.3115   -0.0880 N   0  0  0  0  0  0  0  0  0  0  0  0
    0.5244    0.2554   -1.6062 C   0  0  0  0  0  0  0  0  0  0  0  0
   -0.0805    1.0170   -2.5817 C   0  0  0  0  0  0  0  0  0  0  0  0
    0.6337    1.7719   -3.4746 C   0  0  0  0  0  0  0  0  0  0  0  0
   -0.0151    2.5131   -4.4286 F   0  0  0  0  0  0  0  0  0  0  0  0
    1.9870    1.7762   -3.4016 C   0  0  0  0  0  0  0  0  0  0  0  0
    2.6995    2.5251   -4.2944 F   0  0  0  0  0  0  0  0  0  0  0  0
    2.6269    1.0225   -2.4241 C   0  0  0  0  0  0  0  0  0  0  0  0
    4.0345    1.1800   -2.3576 N   0  0  0  0  0  0  0  0  0  0  0  0
    4.8648    0.6920   -1.3187 C   0  0  0  0  0  0  0  0  0  0  0  0
    4.9256   -0.5496   -0.8033 C   0  0  0  0  0  0  0  0  0  0  0  0
    5.7465   -0.8251    0.2938 C   0  0  0  0  0  0  0  0  0  0  0  0
    6.5220    0.1373    0.8947 C   0  0  0  0  0  0  0  0  0  0  0  0
    6.4557    1.4122    0.3532 C   0  0  0  0  0  0  0  0  0  0  0  0
    5.6549    1.6784   -0.7126 C   0  0  0  0  0  0  0  0  0  0  0  0
    7.3941   -0.0563    2.0536 C   0  0  0  0  0  0  0  0  0  0  0  0
    7.7033   -1.3689    2.2836 F   0  0  0  0  0  0  0  0  0  0  0  0
    8.5419    0.6847    1.8694 F   0  0  0  0  0  0  0  0  0  0  0  0
    6.7881    0.4518    3.2170 F   0  0  0  0  0  0  0  0  0  0  0  0
    1.9046    0.2626   -1.5339 C   0  0  0  0  0  0  0  0  0  0  0  0
   -0.6664   -3.4875    1.3222 N   0  0  0  0  0  0  0  0  0  0  0  0
    0.3089   -4.3662    0.6151 C   0  0  0  0  0  0  0  0  0  0  0  0
   -0.5603   -5.4049   -0.0806 C   0  0  0  0  0  0  0  0  0  0  0  0
   -1.8446   -5.3985    0.3963 O   0  0  0  0  0  0  0  0  0  0  0  0
   -1.9713   -5.3982    1.7755 C   0  0  0  0  0  0  0  0  0  0  0  0
   -1.3228   -4.1571    2.4138 C   0  0  0  0  0  0  0  0  0  0  0  0
   -6.2962    2.1529    0.2623 H   0  0  0  0  0  0  0  0  0  0  0  0
   -6.9023    3.3288   -0.9540 H   0  0  0  0  0  0  0  0  0  0  0  0
   -5.7708    2.0798   -1.5160 H   0  0  0  0  0  0  0  0  0  0  0  0
   -3.8939    1.9969   -1.2913 H   0  0  0  0  0  0  0  0  0  0  0  0
   -3.2838    3.6061   -1.7865 H   0  0  0  0  0  0  0  0  0  0  0  0
   -2.4919    3.9154    0.6508 H   0  0  0  0  0  0  0  0  0  0  0  0
   -1.6899    2.5863   -0.2051 H   0  0  0  0  0  0  0  0  0  0  0  0
   -3.7912    3.3467    2.7078 H   0  0  0  0  0  0  0  0  0  0  0  0
   -5.1437    2.2583    2.3072 H   0  0  0  0  0  0  0  0  0  0  0  0
   -4.2158    4.9072    1.0332 H   0  0  0  0  0  0  0  0  0  0  0  0
   -5.8556    4.2638    1.2997 H   0  0  0  0  0  0  0  0  0  0  0  0
   -2.5092   -1.7436    2.1846 H   0  0  0  0  0  0  0  0  0  0  0  0
   -1.1614    1.0229   -2.6477 H   0  0  0  0  0  0  0  0  0  0  0  0
    4.5207    1.6976   -3.1229 H   0  0  0  0  0  0  0  0  0  0  0  0
    4.3481   -1.3715   -1.2406 H   0  0  0  0  0  0  0  0  0  0  0  0
    5.7711   -1.8229    0.6916 H   0  0  0  0  0  0  0  0  0  0  0  0
    7.0733    2.1925    0.8212 H   0  0  0  0  0  0  0  0  0  0  0  0
    5.6497    2.6878   -1.0857 H   0  0  0  0  0  0  0  0  0  0  0  0
    2.3351   -0.3322   -0.7670 H   0  0  0  0  0  0  0  0  0  0  0  0
    0.8797   -3.8322   -0.1267 H   0  0  0  0  0  0  0  0  0  0  0  0
    0.9394   -4.8841    1.3547 H   0  0  0  0  0  0  0  0  0  0  0  0
   -0.0592   -6.3941   -0.0502 H   0  0  0  0  0  0  0  0  0  0  0  0
   -0.6073   -5.1261   -1.1739 H   0  0  0  0  0  0  0  0  0  0  0  0
   -3.0563   -5.3395    2.0118 H   0  0  0  0  0  0  0  0  0  0  0  0
   -1.6118   -6.3310    2.2523 H   0  0  0  0  0  0  0  0  0  0  0  0
   -0.5515   -4.5352    3.1457 H   0  0  0  0  0  0  0  0  0  0  0  0
   -2.0670   -3.5700    2.9274 H   0  0  0  0  0  0  0  0  0  0  0  0
  1  2  1  0
  2  3  1  0
  3  4  1  0
  4  5  1  0
  5  6  1  0
  6  7  1  0
  5  8  1  0
  8  9  2  0
  8 10  1  0
 10 11  2  0
 11 12  1  0
 12 13  2  0
 13 14  1  0
 14 15  2  0
 14 16  1  0
 16 17  2  0
 17 18  1  0
 18 19  1  0
 18 20  2  0
 20 21  1  0
 20 22  1  0
 22 23  1  0
 23 24  1  0
 24 25  2  0
 25 26  1  0
 26 27  2  0
 27 28  1  0
 28 29  2  0
 27 30  1  0
 30 31  1  0
 30 32  1  0
 30 33  1  0
 22 34  2  0
 12 35  1  0
 35 36  1  0
 36 37  1  0
 37 38  1  0
 38 39  1  0
 39 40  1  0
  7  2  1  0
 15 10  1  0
 34 16  1  0
 40 35  1  0
 29 24  1  0
  1 41  1  0
  1 42  1  0
  1 43  1  0
  3 44  1  0
  3 45  1  0
  4 46  1  0
  4 47  1  0
  6 48  1  0
  6 49  1  0
  7 50  1  0
  7 51  1  0
 11 52  1  0
 17 53  1  0
 23 54  1  0
 25 55  1  0
 26 56  1  0
 28 57  1  0
 29 58  1  0
 34 59  1  0
 36 60  1  0
 36 61  1  0
 37 62  1  0
 37 63  1  0
 39 64  1  0
 39 65  1  0
 40 66  1  0
 40 67  1  0
M  END
$$$$
[H]c1nc(N([H])[H])c([H])c(-c2c([H])c3c(N([H])[H])nc(N([H])C(=O)N4C([H])([H])C([H])([H])OC([H])(C([H])([H])[H])C4([H])[H])c([H])c3n2[H])c1[H]
     RDKit          3D

 48 51  0  0  0  0  0  0  0  0999 V2000
    7.2917    1.4425    1.5863 C   0  0  0  0  0  0  0  0  0  0  0  0
    6.1942    1.5119    0.5175 C   0  0  0  0  0  0  0  0  0  0  0  0
    4.8611    1.1094    1.0699 C   0  0  0  0  0  0  0  0  0  0  0  0
    4.1297    0.2107    0.2282 N   0  0  0  0  0  0  0  0  0  0  0  0
    4.7854   -0.7339   -0.6510 C   0  0  0  0  0  0  0  0  0  0  0  0
    6.2680   -0.5706   -0.4756 C   0  0  0  0  0  0  0  0  0  0  0  0
    6.5684    0.7807   -0.6031 O   0  0  0  0  0  0  0  0  0  0  0  0
    2.6973    0.2203    0.2317 C   0  0  0  0  0  0  0  0  0  0  0  0
    2.1618    1.0486    1.0029 O   0  0  0  0  0  0  0  0  0  0  0  0
    1.9713   -0.6564   -0.5894 N   0  0  0  0  0  0  0  0  0  0  0  0
    0.5681   -0.7815   -0.7116 C   0  0  0  0  0  0  0  0  0  0  0  0
   -0.3622   -0.0576   -0.0393 C   0  0  0  0  0  0  0  0  0  0  0  0
   -1.7257   -0.2615   -0.2349 C   0  0  0  0  0  0  0  0  0  0  0  0
   -2.8388    0.2860    0.2719 N   0  0  0  0  0  0  0  0  0  0  0  0
   -3.9446   -0.2592   -0.2412 C   0  0  0  0  0  0  0  0  0  0  0  0
   -3.5029   -1.2153   -1.1320 C   0  0  0  0  0  0  0  0  0  0  0  0
   -2.1420   -1.2180   -1.1293 C   0  0  0  0  0  0  0  0  0  0  0  0
   -1.1870   -1.9590   -1.8173 C   0  0  0  0  0  0  0  0  0  0  0  0
   -1.6516   -2.9384   -2.7333 N   0  0  0  0  0  0  0  0  0  0  0  0
    0.1043   -1.7225   -1.5916 N   0  0  0  0  0  0  0  0  0  0  0  0
   -5.3460    0.0381    0.0311 C   0  0  0  0  0  0  0  0  0  0  0  0
   -6.3509   -0.6491   -0.6142 C   0  0  0  0  0  0  0  0  0  0  0  0
   -7.6962   -0.3872   -0.3749 C   0  0  0  0  0  0  0  0  0  0  0  0
   -8.0290    0.5643    0.5121 N   0  0  0  0  0  0  0  0  0  0  0  0
   -7.0902    1.2665    1.1710 C   0  0  0  0  0  0  0  0  0  0  0  0
   -7.5095    2.2503    2.0877 N   0  0  0  0  0  0  0  0  0  0  0  0
   -5.7382    1.0061    0.9331 C   0  0  0  0  0  0  0  0  0  0  0  0
    7.2082    2.3124    2.2418 H   0  0  0  0  0  0  0  0  0  0  0  0
    7.2526    0.4729    2.1275 H   0  0  0  0  0  0  0  0  0  0  0  0
    8.2787    1.4863    1.0865 H   0  0  0  0  0  0  0  0  0  0  0  0
    6.1416    2.5763    0.2076 H   0  0  0  0  0  0  0  0  0  0  0  0
    5.0551    0.6674    2.0893 H   0  0  0  0  0  0  0  0  0  0  0  0
    4.2440    2.0278    1.2946 H   0  0  0  0  0  0  0  0  0  0  0  0
    4.5467   -0.4486   -1.7065 H   0  0  0  0  0  0  0  0  0  0  0  0
    4.4341   -1.7570   -0.4115 H   0  0  0  0  0  0  0  0  0  0  0  0
    6.6307   -1.0159    0.4631 H   0  0  0  0  0  0  0  0  0  0  0  0
    6.7570   -1.0807   -1.3467 H   0  0  0  0  0  0  0  0  0  0  0  0
    2.6004   -1.3017   -1.1894 H   0  0  0  0  0  0  0  0  0  0  0  0
   -0.0885    0.7010    0.6698 H   0  0  0  0  0  0  0  0  0  0  0  0
   -2.8390    1.0463    0.9817 H   0  0  0  0  0  0  0  0  0  0  0  0
   -4.1333   -1.8604   -1.7365 H   0  0  0  0  0  0  0  0  0  0  0  0
   -1.8777   -3.8937   -2.4069 H   0  0  0  0  0  0  0  0  0  0  0  0
   -1.7638   -2.6927   -3.7329 H   0  0  0  0  0  0  0  0  0  0  0  0
   -6.1252   -1.4149   -1.3281 H   0  0  0  0  0  0  0  0  0  0  0  0
   -8.4906   -0.9266   -0.8813 H   0  0  0  0  0  0  0  0  0  0  0  0
   -8.0119    3.0833    1.7459 H   0  0  0  0  0  0  0  0  0  0  0  0
   -7.3160    2.1388    3.0919 H   0  0  0  0  0  0  0  0  0  0  0  0
   -4.9899    1.5545    1.4478 H   0  0  0  0  0  0  0  0  0  0  0  0
  1  2  1  0
  2  3  1  0
  3  4  1  0
  4  5  1  0
  5  6  1  0
  6  7  1  0
  4  8  1  0
  8  9  2  0
  8 10  1  0
 10 11  1  0
 11 12  2  0
 12 13  1  0
 13 14  1  0
 14 15  1  0
 15 16  2  0
 16 17  1  0
 17 18  1  0
 18 19  1  0
 18 20  2  0
 15 21  1  0
 21 22  2  0
 22 23  1  0
 23 24  2  0
 24 25  1  0
 25 26  1  0
 25 27  2  0
  7  2  1  0
 20 11  1  0
 27 21  1  0
 17 13  2  0
  1 28  1  0
  1 29  1  0
  1 30  1  0
  2 31  1  0
  3 32  1  0
  3 33  1  0
  5 34  1  0
  5 35  1  0
  6 36  1  0
  6 37  1  0
 10 38  1  0
 12 39  1  0
 14 40  1  0
 16 41  1  0
 19 42  1  0
 19 43  1  0
 22 44  1  0
 23 45  1  0
 26 46  1  0
 26 47  1  0
 27 48  1  0
M  END
$$$$
[H]Oc1c([H])c(N([H])S(=O)(=O)c2c([H])c([H])c([H])c(N3C([H])([H])C([H])([H])N(C([H])([H])[H])C([H])([H])C3([H])[H])c2[H])c([H])c([N+](=O)[O-])c1[H]
     RDKit          3D

 47 49  0  0  0  0  0  0  0  0999 V2000
    4.3592    1.5189   -1.7051 C   0  0  0  0  0  0  0  0  0  0  0  0
    4.9346    0.7830   -0.5850 N   0  0  0  0  0  0  0  0  0  0  0  0
    4.4761    1.3424    0.6352 C   0  0  0  0  0  0  0  0  0  0  0  0
    3.1600    0.8566    1.1305 C   0  0  0  0  0  0  0  0  0  0  0  0
    2.9277   -0.5247    0.7774 N   0  0  0  0  0  0  0  0  0  0  0  0
    4.0613   -1.2955    0.3910 C   0  0  0  0  0  0  0  0  0  0  0  0
    4.7431   -0.6130   -0.7594 C   0  0  0  0  0  0  0  0  0  0  0  0
    1.5868   -0.9927    0.8572 C   0  0  0  0  0  0  0  0  0  0  0  0
    1.2493   -2.2338    0.3649 C   0  0  0  0  0  0  0  0  0  0  0  0
   -0.0612   -2.7292    0.4336 C   0  0  0  0  0  0  0  0  0  0  0  0
   -1.0552   -1.9660    1.0074 C   0  0  0  0  0  0  0  0  0  0  0  0
   -0.7385   -0.7213    1.5060 C   0  0  0  0  0  0  0  0  0  0  0  0
    0.5736   -0.2564    1.4230 C   0  0  0  0  0  0  0  0  0  0  0  0
   -1.9117    0.3366    2.2549 S   0  0  0  0  0  0  0  0  0  0  0  0
   -2.8706   -0.5477    2.9957 O   0  0  0  0  0  0  0  0  0  0  0  0
   -1.1907    1.1360    3.3228 O   0  0  0  0  0  0  0  0  0  0  0  0
   -2.6614    1.3866    1.1608 N   0  0  0  0  0  0  0  0  0  0  0  0
   -3.4561    0.9832    0.0540 C   0  0  0  0  0  0  0  0  0  0  0  0
   -4.3970   -0.0087    0.2262 C   0  0  0  0  0  0  0  0  0  0  0  0
   -5.1583   -0.3847   -0.8630 C   0  0  0  0  0  0  0  0  0  0  0  0
   -4.9772    0.2276   -2.1095 C   0  0  0  0  0  0  0  0  0  0  0  0
   -4.0371    1.2196   -2.2846 C   0  0  0  0  0  0  0  0  0  0  0  0
   -3.8818    1.8088   -3.5384 O   0  0  0  0  0  0  0  0  0  0  0  0
   -3.2860    1.5830   -1.1884 C   0  0  0  0  0  0  0  0  0  0  0  0
   -6.1276   -1.4064   -0.6879 N   0  0  0  0  0  0  0  0  0  0  0  0
   -6.3022   -2.0002    0.5204 O   0  0  0  0  0  0  0  0  0  0  0  0
   -6.8344   -1.7735   -1.6449 O   0  0  0  0  0  0  0  0  0  0  0  0
    4.0217    2.4865   -1.3382 H   0  0  0  0  0  0  0  0  0  0  0  0
    3.4475    0.9466   -2.0355 H   0  0  0  0  0  0  0  0  0  0  0  0
    5.0503    1.6084   -2.5526 H   0  0  0  0  0  0  0  0  0  0  0  0
    4.4143    2.4496    0.5172 H   0  0  0  0  0  0  0  0  0  0  0  0
    5.2347    1.1614    1.4252 H   0  0  0  0  0  0  0  0  0  0  0  0
    3.0838    0.9262    2.2343 H   0  0  0  0  0  0  0  0  0  0  0  0
    2.3234    1.5035    0.7294 H   0  0  0  0  0  0  0  0  0  0  0  0
    4.7970   -1.2411    1.2511 H   0  0  0  0  0  0  0  0  0  0  0  0
    3.9001   -2.3483    0.1754 H   0  0  0  0  0  0  0  0  0  0  0  0
    5.7237   -1.1006   -0.9170 H   0  0  0  0  0  0  0  0  0  0  0  0
    4.1442   -0.7929   -1.6712 H   0  0  0  0  0  0  0  0  0  0  0  0
    1.9877   -2.8676   -0.0939 H   0  0  0  0  0  0  0  0  0  0  0  0
   -0.3329   -3.6943    0.0528 H   0  0  0  0  0  0  0  0  0  0  0  0
   -2.0682   -2.3293    1.0695 H   0  0  0  0  0  0  0  0  0  0  0  0
    0.8241    0.7236    1.8188 H   0  0  0  0  0  0  0  0  0  0  0  0
   -2.5519    2.4178    1.2789 H   0  0  0  0  0  0  0  0  0  0  0  0
   -4.5394   -0.4826    1.1849 H   0  0  0  0  0  0  0  0  0  0  0  0
   -5.6031   -0.0997   -2.9518 H   0  0  0  0  0  0  0  0  0  0  0  0
   -4.4271    2.6436   -3.8036 H   0  0  0  0  0  0  0  0  0  0  0  0
   -2.5547    2.3609   -1.3425 H   0  0  0  0  0  0  0  0  0  0  0  0
  1  2  1  0
  2  3  1  0
  3  4  1  0
  4  5  1  0
  5  6  1  0
  6  7  1  0
  5  8  1  0
  8  9  2  0
  9 10  1  0
 10 11  2  0
 11 12  1  0
 12 13  2  0
 12 14  1  0
 14 15  2  0
 14 16  2  0
 14 17  1  0
 17 18  1  0
 18 19  2  0
 19 20  1  0
 20 21  2  0
 21 22  1  0
 22 23  1  0
 22 24  2  0
 20 25  1  0
 25 26  1  0
 25 27  2  0
  7  2  1  0
 13  8  1  0
 24 18  1  0
  1 28  1  0
  1 29  1  0
  1 30  1  0
  3 31  1  0
  3 32  1  0
  4 33  1  0
  4 34  1  0
  6 35  1  0
  6 36  1  0
  7 37  1  0
  7 38  1  0
  9 39  1  0
 10 40  1  0
 11 41  1  0
 13 42  1  0
 17 43  1  0
 19 44  1  0
 21 45  1  0
 23 46  1  0
 24 47  1  0
M  CHG  2  25   1  26  -1
M  END
$$$$
[H]OC(=O)C([H])(C(=O)C([H])([H])Sc1c([H])c([H])c([H])c([H])c1[H])c1c([H])c([H])c(Br)c(N([H])c2c([H])c([H])c([H])c([H])c2S(=O)(=O)C([H])(C([H])([H])[H])C([H])([H])[H])c1[H]
     RDKit          3D

 58 60  0  0  0  0  0  0  0  0999 V2000
    2.5834   -2.7601   -2.2845 O   0  0  0  0  0  0  0  0  0  0  0  0
    3.1979   -1.4791   -2.3411 C   0  0  0  0  0  0  0  0  0  0  0  0
    4.4099   -1.5274   -2.6371 O   0  0  0  0  0  0  0  0  0  0  0  0
    2.4061   -0.2754   -2.0642 C   0  0  0  0  0  0  0  0  0  0  0  0
    3.0042    1.0175   -2.4290 C   0  0  0  0  0  0  0  0  0  0  0  0
    3.1650    1.2410   -3.6525 O   0  0  0  0  0  0  0  0  0  0  0  0
    3.4337    2.1044   -1.5573 C   0  0  0  0  0  0  0  0  0  0  0  0
    5.1269    2.4304   -1.2607 S   0  0  0  0  0  0  0  0  0  0  0  0
    6.0300    1.2863   -0.2845 C   0  0  0  0  0  0  0  0  0  0  0  0
    6.7853    0.2846   -0.8372 C   0  0  0  0  0  0  0  0  0  0  0  0
    7.5121   -0.6235   -0.0887 C   0  0  0  0  0  0  0  0  0  0  0  0
    7.5015   -0.5500    1.2854 C   0  0  0  0  0  0  0  0  0  0  0  0
    6.7529    0.4440    1.8751 C   0  0  0  0  0  0  0  0  0  0  0  0
    6.0314    1.3452    1.1214 C   0  0  0  0  0  0  0  0  0  0  0  0
    1.6842   -0.2540   -0.7839 C   0  0  0  0  0  0  0  0  0  0  0  0
    2.3978   -0.3923    0.3767 C   0  0  0  0  0  0  0  0  0  0  0  0
    1.7925   -0.3785    1.6213 C   0  0  0  0  0  0  0  0  0  0  0  0
    0.4378   -0.2195    1.6729 C   0  0  0  0  0  0  0  0  0  0  0  0
   -0.4530   -0.1920    3.3591 Br  0  0  0  0  0  0  0  0  0  0  0  0
   -0.3658   -0.0699    0.5320 C   0  0  0  0  0  0  0  0  0  0  0  0
   -1.7569    0.0253    0.6549 N   0  0  0  0  0  0  0  0  0  0  0  0
   -2.7379    0.5026   -0.1976 C   0  0  0  0  0  0  0  0  0  0  0  0
   -2.4419    1.3657   -1.2191 C   0  0  0  0  0  0  0  0  0  0  0  0
   -3.4150    1.9076   -2.0678 C   0  0  0  0  0  0  0  0  0  0  0  0
   -4.7155    1.5388   -1.8371 C   0  0  0  0  0  0  0  0  0  0  0  0
   -5.0615    0.6768   -0.8222 C   0  0  0  0  0  0  0  0  0  0  0  0
   -4.0707    0.1620   -0.0055 C   0  0  0  0  0  0  0  0  0  0  0  0
   -4.5214   -0.9188    1.2921 S   0  0  0  0  0  0  0  0  0  0  0  0
   -3.7195   -2.1817    1.2938 O   0  0  0  0  0  0  0  0  0  0  0  0
   -4.2437   -0.2182    2.6199 O   0  0  0  0  0  0  0  0  0  0  0  0
   -6.2399   -1.3126    1.3254 C   0  0  0  0  0  0  0  0  0  0  0  0
   -6.7582   -2.0198    0.1297 C   0  0  0  0  0  0  0  0  0  0  0  0
   -7.0625   -0.1053    1.7059 C   0  0  0  0  0  0  0  0  0  0  0  0
    0.2957   -0.0949   -0.6570 C   0  0  0  0  0  0  0  0  0  0  0  0
    1.9353   -2.8496   -1.4884 H   0  0  0  0  0  0  0  0  0  0  0  0
    1.5286   -0.3828   -2.8381 H   0  0  0  0  0  0  0  0  0  0  0  0
    2.9582    3.0577   -1.9956 H   0  0  0  0  0  0  0  0  0  0  0  0
    2.9130    2.0605   -0.5500 H   0  0  0  0  0  0  0  0  0  0  0  0
    6.8019    0.2141   -1.9297 H   0  0  0  0  0  0  0  0  0  0  0  0
    8.0904   -1.3926   -0.5754 H   0  0  0  0  0  0  0  0  0  0  0  0
    8.0674   -1.2578    1.8847 H   0  0  0  0  0  0  0  0  0  0  0  0
    6.7681    0.4726    2.9600 H   0  0  0  0  0  0  0  0  0  0  0  0
    5.4552    2.1116    1.5913 H   0  0  0  0  0  0  0  0  0  0  0  0
    3.4651   -0.5178    0.3512 H   0  0  0  0  0  0  0  0  0  0  0  0
    2.3662   -0.4892    2.5351 H   0  0  0  0  0  0  0  0  0  0  0  0
   -2.1419   -0.3473    1.5967 H   0  0  0  0  0  0  0  0  0  0  0  0
   -1.4406    1.7428   -1.4475 H   0  0  0  0  0  0  0  0  0  0  0  0
   -3.1438    2.5924   -2.8776 H   0  0  0  0  0  0  0  0  0  0  0  0
   -5.4781    1.9686   -2.5086 H   0  0  0  0  0  0  0  0  0  0  0  0
   -6.1056    0.4094   -0.6731 H   0  0  0  0  0  0  0  0  0  0  0  0
   -6.3578   -2.0186    2.2121 H   0  0  0  0  0  0  0  0  0  0  0  0
   -6.8753   -3.1001    0.3575 H   0  0  0  0  0  0  0  0  0  0  0  0
   -7.7610   -1.6778   -0.2040 H   0  0  0  0  0  0  0  0  0  0  0  0
   -6.0061   -1.9748   -0.6863 H   0  0  0  0  0  0  0  0  0  0  0  0
   -7.8482    0.0715    0.9465 H   0  0  0  0  0  0  0  0  0  0  0  0
   -7.5771   -0.1970    2.6774 H   0  0  0  0  0  0  0  0  0  0  0  0
   -6.3814    0.7756    1.8017 H   0  0  0  0  0  0  0  0  0  0  0  0
   -0.2172   -0.0307   -1.6200 H   0  0  0  0  0  0  0  0  0  0  0  0
  1  2  1  0
  2  3  2  0
  2  4  1  0
  4  5  1  0
  5  6  2  0
  5  7  1  0
  7  8  1  0
  8  9  1  0
  9 10  2  0
 10 11  1  0
 11 12  2  0
 12 13  1  0
 13 14  2  0
  4 15  1  0
 15 16  2  0
 16 17  1  0
 17 18  2  0
 18 19  1  0
 18 20  1  0
 20 21  1  0
 21 22  1  0
 22 23  2  0
 23 24  1  0
 24 25  2  0
 25 26  1  0
 26 27  2  0
 27 28  1  0
 28 29  2  0
 28 30  2  0
 28 31  1  0
 31 32  1  0
 31 33  1  0
 20 34  2  0
 14  9  1  0
 34 15  1  0
 27 22  1  0
  1 35  1  0
  4 36  1  0
  7 37  1  0
  7 38  1  0
 10 39  1  0
 11 40  1  0
 12 41  1  0
 13 42  1  0
 14 43  1  0
 16 44  1  0
 17 45  1  0
 21 46  1  0
 23 47  1  0
 24 48  1  0
 25 49  1  0
 26 50  1  0
 31 51  1  0
 32 52  1  0
 32 53  1  0
 32 54  1  0
 33 55  1  0
 33 56  1  0
 33 57  1  0
 34 58  1  0
M  END
$$$$
[H]c1oc(-c2c([H])sc3nc(N([H])c4c([H])c([H])c([H])c(I)c4[H])nc(C(=O)N([H])C([H])([H])C([H])([H])C(F)(F)F)c23)c([H])c1[H]
     RDKit          3D

 45 48  0  0  0  0  0  0  0  0999 V2000
   -5.4809    3.6781    0.8669 F   0  0  0  0  0  0  0  0  0  0  0  0
   -5.1812    2.7851   -0.1451 C   0  0  0  0  0  0  0  0  0  0  0  0
   -6.0924    1.7464   -0.1563 F   0  0  0  0  0  0  0  0  0  0  0  0
   -5.3504    3.4676   -1.3389 F   0  0  0  0  0  0  0  0  0  0  0  0
   -3.7676    2.2939    0.0245 C   0  0  0  0  0  0  0  0  0  0  0  0
   -3.4175    1.3153   -1.0719 C   0  0  0  0  0  0  0  0  0  0  0  0
   -2.0910    0.7983   -0.9892 N   0  0  0  0  0  0  0  0  0  0  0  0
   -1.5878    0.0571    0.1202 C   0  0  0  0  0  0  0  0  0  0  0  0
   -2.3199   -0.1968    1.1403 O   0  0  0  0  0  0  0  0  0  0  0  0
   -0.2240   -0.4357    0.1373 C   0  0  0  0  0  0  0  0  0  0  0  0
    0.6893    0.5518    0.0491 N   0  0  0  0  0  0  0  0  0  0  0  0
    2.0270    0.3961    0.1465 C   0  0  0  0  0  0  0  0  0  0  0  0
    2.8835    1.4973    0.0165 N   0  0  0  0  0  0  0  0  0  0  0  0
    4.2817    1.5026    0.1041 C   0  0  0  0  0  0  0  0  0  0  0  0
    5.0528    0.5215    0.6765 C   0  0  0  0  0  0  0  0  0  0  0  0
    6.4558    0.6053    0.6937 C   0  0  0  0  0  0  0  0  0  0  0  0
    7.1224    1.6669    0.1425 C   0  0  0  0  0  0  0  0  0  0  0  0
    6.3734    2.6533   -0.4310 C   0  0  0  0  0  0  0  0  0  0  0  0
    7.3942    4.2901   -1.2805 I   0  0  0  0  0  0  0  0  0  0  0  0
    5.0094    2.5734   -0.4488 C   0  0  0  0  0  0  0  0  0  0  0  0
    2.4275   -0.8588    0.3475 N   0  0  0  0  0  0  0  0  0  0  0  0
    1.5601   -1.8861    0.4406 C   0  0  0  0  0  0  0  0  0  0  0  0
    1.8015   -3.5412    0.7180 S   0  0  0  0  0  0  0  0  0  0  0  0
    0.2098   -4.0697    0.6984 C   0  0  0  0  0  0  0  0  0  0  0  0
   -0.5379   -2.8923    0.4618 C   0  0  0  0  0  0  0  0  0  0  0  0
   -1.9943   -3.1448    0.3313 C   0  0  0  0  0  0  0  0  0  0  0  0
   -2.8572   -2.8137   -0.6558 C   0  0  0  0  0  0  0  0  0  0  0  0
   -4.1056   -3.2869   -0.3345 C   0  0  0  0  0  0  0  0  0  0  0  0
   -3.9557   -3.9139    0.8816 C   0  0  0  0  0  0  0  0  0  0  0  0
   -2.7007   -3.7987    1.2203 O   0  0  0  0  0  0  0  0  0  0  0  0
    0.1877   -1.7616    0.3397 C   0  0  0  0  0  0  0  0  0  0  0  0
   -3.6845    1.8433    1.0168 H   0  0  0  0  0  0  0  0  0  0  0  0
   -3.1032    3.1842   -0.0580 H   0  0  0  0  0  0  0  0  0  0  0  0
   -3.6216    1.7160   -2.0673 H   0  0  0  0  0  0  0  0  0  0  0  0
   -4.1320    0.4496   -0.9407 H   0  0  0  0  0  0  0  0  0  0  0  0
   -1.4394    0.9681   -1.7863 H   0  0  0  0  0  0  0  0  0  0  0  0
    2.4304    2.4328   -0.1661 H   0  0  0  0  0  0  0  0  0  0  0  0
    4.6281   -0.3448    1.1483 H   0  0  0  0  0  0  0  0  0  0  0  0
    7.0401   -0.1915    1.1560 H   0  0  0  0  0  0  0  0  0  0  0  0
    8.2012    1.6841    0.1815 H   0  0  0  0  0  0  0  0  0  0  0  0
    4.4540    3.3739   -0.9119 H   0  0  0  0  0  0  0  0  0  0  0  0
   -0.2044   -5.0838    0.8341 H   0  0  0  0  0  0  0  0  0  0  0  0
   -2.6234   -2.2809   -1.5580 H   0  0  0  0  0  0  0  0  0  0  0  0
   -4.9814   -3.1598   -0.9513 H   0  0  0  0  0  0  0  0  0  0  0  0
   -4.7758   -4.3910    1.3975 H   0  0  0  0  0  0  0  0  0  0  0  0
  1  2  1  0
  2  3  1  0
  2  4  1  0
  2  5  1  0
  5  6  1  0
  6  7  1  0
  7  8  1  0
  8  9  2  0
  8 10  1  0
 10 11  2  0
 11 12  1  0
 12 13  1  0
 13 14  1  0
 14 15  2  0
 15 16  1  0
 16 17  2  0
 17 18  1  0
 18 19  1  0
 18 20  2  0
 12 21  2  0
 21 22  1  0
 22 23  1  0
 23 24  1  0
 24 25  2  0
 25 26  1  0
 26 27  2  0
 27 28  1  0
 28 29  2  0
 29 30  1  0
 25 31  1  0
 31 10  1  0
 20 14  1  0
 31 22  2  0
 30 26  1  0
  5 32  1  0
  5 33  1  0
  6 34  1  0
  6 35  1  0
  7 36  1  0
 13 37  1  0
 15 38  1  0
 16 39  1  0
 17 40  1  0
 20 41  1  0
 24 42  1  0
 27 43  1  0
 28 44  1  0
 29 45  1  0
M  END
$$$$
[H]C([H])([H])c1nc(N2C([H])([H])C([H])([H])N(C(=O)C([H])([H])[C@@]3([H])C([H])([H])C([H])([H])N(C(=O)C4([H])C([H])([H])C([H])([H])C4([H])[H])[C@@]([H])(C([H])([H])[H])C3([H])[H])C([H])([H])C([H])([H])C2([H])[H])no1
     RDKit          3D

 62 65  0  0  0  0  0  0  0  0999 V2000
   -2.6985    2.8149    0.5255 C   0  0  0  0  0  0  0  0  0  0  0  0
   -3.0390    1.6956   -0.4362 C   0  0  1  0  0  0  0  0  0  0  0  0
   -1.7780    0.9784   -0.8322 C   0  0  0  0  0  0  0  0  0  0  0  0
   -1.4109   -0.1731    0.0101 C   0  0  1  0  0  0  0  0  0  0  0  0
    0.0925   -0.0630    0.3274 C   0  0  0  0  0  0  0  0  0  0  0  0
    0.8956   -0.0798   -0.9058 C   0  0  0  0  0  0  0  0  0  0  0  0
    0.3552   -0.1949   -2.0427 O   0  0  0  0  0  0  0  0  0  0  0  0
    2.2960    0.0349   -0.8210 N   0  0  0  0  0  0  0  0  0  0  0  0
    2.8369    0.1663    0.5003 C   0  0  0  0  0  0  0  0  0  0  0  0
    3.4817    1.5197    0.7318 C   0  0  0  0  0  0  0  0  0  0  0  0
    4.8998    1.5727    0.2089 C   0  0  0  0  0  0  0  0  0  0  0  0
    4.9841    0.6497   -0.9058 N   0  0  0  0  0  0  0  0  0  0  0  0
    4.2548    0.7254   -2.1346 C   0  0  0  0  0  0  0  0  0  0  0  0
    2.9411   -0.0040   -2.1256 C   0  0  0  0  0  0  0  0  0  0  0  0
    5.8917   -0.4509   -0.7635 C   0  0  0  0  0  0  0  0  0  0  0  0
    6.1469   -1.4345   -1.6368 N   0  0  0  0  0  0  0  0  0  0  0  0
    7.0296   -2.2488   -1.1525 O   0  0  0  0  0  0  0  0  0  0  0  0
    7.3613   -1.8119    0.0357 C   0  0  0  0  0  0  0  0  0  0  0  0
    8.3456   -2.4167    0.9864 C   0  0  0  0  0  0  0  0  0  0  0  0
    6.6685   -0.6922    0.3065 N   0  0  0  0  0  0  0  0  0  0  0  0
   -2.1167   -0.3458    1.2933 C   0  0  0  0  0  0  0  0  0  0  0  0
   -3.4963    0.1672    1.4135 C   0  0  0  0  0  0  0  0  0  0  0  0
   -3.9897    0.7692    0.1979 N   0  0  0  0  0  0  0  0  0  0  0  0
   -5.2562    0.5051   -0.3406 C   0  0  0  0  0  0  0  0  0  0  0  0
   -5.6014    1.0773   -1.4048 O   0  0  0  0  0  0  0  0  0  0  0  0
   -6.1649   -0.4270    0.3306 C   0  0  0  0  0  0  0  0  0  0  0  0
   -7.5122   -0.5973   -0.3848 C   0  0  0  0  0  0  0  0  0  0  0  0
   -7.4226   -2.0701   -0.0414 C   0  0  0  0  0  0  0  0  0  0  0  0
   -5.8983   -1.8926   -0.0376 C   0  0  0  0  0  0  0  0  0  0  0  0
   -3.5591    3.4252    0.7990 H   0  0  0  0  0  0  0  0  0  0  0  0
   -2.2078    2.3299    1.4116 H   0  0  0  0  0  0  0  0  0  0  0  0
   -1.8847    3.4095    0.0290 H   0  0  0  0  0  0  0  0  0  0  0  0
   -3.5787    2.1475   -1.2915 H   0  0  0  0  0  0  0  0  0  0  0  0
   -1.9514    0.6419   -1.8984 H   0  0  0  0  0  0  0  0  0  0  0  0
   -0.9633    1.7290   -0.9094 H   0  0  0  0  0  0  0  0  0  0  0  0
   -1.4986   -1.1204   -0.5762 H   0  0  0  0  0  0  0  0  0  0  0  0
    0.4035   -0.9674    0.9298 H   0  0  0  0  0  0  0  0  0  0  0  0
    0.2807    0.8054    0.9890 H   0  0  0  0  0  0  0  0  0  0  0  0
    2.1131    0.0135    1.3179 H   0  0  0  0  0  0  0  0  0  0  0  0
    3.6479   -0.5956    0.6995 H   0  0  0  0  0  0  0  0  0  0  0  0
    2.8492    2.3240    0.3288 H   0  0  0  0  0  0  0  0  0  0  0  0
    3.5518    1.6581    1.8305 H   0  0  0  0  0  0  0  0  0  0  0  0
    5.0812    2.5879   -0.1615 H   0  0  0  0  0  0  0  0  0  0  0  0
    5.6248    1.2898    1.0078 H   0  0  0  0  0  0  0  0  0  0  0  0
    4.9126    0.3742   -2.9545 H   0  0  0  0  0  0  0  0  0  0  0  0
    4.0328    1.7955   -2.3673 H   0  0  0  0  0  0  0  0  0  0  0  0
    2.2552    0.3735   -2.8830 H   0  0  0  0  0  0  0  0  0  0  0  0
    3.1670   -1.0836   -2.3185 H   0  0  0  0  0  0  0  0  0  0  0  0
    7.9138   -2.3369    1.9993 H   0  0  0  0  0  0  0  0  0  0  0  0
    9.2644   -1.8072    0.9127 H   0  0  0  0  0  0  0  0  0  0  0  0
    8.5600   -3.4588    0.6794 H   0  0  0  0  0  0  0  0  0  0  0  0
   -1.5049    0.0984    2.1343 H   0  0  0  0  0  0  0  0  0  0  0  0
   -2.1386   -1.4460    1.5585 H   0  0  0  0  0  0  0  0  0  0  0  0
   -3.5825    0.9315    2.2409 H   0  0  0  0  0  0  0  0  0  0  0  0
   -4.2309   -0.6309    1.7285 H   0  0  0  0  0  0  0  0  0  0  0  0
   -6.3675   -0.2587    1.4004 H   0  0  0  0  0  0  0  0  0  0  0  0
   -7.4582   -0.4626   -1.4754 H   0  0  0  0  0  0  0  0  0  0  0  0
   -8.3515   -0.0732    0.1017 H   0  0  0  0  0  0  0  0  0  0  0  0
   -7.7935   -2.7446   -0.8371 H   0  0  0  0  0  0  0  0  0  0  0  0
   -7.7770   -2.2984    0.9735 H   0  0  0  0  0  0  0  0  0  0  0  0
   -5.3816   -2.4775    0.7205 H   0  0  0  0  0  0  0  0  0  0  0  0
   -5.5250   -1.9467   -1.0744 H   0  0  0  0  0  0  0  0  0  0  0  0
  1  2  1  0
  2  3  1  0
  3  4  1  0
  4  5  1  0
  5  6  1  0
  6  7  2  0
  6  8  1  0
  8  9  1  0
  9 10  1  0
 10 11  1  0
 11 12  1  0
 12 13  1  0
 13 14  1  0
 12 15  1  0
 15 16  2  0
 16 17  1  0
 17 18  1  0
 18 19  1  0
 18 20  2  0
  4 21  1  0
 21 22  1  0
 22 23  1  0
 23 24  1  0
 24 25  2  0
 24 26  1  0
 26 27  1  0
 27 28  1  0
 28 29  1  0
 23  2  1  0
 29 26  1  0
 14  8  1  0
 20 15  1  0
  1 30  1  0
  1 31  1  0
  1 32  1  0
  2 33  1  6
  3 34  1  0
  3 35  1  0
  4 36  1  6
  5 37  1  0
  5 38  1  0
  9 39  1  0
  9 40  1  0
 10 41  1  0
 10 42  1  0
 11 43  1  0
 11 44  1  0
 13 45  1  0
 13 46  1  0
 14 47  1  0
 14 48  1  0
 19 49  1  0
 19 50  1  0
 19 51  1  0
 21 52  1  0
 21 53  1  0
 22 54  1  0
 22 55  1  0
 26 56  1  0
 27 57  1  0
 27 58  1  0
 28 59  1  0
 28 60  1  0
 29 61  1  0
 29 62  1  0
M  END
$$$$
[H]c1nc(C([H])(N([H])C([H])([H])c2nc(N([H])c3c([H])c([H])c(-c4c([H])c([H])c([H])c([H])c4[H])c([H])c3[H])c([H])o2)C([H])([H])C([H])([H])C([H])(C([H])([H])[H])C([H])([H])[H])c([H])c([H])c1N([H])[H]
     RDKit          3D

 64 67  0  0  0  0  0  0  0  0999 V2000
   -6.4742   -2.1547   -1.6888 C   0  0  0  0  0  0  0  0  0  0  0  0
   -5.0089   -1.9352   -1.8500 C   0  0  0  0  0  0  0  0  0  0  0  0
   -4.7718   -1.2292   -3.1834 C   0  0  0  0  0  0  0  0  0  0  0  0
   -4.3857   -1.0526   -0.7934 C   0  0  0  0  0  0  0  0  0  0  0  0
   -4.5297   -1.5803    0.5830 C   0  0  0  0  0  0  0  0  0  0  0  0
   -3.8973   -0.6369    1.5734 C   0  0  0  0  0  0  0  0  0  0  0  0
   -2.5056   -0.4857    1.2395 N   0  0  0  0  0  0  0  0  0  0  0  0
   -1.7237   -1.6709    1.3180 C   0  0  0  0  0  0  0  0  0  0  0  0
   -0.3044   -1.3483    0.9471 C   0  0  0  0  0  0  0  0  0  0  0  0
    0.1331   -0.1809    0.4992 N   0  0  0  0  0  0  0  0  0  0  0  0
    1.4811   -0.2915    0.2783 C   0  0  0  0  0  0  0  0  0  0  0  0
    2.3332    0.6957   -0.2343 N   0  0  0  0  0  0  0  0  0  0  0  0
    3.7247    0.5382   -0.3301 C   0  0  0  0  0  0  0  0  0  0  0  0
    4.3270    1.0925   -1.4561 C   0  0  0  0  0  0  0  0  0  0  0  0
    5.6919    0.9965   -1.5682 C   0  0  0  0  0  0  0  0  0  0  0  0
    6.4875    0.3819   -0.6254 C   0  0  0  0  0  0  0  0  0  0  0  0
    5.8896   -0.1624    0.4827 C   0  0  0  0  0  0  0  0  0  0  0  0
    4.4988   -0.0744    0.6156 C   0  0  0  0  0  0  0  0  0  0  0  0
    7.9513    0.2915   -0.7709 C   0  0  0  0  0  0  0  0  0  0  0  0
    8.7423    0.2906    0.3637 C   0  0  0  0  0  0  0  0  0  0  0  0
   10.0975    0.2089    0.3255 C   0  0  0  0  0  0  0  0  0  0  0  0
   10.7146    0.1226   -0.9064 C   0  0  0  0  0  0  0  0  0  0  0  0
    9.9387    0.1214   -2.0698 C   0  0  0  0  0  0  0  0  0  0  0  0
    8.5717    0.2055   -1.9907 C   0  0  0  0  0  0  0  0  0  0  0  0
    1.8073   -1.5740    0.6165 C   0  0  0  0  0  0  0  0  0  0  0  0
    0.6907   -2.1653    1.0134 O   0  0  0  0  0  0  0  0  0  0  0  0
   -4.6176    0.6640    1.6596 C   0  0  0  0  0  0  0  0  0  0  0  0
   -4.0044    1.7670    2.2610 C   0  0  0  0  0  0  0  0  0  0  0  0
   -4.6633    2.9691    2.3600 C   0  0  0  0  0  0  0  0  0  0  0  0
   -5.9485    3.1425    1.8753 C   0  0  0  0  0  0  0  0  0  0  0  0
   -6.6300    4.3890    1.9786 N   0  0  0  0  0  0  0  0  0  0  0  0
   -6.5244    2.0345    1.2882 C   0  0  0  0  0  0  0  0  0  0  0  0
   -5.8609    0.8737    1.2040 N   0  0  0  0  0  0  0  0  0  0  0  0
   -7.0182   -1.2945   -1.2547 H   0  0  0  0  0  0  0  0  0  0  0  0
   -6.9033   -2.2637   -2.7292 H   0  0  0  0  0  0  0  0  0  0  0  0
   -6.7122   -3.1138   -1.1795 H   0  0  0  0  0  0  0  0  0  0  0  0
   -4.5072   -2.9102   -1.8963 H   0  0  0  0  0  0  0  0  0  0  0  0
   -5.0390   -0.1532   -3.0856 H   0  0  0  0  0  0  0  0  0  0  0  0
   -3.7006   -1.2847   -3.4644 H   0  0  0  0  0  0  0  0  0  0  0  0
   -5.4273   -1.6859   -3.9339 H   0  0  0  0  0  0  0  0  0  0  0  0
   -4.7306   -0.0165   -0.8703 H   0  0  0  0  0  0  0  0  0  0  0  0
   -3.2784   -1.0584   -1.0331 H   0  0  0  0  0  0  0  0  0  0  0  0
   -4.0560   -2.5791    0.7187 H   0  0  0  0  0  0  0  0  0  0  0  0
   -5.5928   -1.6991    0.9069 H   0  0  0  0  0  0  0  0  0  0  0  0
   -3.9088   -1.1355    2.6016 H   0  0  0  0  0  0  0  0  0  0  0  0
   -2.3049    0.0174    0.3653 H   0  0  0  0  0  0  0  0  0  0  0  0
   -1.7486   -2.1667    2.3071 H   0  0  0  0  0  0  0  0  0  0  0  0
   -2.0302   -2.4629    0.5803 H   0  0  0  0  0  0  0  0  0  0  0  0
    1.8642    1.6092   -0.5624 H   0  0  0  0  0  0  0  0  0  0  0  0
    3.7121    1.5868   -2.2187 H   0  0  0  0  0  0  0  0  0  0  0  0
    6.1557    1.4285   -2.4455 H   0  0  0  0  0  0  0  0  0  0  0  0
    6.4660   -0.6578    1.2561 H   0  0  0  0  0  0  0  0  0  0  0  0
    4.0858   -0.4983    1.5169 H   0  0  0  0  0  0  0  0  0  0  0  0
    8.2372    0.3599    1.3260 H   0  0  0  0  0  0  0  0  0  0  0  0
   10.7505    0.2055    1.1972 H   0  0  0  0  0  0  0  0  0  0  0  0
   11.7804    0.0545   -1.0248 H   0  0  0  0  0  0  0  0  0  0  0  0
   10.4174    0.0532   -3.0434 H   0  0  0  0  0  0  0  0  0  0  0  0
    7.9879    0.2033   -2.8997 H   0  0  0  0  0  0  0  0  0  0  0  0
    2.7607   -2.0906    0.5945 H   0  0  0  0  0  0  0  0  0  0  0  0
   -2.9990    1.6277    2.6393 H   0  0  0  0  0  0  0  0  0  0  0  0
   -4.1935    3.8226    2.8237 H   0  0  0  0  0  0  0  0  0  0  0  0
   -6.4300    5.0133    2.7848 H   0  0  0  0  0  0  0  0  0  0  0  0
   -7.3294    4.7161    1.2799 H   0  0  0  0  0  0  0  0  0  0  0  0
   -7.5390    2.1302    0.8924 H   0  0  0  0  0  0  0  0  0  0  0  0
  1  2  1  0
  2  3  1  0
  2  4  1  0
  4  5  1  0
  5  6  1  0
  6  7  1  0
  7  8  1  0
  8  9  1  0
  9 10  2  0
 10 11  1  0
 11 12  1  0
 12 13  1  0
 13 14  2  0
 14 15  1  0
 15 16  2  0
 16 17  1  0
 17 18  2  0
 16 19  1  0
 19 20  2  0
 20 21  1  0
 21 22  2  0
 22 23  1  0
 23 24  2  0
 11 25  2  0
 25 26  1  0
  6 27  1  0
 27 28  2  0
 28 29  1  0
 29 30  2  0
 30 31  1  0
 30 32  1  0
 32 33  2  0
 26  9  1  0
 33 27  1  0
 18 13  1  0
 24 19  1  0
  1 34  1  0
  1 35  1  0
  1 36  1  0
  2 37  1  0
  3 38  1  0
  3 39  1  0
  3 40  1  0
  4 41  1  0
  4 42  1  0
  5 43  1  0
  5 44  1  0
  6 45  1  0
  7 46  1  0
  8 47  1  0
  8 48  1  0
 12 49  1  0
 14 50  1  0
 15 51  1  0
 17 52  1  0
 18 53  1  0
 20 54  1  0
 21 55  1  0
 22 56  1  0
 23 57  1  0
 24 58  1  0
 25 59  1  0
 28 60  1  0
 29 61  1  0
 31 62  1  0
 31 63  1  0
 32 64  1  0
M  END
$$$$
[H]c1c(N([H])c2c(F)c([H])c([H])c([H])c2C(F)(F)F)nc2c(c1[H])C([H])([H])[C@@]([H])(N([H])C(=O)C1([H])C([H])([H])C([H])([H])N(C([H])([H])[H])C([H])([H])C1([H])[H])C([H])([H])C2([H])[H]
     RDKit          3D

 58 61  0  0  0  0  0  0  0  0999 V2000
   -8.3864   -0.9967   -0.3664 C   0  0  0  0  0  0  0  0  0  0  0  0
   -7.3446   -0.1139   -0.8148 N   0  0  0  0  0  0  0  0  0  0  0  0
   -6.0828   -0.7747   -1.0380 C   0  0  0  0  0  0  0  0  0  0  0  0
   -5.0921    0.2914   -1.4775 C   0  0  0  0  0  0  0  0  0  0  0  0
   -4.7435    1.1123   -0.2545 C   0  0  0  0  0  0  0  0  0  0  0  0
   -5.8570    1.0438    0.7542 C   0  0  0  0  0  0  0  0  0  0  0  0
   -7.1865    1.0357    0.0236 C   0  0  0  0  0  0  0  0  0  0  0  0
   -3.4666    0.5907    0.2748 C   0  0  0  0  0  0  0  0  0  0  0  0
   -3.4322    0.1371    1.4354 O   0  0  0  0  0  0  0  0  0  0  0  0
   -2.2992    0.6030   -0.5174 N   0  0  0  0  0  0  0  0  0  0  0  0
   -1.0735    0.0837    0.0390 C   0  0  1  0  0  0  0  0  0  0  0  0
   -0.7010   -1.1619   -0.7719 C   0  0  0  0  0  0  0  0  0  0  0  0
    0.3585   -1.8647    0.0856 C   0  0  0  0  0  0  0  0  0  0  0  0
    1.5451   -0.9402    0.0654 C   0  0  0  0  0  0  0  0  0  0  0  0
    2.7663   -1.5005    0.0661 N   0  0  0  0  0  0  0  0  0  0  0  0
    3.9169   -0.7862    0.0491 C   0  0  0  0  0  0  0  0  0  0  0  0
    5.1851   -1.4294    0.0293 N   0  0  0  0  0  0  0  0  0  0  0  0
    6.4299   -0.7598    0.0491 C   0  0  0  0  0  0  0  0  0  0  0  0
    6.9159   -0.2702   -1.1694 C   0  0  0  0  0  0  0  0  0  0  0  0
    6.1942   -0.4230   -2.3227 F   0  0  0  0  0  0  0  0  0  0  0  0
    8.1305    0.3783   -1.2469 C   0  0  0  0  0  0  0  0  0  0  0  0
    8.8593    0.5340   -0.0891 C   0  0  0  0  0  0  0  0  0  0  0  0
    8.3639    0.0455    1.0961 C   0  0  0  0  0  0  0  0  0  0  0  0
    7.1498   -0.6094    1.2058 C   0  0  0  0  0  0  0  0  0  0  0  0
    6.7215   -1.1133    2.5149 C   0  0  0  0  0  0  0  0  0  0  0  0
    5.5484   -0.5702    2.9232 F   0  0  0  0  0  0  0  0  0  0  0  0
    6.6880   -2.5036    2.5256 F   0  0  0  0  0  0  0  0  0  0  0  0
    7.6948   -0.7753    3.4568 F   0  0  0  0  0  0  0  0  0  0  0  0
    3.7506    0.5834    0.0306 C   0  0  0  0  0  0  0  0  0  0  0  0
    2.5157    1.1955    0.0293 C   0  0  0  0  0  0  0  0  0  0  0  0
    1.3591    0.4232    0.0472 C   0  0  0  0  0  0  0  0  0  0  0  0
    0.0221    1.0882    0.0459 C   0  0  0  0  0  0  0  0  0  0  0  0
   -9.2327   -0.9302   -1.0950 H   0  0  0  0  0  0  0  0  0  0  0  0
   -8.7755   -0.5728    0.5980 H   0  0  0  0  0  0  0  0  0  0  0  0
   -8.0608   -2.0215   -0.1631 H   0  0  0  0  0  0  0  0  0  0  0  0
   -5.7623   -1.2266   -0.0786 H   0  0  0  0  0  0  0  0  0  0  0  0
   -6.1993   -1.5445   -1.8455 H   0  0  0  0  0  0  0  0  0  0  0  0
   -5.6133    0.9303   -2.2003 H   0  0  0  0  0  0  0  0  0  0  0  0
   -4.1637   -0.1772   -1.9087 H   0  0  0  0  0  0  0  0  0  0  0  0
   -4.6261    2.1791   -0.6048 H   0  0  0  0  0  0  0  0  0  0  0  0
   -5.8807    1.9535    1.4112 H   0  0  0  0  0  0  0  0  0  0  0  0
   -5.7154    0.1759    1.4031 H   0  0  0  0  0  0  0  0  0  0  0  0
   -7.9775    1.1353    0.7971 H   0  0  0  0  0  0  0  0  0  0  0  0
   -7.2135    1.9736   -0.5918 H   0  0  0  0  0  0  0  0  0  0  0  0
   -2.2908    0.9801   -1.5065 H   0  0  0  0  0  0  0  0  0  0  0  0
   -1.2253   -0.2767    1.0758 H   0  0  0  0  0  0  0  0  0  0  0  0
   -0.1807   -0.8680   -1.7059 H   0  0  0  0  0  0  0  0  0  0  0  0
   -1.5826   -1.7862   -0.9226 H   0  0  0  0  0  0  0  0  0  0  0  0
   -0.0245   -1.8592    1.1138 H   0  0  0  0  0  0  0  0  0  0  0  0
    0.6330   -2.8380   -0.3138 H   0  0  0  0  0  0  0  0  0  0  0  0
    5.2019   -2.4712   -0.0021 H   0  0  0  0  0  0  0  0  0  0  0  0
    8.5254    0.7652   -2.1811 H   0  0  0  0  0  0  0  0  0  0  0  0
    9.8243    1.0428   -0.1159 H   0  0  0  0  0  0  0  0  0  0  0  0
    8.9801    0.1929    1.9935 H   0  0  0  0  0  0  0  0  0  0  0  0
    4.6675    1.1927    0.0164 H   0  0  0  0  0  0  0  0  0  0  0  0
    2.3997    2.2670    0.0148 H   0  0  0  0  0  0  0  0  0  0  0  0
   -0.1018    1.7519   -0.8341 H   0  0  0  0  0  0  0  0  0  0  0  0
   -0.0554    1.7000    0.9677 H   0  0  0  0  0  0  0  0  0  0  0  0
  1  2  1  0
  2  3  1  0
  3  4  1  0
  4  5  1  0
  5  6  1  0
  6  7  1  0
  5  8  1  0
  8  9  2  0
  8 10  1  0
 10 11  1  0
 11 12  1  0
 12 13  1  0
 13 14  1  0
 14 15  2  0
 15 16  1  0
 16 17  1  0
 17 18  1  0
 18 19  2  0
 19 20  1  0
 19 21  1  0
 21 22  2  0
 22 23  1  0
 23 24  2  0
 24 25  1  0
 25 26  1  0
 25 27  1  0
 25 28  1  0
 16 29  2  0
 29 30  1  0
 30 31  2  0
 31 32  1  0
  7  2  1  0
 32 11  1  0
 31 14  1  0
 24 18  1  0
  1 33  1  0
  1 34  1  0
  1 35  1  0
  3 36  1  0
  3 37  1  0
  4 38  1  0
  4 39  1  0
  5 40  1  0
  6 41  1  0
  6 42  1  0
  7 43  1  0
  7 44  1  0
 10 45  1  0
 11 46  1  1
 12 47  1  0
 12 48  1  0
 13 49  1  0
 13 50  1  0
 17 51  1  0
 21 52  1  0
 22 53  1  0
 23 54  1  0
 29 55  1  0
 30 56  1  0
 32 57  1  0
 32 58  1  0
M  END
$$$$
[H]c1nc([H])c(C([H])(N([H])C(=O)c2c([H])c([H])c(-c3nc(-c4c([H])c([H])c(C([H])([H])[H])c([H])c4[H])no3)c(OC([H])([H])C([H])([H])[H])c2[H])C([H])([H])[H])s1
     RDKit          3D

 53 56  0  0  0  0  0  0  0  0999 V2000
   -0.2937   -3.5842    2.6417 C   0  0  0  0  0  0  0  0  0  0  0  0
   -0.9680   -2.6281    1.6937 C   0  0  0  0  0  0  0  0  0  0  0  0
   -0.0171   -1.7759    1.0689 O   0  0  0  0  0  0  0  0  0  0  0  0
   -0.3966   -0.8075    0.1518 C   0  0  0  0  0  0  0  0  0  0  0  0
   -1.7429   -0.6363   -0.1916 C   0  0  0  0  0  0  0  0  0  0  0  0
   -2.1277    0.3143   -1.0935 C   0  0  0  0  0  0  0  0  0  0  0  0
   -1.1548    1.1140   -1.6687 C   0  0  0  0  0  0  0  0  0  0  0  0
    0.1650    0.9291   -1.3166 C   0  0  0  0  0  0  0  0  0  0  0  0
    0.5799   -0.0193   -0.4124 C   0  0  0  0  0  0  0  0  0  0  0  0
    1.9811   -0.1962   -0.0559 C   0  0  0  0  0  0  0  0  0  0  0  0
    3.0280    0.5108   -0.5359 N   0  0  0  0  0  0  0  0  0  0  0  0
    4.1709    0.0712    0.0176 C   0  0  0  0  0  0  0  0  0  0  0  0
    3.8026   -0.9164    0.8436 N   0  0  0  0  0  0  0  0  0  0  0  0
    2.4948   -1.0575    0.7832 O   0  0  0  0  0  0  0  0  0  0  0  0
    5.5121    0.5890   -0.2524 C   0  0  0  0  0  0  0  0  0  0  0  0
    5.6650    1.6231   -1.1514 C   0  0  0  0  0  0  0  0  0  0  0  0
    6.9107    2.1466   -1.4402 C   0  0  0  0  0  0  0  0  0  0  0  0
    8.0551    1.6481   -0.8335 C   0  0  0  0  0  0  0  0  0  0  0  0
    9.3906    2.2187   -1.1516 C   0  0  0  0  0  0  0  0  0  0  0  0
    7.8685    0.6163    0.0587 C   0  0  0  0  0  0  0  0  0  0  0  0
    6.6354    0.0925    0.3495 C   0  0  0  0  0  0  0  0  0  0  0  0
   -3.5153    0.4973   -1.4499 C   0  0  0  0  0  0  0  0  0  0  0  0
   -3.7779    1.3662   -2.3462 O   0  0  0  0  0  0  0  0  0  0  0  0
   -4.5764   -0.2272   -0.8633 N   0  0  0  0  0  0  0  0  0  0  0  0
   -5.9442    0.0115   -1.2719 C   0  0  0  0  0  0  0  0  0  0  0  0
   -6.6164   -1.2243   -1.7685 C   0  0  0  0  0  0  0  0  0  0  0  0
   -6.7588    0.5800   -0.1448 C   0  0  0  0  0  0  0  0  0  0  0  0
   -8.0239    0.2159    0.2533 C   0  0  0  0  0  0  0  0  0  0  0  0
   -8.5372    0.8478    1.2604 N   0  0  0  0  0  0  0  0  0  0  0  0
   -7.8470    1.8034    1.8641 C   0  0  0  0  0  0  0  0  0  0  0  0
   -6.3922    1.8191    0.9693 S   0  0  0  0  0  0  0  0  0  0  0  0
   -0.9512   -3.9073    3.4605 H   0  0  0  0  0  0  0  0  0  0  0  0
    0.0081   -4.5187    2.0876 H   0  0  0  0  0  0  0  0  0  0  0  0
    0.6120   -3.0682    3.0567 H   0  0  0  0  0  0  0  0  0  0  0  0
   -1.6780   -1.9922    2.2804 H   0  0  0  0  0  0  0  0  0  0  0  0
   -1.5869   -3.1492    0.9243 H   0  0  0  0  0  0  0  0  0  0  0  0
   -2.4829   -1.2650    0.2631 H   0  0  0  0  0  0  0  0  0  0  0  0
   -1.4553    1.8795   -2.3936 H   0  0  0  0  0  0  0  0  0  0  0  0
    0.9132    1.5583   -1.7714 H   0  0  0  0  0  0  0  0  0  0  0  0
    4.7884    2.0546   -1.6606 H   0  0  0  0  0  0  0  0  0  0  0  0
    7.0368    2.9700   -2.1554 H   0  0  0  0  0  0  0  0  0  0  0  0
   10.1136    2.0658   -0.3257 H   0  0  0  0  0  0  0  0  0  0  0  0
    9.8164    1.6670   -2.0345 H   0  0  0  0  0  0  0  0  0  0  0  0
    9.3380    3.3117   -1.3311 H   0  0  0  0  0  0  0  0  0  0  0  0
    8.7748    0.2184    0.5420 H   0  0  0  0  0  0  0  0  0  0  0  0
    6.5072   -0.7200    1.0546 H   0  0  0  0  0  0  0  0  0  0  0  0
   -4.4018   -0.9399   -0.1331 H   0  0  0  0  0  0  0  0  0  0  0  0
   -5.9621    0.8012   -2.0643 H   0  0  0  0  0  0  0  0  0  0  0  0
   -7.1234   -1.8084   -0.9832 H   0  0  0  0  0  0  0  0  0  0  0  0
   -7.2722   -1.0225   -2.6468 H   0  0  0  0  0  0  0  0  0  0  0  0
   -5.8114   -1.9056   -2.1702 H   0  0  0  0  0  0  0  0  0  0  0  0
   -8.5974   -0.5945   -0.2655 H   0  0  0  0  0  0  0  0  0  0  0  0
   -8.1557    2.4230    2.7294 H   0  0  0  0  0  0  0  0  0  0  0  0
  1  2  1  0
  2  3  1  0
  3  4  1  0
  4  5  2  0
  5  6  1  0
  6  7  2  0
  7  8  1  0
  8  9  2  0
  9 10  1  0
 10 11  2  0
 11 12  1  0
 12 13  2  0
 13 14  1  0
 12 15  1  0
 15 16  2  0
 16 17  1  0
 17 18  2  0
 18 19  1  0
 18 20  1  0
 20 21  2  0
  6 22  1  0
 22 23  2  0
 22 24  1  0
 24 25  1  0
 25 26  1  0
 25 27  1  0
 27 28  2  0
 28 29  1  0
 29 30  2  0
 30 31  1  0
  9  4  1  0
 14 10  1  0
 21 15  1  0
 31 27  1  0
  1 32  1  0
  1 33  1  0
  1 34  1  0
  2 35  1  0
  2 36  1  0
  5 37  1  0
  7 38  1  0
  8 39  1  0
 16 40  1  0
 17 41  1  0
 19 42  1  0
 19 43  1  0
 19 44  1  0
 20 45  1  0
 21 46  1  0
 24 47  1  0
 25 48  1  0
 26 49  1  0
 26 50  1  0
 26 51  1  0
 28 52  1  0
 30 53  1  0
M  END
$$$$
[H]c1nc(C([H])([H])N(c2c([H])nc([H])c([H])c2C([H])([H])[H])S(=O)(=O)c2c([H])c([H])c(OC([H])(C([H])([H])[H])C([H])([H])[H])c([H])c2[H])c([H])c([H])c1[H]
     RDKit          3D

 51 53  0  0  0  0  0  0  0  0999 V2000
    6.9162   -1.1647    0.8439 C   0  0  0  0  0  0  0  0  0  0  0  0
    5.7222   -1.0448   -0.1146 C   0  0  0  0  0  0  0  0  0  0  0  0
    6.2711   -0.7654   -1.5166 C   0  0  0  0  0  0  0  0  0  0  0  0
    4.9744    0.0464    0.2713 O   0  0  0  0  0  0  0  0  0  0  0  0
    3.6241    0.0864    0.6046 C   0  0  0  0  0  0  0  0  0  0  0  0
    3.0330    1.2917    0.9742 C   0  0  0  0  0  0  0  0  0  0  0  0
    1.7023    1.3692    1.3098 C   0  0  0  0  0  0  0  0  0  0  0  0
    0.8785    0.2639    1.3004 C   0  0  0  0  0  0  0  0  0  0  0  0
    1.4549   -0.9293    0.9367 C   0  0  0  0  0  0  0  0  0  0  0  0
    2.8047   -1.0186    0.5942 C   0  0  0  0  0  0  0  0  0  0  0  0
   -0.8360    0.3479    1.7298 S   0  0  0  0  0  0  0  0  0  0  0  0
   -0.9405    1.4486    2.7515 O   0  0  0  0  0  0  0  0  0  0  0  0
   -1.2576   -0.9596    2.3144 O   0  0  0  0  0  0  0  0  0  0  0  0
   -1.7918    0.6671    0.3323 N   0  0  0  0  0  0  0  0  0  0  0  0
   -1.8187   -0.2308   -0.7525 C   0  0  0  0  0  0  0  0  0  0  0  0
   -2.6741   -1.3867   -0.8400 C   0  0  0  0  0  0  0  0  0  0  0  0
   -3.5058   -1.9496    0.0780 C   0  0  0  0  0  0  0  0  0  0  0  0
   -4.2593   -3.0993   -0.1919 C   0  0  0  0  0  0  0  0  0  0  0  0
   -4.1758   -3.7050   -1.4248 C   0  0  0  0  0  0  0  0  0  0  0  0
   -3.3287   -3.1215   -2.3433 C   0  0  0  0  0  0  0  0  0  0  0  0
   -2.6344   -2.0410   -2.0579 N   0  0  0  0  0  0  0  0  0  0  0  0
   -2.4068    1.9603    0.2636 C   0  0  0  0  0  0  0  0  0  0  0  0
   -1.7077    2.9864   -0.4026 C   0  0  0  0  0  0  0  0  0  0  0  0
   -2.1996    4.2170   -0.5568 N   0  0  0  0  0  0  0  0  0  0  0  0
   -3.4170    4.5605   -0.0763 C   0  0  0  0  0  0  0  0  0  0  0  0
   -4.1028    3.5663    0.5742 C   0  0  0  0  0  0  0  0  0  0  0  0
   -3.6241    2.2721    0.7559 C   0  0  0  0  0  0  0  0  0  0  0  0
   -4.4916    1.3639    1.5125 C   0  0  0  0  0  0  0  0  0  0  0  0
    6.9951   -0.2533    1.4817 H   0  0  0  0  0  0  0  0  0  0  0  0
    7.8474   -1.3541    0.2964 H   0  0  0  0  0  0  0  0  0  0  0  0
    6.6777   -2.0150    1.5267 H   0  0  0  0  0  0  0  0  0  0  0  0
    5.1806   -1.9839   -0.1603 H   0  0  0  0  0  0  0  0  0  0  0  0
    6.8532    0.1796   -1.5308 H   0  0  0  0  0  0  0  0  0  0  0  0
    5.4393   -0.6937   -2.2216 H   0  0  0  0  0  0  0  0  0  0  0  0
    6.9217   -1.5965   -1.8381 H   0  0  0  0  0  0  0  0  0  0  0  0
    3.6544    2.1660    0.9890 H   0  0  0  0  0  0  0  0  0  0  0  0
    1.2269    2.3104    1.6018 H   0  0  0  0  0  0  0  0  0  0  0  0
    0.8519   -1.8141    0.9155 H   0  0  0  0  0  0  0  0  0  0  0  0
    3.2411   -1.9665    0.3104 H   0  0  0  0  0  0  0  0  0  0  0  0
   -1.9729    0.3420   -1.7389 H   0  0  0  0  0  0  0  0  0  0  0  0
   -0.7281   -0.6122   -0.8835 H   0  0  0  0  0  0  0  0  0  0  0  0
   -3.6413   -1.5431    1.0673 H   0  0  0  0  0  0  0  0  0  0  0  0
   -4.9161   -3.5387    0.5424 H   0  0  0  0  0  0  0  0  0  0  0  0
   -4.7189   -4.5838   -1.7058 H   0  0  0  0  0  0  0  0  0  0  0  0
   -3.2333   -3.5762   -3.3435 H   0  0  0  0  0  0  0  0  0  0  0  0
   -0.7390    2.7660   -0.8019 H   0  0  0  0  0  0  0  0  0  0  0  0
   -3.8002    5.5622   -0.2108 H   0  0  0  0  0  0  0  0  0  0  0  0
   -5.0916    3.8195    0.9726 H   0  0  0  0  0  0  0  0  0  0  0  0
   -3.9227    0.5940    2.0792 H   0  0  0  0  0  0  0  0  0  0  0  0
   -5.1189    1.9556    2.2079 H   0  0  0  0  0  0  0  0  0  0  0  0
   -5.2155    0.8042    0.8590 H   0  0  0  0  0  0  0  0  0  0  0  0
  1  2  1  0
  2  3  1  0
  2  4  1  0
  4  5  1  0
  5  6  2  0
  6  7  1  0
  7  8  2  0
  8  9  1  0
  9 10  2  0
  8 11  1  0
 11 12  2  0
 11 13  2  0
 11 14  1  0
 14 15  1  0
 15 16  1  0
 16 17  2  0
 17 18  1  0
 18 19  2  0
 19 20  1  0
 20 21  2  0
 14 22  1  0
 22 23  2  0
 23 24  1  0
 24 25  2  0
 25 26  1  0
 26 27  2  0
 27 28  1  0
 10  5  1  0
 21 16  1  0
 27 22  1  0
  1 29  1  0
  1 30  1  0
  1 31  1  0
  2 32  1  0
  3 33  1  0
  3 34  1  0
  3 35  1  0
  6 36  1  0
  7 37  1  0
  9 38  1  0
 10 39  1  0
 15 40  1  0
 15 41  1  0
 17 42  1  0
 18 43  1  0
 19 44  1  0
 20 45  1  0
 23 46  1  0
 25 47  1  0
 26 48  1  0
 28 49  1  0
 28 50  1  0
 28 51  1  0
M  END
$$$$
[H]Oc1c([H])c(OC([H])([H])C([H])([H])C(=O)N2C([H])([H])C([H])([H])N(C(=O)N([H])C3([H])C([H])([H])C([H])([H])C([H])([H])C([H])([H])C3([H])[H])C([H])([H])C2([H])[H])c(-c2c([H])c([H])c(C(=O)N3C([H])([H])C([H])([H])N(C([H])([H])[H])C([H])([H])C3([H])[H])c([H])c2[H])c([H])c1O[H]
     RDKit          3D

 86 90  0  0  0  0  0  0  0  0999 V2000
   -9.2674   -3.9820    1.3309 C   0  0  0  0  0  0  0  0  0  0  0  0
   -7.9196   -3.4441    1.1992 N   0  0  0  0  0  0  0  0  0  0  0  0
   -7.6019   -3.3115   -0.2220 C   0  0  0  0  0  0  0  0  0  0  0  0
   -7.8383   -1.8834   -0.6736 C   0  0  0  0  0  0  0  0  0  0  0  0
   -6.7640   -1.0657   -0.0468 N   0  0  0  0  0  0  0  0  0  0  0  0
   -6.5945   -1.3580    1.3586 C   0  0  0  0  0  0  0  0  0  0  0  0
   -7.8133   -2.1531    1.8577 C   0  0  0  0  0  0  0  0  0  0  0  0
   -6.1061   -0.1380   -0.8344 C   0  0  0  0  0  0  0  0  0  0  0  0
   -6.5565   -0.0710   -2.0599 O   0  0  0  0  0  0  0  0  0  0  0  0
   -5.0285    0.7435   -0.5098 C   0  0  0  0  0  0  0  0  0  0  0  0
   -4.2894    0.7541    0.6418 C   0  0  0  0  0  0  0  0  0  0  0  0
   -3.2764    1.6905    0.8907 C   0  0  0  0  0  0  0  0  0  0  0  0
   -2.9741    2.6593   -0.0307 C   0  0  0  0  0  0  0  0  0  0  0  0
   -3.6922    2.6798   -1.1971 C   0  0  0  0  0  0  0  0  0  0  0  0
   -4.6834    1.7554   -1.4288 C   0  0  0  0  0  0  0  0  0  0  0  0
   -1.9260    3.6490    0.2256 C   0  0  0  0  0  0  0  0  0  0  0  0
   -1.8736    4.2826    1.4333 C   0  0  0  0  0  0  0  0  0  0  0  0
   -0.9010    5.2426    1.7297 C   0  0  0  0  0  0  0  0  0  0  0  0
   -0.8956    5.8500    2.9655 O   0  0  0  0  0  0  0  0  0  0  0  0
    0.0380    5.5713    0.7888 C   0  0  0  0  0  0  0  0  0  0  0  0
    1.0399    6.5087    0.9871 O   0  0  0  0  0  0  0  0  0  0  0  0
   -0.0075    4.9313   -0.4440 C   0  0  0  0  0  0  0  0  0  0  0  0
   -0.9610    3.9874   -0.7369 C   0  0  0  0  0  0  0  0  0  0  0  0
   -1.0655    3.3249   -1.9163 O   0  0  0  0  0  0  0  0  0  0  0  0
   -0.3949    3.2947   -3.0942 C   0  0  0  0  0  0  0  0  0  0  0  0
    1.0259    2.8165   -2.9507 C   0  0  0  0  0  0  0  0  0  0  0  0
    1.0503    1.4326   -2.3841 C   0  0  0  0  0  0  0  0  0  0  0  0
   -0.0457    0.9066   -2.0880 O   0  0  0  0  0  0  0  0  0  0  0  0
    2.2437    0.7185   -2.1778 N   0  0  0  0  0  0  0  0  0  0  0  0
    3.5543    1.2533   -2.4976 C   0  0  0  0  0  0  0  0  0  0  0  0
    4.4192    1.2117   -1.2629 C   0  0  0  0  0  0  0  0  0  0  0  0
    4.3110   -0.0306   -0.5230 N   0  0  0  0  0  0  0  0  0  0  0  0
    3.0273   -0.6335   -0.3205 C   0  0  0  0  0  0  0  0  0  0  0  0
    2.2171   -0.6171   -1.6230 C   0  0  0  0  0  0  0  0  0  0  0  0
    5.4852   -0.6348   -0.0079 C   0  0  0  0  0  0  0  0  0  0  0  0
    6.6160   -0.0614   -0.2322 O   0  0  0  0  0  0  0  0  0  0  0  0
    5.5248   -1.8359    0.7459 N   0  0  0  0  0  0  0  0  0  0  0  0
    6.7769   -2.3724    1.2229 C   0  0  0  0  0  0  0  0  0  0  0  0
    7.0659   -3.7693    0.7081 C   0  0  0  0  0  0  0  0  0  0  0  0
    7.6498   -4.6358    1.8083 C   0  0  0  0  0  0  0  0  0  0  0  0
    8.7039   -3.9536    2.6147 C   0  0  0  0  0  0  0  0  0  0  0  0
    8.3114   -2.5886    3.1097 C   0  0  0  0  0  0  0  0  0  0  0  0
    6.8731   -2.3331    2.7380 C   0  0  0  0  0  0  0  0  0  0  0  0
   -9.9755   -3.4142    0.6595 H   0  0  0  0  0  0  0  0  0  0  0  0
   -9.2169   -5.0499    1.0459 H   0  0  0  0  0  0  0  0  0  0  0  0
   -9.6317   -3.8204    2.3646 H   0  0  0  0  0  0  0  0  0  0  0  0
   -8.2564   -3.9839   -0.7715 H   0  0  0  0  0  0  0  0  0  0  0  0
   -6.5309   -3.5350   -0.3432 H   0  0  0  0  0  0  0  0  0  0  0  0
   -8.8293   -1.5727   -0.3653 H   0  0  0  0  0  0  0  0  0  0  0  0
   -7.6708   -1.8135   -1.7599 H   0  0  0  0  0  0  0  0  0  0  0  0
   -5.6996   -1.9678    1.5259 H   0  0  0  0  0  0  0  0  0  0  0  0
   -6.6083   -0.4252    1.9884 H   0  0  0  0  0  0  0  0  0  0  0  0
   -7.7001   -2.2686    2.9571 H   0  0  0  0  0  0  0  0  0  0  0  0
   -8.7067   -1.5342    1.6617 H   0  0  0  0  0  0  0  0  0  0  0  0
   -4.4582    0.0071    1.4004 H   0  0  0  0  0  0  0  0  0  0  0  0
   -2.7372    1.6372    1.8191 H   0  0  0  0  0  0  0  0  0  0  0  0
   -3.4907    3.4426   -1.9698 H   0  0  0  0  0  0  0  0  0  0  0  0
   -5.2501    1.7786   -2.3584 H   0  0  0  0  0  0  0  0  0  0  0  0
   -2.6113    4.0383    2.2016 H   0  0  0  0  0  0  0  0  0  0  0  0
   -0.2220    6.5377    3.2123 H   0  0  0  0  0  0  0  0  0  0  0  0
    1.1142    6.9903    1.8401 H   0  0  0  0  0  0  0  0  0  0  0  0
    0.7374    5.2162   -1.1887 H   0  0  0  0  0  0  0  0  0  0  0  0
   -0.3640    4.3140   -3.6000 H   0  0  0  0  0  0  0  0  0  0  0  0
   -0.9082    2.6654   -3.8741 H   0  0  0  0  0  0  0  0  0  0  0  0
    1.6198    3.4677   -2.3284 H   0  0  0  0  0  0  0  0  0  0  0  0
    1.4746    2.7700   -3.9781 H   0  0  0  0  0  0  0  0  0  0  0  0
    4.0624    0.6255   -3.2644 H   0  0  0  0  0  0  0  0  0  0  0  0
    3.4107    2.3007   -2.8150 H   0  0  0  0  0  0  0  0  0  0  0  0
    4.1327    2.1023   -0.6477 H   0  0  0  0  0  0  0  0  0  0  0  0
    5.4658    1.3925   -1.5837 H   0  0  0  0  0  0  0  0  0  0  0  0
    3.1292   -1.7071   -0.0756 H   0  0  0  0  0  0  0  0  0  0  0  0
    2.4502   -0.1556    0.4987 H   0  0  0  0  0  0  0  0  0  0  0  0
    1.2054   -0.9924   -1.4181 H   0  0  0  0  0  0  0  0  0  0  0  0
    2.7851   -1.2679   -2.3290 H   0  0  0  0  0  0  0  0  0  0  0  0
    4.6648   -2.3469    0.9694 H   0  0  0  0  0  0  0  0  0  0  0  0
    7.5898   -1.7146    0.8565 H   0  0  0  0  0  0  0  0  0  0  0  0
    7.7159   -3.7649   -0.1804 H   0  0  0  0  0  0  0  0  0  0  0  0
    6.0988   -4.2212    0.4129 H   0  0  0  0  0  0  0  0  0  0  0  0
    6.8583   -5.0992    2.4480 H   0  0  0  0  0  0  0  0  0  0  0  0
    8.1379   -5.5055    1.2903 H   0  0  0  0  0  0  0  0  0  0  0  0
    8.8641   -4.6021    3.5277 H   0  0  0  0  0  0  0  0  0  0  0  0
    9.6980   -3.9405    2.1097 H   0  0  0  0  0  0  0  0  0  0  0  0
    9.0011   -1.8503    2.6293 H   0  0  0  0  0  0  0  0  0  0  0  0
    8.4278   -2.5391    4.2149 H   0  0  0  0  0  0  0  0  0  0  0  0
    6.4975   -1.3874    3.1479 H   0  0  0  0  0  0  0  0  0  0  0  0
    6.2688   -3.1976    3.1026 H   0  0  0  0  0  0  0  0  0  0  0  0
  1  2  1  0
  2  3  1  0
  3  4  1  0
  4  5  1  0
  5  6  1  0
  6  7  1  0
  5  8  1  0
  8  9  2  0
  8 10  1  0
 10 11  2  0
 11 12  1  0
 12 13  2  0
 13 14  1  0
 14 15  2  0
 13 16  1  0
 16 17  2  0
 17 18  1  0
 18 19  1  0
 18 20  2  0
 20 21  1  0
 20 22  1  0
 22 23  2  0
 23 24  1  0
 24 25  1  0
 25 26  1  0
 26 27  1  0
 27 28  2  0
 27 29  1  0
 29 30  1  0
 30 31  1  0
 31 32  1  0
 32 33  1  0
 33 34  1  0
 32 35  1  0
 35 36  2  0
 35 37  1  0
 37 38  1  0
 38 39  1  0
 39 40  1  0
 40 41  1  0
 41 42  1  0
 42 43  1  0
  7  2  1  0
 15 10  1  0
 23 16  1  0
 34 29  1  0
 43 38  1  0
  1 44  1  0
  1 45  1  0
  1 46  1  0
  3 47  1  0
  3 48  1  0
  4 49  1  0
  4 50  1  0
  6 51  1  0
  6 52  1  0
  7 53  1  0
  7 54  1  0
 11 55  1  0
 12 56  1  0
 14 57  1  0
 15 58  1  0
 17 59  1  0
 19 60  1  0
 21 61  1  0
 22 62  1  0
 25 63  1  0
 25 64  1  0
 26 65  1  0
 26 66  1  0
 30 67  1  0
 30 68  1  0
 31 69  1  0
 31 70  1  0
 33 71  1  0
 33 72  1  0
 34 73  1  0
 34 74  1  0
 37 75  1  0
 38 76  1  0
 39 77  1  0
 39 78  1  0
 40 79  1  0
 40 80  1  0
 41 81  1  0
 41 82  1  0
 42 83  1  0
 42 84  1  0
 43 85  1  0
 43 86  1  0
M  END
$$$$
[H]c1nc2c([H])c(OC([H])([H])C([H])([H])C([H])([H])N3C([H])([H])C([H])([H])N([H])C([H])([H])C3([H])[H])c(OC([H])([H])[H])c([H])c2c(Oc2c([H])c([H])c(N3C(=O)c4c(c(-c5c([H])c([H])c(C([H])([H])[H])c([H])c5F)nn4[H])C([H])([H])C3([H])[H])c([H])c2OC([H])([H])[H])c1[H]
     RDKit          3D

 88 94  0  0  0  0  0  0  0  0999 V2000
   -3.0722    2.2165    1.2960 C   0  0  0  0  0  0  0  0  0  0  0  0
   -4.0769    1.3827    0.7581 O   0  0  0  0  0  0  0  0  0  0  0  0
   -3.8615    0.2141    0.0668 C   0  0  0  0  0  0  0  0  0  0  0  0
   -2.5771   -0.2758   -0.1955 C   0  0  0  0  0  0  0  0  0  0  0  0
   -2.3835   -1.4552   -0.8929 C   0  0  0  0  0  0  0  0  0  0  0  0
   -1.0560   -1.9145   -1.1571 C   0  0  0  0  0  0  0  0  0  0  0  0
   -0.0535   -1.1629   -0.7082 O   0  0  0  0  0  0  0  0  0  0  0  0
    1.2575   -1.0503   -0.8524 C   0  0  0  0  0  0  0  0  0  0  0  0
    2.0767   -1.7131   -1.7562 C   0  0  0  0  0  0  0  0  0  0  0  0
    3.4446   -1.5018   -1.8007 C   0  0  0  0  0  0  0  0  0  0  0  0
    4.0718   -0.6172   -0.9482 C   0  0  0  0  0  0  0  0  0  0  0  0
    3.2823    0.0442   -0.0515 C   0  0  0  0  0  0  0  0  0  0  0  0
    1.9207   -0.1502    0.0123 C   0  0  0  0  0  0  0  0  0  0  0  0
    1.1276    0.5296    0.9331 O   0  0  0  0  0  0  0  0  0  0  0  0
    1.7427    1.4511    1.8333 C   0  0  0  0  0  0  0  0  0  0  0  0
    5.4728   -0.3822   -1.0303 N   0  0  0  0  0  0  0  0  0  0  0  0
    6.4615   -0.9017   -0.1351 C   0  0  0  0  0  0  0  0  0  0  0  0
    7.5445    0.0703    0.1563 C   0  0  0  0  0  0  0  0  0  0  0  0
    8.0263    0.7775   -1.0441 C   0  0  0  0  0  0  0  0  0  0  0  0
    9.2590    1.3880   -1.3071 C   0  0  0  0  0  0  0  0  0  0  0  0
    9.1165    1.9278   -2.5472 N   0  0  0  0  0  0  0  0  0  0  0  0
    7.9185    1.6819   -3.0212 N   0  0  0  0  0  0  0  0  0  0  0  0
    7.2222    0.9786   -2.1301 C   0  0  0  0  0  0  0  0  0  0  0  0
    5.8994    0.3961   -2.1508 C   0  0  0  0  0  0  0  0  0  0  0  0
    5.1138    0.5493   -3.1165 O   0  0  0  0  0  0  0  0  0  0  0  0
   10.4526    1.4389   -0.4746 C   0  0  0  0  0  0  0  0  0  0  0  0
   11.0421    0.2796   -0.0101 C   0  0  0  0  0  0  0  0  0  0  0  0
   12.2077    0.2985    0.7662 C   0  0  0  0  0  0  0  0  0  0  0  0
   12.7982    1.5044    1.0865 C   0  0  0  0  0  0  0  0  0  0  0  0
   14.0332    1.5319    1.8967 C   0  0  0  0  0  0  0  0  0  0  0  0
   12.2208    2.6700    0.6308 C   0  0  0  0  0  0  0  0  0  0  0  0
   11.0632    2.6281   -0.1390 C   0  0  0  0  0  0  0  0  0  0  0  0
   10.4748    3.7707   -0.6006 F   0  0  0  0  0  0  0  0  0  0  0  0
   -0.9354   -3.0899   -1.8651 C   0  0  0  0  0  0  0  0  0  0  0  0
   -2.0879   -3.7473   -2.2774 C   0  0  0  0  0  0  0  0  0  0  0  0
   -3.3144   -3.2805   -2.0114 N   0  0  0  0  0  0  0  0  0  0  0  0
   -3.4819   -2.1327   -1.3190 C   0  0  0  0  0  0  0  0  0  0  0  0
   -4.7706   -1.6530   -1.0632 C   0  0  0  0  0  0  0  0  0  0  0  0
   -4.9723   -0.4809   -0.3721 C   0  0  0  0  0  0  0  0  0  0  0  0
   -6.2796   -0.0034   -0.1270 O   0  0  0  0  0  0  0  0  0  0  0  0
   -7.3195   -0.7723   -0.6470 C   0  0  0  0  0  0  0  0  0  0  0  0
   -8.6981   -0.2668   -0.4077 C   0  0  0  0  0  0  0  0  0  0  0  0
   -9.1317   -0.1715    1.0171 C   0  0  0  0  0  0  0  0  0  0  0  0
  -10.5043    0.3540    1.0322 N   0  0  0  0  0  0  0  0  0  0  0  0
  -10.9512    0.4220    2.4076 C   0  0  0  0  0  0  0  0  0  0  0  0
  -12.4311    0.4890    2.5463 C   0  0  0  0  0  0  0  0  0  0  0  0
  -13.1008    0.7873    1.2711 N   0  0  0  0  0  0  0  0  0  0  0  0
  -12.7972   -0.3612    0.4259 C   0  0  0  0  0  0  0  0  0  0  0  0
  -11.3046   -0.4615    0.1789 C   0  0  0  0  0  0  0  0  0  0  0  0
   -2.1121    1.7343    1.4599 H   0  0  0  0  0  0  0  0  0  0  0  0
   -2.9938    3.0886    0.5964 H   0  0  0  0  0  0  0  0  0  0  0  0
   -3.5044    2.6047    2.2672 H   0  0  0  0  0  0  0  0  0  0  0  0
   -1.7010    0.2548    0.1400 H   0  0  0  0  0  0  0  0  0  0  0  0
    1.6298   -2.3945   -2.4810 H   0  0  0  0  0  0  0  0  0  0  0  0
    4.0051   -2.0565   -2.5311 H   0  0  0  0  0  0  0  0  0  0  0  0
    3.7228    0.7657    0.6578 H   0  0  0  0  0  0  0  0  0  0  0  0
    0.8766    1.9107    2.3951 H   0  0  0  0  0  0  0  0  0  0  0  0
    2.2503    2.2818    1.3209 H   0  0  0  0  0  0  0  0  0  0  0  0
    2.3911    0.8896    2.5416 H   0  0  0  0  0  0  0  0  0  0  0  0
    5.9943   -1.2982    0.8109 H   0  0  0  0  0  0  0  0  0  0  0  0
    6.9779   -1.8015   -0.6153 H   0  0  0  0  0  0  0  0  0  0  0  0
    7.1167    0.8052    0.9123 H   0  0  0  0  0  0  0  0  0  0  0  0
    8.3953   -0.4704    0.6692 H   0  0  0  0  0  0  0  0  0  0  0  0
    7.5113    1.9714   -3.9603 H   0  0  0  0  0  0  0  0  0  0  0  0
   10.6009   -0.6738   -0.2468 H   0  0  0  0  0  0  0  0  0  0  0  0
   12.6857   -0.5903    1.1375 H   0  0  0  0  0  0  0  0  0  0  0  0
   14.4740    0.5112    1.9061 H   0  0  0  0  0  0  0  0  0  0  0  0
   13.9115    1.8664    2.9247 H   0  0  0  0  0  0  0  0  0  0  0  0
   14.8248    2.1785    1.4204 H   0  0  0  0  0  0  0  0  0  0  0  0
   12.6629    3.6485    0.8671 H   0  0  0  0  0  0  0  0  0  0  0  0
   -0.0042   -3.5621   -2.0990 H   0  0  0  0  0  0  0  0  0  0  0  0
   -1.9545   -4.6864   -2.8425 H   0  0  0  0  0  0  0  0  0  0  0  0
   -5.6065   -2.2065   -1.4096 H   0  0  0  0  0  0  0  0  0  0  0  0
   -7.2222   -1.8188   -0.2252 H   0  0  0  0  0  0  0  0  0  0  0  0
   -7.2202   -0.9411   -1.7536 H   0  0  0  0  0  0  0  0  0  0  0  0
   -8.8403    0.7549   -0.8450 H   0  0  0  0  0  0  0  0  0  0  0  0
   -9.3887   -0.9736   -0.9388 H   0  0  0  0  0  0  0  0  0  0  0  0
   -8.4539    0.3956    1.6571 H   0  0  0  0  0  0  0  0  0  0  0  0
   -9.1513   -1.2169    1.4419 H   0  0  0  0  0  0  0  0  0  0  0  0
  -10.5351    1.3682    2.8454 H   0  0  0  0  0  0  0  0  0  0  0  0
  -10.5015   -0.4043    3.0203 H   0  0  0  0  0  0  0  0  0  0  0  0
  -12.7800   -0.5598    2.7852 H   0  0  0  0  0  0  0  0  0  0  0  0
  -12.7870    1.1680    3.3455 H   0  0  0  0  0  0  0  0  0  0  0  0
  -12.7190    1.6730    0.8877 H   0  0  0  0  0  0  0  0  0  0  0  0
  -13.3986   -0.3844   -0.4942 H   0  0  0  0  0  0  0  0  0  0  0  0
  -13.0944   -1.2577    1.0118 H   0  0  0  0  0  0  0  0  0  0  0  0
  -11.1698   -0.0639   -0.8714 H   0  0  0  0  0  0  0  0  0  0  0  0
  -10.9822   -1.5265    0.1359 H   0  0  0  0  0  0  0  0  0  0  0  0
  1  2  1  0
  2  3  1  0
  3  4  2  0
  4  5  1  0
  5  6  2  0
  6  7  1  0
  7  8  1  0
  8  9  2  0
  9 10  1  0
 10 11  2  0
 11 12  1  0
 12 13  2  0
 13 14  1  0
 14 15  1  0
 11 16  1  0
 16 17  1  0
 17 18  1  0
 18 19  1  0
 19 20  1  0
 20 21  2  0
 21 22  1  0
 22 23  1  0
 23 24  1  0
 24 25  2  0
 20 26  1  0
 26 27  2  0
 27 28  1  0
 28 29  2  0
 29 30  1  0
 29 31  1  0
 31 32  2  0
 32 33  1  0
  6 34  1  0
 34 35  2  0
 35 36  1  0
 36 37  2  0
 37 38  1  0
 38 39  2  0
 39 40  1  0
 40 41  1  0
 41 42  1  0
 42 43  1  0
 43 44  1  0
 44 45  1  0
 45 46  1  0
 46 47  1  0
 47 48  1  0
 48 49  1  0
 39  3  1  0
 49 44  1  0
 37  5  1  0
 13  8  1  0
 24 16  1  0
 32 26  1  0
 23 19  2  0
  1 50  1  0
  1 51  1  0
  1 52  1  0
  4 53  1  0
  9 54  1  0
 10 55  1  0
 12 56  1  0
 15 57  1  0
 15 58  1  0
 15 59  1  0
 17 60  1  0
 17 61  1  0
 18 62  1  0
 18 63  1  0
 22 64  1  0
 27 65  1  0
 28 66  1  0
 30 67  1  0
 30 68  1  0
 30 69  1  0
 31 70  1  0
 34 71  1  0
 35 72  1  0
 38 73  1  0
 41 74  1  0
 41 75  1  0
 42 76  1  0
 42 77  1  0
 43 78  1  0
 43 79  1  0
 45 80  1  0
 45 81  1  0
 46 82  1  0
 46 83  1  0
 47 84  1  0
 48 85  1  0
 48 86  1  0
 49 87  1  0
 49 88  1  0
M  END
$$$$
[H]OS(=O)(=O)C([H])([H])C([H])([H])N([H])C(=O)[C@@]1([H])OC([H])([H])C([H])([H])N(C(=O)[C@]2([H])C([H])([H])[C@]([H])(c3c([H])c([H])c([H])c(C([H])([H])OC([H])([H])C(F)(F)F)c3[H])[C@@]2([H])C([H])([H])[H])C(=O)C1([H])[H]
     RDKit          3D

 66 68  0  0  0  0  0  0  0  0999 V2000
    1.7727    1.7005   -1.6776 C   0  0  0  0  0  0  0  0  0  0  0  0
    1.9142    0.5534   -0.7247 C   0  0  2  0  0  0  0  0  0  0  0  0
    2.6298   -0.6483   -1.3260 C   0  0  2  0  0  0  0  0  0  0  0  0
    1.6710   -1.4879   -0.4703 C   0  0  0  0  0  0  0  0  0  0  0  0
    0.6708   -0.3685   -0.6752 C   0  0  1  0  0  0  0  0  0  0  0  0
   -0.2224   -0.0657    0.4440 C   0  0  0  0  0  0  0  0  0  0  0  0
    0.0551    0.8516    1.2906 O   0  0  0  0  0  0  0  0  0  0  0  0
   -1.4091   -0.7784    0.6149 N   0  0  0  0  0  0  0  0  0  0  0  0
   -1.7152   -1.8053   -0.3396 C   0  0  0  0  0  0  0  0  0  0  0  0
   -2.9098   -1.2860   -1.1323 C   0  0  0  0  0  0  0  0  0  0  0  0
   -3.7571   -0.5246   -0.3481 O   0  0  0  0  0  0  0  0  0  0  0  0
   -4.2845   -1.1766    0.7248 C   0  0  1  0  0  0  0  0  0  0  0  0
   -3.6169   -0.8147    2.0407 C   0  0  0  0  0  0  0  0  0  0  0  0
   -2.2061   -0.4115    1.7290 C   0  0  0  0  0  0  0  0  0  0  0  0
   -1.6179    0.3522    2.5385 O   0  0  0  0  0  0  0  0  0  0  0  0
   -5.7280   -1.0489    0.8919 C   0  0  0  0  0  0  0  0  0  0  0  0
   -6.2952   -1.6194    1.8564 O   0  0  0  0  0  0  0  0  0  0  0  0
   -6.5949   -0.2985    0.0166 N   0  0  0  0  0  0  0  0  0  0  0  0
   -7.9992   -0.2004    0.2166 C   0  0  0  0  0  0  0  0  0  0  0  0
   -8.6188    0.6604   -0.8462 C   0  0  0  0  0  0  0  0  0  0  0  0
   -8.0464    2.3202   -0.8635 S   0  0  0  0  0  0  0  0  0  0  0  0
   -6.4083    2.4896   -1.1251 O   0  0  0  0  0  0  0  0  0  0  0  0
   -8.7439    3.0494   -2.0047 O   0  0  0  0  0  0  0  0  0  0  0  0
   -8.4750    3.0672    0.3906 O   0  0  0  0  0  0  0  0  0  0  0  0
    4.0459   -0.7729   -0.9984 C   0  0  0  0  0  0  0  0  0  0  0  0
    4.9572   -0.9847   -2.0171 C   0  0  0  0  0  0  0  0  0  0  0  0
    6.3109   -1.1110   -1.7783 C   0  0  0  0  0  0  0  0  0  0  0  0
    6.8048   -1.0287   -0.4984 C   0  0  0  0  0  0  0  0  0  0  0  0
    5.9123   -0.8157    0.5507 C   0  0  0  0  0  0  0  0  0  0  0  0
    6.3849   -0.7181    1.9496 C   0  0  0  0  0  0  0  0  0  0  0  0
    6.4923    0.6141    2.3002 O   0  0  0  0  0  0  0  0  0  0  0  0
    7.3670    1.3504    1.5310 C   0  0  0  0  0  0  0  0  0  0  0  0
    7.3806    2.7806    2.0416 C   0  0  0  0  0  0  0  0  0  0  0  0
    8.2660    3.5219    1.2610 F   0  0  0  0  0  0  0  0  0  0  0  0
    7.7851    2.8107    3.3551 F   0  0  0  0  0  0  0  0  0  0  0  0
    6.1224    3.3292    1.9261 F   0  0  0  0  0  0  0  0  0  0  0  0
    4.5492   -0.6918    0.2801 C   0  0  0  0  0  0  0  0  0  0  0  0
    2.7326    1.7982   -2.2273 H   0  0  0  0  0  0  0  0  0  0  0  0
    1.5995    2.6508   -1.1533 H   0  0  0  0  0  0  0  0  0  0  0  0
    0.9729    1.4394   -2.3993 H   0  0  0  0  0  0  0  0  0  0  0  0
    2.1896    0.7892    0.3070 H   0  0  0  0  0  0  0  0  0  0  0  0
    2.3483   -0.7376   -2.3813 H   0  0  0  0  0  0  0  0  0  0  0  0
    1.9614   -1.4929    0.6209 H   0  0  0  0  0  0  0  0  0  0  0  0
    1.4311   -2.4612   -0.8884 H   0  0  0  0  0  0  0  0  0  0  0  0
    0.2092   -0.3934   -1.6855 H   0  0  0  0  0  0  0  0  0  0  0  0
   -0.8837   -1.9333   -1.0492 H   0  0  0  0  0  0  0  0  0  0  0  0
   -1.9627   -2.7784    0.1470 H   0  0  0  0  0  0  0  0  0  0  0  0
   -2.5204   -0.7689   -2.0032 H   0  0  0  0  0  0  0  0  0  0  0  0
   -3.4695   -2.1800   -1.4772 H   0  0  0  0  0  0  0  0  0  0  0  0
   -4.0657   -2.2768    0.5828 H   0  0  0  0  0  0  0  0  0  0  0  0
   -4.1344   -0.0035    2.5483 H   0  0  0  0  0  0  0  0  0  0  0  0
   -3.6207   -1.7048    2.7295 H   0  0  0  0  0  0  0  0  0  0  0  0
   -6.0845    0.1497   -0.7754 H   0  0  0  0  0  0  0  0  0  0  0  0
   -8.5245   -1.1806    0.1938 H   0  0  0  0  0  0  0  0  0  0  0  0
   -8.1460    0.2857    1.2254 H   0  0  0  0  0  0  0  0  0  0  0  0
   -9.7286    0.6165   -0.8373 H   0  0  0  0  0  0  0  0  0  0  0  0
   -8.2753    0.2059   -1.8255 H   0  0  0  0  0  0  0  0  0  0  0  0
   -6.1863    3.2143   -1.7732 H   0  0  0  0  0  0  0  0  0  0  0  0
    4.5814   -1.0531   -3.0449 H   0  0  0  0  0  0  0  0  0  0  0  0
    7.0291   -1.2779   -2.5767 H   0  0  0  0  0  0  0  0  0  0  0  0
    7.8537   -1.1197   -0.2546 H   0  0  0  0  0  0  0  0  0  0  0  0
    5.6252   -1.2118    2.5766 H   0  0  0  0  0  0  0  0  0  0  0  0
    7.3745   -1.2283    2.0230 H   0  0  0  0  0  0  0  0  0  0  0  0
    7.0272    1.4421    0.4569 H   0  0  0  0  0  0  0  0  0  0  0  0
    8.3843    0.9433    1.5951 H   0  0  0  0  0  0  0  0  0  0  0  0
    3.8389   -0.5266    1.0763 H   0  0  0  0  0  0  0  0  0  0  0  0
  1  2  1  0
  2  3  1  0
  3  4  1  0
  4  5  1  0
  5  6  1  0
  6  7  2  0
  6  8  1  0
  8  9  1  0
  9 10  1  0
 10 11  1  0
 11 12  1  0
 12 13  1  0
 13 14  1  0
 14 15  2  0
 12 16  1  0
 16 17  2  0
 16 18  1  0
 18 19  1  0
 19 20  1  0
 20 21  1  0
 21 22  1  0
 21 23  2  0
 21 24  2  0
  3 25  1  0
 25 26  2  0
 26 27  1  0
 27 28  2  0
 28 29  1  0
 29 30  1  0
 30 31  1  0
 31 32  1  0
 32 33  1  0
 33 34  1  0
 33 35  1  0
 33 36  1  0
 29 37  2  0
  5  2  1  0
 14  8  1  0
 37 25  1  0
  1 38  1  0
  1 39  1  0
  1 40  1  0
  2 41  1  1
  3 42  1  6
  4 43  1  0
  4 44  1  0
  5 45  1  6
  9 46  1  0
  9 47  1  0
 10 48  1  0
 10 49  1  0
 12 50  1  6
 13 51  1  0
 13 52  1  0
 18 53  1  0
 19 54  1  0
 19 55  1  0
 20 56  1  0
 20 57  1  0
 22 58  1  0
 26 59  1  0
 27 60  1  0
 28 61  1  0
 30 62  1  0
 30 63  1  0
 32 64  1  0
 32 65  1  0
 37 66  1  0
M  END
$$$$
[H]C1=C(c2c([H])c([H])c([H])c([H])c2C([H])([H])Oc2c([H])c([H])c(C(=O)C([H])([H])C([H])([H])C([H])([H])C([H])([H])C([H])([H])C([H])([H])C([H])([H])C([H])([H])C([H])([H])C([H])([H])C([H])([H])[H])c([H])c2[H])C([H])=C(C(F)(F)F)[C@@]([H])(C(=O)N([H])[H])N([H])C(C(F)(F)F)=C1[H]
     RDKit          3D

 86 88  0  0  0  0  0  0  0  0999 V2000
   10.5340   -2.6769   -0.1660 C   0  0  0  0  0  0  0  0  0  0  0  0
    9.2387   -2.3326    0.5530 C   0  0  0  0  0  0  0  0  0  0  0  0
    8.4240   -1.4946   -0.4226 C   0  0  0  0  0  0  0  0  0  0  0  0
    9.0462   -0.1895   -0.7555 C   0  0  0  0  0  0  0  0  0  0  0  0
    9.0950    0.8601    0.2859 C   0  0  0  0  0  0  0  0  0  0  0  0
    7.8062    1.4819    0.6946 C   0  0  0  0  0  0  0  0  0  0  0  0
    7.1103    2.0956   -0.5348 C   0  0  0  0  0  0  0  0  0  0  0  0
    5.9747    2.9617   -0.1230 C   0  0  0  0  0  0  0  0  0  0  0  0
    4.9149    2.3918    0.6861 C   0  0  0  0  0  0  0  0  0  0  0  0
    3.9339    1.4045    0.2068 C   0  0  0  0  0  0  0  0  0  0  0  0
    4.2961    0.1430   -0.4516 C   0  0  0  0  0  0  0  0  0  0  0  0
    3.1567   -0.8458   -0.2837 C   0  0  0  0  0  0  0  0  0  0  0  0
    3.4539   -1.9246    0.1976 O   0  0  0  0  0  0  0  0  0  0  0  0
    1.7799   -0.5251   -0.6527 C   0  0  0  0  0  0  0  0  0  0  0  0
    0.8010   -1.4346   -0.0976 C   0  0  0  0  0  0  0  0  0  0  0  0
   -0.4999   -1.0353   -0.2383 C   0  0  0  0  0  0  0  0  0  0  0  0
   -0.9497    0.1229   -0.8582 C   0  0  0  0  0  0  0  0  0  0  0  0
   -2.1811    0.3864   -0.9252 O   0  0  0  0  0  0  0  0  0  0  0  0
   -3.4890    0.6863   -1.0048 C   0  0  0  0  0  0  0  0  0  0  0  0
   -3.8862    1.5994    0.1433 C   0  0  0  0  0  0  0  0  0  0  0  0
   -3.2636    2.7411    0.4899 C   0  0  0  0  0  0  0  0  0  0  0  0
   -3.5974    3.4568    1.6381 C   0  0  0  0  0  0  0  0  0  0  0  0
   -4.6195    2.9307    2.4246 C   0  0  0  0  0  0  0  0  0  0  0  0
   -5.2658    1.7508    2.0495 C   0  0  0  0  0  0  0  0  0  0  0  0
   -4.9183    1.0752    0.9160 C   0  0  0  0  0  0  0  0  0  0  0  0
   -5.6739   -0.0660    0.5134 C   0  0  0  0  0  0  0  0  0  0  0  0
   -5.5040   -1.1366    1.3267 C   0  0  0  0  0  0  0  0  0  0  0  0
   -6.0965   -2.5087    1.2587 C   0  0  0  0  0  0  0  0  0  0  0  0
   -7.2447   -2.9691    0.7601 C   0  0  0  0  0  0  0  0  0  0  0  0
   -8.3356   -2.3710    0.1378 N   0  0  0  0  0  0  0  0  0  0  0  0
   -8.7947   -0.9916   -0.0997 C   0  0  2  0  0  0  0  0  0  0  0  0
  -10.1980   -0.9031   -0.4978 C   0  0  0  0  0  0  0  0  0  0  0  0
  -11.0311    0.1839   -0.0872 N   0  0  0  0  0  0  0  0  0  0  0  0
  -10.7184   -1.7792   -1.2209 O   0  0  0  0  0  0  0  0  0  0  0  0
   -7.8410   -0.2260   -0.8841 C   0  0  0  0  0  0  0  0  0  0  0  0
   -6.5754    0.1491   -0.6373 C   0  0  0  0  0  0  0  0  0  0  0  0
   -8.2291    0.2900   -2.2243 C   0  0  0  0  0  0  0  0  0  0  0  0
   -8.7313   -0.7043   -3.0183 F   0  0  0  0  0  0  0  0  0  0  0  0
   -8.9331    1.4538   -2.2162 F   0  0  0  0  0  0  0  0  0  0  0  0
   -7.0038    0.6396   -2.8937 F   0  0  0  0  0  0  0  0  0  0  0  0
   -7.4036   -4.4434    0.9140 C   0  0  0  0  0  0  0  0  0  0  0  0
   -7.8721   -4.9698   -0.2931 F   0  0  0  0  0  0  0  0  0  0  0  0
   -8.3386   -4.6940    1.8700 F   0  0  0  0  0  0  0  0  0  0  0  0
   -6.1789   -5.0654    1.1911 F   0  0  0  0  0  0  0  0  0  0  0  0
    0.0529    0.9764   -1.4027 C   0  0  0  0  0  0  0  0  0  0  0  0
    1.3406    0.5824   -1.2599 C   0  0  0  0  0  0  0  0  0  0  0  0
   10.4945   -3.7841   -0.4271 H   0  0  0  0  0  0  0  0  0  0  0  0
   11.3998   -2.4275    0.4516 H   0  0  0  0  0  0  0  0  0  0  0  0
   10.6142   -2.1820   -1.1390 H   0  0  0  0  0  0  0  0  0  0  0  0
    9.4086   -1.7812    1.4733 H   0  0  0  0  0  0  0  0  0  0  0  0
    8.6599   -3.2424    0.7692 H   0  0  0  0  0  0  0  0  0  0  0  0
    7.4270   -1.3952    0.0744 H   0  0  0  0  0  0  0  0  0  0  0  0
    8.2500   -2.0422   -1.3552 H   0  0  0  0  0  0  0  0  0  0  0  0
    8.6082    0.2632   -1.6912 H   0  0  0  0  0  0  0  0  0  0  0  0
   10.1292   -0.3603   -1.0606 H   0  0  0  0  0  0  0  0  0  0  0  0
    9.8993    1.5873    0.0870 H   0  0  0  0  0  0  0  0  0  0  0  0
    9.4703    0.3207    1.2344 H   0  0  0  0  0  0  0  0  0  0  0  0
    7.1377    0.6646    1.0886 H   0  0  0  0  0  0  0  0  0  0  0  0
    7.9641    2.2817    1.4055 H   0  0  0  0  0  0  0  0  0  0  0  0
    6.7661    1.2733   -1.2250 H   0  0  0  0  0  0  0  0  0  0  0  0
    7.8947    2.6602   -1.0629 H   0  0  0  0  0  0  0  0  0  0  0  0
    6.4503    3.8636    0.4038 H   0  0  0  0  0  0  0  0  0  0  0  0
    5.5653    3.4548   -1.0569 H   0  0  0  0  0  0  0  0  0  0  0  0
    4.2601    3.3047    1.0285 H   0  0  0  0  0  0  0  0  0  0  0  0
    5.3012    2.0765    1.7267 H   0  0  0  0  0  0  0  0  0  0  0  0
    3.2673    1.1483    1.0907 H   0  0  0  0  0  0  0  0  0  0  0  0
    3.2607    2.0128   -0.5069 H   0  0  0  0  0  0  0  0  0  0  0  0
    4.4179    0.2727   -1.5605 H   0  0  0  0  0  0  0  0  0  0  0  0
    5.1931   -0.3137   -0.0335 H   0  0  0  0  0  0  0  0  0  0  0  0
    1.0905   -2.3480    0.3873 H   0  0  0  0  0  0  0  0  0  0  0  0
   -1.3083   -1.6997    0.1483 H   0  0  0  0  0  0  0  0  0  0  0  0
   -3.3168    1.6974   -1.8166 H   0  0  0  0  0  0  0  0  0  0  0  0
   -4.1954    0.2386   -1.6365 H   0  0  0  0  0  0  0  0  0  0  0  0
   -2.4765    3.1838   -0.1493 H   0  0  0  0  0  0  0  0  0  0  0  0
   -3.1099    4.3763    1.9331 H   0  0  0  0  0  0  0  0  0  0  0  0
   -4.9112    3.4092    3.3450 H   0  0  0  0  0  0  0  0  0  0  0  0
   -6.0669    1.3017    2.6750 H   0  0  0  0  0  0  0  0  0  0  0  0
   -4.8471   -1.0264    2.1342 H   0  0  0  0  0  0  0  0  0  0  0  0
   -5.4632   -3.2555    1.6837 H   0  0  0  0  0  0  0  0  0  0  0  0
   -9.0060   -3.0354   -0.2689 H   0  0  0  0  0  0  0  0  0  0  0  0
   -8.7763   -0.5423    0.9657 H   0  0  0  0  0  0  0  0  0  0  0  0
  -10.7855    1.1863   -0.0677 H   0  0  0  0  0  0  0  0  0  0  0  0
  -12.0146   -0.0396    0.2364 H   0  0  0  0  0  0  0  0  0  0  0  0
   -6.1212    0.7641   -1.3692 H   0  0  0  0  0  0  0  0  0  0  0  0
   -0.2305    1.8708   -1.9050 H   0  0  0  0  0  0  0  0  0  0  0  0
    2.1153    1.1865   -1.7639 H   0  0  0  0  0  0  0  0  0  0  0  0
  1  2  1  0
  2  3  1  0
  3  4  1  0
  4  5  1  0
  5  6  1  0
  6  7  1  0
  7  8  1  0
  8  9  1  0
  9 10  1  0
 10 11  1  0
 11 12  1  0
 12 13  2  0
 12 14  1  0
 14 15  2  0
 15 16  1  0
 16 17  2  0
 17 18  1  0
 18 19  1  0
 19 20  1  0
 20 21  2  0
 21 22  1  0
 22 23  2  0
 23 24  1  0
 24 25  2  0
 25 26  1  0
 26 27  2  0
 27 28  1  0
 28 29  2  0
 29 30  1  0
 30 31  1  0
 31 32  1  0
 32 33  1  0
 32 34  2  0
 31 35  1  0
 35 36  2  0
 35 37  1  0
 37 38  1  0
 37 39  1  0
 37 40  1  0
 29 41  1  0
 41 42  1  0
 41 43  1  0
 41 44  1  0
 17 45  1  0
 45 46  2  0
 46 14  1  0
 25 20  1  0
 36 26  1  0
  1 47  1  0
  1 48  1  0
  1 49  1  0
  2 50  1  0
  2 51  1  0
  3 52  1  0
  3 53  1  0
  4 54  1  0
  4 55  1  0
  5 56  1  0
  5 57  1  0
  6 58  1  0
  6 59  1  0
  7 60  1  0
  7 61  1  0
  8 62  1  0
  8 63  1  0
  9 64  1  0
  9 65  1  0
 10 66  1  0
 10 67  1  0
 11 68  1  0
 11 69  1  0
 15 70  1  0
 16 71  1  0
 19 72  1  0
 19 73  1  0
 21 74  1  0
 22 75  1  0
 23 76  1  0
 24 77  1  0
 27 78  1  0
 28 79  1  0
 30 80  1  0
 31 81  1  1
 33 82  1  0
 33 83  1  0
 36 84  1  0
 45 85  1  0
 46 86  1  0
M  END
$$$$
[H]/C(C(=O)N([H])C([H])([H])C([H])([H])N1C([H])([H])C([H])([H])OC([H])([H])C1([H])[H])=C(/[H])c1c(N([H])[H])nc(N([H])c2c([H])c([H])c([H])c(N([H])c3c(Cl)c([H])nc([H])c3Cl)c2[H])c([H])c1[H]
     RDKit          3D

 63 66  0  0  0  0  0  0  0  0999 V2000
   -1.2531   -0.7154   -1.6865 N   0  0  0  0  0  0  0  0  0  0  0  0
   -0.1511   -0.3850   -0.8282 C   0  0  0  0  0  0  0  0  0  0  0  0
    1.0883   -0.7656   -1.2507 N   0  0  0  0  0  0  0  0  0  0  0  0
    2.2117   -0.5403   -0.5532 C   0  0  0  0  0  0  0  0  0  0  0  0
    3.4701   -0.9112   -1.0413 N   0  0  0  0  0  0  0  0  0  0  0  0
    4.6728   -0.8405   -0.3400 C   0  0  0  0  0  0  0  0  0  0  0  0
    4.7928   -1.2752    0.9631 C   0  0  0  0  0  0  0  0  0  0  0  0
    5.9856   -1.1826    1.6418 C   0  0  0  0  0  0  0  0  0  0  0  0
    7.1209   -0.6446    1.0349 C   0  0  0  0  0  0  0  0  0  0  0  0
    7.0326   -0.2011   -0.2698 C   0  0  0  0  0  0  0  0  0  0  0  0
    8.1726    0.3559   -0.9318 N   0  0  0  0  0  0  0  0  0  0  0  0
    9.3966    0.4678   -0.2424 C   0  0  0  0  0  0  0  0  0  0  0  0
    9.6621    1.6370    0.4641 C   0  0  0  0  0  0  0  0  0  0  0  0
    8.4791    2.9472    0.4850 Cl  0  0  0  0  0  0  0  0  0  0  0  0
   10.8624    1.7225    1.1305 C   0  0  0  0  0  0  0  0  0  0  0  0
   11.7780    0.7633    1.1407 N   0  0  0  0  0  0  0  0  0  0  0  0
   11.5559   -0.3718    0.4733 C   0  0  0  0  0  0  0  0  0  0  0  0
   10.3702   -0.5074   -0.2098 C   0  0  0  0  0  0  0  0  0  0  0  0
   10.0657   -1.9951   -1.0916 Cl  0  0  0  0  0  0  0  0  0  0  0  0
    5.8285   -0.3085   -0.9153 C   0  0  0  0  0  0  0  0  0  0  0  0
    2.0760    0.1089    0.6415 C   0  0  0  0  0  0  0  0  0  0  0  0
    0.8235    0.5050    1.0911 C   0  0  0  0  0  0  0  0  0  0  0  0
   -0.3573    0.2653    0.3531 C   0  0  0  0  0  0  0  0  0  0  0  0
   -1.5857    0.7295    0.8992 C   0  0  0  0  0  0  0  0  0  0  0  0
   -2.7732    0.6831    0.3714 C   0  0  0  0  0  0  0  0  0  0  0  0
   -3.9519    1.2217    1.0981 C   0  0  0  0  0  0  0  0  0  0  0  0
   -3.7840    1.7143    2.2129 O   0  0  0  0  0  0  0  0  0  0  0  0
   -5.2090    1.1481    0.4867 N   0  0  0  0  0  0  0  0  0  0  0  0
   -6.4293    1.6316    1.0822 C   0  0  0  0  0  0  0  0  0  0  0  0
   -7.5731    1.3794    0.1276 C   0  0  0  0  0  0  0  0  0  0  0  0
   -7.6384   -0.0450   -0.0937 N   0  0  0  0  0  0  0  0  0  0  0  0
   -8.0508   -0.7723    1.0460 C   0  0  0  0  0  0  0  0  0  0  0  0
   -9.2994   -1.5695    0.8652 C   0  0  0  0  0  0  0  0  0  0  0  0
  -10.1486   -0.9599   -0.0664 O   0  0  0  0  0  0  0  0  0  0  0  0
   -9.5739   -0.9791   -1.3220 C   0  0  0  0  0  0  0  0  0  0  0  0
   -8.2035   -0.3942   -1.3527 C   0  0  0  0  0  0  0  0  0  0  0  0
   -1.4981   -0.0695   -2.4602 H   0  0  0  0  0  0  0  0  0  0  0  0
   -1.8103   -1.5789   -1.5661 H   0  0  0  0  0  0  0  0  0  0  0  0
    3.5198   -1.2805   -2.0370 H   0  0  0  0  0  0  0  0  0  0  0  0
    3.9156   -1.7187    1.4650 H   0  0  0  0  0  0  0  0  0  0  0  0
    6.0634   -1.5229    2.6510 H   0  0  0  0  0  0  0  0  0  0  0  0
    8.0589   -0.5670    1.5554 H   0  0  0  0  0  0  0  0  0  0  0  0
    8.1121    0.6795   -1.9145 H   0  0  0  0  0  0  0  0  0  0  0  0
   11.0488    2.6519    1.6789 H   0  0  0  0  0  0  0  0  0  0  0  0
   12.2643   -1.1843    0.4473 H   0  0  0  0  0  0  0  0  0  0  0  0
    5.7532    0.0343   -1.9272 H   0  0  0  0  0  0  0  0  0  0  0  0
    2.9199    0.3799    1.3005 H   0  0  0  0  0  0  0  0  0  0  0  0
    0.7156    1.0101    2.0221 H   0  0  0  0  0  0  0  0  0  0  0  0
   -1.5404    1.1969    1.9216 H   0  0  0  0  0  0  0  0  0  0  0  0
   -2.9193    0.2638   -0.5978 H   0  0  0  0  0  0  0  0  0  0  0  0
   -5.2819    0.7113   -0.4759 H   0  0  0  0  0  0  0  0  0  0  0  0
   -6.5897    1.1930    2.0778 H   0  0  0  0  0  0  0  0  0  0  0  0
   -6.3570    2.7463    1.2128 H   0  0  0  0  0  0  0  0  0  0  0  0
   -8.5323    1.7857    0.5352 H   0  0  0  0  0  0  0  0  0  0  0  0
   -7.3676    1.9478   -0.7916 H   0  0  0  0  0  0  0  0  0  0  0  0
   -7.2253   -1.4346    1.3884 H   0  0  0  0  0  0  0  0  0  0  0  0
   -8.1992   -0.0343    1.8872 H   0  0  0  0  0  0  0  0  0  0  0  0
   -9.1061   -2.6264    0.5802 H   0  0  0  0  0  0  0  0  0  0  0  0
   -9.8650   -1.5830    1.8305 H   0  0  0  0  0  0  0  0  0  0  0  0
   -9.5490   -2.0037   -1.7622 H   0  0  0  0  0  0  0  0  0  0  0  0
  -10.2702   -0.4039   -1.9983 H   0  0  0  0  0  0  0  0  0  0  0  0
   -8.2185    0.5577   -1.9657 H   0  0  0  0  0  0  0  0  0  0  0  0
   -7.5051   -1.0675   -1.9151 H   0  0  0  0  0  0  0  0  0  0  0  0
  1  2  1  0
  2  3  2  0
  3  4  1  0
  4  5  1  0
  5  6  1  0
  6  7  2  0
  7  8  1  0
  8  9  2  0
  9 10  1  0
 10 11  1  0
 11 12  1  0
 12 13  2  0
 13 14  1  0
 13 15  1  0
 15 16  2  0
 16 17  1  0
 17 18  2  0
 18 19  1  0
 10 20  2  0
  4 21  2  0
 21 22  1  0
 22 23  2  0
 23 24  1  0
 24 25  2  0
 25 26  1  0
 26 27  2  0
 26 28  1  0
 28 29  1  0
 29 30  1  0
 30 31  1  0
 31 32  1  0
 32 33  1  0
 33 34  1  0
 34 35  1  0
 35 36  1  0
 23  2  1  0
 36 31  1  0
 20  6  1  0
 18 12  1  0
  1 37  1  0
  1 38  1  0
  5 39  1  0
  7 40  1  0
  8 41  1  0
  9 42  1  0
 11 43  1  0
 15 44  1  0
 17 45  1  0
 20 46  1  0
 21 47  1  0
 22 48  1  0
 24 49  1  0
 25 50  1  0
 28 51  1  0
 29 52  1  0
 29 53  1  0
 30 54  1  0
 30 55  1  0
 32 56  1  0
 32 57  1  0
 33 58  1  0
 33 59  1  0
 35 60  1  0
 35 61  1  0
 36 62  1  0
 36 63  1  0
M  END
$$$$
[H]C1=C(c2c([H])c([H])c(C(=O)C([H])([H])C([H])([H])N(C([H])([H])[H])C([H])([H])[H])c([H])c2[H])C([H])([H])c2c([H])c([H])c(OC([H])([H])[H])c([H])c2C1([H])[H]
     RDKit          3D

 50 52  0  0  0  0  0  0  0  0999 V2000
    7.4698    0.6591   -0.0606 C   0  0  0  0  0  0  0  0  0  0  0  0
    6.3397   -0.1769   -0.4236 N   0  0  0  0  0  0  0  0  0  0  0  0
    6.9305   -1.3888   -1.0187 C   0  0  0  0  0  0  0  0  0  0  0  0
    5.6156   -0.6375    0.7430 C   0  0  0  0  0  0  0  0  0  0  0  0
    4.8998    0.4650    1.4691 C   0  0  0  0  0  0  0  0  0  0  0  0
    3.8918    1.1602    0.6300 C   0  0  0  0  0  0  0  0  0  0  0  0
    4.2872    2.1123   -0.1296 O   0  0  0  0  0  0  0  0  0  0  0  0
    2.4799    0.8482    0.5983 C   0  0  0  0  0  0  0  0  0  0  0  0
    1.6192    1.5544   -0.1984 C   0  0  0  0  0  0  0  0  0  0  0  0
    0.2526    1.2556   -0.2342 C   0  0  0  0  0  0  0  0  0  0  0  0
   -0.2658    0.2322    0.5399 C   0  0  0  0  0  0  0  0  0  0  0  0
    0.5792   -0.4637    1.3240 C   0  0  0  0  0  0  0  0  0  0  0  0
    1.9489   -0.1590    1.3555 C   0  0  0  0  0  0  0  0  0  0  0  0
   -1.7124   -0.0578    0.4846 C   0  0  0  0  0  0  0  0  0  0  0  0
   -2.2080   -1.0238    1.2144 C   0  0  0  0  0  0  0  0  0  0  0  0
   -3.6222   -1.3793    1.2232 C   0  0  0  0  0  0  0  0  0  0  0  0
   -4.4271   -0.6462    0.2533 C   0  0  0  0  0  0  0  0  0  0  0  0
   -5.7749   -1.0218    0.1348 C   0  0  0  0  0  0  0  0  0  0  0  0
   -6.5657   -0.3652   -0.7503 C   0  0  0  0  0  0  0  0  0  0  0  0
   -7.9169   -0.7306   -0.8784 O   0  0  0  0  0  0  0  0  0  0  0  0
   -8.7403   -0.0637   -1.7835 C   0  0  0  0  0  0  0  0  0  0  0  0
   -6.0609    0.6592   -1.5281 C   0  0  0  0  0  0  0  0  0  0  0  0
   -4.7404    1.0249   -1.4098 C   0  0  0  0  0  0  0  0  0  0  0  0
   -3.9089    0.3538   -0.4969 C   0  0  0  0  0  0  0  0  0  0  0  0
   -2.5148    0.7909   -0.4187 C   0  0  0  0  0  0  0  0  0  0  0  0
    7.8904    0.3195    0.8967 H   0  0  0  0  0  0  0  0  0  0  0  0
    7.2067    1.7365   -0.0621 H   0  0  0  0  0  0  0  0  0  0  0  0
    8.2393    0.5246   -0.8432 H   0  0  0  0  0  0  0  0  0  0  0  0
    7.3401   -1.2074   -2.0113 H   0  0  0  0  0  0  0  0  0  0  0  0
    6.1968   -2.2123   -1.0528 H   0  0  0  0  0  0  0  0  0  0  0  0
    7.7372   -1.7292   -0.3178 H   0  0  0  0  0  0  0  0  0  0  0  0
    4.8405   -1.3499    0.3858 H   0  0  0  0  0  0  0  0  0  0  0  0
    6.2667   -1.1736    1.4330 H   0  0  0  0  0  0  0  0  0  0  0  0
    4.3842    0.0194    2.3388 H   0  0  0  0  0  0  0  0  0  0  0  0
    5.6185    1.2008    1.9185 H   0  0  0  0  0  0  0  0  0  0  0  0
    1.9570    2.3729   -0.8349 H   0  0  0  0  0  0  0  0  0  0  0  0
   -0.4169    1.8114   -0.8584 H   0  0  0  0  0  0  0  0  0  0  0  0
    0.2680   -1.2807    1.9622 H   0  0  0  0  0  0  0  0  0  0  0  0
    2.5733   -0.7744    2.0196 H   0  0  0  0  0  0  0  0  0  0  0  0
   -1.5465   -1.6181    1.8665 H   0  0  0  0  0  0  0  0  0  0  0  0
   -3.7232   -2.4963    1.0377 H   0  0  0  0  0  0  0  0  0  0  0  0
   -4.0494   -1.2794    2.2662 H   0  0  0  0  0  0  0  0  0  0  0  0
   -6.1853   -1.8172    0.7300 H   0  0  0  0  0  0  0  0  0  0  0  0
   -9.0270    0.9628   -1.4385 H   0  0  0  0  0  0  0  0  0  0  0  0
   -9.6623   -0.6661   -1.9254 H   0  0  0  0  0  0  0  0  0  0  0  0
   -8.2679    0.0199   -2.7712 H   0  0  0  0  0  0  0  0  0  0  0  0
   -6.6866    1.1830   -2.2310 H   0  0  0  0  0  0  0  0  0  0  0  0
   -4.3260    1.8185   -2.0048 H   0  0  0  0  0  0  0  0  0  0  0  0
   -2.4245    1.8545   -0.0828 H   0  0  0  0  0  0  0  0  0  0  0  0
   -2.0586    0.7789   -1.4449 H   0  0  0  0  0  0  0  0  0  0  0  0
  1  2  1  0
  2  3  1  0
  2  4  1  0
  4  5  1  0
  5  6  1  0
  6  7  2  0
  6  8  1  0
  8  9  2  0
  9 10  1  0
 10 11  2  0
 11 12  1  0
 12 13  2  0
 11 14  1  0
 14 15  2  0
 15 16  1  0
 16 17  1  0
 17 18  2  0
 18 19  1  0
 19 20  1  0
 20 21  1  0
 19 22  2  0
 22 23  1  0
 23 24  2  0
 24 25  1  0
 13  8  1  0
 25 14  1  0
 24 17  1  0
  1 26  1  0
  1 27  1  0
  1 28  1  0
  3 29  1  0
  3 30  1  0
  3 31  1  0
  4 32  1  0
  4 33  1  0
  5 34  1  0
  5 35  1  0
  9 36  1  0
 10 37  1  0
 12 38  1  0
 13 39  1  0
 15 40  1  0
 16 41  1  0
 16 42  1  0
 18 43  1  0
 21 44  1  0
 21 45  1  0
 21 46  1  0
 22 47  1  0
 23 48  1  0
 25 49  1  0
 25 50  1  0
M  END
$$$$
[H]OC(=O)c1c([H])c([H])c([H])c(Oc2c([H])c(C([H])([H])N([H])C(=O)c3c([H])c(C(=O)O[H])c([H])c([H])c3C([H])([H])[H])c([H])c([H])c2F)c1[H]
     RDKit          3D

 49 51  0  0  0  0  0  0  0  0999 V2000
    3.4647   -2.6821    0.9478 C   0  0  0  0  0  0  0  0  0  0  0  0
    4.4428   -1.6382    0.5223 C   0  0  0  0  0  0  0  0  0  0  0  0
    5.7741   -1.7769    0.9329 C   0  0  0  0  0  0  0  0  0  0  0  0
    6.7261   -0.8436    0.6204 C   0  0  0  0  0  0  0  0  0  0  0  0
    6.3882    0.2686   -0.1170 C   0  0  0  0  0  0  0  0  0  0  0  0
    5.0800    0.4003   -0.5191 C   0  0  0  0  0  0  0  0  0  0  0  0
    4.0856   -0.5401   -0.2132 C   0  0  0  0  0  0  0  0  0  0  0  0
    2.7715   -0.2805   -0.7479 C   0  0  0  0  0  0  0  0  0  0  0  0
    2.4170    0.9579   -0.9201 O   0  0  0  0  0  0  0  0  0  0  0  0
    1.7898   -1.2051   -1.1259 N   0  0  0  0  0  0  0  0  0  0  0  0
    0.4811   -0.7989   -1.6408 C   0  0  0  0  0  0  0  0  0  0  0  0
   -0.4305   -0.3588   -0.5728 C   0  0  0  0  0  0  0  0  0  0  0  0
   -0.4289   -1.0511    0.6257 C   0  0  0  0  0  0  0  0  0  0  0  0
   -1.2679   -0.6902    1.6594 C   0  0  0  0  0  0  0  0  0  0  0  0
   -2.1230    0.3623    1.5225 C   0  0  0  0  0  0  0  0  0  0  0  0
   -2.9417    0.7329    2.5301 F   0  0  0  0  0  0  0  0  0  0  0  0
   -2.1090    1.0448    0.3083 C   0  0  0  0  0  0  0  0  0  0  0  0
   -2.9829    2.1300    0.1457 O   0  0  0  0  0  0  0  0  0  0  0  0
   -4.3683    1.9135    0.1807 C   0  0  0  0  0  0  0  0  0  0  0  0
   -5.2042    2.9958    0.2400 C   0  0  0  0  0  0  0  0  0  0  0  0
   -6.5915    2.8120    0.2739 C   0  0  0  0  0  0  0  0  0  0  0  0
   -7.1480    1.5548    0.2483 C   0  0  0  0  0  0  0  0  0  0  0  0
   -6.3042    0.4703    0.1881 C   0  0  0  0  0  0  0  0  0  0  0  0
   -4.9361    0.6620    0.1555 C   0  0  0  0  0  0  0  0  0  0  0  0
   -6.8653   -0.8691    0.1519 C   0  0  0  0  0  0  0  0  0  0  0  0
   -8.2311   -1.1110    0.1631 O   0  0  0  0  0  0  0  0  0  0  0  0
   -6.0792   -1.8502    0.1084 O   0  0  0  0  0  0  0  0  0  0  0  0
   -1.2829    0.7086   -0.7380 C   0  0  0  0  0  0  0  0  0  0  0  0
    7.4101    1.2884   -0.4504 C   0  0  0  0  0  0  0  0  0  0  0  0
    7.0564    2.3839   -1.2179 O   0  0  0  0  0  0  0  0  0  0  0  0
    8.5692    1.1380   -0.0329 O   0  0  0  0  0  0  0  0  0  0  0  0
    3.4096   -3.5315    0.2542 H   0  0  0  0  0  0  0  0  0  0  0  0
    2.5001   -2.2372    1.2411 H   0  0  0  0  0  0  0  0  0  0  0  0
    3.8636   -3.1200    1.9158 H   0  0  0  0  0  0  0  0  0  0  0  0
    6.0340   -2.6679    1.5218 H   0  0  0  0  0  0  0  0  0  0  0  0
    7.7457   -0.9722    0.9493 H   0  0  0  0  0  0  0  0  0  0  0  0
    4.8159    1.2885   -1.1080 H   0  0  0  0  0  0  0  0  0  0  0  0
    1.9653   -2.2216   -1.0706 H   0  0  0  0  0  0  0  0  0  0  0  0
    0.5923    0.0249   -2.3950 H   0  0  0  0  0  0  0  0  0  0  0  0
    0.0117   -1.6398   -2.2010 H   0  0  0  0  0  0  0  0  0  0  0  0
    0.2245   -1.8904    0.7702 H   0  0  0  0  0  0  0  0  0  0  0  0
   -1.2158   -1.2811    2.5850 H   0  0  0  0  0  0  0  0  0  0  0  0
   -4.7922    3.9953    0.2612 H   0  0  0  0  0  0  0  0  0  0  0  0
   -7.2526    3.6641    0.3223 H   0  0  0  0  0  0  0  0  0  0  0  0
   -8.2260    1.4415    0.2788 H   0  0  0  0  0  0  0  0  0  0  0  0
   -4.2627   -0.2002    0.1007 H   0  0  0  0  0  0  0  0  0  0  0  0
   -8.6822   -1.3911   -0.7224 H   0  0  0  0  0  0  0  0  0  0  0  0
   -1.3269    1.2925   -1.6577 H   0  0  0  0  0  0  0  0  0  0  0  0
    7.4336    3.3182   -1.1084 H   0  0  0  0  0  0  0  0  0  0  0  0
  1  2  1  0
  2  3  2  0
  3  4  1  0
  4  5  2  0
  5  6  1  0
  6  7  2  0
  7  8  1  0
  8  9  2  0
  8 10  1  0
 10 11  1  0
 11 12  1  0
 12 13  2  0
 13 14  1  0
 14 15  2  0
 15 16  1  0
 15 17  1  0
 17 18  1  0
 18 19  1  0
 19 20  2  0
 20 21  1  0
 21 22  2  0
 22 23  1  0
 23 24  2  0
 23 25  1  0
 25 26  1  0
 25 27  2  0
 17 28  2  0
  5 29  1  0
 29 30  1  0
 29 31  2  0
  7  2  1  0
 28 12  1  0
 24 19  1  0
  1 32  1  0
  1 33  1  0
  1 34  1  0
  3 35  1  0
  4 36  1  0
  6 37  1  0
 10 38  1  0
 11 39  1  0
 11 40  1  0
 13 41  1  0
 14 42  1  0
 20 43  1  0
 21 44  1  0
 22 45  1  0
 24 46  1  0
 26 47  1  0
 28 48  1  0
 30 49  1  0
M  END
$$$$
[H]OC(=O)[C@@]1([H])N([H])C(=O)C([H])([H])Oc2c([H])c([H])c(-n3nnc(C([H])([H])c4c(-c5c([H])c([H])c(OC([H])([H])[H])c([H])c5[H])c4=O)c3[H])c([H])c2N([H])C1([H])[H]
     RDKit          3D

 56 60  0  0  0  0  0  0  0  0999 V2000
   -9.0598   -2.3802    1.9799 C   0  0  0  0  0  0  0  0  0  0  0  0
   -9.0766   -1.1115    1.3875 O   0  0  0  0  0  0  0  0  0  0  0  0
   -8.0637   -0.6579    0.5704 C   0  0  0  0  0  0  0  0  0  0  0  0
   -8.1667    0.6041    0.0295 C   0  0  0  0  0  0  0  0  0  0  0  0
   -7.1544    1.0594   -0.7893 C   0  0  0  0  0  0  0  0  0  0  0  0
   -6.0322    0.2811   -1.0839 C   0  0  0  0  0  0  0  0  0  0  0  0
   -5.9485   -0.9707   -0.5354 C   0  0  0  0  0  0  0  0  0  0  0  0
   -6.9629   -1.4613    0.3013 C   0  0  0  0  0  0  0  0  0  0  0  0
   -5.0163    0.8202   -1.9656 C   0  0  0  0  0  0  0  0  0  0  0  0
   -3.9143    1.6707   -2.1717 C   0  0  0  0  0  0  0  0  0  0  0  0
   -2.9400    2.6480   -1.6481 C   0  0  0  0  0  0  0  0  0  0  0  0
   -1.8482    2.0132   -0.8720 C   0  0  0  0  0  0  0  0  0  0  0  0
   -0.6206    1.5573   -1.3471 C   0  0  0  0  0  0  0  0  0  0  0  0
    0.0911    1.0419   -0.3003 N   0  0  0  0  0  0  0  0  0  0  0  0
   -0.6507    1.1716    0.7563 N   0  0  0  0  0  0  0  0  0  0  0  0
   -1.8217    1.7529    0.4372 N   0  0  0  0  0  0  0  0  0  0  0  0
    1.4050    0.4955   -0.4955 C   0  0  0  0  0  0  0  0  0  0  0  0
    1.8098    0.0151   -1.7128 C   0  0  0  0  0  0  0  0  0  0  0  0
    3.0796   -0.4999   -1.8772 C   0  0  0  0  0  0  0  0  0  0  0  0
    4.0275   -0.5739   -0.8598 C   0  0  0  0  0  0  0  0  0  0  0  0
    5.2827   -1.0720   -0.9954 O   0  0  0  0  0  0  0  0  0  0  0  0
    6.5552   -0.5634   -1.0789 C   0  0  0  0  0  0  0  0  0  0  0  0
    7.0245    0.4194   -0.1240 C   0  0  0  0  0  0  0  0  0  0  0  0
    7.7205    1.3982   -0.6007 O   0  0  0  0  0  0  0  0  0  0  0  0
    6.8493    0.4945    1.2727 N   0  0  0  0  0  0  0  0  0  0  0  0
    6.7173   -0.6338    2.1712 C   0  0  1  0  0  0  0  0  0  0  0  0
    5.3126   -1.1857    1.9507 C   0  0  0  0  0  0  0  0  0  0  0  0
    4.4422   -0.1025    1.5405 N   0  0  0  0  0  0  0  0  0  0  0  0
    3.6092   -0.0831    0.3876 C   0  0  0  0  0  0  0  0  0  0  0  0
    2.3212    0.4309    0.5227 C   0  0  0  0  0  0  0  0  0  0  0  0
    7.7894   -1.6158    2.1028 C   0  0  0  0  0  0  0  0  0  0  0  0
    7.8135   -2.7912    2.8446 O   0  0  0  0  0  0  0  0  0  0  0  0
    8.7712   -1.4131    1.3333 O   0  0  0  0  0  0  0  0  0  0  0  0
   -4.4301    0.8872   -3.2164 C   0  0  0  0  0  0  0  0  0  0  0  0
   -4.4504    0.4703   -4.3992 O   0  0  0  0  0  0  0  0  0  0  0  0
   -8.3263   -2.3799    2.7991 H   0  0  0  0  0  0  0  0  0  0  0  0
  -10.0867   -2.6456    2.3388 H   0  0  0  0  0  0  0  0  0  0  0  0
   -8.7632   -3.1251    1.2257 H   0  0  0  0  0  0  0  0  0  0  0  0
   -9.0337    1.2022    0.2589 H   0  0  0  0  0  0  0  0  0  0  0  0
   -7.1864    2.0509   -1.2420 H   0  0  0  0  0  0  0  0  0  0  0  0
   -5.1183   -1.6217   -0.7174 H   0  0  0  0  0  0  0  0  0  0  0  0
   -6.9168   -2.4350    0.7395 H   0  0  0  0  0  0  0  0  0  0  0  0
   -2.5624    3.2421   -2.5207 H   0  0  0  0  0  0  0  0  0  0  0  0
   -3.4639    3.3962   -1.0133 H   0  0  0  0  0  0  0  0  0  0  0  0
   -0.3383    1.6307   -2.3865 H   0  0  0  0  0  0  0  0  0  0  0  0
    1.1074    0.0529   -2.5306 H   0  0  0  0  0  0  0  0  0  0  0  0
    3.3527   -0.8914   -2.8808 H   0  0  0  0  0  0  0  0  0  0  0  0
    7.2514   -1.4703   -1.0344 H   0  0  0  0  0  0  0  0  0  0  0  0
    6.7934   -0.1599   -2.1147 H   0  0  0  0  0  0  0  0  0  0  0  0
    6.8023    1.4556    1.7429 H   0  0  0  0  0  0  0  0  0  0  0  0
    6.6968   -0.2789    3.2493 H   0  0  0  0  0  0  0  0  0  0  0  0
    5.3936   -1.9976    1.2182 H   0  0  0  0  0  0  0  0  0  0  0  0
    4.9353   -1.6687    2.8936 H   0  0  0  0  0  0  0  0  0  0  0  0
    4.4313    0.7552    2.1742 H   0  0  0  0  0  0  0  0  0  0  0  0
    1.9760    0.8301    1.4985 H   0  0  0  0  0  0  0  0  0  0  0  0
    8.5908   -3.4231    2.7870 H   0  0  0  0  0  0  0  0  0  0  0  0
  1  2  1  0
  2  3  1  0
  3  4  2  0
  4  5  1  0
  5  6  2  0
  6  7  1  0
  7  8  2  0
  6  9  1  0
  9 10  2  0
 10 11  1  0
 11 12  1  0
 12 13  2  0
 13 14  1  0
 14 15  1  0
 15 16  2  0
 14 17  1  0
 17 18  2  0
 18 19  1  0
 19 20  2  0
 20 21  1  0
 21 22  1  0
 22 23  1  0
 23 24  2  0
 23 25  1  0
 25 26  1  0
 26 27  1  0
 27 28  1  0
 28 29  1  0
 29 30  2  0
 26 31  1  0
 31 32  1  0
 31 33  2  0
 10 34  1  0
 34 35  2  0
  8  3  1  0
 34  9  1  0
 16 12  1  0
 30 17  1  0
 29 20  1  0
  1 36  1  0
  1 37  1  0
  1 38  1  0
  4 39  1  0
  5 40  1  0
  7 41  1  0
  8 42  1  0
 11 43  1  0
 11 44  1  0
 13 45  1  0
 18 46  1  0
 19 47  1  0
 22 48  1  0
 22 49  1  0
 25 50  1  0
 26 51  1  1
 27 52  1  0
 27 53  1  0
 28 54  1  0
 30 55  1  0
 32 56  1  0
M  END
$$$$
[H]OC([H])([H])c1c(-c2c([H])c([H])c([H])c([H])c2[H])nc(-c2c([H])c([H])c(C3([H])C([H])([H])C([H])([H])N(C(=O)C([H])([H])Oc4c([H])c([H])c([H])c([H])c4F)C([H])([H])C3([H])[H])c([H])c2[H])n1[H]
     RDKit          3D

 64 68  0  0  0  0  0  0  0  0999 V2000
    6.6235   -3.6300   -1.9354 O   0  0  0  0  0  0  0  0  0  0  0  0
    7.2133   -2.4419   -1.4581 C   0  0  0  0  0  0  0  0  0  0  0  0
    6.1573   -1.5293   -0.9599 C   0  0  0  0  0  0  0  0  0  0  0  0
    4.8334   -1.8125   -0.9669 N   0  0  0  0  0  0  0  0  0  0  0  0
    4.1398   -0.7861   -0.4571 C   0  0  0  0  0  0  0  0  0  0  0  0
    5.0247    0.1618   -0.1208 N   0  0  0  0  0  0  0  0  0  0  0  0
    6.2878   -0.2697   -0.4206 C   0  0  0  0  0  0  0  0  0  0  0  0
    7.5107    0.4967   -0.2139 C   0  0  0  0  0  0  0  0  0  0  0  0
    8.6389    0.0171    0.3812 C   0  0  0  0  0  0  0  0  0  0  0  0
    9.7687    0.8078    0.5318 C   0  0  0  0  0  0  0  0  0  0  0  0
    9.7686    2.0991    0.0796 C   0  0  0  0  0  0  0  0  0  0  0  0
    8.6407    2.6065   -0.5247 C   0  0  0  0  0  0  0  0  0  0  0  0
    7.5414    1.8209   -0.6657 C   0  0  0  0  0  0  0  0  0  0  0  0
    2.7006   -0.6785   -0.2832 C   0  0  0  0  0  0  0  0  0  0  0  0
    1.8865   -1.7259   -0.6691 C   0  0  0  0  0  0  0  0  0  0  0  0
    0.5270   -1.6249   -0.5051 C   0  0  0  0  0  0  0  0  0  0  0  0
   -0.1018   -0.5221    0.0323 C   0  0  0  0  0  0  0  0  0  0  0  0
    0.7232    0.5140    0.4124 C   0  0  0  0  0  0  0  0  0  0  0  0
    2.0921    0.4312    0.2555 C   0  0  0  0  0  0  0  0  0  0  0  0
   -1.5476   -0.5317    0.1557 C   0  0  0  0  0  0  0  0  0  0  0  0
   -1.8805   -0.5564    1.6492 C   0  0  0  0  0  0  0  0  0  0  0  0
   -3.3832   -0.6761    1.8120 C   0  0  0  0  0  0  0  0  0  0  0  0
   -3.9484    0.5099    1.2042 N   0  0  0  0  0  0  0  0  0  0  0  0
   -3.0174    1.4253    0.5759 C   0  0  0  0  0  0  0  0  0  0  0  0
   -2.2532    0.6329   -0.4656 C   0  0  0  0  0  0  0  0  0  0  0  0
   -5.3530    0.7311    1.2422 C   0  0  0  0  0  0  0  0  0  0  0  0
   -6.0765   -0.1154    1.8075 O   0  0  0  0  0  0  0  0  0  0  0  0
   -5.9691    1.9255    0.6353 C   0  0  0  0  0  0  0  0  0  0  0  0
   -7.3453    1.9317    0.6820 O   0  0  0  0  0  0  0  0  0  0  0  0
   -8.2414    1.0709    0.0995 C   0  0  0  0  0  0  0  0  0  0  0  0
   -7.8909    0.0078   -0.6884 C   0  0  0  0  0  0  0  0  0  0  0  0
   -8.8540   -0.8028   -1.2338 C   0  0  0  0  0  0  0  0  0  0  0  0
  -10.2001   -0.6057   -1.0307 C   0  0  0  0  0  0  0  0  0  0  0  0
  -10.5832    0.4640   -0.2373 C   0  0  0  0  0  0  0  0  0  0  0  0
   -9.6154    1.2686    0.3039 C   0  0  0  0  0  0  0  0  0  0  0  0
   -9.9722    2.3317    1.0914 F   0  0  0  0  0  0  0  0  0  0  0  0
    7.3702   -4.3014   -1.9413 H   0  0  0  0  0  0  0  0  0  0  0  0
    7.9513   -2.6691   -0.6649 H   0  0  0  0  0  0  0  0  0  0  0  0
    7.7646   -2.0094   -2.3103 H   0  0  0  0  0  0  0  0  0  0  0  0
    4.4402   -2.6958   -1.3183 H   0  0  0  0  0  0  0  0  0  0  0  0
    8.6963   -0.9723    0.7587 H   0  0  0  0  0  0  0  0  0  0  0  0
   10.6433    0.4011    1.0050 H   0  0  0  0  0  0  0  0  0  0  0  0
   10.6414    2.7375    0.1863 H   0  0  0  0  0  0  0  0  0  0  0  0
    8.6069    3.6356   -0.8976 H   0  0  0  0  0  0  0  0  0  0  0  0
    6.6517    2.2203   -1.1421 H   0  0  0  0  0  0  0  0  0  0  0  0
    2.3741   -2.5937   -1.0914 H   0  0  0  0  0  0  0  0  0  0  0  0
   -0.0607   -2.4932   -0.8328 H   0  0  0  0  0  0  0  0  0  0  0  0
    0.2409    1.3832    0.8348 H   0  0  0  0  0  0  0  0  0  0  0  0
    2.7227    1.2669    0.5652 H   0  0  0  0  0  0  0  0  0  0  0  0
   -1.9375   -1.4941   -0.2299 H   0  0  0  0  0  0  0  0  0  0  0  0
   -1.5063    0.3144    2.1826 H   0  0  0  0  0  0  0  0  0  0  0  0
   -1.3951   -1.4629    2.0738 H   0  0  0  0  0  0  0  0  0  0  0  0
   -3.7555   -1.6048    1.3500 H   0  0  0  0  0  0  0  0  0  0  0  0
   -3.5938   -0.6782    2.9117 H   0  0  0  0  0  0  0  0  0  0  0  0
   -3.5623    2.2473    0.0331 H   0  0  0  0  0  0  0  0  0  0  0  0
   -2.3590    1.9401    1.2954 H   0  0  0  0  0  0  0  0  0  0  0  0
   -1.5913    1.2802   -1.0744 H   0  0  0  0  0  0  0  0  0  0  0  0
   -3.0147    0.2335   -1.1685 H   0  0  0  0  0  0  0  0  0  0  0  0
   -5.5436    2.0131   -0.3886 H   0  0  0  0  0  0  0  0  0  0  0  0
   -5.6028    2.8265    1.2101 H   0  0  0  0  0  0  0  0  0  0  0  0
   -6.8579   -0.1941   -0.8971 H   0  0  0  0  0  0  0  0  0  0  0  0
   -8.5791   -1.6560   -1.8653 H   0  0  0  0  0  0  0  0  0  0  0  0
  -10.9426   -1.2564   -1.4699 H   0  0  0  0  0  0  0  0  0  0  0  0
  -11.6460    0.6358   -0.0655 H   0  0  0  0  0  0  0  0  0  0  0  0
  1  2  1  0
  2  3  1  0
  3  4  1  0
  4  5  1  0
  5  6  2  0
  6  7  1  0
  7  8  1  0
  8  9  2  0
  9 10  1  0
 10 11  2  0
 11 12  1  0
 12 13  2  0
  5 14  1  0
 14 15  2  0
 15 16  1  0
 16 17  2  0
 17 18  1  0
 18 19  2  0
 17 20  1  0
 20 21  1  0
 21 22  1  0
 22 23  1  0
 23 24  1  0
 24 25  1  0
 23 26  1  0
 26 27  2  0
 26 28  1  0
 28 29  1  0
 29 30  1  0
 30 31  2  0
 31 32  1  0
 32 33  2  0
 33 34  1  0
 34 35  2  0
 35 36  1  0
  7  3  2  0
 13  8  1  0
 19 14  1  0
 25 20  1  0
 35 30  1  0
  1 37  1  0
  2 38  1  0
  2 39  1  0
  4 40  1  0
  9 41  1  0
 10 42  1  0
 11 43  1  0
 12 44  1  0
 13 45  1  0
 15 46  1  0
 16 47  1  0
 18 48  1  0
 19 49  1  0
 20 50  1  0
 21 51  1  0
 21 52  1  0
 22 53  1  0
 22 54  1  0
 24 55  1  0
 24 56  1  0
 25 57  1  0
 25 58  1  0
 28 59  1  0
 28 60  1  0
 31 61  1  0
 32 62  1  0
 33 63  1  0
 34 64  1  0
M  END
$$$$
[H]c1nc(Oc2c([H])c([H])c3c(c2[H])c(C([H])([H])[H])c([H])n3C([H])([H])[C@]2([H])N(C([H])([H])[H])C([H])([H])C([H])([H])C2([H])[H])c([H])c([H])c1F
     RDKit          3D

 47 50  0  0  0  0  0  0  0  0999 V2000
   -5.2300    0.7534   -0.4117 C   0  0  0  0  0  0  0  0  0  0  0  0
   -3.7997    0.5265   -0.4077 N   0  0  0  0  0  0  0  0  0  0  0  0
   -3.1814    1.6630   -1.0569 C   0  0  0  0  0  0  0  0  0  0  0  0
   -2.0108    2.0861   -0.2211 C   0  0  0  0  0  0  0  0  0  0  0  0
   -2.4988    1.7339    1.1901 C   0  0  0  0  0  0  0  0  0  0  0  0
   -3.2910    0.4922    0.9432 C   0  0  2  0  0  0  0  0  0  0  0  0
   -2.6891   -0.7884    1.3475 C   0  0  0  0  0  0  0  0  0  0  0  0
   -1.5789   -1.2904    0.6053 N   0  0  0  0  0  0  0  0  0  0  0  0
   -1.6891   -2.0176   -0.5494 C   0  0  0  0  0  0  0  0  0  0  0  0
   -0.4177   -2.3087   -0.9831 C   0  0  0  0  0  0  0  0  0  0  0  0
   -0.0077   -3.0798   -2.1970 C   0  0  0  0  0  0  0  0  0  0  0  0
    0.4787   -1.7588   -0.0917 C   0  0  0  0  0  0  0  0  0  0  0  0
    1.8703   -1.7671   -0.0598 C   0  0  0  0  0  0  0  0  0  0  0  0
    2.5515   -1.1456    0.9568 C   0  0  0  0  0  0  0  0  0  0  0  0
    3.9335   -1.1367    1.0160 O   0  0  0  0  0  0  0  0  0  0  0  0
    4.6180   -0.0993    0.3983 C   0  0  0  0  0  0  0  0  0  0  0  0
    4.8799   -0.2261   -0.9572 C   0  0  0  0  0  0  0  0  0  0  0  0
    5.5559    0.7992   -1.5655 C   0  0  0  0  0  0  0  0  0  0  0  0
    5.9522    1.9117   -0.8294 C   0  0  0  0  0  0  0  0  0  0  0  0
    6.6233    2.9129   -1.4684 F   0  0  0  0  0  0  0  0  0  0  0  0
    5.6631    1.9812    0.5169 C   0  0  0  0  0  0  0  0  0  0  0  0
    5.0012    0.9792    1.1168 N   0  0  0  0  0  0  0  0  0  0  0  0
    1.8299   -0.5144    1.9433 C   0  0  0  0  0  0  0  0  0  0  0  0
    0.4548   -0.5230    1.8842 C   0  0  0  0  0  0  0  0  0  0  0  0
   -0.2816   -1.1300    0.8884 C   0  0  0  0  0  0  0  0  0  0  0  0
   -5.8048   -0.1850   -0.2775 H   0  0  0  0  0  0  0  0  0  0  0  0
   -5.4596    1.4129    0.4653 H   0  0  0  0  0  0  0  0  0  0  0  0
   -5.5549    1.3258   -1.3041 H   0  0  0  0  0  0  0  0  0  0  0  0
   -2.9081    1.4589   -2.1141 H   0  0  0  0  0  0  0  0  0  0  0  0
   -3.8839    2.5443   -1.0981 H   0  0  0  0  0  0  0  0  0  0  0  0
   -1.1229    1.5267   -0.4901 H   0  0  0  0  0  0  0  0  0  0  0  0
   -1.8738    3.1901   -0.3107 H   0  0  0  0  0  0  0  0  0  0  0  0
   -3.1996    2.5657    1.4979 H   0  0  0  0  0  0  0  0  0  0  0  0
   -1.6678    1.6475    1.8935 H   0  0  0  0  0  0  0  0  0  0  0  0
   -4.2168    0.6172    1.6184 H   0  0  0  0  0  0  0  0  0  0  0  0
   -2.3654   -0.6622    2.4315 H   0  0  0  0  0  0  0  0  0  0  0  0
   -3.4881   -1.5902    1.4537 H   0  0  0  0  0  0  0  0  0  0  0  0
   -2.5818   -2.3335   -1.0693 H   0  0  0  0  0  0  0  0  0  0  0  0
   -0.7184   -2.9298   -3.0240 H   0  0  0  0  0  0  0  0  0  0  0  0
    0.1413   -4.1560   -1.9789 H   0  0  0  0  0  0  0  0  0  0  0  0
    0.9897   -2.7052   -2.5725 H   0  0  0  0  0  0  0  0  0  0  0  0
    2.4076   -2.2687   -0.8449 H   0  0  0  0  0  0  0  0  0  0  0  0
    4.5625   -1.0998   -1.5100 H   0  0  0  0  0  0  0  0  0  0  0  0
    5.7875    0.7574   -2.6148 H   0  0  0  0  0  0  0  0  0  0  0  0
    5.9677    2.8470    1.1061 H   0  0  0  0  0  0  0  0  0  0  0  0
    2.3375   -0.0012    2.7812 H   0  0  0  0  0  0  0  0  0  0  0  0
   -0.0843   -0.0154    2.6788 H   0  0  0  0  0  0  0  0  0  0  0  0
  1  2  1  0
  2  3  1  0
  3  4  1  0
  4  5  1  0
  5  6  1  0
  6  7  1  0
  7  8  1  0
  8  9  1  0
  9 10  2  0
 10 11  1  0
 10 12  1  0
 12 13  2  0
 13 14  1  0
 14 15  1  0
 15 16  1  0
 16 17  2  0
 17 18  1  0
 18 19  2  0
 19 20  1  0
 19 21  1  0
 21 22  2  0
 14 23  2  0
 23 24  1  0
 24 25  2  0
  6  2  1  0
 25  8  1  0
 25 12  1  0
 22 16  1  0
  1 26  1  0
  1 27  1  0
  1 28  1  0
  3 29  1  0
  3 30  1  0
  4 31  1  0
  4 32  1  0
  5 33  1  0
  5 34  1  0
  6 35  1  1
  7 36  1  0
  7 37  1  0
  9 38  1  0
 11 39  1  0
 11 40  1  0
 11 41  1  0
 13 42  1  0
 17 43  1  0
 18 44  1  0
 21 45  1  0
 23 46  1  0
 24 47  1  0
M  END
$$$$
[H]c1nc2c([H])c([H])n([H])c2c([H])c1N1C([H])([H])C([H])([H])C([H])([H])[C@]1([H])C([H])([H])[H]
     RDKit          3D

 30 32  0  0  0  0  0  0  0  0999 V2000
   -1.8127    1.7305    0.3733 C   0  0  0  0  0  0  0  0  0  0  0  0
   -1.7967    0.3275    0.8851 C   0  0  1  0  0  0  0  0  0  0  0  0
   -3.2124   -0.2280    0.8918 C   0  0  0  0  0  0  0  0  0  0  0  0
   -3.2744   -0.8115   -0.5182 C   0  0  0  0  0  0  0  0  0  0  0  0
   -1.9523   -1.5456   -0.5763 C   0  0  0  0  0  0  0  0  0  0  0  0
   -1.0470   -0.5660    0.0358 N   0  0  0  0  0  0  0  0  0  0  0  0
    0.3520   -0.5037   -0.1720 C   0  0  0  0  0  0  0  0  0  0  0  0
    0.9752   -1.4137   -1.0206 C   0  0  0  0  0  0  0  0  0  0  0  0
    2.3017   -1.3848   -1.2415 N   0  0  0  0  0  0  0  0  0  0  0  0
    3.0769   -0.4620   -0.6401 C   0  0  0  0  0  0  0  0  0  0  0  0
    4.4498   -0.2284   -0.7045 C   0  0  0  0  0  0  0  0  0  0  0  0
    4.6768    0.8423    0.1171 C   0  0  0  0  0  0  0  0  0  0  0  0
    3.4994    1.2432    0.6572 N   0  0  0  0  0  0  0  0  0  0  0  0
    2.4965    0.4547    0.2061 C   0  0  0  0  0  0  0  0  0  0  0  0
    1.1209    0.4512    0.4565 C   0  0  0  0  0  0  0  0  0  0  0  0
   -1.3003    1.8165   -0.6208 H   0  0  0  0  0  0  0  0  0  0  0  0
   -1.3331    2.4648    1.0551 H   0  0  0  0  0  0  0  0  0  0  0  0
   -2.8433    2.0596    0.2157 H   0  0  0  0  0  0  0  0  0  0  0  0
   -1.3479    0.3062    1.9052 H   0  0  0  0  0  0  0  0  0  0  0  0
   -3.9710    0.5417    1.0348 H   0  0  0  0  0  0  0  0  0  0  0  0
   -3.2267   -1.0495    1.6169 H   0  0  0  0  0  0  0  0  0  0  0  0
   -4.1413   -1.4535   -0.6749 H   0  0  0  0  0  0  0  0  0  0  0  0
   -3.2246    0.0575   -1.2133 H   0  0  0  0  0  0  0  0  0  0  0  0
   -2.0014   -2.4172    0.0720 H   0  0  0  0  0  0  0  0  0  0  0  0
   -1.6522   -1.7752   -1.6177 H   0  0  0  0  0  0  0  0  0  0  0  0
    0.3500   -2.1449   -1.4951 H   0  0  0  0  0  0  0  0  0  0  0  0
    5.1340   -0.8168   -1.3050 H   0  0  0  0  0  0  0  0  0  0  0  0
    5.6439    1.2831    0.2944 H   0  0  0  0  0  0  0  0  0  0  0  0
    3.3645    2.0358    1.3212 H   0  0  0  0  0  0  0  0  0  0  0  0
    0.6960    1.1859    1.1275 H   0  0  0  0  0  0  0  0  0  0  0  0
  1  2  1  0
  2  3  1  0
  3  4  1  0
  4  5  1  0
  5  6  1  0
  6  7  1  0
  7  8  2  0
  8  9  1  0
  9 10  2  0
 10 11  1  0
 11 12  2  0
 12 13  1  0
 13 14  1  0
 14 15  2  0
  6  2  1  0
 15  7  1  0
 14 10  1  0
  1 16  1  0
  1 17  1  0
  1 18  1  0
  2 19  1  1
  3 20  1  0
  3 21  1  0
  4 22  1  0
  4 23  1  0
  5 24  1  0
  5 25  1  0
  8 26  1  0
 11 27  1  0
 12 28  1  0
 13 29  1  0
 15 30  1  0
M  END
$$$$
[H]c1nn(C([H])([H])[H])c([H])c1-c1c([H])c([H])c2c(c1[H])c1c([H])c([H])nc([H])c1n2C([H])([H])C(=O)c1c([H])c(F)c([H])c([H])c1C([H])([H])N(C([H])([H])[H])C([H])([H])[H]
     RDKit          3D

 57 61  0  0  0  0  0  0  0  0999 V2000
   -5.2468    0.2412   -2.8503 C   0  0  0  0  0  0  0  0  0  0  0  0
   -5.1574   -0.4502   -1.6038 N   0  0  0  0  0  0  0  0  0  0  0  0
   -5.1279   -1.8775   -1.8526 C   0  0  0  0  0  0  0  0  0  0  0  0
   -4.0529   -0.1122   -0.7666 C   0  0  0  0  0  0  0  0  0  0  0  0
   -4.0249    1.2343   -0.1979 C   0  0  0  0  0  0  0  0  0  0  0  0
   -5.0732    2.1110   -0.4210 C   0  0  0  0  0  0  0  0  0  0  0  0
   -4.9977    3.3649    0.1643 C   0  0  0  0  0  0  0  0  0  0  0  0
   -3.9378    3.7497    0.9400 C   0  0  0  0  0  0  0  0  0  0  0  0
   -3.8764    4.9798    1.5077 F   0  0  0  0  0  0  0  0  0  0  0  0
   -2.9078    2.8548    1.1457 C   0  0  0  0  0  0  0  0  0  0  0  0
   -2.9205    1.5865    0.5898 C   0  0  0  0  0  0  0  0  0  0  0  0
   -1.7985    0.7145    0.8571 C   0  0  0  0  0  0  0  0  0  0  0  0
   -1.6873   -0.4647    0.4172 O   0  0  0  0  0  0  0  0  0  0  0  0
   -0.6831    1.2552    1.7234 C   0  0  0  0  0  0  0  0  0  0  0  0
    0.3532    0.2682    1.8706 N   0  0  0  0  0  0  0  0  0  0  0  0
    0.4638   -0.6810    2.8153 C   0  0  0  0  0  0  0  0  0  0  0  0
   -0.3238   -1.0202    3.8992 C   0  0  0  0  0  0  0  0  0  0  0  0
    0.0543   -2.0323    4.6712 N   0  0  0  0  0  0  0  0  0  0  0  0
    1.1691   -2.7642    4.4704 C   0  0  0  0  0  0  0  0  0  0  0  0
    1.9869   -2.4612    3.3990 C   0  0  0  0  0  0  0  0  0  0  0  0
    1.6189   -1.4160    2.5814 C   0  0  0  0  0  0  0  0  0  0  0  0
    2.2025   -0.8737    1.4579 C   0  0  0  0  0  0  0  0  0  0  0  0
    3.3656   -1.2243    0.7944 C   0  0  0  0  0  0  0  0  0  0  0  0
    3.7459   -0.5161   -0.3278 C   0  0  0  0  0  0  0  0  0  0  0  0
    2.9581    0.5257   -0.7630 C   0  0  0  0  0  0  0  0  0  0  0  0
    1.8114    0.8576   -0.0937 C   0  0  0  0  0  0  0  0  0  0  0  0
    1.4115    0.1672    1.0263 C   0  0  0  0  0  0  0  0  0  0  0  0
    4.9698   -0.8502   -1.0651 C   0  0  0  0  0  0  0  0  0  0  0  0
    5.5015   -2.1087   -1.1886 C   0  0  0  0  0  0  0  0  0  0  0  0
    6.6312   -1.9875   -1.9453 N   0  0  0  0  0  0  0  0  0  0  0  0
    6.8208   -0.7366   -2.2903 N   0  0  0  0  0  0  0  0  0  0  0  0
    7.8752   -0.1317   -3.0838 C   0  0  0  0  0  0  0  0  0  0  0  0
    5.8133   -0.0146   -1.7620 C   0  0  0  0  0  0  0  0  0  0  0  0
   -6.2806    0.6414   -3.0679 H   0  0  0  0  0  0  0  0  0  0  0  0
   -4.5155    1.0501   -2.9936 H   0  0  0  0  0  0  0  0  0  0  0  0
   -5.0667   -0.4735   -3.7072 H   0  0  0  0  0  0  0  0  0  0  0  0
   -4.2562   -2.1986   -2.4453 H   0  0  0  0  0  0  0  0  0  0  0  0
   -5.1440   -2.4659   -0.9128 H   0  0  0  0  0  0  0  0  0  0  0  0
   -6.0376   -2.2067   -2.4336 H   0  0  0  0  0  0  0  0  0  0  0  0
   -3.9942   -0.8917    0.0243 H   0  0  0  0  0  0  0  0  0  0  0  0
   -3.1397   -0.1859   -1.4338 H   0  0  0  0  0  0  0  0  0  0  0  0
   -5.9535    1.8462   -1.0234 H   0  0  0  0  0  0  0  0  0  0  0  0
   -5.8219    4.0528   -0.0126 H   0  0  0  0  0  0  0  0  0  0  0  0
   -2.0610    3.1513    1.7624 H   0  0  0  0  0  0  0  0  0  0  0  0
   -1.1354    1.5018    2.7140 H   0  0  0  0  0  0  0  0  0  0  0  0
   -0.2941    2.2147    1.3180 H   0  0  0  0  0  0  0  0  0  0  0  0
   -1.2476   -0.4597    4.1167 H   0  0  0  0  0  0  0  0  0  0  0  0
    1.4043   -3.5791    5.1541 H   0  0  0  0  0  0  0  0  0  0  0  0
    2.8828   -2.9972    3.1805 H   0  0  0  0  0  0  0  0  0  0  0  0
    3.9797   -2.0523    1.1517 H   0  0  0  0  0  0  0  0  0  0  0  0
    3.2945    1.0615   -1.6554 H   0  0  0  0  0  0  0  0  0  0  0  0
    1.1909    1.6725   -0.4301 H   0  0  0  0  0  0  0  0  0  0  0  0
    5.1321   -3.0411   -0.7831 H   0  0  0  0  0  0  0  0  0  0  0  0
    7.5044    0.7923   -3.5848 H   0  0  0  0  0  0  0  0  0  0  0  0
    8.7542    0.1516   -2.4680 H   0  0  0  0  0  0  0  0  0  0  0  0
    8.2087   -0.8177   -3.8727 H   0  0  0  0  0  0  0  0  0  0  0  0
    5.6596    1.0456   -1.8496 H   0  0  0  0  0  0  0  0  0  0  0  0
  1  2  1  0
  2  3  1  0
  2  4  1  0
  4  5  1  0
  5  6  2  0
  6  7  1  0
  7  8  2  0
  8  9  1  0
  8 10  1  0
 10 11  2  0
 11 12  1  0
 12 13  2  0
 12 14  1  0
 14 15  1  0
 15 16  1  0
 16 17  2  0
 17 18  1  0
 18 19  2  0
 19 20  1  0
 20 21  2  0
 21 22  1  0
 22 23  2  0
 23 24  1  0
 24 25  2  0
 25 26  1  0
 26 27  2  0
 24 28  1  0
 28 29  1  0
 29 30  2  0
 30 31  1  0
 31 32  1  0
 31 33  1  0
 11  5  1  0
 27 15  1  0
 33 28  2  0
 21 16  1  0
 27 22  1  0
  1 34  1  0
  1 35  1  0
  1 36  1  0
  3 37  1  0
  3 38  1  0
  3 39  1  0
  4 40  1  0
  4 41  1  0
  6 42  1  0
  7 43  1  0
 10 44  1  0
 14 45  1  0
 14 46  1  0
 17 47  1  0
 19 48  1  0
 20 49  1  0
 23 50  1  0
 25 51  1  0
 26 52  1  0
 29 53  1  0
 32 54  1  0
 32 55  1  0
 32 56  1  0
 33 57  1  0
M  END
$$$$
[H]c1c([H])c(-c2sc(N3C([H])([H])C([H])([H])C([H])(N([H])S(=O)(=O)c4c([H])c([H])c(Cl)c([H])c4[H])C([H])([H])C3([H])[H])nc2Br)c([H])c(C(F)(F)F)c1[H]
     RDKit          3D

 51 54  0  0  0  0  0  0  0  0999 V2000
   -9.0334    2.4617   -2.5267 Cl  0  0  0  0  0  0  0  0  0  0  0  0
   -7.9534    1.8077   -1.3242 C   0  0  0  0  0  0  0  0  0  0  0  0
   -7.4684    2.5696   -0.2659 C   0  0  0  0  0  0  0  0  0  0  0  0
   -6.6245    1.9944    0.6345 C   0  0  0  0  0  0  0  0  0  0  0  0
   -6.2033    0.6933    0.5817 C   0  0  0  0  0  0  0  0  0  0  0  0
   -6.6789   -0.0915   -0.4768 C   0  0  0  0  0  0  0  0  0  0  0  0
   -7.5297    0.4779   -1.3899 C   0  0  0  0  0  0  0  0  0  0  0  0
   -5.0703   -0.0380    1.7125 S   0  0  0  0  0  0  0  0  0  0  0  0
   -5.8814   -0.7711    2.7440 O   0  0  0  0  0  0  0  0  0  0  0  0
   -4.3447    1.1436    2.3301 O   0  0  0  0  0  0  0  0  0  0  0  0
   -4.0032   -0.9941    0.8308 N   0  0  0  0  0  0  0  0  0  0  0  0
   -2.6195   -0.6190    0.7928 C   0  0  0  0  0  0  0  0  0  0  0  0
   -2.0695   -0.4775   -0.5742 C   0  0  0  0  0  0  0  0  0  0  0  0
   -0.6261    0.0085   -0.5021 C   0  0  0  0  0  0  0  0  0  0  0  0
    0.1345   -0.8147    0.3968 N   0  0  0  0  0  0  0  0  0  0  0  0
   -0.5003   -1.8884    1.1025 C   0  0  0  0  0  0  0  0  0  0  0  0
   -1.8659   -1.6319    1.5932 C   0  0  0  0  0  0  0  0  0  0  0  0
    1.5184   -0.5973    0.5689 C   0  0  0  0  0  0  0  0  0  0  0  0
    2.2921   -0.6089    1.6144 N   0  0  0  0  0  0  0  0  0  0  0  0
    3.5783   -0.4045    1.5223 C   0  0  0  0  0  0  0  0  0  0  0  0
    4.6578   -0.3826    3.1397 Br  0  0  0  0  0  0  0  0  0  0  0  0
    4.1010   -0.1799    0.3015 C   0  0  0  0  0  0  0  0  0  0  0  0
    2.6856   -0.2687   -0.6860 S   0  0  0  0  0  0  0  0  0  0  0  0
    5.4266    0.0918   -0.2532 C   0  0  0  0  0  0  0  0  0  0  0  0
    5.5467    0.4306   -1.6053 C   0  0  0  0  0  0  0  0  0  0  0  0
    6.7421    0.6647   -2.1997 C   0  0  0  0  0  0  0  0  0  0  0  0
    7.9095    0.5736   -1.4690 C   0  0  0  0  0  0  0  0  0  0  0  0
    7.8334    0.2449   -0.1415 C   0  0  0  0  0  0  0  0  0  0  0  0
    6.5988    0.0065    0.4565 C   0  0  0  0  0  0  0  0  0  0  0  0
    9.1094    0.1481    0.6156 C   0  0  0  0  0  0  0  0  0  0  0  0
    9.7273    1.3894    0.4870 F   0  0  0  0  0  0  0  0  0  0  0  0
    9.9181   -0.7382   -0.0695 F   0  0  0  0  0  0  0  0  0  0  0  0
    8.9352   -0.2085    1.9341 F   0  0  0  0  0  0  0  0  0  0  0  0
   -7.7984    3.6115   -0.2016 H   0  0  0  0  0  0  0  0  0  0  0  0
   -6.2629    2.6070    1.4486 H   0  0  0  0  0  0  0  0  0  0  0  0
   -6.3617   -1.1431   -0.5662 H   0  0  0  0  0  0  0  0  0  0  0  0
   -7.9059   -0.1211   -2.2275 H   0  0  0  0  0  0  0  0  0  0  0  0
   -4.2186   -1.9839    0.8053 H   0  0  0  0  0  0  0  0  0  0  0  0
   -2.5541    0.3470    1.3803 H   0  0  0  0  0  0  0  0  0  0  0  0
   -2.6054    0.2074   -1.2452 H   0  0  0  0  0  0  0  0  0  0  0  0
   -2.0058   -1.5000   -1.0254 H   0  0  0  0  0  0  0  0  0  0  0  0
   -0.1317   -0.0563   -1.4947 H   0  0  0  0  0  0  0  0  0  0  0  0
   -0.5739    1.0539   -0.1209 H   0  0  0  0  0  0  0  0  0  0  0  0
    0.1333   -2.2212    1.9837 H   0  0  0  0  0  0  0  0  0  0  0  0
   -0.4755   -2.8089    0.4324 H   0  0  0  0  0  0  0  0  0  0  0  0
   -2.4278   -2.6110    1.5325 H   0  0  0  0  0  0  0  0  0  0  0  0
   -1.8558   -1.3254    2.6875 H   0  0  0  0  0  0  0  0  0  0  0  0
    4.6009    0.4945   -2.1776 H   0  0  0  0  0  0  0  0  0  0  0  0
    6.7682    0.9295   -3.2708 H   0  0  0  0  0  0  0  0  0  0  0  0
    8.8243    0.7773   -2.0098 H   0  0  0  0  0  0  0  0  0  0  0  0
    6.6083   -0.2491    1.4795 H   0  0  0  0  0  0  0  0  0  0  0  0
  1  2  1  0
  2  3  2  0
  3  4  1  0
  4  5  2  0
  5  6  1  0
  6  7  2  0
  5  8  1  0
  8  9  2  0
  8 10  2  0
  8 11  1  0
 11 12  1  0
 12 13  1  0
 13 14  1  0
 14 15  1  0
 15 16  1  0
 16 17  1  0
 15 18  1  0
 18 19  2  0
 19 20  1  0
 20 21  1  0
 20 22  2  0
 22 23  1  0
 22 24  1  0
 24 25  2  0
 25 26  1  0
 26 27  2  0
 27 28  1  0
 28 29  2  0
 28 30  1  0
 30 31  1  0
 30 32  1  0
 30 33  1  0
  7  2  1  0
 17 12  1  0
 23 18  1  0
 29 24  1  0
  3 34  1  0
  4 35  1  0
  6 36  1  0
  7 37  1  0
 11 38  1  0
 12 39  1  0
 13 40  1  0
 13 41  1  0
 14 42  1  0
 14 43  1  0
 16 44  1  0
 16 45  1  0
 17 46  1  0
 17 47  1  0
 25 48  1  0
 26 49  1  0
 27 50  1  0
 29 51  1  0
M  END
$$$$
[H]c1c([H])c([H])c(C([H])([H])OC(=O)N([H])c2c([H])c(-c3c([H])c([H])c([H])c(Cl)c3[H])c([H])c([H])c2C([H])([H])N2C([H])([H])C([H])([H])C([H])(N([H])C(=O)C3([H])C([H])([H])C([H])([H])C([H])([H])C([H])([H])C3([H])[H])C([H])([H])C2([H])[H])c([H])c1[H]
     RDKit          3D

 78 82  0  0  0  0  0  0  0  0999 V2000
   -7.5356   -5.5292   -2.0433 Cl  0  0  0  0  0  0  0  0  0  0  0  0
   -6.0045   -5.5586   -1.1860 C   0  0  0  0  0  0  0  0  0  0  0  0
   -5.5977   -6.7587   -0.6510 C   0  0  0  0  0  0  0  0  0  0  0  0
   -4.4027   -6.7938    0.0224 C   0  0  0  0  0  0  0  0  0  0  0  0
   -3.6356   -5.6608    0.1574 C   0  0  0  0  0  0  0  0  0  0  0  0
   -4.0264   -4.4475   -0.3712 C   0  0  0  0  0  0  0  0  0  0  0  0
   -5.2351   -4.3984   -1.0557 C   0  0  0  0  0  0  0  0  0  0  0  0
   -3.2293   -3.2439   -0.2341 C   0  0  0  0  0  0  0  0  0  0  0  0
   -1.8676   -3.3402   -0.1827 C   0  0  0  0  0  0  0  0  0  0  0  0
   -1.0589   -2.2216   -0.0554 C   0  0  0  0  0  0  0  0  0  0  0  0
   -1.6093   -0.9665    0.0228 C   0  0  0  0  0  0  0  0  0  0  0  0
   -0.8019    0.2636    0.1894 C   0  0  0  0  0  0  0  0  0  0  0  0
    0.5924    0.0968    0.1740 N   0  0  0  0  0  0  0  0  0  0  0  0
    1.2167   -0.2051   -1.0267 C   0  0  0  0  0  0  0  0  0  0  0  0
    2.5982   -0.8303   -0.8624 C   0  0  0  0  0  0  0  0  0  0  0  0
    3.2682   -0.0414    0.2295 C   0  0  0  0  0  0  0  0  0  0  0  0
    2.6030   -0.4559    1.5248 C   0  0  0  0  0  0  0  0  0  0  0  0
    1.1437   -0.1204    1.4350 C   0  0  0  0  0  0  0  0  0  0  0  0
    4.6916   -0.2301    0.2930 N   0  0  0  0  0  0  0  0  0  0  0  0
    5.6129    0.8312    0.2280 C   0  0  0  0  0  0  0  0  0  0  0  0
    5.1649    1.9928    0.1102 O   0  0  0  0  0  0  0  0  0  0  0  0
    7.0652    0.5493    0.2992 C   0  0  0  0  0  0  0  0  0  0  0  0
    7.7847    1.8607    0.2898 C   0  0  0  0  0  0  0  0  0  0  0  0
    9.0828    1.8776   -0.4385 C   0  0  0  0  0  0  0  0  0  0  0  0
    9.8440    0.5923   -0.3998 C   0  0  0  0  0  0  0  0  0  0  0  0
    8.9838   -0.6173   -0.6576 C   0  0  0  0  0  0  0  0  0  0  0  0
    7.5345   -0.2581   -0.8957 C   0  0  0  0  0  0  0  0  0  0  0  0
   -3.0130   -0.8211   -0.0256 C   0  0  0  0  0  0  0  0  0  0  0  0
   -3.5666    0.4489    0.0594 N   0  0  0  0  0  0  0  0  0  0  0  0
   -4.9277    0.8391   -0.0006 C   0  0  0  0  0  0  0  0  0  0  0  0
   -5.9221    0.0979   -0.1435 O   0  0  0  0  0  0  0  0  0  0  0  0
   -5.2657    2.2143    0.1068 O   0  0  0  0  0  0  0  0  0  0  0  0
   -6.6027    2.6599    0.0544 C   0  0  0  0  0  0  0  0  0  0  0  0
   -6.6194    4.1369    0.1827 C   0  0  0  0  0  0  0  0  0  0  0  0
   -7.8077    4.8347    0.1846 C   0  0  0  0  0  0  0  0  0  0  0  0
   -7.8267    6.2125    0.2986 C   0  0  0  0  0  0  0  0  0  0  0  0
   -6.6298    6.8686    0.4094 C   0  0  0  0  0  0  0  0  0  0  0  0
   -5.4169    6.1822    0.4101 C   0  0  0  0  0  0  0  0  0  0  0  0
   -5.4351    4.8076    0.2946 C   0  0  0  0  0  0  0  0  0  0  0  0
   -3.7759   -1.9581   -0.1518 C   0  0  0  0  0  0  0  0  0  0  0  0
   -6.2234   -7.6222   -0.7788 H   0  0  0  0  0  0  0  0  0  0  0  0
   -4.0674   -7.7094    0.4432 H   0  0  0  0  0  0  0  0  0  0  0  0
   -2.6958   -5.7246    0.6963 H   0  0  0  0  0  0  0  0  0  0  0  0
   -5.5785   -3.4734   -1.4839 H   0  0  0  0  0  0  0  0  0  0  0  0
   -1.3631   -4.3080   -0.2407 H   0  0  0  0  0  0  0  0  0  0  0  0
    0.0070   -2.3274    0.0059 H   0  0  0  0  0  0  0  0  0  0  0  0
   -1.1500    0.8114    1.1171 H   0  0  0  0  0  0  0  0  0  0  0  0
   -1.1439    0.9449   -0.6582 H   0  0  0  0  0  0  0  0  0  0  0  0
    1.3865    0.7290   -1.6666 H   0  0  0  0  0  0  0  0  0  0  0  0
    0.6215   -0.9048   -1.6507 H   0  0  0  0  0  0  0  0  0  0  0  0
    3.1421   -0.8667   -1.8139 H   0  0  0  0  0  0  0  0  0  0  0  0
    2.3878   -1.8714   -0.4931 H   0  0  0  0  0  0  0  0  0  0  0  0
    3.0698    1.0460    0.0826 H   0  0  0  0  0  0  0  0  0  0  0  0
    2.7739   -1.5514    1.6763 H   0  0  0  0  0  0  0  0  0  0  0  0
    3.0505    0.0823    2.3821 H   0  0  0  0  0  0  0  0  0  0  0  0
    0.6089   -1.0112    1.8923 H   0  0  0  0  0  0  0  0  0  0  0  0
    0.9904    0.7586    2.1447 H   0  0  0  0  0  0  0  0  0  0  0  0
    5.0490   -1.2048    0.3934 H   0  0  0  0  0  0  0  0  0  0  0  0
    7.3250    0.0066    1.2283 H   0  0  0  0  0  0  0  0  0  0  0  0
    7.1307    2.6250   -0.1996 H   0  0  0  0  0  0  0  0  0  0  0  0
    7.8765    2.1971    1.3554 H   0  0  0  0  0  0  0  0  0  0  0  0
    8.9835    2.2381   -1.4881 H   0  0  0  0  0  0  0  0  0  0  0  0
    9.7257    2.6501    0.0686 H   0  0  0  0  0  0  0  0  0  0  0  0
   10.6161    0.6190   -1.2219 H   0  0  0  0  0  0  0  0  0  0  0  0
   10.4147    0.5164    0.5435 H   0  0  0  0  0  0  0  0  0  0  0  0
    9.0202   -1.2388    0.2607 H   0  0  0  0  0  0  0  0  0  0  0  0
    9.3410   -1.2526   -1.4859 H   0  0  0  0  0  0  0  0  0  0  0  0
    6.9679   -1.2105   -0.9369 H   0  0  0  0  0  0  0  0  0  0  0  0
    7.4130    0.3028   -1.8299 H   0  0  0  0  0  0  0  0  0  0  0  0
   -2.8810    1.2680    0.1979 H   0  0  0  0  0  0  0  0  0  0  0  0
   -7.0985    2.3359   -0.8776 H   0  0  0  0  0  0  0  0  0  0  0  0
   -7.2080    2.1891    0.8816 H   0  0  0  0  0  0  0  0  0  0  0  0
   -8.7491    4.2969    0.0935 H   0  0  0  0  0  0  0  0  0  0  0  0
   -8.7634    6.7675    0.3017 H   0  0  0  0  0  0  0  0  0  0  0  0
   -6.5595    7.9420    0.5003 H   0  0  0  0  0  0  0  0  0  0  0  0
   -4.4625    6.6891    0.5002 H   0  0  0  0  0  0  0  0  0  0  0  0
   -4.4757    4.2736    0.2956 H   0  0  0  0  0  0  0  0  0  0  0  0
   -4.8541   -1.9219   -0.1926 H   0  0  0  0  0  0  0  0  0  0  0  0
  1  2  1  0
  2  3  2  0
  3  4  1  0
  4  5  2  0
  5  6  1  0
  6  7  2  0
  6  8  1  0
  8  9  2  0
  9 10  1  0
 10 11  2  0
 11 12  1  0
 12 13  1  0
 13 14  1  0
 14 15  1  0
 15 16  1  0
 16 17  1  0
 17 18  1  0
 16 19  1  0
 19 20  1  0
 20 21  2  0
 20 22  1  0
 22 23  1  0
 23 24  1  0
 24 25  1  0
 25 26  1  0
 26 27  1  0
 11 28  1  0
 28 29  1  0
 29 30  1  0
 30 31  2  0
 30 32  1  0
 32 33  1  0
 33 34  1  0
 34 35  2  0
 35 36  1  0
 36 37  2  0
 37 38  1  0
 38 39  2  0
 28 40  2  0
  7  2  1  0
 40  8  1  0
 18 13  1  0
 27 22  1  0
 39 34  1  0
  3 41  1  0
  4 42  1  0
  5 43  1  0
  7 44  1  0
  9 45  1  0
 10 46  1  0
 12 47  1  0
 12 48  1  0
 14 49  1  0
 14 50  1  0
 15 51  1  0
 15 52  1  0
 16 53  1  0
 17 54  1  0
 17 55  1  0
 18 56  1  0
 18 57  1  0
 19 58  1  0
 22 59  1  0
 23 60  1  0
 23 61  1  0
 24 62  1  0
 24 63  1  0
 25 64  1  0
 25 65  1  0
 26 66  1  0
 26 67  1  0
 27 68  1  0
 27 69  1  0
 29 70  1  0
 33 71  1  0
 33 72  1  0
 35 73  1  0
 36 74  1  0
 37 75  1  0
 38 76  1  0
 39 77  1  0
 40 78  1  0
M  END
$$$$
[H]c1nc2c(N([H])C(=O)c3c([H])c([H])c([H])c([H])c3[H])c([H])c([H])c(S(=O)(=O)N3C([H])([H])C([H])([H])C([H])(n4c([H])c([H])c([H])c4[H])C([H])([H])C3([H])[H])c2c([H])c1[H]
     RDKit          3D

 57 61  0  0  0  0  0  0  0  0999 V2000
    4.8368   -1.3214    1.7204 O   0  0  0  0  0  0  0  0  0  0  0  0
    5.1305   -0.6543    0.6882 C   0  0  0  0  0  0  0  0  0  0  0  0
    4.1953    0.2186    0.1131 N   0  0  0  0  0  0  0  0  0  0  0  0
    2.8854    0.5117    0.5116 C   0  0  0  0  0  0  0  0  0  0  0  0
    2.2614   -0.0242    1.5831 C   0  0  0  0  0  0  0  0  0  0  0  0
    0.9451    0.3254    1.9132 C   0  0  0  0  0  0  0  0  0  0  0  0
    0.2213    1.2260    1.1710 C   0  0  0  0  0  0  0  0  0  0  0  0
   -1.4234    1.6358    1.6009 S   0  0  0  0  0  0  0  0  0  0  0  0
   -1.8003    0.8259    2.8096 O   0  0  0  0  0  0  0  0  0  0  0  0
   -1.5717    3.0751    1.9714 O   0  0  0  0  0  0  0  0  0  0  0  0
   -2.5458    1.2047    0.3306 N   0  0  0  0  0  0  0  0  0  0  0  0
   -2.4659   -0.2050    0.1580 C   0  0  0  0  0  0  0  0  0  0  0  0
   -3.6433   -0.8486   -0.4865 C   0  0  0  0  0  0  0  0  0  0  0  0
   -4.8831   -0.3924    0.2426 C   0  0  0  0  0  0  0  0  0  0  0  0
   -4.9872    1.1151   -0.0239 C   0  0  0  0  0  0  0  0  0  0  0  0
   -3.8144    1.7243    0.7128 C   0  0  0  0  0  0  0  0  0  0  0  0
   -6.0649   -1.1015   -0.1013 N   0  0  0  0  0  0  0  0  0  0  0  0
   -6.6412   -2.0541    0.6522 C   0  0  0  0  0  0  0  0  0  0  0  0
   -7.7799   -2.5257   -0.0006 C   0  0  0  0  0  0  0  0  0  0  0  0
   -7.8611   -1.8192   -1.1710 C   0  0  0  0  0  0  0  0  0  0  0  0
   -6.7924   -0.9419   -1.2182 C   0  0  0  0  0  0  0  0  0  0  0  0
    0.8607    1.7780    0.0699 C   0  0  0  0  0  0  0  0  0  0  0  0
    0.1776    2.6876   -0.7029 C   0  0  0  0  0  0  0  0  0  0  0  0
    0.8024    3.2395   -1.7914 C   0  0  0  0  0  0  0  0  0  0  0  0
    2.0910    2.8740   -2.0850 C   0  0  0  0  0  0  0  0  0  0  0  0
    2.7516    1.9881   -1.3292 N   0  0  0  0  0  0  0  0  0  0  0  0
    2.1559    1.4350   -0.2565 C   0  0  0  0  0  0  0  0  0  0  0  0
    6.4740   -0.8404    0.1368 C   0  0  0  0  0  0  0  0  0  0  0  0
    7.0222    0.0578   -0.7305 C   0  0  0  0  0  0  0  0  0  0  0  0
    8.2961   -0.1335   -1.2531 C   0  0  0  0  0  0  0  0  0  0  0  0
    9.0052   -1.2336   -0.8926 C   0  0  0  0  0  0  0  0  0  0  0  0
    8.4848   -2.1583   -0.0216 C   0  0  0  0  0  0  0  0  0  0  0  0
    7.2198   -1.9491    0.4845 C   0  0  0  0  0  0  0  0  0  0  0  0
    4.5620    0.7219   -0.7674 H   0  0  0  0  0  0  0  0  0  0  0  0
    2.7243   -0.7399    2.2401 H   0  0  0  0  0  0  0  0  0  0  0  0
    0.4582   -0.1253    2.7917 H   0  0  0  0  0  0  0  0  0  0  0  0
   -2.2521   -0.7375    1.1056 H   0  0  0  0  0  0  0  0  0  0  0  0
   -1.5713   -0.4133   -0.5003 H   0  0  0  0  0  0  0  0  0  0  0  0
   -3.7568   -0.5884   -1.5751 H   0  0  0  0  0  0  0  0  0  0  0  0
   -3.5204   -1.9469   -0.4127 H   0  0  0  0  0  0  0  0  0  0  0  0
   -4.6415   -0.4664    1.3380 H   0  0  0  0  0  0  0  0  0  0  0  0
   -5.9082    1.5323    0.4043 H   0  0  0  0  0  0  0  0  0  0  0  0
   -4.8914    1.2942   -1.1204 H   0  0  0  0  0  0  0  0  0  0  0  0
   -4.0415    1.6521    1.7933 H   0  0  0  0  0  0  0  0  0  0  0  0
   -3.8230    2.8194    0.4502 H   0  0  0  0  0  0  0  0  0  0  0  0
   -6.3250   -2.4369    1.6136 H   0  0  0  0  0  0  0  0  0  0  0  0
   -8.4374   -3.2877    0.3661 H   0  0  0  0  0  0  0  0  0  0  0  0
   -8.6044   -1.9102   -1.9260 H   0  0  0  0  0  0  0  0  0  0  0  0
   -6.6267   -0.2664   -2.0447 H   0  0  0  0  0  0  0  0  0  0  0  0
   -0.8212    2.9443   -0.4360 H   0  0  0  0  0  0  0  0  0  0  0  0
    0.3055    3.9465   -2.4121 H   0  0  0  0  0  0  0  0  0  0  0  0
    2.5790    3.3109   -2.9425 H   0  0  0  0  0  0  0  0  0  0  0  0
    6.4952    0.9388   -1.0329 H   0  0  0  0  0  0  0  0  0  0  0  0
    8.7493    0.5623   -1.9395 H   0  0  0  0  0  0  0  0  0  0  0  0
   10.0118   -1.4412   -1.2686 H   0  0  0  0  0  0  0  0  0  0  0  0
    8.9991   -3.0468    0.2997 H   0  0  0  0  0  0  0  0  0  0  0  0
    6.7945   -2.6653    1.1699 H   0  0  0  0  0  0  0  0  0  0  0  0
  1  2  2  0
  2  3  1  0
  3  4  1  0
  4  5  2  0
  5  6  1  0
  6  7  2  0
  7  8  1  0
  8  9  2  0
  8 10  2  0
  8 11  1  0
 11 12  1  0
 12 13  1  0
 13 14  1  0
 14 15  1  0
 15 16  1  0
 14 17  1  0
 17 18  1  0
 18 19  2  0
 19 20  1  0
 20 21  2  0
  7 22  1  0
 22 23  2  0
 23 24  1  0
 24 25  2  0
 25 26  1  0
 26 27  2  0
  2 28  1  0
 28 29  2  0
 29 30  1  0
 30 31  2  0
 31 32  1  0
 32 33  2  0
 27  4  1  0
 33 28  1  0
 16 11  1  0
 21 17  1  0
 27 22  1  0
  3 34  1  0
  5 35  1  0
  6 36  1  0
 12 37  1  0
 12 38  1  0
 13 39  1  0
 13 40  1  0
 14 41  1  0
 15 42  1  0
 15 43  1  0
 16 44  1  0
 16 45  1  0
 18 46  1  0
 19 47  1  0
 20 48  1  0
 21 49  1  0
 23 50  1  0
 24 51  1  0
 25 52  1  0
 29 53  1  0
 30 54  1  0
 31 55  1  0
 32 56  1  0
 33 57  1  0
M  END
$$$$
[H]c1c([H])c(C(F)(F)F)c([H])c([H])c1N([H])C(=O)c1onc(C([H])([H])[H])c1C([H])([H])N1C([H])([H])C([H])([H])C2(C1([H])[H])C([H])([H])C([H])([H])N(C(=O)OC([H])([H])[H])C([H])([H])C2([H])[H]
     RDKit          3D

 61 64  0  0  0  0  0  0  0  0999 V2000
    0.0882   -4.5640    2.3651 C   0  0  0  0  0  0  0  0  0  0  0  0
   -1.1552   -3.7918    2.1186 C   0  0  0  0  0  0  0  0  0  0  0  0
   -2.3930   -3.9912    2.5149 N   0  0  0  0  0  0  0  0  0  0  0  0
   -3.1730   -3.0788    2.0689 O   0  0  0  0  0  0  0  0  0  0  0  0
   -2.4732   -2.2024    1.3342 C   0  0  0  0  0  0  0  0  0  0  0  0
   -3.1477   -1.0748    0.7234 C   0  0  0  0  0  0  0  0  0  0  0  0
   -2.6331   -0.2053   -0.0061 O   0  0  0  0  0  0  0  0  0  0  0  0
   -4.5580   -0.9433    0.9849 N   0  0  0  0  0  0  0  0  0  0  0  0
   -5.2885    0.1190    0.4154 C   0  0  0  0  0  0  0  0  0  0  0  0
   -5.1170    0.6372   -0.8407 C   0  0  0  0  0  0  0  0  0  0  0  0
   -5.8703    1.7215   -1.3124 C   0  0  0  0  0  0  0  0  0  0  0  0
   -6.8282    2.3248   -0.5340 C   0  0  0  0  0  0  0  0  0  0  0  0
   -7.0138    1.8086    0.7431 C   0  0  0  0  0  0  0  0  0  0  0  0
   -6.2747    0.7470    1.2033 C   0  0  0  0  0  0  0  0  0  0  0  0
   -7.6266    3.4719   -1.0342 C   0  0  0  0  0  0  0  0  0  0  0  0
   -8.4533    3.9152   -0.0471 F   0  0  0  0  0  0  0  0  0  0  0  0
   -8.3300    3.1153   -2.1763 F   0  0  0  0  0  0  0  0  0  0  0  0
   -6.7555    4.5098   -1.3684 F   0  0  0  0  0  0  0  0  0  0  0  0
   -1.2002   -2.5939    1.3263 C   0  0  0  0  0  0  0  0  0  0  0  0
    0.0166   -2.0823    0.7057 C   0  0  0  0  0  0  0  0  0  0  0  0
    0.0057   -0.9027   -0.0450 N   0  0  0  0  0  0  0  0  0  0  0  0
    0.5611   -1.0931   -1.3999 C   0  0  0  0  0  0  0  0  0  0  0  0
    2.0342   -1.1229   -1.1465 C   0  0  0  0  0  0  0  0  0  0  0  0
    2.2338   -0.0176   -0.1338 C   0  0  0  0  0  0  0  0  0  0  0  0
    0.9080    0.1239    0.5187 C   0  0  0  0  0  0  0  0  0  0  0  0
    2.6305    1.2330   -0.8699 C   0  0  0  0  0  0  0  0  0  0  0  0
    3.9096    1.8604   -0.4199 C   0  0  0  0  0  0  0  0  0  0  0  0
    4.9633    0.9511   -0.0986 N   0  0  0  0  0  0  0  0  0  0  0  0
    4.6416   -0.4167    0.2457 C   0  0  0  0  0  0  0  0  0  0  0  0
    3.2730   -0.4121    0.9022 C   0  0  0  0  0  0  0  0  0  0  0  0
    6.3325    1.3198   -0.0932 C   0  0  0  0  0  0  0  0  0  0  0  0
    7.2398    0.5131    0.1958 O   0  0  0  0  0  0  0  0  0  0  0  0
    6.7470    2.6229   -0.4149 O   0  0  0  0  0  0  0  0  0  0  0  0
    8.1404    2.9575   -0.3976 C   0  0  0  0  0  0  0  0  0  0  0  0
    0.4484   -4.9932    1.3829 H   0  0  0  0  0  0  0  0  0  0  0  0
   -0.0884   -5.3852    3.0817 H   0  0  0  0  0  0  0  0  0  0  0  0
    0.8624   -3.8506    2.7180 H   0  0  0  0  0  0  0  0  0  0  0  0
   -4.9975   -1.6534    1.5928 H   0  0  0  0  0  0  0  0  0  0  0  0
   -4.3800    0.1739   -1.5022 H   0  0  0  0  0  0  0  0  0  0  0  0
   -5.6971    2.0974   -2.3177 H   0  0  0  0  0  0  0  0  0  0  0  0
   -7.7695    2.2884    1.3467 H   0  0  0  0  0  0  0  0  0  0  0  0
   -6.4195    0.3425    2.2070 H   0  0  0  0  0  0  0  0  0  0  0  0
    0.7457   -1.8867    1.5839 H   0  0  0  0  0  0  0  0  0  0  0  0
    0.5443   -2.9395    0.1788 H   0  0  0  0  0  0  0  0  0  0  0  0
    0.3307   -0.1477   -1.9481 H   0  0  0  0  0  0  0  0  0  0  0  0
    0.1711   -1.9848   -1.8896 H   0  0  0  0  0  0  0  0  0  0  0  0
    2.3739   -2.1074   -0.7548 H   0  0  0  0  0  0  0  0  0  0  0  0
    2.5665   -0.8378   -2.0709 H   0  0  0  0  0  0  0  0  0  0  0  0
    0.9974   -0.0479    1.6211 H   0  0  0  0  0  0  0  0  0  0  0  0
    0.4342    1.0971    0.3376 H   0  0  0  0  0  0  0  0  0  0  0  0
    2.7065    1.0252   -1.9558 H   0  0  0  0  0  0  0  0  0  0  0  0
    1.8373    1.9994   -0.7633 H   0  0  0  0  0  0  0  0  0  0  0  0
    3.7495    2.6196    0.4039 H   0  0  0  0  0  0  0  0  0  0  0  0
    4.2733    2.4912   -1.2748 H   0  0  0  0  0  0  0  0  0  0  0  0
    5.3634   -0.7886    1.0151 H   0  0  0  0  0  0  0  0  0  0  0  0
    4.6799   -1.0170   -0.6818 H   0  0  0  0  0  0  0  0  0  0  0  0
    3.2745    0.3608    1.6792 H   0  0  0  0  0  0  0  0  0  0  0  0
    3.0532   -1.3979    1.3437 H   0  0  0  0  0  0  0  0  0  0  0  0
    8.2635    4.0263   -0.0820 H   0  0  0  0  0  0  0  0  0  0  0  0
    8.5417    2.7810   -1.4053 H   0  0  0  0  0  0  0  0  0  0  0  0
    8.7006    2.2761    0.2970 H   0  0  0  0  0  0  0  0  0  0  0  0
  1  2  1  0
  2  3  2  0
  3  4  1  0
  4  5  1  0
  5  6  1  0
  6  7  2  0
  6  8  1  0
  8  9  1  0
  9 10  2  0
 10 11  1  0
 11 12  2  0
 12 13  1  0
 13 14  2  0
 12 15  1  0
 15 16  1  0
 15 17  1  0
 15 18  1  0
  5 19  2  0
 19 20  1  0
 20 21  1  0
 21 22  1  0
 22 23  1  0
 23 24  1  0
 24 25  1  0
 24 26  1  0
 26 27  1  0
 27 28  1  0
 28 29  1  0
 29 30  1  0
 28 31  1  0
 31 32  2  0
 31 33  1  0
 33 34  1  0
 19  2  1  0
 25 21  1  0
 14  9  1  0
 30 24  1  0
  1 35  1  0
  1 36  1  0
  1 37  1  0
  8 38  1  0
 10 39  1  0
 11 40  1  0
 13 41  1  0
 14 42  1  0
 20 43  1  0
 20 44  1  0
 22 45  1  0
 22 46  1  0
 23 47  1  0
 23 48  1  0
 25 49  1  0
 25 50  1  0
 26 51  1  0
 26 52  1  0
 27 53  1  0
 27 54  1  0
 29 55  1  0
 29 56  1  0
 30 57  1  0
 30 58  1  0
 34 59  1  0
 34 60  1  0
 34 61  1  0
M  END
$$$$
[H]c1nc(-c2nc3c([H])c([H])c(-c4c([H])nc([H])n4C([H])([H])C([H])([H])C(F)(F)F)c([H])c3c(N([H])C(=O)N3C([H])([H])C([H])([H])OC([H])([H])C3([H])[H])c2[H])c([H])c([H])c1C([H])([H])[H]
     RDKit          3D

 62 66  0  0  0  0  0  0  0  0999 V2000
    6.9439    2.9750   -3.9245 F   0  0  0  0  0  0  0  0  0  0  0  0
    5.7043    2.5137   -4.3146 C   0  0  0  0  0  0  0  0  0  0  0  0
    5.7371    2.1236   -5.6336 F   0  0  0  0  0  0  0  0  0  0  0  0
    4.7454    3.5008   -4.0806 F   0  0  0  0  0  0  0  0  0  0  0  0
    5.3657    1.3421   -3.4404 C   0  0  0  0  0  0  0  0  0  0  0  0
    5.3108    1.7380   -1.9587 C   0  0  0  0  0  0  0  0  0  0  0  0
    4.9968    0.5498   -1.2076 N   0  0  0  0  0  0  0  0  0  0  0  0
    5.9774   -0.3149   -0.7518 C   0  0  0  0  0  0  0  0  0  0  0  0
    5.4132   -1.3157   -0.0964 N   0  0  0  0  0  0  0  0  0  0  0  0
    4.1098   -1.0937   -0.1354 C   0  0  0  0  0  0  0  0  0  0  0  0
    3.8113    0.0858   -0.8350 C   0  0  0  0  0  0  0  0  0  0  0  0
    2.4602    0.6081   -0.9989 C   0  0  0  0  0  0  0  0  0  0  0  0
    2.0707    1.6404   -1.7870 C   0  0  0  0  0  0  0  0  0  0  0  0
    0.7339    2.0845   -1.8202 C   0  0  0  0  0  0  0  0  0  0  0  0
   -0.2563    1.5060   -1.0641 C   0  0  0  0  0  0  0  0  0  0  0  0
   -1.5169    1.9619   -1.1301 N   0  0  0  0  0  0  0  0  0  0  0  0
   -2.5155    1.4073   -0.3949 C   0  0  0  0  0  0  0  0  0  0  0  0
   -2.1847    0.3549    0.4251 C   0  0  0  0  0  0  0  0  0  0  0  0
   -0.8964   -0.1341    0.5128 C   0  0  0  0  0  0  0  0  0  0  0  0
   -0.5520   -1.2143    1.3449 N   0  0  0  0  0  0  0  0  0  0  0  0
   -1.4122   -1.9152    2.1805 C   0  0  0  0  0  0  0  0  0  0  0  0
   -2.6102   -1.6903    2.3185 O   0  0  0  0  0  0  0  0  0  0  0  0
   -0.9009   -3.0186    2.9804 N   0  0  0  0  0  0  0  0  0  0  0  0
   -1.7518   -3.7740    3.8540 C   0  0  0  0  0  0  0  0  0  0  0  0
   -1.5136   -5.2657    3.7436 C   0  0  0  0  0  0  0  0  0  0  0  0
   -0.2913   -5.5654    3.1371 O   0  0  0  0  0  0  0  0  0  0  0  0
    0.7023   -4.6973    3.5818 C   0  0  0  0  0  0  0  0  0  0  0  0
    0.5112   -3.3732    2.8881 C   0  0  0  0  0  0  0  0  0  0  0  0
    0.1251    0.4572   -0.2606 C   0  0  0  0  0  0  0  0  0  0  0  0
    1.4249    0.0308   -0.2323 C   0  0  0  0  0  0  0  0  0  0  0  0
   -3.8477    1.9667   -0.5406 C   0  0  0  0  0  0  0  0  0  0  0  0
   -4.8950    1.4503    0.1676 C   0  0  0  0  0  0  0  0  0  0  0  0
   -6.1918    1.9760    0.0351 C   0  0  0  0  0  0  0  0  0  0  0  0
   -6.3935    3.0224   -0.8209 C   0  0  0  0  0  0  0  0  0  0  0  0
   -7.7559    3.5937   -0.9757 C   0  0  0  0  0  0  0  0  0  0  0  0
   -5.3231    3.5361   -1.5318 C   0  0  0  0  0  0  0  0  0  0  0  0
   -4.1041    3.0003   -1.3718 N   0  0  0  0  0  0  0  0  0  0  0  0
    6.1545    0.5471   -3.4881 H   0  0  0  0  0  0  0  0  0  0  0  0
    4.4200    0.8529   -3.7382 H   0  0  0  0  0  0  0  0  0  0  0  0
    6.4158    1.9799   -1.7247 H   0  0  0  0  0  0  0  0  0  0  0  0
    4.7197    2.6251   -1.7473 H   0  0  0  0  0  0  0  0  0  0  0  0
    7.0296   -0.1781   -0.9156 H   0  0  0  0  0  0  0  0  0  0  0  0
    3.3761   -1.7312    0.3012 H   0  0  0  0  0  0  0  0  0  0  0  0
    2.7527    2.1453   -2.4266 H   0  0  0  0  0  0  0  0  0  0  0  0
    0.4633    2.9095   -2.4610 H   0  0  0  0  0  0  0  0  0  0  0  0
   -3.0096   -0.0461    0.9830 H   0  0  0  0  0  0  0  0  0  0  0  0
    0.4462   -1.5590    1.3665 H   0  0  0  0  0  0  0  0  0  0  0  0
   -1.5951   -3.4468    4.9026 H   0  0  0  0  0  0  0  0  0  0  0  0
   -2.8181   -3.6233    3.5723 H   0  0  0  0  0  0  0  0  0  0  0  0
   -2.2833   -5.7779    3.1257 H   0  0  0  0  0  0  0  0  0  0  0  0
   -1.5288   -5.7637    4.7351 H   0  0  0  0  0  0  0  0  0  0  0  0
    0.6498   -4.5643    4.6939 H   0  0  0  0  0  0  0  0  0  0  0  0
    1.6779   -5.1553    3.3405 H   0  0  0  0  0  0  0  0  0  0  0  0
    1.1101   -2.5972    3.3683 H   0  0  0  0  0  0  0  0  0  0  0  0
    0.8030   -3.5221    1.8114 H   0  0  0  0  0  0  0  0  0  0  0  0
    1.7149   -0.7863    0.4023 H   0  0  0  0  0  0  0  0  0  0  0  0
   -4.8271    0.6359    0.8547 H   0  0  0  0  0  0  0  0  0  0  0  0
   -7.0330    1.5778    0.5886 H   0  0  0  0  0  0  0  0  0  0  0  0
   -8.1275    3.2378   -1.9720 H   0  0  0  0  0  0  0  0  0  0  0  0
   -8.4496    3.1459   -0.2361 H   0  0  0  0  0  0  0  0  0  0  0  0
   -7.7635    4.6826   -1.0030 H   0  0  0  0  0  0  0  0  0  0  0  0
   -5.5292    4.3583   -2.1956 H   0  0  0  0  0  0  0  0  0  0  0  0
  1  2  1  0
  2  3  1  0
  2  4  1  0
  2  5  1  0
  5  6  1  0
  6  7  1  0
  7  8  1  0
  8  9  2  0
  9 10  1  0
 10 11  2  0
 11 12  1  0
 12 13  2  0
 13 14  1  0
 14 15  2  0
 15 16  1  0
 16 17  2  0
 17 18  1  0
 18 19  2  0
 19 20  1  0
 20 21  1  0
 21 22  2  0
 21 23  1  0
 23 24  1  0
 24 25  1  0
 25 26  1  0
 26 27  1  0
 27 28  1  0
 19 29  1  0
 29 30  2  0
 17 31  1  0
 31 32  2  0
 32 33  1  0
 33 34  2  0
 34 35  1  0
 34 36  1  0
 36 37  2  0
 11  7  1  0
 30 12  1  0
 37 31  1  0
 29 15  1  0
 28 23  1  0
  5 38  1  0
  5 39  1  0
  6 40  1  0
  6 41  1  0
  8 42  1  0
 10 43  1  0
 13 44  1  0
 14 45  1  0
 18 46  1  0
 20 47  1  0
 24 48  1  0
 24 49  1  0
 25 50  1  0
 25 51  1  0
 27 52  1  0
 27 53  1  0
 28 54  1  0
 28 55  1  0
 30 56  1  0
 32 57  1  0
 33 58  1  0
 35 59  1  0
 35 60  1  0
 35 61  1  0
 36 62  1  0
M  END
$$$$
[H]c1c([H])c(C(=O)N2C([H])([H])C([H])([H])N(c3c([H])c(C([H])([H])[H])c([H])c4c([H])c([H])c([H])c([H])c34)C([H])([H])C2([H])[H])c([H])c([H])c1OC([H])(F)F
     RDKit          3D

 51 54  0  0  0  0  0  0  0  0999 V2000
   -5.8867   -1.5809    1.9740 C   0  0  0  0  0  0  0  0  0  0  0  0
   -5.0425   -0.7449    1.0857 C   0  0  0  0  0  0  0  0  0  0  0  0
   -3.7003   -0.9855    0.8843 C   0  0  0  0  0  0  0  0  0  0  0  0
   -2.9195   -0.1857    0.0420 C   0  0  0  0  0  0  0  0  0  0  0  0
   -1.5727   -0.5307   -0.1133 N   0  0  0  0  0  0  0  0  0  0  0  0
   -1.0067   -1.0695   -1.3524 C   0  0  0  0  0  0  0  0  0  0  0  0
    0.0281   -2.0982   -0.8445 C   0  0  0  0  0  0  0  0  0  0  0  0
    1.1573   -1.2438   -0.3468 N   0  0  0  0  0  0  0  0  0  0  0  0
    0.7684   -0.2682    0.5973 C   0  0  0  0  0  0  0  0  0  0  0  0
   -0.6880   -0.3546    1.0456 C   0  0  0  0  0  0  0  0  0  0  0  0
    2.4223   -1.5241   -0.8683 C   0  0  0  0  0  0  0  0  0  0  0  0
    2.4399   -2.5186   -1.7295 O   0  0  0  0  0  0  0  0  0  0  0  0
    3.7157   -0.9243   -0.6370 C   0  0  0  0  0  0  0  0  0  0  0  0
    3.9739    0.1400    0.1845 C   0  0  0  0  0  0  0  0  0  0  0  0
    5.2746    0.6459    0.3484 C   0  0  0  0  0  0  0  0  0  0  0  0
    6.3587    0.1220   -0.2890 C   0  0  0  0  0  0  0  0  0  0  0  0
    7.6368    0.5751   -0.1639 O   0  0  0  0  0  0  0  0  0  0  0  0
    8.0028    1.6450    0.6418 C   0  0  0  0  0  0  0  0  0  0  0  0
    8.6086    2.6135   -0.1600 F   0  0  0  0  0  0  0  0  0  0  0  0
    8.9288    1.1732    1.5666 F   0  0  0  0  0  0  0  0  0  0  0  0
    6.1026   -0.9580   -1.1240 C   0  0  0  0  0  0  0  0  0  0  0  0
    4.8467   -1.4567   -1.2905 C   0  0  0  0  0  0  0  0  0  0  0  0
   -3.5163    0.8683   -0.5980 C   0  0  0  0  0  0  0  0  0  0  0  0
   -2.8033    1.7009   -1.4347 C   0  0  0  0  0  0  0  0  0  0  0  0
   -3.4216    2.7670   -2.0702 C   0  0  0  0  0  0  0  0  0  0  0  0
   -4.7779    3.0025   -1.8628 C   0  0  0  0  0  0  0  0  0  0  0  0
   -5.5209    2.1926   -1.0337 C   0  0  0  0  0  0  0  0  0  0  0  0
   -4.8829    1.1444   -0.4172 C   0  0  0  0  0  0  0  0  0  0  0  0
   -5.6140    0.3229    0.4268 C   0  0  0  0  0  0  0  0  0  0  0  0
   -6.8870   -1.7238    1.5259 H   0  0  0  0  0  0  0  0  0  0  0  0
   -5.4139   -2.5785    2.0526 H   0  0  0  0  0  0  0  0  0  0  0  0
   -5.9977   -1.1480    2.9790 H   0  0  0  0  0  0  0  0  0  0  0  0
   -3.2379   -1.8319    1.4041 H   0  0  0  0  0  0  0  0  0  0  0  0
   -0.3938   -0.3365   -1.9059 H   0  0  0  0  0  0  0  0  0  0  0  0
   -1.7700   -1.5497   -1.9896 H   0  0  0  0  0  0  0  0  0  0  0  0
   -0.3790   -2.5720    0.0652 H   0  0  0  0  0  0  0  0  0  0  0  0
    0.3636   -2.7755   -1.6226 H   0  0  0  0  0  0  0  0  0  0  0  0
    1.3442   -0.4199    1.5417 H   0  0  0  0  0  0  0  0  0  0  0  0
    0.9615    0.7844    0.2649 H   0  0  0  0  0  0  0  0  0  0  0  0
   -0.8767   -1.1263    1.7876 H   0  0  0  0  0  0  0  0  0  0  0  0
   -0.9445    0.6296    1.4827 H   0  0  0  0  0  0  0  0  0  0  0  0
    3.1739    0.6218    0.7266 H   0  0  0  0  0  0  0  0  0  0  0  0
    5.3838    1.4960    1.0234 H   0  0  0  0  0  0  0  0  0  0  0  0
    7.2240    2.1479    1.2034 H   0  0  0  0  0  0  0  0  0  0  0  0
    6.9150   -1.4431   -1.6775 H   0  0  0  0  0  0  0  0  0  0  0  0
    4.6594   -2.3150   -1.9568 H   0  0  0  0  0  0  0  0  0  0  0  0
   -1.7551    1.4916   -1.5627 H   0  0  0  0  0  0  0  0  0  0  0  0
   -2.8280    3.3920   -2.7154 H   0  0  0  0  0  0  0  0  0  0  0  0
   -5.2101    3.8543   -2.3886 H   0  0  0  0  0  0  0  0  0  0  0  0
   -6.5621    2.4115   -0.9032 H   0  0  0  0  0  0  0  0  0  0  0  0
   -6.6816    0.5215    0.5809 H   0  0  0  0  0  0  0  0  0  0  0  0
  1  2  1  0
  2  3  2  0
  3  4  1  0
  4  5  1  0
  5  6  1  0
  6  7  1  0
  7  8  1  0
  8  9  1  0
  9 10  1  0
  8 11  1  0
 11 12  2  0
 11 13  1  0
 13 14  2  0
 14 15  1  0
 15 16  2  0
 16 17  1  0
 17 18  1  0
 18 19  1  0
 18 20  1  0
 16 21  1  0
 21 22  2  0
  4 23  2  0
 23 24  1  0
 24 25  2  0
 25 26  1  0
 26 27  2  0
 27 28  1  0
 28 29  2  0
 29  2  1  0
 10  5  1  0
 22 13  1  0
 28 23  1  0
  1 30  1  0
  1 31  1  0
  1 32  1  0
  3 33  1  0
  6 34  1  0
  6 35  1  0
  7 36  1  0
  7 37  1  0
  9 38  1  0
  9 39  1  0
 10 40  1  0
 10 41  1  0
 14 42  1  0
 15 43  1  0
 18 44  1  0
 21 45  1  0
 22 46  1  0
 24 47  1  0
 25 48  1  0
 26 49  1  0
 27 50  1  0
 29 51  1  0
M  END
$$$$
[H]c1nc([H])c(C2([H])C([H])([H])C([H])([H])N(C(=O)N([H])c3c([H])c([H])c([H])c(-c4nc([H])c([H])c(C#N)c4[H])c3[H])C([H])([H])C2([H])[H])c([H])c1[H]
     RDKit          3D

 50 53  0  0  0  0  0  0  0  0999 V2000
    0.6953   -0.2669    0.8279 O   0  0  0  0  0  0  0  0  0  0  0  0
    0.0505    0.3980   -0.0333 C   0  0  0  0  0  0  0  0  0  0  0  0
   -1.3199    0.6218    0.2983 N   0  0  0  0  0  0  0  0  0  0  0  0
   -1.9026    0.1057    1.5429 C   0  0  0  0  0  0  0  0  0  0  0  0
   -2.9685   -0.8838    1.1988 C   0  0  0  0  0  0  0  0  0  0  0  0
   -3.8526   -0.5451    0.0601 C   0  0  0  0  0  0  0  0  0  0  0  0
   -3.3186    0.3905   -0.9630 C   0  0  0  0  0  0  0  0  0  0  0  0
   -2.2688    1.3499   -0.5074 C   0  0  0  0  0  0  0  0  0  0  0  0
   -5.2159   -0.1041    0.4935 C   0  0  0  0  0  0  0  0  0  0  0  0
   -6.3194   -0.8013    0.0562 C   0  0  0  0  0  0  0  0  0  0  0  0
   -7.5886   -0.4244    0.4387 C   0  0  0  0  0  0  0  0  0  0  0  0
   -7.7379    0.6654    1.2689 C   0  0  0  0  0  0  0  0  0  0  0  0
   -6.6467    1.3298    1.6826 N   0  0  0  0  0  0  0  0  0  0  0  0
   -5.4043    0.9785    1.3215 C   0  0  0  0  0  0  0  0  0  0  0  0
    0.6446    0.8664   -1.2051 N   0  0  0  0  0  0  0  0  0  0  0  0
    1.9768    0.7250   -1.6572 C   0  0  0  0  0  0  0  0  0  0  0  0
    2.3161    1.1005   -2.9626 C   0  0  0  0  0  0  0  0  0  0  0  0
    3.5826    0.9980   -3.4518 C   0  0  0  0  0  0  0  0  0  0  0  0
    4.5710    0.5060   -2.6332 C   0  0  0  0  0  0  0  0  0  0  0  0
    4.3183    0.1141   -1.3338 C   0  0  0  0  0  0  0  0  0  0  0  0
    3.0129    0.2413   -0.8915 C   0  0  0  0  0  0  0  0  0  0  0  0
    5.4068   -0.3988   -0.5166 C   0  0  0  0  0  0  0  0  0  0  0  0
    5.2625   -0.8130    0.7788 C   0  0  0  0  0  0  0  0  0  0  0  0
    6.3231   -1.2979    1.5314 C   0  0  0  0  0  0  0  0  0  0  0  0
    7.5576   -1.3549    0.9303 C   0  0  0  0  0  0  0  0  0  0  0  0
    7.7120   -0.9343   -0.3900 C   0  0  0  0  0  0  0  0  0  0  0  0
    6.6340   -0.4790   -1.0458 N   0  0  0  0  0  0  0  0  0  0  0  0
    6.2042   -1.7383    2.8874 C   0  0  0  0  0  0  0  0  0  0  0  0
    6.0887   -2.0887    3.9799 N   0  0  0  0  0  0  0  0  0  0  0  0
   -2.2295    0.9695    2.1201 H   0  0  0  0  0  0  0  0  0  0  0  0
   -1.1211   -0.4189    2.1450 H   0  0  0  0  0  0  0  0  0  0  0  0
   -3.6190   -1.0674    2.0913 H   0  0  0  0  0  0  0  0  0  0  0  0
   -2.4495   -1.8587    1.0284 H   0  0  0  0  0  0  0  0  0  0  0  0
   -4.0323   -1.5175   -0.4976 H   0  0  0  0  0  0  0  0  0  0  0  0
   -2.9206   -0.1554   -1.8608 H   0  0  0  0  0  0  0  0  0  0  0  0
   -4.1713    0.9881   -1.3726 H   0  0  0  0  0  0  0  0  0  0  0  0
   -1.8562    1.8519   -1.3863 H   0  0  0  0  0  0  0  0  0  0  0  0
   -2.7551    2.0960    0.1685 H   0  0  0  0  0  0  0  0  0  0  0  0
   -6.2349   -1.6619   -0.5968 H   0  0  0  0  0  0  0  0  0  0  0  0
   -8.4242   -0.9959    0.0749 H   0  0  0  0  0  0  0  0  0  0  0  0
   -8.7419    0.9415    1.5548 H   0  0  0  0  0  0  0  0  0  0  0  0
   -4.5202    1.5020    1.6486 H   0  0  0  0  0  0  0  0  0  0  0  0
    0.0098    1.4189   -1.8695 H   0  0  0  0  0  0  0  0  0  0  0  0
    1.5258    1.4845   -3.5926 H   0  0  0  0  0  0  0  0  0  0  0  0
    3.8170    1.2953   -4.4641 H   0  0  0  0  0  0  0  0  0  0  0  0
    5.6053    0.4085   -2.9931 H   0  0  0  0  0  0  0  0  0  0  0  0
    2.8452   -0.0624    0.1215 H   0  0  0  0  0  0  0  0  0  0  0  0
    4.3147   -0.7754    1.2582 H   0  0  0  0  0  0  0  0  0  0  0  0
    8.4471   -1.7154    1.4269 H   0  0  0  0  0  0  0  0  0  0  0  0
    8.6976   -0.9877   -0.8474 H   0  0  0  0  0  0  0  0  0  0  0  0
  1  2  2  0
  2  3  1  0
  3  4  1  0
  4  5  1  0
  5  6  1  0
  6  7  1  0
  7  8  1  0
  6  9  1  0
  9 10  2  0
 10 11  1  0
 11 12  2  0
 12 13  1  0
 13 14  2  0
  2 15  1  0
 15 16  1  0
 16 17  2  0
 17 18  1  0
 18 19  2  0
 19 20  1  0
 20 21  2  0
 20 22  1  0
 22 23  2  0
 23 24  1  0
 24 25  2  0
 25 26  1  0
 26 27  2  0
 24 28  1  0
 28 29  3  0
  8  3  1  0
 14  9  1  0
 21 16  1  0
 27 22  1  0
  4 30  1  0
  4 31  1  0
  5 32  1  0
  5 33  1  0
  6 34  1  0
  7 35  1  0
  7 36  1  0
  8 37  1  0
  8 38  1  0
 10 39  1  0
 11 40  1  0
 12 41  1  0
 14 42  1  0
 15 43  1  0
 17 44  1  0
 18 45  1  0
 19 46  1  0
 21 47  1  0
 23 48  1  0
 25 49  1  0
 26 50  1  0
M  END
$$$$
[H]c1c([H])c(C#N)c([H])c(C(=O)Oc2c([H])c([H])c(C([H])([H])N3C(=O)[C@]([H])(C([H])([H])[H])[C@@]3([H])N([H])C(=O)C(=O)N(C([H])([H])[H])S(=O)(=O)C([H])([H])[H])c([H])c2[H])c1[H]
     RDKit          3D

 57 59  0  0  0  0  0  0  0  0999 V2000
   -6.6028    1.6072    3.0906 C   0  0  0  0  0  0  0  0  0  0  0  0
   -5.8800    0.7972    2.0865 N   0  0  0  0  0  0  0  0  0  0  0  0
   -4.8375    1.4053    1.3977 C   0  0  0  0  0  0  0  0  0  0  0  0
   -4.5891    2.6352    1.6957 O   0  0  0  0  0  0  0  0  0  0  0  0
   -3.9778    0.8495    0.3795 C   0  0  0  0  0  0  0  0  0  0  0  0
   -4.1270   -0.3295    0.0112 O   0  0  0  0  0  0  0  0  0  0  0  0
   -2.9425    1.5955   -0.2418 N   0  0  0  0  0  0  0  0  0  0  0  0
   -2.0707    1.0513   -1.2600 C   0  0  2  0  0  0  0  0  0  0  0  0
   -2.7938    0.5567   -2.4593 C   0  0  1  0  0  0  0  0  0  0  0  0
   -2.4652    1.3824   -3.6883 C   0  0  0  0  0  0  0  0  0  0  0  0
   -1.9147   -0.6085   -2.3761 C   0  0  0  0  0  0  0  0  0  0  0  0
   -1.5313   -1.5589   -3.1476 O   0  0  0  0  0  0  0  0  0  0  0  0
   -1.6149   -0.2869   -1.0347 N   0  0  0  0  0  0  0  0  0  0  0  0
   -1.0633   -1.0880    0.0386 C   0  0  0  0  0  0  0  0  0  0  0  0
    0.4184   -1.0278    0.0449 C   0  0  0  0  0  0  0  0  0  0  0  0
    1.0564   -0.3076   -0.9342 C   0  0  0  0  0  0  0  0  0  0  0  0
    2.4504   -0.2796   -0.8854 C   0  0  0  0  0  0  0  0  0  0  0  0
    3.1345   -0.9457    0.1011 C   0  0  0  0  0  0  0  0  0  0  0  0
    4.5156   -0.9027    0.1277 O   0  0  0  0  0  0  0  0  0  0  0  0
    5.1797    0.0970    0.8183 C   0  0  0  0  0  0  0  0  0  0  0  0
    4.5064    0.9580    1.4141 O   0  0  0  0  0  0  0  0  0  0  0  0
    6.6568    0.1175    0.8319 C   0  0  0  0  0  0  0  0  0  0  0  0
    7.3290    1.0963    1.5049 C   0  0  0  0  0  0  0  0  0  0  0  0
    8.7133    1.0786    1.4951 C   0  0  0  0  0  0  0  0  0  0  0  0
    9.4037    0.0971    0.8226 C   0  0  0  0  0  0  0  0  0  0  0  0
    8.7318   -0.8973    0.1388 C   0  0  0  0  0  0  0  0  0  0  0  0
    7.3525   -0.8639    0.1592 C   0  0  0  0  0  0  0  0  0  0  0  0
    9.4264   -1.9337   -0.5710 C   0  0  0  0  0  0  0  0  0  0  0  0
    9.9664   -2.7594   -1.1461 N   0  0  0  0  0  0  0  0  0  0  0  0
    2.4587   -1.6562    1.0641 C   0  0  0  0  0  0  0  0  0  0  0  0
    1.0768   -1.7086    1.0503 C   0  0  0  0  0  0  0  0  0  0  0  0
   -6.4328   -0.8232    1.8986 S   0  0  0  0  0  0  0  0  0  0  0  0
   -7.0510   -1.1595    0.2760 C   0  0  0  0  0  0  0  0  0  0  0  0
   -7.4723   -1.1626    2.9444 O   0  0  0  0  0  0  0  0  0  0  0  0
   -5.2809   -1.7481    2.1642 O   0  0  0  0  0  0  0  0  0  0  0  0
   -6.0205    1.6577    4.0306 H   0  0  0  0  0  0  0  0  0  0  0  0
   -6.6734    2.6316    2.6257 H   0  0  0  0  0  0  0  0  0  0  0  0
   -7.6195    1.2223    3.1981 H   0  0  0  0  0  0  0  0  0  0  0  0
   -2.8266    2.5976    0.0763 H   0  0  0  0  0  0  0  0  0  0  0  0
   -1.2723    1.7836   -1.5142 H   0  0  0  0  0  0  0  0  0  0  0  0
   -3.8795    0.3573   -2.3341 H   0  0  0  0  0  0  0  0  0  0  0  0
   -3.3418    1.9887   -3.9832 H   0  0  0  0  0  0  0  0  0  0  0  0
   -1.5696    2.0256   -3.5326 H   0  0  0  0  0  0  0  0  0  0  0  0
   -2.2600    0.6809   -4.5134 H   0  0  0  0  0  0  0  0  0  0  0  0
   -1.4579   -0.6511    0.9965 H   0  0  0  0  0  0  0  0  0  0  0  0
   -1.4270   -2.1311   -0.0447 H   0  0  0  0  0  0  0  0  0  0  0  0
    0.5315    0.2246   -1.7210 H   0  0  0  0  0  0  0  0  0  0  0  0
    2.9326    0.2966   -1.6705 H   0  0  0  0  0  0  0  0  0  0  0  0
    6.7765    1.8637    2.0306 H   0  0  0  0  0  0  0  0  0  0  0  0
    9.2289    1.8519    2.0268 H   0  0  0  0  0  0  0  0  0  0  0  0
   10.4700    0.1163    0.8378 H   0  0  0  0  0  0  0  0  0  0  0  0
    6.8209   -1.6332   -0.3698 H   0  0  0  0  0  0  0  0  0  0  0  0
    2.9524   -2.1943    1.8578 H   0  0  0  0  0  0  0  0  0  0  0  0
    0.5152   -2.2450    1.7740 H   0  0  0  0  0  0  0  0  0  0  0  0
   -7.0029   -0.2306   -0.3427 H   0  0  0  0  0  0  0  0  0  0  0  0
   -6.5014   -1.9704   -0.2437 H   0  0  0  0  0  0  0  0  0  0  0  0
   -8.1048   -1.5195    0.3744 H   0  0  0  0  0  0  0  0  0  0  0  0
  1  2  1  0
  2  3  1  0
  3  4  2  0
  3  5  1  0
  5  6  2  0
  5  7  1  0
  7  8  1  0
  8  9  1  0
  9 10  1  0
  9 11  1  0
 11 12  2  0
 11 13  1  0
 13 14  1  0
 14 15  1  0
 15 16  2  0
 16 17  1  0
 17 18  2  0
 18 19  1  0
 19 20  1  0
 20 21  2  0
 20 22  1  0
 22 23  2  0
 23 24  1  0
 24 25  2  0
 25 26  1  0
 26 27  2  0
 26 28  1  0
 28 29  3  0
 18 30  1  0
 30 31  2  0
  2 32  1  0
 32 33  1  0
 32 34  2  0
 32 35  2  0
 13  8  1  0
 31 15  1  0
 27 22  1  0
  1 36  1  0
  1 37  1  0
  1 38  1  0
  7 39  1  0
  8 40  1  6
  9 41  1  1
 10 42  1  0
 10 43  1  0
 10 44  1  0
 14 45  1  0
 14 46  1  0
 16 47  1  0
 17 48  1  0
 23 49  1  0
 24 50  1  0
 25 51  1  0
 27 52  1  0
 30 53  1  0
 31 54  1  0
 33 55  1  0
 33 56  1  0
 33 57  1  0
M  END
$$$$
[H]SC([H])([H])[C@]([H])(C(=O)N([H])[C@]([H])(C([H])=O)C([H])(C([H])([H])[H])C([H])([H])[H])N([H])C(=O)[C@]([H])(N([H])C(=O)c1c([H])c([H])c(C([H])([H])[H])c([H])c1[H])C(C([H])([H])[H])(C([H])([H])[H])C([H])([H])[H]
     RDKit          3D

 63 63  0  0  0  0  0  0  0  0999 V2000
   -5.2295   -2.0725   -2.4264 C   0  0  0  0  0  0  0  0  0  0  0  0
   -5.1252   -2.0980   -0.9261 C   0  0  0  0  0  0  0  0  0  0  0  0
   -3.8168   -2.7732   -0.5594 C   0  0  0  0  0  0  0  0  0  0  0  0
   -5.2148   -0.7200   -0.3050 C   0  0  2  0  0  0  0  0  0  0  0  0
   -4.2322    0.1896   -0.6900 N   0  0  0  0  0  0  0  0  0  0  0  0
   -3.1448    0.7519    0.0084 C   0  0  0  0  0  0  0  0  0  0  0  0
   -2.9640    0.3683    1.2168 O   0  0  0  0  0  0  0  0  0  0  0  0
   -2.2062    1.7496   -0.5783 C   0  0  1  0  0  0  0  0  0  0  0  0
   -2.8305    3.0950   -0.8261 C   0  0  0  0  0  0  0  0  0  0  0  0
   -4.2092    3.0786   -1.9672 S   0  0  0  0  0  0  0  0  0  0  0  0
   -1.0853    1.8941    0.3577 N   0  0  0  0  0  0  0  0  0  0  0  0
    0.2296    1.6607    0.0219 C   0  0  0  0  0  0  0  0  0  0  0  0
    0.4921    1.2954   -1.1618 O   0  0  0  0  0  0  0  0  0  0  0  0
    1.4046    1.8064    0.9328 C   0  0  2  0  0  0  0  0  0  0  0  0
    2.6304    1.7736    0.3181 N   0  0  0  0  0  0  0  0  0  0  0  0
    3.8584    1.7462   -0.2974 C   0  0  0  0  0  0  0  0  0  0  0  0
    4.5806    2.7863   -0.6202 O   0  0  0  0  0  0  0  0  0  0  0  0
    4.5703    0.5118   -0.6956 C   0  0  0  0  0  0  0  0  0  0  0  0
    3.8896   -0.5416   -1.2049 C   0  0  0  0  0  0  0  0  0  0  0  0
    4.5620   -1.6949   -1.5825 C   0  0  0  0  0  0  0  0  0  0  0  0
    5.9297   -1.7580   -1.4337 C   0  0  0  0  0  0  0  0  0  0  0  0
    6.6125   -3.0263   -1.8618 C   0  0  0  0  0  0  0  0  0  0  0  0
    6.6332   -0.6990   -0.9188 C   0  0  0  0  0  0  0  0  0  0  0  0
    5.9314    0.4596   -0.5427 C   0  0  0  0  0  0  0  0  0  0  0  0
    1.2634    0.7305    2.0213 C   0  0  0  0  0  0  0  0  0  0  0  0
    1.1649   -0.6596    1.4680 C   0  0  0  0  0  0  0  0  0  0  0  0
    2.6113    0.7310    2.8243 C   0  0  0  0  0  0  0  0  0  0  0  0
    0.2445    1.0986    3.0508 C   0  0  0  0  0  0  0  0  0  0  0  0
   -5.6258   -0.8804    1.0874 C   0  0  0  0  0  0  0  0  0  0  0  0
   -5.3241   -0.2704    2.0762 O   0  0  0  0  0  0  0  0  0  0  0  0
   -6.3094   -2.0879   -2.7282 H   0  0  0  0  0  0  0  0  0  0  0  0
   -4.7590   -1.1911   -2.8803 H   0  0  0  0  0  0  0  0  0  0  0  0
   -4.8262   -3.0340   -2.8355 H   0  0  0  0  0  0  0  0  0  0  0  0
   -5.9577   -2.7092   -0.5327 H   0  0  0  0  0  0  0  0  0  0  0  0
   -3.6729   -3.7172   -1.1203 H   0  0  0  0  0  0  0  0  0  0  0  0
   -3.8032   -3.0509    0.5282 H   0  0  0  0  0  0  0  0  0  0  0  0
   -2.9451   -2.1487   -0.7601 H   0  0  0  0  0  0  0  0  0  0  0  0
   -6.2066   -0.2716   -0.7661 H   0  0  0  0  0  0  0  0  0  0  0  0
   -4.2920    0.5152   -1.7238 H   0  0  0  0  0  0  0  0  0  0  0  0
   -1.8008    1.3616   -1.5164 H   0  0  0  0  0  0  0  0  0  0  0  0
   -2.0791    3.8732   -1.0718 H   0  0  0  0  0  0  0  0  0  0  0  0
   -3.2372    3.4192    0.1804 H   0  0  0  0  0  0  0  0  0  0  0  0
   -5.0862    4.1698   -1.7477 H   0  0  0  0  0  0  0  0  0  0  0  0
   -1.3705    2.2069    1.3000 H   0  0  0  0  0  0  0  0  0  0  0  0
    1.1991    2.7643    1.5225 H   0  0  0  0  0  0  0  0  0  0  0  0
    2.6365    3.1273    0.2440 H   0  0  0  0  0  0  0  0  0  0  0  0
    2.7955   -0.5336   -1.3375 H   0  0  0  0  0  0  0  0  0  0  0  0
    4.0141   -2.5584   -1.9970 H   0  0  0  0  0  0  0  0  0  0  0  0
    6.2278   -3.8596   -1.2505 H   0  0  0  0  0  0  0  0  0  0  0  0
    6.2747   -3.2424   -2.9165 H   0  0  0  0  0  0  0  0  0  0  0  0
    7.7159   -2.9460   -1.8166 H   0  0  0  0  0  0  0  0  0  0  0  0
    7.7017   -0.7415   -0.7970 H   0  0  0  0  0  0  0  0  0  0  0  0
    6.5396    1.2596   -0.1399 H   0  0  0  0  0  0  0  0  0  0  0  0
    0.4455   -1.2895    2.0653 H   0  0  0  0  0  0  0  0  0  0  0  0
    2.1596   -1.1601    1.3961 H   0  0  0  0  0  0  0  0  0  0  0  0
    0.7722   -0.6829    0.4119 H   0  0  0  0  0  0  0  0  0  0  0  0
    2.3733    0.1943    3.7737 H   0  0  0  0  0  0  0  0  0  0  0  0
    2.8756    1.7566    3.0703 H   0  0  0  0  0  0  0  0  0  0  0  0
    3.3490    0.1369    2.2840 H   0  0  0  0  0  0  0  0  0  0  0  0
   -0.7389    0.6109    2.9357 H   0  0  0  0  0  0  0  0  0  0  0  0
    0.1774    2.2189    3.1114 H   0  0  0  0  0  0  0  0  0  0  0  0
    0.5844    0.7916    4.0975 H   0  0  0  0  0  0  0  0  0  0  0  0
   -6.3574   -1.7153    1.3255 H   0  0  0  0  0  0  0  0  0  0  0  0
  1  2  1  0
  2  3  1  0
  2  4  1  0
  4  5  1  0
  5  6  1  0
  6  7  2  0
  6  8  1  0
  8  9  1  0
  9 10  1  0
  8 11  1  0
 11 12  1  0
 12 13  2  0
 12 14  1  0
 14 15  1  0
 15 16  1  0
 16 17  2  0
 16 18  1  0
 18 19  2  0
 19 20  1  0
 20 21  2  0
 21 22  1  0
 21 23  1  0
 23 24  2  0
 14 25  1  0
 25 26  1  0
 25 27  1  0
 25 28  1  0
  4 29  1  0
 29 30  2  0
 24 18  1  0
  1 31  1  0
  1 32  1  0
  1 33  1  0
  2 34  1  0
  3 35  1  0
  3 36  1  0
  3 37  1  0
  4 38  1  6
  5 39  1  0
  8 40  1  6
  9 41  1  0
  9 42  1  0
 10 43  1  0
 11 44  1  0
 14 45  1  1
 15 46  1  0
 19 47  1  0
 20 48  1  0
 22 49  1  0
 22 50  1  0
 22 51  1  0
 23 52  1  0
 24 53  1  0
 26 54  1  0
 26 55  1  0
 26 56  1  0
 27 57  1  0
 27 58  1  0
 27 59  1  0
 28 60  1  0
 28 61  1  0
 28 62  1  0
 29 63  1  0
M  END
$$$$
[H]c1nc(N2C([H])([H])C([H])([H])C([H])([H])C([H])([H])C2([H])[H])c([H])c(C([H])(C#N)N([H])C(=O)c2c([H])c([H])c([H])c(-c3c([H])c([H])c([H])c([H])c3C(F)(F)F)c2[H])c1[H]
     RDKit          3D

 57 60  0  0  0  0  0  0  0  0999 V2000
   -4.9851   -2.4251   -2.9396 F   0  0  0  0  0  0  0  0  0  0  0  0
   -4.6842   -1.2321   -2.2466 C   0  0  0  0  0  0  0  0  0  0  0  0
   -3.3990   -1.4926   -1.7471 F   0  0  0  0  0  0  0  0  0  0  0  0
   -4.6881   -0.2350   -3.1770 F   0  0  0  0  0  0  0  0  0  0  0  0
   -5.6857   -1.0583   -1.1726 C   0  0  0  0  0  0  0  0  0  0  0  0
   -6.6778   -2.0429   -1.0018 C   0  0  0  0  0  0  0  0  0  0  0  0
   -7.6347   -1.9229   -0.0209 C   0  0  0  0  0  0  0  0  0  0  0  0
   -7.5945   -0.8128    0.7890 C   0  0  0  0  0  0  0  0  0  0  0  0
   -6.6295    0.1487    0.6261 C   0  0  0  0  0  0  0  0  0  0  0  0
   -5.6472    0.0439   -0.3667 C   0  0  0  0  0  0  0  0  0  0  0  0
   -4.6413    1.0711   -0.5084 C   0  0  0  0  0  0  0  0  0  0  0  0
   -4.9532    2.1997   -1.2345 C   0  0  0  0  0  0  0  0  0  0  0  0
   -4.0675    3.2395   -1.4039 C   0  0  0  0  0  0  0  0  0  0  0  0
   -2.8361    3.1057   -0.8093 C   0  0  0  0  0  0  0  0  0  0  0  0
   -2.4723    1.9853   -0.0653 C   0  0  0  0  0  0  0  0  0  0  0  0
   -3.3859    0.9746    0.0772 C   0  0  0  0  0  0  0  0  0  0  0  0
   -1.1247    1.9279    0.5424 C   0  0  0  0  0  0  0  0  0  0  0  0
   -0.3774    2.9551    0.4858 O   0  0  0  0  0  0  0  0  0  0  0  0
   -0.6440    0.7651    1.1832 N   0  0  0  0  0  0  0  0  0  0  0  0
    0.6906    0.7846    1.7572 C   0  0  0  0  0  0  0  0  0  0  0  0
    1.5634   -0.2444    1.1444 C   0  0  0  0  0  0  0  0  0  0  0  0
    1.1748   -1.5443    0.9067 C   0  0  0  0  0  0  0  0  0  0  0  0
    2.0384   -2.4500    0.3332 C   0  0  0  0  0  0  0  0  0  0  0  0
    3.2781   -2.0431    0.0055 N   0  0  0  0  0  0  0  0  0  0  0  0
    3.7120   -0.7913    0.2129 C   0  0  0  0  0  0  0  0  0  0  0  0
    2.8424    0.1099    0.7874 C   0  0  0  0  0  0  0  0  0  0  0  0
    5.0361   -0.4119   -0.1539 N   0  0  0  0  0  0  0  0  0  0  0  0
    5.5443    0.9180    0.0585 C   0  0  0  0  0  0  0  0  0  0  0  0
    7.0286    0.8899   -0.2353 C   0  0  0  0  0  0  0  0  0  0  0  0
    7.6775   -0.2615    0.5064 C   0  0  0  0  0  0  0  0  0  0  0  0
    7.1094   -1.5933    0.1344 C   0  0  0  0  0  0  0  0  0  0  0  0
    5.9103   -1.3830   -0.7611 C   0  0  0  0  0  0  0  0  0  0  0  0
    0.6303    0.4649    3.1972 C   0  0  0  0  0  0  0  0  0  0  0  0
    0.5718    0.1973    4.3287 N   0  0  0  0  0  0  0  0  0  0  0  0
   -6.6807   -2.9177   -1.6666 H   0  0  0  0  0  0  0  0  0  0  0  0
   -8.4127   -2.6849    0.1206 H   0  0  0  0  0  0  0  0  0  0  0  0
   -8.3394   -0.7125    1.5579 H   0  0  0  0  0  0  0  0  0  0  0  0
   -6.6071    1.0335    1.2803 H   0  0  0  0  0  0  0  0  0  0  0  0
   -5.9330    2.3184   -1.7143 H   0  0  0  0  0  0  0  0  0  0  0  0
   -4.3191    4.1323   -1.9804 H   0  0  0  0  0  0  0  0  0  0  0  0
   -2.1012    3.9108   -0.9195 H   0  0  0  0  0  0  0  0  0  0  0  0
   -3.1160    0.1000    0.6607 H   0  0  0  0  0  0  0  0  0  0  0  0
   -1.2381   -0.1118    1.2479 H   0  0  0  0  0  0  0  0  0  0  0  0
    1.1346    1.7781    1.5902 H   0  0  0  0  0  0  0  0  0  0  0  0
    0.1635   -1.8560    1.1800 H   0  0  0  0  0  0  0  0  0  0  0  0
    1.7462   -3.4748    0.1407 H   0  0  0  0  0  0  0  0  0  0  0  0
    3.1757    1.1265    0.9627 H   0  0  0  0  0  0  0  0  0  0  0  0
    5.0849    1.6590   -0.6056 H   0  0  0  0  0  0  0  0  0  0  0  0
    5.4344    1.2400    1.1168 H   0  0  0  0  0  0  0  0  0  0  0  0
    7.2040    0.8311   -1.3315 H   0  0  0  0  0  0  0  0  0  0  0  0
    7.5384    1.8154    0.1063 H   0  0  0  0  0  0  0  0  0  0  0  0
    7.5362   -0.0866    1.5732 H   0  0  0  0  0  0  0  0  0  0  0  0
    8.7752   -0.1856    0.2978 H   0  0  0  0  0  0  0  0  0  0  0  0
    6.7571   -2.1470    1.0452 H   0  0  0  0  0  0  0  0  0  0  0  0
    7.8366   -2.2461   -0.3869 H   0  0  0  0  0  0  0  0  0  0  0  0
    6.2894   -1.0077   -1.7420 H   0  0  0  0  0  0  0  0  0  0  0  0
    5.3911   -2.3511   -0.8989 H   0  0  0  0  0  0  0  0  0  0  0  0
  1  2  1  0
  2  3  1  0
  2  4  1  0
  2  5  1  0
  5  6  2  0
  6  7  1  0
  7  8  2  0
  8  9  1  0
  9 10  2  0
 10 11  1  0
 11 12  2  0
 12 13  1  0
 13 14  2  0
 14 15  1  0
 15 16  2  0
 15 17  1  0
 17 18  2  0
 17 19  1  0
 19 20  1  0
 20 21  1  0
 21 22  2  0
 22 23  1  0
 23 24  2  0
 24 25  1  0
 25 26  2  0
 25 27  1  0
 27 28  1  0
 28 29  1  0
 29 30  1  0
 30 31  1  0
 31 32  1  0
 20 33  1  0
 33 34  3  0
 10  5  1  0
 16 11  1  0
 26 21  1  0
 32 27  1  0
  6 35  1  0
  7 36  1  0
  8 37  1  0
  9 38  1  0
 12 39  1  0
 13 40  1  0
 14 41  1  0
 16 42  1  0
 19 43  1  0
 20 44  1  0
 22 45  1  0
 23 46  1  0
 26 47  1  0
 28 48  1  0
 28 49  1  0
 29 50  1  0
 29 51  1  0
 30 52  1  0
 30 53  1  0
 31 54  1  0
 31 55  1  0
 32 56  1  0
 32 57  1  0
M  END
$$$$
[H]OC(=O)[C@]1([H])C([H])([H])[C@]([H])(c2c([H])c([H])c([H])c([H])c2[H])O[C@]1([H])c1c([H])c([H])c(-n2nc(C([H])([H])C([H])([H])C([H])([H])C(F)(F)F)c([H])c2[H])c([H])c1[H]
     RDKit          3D

 55 58  0  0  0  0  0  0  0  0999 V2000
    3.8822    2.5098   -0.2893 O   0  0  0  0  0  0  0  0  0  0  0  0
    3.3230    2.2625    0.9507 C   0  0  0  0  0  0  0  0  0  0  0  0
    2.8270    3.2321    1.5773 O   0  0  0  0  0  0  0  0  0  0  0  0
    3.2946    0.9317    1.5386 C   0  0  2  0  0  0  0  0  0  0  0  0
    4.7186    0.3449    1.5689 C   0  0  0  0  0  0  0  0  0  0  0  0
    4.5983   -0.8207    0.6450 C   0  0  1  0  0  0  0  0  0  0  0  0
    3.4952   -0.4939   -0.1780 O   0  0  0  0  0  0  0  0  0  0  0  0
    2.5730   -0.1297    0.7997 C   0  0  2  0  0  0  0  0  0  0  0  0
    1.2299    0.1602    0.3301 C   0  0  0  0  0  0  0  0  0  0  0  0
    0.8779    0.8317   -0.8045 C   0  0  0  0  0  0  0  0  0  0  0  0
   -0.4525    1.0544   -1.1403 C   0  0  0  0  0  0  0  0  0  0  0  0
   -1.4861    0.6085   -0.3451 C   0  0  0  0  0  0  0  0  0  0  0  0
   -1.1452   -0.0708    0.8027 C   0  0  0  0  0  0  0  0  0  0  0  0
    0.1687   -0.2889    1.1315 C   0  0  0  0  0  0  0  0  0  0  0  0
   -2.8463    0.8491   -0.7108 N   0  0  0  0  0  0  0  0  0  0  0  0
   -3.8804    0.7637    0.0797 N   0  0  0  0  0  0  0  0  0  0  0  0
   -5.0211    1.0497   -0.5630 C   0  0  0  0  0  0  0  0  0  0  0  0
   -6.3716    1.0398    0.0635 C   0  0  0  0  0  0  0  0  0  0  0  0
   -7.0175   -0.3290   -0.0494 C   0  0  0  0  0  0  0  0  0  0  0  0
   -8.3711   -0.2491    0.6058 C   0  0  0  0  0  0  0  0  0  0  0  0
   -9.1043   -1.5729    0.5469 C   0  0  0  0  0  0  0  0  0  0  0  0
   -9.2762   -1.9315   -0.7896 F   0  0  0  0  0  0  0  0  0  0  0  0
  -10.3673   -1.4558    1.0822 F   0  0  0  0  0  0  0  0  0  0  0  0
   -8.4426   -2.5809    1.1840 F   0  0  0  0  0  0  0  0  0  0  0  0
   -4.6862    1.3378   -1.8559 C   0  0  0  0  0  0  0  0  0  0  0  0
   -3.2958    1.2030   -1.9246 C   0  0  0  0  0  0  0  0  0  0  0  0
    5.8017   -1.1482   -0.1140 C   0  0  0  0  0  0  0  0  0  0  0  0
    6.2029   -0.3805   -1.1829 C   0  0  0  0  0  0  0  0  0  0  0  0
    7.3488   -0.6939   -1.9041 C   0  0  0  0  0  0  0  0  0  0  0  0
    8.1059   -1.7861   -1.5569 C   0  0  0  0  0  0  0  0  0  0  0  0
    7.7241   -2.5665   -0.4934 C   0  0  0  0  0  0  0  0  0  0  0  0
    6.5734   -2.2457    0.2251 C   0  0  0  0  0  0  0  0  0  0  0  0
    4.8575    2.7682   -0.3340 H   0  0  0  0  0  0  0  0  0  0  0  0
    2.8827    0.9412    2.5860 H   0  0  0  0  0  0  0  0  0  0  0  0
    4.9230   -0.0148    2.5979 H   0  0  0  0  0  0  0  0  0  0  0  0
    5.4570    1.1017    1.2384 H   0  0  0  0  0  0  0  0  0  0  0  0
    4.2429   -1.6920    1.2537 H   0  0  0  0  0  0  0  0  0  0  0  0
    2.5505   -1.0375    1.4896 H   0  0  0  0  0  0  0  0  0  0  0  0
    1.6404    1.1877   -1.4499 H   0  0  0  0  0  0  0  0  0  0  0  0
   -0.7199    1.5952   -2.0544 H   0  0  0  0  0  0  0  0  0  0  0  0
   -1.9457   -0.4246    1.4329 H   0  0  0  0  0  0  0  0  0  0  0  0
    0.3854   -0.8285    2.0450 H   0  0  0  0  0  0  0  0  0  0  0  0
   -6.3045    1.2852    1.1261 H   0  0  0  0  0  0  0  0  0  0  0  0
   -6.9999    1.7902   -0.4411 H   0  0  0  0  0  0  0  0  0  0  0  0
   -7.0664   -0.6912   -1.0840 H   0  0  0  0  0  0  0  0  0  0  0  0
   -6.4026   -1.0724    0.5139 H   0  0  0  0  0  0  0  0  0  0  0  0
   -8.9754    0.5104    0.0963 H   0  0  0  0  0  0  0  0  0  0  0  0
   -8.2702    0.0510    1.6568 H   0  0  0  0  0  0  0  0  0  0  0  0
   -5.3681    1.6114   -2.6490 H   0  0  0  0  0  0  0  0  0  0  0  0
   -2.6921    1.3598   -2.8117 H   0  0  0  0  0  0  0  0  0  0  0  0
    5.5942    0.4746   -1.4407 H   0  0  0  0  0  0  0  0  0  0  0  0
    7.6288   -0.0562   -2.7449 H   0  0  0  0  0  0  0  0  0  0  0  0
    8.9869   -2.0116   -2.1258 H   0  0  0  0  0  0  0  0  0  0  0  0
    8.3440   -3.4178   -0.2492 H   0  0  0  0  0  0  0  0  0  0  0  0
    6.2703   -2.8649    1.0692 H   0  0  0  0  0  0  0  0  0  0  0  0
  1  2  1  0
  2  3  2  0
  2  4  1  0
  4  5  1  0
  5  6  1  0
  6  7  1  0
  7  8  1  0
  8  9  1  0
  9 10  2  0
 10 11  1  0
 11 12  2  0
 12 13  1  0
 13 14  2  0
 12 15  1  0
 15 16  1  0
 16 17  2  0
 17 18  1  0
 18 19  1  0
 19 20  1  0
 20 21  1  0
 21 22  1  0
 21 23  1  0
 21 24  1  0
 17 25  1  0
 25 26  2  0
  6 27  1  0
 27 28  2  0
 28 29  1  0
 29 30  2  0
 30 31  1  0
 31 32  2  0
  8  4  1  0
 14  9  1  0
 26 15  1  0
 32 27  1  0
  1 33  1  0
  4 34  1  1
  5 35  1  0
  5 36  1  0
  6 37  1  1
  8 38  1  1
 10 39  1  0
 11 40  1  0
 13 41  1  0
 14 42  1  0
 18 43  1  0
 18 44  1  0
 19 45  1  0
 19 46  1  0
 20 47  1  0
 20 48  1  0
 25 49  1  0
 26 50  1  0
 28 51  1  0
 29 52  1  0
 30 53  1  0
 31 54  1  0
 32 55  1  0
M  END
$$$$
[H]c1c([H])c([H])c(-c2nn(C([H])([H])[H])c(=O)c3nc(N4C([H])([H])C([H])([H])C([H])([H])[C@@]4([H])C(=O)N([H])[H])c([H])c([H])c23)c([H])c1[H]
     RDKit          3D

 45 48  0  0  0  0  0  0  0  0999 V2000
   -4.9604    1.9642    1.1989 N   0  0  0  0  0  0  0  0  0  0  0  0
   -3.9693    0.9583    1.0390 C   0  0  0  0  0  0  0  0  0  0  0  0
   -3.2415    0.7089    2.0332 O   0  0  0  0  0  0  0  0  0  0  0  0
   -3.8503    0.2736   -0.2615 C   0  0  2  0  0  0  0  0  0  0  0  0
   -5.1161   -0.4903   -0.5127 C   0  0  0  0  0  0  0  0  0  0  0  0
   -4.7820   -1.8456    0.1099 C   0  0  0  0  0  0  0  0  0  0  0  0
   -3.3533   -2.0512   -0.3188 C   0  0  0  0  0  0  0  0  0  0  0  0
   -2.8005   -0.7207   -0.2692 N   0  0  0  0  0  0  0  0  0  0  0  0
   -1.3939   -0.4415   -0.2331 C   0  0  0  0  0  0  0  0  0  0  0  0
   -0.4539   -1.4470   -0.2432 C   0  0  0  0  0  0  0  0  0  0  0  0
    0.9153   -1.1938   -0.2082 C   0  0  0  0  0  0  0  0  0  0  0  0
    1.3222    0.1223   -0.1609 C   0  0  0  0  0  0  0  0  0  0  0  0
    2.6511    0.4508   -0.1384 C   0  0  0  0  0  0  0  0  0  0  0  0
    2.9654    1.7795   -0.1113 N   0  0  0  0  0  0  0  0  0  0  0  0
    2.0706    2.7445   -0.1038 N   0  0  0  0  0  0  0  0  0  0  0  0
    2.4875    4.1480   -0.0744 C   0  0  0  0  0  0  0  0  0  0  0  0
    0.7532    2.4932   -0.1224 C   0  0  0  0  0  0  0  0  0  0  0  0
   -0.1329    3.3851   -0.1150 O   0  0  0  0  0  0  0  0  0  0  0  0
    0.3740    1.1476   -0.1515 C   0  0  0  0  0  0  0  0  0  0  0  0
   -0.9141    0.8113   -0.1874 N   0  0  0  0  0  0  0  0  0  0  0  0
    3.7192   -0.5388   -0.1530 C   0  0  0  0  0  0  0  0  0  0  0  0
    3.8661   -1.5800    0.7217 C   0  0  0  0  0  0  0  0  0  0  0  0
    4.9244   -2.4411    0.5734 C   0  0  0  0  0  0  0  0  0  0  0  0
    5.8593   -2.3039   -0.4294 C   0  0  0  0  0  0  0  0  0  0  0  0
    5.7243   -1.2602   -1.3169 C   0  0  0  0  0  0  0  0  0  0  0  0
    4.6634   -0.4048   -1.1609 C   0  0  0  0  0  0  0  0  0  0  0  0
   -4.6786    2.8352    1.6997 H   0  0  0  0  0  0  0  0  0  0  0  0
   -5.9261    1.8665    0.8458 H   0  0  0  0  0  0  0  0  0  0  0  0
   -3.6316    0.9837   -1.1002 H   0  0  0  0  0  0  0  0  0  0  0  0
   -5.3364   -0.6533   -1.5824 H   0  0  0  0  0  0  0  0  0  0  0  0
   -5.9974   -0.0385    0.0281 H   0  0  0  0  0  0  0  0  0  0  0  0
   -5.4629   -2.6387   -0.2289 H   0  0  0  0  0  0  0  0  0  0  0  0
   -4.7894   -1.6858    1.2073 H   0  0  0  0  0  0  0  0  0  0  0  0
   -3.3767   -2.4454   -1.3770 H   0  0  0  0  0  0  0  0  0  0  0  0
   -2.8166   -2.7577    0.3476 H   0  0  0  0  0  0  0  0  0  0  0  0
   -0.7585   -2.4804   -0.2793 H   0  0  0  0  0  0  0  0  0  0  0  0
    1.6176   -2.0156   -0.2379 H   0  0  0  0  0  0  0  0  0  0  0  0
    2.5015    4.4660    0.9848 H   0  0  0  0  0  0  0  0  0  0  0  0
    1.8202    4.7767   -0.7068 H   0  0  0  0  0  0  0  0  0  0  0  0
    3.5183    4.2770   -0.4644 H   0  0  0  0  0  0  0  0  0  0  0  0
    3.1571   -1.7082    1.5185 H   0  0  0  0  0  0  0  0  0  0  0  0
    5.0757   -3.2934    1.2600 H   0  0  0  0  0  0  0  0  0  0  0  0
    6.6958   -3.0179   -0.5142 H   0  0  0  0  0  0  0  0  0  0  0  0
    6.4625   -1.1510   -2.1092 H   0  0  0  0  0  0  0  0  0  0  0  0
    4.5977    0.4124   -1.8931 H   0  0  0  0  0  0  0  0  0  0  0  0
  1  2  1  0
  2  3  2  0
  2  4  1  0
  4  5  1  0
  5  6  1  0
  6  7  1  0
  7  8  1  0
  8  9  1  0
  9 10  2  0
 10 11  1  0
 11 12  2  0
 12 13  1  0
 13 14  2  0
 14 15  1  0
 15 16  1  0
 15 17  1  0
 17 18  2  0
 17 19  1  0
 19 20  2  0
 13 21  1  0
 21 22  2  0
 22 23  1  0
 23 24  2  0
 24 25  1  0
 25 26  2  0
  8  4  1  0
 20  9  1  0
 26 21  1  0
 19 12  1  0
  1 27  1  0
  1 28  1  0
  4 29  1  6
  5 30  1  0
  5 31  1  0
  6 32  1  0
  6 33  1  0
  7 34  1  0
  7 35  1  0
 10 36  1  0
 11 37  1  0
 16 38  1  0
 16 39  1  0
 16 40  1  0
 22 41  1  0
 23 42  1  0
 24 43  1  0
 25 44  1  0
 26 45  1  0
M  END
$$$$
[H]c1c([H])c(-c2c([H])c([H])c(C(F)(F)F)c([H])c2[H])c(F)c([H])c1C(=O)N1C([H])([H])c2c([H])c([H])c(N([H])C([H])([H])C([H])([H])C([H])([H])N(C([H])([H])[H])C([H])([H])[H])c([H])c2C([H])([H])C1([H])[H]
     RDKit          3D

 65 68  0  0  0  0  0  0  0  0999 V2000
    8.1865   -1.8893    1.1448 C   0  0  0  0  0  0  0  0  0  0  0  0
    7.4291   -1.4297    0.0176 N   0  0  0  0  0  0  0  0  0  0  0  0
    6.6391   -2.4923   -0.6134 C   0  0  0  0  0  0  0  0  0  0  0  0
    6.5124   -0.3157    0.3485 C   0  0  0  0  0  0  0  0  0  0  0  0
    7.2533    0.9262    0.6237 C   0  0  0  0  0  0  0  0  0  0  0  0
    6.4708    2.1437    0.9812 C   0  0  0  0  0  0  0  0  0  0  0  0
    5.5805    2.6829    0.0392 N   0  0  0  0  0  0  0  0  0  0  0  0
    4.3435    2.1907   -0.4235 C   0  0  0  0  0  0  0  0  0  0  0  0
    4.2207    1.7474   -1.7490 C   0  0  0  0  0  0  0  0  0  0  0  0
    3.0530    1.2656   -2.2563 C   0  0  0  0  0  0  0  0  0  0  0  0
    1.9148    1.1965   -1.4570 C   0  0  0  0  0  0  0  0  0  0  0  0
    0.7315    0.6153   -2.0219 C   0  0  0  0  0  0  0  0  0  0  0  0
   -0.4460    0.6604   -1.1430 N   0  0  0  0  0  0  0  0  0  0  0  0
   -0.4924    1.7309   -0.1874 C   0  0  0  0  0  0  0  0  0  0  0  0
    0.7620    1.6411    0.6957 C   0  0  0  0  0  0  0  0  0  0  0  0
    1.9858    1.6248   -0.1648 C   0  0  0  0  0  0  0  0  0  0  0  0
    3.1750    2.1101    0.3437 C   0  0  0  0  0  0  0  0  0  0  0  0
   -1.3521   -0.4009   -1.1830 C   0  0  0  0  0  0  0  0  0  0  0  0
   -0.9290   -1.4990   -1.8062 O   0  0  0  0  0  0  0  0  0  0  0  0
   -2.6881   -0.5143   -0.6796 C   0  0  0  0  0  0  0  0  0  0  0  0
   -3.5021    0.5589   -0.4870 C   0  0  0  0  0  0  0  0  0  0  0  0
   -4.8330    0.3741   -0.0579 C   0  0  0  0  0  0  0  0  0  0  0  0
   -5.3814   -0.8594    0.1877 C   0  0  0  0  0  0  0  0  0  0  0  0
   -4.5376   -1.9293   -0.0001 C   0  0  0  0  0  0  0  0  0  0  0  0
   -5.0416   -3.1763    0.2861 F   0  0  0  0  0  0  0  0  0  0  0  0
   -3.2408   -1.7781   -0.4161 C   0  0  0  0  0  0  0  0  0  0  0  0
   -6.7974   -0.9459    0.4846 C   0  0  0  0  0  0  0  0  0  0  0  0
   -7.6048   -1.9323   -0.0818 C   0  0  0  0  0  0  0  0  0  0  0  0
   -8.9752   -1.9628    0.1263 C   0  0  0  0  0  0  0  0  0  0  0  0
   -9.6150   -1.0216    0.8987 C   0  0  0  0  0  0  0  0  0  0  0  0
   -8.8264   -0.0459    1.4636 C   0  0  0  0  0  0  0  0  0  0  0  0
   -7.4502   -0.0201    1.2565 C   0  0  0  0  0  0  0  0  0  0  0  0
  -11.1061   -1.0617    1.0517 C   0  0  0  0  0  0  0  0  0  0  0  0
  -11.4222   -1.0891    2.3858 F   0  0  0  0  0  0  0  0  0  0  0  0
  -11.5561   -2.2306    0.4283 F   0  0  0  0  0  0  0  0  0  0  0  0
  -11.7241   -0.0072    0.3785 F   0  0  0  0  0  0  0  0  0  0  0  0
    8.3663   -1.1473    1.9307 H   0  0  0  0  0  0  0  0  0  0  0  0
    9.1528   -2.3364    0.7571 H   0  0  0  0  0  0  0  0  0  0  0  0
    7.5866   -2.7036    1.6606 H   0  0  0  0  0  0  0  0  0  0  0  0
    7.0746   -3.4715   -0.2952 H   0  0  0  0  0  0  0  0  0  0  0  0
    5.5721   -2.4348   -0.2865 H   0  0  0  0  0  0  0  0  0  0  0  0
    6.6704   -2.3842   -1.7323 H   0  0  0  0  0  0  0  0  0  0  0  0
    5.7738   -0.2415   -0.4582 H   0  0  0  0  0  0  0  0  0  0  0  0
    5.9526   -0.6454    1.2851 H   0  0  0  0  0  0  0  0  0  0  0  0
    7.8898    1.1967   -0.2826 H   0  0  0  0  0  0  0  0  0  0  0  0
    7.9950    0.7510    1.4810 H   0  0  0  0  0  0  0  0  0  0  0  0
    7.2135    2.9554    1.2983 H   0  0  0  0  0  0  0  0  0  0  0  0
    5.9776    1.9226    1.9779 H   0  0  0  0  0  0  0  0  0  0  0  0
    5.8689    3.6345   -0.3918 H   0  0  0  0  0  0  0  0  0  0  0  0
    5.1322    1.8180   -2.3523 H   0  0  0  0  0  0  0  0  0  0  0  0
    3.0125    0.9290   -3.2896 H   0  0  0  0  0  0  0  0  0  0  0  0
    0.8717   -0.4131   -2.4322 H   0  0  0  0  0  0  0  0  0  0  0  0
    0.4098    1.2768   -2.9041 H   0  0  0  0  0  0  0  0  0  0  0  0
   -1.3423    1.6841    0.5223 H   0  0  0  0  0  0  0  0  0  0  0  0
   -0.4882    2.6964   -0.7220 H   0  0  0  0  0  0  0  0  0  0  0  0
    0.7807    2.5481    1.3204 H   0  0  0  0  0  0  0  0  0  0  0  0
    0.7330    0.7462    1.3093 H   0  0  0  0  0  0  0  0  0  0  0  0
    3.2862    2.4607    1.3692 H   0  0  0  0  0  0  0  0  0  0  0  0
   -3.1838    1.5763   -0.6833 H   0  0  0  0  0  0  0  0  0  0  0  0
   -5.4569    1.2403    0.0888 H   0  0  0  0  0  0  0  0  0  0  0  0
   -2.6027   -2.6518   -0.5645 H   0  0  0  0  0  0  0  0  0  0  0  0
   -7.1453   -2.6812   -0.7020 H   0  0  0  0  0  0  0  0  0  0  0  0
   -9.6066   -2.7348   -0.3076 H   0  0  0  0  0  0  0  0  0  0  0  0
   -9.3094    0.7321    2.0751 H   0  0  0  0  0  0  0  0  0  0  0  0
   -6.9216    0.8103    1.7489 H   0  0  0  0  0  0  0  0  0  0  0  0
  1  2  1  0
  2  3  1  0
  2  4  1  0
  4  5  1  0
  5  6  1  0
  6  7  1  0
  7  8  1  0
  8  9  2  0
  9 10  1  0
 10 11  2  0
 11 12  1  0
 12 13  1  0
 13 14  1  0
 14 15  1  0
 15 16  1  0
 16 17  2  0
 13 18  1  0
 18 19  2  0
 18 20  1  0
 20 21  2  0
 21 22  1  0
 22 23  2  0
 23 24  1  0
 24 25  1  0
 24 26  2  0
 23 27  1  0
 27 28  2  0
 28 29  1  0
 29 30  2  0
 30 31  1  0
 31 32  2  0
 30 33  1  0
 33 34  1  0
 33 35  1  0
 33 36  1  0
 17  8  1  0
 26 20  1  0
 32 27  1  0
 16 11  1  0
  1 37  1  0
  1 38  1  0
  1 39  1  0
  3 40  1  0
  3 41  1  0
  3 42  1  0
  4 43  1  0
  4 44  1  0
  5 45  1  0
  5 46  1  0
  6 47  1  0
  6 48  1  0
  7 49  1  0
  9 50  1  0
 10 51  1  0
 12 52  1  0
 12 53  1  0
 14 54  1  0
 14 55  1  0
 15 56  1  0
 15 57  1  0
 17 58  1  0
 21 59  1  0
 22 60  1  0
 26 61  1  0
 28 62  1  0
 29 63  1  0
 31 64  1  0
 32 65  1  0
M  END
$$$$
[H]c1c([H])c(-c2c([H])c([H])c3nc(C(F)(F)F)n(C([H])([H])[H])c3c2[H])c([H])c(Cl)c1F
     RDKit          3D

 31 33  0  0  0  0  0  0  0  0999 V2000
   -2.7912   -0.7725    1.6953 C   0  0  0  0  0  0  0  0  0  0  0  0
   -2.6068   -0.0076    0.4591 N   0  0  0  0  0  0  0  0  0  0  0  0
   -3.5509    0.6527   -0.2191 C   0  0  0  0  0  0  0  0  0  0  0  0
   -2.9265    1.2123   -1.2584 N   0  0  0  0  0  0  0  0  0  0  0  0
   -1.6200    0.9152   -1.2389 C   0  0  0  0  0  0  0  0  0  0  0  0
   -0.5196    1.2449   -2.0187 C   0  0  0  0  0  0  0  0  0  0  0  0
    0.7405    0.7867   -1.6873 C   0  0  0  0  0  0  0  0  0  0  0  0
    0.9810   -0.0051   -0.5908 C   0  0  0  0  0  0  0  0  0  0  0  0
   -0.1120   -0.3255    0.1726 C   0  0  0  0  0  0  0  0  0  0  0  0
   -1.3881    0.1181   -0.1290 C   0  0  0  0  0  0  0  0  0  0  0  0
    2.3075   -0.3785   -0.1514 C   0  0  0  0  0  0  0  0  0  0  0  0
    2.6555   -1.5592    0.4187 C   0  0  0  0  0  0  0  0  0  0  0  0
    3.9420   -1.7919    0.9427 C   0  0  0  0  0  0  0  0  0  0  0  0
    4.9193   -0.7821    0.8839 C   0  0  0  0  0  0  0  0  0  0  0  0
    6.1444   -1.0379    1.3964 F   0  0  0  0  0  0  0  0  0  0  0  0
    4.5598    0.4184    0.2953 C   0  0  0  0  0  0  0  0  0  0  0  0
    5.7972    1.6995    0.2441 Cl  0  0  0  0  0  0  0  0  0  0  0  0
    3.3107    0.6284   -0.2049 C   0  0  0  0  0  0  0  0  0  0  0  0
   -5.0035    0.7832    0.1557 C   0  0  0  0  0  0  0  0  0  0  0  0
   -5.7266   -0.3362   -0.0379 F   0  0  0  0  0  0  0  0  0  0  0  0
   -5.5538    1.8338   -0.5855 F   0  0  0  0  0  0  0  0  0  0  0  0
   -5.0729    1.2231    1.4932 F   0  0  0  0  0  0  0  0  0  0  0  0
   -2.3636   -1.7942    1.6070 H   0  0  0  0  0  0  0  0  0  0  0  0
   -3.8420   -0.8557    1.9611 H   0  0  0  0  0  0  0  0  0  0  0  0
   -2.2205   -0.2833    2.5284 H   0  0  0  0  0  0  0  0  0  0  0  0
   -0.7162    1.8654   -2.8943 H   0  0  0  0  0  0  0  0  0  0  0  0
    1.5785    1.0453   -2.3209 H   0  0  0  0  0  0  0  0  0  0  0  0
   -0.0383   -0.9786    1.0414 H   0  0  0  0  0  0  0  0  0  0  0  0
    1.9025   -2.3545    0.4314 H   0  0  0  0  0  0  0  0  0  0  0  0
    4.1837   -2.7437    1.3965 H   0  0  0  0  0  0  0  0  0  0  0  0
    3.0297    1.5795   -0.6508 H   0  0  0  0  0  0  0  0  0  0  0  0
  1  2  1  0
  2  3  1  0
  3  4  2  0
  4  5  1  0
  5  6  2  0
  6  7  1  0
  7  8  2  0
  8  9  1  0
  9 10  2  0
  8 11  1  0
 11 12  2  0
 12 13  1  0
 13 14  2  0
 14 15  1  0
 14 16  1  0
 16 17  1  0
 16 18  2  0
  3 19  1  0
 19 20  1  0
 19 21  1  0
 19 22  1  0
 10  2  1  0
 18 11  1  0
 10  5  1  0
  1 23  1  0
  1 24  1  0
  1 25  1  0
  6 26  1  0
  7 27  1  0
  9 28  1  0
 12 29  1  0
 13 30  1  0
 18 31  1  0
M  END
$$$$
[H]OC(=O)c1c([H])c(SC([H])([H])C([H])([H])[H])c([H])c(-c2c([H])c([H])c3c(c2[H])c(=O)n([H])n3[H])c1[H]
     RDKit          3D

 36 38  0  0  0  0  0  0  0  0999 V2000
   -4.9364   -1.3381   -0.5542 C   0  0  0  0  0  0  0  0  0  0  0  0
   -4.0155   -2.2600    0.2378 C   0  0  0  0  0  0  0  0  0  0  0  0
   -3.1952   -1.3473    1.5680 S   0  0  0  0  0  0  0  0  0  0  0  0
   -2.0709   -0.1279    0.9383 C   0  0  0  0  0  0  0  0  0  0  0  0
   -2.5190    1.1479    0.6830 C   0  0  0  0  0  0  0  0  0  0  0  0
   -1.6492    2.1205    0.1856 C   0  0  0  0  0  0  0  0  0  0  0  0
   -0.3324    1.7806   -0.0461 C   0  0  0  0  0  0  0  0  0  0  0  0
    0.1217    0.4960    0.2099 C   0  0  0  0  0  0  0  0  0  0  0  0
   -0.7551   -0.4508    0.7021 C   0  0  0  0  0  0  0  0  0  0  0  0
    1.5134    0.1819   -0.0548 C   0  0  0  0  0  0  0  0  0  0  0  0
    2.2117    0.8036   -1.0944 C   0  0  0  0  0  0  0  0  0  0  0  0
    3.5281    0.5104   -1.3497 C   0  0  0  0  0  0  0  0  0  0  0  0
    4.1971   -0.4033   -0.5894 C   0  0  0  0  0  0  0  0  0  0  0  0
    5.4705   -0.8735   -0.6185 N   0  0  0  0  0  0  0  0  0  0  0  0
    5.5709   -1.7504    0.3571 N   0  0  0  0  0  0  0  0  0  0  0  0
    4.4206   -1.8795    1.0280 C   0  0  0  0  0  0  0  0  0  0  0  0
    4.1473   -2.6152    2.0086 O   0  0  0  0  0  0  0  0  0  0  0  0
    3.5313   -1.0212    0.4310 C   0  0  0  0  0  0  0  0  0  0  0  0
    2.1987   -0.7287    0.6942 C   0  0  0  0  0  0  0  0  0  0  0  0
   -2.0834    3.4682   -0.0983 C   0  0  0  0  0  0  0  0  0  0  0  0
   -3.3981    3.8163    0.1109 O   0  0  0  0  0  0  0  0  0  0  0  0
   -1.2713    4.3074   -0.5299 O   0  0  0  0  0  0  0  0  0  0  0  0
   -5.7726   -1.8943   -1.0305 H   0  0  0  0  0  0  0  0  0  0  0  0
   -4.3530   -0.7841   -1.3185 H   0  0  0  0  0  0  0  0  0  0  0  0
   -5.4047   -0.6322    0.1657 H   0  0  0  0  0  0  0  0  0  0  0  0
   -3.2943   -2.7862   -0.4303 H   0  0  0  0  0  0  0  0  0  0  0  0
   -4.6614   -3.0423    0.6830 H   0  0  0  0  0  0  0  0  0  0  0  0
   -3.5506    1.4760    0.8471 H   0  0  0  0  0  0  0  0  0  0  0  0
    0.3373    2.5315   -0.4297 H   0  0  0  0  0  0  0  0  0  0  0  0
   -0.3621   -1.4585    0.8942 H   0  0  0  0  0  0  0  0  0  0  0  0
    1.6790    1.5198   -1.6876 H   0  0  0  0  0  0  0  0  0  0  0  0
    4.0746    0.9885   -2.1547 H   0  0  0  0  0  0  0  0  0  0  0  0
    6.2054   -0.5592   -1.3173 H   0  0  0  0  0  0  0  0  0  0  0  0
    6.4489   -2.2677    0.5624 H   0  0  0  0  0  0  0  0  0  0  0  0
    1.7391   -1.2483    1.5077 H   0  0  0  0  0  0  0  0  0  0  0  0
   -3.7707    4.3202    0.8890 H   0  0  0  0  0  0  0  0  0  0  0  0
  1  2  1  0
  2  3  1  0
  3  4  1  0
  4  5  2  0
  5  6  1  0
  6  7  2  0
  7  8  1  0
  8  9  2  0
  8 10  1  0
 10 11  2  0
 11 12  1  0
 12 13  2  0
 13 14  1  0
 14 15  1  0
 15 16  1  0
 16 17  2  0
 16 18  1  0
 18 19  2  0
  6 20  1  0
 20 21  1  0
 20 22  2  0
  9  4  1  0
 19 10  1  0
 18 13  1  0
  1 23  1  0
  1 24  1  0
  1 25  1  0
  2 26  1  0
  2 27  1  0
  5 28  1  0
  7 29  1  0
  9 30  1  0
 11 31  1  0
 12 32  1  0
 14 33  1  0
 15 34  1  0
 19 35  1  0
 21 36  1  0
M  END
$$$$
[H]c1c([H])c(C2([H])C([H])([H])C([H])([H])C([H])([H])C([H])([H])C2([H])[H])c([H])c2c1C(=O)N(C(=O)C([H])([H])OC([H])([H])[H])C([H])([H])C2([H])[H]
     RDKit          3D

 45 47  0  0  0  0  0  0  0  0999 V2000
    6.1998    1.8513   -1.5886 C   0  0  0  0  0  0  0  0  0  0  0  0
    5.1557    1.0952   -1.0611 O   0  0  0  0  0  0  0  0  0  0  0  0
    5.3259   -0.2436   -1.2743 C   0  0  0  0  0  0  0  0  0  0  0  0
    4.2923   -1.1223   -0.7635 C   0  0  0  0  0  0  0  0  0  0  0  0
    4.4983   -2.3810   -1.0131 O   0  0  0  0  0  0  0  0  0  0  0  0
    3.1474   -0.7906   -0.0635 N   0  0  0  0  0  0  0  0  0  0  0  0
    2.6790    0.4908    0.3579 C   0  0  0  0  0  0  0  0  0  0  0  0
    1.2980    0.7825   -0.2226 C   0  0  0  0  0  0  0  0  0  0  0  0
    0.3726   -0.2998    0.2007 C   0  0  0  0  0  0  0  0  0  0  0  0
   -0.9964   -0.0771    0.3541 C   0  0  0  0  0  0  0  0  0  0  0  0
   -1.9047   -1.0325    0.7273 C   0  0  0  0  0  0  0  0  0  0  0  0
   -1.4066   -2.3147    0.9674 C   0  0  0  0  0  0  0  0  0  0  0  0
   -0.0621   -2.5725    0.8267 C   0  0  0  0  0  0  0  0  0  0  0  0
    0.8268   -1.5753    0.4462 C   0  0  0  0  0  0  0  0  0  0  0  0
    2.2455   -1.8886    0.3245 C   0  0  0  0  0  0  0  0  0  0  0  0
    2.7444   -3.0183    0.5246 O   0  0  0  0  0  0  0  0  0  0  0  0
   -3.3571   -0.7215    0.8606 C   0  0  0  0  0  0  0  0  0  0  0  0
   -3.6497    0.4244    1.7353 C   0  0  0  0  0  0  0  0  0  0  0  0
   -3.9594    1.7304    1.1000 C   0  0  0  0  0  0  0  0  0  0  0  0
   -4.8853    1.5375   -0.0592 C   0  0  0  0  0  0  0  0  0  0  0  0
   -4.1805    0.6129   -1.0458 C   0  0  0  0  0  0  0  0  0  0  0  0
   -4.1194   -0.7261   -0.4054 C   0  0  0  0  0  0  0  0  0  0  0  0
    5.9882    2.9266   -1.3748 H   0  0  0  0  0  0  0  0  0  0  0  0
    7.1589    1.5956   -1.0518 H   0  0  0  0  0  0  0  0  0  0  0  0
    6.3331    1.6917   -2.6782 H   0  0  0  0  0  0  0  0  0  0  0  0
    6.2824   -0.5277   -0.7479 H   0  0  0  0  0  0  0  0  0  0  0  0
    5.5373   -0.4525   -2.3722 H   0  0  0  0  0  0  0  0  0  0  0  0
    3.3326    1.3080    0.1495 H   0  0  0  0  0  0  0  0  0  0  0  0
    2.4781    0.4966    1.4836 H   0  0  0  0  0  0  0  0  0  0  0  0
    0.9685    1.7329    0.2902 H   0  0  0  0  0  0  0  0  0  0  0  0
    1.3233    0.9530   -1.2955 H   0  0  0  0  0  0  0  0  0  0  0  0
   -1.3050    0.9386    0.1567 H   0  0  0  0  0  0  0  0  0  0  0  0
   -2.1072   -3.0879    1.2637 H   0  0  0  0  0  0  0  0  0  0  0  0
    0.3165   -3.5847    1.0184 H   0  0  0  0  0  0  0  0  0  0  0  0
   -3.7389   -1.6485    1.4436 H   0  0  0  0  0  0  0  0  0  0  0  0
   -2.8706    0.5455    2.5602 H   0  0  0  0  0  0  0  0  0  0  0  0
   -4.5773    0.1681    2.3494 H   0  0  0  0  0  0  0  0  0  0  0  0
   -4.4751    2.3674    1.8720 H   0  0  0  0  0  0  0  0  0  0  0  0
   -3.1025    2.3188    0.7475 H   0  0  0  0  0  0  0  0  0  0  0  0
   -5.0979    2.5031   -0.5362 H   0  0  0  0  0  0  0  0  0  0  0  0
   -5.7753    1.0005    0.2960 H   0  0  0  0  0  0  0  0  0  0  0  0
   -3.1730    1.0058   -1.2536 H   0  0  0  0  0  0  0  0  0  0  0  0
   -4.7723    0.5458   -2.0006 H   0  0  0  0  0  0  0  0  0  0  0  0
   -5.1848   -1.0243   -0.1368 H   0  0  0  0  0  0  0  0  0  0  0  0
   -3.8035   -1.5336   -1.1115 H   0  0  0  0  0  0  0  0  0  0  0  0
  1  2  1  0
  2  3  1  0
  3  4  1  0
  4  5  2  0
  4  6  1  0
  6  7  1  0
  7  8  1  0
  8  9  1  0
  9 10  2  0
 10 11  1  0
 11 12  2  0
 12 13  1  0
 13 14  2  0
 14 15  1  0
 15 16  2  0
 11 17  1  0
 17 18  1  0
 18 19  1  0
 19 20  1  0
 20 21  1  0
 21 22  1  0
 15  6  1  0
 22 17  1  0
 14  9  1  0
  1 23  1  0
  1 24  1  0
  1 25  1  0
  3 26  1  0
  3 27  1  0
  7 28  1  0
  7 29  1  0
  8 30  1  0
  8 31  1  0
 10 32  1  0
 12 33  1  0
 13 34  1  0
 17 35  1  0
 18 36  1  0
 18 37  1  0
 19 38  1  0
 19 39  1  0
 20 40  1  0
 20 41  1  0
 21 42  1  0
 21 43  1  0
 22 44  1  0
 22 45  1  0
M  END
$$$$
[H]N=C(N([H])[H])N([H])C([H])([H])C([H])([H])C([H])([H])[C@@]([H])(C([H])=O)N([H])C(=O)[C@@]([H])(N([H])C(=O)N(O[H])C([H])([H])[C@]1([H])C([H])([H])[C@]([H])(N([H])[H])[C@@]1([H])O[H])C([H])([H])C([H])([H])SC([H])([H])[H]
     RDKit          3D

 63 63  0  0  0  0  0  0  0  0999 V2000
    5.1527   -0.6825   -2.8106 O   0  0  0  0  0  0  0  0  0  0  0  0
    4.1765   -0.8010   -1.8432 N   0  0  0  0  0  0  0  0  0  0  0  0
    4.5637   -0.8338   -0.4752 C   0  0  0  0  0  0  0  0  0  0  0  0
    4.7347    0.4565    0.2186 C   0  0  2  0  0  0  0  0  0  0  0  0
    3.6109    1.4246    0.3393 C   0  0  0  0  0  0  0  0  0  0  0  0
    4.7047    2.5135    0.3441 C   0  0  2  0  0  0  0  0  0  0  0  0
    4.2923    3.7281   -0.2805 N   0  0  0  0  0  0  0  0  0  0  0  0
    5.4535    1.5485   -0.5917 C   0  0  1  0  0  0  0  0  0  0  0  0
    6.8168    1.5591   -0.4320 O   0  0  0  0  0  0  0  0  0  0  0  0
    2.8267   -0.8499   -2.2392 C   0  0  0  0  0  0  0  0  0  0  0  0
    2.5786   -0.7318   -3.4784 O   0  0  0  0  0  0  0  0  0  0  0  0
    1.7941   -1.0281   -1.2922 N   0  0  0  0  0  0  0  0  0  0  0  0
    0.4071   -1.0710   -1.8153 C   0  0  1  0  0  0  0  0  0  0  0  0
   -0.1088   -2.4813   -1.6432 C   0  0  0  0  0  0  0  0  0  0  0  0
   -1.4977   -2.7287   -2.0952 C   0  0  0  0  0  0  0  0  0  0  0  0
   -1.8249   -4.5221   -1.8375 S   0  0  0  0  0  0  0  0  0  0  0  0
   -1.8249   -4.9087   -0.0793 C   0  0  0  0  0  0  0  0  0  0  0  0
   -0.3551   -0.0545   -1.0623 C   0  0  0  0  0  0  0  0  0  0  0  0
    0.1270    0.5017   -0.0336 O   0  0  0  0  0  0  0  0  0  0  0  0
   -1.6383    0.3067   -1.4978 N   0  0  0  0  0  0  0  0  0  0  0  0
   -2.4668    1.2824   -0.8331 C   0  0  1  0  0  0  0  0  0  0  0  0
   -2.8438    0.8468    0.5536 C   0  0  0  0  0  0  0  0  0  0  0  0
   -3.7177    1.8914    1.1879 C   0  0  0  0  0  0  0  0  0  0  0  0
   -4.1537    1.4808    2.5871 C   0  0  0  0  0  0  0  0  0  0  0  0
   -4.9033    0.2464    2.4839 N   0  0  0  0  0  0  0  0  0  0  0  0
   -5.3911   -0.2961    3.7048 C   0  0  0  0  0  0  0  0  0  0  0  0
   -6.6772    0.0434    4.1930 N   0  0  0  0  0  0  0  0  0  0  0  0
   -4.6307   -1.1043    4.3529 N   0  0  0  0  0  0  0  0  0  0  0  0
   -1.8676    2.6192   -0.8238 C   0  0  0  0  0  0  0  0  0  0  0  0
   -0.7719    2.8321   -1.3333 O   0  0  0  0  0  0  0  0  0  0  0  0
    4.8377    0.0119   -3.4329 H   0  0  0  0  0  0  0  0  0  0  0  0
    3.8979   -1.4665    0.1713 H   0  0  0  0  0  0  0  0  0  0  0  0
    5.5602   -1.3746   -0.3932 H   0  0  0  0  0  0  0  0  0  0  0  0
    5.2182    0.3138    1.2138 H   0  0  0  0  0  0  0  0  0  0  0  0
    3.0464    1.3874    1.2918 H   0  0  0  0  0  0  0  0  0  0  0  0
    2.9846    1.6301   -0.5403 H   0  0  0  0  0  0  0  0  0  0  0  0
    5.1342    2.5704    1.3532 H   0  0  0  0  0  0  0  0  0  0  0  0
    4.5873    4.5593    0.2685 H   0  0  0  0  0  0  0  0  0  0  0  0
    4.4699    3.7962   -1.2889 H   0  0  0  0  0  0  0  0  0  0  0  0
    5.0427    1.6314   -1.5972 H   0  0  0  0  0  0  0  0  0  0  0  0
    7.1549    0.6442   -0.6517 H   0  0  0  0  0  0  0  0  0  0  0  0
    1.9600   -1.1321   -0.2798 H   0  0  0  0  0  0  0  0  0  0  0  0
    0.4718   -0.8938   -2.8934 H   0  0  0  0  0  0  0  0  0  0  0  0
    0.6151   -3.1377   -2.1969 H   0  0  0  0  0  0  0  0  0  0  0  0
    0.0211   -2.7209   -0.5608 H   0  0  0  0  0  0  0  0  0  0  0  0
   -2.2290   -2.1930   -1.4101 H   0  0  0  0  0  0  0  0  0  0  0  0
   -1.7368   -2.4582   -3.1236 H   0  0  0  0  0  0  0  0  0  0  0  0
   -0.9422   -4.4117    0.3666 H   0  0  0  0  0  0  0  0  0  0  0  0
   -2.7316   -4.5080    0.4259 H   0  0  0  0  0  0  0  0  0  0  0  0
   -1.7974   -6.0056    0.0233 H   0  0  0  0  0  0  0  0  0  0  0  0
   -2.0577   -0.1251   -2.3774 H   0  0  0  0  0  0  0  0  0  0  0  0
   -3.4319    1.3548   -1.4241 H   0  0  0  0  0  0  0  0  0  0  0  0
   -3.3521   -0.1505    0.5096 H   0  0  0  0  0  0  0  0  0  0  0  0
   -1.9064    0.6848    1.1525 H   0  0  0  0  0  0  0  0  0  0  0  0
   -3.1210    2.8375    1.2510 H   0  0  0  0  0  0  0  0  0  0  0  0
   -4.6146    2.0229    0.5637 H   0  0  0  0  0  0  0  0  0  0  0  0
   -4.8701    2.2689    2.9313 H   0  0  0  0  0  0  0  0  0  0  0  0
   -3.3084    1.4126    3.2738 H   0  0  0  0  0  0  0  0  0  0  0  0
   -5.0786   -0.2208    1.5639 H   0  0  0  0  0  0  0  0  0  0  0  0
   -7.4071    0.4552    3.5428 H   0  0  0  0  0  0  0  0  0  0  0  0
   -6.9649   -0.0860    5.1697 H   0  0  0  0  0  0  0  0  0  0  0  0
   -3.6850   -1.3673    4.0143 H   0  0  0  0  0  0  0  0  0  0  0  0
   -2.3331    3.4833   -0.3841 H   0  0  0  0  0  0  0  0  0  0  0  0
  1  2  1  0
  2  3  1  0
  3  4  1  0
  4  5  1  0
  5  6  1  0
  6  7  1  0
  6  8  1  0
  8  9  1  0
  2 10  1  0
 10 11  2  0
 10 12  1  0
 12 13  1  0
 13 14  1  0
 14 15  1  0
 15 16  1  0
 16 17  1  0
 13 18  1  0
 18 19  2  0
 18 20  1  0
 20 21  1  0
 21 22  1  0
 22 23  1  0
 23 24  1  0
 24 25  1  0
 25 26  1  0
 26 27  1  0
 26 28  2  3
 21 29  1  0
 29 30  2  0
  8  4  1  0
  1 31  1  0
  3 32  1  0
  3 33  1  0
  4 34  1  1
  5 35  1  0
  5 36  1  0
  6 37  1  1
  7 38  1  0
  7 39  1  0
  8 40  1  6
  9 41  1  0
 12 42  1  0
 13 43  1  6
 14 44  1  0
 14 45  1  0
 15 46  1  0
 15 47  1  0
 17 48  1  0
 17 49  1  0
 17 50  1  0
 20 51  1  0
 21 52  1  6
 22 53  1  0
 22 54  1  0
 23 55  1  0
 23 56  1  0
 24 57  1  0
 24 58  1  0
 25 59  1  0
 27 60  1  0
 27 61  1  0
 28 62  1  0
 29 63  1  0
M  END
$$$$
[H]OC(=O)c1c([H])nc(N([H])C(C([H])([H])[H])(C([H])([H])[H])C([H])([H])[H])c2c(-c3c([H])c([H])c([H])c(O[H])c3[H])c([H])c([H])c([H])c12
     RDKit          3D

 45 47  0  0  0  0  0  0  0  0999 V2000
    3.5937   -3.9317   -0.1562 O   0  0  0  0  0  0  0  0  0  0  0  0
    2.7829   -3.0115    0.5283 C   0  0  0  0  0  0  0  0  0  0  0  0
    2.1824   -3.3676    1.6963 C   0  0  0  0  0  0  0  0  0  0  0  0
    1.3901   -2.4772    2.3708 C   0  0  0  0  0  0  0  0  0  0  0  0
    1.2075   -1.2035    1.8454 C   0  0  0  0  0  0  0  0  0  0  0  0
    1.7982   -0.8164    0.6730 C   0  0  0  0  0  0  0  0  0  0  0  0
    2.5829   -1.7277    0.0237 C   0  0  0  0  0  0  0  0  0  0  0  0
    1.7045    0.5319    0.1932 C   0  0  0  0  0  0  0  0  0  0  0  0
    2.9130    1.2743    0.3439 C   0  0  0  0  0  0  0  0  0  0  0  0
    3.0072    2.5922    0.1320 C   0  0  0  0  0  0  0  0  0  0  0  0
    1.8644    3.2793   -0.2567 C   0  0  0  0  0  0  0  0  0  0  0  0
    0.6782    2.6009   -0.4179 C   0  0  0  0  0  0  0  0  0  0  0  0
   -0.4438    3.3018   -0.7668 C   0  0  0  0  0  0  0  0  0  0  0  0
   -1.6487    2.5721   -0.8888 C   0  0  0  0  0  0  0  0  0  0  0  0
   -1.6551    1.3003   -0.6793 N   0  0  0  0  0  0  0  0  0  0  0  0
   -0.5606    0.5208   -0.3272 C   0  0  0  0  0  0  0  0  0  0  0  0
   -0.7524   -0.8637   -0.3871 N   0  0  0  0  0  0  0  0  0  0  0  0
   -2.1490   -1.3612   -0.3447 C   0  0  0  0  0  0  0  0  0  0  0  0
   -2.8499   -0.9310   -1.6161 C   0  0  0  0  0  0  0  0  0  0  0  0
   -2.8964   -0.7690    0.8134 C   0  0  0  0  0  0  0  0  0  0  0  0
   -2.2220   -2.8475   -0.2566 C   0  0  0  0  0  0  0  0  0  0  0  0
    0.5997    1.2183   -0.1956 C   0  0  0  0  0  0  0  0  0  0  0  0
   -0.4634    4.7061   -1.0515 C   0  0  0  0  0  0  0  0  0  0  0  0
   -1.7458    5.3312   -1.1698 O   0  0  0  0  0  0  0  0  0  0  0  0
    0.4595    5.4949   -1.2166 O   0  0  0  0  0  0  0  0  0  0  0  0
    4.0223   -3.6291   -1.0207 H   0  0  0  0  0  0  0  0  0  0  0  0
    2.3484   -4.3906    2.0879 H   0  0  0  0  0  0  0  0  0  0  0  0
    0.9302   -2.7907    3.2912 H   0  0  0  0  0  0  0  0  0  0  0  0
    0.5665   -0.5307    2.4214 H   0  0  0  0  0  0  0  0  0  0  0  0
    3.0667   -1.4533   -0.9093 H   0  0  0  0  0  0  0  0  0  0  0  0
    3.7882    0.6933    0.6495 H   0  0  0  0  0  0  0  0  0  0  0  0
    3.9078    3.1699    0.2396 H   0  0  0  0  0  0  0  0  0  0  0  0
    1.9307    4.3377   -0.4148 H   0  0  0  0  0  0  0  0  0  0  0  0
   -2.5192    3.1440   -1.1602 H   0  0  0  0  0  0  0  0  0  0  0  0
   -0.0995   -1.5779   -0.5537 H   0  0  0  0  0  0  0  0  0  0  0  0
   -3.6239   -0.1958   -1.4153 H   0  0  0  0  0  0  0  0  0  0  0  0
   -3.2917   -1.8339   -2.1349 H   0  0  0  0  0  0  0  0  0  0  0  0
   -2.1227   -0.5447   -2.3832 H   0  0  0  0  0  0  0  0  0  0  0  0
   -2.2227   -0.4254    1.6182 H   0  0  0  0  0  0  0  0  0  0  0  0
   -3.5506   -1.5459    1.2579 H   0  0  0  0  0  0  0  0  0  0  0  0
   -3.5950    0.0372    0.4781 H   0  0  0  0  0  0  0  0  0  0  0  0
   -3.1311   -3.1880   -0.7856 H   0  0  0  0  0  0  0  0  0  0  0  0
   -2.3708   -3.1333    0.8207 H   0  0  0  0  0  0  0  0  0  0  0  0
   -1.3209   -3.3670   -0.6494 H   0  0  0  0  0  0  0  0  0  0  0  0
   -2.0896    5.8079   -0.3264 H   0  0  0  0  0  0  0  0  0  0  0  0
  1  2  1  0
  2  3  2  0
  3  4  1  0
  4  5  2  0
  5  6  1  0
  6  7  2  0
  6  8  1  0
  8  9  2  0
  9 10  1  0
 10 11  2  0
 11 12  1  0
 12 13  2  0
 13 14  1  0
 14 15  2  0
 15 16  1  0
 16 17  1  0
 17 18  1  0
 18 19  1  0
 18 20  1  0
 18 21  1  0
 16 22  2  0
 13 23  1  0
 23 24  1  0
 23 25  2  0
  7  2  1  0
 22  8  1  0
 22 12  1  0
  1 26  1  0
  3 27  1  0
  4 28  1  0
  5 29  1  0
  7 30  1  0
  9 31  1  0
 10 32  1  0
 11 33  1  0
 14 34  1  0
 17 35  1  0
 19 36  1  0
 19 37  1  0
 19 38  1  0
 20 39  1  0
 20 40  1  0
 20 41  1  0
 21 42  1  0
 21 43  1  0
 21 44  1  0
 24 45  1  0
M  END
$$$$
