[H]c1c(OC([H])([H])C(F)(F)F)c(C(F)(F)F)c2nnc(C([H])([H])C3([H])C([H])([H])OC([H])([H])C3([H])[H])n2c1[H]
     RDKit          3D

 38 40  0  0  0  0  0  0  0  0999 V2000
    3.5048   -2.7877    0.3797 F   0  0  0  0  0  0  0  0  0  0  0  0
    2.7905   -2.2944   -0.7061 C   0  0  0  0  0  0  0  0  0  0  0  0
    3.7127   -1.9929   -1.6821 F   0  0  0  0  0  0  0  0  0  0  0  0
    1.9192   -3.2844   -1.0865 F   0  0  0  0  0  0  0  0  0  0  0  0
    2.0228   -1.0975   -0.3304 C   0  0  0  0  0  0  0  0  0  0  0  0
    2.7164   -0.0107    0.1381 C   0  0  0  0  0  0  0  0  0  0  0  0
    4.0932   -0.0604    0.2457 O   0  0  0  0  0  0  0  0  0  0  0  0
    4.8942    0.9812    0.7071 C   0  0  0  0  0  0  0  0  0  0  0  0
    6.3452    0.4827    0.6543 C   0  0  0  0  0  0  0  0  0  0  0  0
    7.1262    1.5279    1.1155 F   0  0  0  0  0  0  0  0  0  0  0  0
    6.7295    0.2466   -0.6482 F   0  0  0  0  0  0  0  0  0  0  0  0
    6.4916   -0.6649    1.3716 F   0  0  0  0  0  0  0  0  0  0  0  0
    2.0171    1.1178    0.4944 C   0  0  0  0  0  0  0  0  0  0  0  0
    0.6260    1.1006    0.3606 C   0  0  0  0  0  0  0  0  0  0  0  0
   -0.0367    0.0282   -0.0997 N   0  0  0  0  0  0  0  0  0  0  0  0
   -1.3491   -0.1820   -0.2982 C   0  0  0  0  0  0  0  0  0  0  0  0
   -2.4737    0.7561   -0.0517 C   0  0  0  0  0  0  0  0  0  0  0  0
   -3.7747    0.0994   -0.4156 C   0  0  0  0  0  0  0  0  0  0  0  0
   -4.9271    1.0463   -0.1684 C   0  0  0  0  0  0  0  0  0  0  0  0
   -5.5860    0.4754    1.0449 C   0  0  0  0  0  0  0  0  0  0  0  0
   -5.4247   -0.8854    0.8916 O   0  0  0  0  0  0  0  0  0  0  0  0
   -4.1097   -1.0827    0.4527 C   0  0  0  0  0  0  0  0  0  0  0  0
   -1.4474   -1.4357   -0.7743 N   0  0  0  0  0  0  0  0  0  0  0  0
   -0.2647   -1.9941   -0.8741 N   0  0  0  0  0  0  0  0  0  0  0  0
    0.6292   -1.0813   -0.4521 C   0  0  0  0  0  0  0  0  0  0  0  0
    4.7498    1.8494    0.0593 H   0  0  0  0  0  0  0  0  0  0  0  0
    4.6666    1.2905    1.7445 H   0  0  0  0  0  0  0  0  0  0  0  0
    2.5471    1.9817    0.8649 H   0  0  0  0  0  0  0  0  0  0  0  0
    0.0645    1.9739    0.6345 H   0  0  0  0  0  0  0  0  0  0  0  0
   -2.4946    0.9605    1.0353 H   0  0  0  0  0  0  0  0  0  0  0  0
   -2.3860    1.6759   -0.6599 H   0  0  0  0  0  0  0  0  0  0  0  0
   -3.8055   -0.2065   -1.4874 H   0  0  0  0  0  0  0  0  0  0  0  0
   -4.5762    2.0768    0.0285 H   0  0  0  0  0  0  0  0  0  0  0  0
   -5.6490    1.0088   -1.0314 H   0  0  0  0  0  0  0  0  0  0  0  0
   -5.1307    0.8540    1.9775 H   0  0  0  0  0  0  0  0  0  0  0  0
   -6.6726    0.6831    1.0980 H   0  0  0  0  0  0  0  0  0  0  0  0
   -3.4843   -1.1206    1.3700 H   0  0  0  0  0  0  0  0  0  0  0  0
   -4.0540   -2.0357   -0.1042 H   0  0  0  0  0  0  0  0  0  0  0  0
  1  2  1  0
  2  3  1  0
  2  4  1  0
  2  5  1  0
  5  6  2  0
  6  7  1  0
  7  8  1  0
  8  9  1  0
  9 10  1  0
  9 11  1  0
  9 12  1  0
  6 13  1  0
 13 14  2  0
 14 15  1  0
 15 16  1  0
 16 17  1  0
 17 18  1  0
 18 19  1  0
 19 20  1  0
 20 21  1  0
 21 22  1  0
 16 23  2  0
 23 24  1  0
 24 25  2  0
 25  5  1  0
 25 15  1  0
 22 18  1  0
  8 26  1  0
  8 27  1  0
 13 28  1  0
 14 29  1  0
 17 30  1  0
 17 31  1  0
 18 32  1  0
 19 33  1  0
 19 34  1  0
 20 35  1  0
 20 36  1  0
 22 37  1  0
 22 38  1  0
M  END
$$$$
[H]c1nc(C2([H])C([H])([H])C2([H])[H])c([H])c(-c2c([H])c(C(=O)N([H])[H])nc3c([H])c(-c4c([H])c([H])nc(C(F)(F)F)c4Cl)c([H])c([H])c23)c1[H]
     RDKit          3D

 49 53  0  0  0  0  0  0  0  0999 V2000
    7.7957    2.6730    0.5684 F   0  0  0  0  0  0  0  0  0  0  0  0
    6.9155    1.6159    0.6937 C   0  0  0  0  0  0  0  0  0  0  0  0
    6.9579    1.2312    2.0326 F   0  0  0  0  0  0  0  0  0  0  0  0
    7.2768    0.5706   -0.1387 F   0  0  0  0  0  0  0  0  0  0  0  0
    5.5571    2.0956    0.3214 C   0  0  0  0  0  0  0  0  0  0  0  0
    5.3475    3.3670   -0.0570 N   0  0  0  0  0  0  0  0  0  0  0  0
    4.1364    3.8208   -0.3959 C   0  0  0  0  0  0  0  0  0  0  0  0
    3.0754    2.9723   -0.3591 C   0  0  0  0  0  0  0  0  0  0  0  0
    3.1919    1.6316    0.0210 C   0  0  0  0  0  0  0  0  0  0  0  0
    4.4653    1.2262    0.3584 C   0  0  0  0  0  0  0  0  0  0  0  0
    4.7534   -0.4111    0.8573 Cl  0  0  0  0  0  0  0  0  0  0  0  0
    2.0260    0.7630    0.0381 C   0  0  0  0  0  0  0  0  0  0  0  0
    0.8813    1.2295    0.6481 C   0  0  0  0  0  0  0  0  0  0  0  0
   -0.2733    0.4399    0.6904 C   0  0  0  0  0  0  0  0  0  0  0  0
   -0.3069   -0.8173    0.1298 C   0  0  0  0  0  0  0  0  0  0  0  0
   -1.3987   -1.6411    0.1453 C   0  0  0  0  0  0  0  0  0  0  0  0
   -1.3087   -2.8880   -0.4395 C   0  0  0  0  0  0  0  0  0  0  0  0
   -0.1324   -3.3219   -1.0442 C   0  0  0  0  0  0  0  0  0  0  0  0
    0.9262   -2.5057   -1.0531 N   0  0  0  0  0  0  0  0  0  0  0  0
    0.8639   -1.2786   -0.4861 C   0  0  0  0  0  0  0  0  0  0  0  0
    1.9834   -0.4825   -0.5132 C   0  0  0  0  0  0  0  0  0  0  0  0
   -0.0278   -4.6347   -1.6632 C   0  0  0  0  0  0  0  0  0  0  0  0
    1.1810   -5.0597   -2.2754 N   0  0  0  0  0  0  0  0  0  0  0  0
   -1.0369   -5.3793   -1.6400 O   0  0  0  0  0  0  0  0  0  0  0  0
   -2.6516   -1.1974    0.7362 C   0  0  0  0  0  0  0  0  0  0  0  0
   -3.2049   -2.0015    1.7411 C   0  0  0  0  0  0  0  0  0  0  0  0
   -4.3980   -1.6482    2.2980 C   0  0  0  0  0  0  0  0  0  0  0  0
   -5.0438   -0.5352    1.8883 N   0  0  0  0  0  0  0  0  0  0  0  0
   -4.5201    0.2506    0.9181 C   0  0  0  0  0  0  0  0  0  0  0  0
   -3.3237   -0.0693    0.3332 C   0  0  0  0  0  0  0  0  0  0  0  0
   -5.2575    1.4482    0.5068 C   0  0  0  0  0  0  0  0  0  0  0  0
   -4.3451    2.7044    0.3888 C   0  0  0  0  0  0  0  0  0  0  0  0
   -5.0071    2.1016   -0.8023 C   0  0  0  0  0  0  0  0  0  0  0  0
    3.9907    4.8412   -0.6954 H   0  0  0  0  0  0  0  0  0  0  0  0
    2.0704    3.2927   -0.6253 H   0  0  0  0  0  0  0  0  0  0  0  0
    0.8824    2.2122    1.0945 H   0  0  0  0  0  0  0  0  0  0  0  0
   -1.1362    0.8405    1.1878 H   0  0  0  0  0  0  0  0  0  0  0  0
   -2.1696   -3.5440   -0.4289 H   0  0  0  0  0  0  0  0  0  0  0  0
    2.8894   -0.8543   -1.0017 H   0  0  0  0  0  0  0  0  0  0  0  0
    1.0888   -5.7231   -3.0988 H   0  0  0  0  0  0  0  0  0  0  0  0
    2.1298   -4.7662   -1.9718 H   0  0  0  0  0  0  0  0  0  0  0  0
   -2.6558   -2.9027    2.0546 H   0  0  0  0  0  0  0  0  0  0  0  0
   -4.7954   -2.2945    3.0728 H   0  0  0  0  0  0  0  0  0  0  0  0
   -2.9072    0.5600   -0.4418 H   0  0  0  0  0  0  0  0  0  0  0  0
   -6.2153    1.6240    1.0372 H   0  0  0  0  0  0  0  0  0  0  0  0
   -3.2624    2.5555    0.4460 H   0  0  0  0  0  0  0  0  0  0  0  0
   -4.7594    3.6240    0.8544 H   0  0  0  0  0  0  0  0  0  0  0  0
   -5.8619    2.6890   -1.2093 H   0  0  0  0  0  0  0  0  0  0  0  0
   -4.3865    1.5754   -1.5555 H   0  0  0  0  0  0  0  0  0  0  0  0
  1  2  1  0
  2  3  1  0
  2  4  1  0
  2  5  1  0
  5  6  2  0
  6  7  1  0
  7  8  2  0
  8  9  1  0
  9 10  2  0
 10 11  1  0
  9 12  1  0
 12 13  2  0
 13 14  1  0
 14 15  2  0
 15 16  1  0
 16 17  2  0
 17 18  1  0
 18 19  2  0
 19 20  1  0
 20 21  2  0
 18 22  1  0
 22 23  1  0
 22 24  2  0
 16 25  1  0
 25 26  2  0
 26 27  1  0
 27 28  2  0
 28 29  1  0
 29 30  2  0
 29 31  1  0
 31 32  1  0
 32 33  1  0
 10  5  1  0
 21 12  1  0
 30 25  1  0
 33 31  1  0
 20 15  1  0
  7 34  1  0
  8 35  1  0
 13 36  1  0
 14 37  1  0
 17 38  1  0
 21 39  1  0
 23 40  1  0
 23 41  1  0
 26 42  1  0
 27 43  1  0
 30 44  1  0
 31 45  1  0
 32 46  1  0
 32 47  1  0
 33 48  1  0
 33 49  1  0
M  END
$$$$
[H]c1c([H])c(C(=O)C([H])([H])[H])c([H])c(C2=C(c3c([H])c([H])c(F)c([H])c3F)Oc3c([H])c([H])c(C(F)(F)F)c([H])c3N([H])C2=O)c1[H]
     RDKit          3D

 47 50  0  0  0  0  0  0  0  0999 V2000
   -6.2454   -0.3949    0.2178 C   0  0  0  0  0  0  0  0  0  0  0  0
   -4.9433    0.2274    0.5721 C   0  0  0  0  0  0  0  0  0  0  0  0
   -4.9180    1.4351    0.8710 O   0  0  0  0  0  0  0  0  0  0  0  0
   -3.7564   -0.5989    0.5505 C   0  0  0  0  0  0  0  0  0  0  0  0
   -3.8549   -1.9582    0.2771 C   0  0  0  0  0  0  0  0  0  0  0  0
   -2.6907   -2.6857    0.2374 C   0  0  0  0  0  0  0  0  0  0  0  0
   -1.5020   -2.0791    0.4569 C   0  0  0  0  0  0  0  0  0  0  0  0
   -1.3832   -0.6855    0.7370 C   0  0  0  0  0  0  0  0  0  0  0  0
   -2.5339    0.0191    0.7783 C   0  0  0  0  0  0  0  0  0  0  0  0
   -0.0225   -0.2625    0.9382 C   0  0  0  0  0  0  0  0  0  0  0  0
    0.4545    0.7931    0.4020 C   0  0  0  0  0  0  0  0  0  0  0  0
    1.8259    1.3128    0.5479 O   0  0  0  0  0  0  0  0  0  0  0  0
    2.9581    0.4852    0.4166 C   0  0  0  0  0  0  0  0  0  0  0  0
    3.9713    0.9978   -0.3624 C   0  0  0  0  0  0  0  0  0  0  0  0
    5.1459    0.2939   -0.5916 C   0  0  0  0  0  0  0  0  0  0  0  0
    5.3201   -0.9582   -0.0291 C   0  0  0  0  0  0  0  0  0  0  0  0
    4.2888   -1.4615    0.7593 C   0  0  0  0  0  0  0  0  0  0  0  0
    3.1472   -0.7672    0.9758 C   0  0  0  0  0  0  0  0  0  0  0  0
    2.1775   -1.4199    1.7944 N   0  0  0  0  0  0  0  0  0  0  0  0
    0.7615   -1.1926    1.8415 C   0  0  0  0  0  0  0  0  0  0  0  0
    0.0532   -1.7782    2.6707 O   0  0  0  0  0  0  0  0  0  0  0  0
    6.5460   -1.6929   -0.3174 C   0  0  0  0  0  0  0  0  0  0  0  0
    7.7101   -1.1244    0.1786 F   0  0  0  0  0  0  0  0  0  0  0  0
    6.7670   -1.8418   -1.7013 F   0  0  0  0  0  0  0  0  0  0  0  0
    6.4468   -2.9896    0.1861 F   0  0  0  0  0  0  0  0  0  0  0  0
   -0.3206    1.6334   -0.4545 C   0  0  0  0  0  0  0  0  0  0  0  0
   -0.5171    2.9647   -0.0799 C   0  0  0  0  0  0  0  0  0  0  0  0
   -1.1685    3.8666   -0.8883 C   0  0  0  0  0  0  0  0  0  0  0  0
   -1.6439    3.4644   -2.1083 C   0  0  0  0  0  0  0  0  0  0  0  0
   -2.3091    4.3514   -2.9375 F   0  0  0  0  0  0  0  0  0  0  0  0
   -1.4553    2.1491   -2.4954 C   0  0  0  0  0  0  0  0  0  0  0  0
   -0.7893    1.2328   -1.6628 C   0  0  0  0  0  0  0  0  0  0  0  0
   -0.6286    0.0021   -2.2252 F   0  0  0  0  0  0  0  0  0  0  0  0
   -7.0422    0.3566    0.0462 H   0  0  0  0  0  0  0  0  0  0  0  0
   -6.5717   -1.1029    1.0221 H   0  0  0  0  0  0  0  0  0  0  0  0
   -6.0446   -0.9520   -0.7504 H   0  0  0  0  0  0  0  0  0  0  0  0
   -4.8407   -2.3671    0.1144 H   0  0  0  0  0  0  0  0  0  0  0  0
   -2.7724   -3.7672    0.0195 H   0  0  0  0  0  0  0  0  0  0  0  0
   -0.5952   -2.6773    0.4379 H   0  0  0  0  0  0  0  0  0  0  0  0
   -2.4887    1.0713    1.0219 H   0  0  0  0  0  0  0  0  0  0  0  0
    3.8551    1.9725   -0.8297 H   0  0  0  0  0  0  0  0  0  0  0  0
    5.9299    0.7353   -1.2032 H   0  0  0  0  0  0  0  0  0  0  0  0
    4.3877   -2.4420    1.2310 H   0  0  0  0  0  0  0  0  0  0  0  0
    2.5446   -2.1539    2.4373 H   0  0  0  0  0  0  0  0  0  0  0  0
   -0.1458    3.2704    0.8915 H   0  0  0  0  0  0  0  0  0  0  0  0
   -1.2757    4.8677   -0.5423 H   0  0  0  0  0  0  0  0  0  0  0  0
   -1.8314    1.8506   -3.4519 H   0  0  0  0  0  0  0  0  0  0  0  0
  1  2  1  0
  2  3  2  0
  2  4  1  0
  4  5  2  0
  5  6  1  0
  6  7  2  0
  7  8  1  0
  8  9  2  0
  8 10  1  0
 10 11  2  0
 11 12  1  0
 12 13  1  0
 13 14  2  0
 14 15  1  0
 15 16  2  0
 16 17  1  0
 17 18  2  0
 18 19  1  0
 19 20  1  0
 20 21  2  0
 16 22  1  0
 22 23  1  0
 22 24  1  0
 22 25  1  0
 11 26  1  0
 26 27  2  0
 27 28  1  0
 28 29  2  0
 29 30  1  0
 29 31  1  0
 31 32  2  0
 32 33  1  0
  9  4  1  0
 20 10  1  0
 32 26  1  0
 18 13  1  0
  1 34  1  0
  1 35  1  0
  1 36  1  0
  5 37  1  0
  6 38  1  0
  7 39  1  0
  9 40  1  0
 14 41  1  0
 15 42  1  0
 17 43  1  0
 19 44  1  0
 27 45  1  0
 28 46  1  0
 31 47  1  0
M  END
$$$$
[H]c1c([H])c([H])c(-c2nc(-c3c([H])c([H])c(F)c(C(=O)N([H])[H])c3[H])n3c2C([H])([H])C([H])([H])O[C@]([H])(C([H])([H])[H])C3([H])[H])c(C#N)c1[H]
     RDKit          3D

 48 51  0  0  0  0  0  0  0  0999 V2000
    0.8882    4.0976   -0.7257 C   0  0  0  0  0  0  0  0  0  0  0  0
   -0.0632    2.9303   -0.8218 C   0  0  2  0  0  0  0  0  0  0  0  0
    0.7559    1.6488   -0.8579 C   0  0  0  0  0  0  0  0  0  0  0  0
   -0.0097    0.5298   -0.3491 N   0  0  0  0  0  0  0  0  0  0  0  0
   -1.3590    0.4210   -0.4616 C   0  0  0  0  0  0  0  0  0  0  0  0
   -2.2593    1.2921   -1.2498 C   0  0  0  0  0  0  0  0  0  0  0  0
   -1.4520    1.9557   -2.3801 C   0  0  0  0  0  0  0  0  0  0  0  0
   -0.9016    3.1090   -1.8724 O   0  0  0  0  0  0  0  0  0  0  0  0
   -1.7383   -0.7019    0.2145 C   0  0  0  0  0  0  0  0  0  0  0  0
   -0.5903   -1.2224    0.6976 N   0  0  0  0  0  0  0  0  0  0  0  0
    0.4752   -0.4822    0.3603 C   0  0  0  0  0  0  0  0  0  0  0  0
    1.8270   -0.8176    0.7772 C   0  0  0  0  0  0  0  0  0  0  0  0
    2.0207   -1.7355    1.8206 C   0  0  0  0  0  0  0  0  0  0  0  0
    3.2403   -2.1646    2.2573 C   0  0  0  0  0  0  0  0  0  0  0  0
    4.3748   -1.6761    1.6460 C   0  0  0  0  0  0  0  0  0  0  0  0
    5.5781   -2.1082    2.0881 F   0  0  0  0  0  0  0  0  0  0  0  0
    4.2443   -0.7755    0.6184 C   0  0  0  0  0  0  0  0  0  0  0  0
    2.9795   -0.3592    0.1973 C   0  0  0  0  0  0  0  0  0  0  0  0
    5.4403   -0.2540   -0.0355 C   0  0  0  0  0  0  0  0  0  0  0  0
    5.3723    0.6773   -1.0918 N   0  0  0  0  0  0  0  0  0  0  0  0
    6.5753   -0.6250    0.3294 O   0  0  0  0  0  0  0  0  0  0  0  0
   -3.0640   -1.3285    0.4140 C   0  0  0  0  0  0  0  0  0  0  0  0
   -4.2417   -0.6501    0.2560 C   0  0  0  0  0  0  0  0  0  0  0  0
   -5.4727   -1.2649    0.5279 C   0  0  0  0  0  0  0  0  0  0  0  0
   -5.5434   -2.5589    0.9606 C   0  0  0  0  0  0  0  0  0  0  0  0
   -4.3722   -3.2447    1.1228 C   0  0  0  0  0  0  0  0  0  0  0  0
   -3.1372   -2.6348    0.8513 C   0  0  0  0  0  0  0  0  0  0  0  0
   -1.9683   -3.4553    1.0442 C   0  0  0  0  0  0  0  0  0  0  0  0
   -1.0324   -4.1526    1.2042 N   0  0  0  0  0  0  0  0  0  0  0  0
    0.3154    5.0475   -0.6331 H   0  0  0  0  0  0  0  0  0  0  0  0
    1.5591    4.0377    0.1557 H   0  0  0  0  0  0  0  0  0  0  0  0
    1.4763    4.2096   -1.6759 H   0  0  0  0  0  0  0  0  0  0  0  0
   -0.6531    2.8990    0.1161 H   0  0  0  0  0  0  0  0  0  0  0  0
    1.5265    1.8474   -0.0450 H   0  0  0  0  0  0  0  0  0  0  0  0
    1.2918    1.4717   -1.7744 H   0  0  0  0  0  0  0  0  0  0  0  0
   -3.0081    0.6797   -1.8270 H   0  0  0  0  0  0  0  0  0  0  0  0
   -2.6930    2.0667   -0.6326 H   0  0  0  0  0  0  0  0  0  0  0  0
   -0.7670    1.2595   -2.8522 H   0  0  0  0  0  0  0  0  0  0  0  0
   -2.2014    2.2695   -3.1371 H   0  0  0  0  0  0  0  0  0  0  0  0
    1.1315   -2.1115    2.2930 H   0  0  0  0  0  0  0  0  0  0  0  0
    3.3754   -2.8718    3.0639 H   0  0  0  0  0  0  0  0  0  0  0  0
    2.9965    0.3192   -0.6335 H   0  0  0  0  0  0  0  0  0  0  0  0
    5.7229    1.6365   -0.9433 H   0  0  0  0  0  0  0  0  0  0  0  0
    4.9774    0.4000   -1.9976 H   0  0  0  0  0  0  0  0  0  0  0  0
   -4.2982    0.3965   -0.0483 H   0  0  0  0  0  0  0  0  0  0  0  0
   -6.3845   -0.6911    0.3884 H   0  0  0  0  0  0  0  0  0  0  0  0
   -6.5083   -3.0485    1.1759 H   0  0  0  0  0  0  0  0  0  0  0  0
   -4.4257   -4.2670    1.4649 H   0  0  0  0  0  0  0  0  0  0  0  0
  1  2  1  0
  2  3  1  0
  3  4  1  0
  4  5  1  0
  5  6  1  0
  6  7  1  0
  7  8  1  0
  5  9  2  0
  9 10  1  0
 10 11  2  0
 11 12  1  0
 12 13  2  0
 13 14  1  0
 14 15  2  0
 15 16  1  0
 15 17  1  0
 17 18  2  0
 17 19  1  0
 19 20  1  0
 19 21  2  0
  9 22  1  0
 22 23  2  0
 23 24  1  0
 24 25  2  0
 25 26  1  0
 26 27  2  0
 27 28  1  0
 28 29  3  0
  8  2  1  0
 18 12  1  0
 27 22  1  0
 11  4  1  0
  1 30  1  0
  1 31  1  0
  1 32  1  0
  2 33  1  1
  3 34  1  0
  3 35  1  0
  6 36  1  0
  6 37  1  0
  7 38  1  0
  7 39  1  0
 13 40  1  0
 14 41  1  0
 18 42  1  0
 20 43  1  0
 20 44  1  0
 23 45  1  0
 24 46  1  0
 25 47  1  0
 26 48  1  0
M  END
$$$$
[H]OC(=O)[C@]1([H])C([H])([H])[C@]([H])(OC([H])([H])c2c([H])c(F)c(F)c(F)c2[H])[C@@]1([H])N([H])[H]
     RDKit          3D

 31 32  0  0  0  0  0  0  0  0999 V2000
   -0.9512    0.2126    2.3193 N   0  0  0  0  0  0  0  0  0  0  0  0
   -1.3280   -0.2340    0.9906 C   0  0  1  0  0  0  0  0  0  0  0  0
   -2.7353    0.0984    0.6477 C   0  0  1  0  0  0  0  0  0  0  0  0
   -2.2248    1.4175    0.0619 C   0  0  0  0  0  0  0  0  0  0  0  0
   -0.8519    0.7884   -0.0442 C   0  0  2  0  0  0  0  0  0  0  0  0
   -0.5751    0.1447   -1.2172 O   0  0  0  0  0  0  0  0  0  0  0  0
    0.6315    0.4076   -1.8041 C   0  0  0  0  0  0  0  0  0  0  0  0
    1.8099    0.0643   -0.9787 C   0  0  0  0  0  0  0  0  0  0  0  0
    2.2326   -1.2456   -0.9438 C   0  0  0  0  0  0  0  0  0  0  0  0
    3.3259   -1.6184   -0.1962 C   0  0  0  0  0  0  0  0  0  0  0  0
    3.7455   -2.9237   -0.1627 F   0  0  0  0  0  0  0  0  0  0  0  0
    3.9881   -0.6466    0.5178 C   0  0  0  0  0  0  0  0  0  0  0  0
    5.0679   -1.0185    1.2554 F   0  0  0  0  0  0  0  0  0  0  0  0
    3.5769    0.6780    0.4948 C   0  0  0  0  0  0  0  0  0  0  0  0
    4.2477    1.6007    1.2047 F   0  0  0  0  0  0  0  0  0  0  0  0
    2.4704    1.0209   -0.2694 C   0  0  0  0  0  0  0  0  0  0  0  0
   -3.4031   -0.7300   -0.3557 C   0  0  0  0  0  0  0  0  0  0  0  0
   -4.7192   -0.4300   -0.6857 O   0  0  0  0  0  0  0  0  0  0  0  0
   -2.8863   -1.7058   -0.9574 O   0  0  0  0  0  0  0  0  0  0  0  0
   -1.6993    0.0601    3.0257 H   0  0  0  0  0  0  0  0  0  0  0  0
   -0.6774    1.2042    2.3574 H   0  0  0  0  0  0  0  0  0  0  0  0
   -0.9791   -1.2633    0.7789 H   0  0  0  0  0  0  0  0  0  0  0  0
   -3.3554    0.2082    1.5503 H   0  0  0  0  0  0  0  0  0  0  0  0
   -2.6947    1.7111   -0.8794 H   0  0  0  0  0  0  0  0  0  0  0  0
   -2.2541    2.1798    0.8712 H   0  0  0  0  0  0  0  0  0  0  0  0
   -0.0815    1.4747    0.3394 H   0  0  0  0  0  0  0  0  0  0  0  0
    0.6807   -0.2370   -2.7285 H   0  0  0  0  0  0  0  0  0  0  0  0
    0.6849    1.4525   -2.1906 H   0  0  0  0  0  0  0  0  0  0  0  0
    1.6986   -2.0176   -1.5171 H   0  0  0  0  0  0  0  0  0  0  0  0
    2.1561    2.0529   -0.2839 H   0  0  0  0  0  0  0  0  0  0  0  0
   -4.9002    0.4289   -1.2006 H   0  0  0  0  0  0  0  0  0  0  0  0
  1  2  1  0
  2  3  1  0
  3  4  1  0
  4  5  1  0
  5  6  1  0
  6  7  1  0
  7  8  1  0
  8  9  2  0
  9 10  1  0
 10 11  1  0
 10 12  2  0
 12 13  1  0
 12 14  1  0
 14 15  1  0
 14 16  2  0
  3 17  1  0
 17 18  1  0
 17 19  2  0
  5  2  1  0
 16  8  1  0
  1 20  1  0
  1 21  1  0
  2 22  1  6
  3 23  1  1
  4 24  1  0
  4 25  1  0
  5 26  1  1
  7 27  1  0
  7 28  1  0
  9 29  1  0
 16 30  1  0
 18 31  1  0
M  END
$$$$
[H]c1nn2c(C([H])([H])C3([H])C([H])([H])C3([H])[H])nnc2c(C([H])([H])[H])c1-c1c([H])c([H])c(Oc2c([H])c([H])c([H])c(C([H])([H])[H])c2C([H])([H])[H])c([H])c1Cl
     RDKit          3D

 53 57  0  0  0  0  0  0  0  0999 V2000
   -6.8745    1.7835   -0.7535 C   0  0  0  0  0  0  0  0  0  0  0  0
   -6.5076    0.5677    0.0022 C   0  0  0  0  0  0  0  0  0  0  0  0
   -7.2106    0.1722    1.1138 C   0  0  0  0  0  0  0  0  0  0  0  0
   -6.8566   -0.9914    1.8100 C   0  0  0  0  0  0  0  0  0  0  0  0
   -5.7875   -1.7372    1.3632 C   0  0  0  0  0  0  0  0  0  0  0  0
   -5.0555   -1.3520    0.2318 C   0  0  0  0  0  0  0  0  0  0  0  0
   -3.9936   -2.1041   -0.2057 O   0  0  0  0  0  0  0  0  0  0  0  0
   -2.7094   -1.6028   -0.1606 C   0  0  0  0  0  0  0  0  0  0  0  0
   -2.2667   -0.5998    0.6468 C   0  0  0  0  0  0  0  0  0  0  0  0
   -0.9786   -0.1146    0.6798 C   0  0  0  0  0  0  0  0  0  0  0  0
   -0.0339   -0.6774   -0.1694 C   0  0  0  0  0  0  0  0  0  0  0  0
   -0.4530   -1.6884   -0.9969 C   0  0  0  0  0  0  0  0  0  0  0  0
    0.6633   -2.4604   -2.1238 Cl  0  0  0  0  0  0  0  0  0  0  0  0
   -1.7417   -2.1662   -1.0235 C   0  0  0  0  0  0  0  0  0  0  0  0
    1.3539   -0.2155   -0.2203 C   0  0  0  0  0  0  0  0  0  0  0  0
    1.8902    0.3262   -1.3767 C   0  0  0  0  0  0  0  0  0  0  0  0
    3.1474    0.8056   -1.4032 N   0  0  0  0  0  0  0  0  0  0  0  0
    3.9390    0.7859   -0.3246 N   0  0  0  0  0  0  0  0  0  0  0  0
    5.1952    1.1945   -0.1081 C   0  0  0  0  0  0  0  0  0  0  0  0
    6.1418    1.8255   -1.0285 C   0  0  0  0  0  0  0  0  0  0  0  0
    7.0002    0.8001   -1.7661 C   0  0  0  0  0  0  0  0  0  0  0  0
    7.8567   -0.1220   -0.9789 C   0  0  0  0  0  0  0  0  0  0  0  0
    8.5297    1.0542   -1.5777 C   0  0  0  0  0  0  0  0  0  0  0  0
    5.4460    0.9004    1.2080 N   0  0  0  0  0  0  0  0  0  0  0  0
    4.3886    0.3406    1.7553 N   0  0  0  0  0  0  0  0  0  0  0  0
    3.4339    0.2634    0.8020 C   0  0  0  0  0  0  0  0  0  0  0  0
    2.1277   -0.2568    0.8990 C   0  0  0  0  0  0  0  0  0  0  0  0
    1.7471   -0.8513    2.1871 C   0  0  0  0  0  0  0  0  0  0  0  0
   -5.4506   -0.1963   -0.4161 C   0  0  0  0  0  0  0  0  0  0  0  0
   -4.7454    0.2206   -1.6342 C   0  0  0  0  0  0  0  0  0  0  0  0
   -6.0371    2.2198   -1.3097 H   0  0  0  0  0  0  0  0  0  0  0  0
   -7.1953    2.5515   -0.0022 H   0  0  0  0  0  0  0  0  0  0  0  0
   -7.7961    1.6203   -1.3718 H   0  0  0  0  0  0  0  0  0  0  0  0
   -8.0403    0.7320    1.4779 H   0  0  0  0  0  0  0  0  0  0  0  0
   -7.4377   -1.2630    2.6792 H   0  0  0  0  0  0  0  0  0  0  0  0
   -5.4878   -2.6302    1.8754 H   0  0  0  0  0  0  0  0  0  0  0  0
   -2.9760   -0.1365    1.3275 H   0  0  0  0  0  0  0  0  0  0  0  0
   -0.6862    0.6995    1.3344 H   0  0  0  0  0  0  0  0  0  0  0  0
   -2.0974   -2.9566   -1.6649 H   0  0  0  0  0  0  0  0  0  0  0  0
    1.2407    0.3414   -2.2567 H   0  0  0  0  0  0  0  0  0  0  0  0
    5.6256    2.4228   -1.8223 H   0  0  0  0  0  0  0  0  0  0  0  0
    6.8064    2.5599   -0.4942 H   0  0  0  0  0  0  0  0  0  0  0  0
    6.7177    0.6171   -2.8140 H   0  0  0  0  0  0  0  0  0  0  0  0
    7.6370   -0.1741    0.1053 H   0  0  0  0  0  0  0  0  0  0  0  0
    8.0798   -1.1014   -1.4435 H   0  0  0  0  0  0  0  0  0  0  0  0
    8.8115    1.8464   -0.8427 H   0  0  0  0  0  0  0  0  0  0  0  0
    9.1746    0.9317   -2.4629 H   0  0  0  0  0  0  0  0  0  0  0  0
    2.1017   -1.9336    2.2568 H   0  0  0  0  0  0  0  0  0  0  0  0
    0.7006   -0.7713    2.4472 H   0  0  0  0  0  0  0  0  0  0  0  0
    2.3096   -0.3652    3.0470 H   0  0  0  0  0  0  0  0  0  0  0  0
   -5.4414    0.5991   -2.4207 H   0  0  0  0  0  0  0  0  0  0  0  0
   -4.2615   -0.6712   -2.1349 H   0  0  0  0  0  0  0  0  0  0  0  0
   -3.9440    0.9578   -1.4709 H   0  0  0  0  0  0  0  0  0  0  0  0
  1  2  1  0
  2  3  2  0
  3  4  1  0
  4  5  2  0
  5  6  1  0
  6  7  1  0
  7  8  1  0
  8  9  2  0
  9 10  1  0
 10 11  2  0
 11 12  1  0
 12 13  1  0
 12 14  2  0
 11 15  1  0
 15 16  1  0
 16 17  2  0
 17 18  1  0
 18 19  1  0
 19 20  1  0
 20 21  1  0
 21 22  1  0
 22 23  1  0
 19 24  2  0
 24 25  1  0
 25 26  2  0
 26 27  1  0
 27 28  1  0
  6 29  2  0
 29 30  1  0
 29  2  1  0
 14  8  1  0
 27 15  2  0
 26 18  1  0
 23 21  1  0
  1 31  1  0
  1 32  1  0
  1 33  1  0
  3 34  1  0
  4 35  1  0
  5 36  1  0
  9 37  1  0
 10 38  1  0
 14 39  1  0
 16 40  1  0
 20 41  1  0
 20 42  1  0
 21 43  1  0
 22 44  1  0
 22 45  1  0
 23 46  1  0
 23 47  1  0
 28 48  1  0
 28 49  1  0
 28 50  1  0
 30 51  1  0
 30 52  1  0
 30 53  1  0
M  END
$$$$
[H]OC1(c2c([H])c([H])c(Cl)c(Cl)c2[H])C([H])([H])C([H])([H])N(C([H])([H])c2nc3c([H])c([H])c(C#N)c([H])c3n2C([H])([H])[H])C([H])([H])C1([H])[H]
     RDKit          3D

 48 51  0  0  0  0  0  0  0  0999 V2000
   -2.8059   -1.7265   -1.0284 C   0  0  0  0  0  0  0  0  0  0  0  0
   -2.9191   -0.6838   -0.0482 N   0  0  0  0  0  0  0  0  0  0  0  0
   -2.0304   -0.3601    0.8611 C   0  0  0  0  0  0  0  0  0  0  0  0
   -0.6907   -0.8352    1.1646 C   0  0  0  0  0  0  0  0  0  0  0  0
    0.0521   -1.4514    0.1248 N   0  0  0  0  0  0  0  0  0  0  0  0
    0.3114   -0.6208   -1.0002 C   0  0  0  0  0  0  0  0  0  0  0  0
    1.6165    0.1143   -0.9909 C   0  0  0  0  0  0  0  0  0  0  0  0
    2.7794   -0.6913   -0.5207 C   0  0  0  0  0  0  0  0  0  0  0  0
    3.1556   -1.5753   -1.5424 O   0  0  0  0  0  0  0  0  0  0  0  0
    2.4511   -1.4484    0.7249 C   0  0  0  0  0  0  0  0  0  0  0  0
    1.1461   -2.2243    0.6046 C   0  0  0  0  0  0  0  0  0  0  0  0
    3.8846    0.2753   -0.2378 C   0  0  0  0  0  0  0  0  0  0  0  0
    4.9647   -0.1511    0.5273 C   0  0  0  0  0  0  0  0  0  0  0  0
    5.9759    0.7369    0.7976 C   0  0  0  0  0  0  0  0  0  0  0  0
    5.9241    2.0253    0.3212 C   0  0  0  0  0  0  0  0  0  0  0  0
    7.2247    3.1214    0.7001 Cl  0  0  0  0  0  0  0  0  0  0  0  0
    4.8729    2.4764   -0.4388 C   0  0  0  0  0  0  0  0  0  0  0  0
    4.7876    4.1194   -1.0657 Cl  0  0  0  0  0  0  0  0  0  0  0  0
    3.8615    1.5777   -0.7055 C   0  0  0  0  0  0  0  0  0  0  0  0
   -2.5716    0.6775    1.5839 N   0  0  0  0  0  0  0  0  0  0  0  0
   -3.7888    0.9847    1.1110 C   0  0  0  0  0  0  0  0  0  0  0  0
   -4.7427    1.9351    1.4435 C   0  0  0  0  0  0  0  0  0  0  0  0
   -5.8943    1.9610    0.6956 C   0  0  0  0  0  0  0  0  0  0  0  0
   -6.1247    1.0973   -0.3497 C   0  0  0  0  0  0  0  0  0  0  0  0
   -5.1814    0.1517   -0.6834 C   0  0  0  0  0  0  0  0  0  0  0  0
   -4.0259    0.1194    0.0633 C   0  0  0  0  0  0  0  0  0  0  0  0
   -7.3626    1.2002   -1.0868 C   0  0  0  0  0  0  0  0  0  0  0  0
   -8.3378    1.2660   -1.6889 N   0  0  0  0  0  0  0  0  0  0  0  0
   -2.1572   -2.5523   -0.7250 H   0  0  0  0  0  0  0  0  0  0  0  0
   -3.8323   -2.1817   -1.1427 H   0  0  0  0  0  0  0  0  0  0  0  0
   -2.5659   -1.3400   -2.0559 H   0  0  0  0  0  0  0  0  0  0  0  0
   -0.7414   -1.5171    2.0428 H   0  0  0  0  0  0  0  0  0  0  0  0
   -0.0237    0.0306    1.5256 H   0  0  0  0  0  0  0  0  0  0  0  0
   -0.4757    0.2161   -0.9607 H   0  0  0  0  0  0  0  0  0  0  0  0
    0.2446   -1.2139   -1.9116 H   0  0  0  0  0  0  0  0  0  0  0  0
    1.5236    1.0951   -0.4158 H   0  0  0  0  0  0  0  0  0  0  0  0
    1.8122    0.3977   -2.0514 H   0  0  0  0  0  0  0  0  0  0  0  0
    3.5599   -2.3499   -1.1190 H   0  0  0  0  0  0  0  0  0  0  0  0
    2.3319   -0.7291    1.5804 H   0  0  0  0  0  0  0  0  0  0  0  0
    3.2556   -2.1756    0.9155 H   0  0  0  0  0  0  0  0  0  0  0  0
    1.2704   -3.1585    0.0149 H   0  0  0  0  0  0  0  0  0  0  0  0
    0.8927   -2.5346    1.6483 H   0  0  0  0  0  0  0  0  0  0  0  0
    4.9986   -1.1872    0.8941 H   0  0  0  0  0  0  0  0  0  0  0  0
    6.8139    0.4139    1.3981 H   0  0  0  0  0  0  0  0  0  0  0  0
    3.0524    1.9423   -1.3083 H   0  0  0  0  0  0  0  0  0  0  0  0
   -4.5226    2.5897    2.2762 H   0  0  0  0  0  0  0  0  0  0  0  0
   -6.6570    2.7251    0.9600 H   0  0  0  0  0  0  0  0  0  0  0  0
   -5.3120   -0.5420   -1.4891 H   0  0  0  0  0  0  0  0  0  0  0  0
  1  2  1  0
  2  3  1  0
  3  4  1  0
  4  5  1  0
  5  6  1  0
  6  7  1  0
  7  8  1  0
  8  9  1  0
  8 10  1  0
 10 11  1  0
  8 12  1  0
 12 13  2  0
 13 14  1  0
 14 15  2  0
 15 16  1  0
 15 17  1  0
 17 18  1  0
 17 19  2  0
  3 20  2  0
 20 21  1  0
 21 22  2  0
 22 23  1  0
 23 24  2  0
 24 25  1  0
 25 26  2  0
 24 27  1  0
 27 28  3  0
 26  2  1  0
 11  5  1  0
 19 12  1  0
 26 21  1  0
  1 29  1  0
  1 30  1  0
  1 31  1  0
  4 32  1  0
  4 33  1  0
  6 34  1  0
  6 35  1  0
  7 36  1  0
  7 37  1  0
  9 38  1  0
 10 39  1  0
 10 40  1  0
 11 41  1  0
 11 42  1  0
 13 43  1  0
 14 44  1  0
 19 45  1  0
 22 46  1  0
 23 47  1  0
 25 48  1  0
M  END
$$$$
[H]c1c([H])c(-c2nc(-c3c([H])c(C([H])([H])[H])nc(C([H])([H])[H])c3[H])c3n2C([H])([H])[C@@]([H])(C([H])([H])[H])OC([H])([H])C3([H])[H])c([H])c(F)c1F
     RDKit          3D

 48 51  0  0  0  0  0  0  0  0999 V2000
   -2.4376    3.5624    0.7905 C   0  0  0  0  0  0  0  0  0  0  0  0
   -2.4694    2.5189   -0.2708 C   0  0  2  0  0  0  0  0  0  0  0  0
   -2.6620    1.1460    0.3539 C   0  0  0  0  0  0  0  0  0  0  0  0
   -1.4362    0.3951    0.2662 N   0  0  0  0  0  0  0  0  0  0  0  0
   -0.1837    0.8866    0.1576 C   0  0  0  0  0  0  0  0  0  0  0  0
    0.3616    2.2830    0.2250 C   0  0  0  0  0  0  0  0  0  0  0  0
   -0.2877    3.0751   -0.8869 C   0  0  0  0  0  0  0  0  0  0  0  0
   -1.5127    2.5721   -1.2374 O   0  0  0  0  0  0  0  0  0  0  0  0
    0.6512   -0.1691    0.0173 C   0  0  0  0  0  0  0  0  0  0  0  0
   -0.1263   -1.2643    0.0512 N   0  0  0  0  0  0  0  0  0  0  0  0
   -1.4326   -0.9425    0.2086 C   0  0  0  0  0  0  0  0  0  0  0  0
   -2.4557   -1.9701    0.2620 C   0  0  0  0  0  0  0  0  0  0  0  0
   -3.7166   -1.8313    0.7503 C   0  0  0  0  0  0  0  0  0  0  0  0
   -4.6457   -2.8830    0.6906 C   0  0  0  0  0  0  0  0  0  0  0  0
   -4.3142   -4.0949    0.1369 C   0  0  0  0  0  0  0  0  0  0  0  0
   -5.1843   -5.1306    0.0622 F   0  0  0  0  0  0  0  0  0  0  0  0
   -3.0484   -4.2641   -0.3618 C   0  0  0  0  0  0  0  0  0  0  0  0
   -2.6731   -5.4494   -0.9208 F   0  0  0  0  0  0  0  0  0  0  0  0
   -2.1696   -3.2427   -0.2967 C   0  0  0  0  0  0  0  0  0  0  0  0
    2.1211   -0.2343   -0.1411 C   0  0  0  0  0  0  0  0  0  0  0  0
    2.7898    0.5269   -1.0679 C   0  0  0  0  0  0  0  0  0  0  0  0
    4.1615    0.3866   -1.1209 C   0  0  0  0  0  0  0  0  0  0  0  0
    4.8970    1.1999   -2.1129 C   0  0  0  0  0  0  0  0  0  0  0  0
    4.8481   -0.4477   -0.3183 N   0  0  0  0  0  0  0  0  0  0  0  0
    4.2182   -1.2106    0.6042 C   0  0  0  0  0  0  0  0  0  0  0  0
    4.9934   -2.1261    1.4833 C   0  0  0  0  0  0  0  0  0  0  0  0
    2.8498   -1.0807    0.6682 C   0  0  0  0  0  0  0  0  0  0  0  0
   -3.4189    4.0817    0.8201 H   0  0  0  0  0  0  0  0  0  0  0  0
   -1.6836    4.3512    0.6780 H   0  0  0  0  0  0  0  0  0  0  0  0
   -2.3669    3.0667    1.8034 H   0  0  0  0  0  0  0  0  0  0  0  0
   -3.4634    2.6742   -0.8454 H   0  0  0  0  0  0  0  0  0  0  0  0
   -2.9861    1.2300    1.4018 H   0  0  0  0  0  0  0  0  0  0  0  0
   -3.4870    0.6137   -0.2074 H   0  0  0  0  0  0  0  0  0  0  0  0
   -0.0314    2.7207    1.1945 H   0  0  0  0  0  0  0  0  0  0  0  0
    1.4480    2.3192    0.1994 H   0  0  0  0  0  0  0  0  0  0  0  0
   -0.2690    4.1575   -0.7406 H   0  0  0  0  0  0  0  0  0  0  0  0
    0.3724    2.9152   -1.8017 H   0  0  0  0  0  0  0  0  0  0  0  0
   -4.0168   -0.9162    1.2324 H   0  0  0  0  0  0  0  0  0  0  0  0
   -5.6099   -2.6968    1.0916 H   0  0  0  0  0  0  0  0  0  0  0  0
   -1.1736   -3.4050   -0.7014 H   0  0  0  0  0  0  0  0  0  0  0  0
    2.2735    1.2071   -1.7350 H   0  0  0  0  0  0  0  0  0  0  0  0
    5.6161    0.5161   -2.6326 H   0  0  0  0  0  0  0  0  0  0  0  0
    4.2502    1.6666   -2.8552 H   0  0  0  0  0  0  0  0  0  0  0  0
    5.5175    1.9246   -1.5349 H   0  0  0  0  0  0  0  0  0  0  0  0
    4.3115   -2.8896    1.9077 H   0  0  0  0  0  0  0  0  0  0  0  0
    5.8764   -2.5362    0.9791 H   0  0  0  0  0  0  0  0  0  0  0  0
    5.3582   -1.5163    2.3403 H   0  0  0  0  0  0  0  0  0  0  0  0
    2.3469   -1.6959    1.4132 H   0  0  0  0  0  0  0  0  0  0  0  0
  1  2  1  0
  2  3  1  0
  3  4  1  0
  4  5  1  0
  5  6  1  0
  6  7  1  0
  7  8  1  0
  5  9  2  0
  9 10  1  0
 10 11  2  0
 11 12  1  0
 12 13  2  0
 13 14  1  0
 14 15  2  0
 15 16  1  0
 15 17  1  0
 17 18  1  0
 17 19  2  0
  9 20  1  0
 20 21  2  0
 21 22  1  0
 22 23  1  0
 22 24  2  0
 24 25  1  0
 25 26  1  0
 25 27  2  0
  8  2  1  0
 19 12  1  0
 27 20  1  0
 11  4  1  0
  1 28  1  0
  1 29  1  0
  1 30  1  0
  2 31  1  6
  3 32  1  0
  3 33  1  0
  6 34  1  0
  6 35  1  0
  7 36  1  0
  7 37  1  0
 13 38  1  0
 14 39  1  0
 19 40  1  0
 21 41  1  0
 23 42  1  0
 23 43  1  0
 23 44  1  0
 26 45  1  0
 26 46  1  0
 26 47  1  0
 27 48  1  0
M  END
$$$$
[H]OC(=O)C1(S[C@]2([H])C([H])([H])[C@](C(=O)O[H])(N([H])[H])[C@@]3([H])[C@@]2([H])[C@]3([H])C(=O)O[H])C([H])([H])C1([H])[H]
     RDKit          2D

 35 37  0  0  0  0  0  0  0  0999 V2000
   -1.2495   -2.5838    0.0000 N   0  0  0  0  0  0  0  0  0  0  0  0
   -1.8596   -1.2135    0.0000 C   0  0  0  0  0  0  0  0  0  0  0  0
   -2.7413    0.0000    0.0000 C   0  0  0  0  0  0  0  0  0  0  0  0
   -1.8596    1.2135    0.0000 C   0  0  0  0  0  0  0  0  0  0  0  0
   -1.2495    2.5838    0.0000 S   0  0  0  0  0  0  0  0  0  0  0  0
   -2.1312    3.7974    0.0000 C   0  0  0  0  0  0  0  0  0  0  0  0
   -3.3747    4.6362    0.0000 C   0  0  0  0  0  0  0  0  0  0  0  0
   -3.4794    3.1398    0.0000 C   0  0  0  0  0  0  0  0  0  0  0  0
   -1.0892    4.8764    0.0000 C   0  0  0  0  0  0  0  0  0  0  0  0
    0.3663    4.5135    0.0000 O   0  0  0  0  0  0  0  0  0  0  0  0
   -1.5026    6.3183    0.0000 O   0  0  0  0  0  0  0  0  0  0  0  0
   -0.4330    0.7500    0.0000 C   0  0  0  0  0  0  0  0  0  0  0  0
    0.8660    0.0000    0.0000 C   0  0  0  0  0  0  0  0  0  0  0  0
   -0.4330   -0.7500    0.0000 C   0  0  0  0  0  0  0  0  0  0  0  0
    1.8302    1.1491    0.0000 C   0  0  0  0  0  0  0  0  0  0  0  0
    1.3172    2.5586    0.0000 O   0  0  0  0  0  0  0  0  0  0  0  0
    3.3074    0.8886    0.0000 O   0  0  0  0  0  0  0  0  0  0  0  0
   -3.1586   -1.9635    0.0000 C   0  0  0  0  0  0  0  0  0  0  0  0
   -3.1586   -3.4635    0.0000 O   0  0  0  0  0  0  0  0  0  0  0  0
   -4.2771   -1.4888    0.0000 O   0  0  0  0  0  0  0  0  0  0  0  0
   -2.1312   -3.7974    0.0000 H   0  0  0  0  0  0  0  0  0  0  0  0
    0.2121   -2.9213    0.0000 H   0  0  0  0  0  0  0  0  0  0  0  0
   -3.7445    0.9033    0.0000 H   0  0  0  0  0  0  0  0  0  0  0  0
   -3.7366   -0.6969    0.0000 H   0  0  0  0  0  0  0  0  0  0  0  0
   -2.6749    1.5596    0.0000 H   0  0  0  0  0  0  0  0  0  0  0  0
   -2.7646    6.0065    0.0000 H   0  0  0  0  0  0  0  0  0  0  0  0
   -4.8302    4.9990    0.0000 H   0  0  0  0  0  0  0  0  0  0  0  0
   -4.9711    2.9830    0.0000 H   0  0  0  0  0  0  0  0  0  0  0  0
   -3.3547    2.3525    0.0000 H   0  0  0  0  0  0  0  0  0  0  0  0
    1.4082    5.5925    0.0000 H   0  0  0  0  0  0  0  0  0  0  0  0
    0.1771    2.1203    0.0000 H   0  0  0  0  0  0  0  0  0  0  0  0
    1.8302   -1.1491    0.0000 H   0  0  0  0  0  0  0  0  0  0  0  0
    0.3396   -2.0357    0.0000 H   0  0  0  0  0  0  0  0  0  0  0  0
    2.2814    3.7077    0.0000 H   0  0  0  0  0  0  0  0  0  0  0  0
   -4.4577   -4.2135    0.0000 H   0  0  0  0  0  0  0  0  0  0  0  0
  1  2  1  0
  2  3  1  0
  3  4  1  0
  4  5  1  0
  5  6  1  0
  6  7  1  0
  7  8  1  0
  6  9  1  0
  9 10  1  0
  9 11  2  0
  4 12  1  0
 12 13  1  0
 13 14  1  0
 13 15  1  0
 15 16  1  0
 15 17  2  0
  2 18  1  6
 18 19  1  0
 18 20  2  0
 14  2  1  0
  8  6  1  0
 14 12  1  0
  1 21  1  0
  1 22  1  0
  3 23  1  0
  3 24  1  0
  4 25  1  6
  7 26  1  0
  7 27  1  0
  8 28  1  0
  8 29  1  0
 10 30  1  0
 12 31  1  1
 13 32  1  1
 14 33  1  6
 16 34  1  0
 19 35  1  0
M  END
$$$$
[H]c1c([H])c(-c2c([H])c([H])c3c(c2[H])c(C([H])([H])N2C([H])([H])[C@]([H])(C([H])([H])[H])O[C@]2([H])C([H])([H])[H])c([H])n3C2([H])C([H])([H])C([H])([H])C([H])([H])C([H])([H])C2([H])[H])c(F)c([H])c1F
     RDKit          3D

 61 65  0  0  0  0  0  0  0  0999 V2000
    5.8544   -2.4853    1.4578 C   0  0  0  0  0  0  0  0  0  0  0  0
    4.8670   -1.9281    0.4715 C   0  0  1  0  0  0  0  0  0  0  0  0
    3.5274   -1.5474    1.1425 C   0  0  0  0  0  0  0  0  0  0  0  0
    3.0120   -0.6774    0.2172 N   0  0  0  0  0  0  0  0  0  0  0  0
    2.1336    0.4357    0.5529 C   0  0  0  0  0  0  0  0  0  0  0  0
    0.7833   -0.0335    0.2176 C   0  0  0  0  0  0  0  0  0  0  0  0
    0.1332   -1.2607    0.3078 C   0  0  0  0  0  0  0  0  0  0  0  0
   -1.0956   -1.1896   -0.0412 N   0  0  0  0  0  0  0  0  0  0  0  0
   -2.1206   -2.2140   -0.0315 C   0  0  0  0  0  0  0  0  0  0  0  0
   -1.6893   -3.4689    0.6787 C   0  0  0  0  0  0  0  0  0  0  0  0
   -2.9509   -4.2756    0.9636 C   0  0  0  0  0  0  0  0  0  0  0  0
   -3.7603   -4.5207   -0.2792 C   0  0  0  0  0  0  0  0  0  0  0  0
   -4.0425   -3.2698   -1.0653 C   0  0  0  0  0  0  0  0  0  0  0  0
   -2.6851   -2.5981   -1.3479 C   0  0  0  0  0  0  0  0  0  0  0  0
   -1.3660    0.0779   -0.4015 C   0  0  0  0  0  0  0  0  0  0  0  0
   -2.5365    0.7623   -0.6455 C   0  0  0  0  0  0  0  0  0  0  0  0
   -2.6142    2.0972   -0.7436 C   0  0  0  0  0  0  0  0  0  0  0  0
   -1.4438    2.8350   -0.6664 C   0  0  0  0  0  0  0  0  0  0  0  0
   -0.2591    2.2099   -0.4797 C   0  0  0  0  0  0  0  0  0  0  0  0
   -0.2294    0.7962   -0.2854 C   0  0  0  0  0  0  0  0  0  0  0  0
   -1.5925    4.2102   -0.4430 C   0  0  0  0  0  0  0  0  0  0  0  0
   -1.9501    4.6390    0.9400 C   0  0  0  0  0  0  0  0  0  0  0  0
   -1.9757    6.0138    1.1090 C   0  0  0  0  0  0  0  0  0  0  0  0
   -1.7530    6.9598    0.1765 C   0  0  0  0  0  0  0  0  0  0  0  0
   -1.4771    8.2172    0.4260 F   0  0  0  0  0  0  0  0  0  0  0  0
   -1.4665    6.5124   -1.1583 C   0  0  0  0  0  0  0  0  0  0  0  0
   -1.4018    5.1822   -1.3063 C   0  0  0  0  0  0  0  0  0  0  0  0
   -1.2724    4.7076   -2.6983 F   0  0  0  0  0  0  0  0  0  0  0  0
    4.1050   -0.1986   -0.6341 C   0  0  1  0  0  0  0  0  0  0  0  0
    4.1939    1.2736   -0.8381 C   0  0  0  0  0  0  0  0  0  0  0  0
    5.2701   -0.6957   -0.0535 O   0  0  0  0  0  0  0  0  0  0  0  0
    5.8194   -1.9178    2.4018 H   0  0  0  0  0  0  0  0  0  0  0  0
    5.5410   -3.5377    1.6603 H   0  0  0  0  0  0  0  0  0  0  0  0
    6.8421   -2.4960    0.9711 H   0  0  0  0  0  0  0  0  0  0  0  0
    4.6278   -2.6651   -0.3263 H   0  0  0  0  0  0  0  0  0  0  0  0
    2.9023   -2.4286    1.3269 H   0  0  0  0  0  0  0  0  0  0  0  0
    3.8257   -0.9891    2.0658 H   0  0  0  0  0  0  0  0  0  0  0  0
    2.3186    1.3902    0.2908 H   0  0  0  0  0  0  0  0  0  0  0  0
    2.1425    0.3270    1.7693 H   0  0  0  0  0  0  0  0  0  0  0  0
    0.5789   -2.1226    0.8994 H   0  0  0  0  0  0  0  0  0  0  0  0
   -2.9789   -1.7700    0.5878 H   0  0  0  0  0  0  0  0  0  0  0  0
   -1.0754   -4.0587   -0.0412 H   0  0  0  0  0  0  0  0  0  0  0  0
   -1.1766   -3.3069    1.6376 H   0  0  0  0  0  0  0  0  0  0  0  0
   -2.7164   -5.2522    1.4115 H   0  0  0  0  0  0  0  0  0  0  0  0
   -3.5601   -3.6624    1.6565 H   0  0  0  0  0  0  0  0  0  0  0  0
   -3.2393   -5.2429   -0.9405 H   0  0  0  0  0  0  0  0  0  0  0  0
   -4.7404   -4.9298    0.0523 H   0  0  0  0  0  0  0  0  0  0  0  0
   -4.5953   -2.5605   -0.4222 H   0  0  0  0  0  0  0  0  0  0  0  0
   -4.5818   -3.5562   -1.9783 H   0  0  0  0  0  0  0  0  0  0  0  0
   -2.7938   -1.7521   -2.0420 H   0  0  0  0  0  0  0  0  0  0  0  0
   -2.0595   -3.4211   -1.7868 H   0  0  0  0  0  0  0  0  0  0  0  0
   -3.4409    0.1951   -0.8067 H   0  0  0  0  0  0  0  0  0  0  0  0
   -3.5658    2.6201   -0.8949 H   0  0  0  0  0  0  0  0  0  0  0  0
    0.7076    2.7184   -0.4430 H   0  0  0  0  0  0  0  0  0  0  0  0
   -2.1112    3.9519    1.6389 H   0  0  0  0  0  0  0  0  0  0  0  0
   -2.2375    6.3969    2.1820 H   0  0  0  0  0  0  0  0  0  0  0  0
   -1.5000    7.2017   -1.9196 H   0  0  0  0  0  0  0  0  0  0  0  0
    4.0522   -0.6609   -1.6460 H   0  0  0  0  0  0  0  0  0  0  0  0
    5.1488    1.4658   -1.4015 H   0  0  0  0  0  0  0  0  0  0  0  0
    3.3922    1.6258   -1.5272 H   0  0  0  0  0  0  0  0  0  0  0  0
    4.2765    1.8713    0.0820 H   0  0  0  0  0  0  0  0  0  0  0  0
  1  2  1  0
  2  3  1  0
  3  4  1  0
  4  5  1  0
  5  6  1  0
  6  7  2  0
  7  8  1  0
  8  9  1  0
  9 10  1  0
 10 11  1  0
 11 12  1  0
 12 13  1  0
 13 14  1  0
  8 15  1  0
 15 16  2  0
 16 17  1  0
 17 18  2  0
 18 19  1  0
 19 20  2  0
 18 21  1  0
 21 22  2  0
 22 23  1  0
 23 24  2  0
 24 25  1  0
 24 26  1  0
 26 27  2  0
 27 28  1  0
  4 29  1  0
 29 30  1  0
 29 31  1  0
 31  2  1  0
 20  6  1  0
 27 21  1  0
 14  9  1  0
 20 15  1  0
  1 32  1  0
  1 33  1  0
  1 34  1  0
  2 35  1  6
  3 36  1  0
  3 37  1  0
  5 38  1  0
  5 39  1  0
  7 40  1  0
  9 41  1  0
 10 42  1  0
 10 43  1  0
 11 44  1  0
 11 45  1  0
 12 46  1  0
 12 47  1  0
 13 48  1  0
 13 49  1  0
 14 50  1  0
 14 51  1  0
 16 52  1  0
 17 53  1  0
 19 54  1  0
 22 55  1  0
 23 56  1  0
 26 57  1  0
 29 58  1  6
 30 59  1  0
 30 60  1  0
 30 61  1  0
M  END
$$$$
[H]c1c([H])c(-c2nc(-c3c([H])c(C([H])([H])[H])nc(C([H])([H])[H])c3[H])c3n2C([H])([H])[C@@]([H])(C([H])([H])[H])OC([H])([H])C3([H])[H])c([H])c(Cl)c1OC(F)(F)F
     RDKit          3D

 52 55  0  0  0  0  0  0  0  0999 V2000
    0.2483    3.8554   -1.0410 C   0  0  0  0  0  0  0  0  0  0  0  0
    0.3446    3.6560    0.4561 C   0  0  2  0  0  0  0  0  0  0  0  0
    1.1032    2.3915    0.7799 C   0  0  0  0  0  0  0  0  0  0  0  0
    0.4821    1.1871    0.3728 N   0  0  0  0  0  0  0  0  0  0  0  0
   -0.8571    0.9697    0.1389 C   0  0  0  0  0  0  0  0  0  0  0  0
   -1.9395    1.9473    0.3335 C   0  0  0  0  0  0  0  0  0  0  0  0
   -1.5508    2.8060    1.5264 C   0  0  0  0  0  0  0  0  0  0  0  0
   -0.8408    3.8618    1.0335 O   0  0  0  0  0  0  0  0  0  0  0  0
   -1.0482   -0.3106   -0.2879 C   0  0  0  0  0  0  0  0  0  0  0  0
    0.1489   -0.8579   -0.3104 N   0  0  0  0  0  0  0  0  0  0  0  0
    1.0896    0.0402    0.0905 C   0  0  0  0  0  0  0  0  0  0  0  0
    2.4995   -0.3464    0.1222 C   0  0  0  0  0  0  0  0  0  0  0  0
    2.8594   -1.5152   -0.5542 C   0  0  0  0  0  0  0  0  0  0  0  0
    4.1529   -1.9767   -0.5396 C   0  0  0  0  0  0  0  0  0  0  0  0
    5.1511   -1.3171    0.1359 C   0  0  0  0  0  0  0  0  0  0  0  0
    6.4373   -1.8166    0.1228 O   0  0  0  0  0  0  0  0  0  0  0  0
    6.8389   -2.7338    1.1178 C   0  0  0  0  0  0  0  0  0  0  0  0
    8.1695   -3.0977    0.9053 F   0  0  0  0  0  0  0  0  0  0  0  0
    6.6803   -2.2569    2.3891 F   0  0  0  0  0  0  0  0  0  0  0  0
    6.0567   -3.8680    0.9863 F   0  0  0  0  0  0  0  0  0  0  0  0
    4.8080   -0.1711    0.8021 C   0  0  0  0  0  0  0  0  0  0  0  0
    6.0410    0.7289    1.6869 Cl  0  0  0  0  0  0  0  0  0  0  0  0
    3.4948    0.3043    0.7927 C   0  0  0  0  0  0  0  0  0  0  0  0
   -2.3526   -0.9157   -0.6412 C   0  0  0  0  0  0  0  0  0  0  0  0
   -3.2820   -0.2705   -1.4284 C   0  0  0  0  0  0  0  0  0  0  0  0
   -4.4937   -0.8091   -1.7683 C   0  0  0  0  0  0  0  0  0  0  0  0
   -5.4872   -0.0970   -2.6209 C   0  0  0  0  0  0  0  0  0  0  0  0
   -4.7776   -2.0386   -1.2991 N   0  0  0  0  0  0  0  0  0  0  0  0
   -3.9135   -2.7269   -0.5232 C   0  0  0  0  0  0  0  0  0  0  0  0
   -4.3373   -4.0723   -0.0666 C   0  0  0  0  0  0  0  0  0  0  0  0
   -2.6944   -2.1753   -0.1861 C   0  0  0  0  0  0  0  0  0  0  0  0
    1.1215    4.4106   -1.4449 H   0  0  0  0  0  0  0  0  0  0  0  0
   -0.6887    4.4110   -1.2424 H   0  0  0  0  0  0  0  0  0  0  0  0
    0.1435    2.8575   -1.5114 H   0  0  0  0  0  0  0  0  0  0  0  0
    1.0355    4.4928    0.7993 H   0  0  0  0  0  0  0  0  0  0  0  0
    1.4527    2.4433    1.8246 H   0  0  0  0  0  0  0  0  0  0  0  0
    2.0317    2.5020    0.1354 H   0  0  0  0  0  0  0  0  0  0  0  0
   -2.0381    2.5454   -0.5919 H   0  0  0  0  0  0  0  0  0  0  0  0
   -2.9183    1.4695    0.5532 H   0  0  0  0  0  0  0  0  0  0  0  0
   -2.5005    3.1188    2.0166 H   0  0  0  0  0  0  0  0  0  0  0  0
   -0.9525    2.1455    2.2050 H   0  0  0  0  0  0  0  0  0  0  0  0
    2.1056   -2.0751   -1.1086 H   0  0  0  0  0  0  0  0  0  0  0  0
    4.4031   -2.8875   -1.0741 H   0  0  0  0  0  0  0  0  0  0  0  0
    3.3208    1.1833    1.3624 H   0  0  0  0  0  0  0  0  0  0  0  0
   -3.0510    0.7180   -1.8042 H   0  0  0  0  0  0  0  0  0  0  0  0
   -6.3003   -0.7853   -2.8865 H   0  0  0  0  0  0  0  0  0  0  0  0
   -4.9921    0.2958   -3.5347 H   0  0  0  0  0  0  0  0  0  0  0  0
   -5.8203    0.7946   -2.0495 H   0  0  0  0  0  0  0  0  0  0  0  0
   -3.8459   -4.3799    0.8793 H   0  0  0  0  0  0  0  0  0  0  0  0
   -5.4342   -4.0689    0.0722 H   0  0  0  0  0  0  0  0  0  0  0  0
   -4.0680   -4.8156   -0.8514 H   0  0  0  0  0  0  0  0  0  0  0  0
   -2.0357   -2.7506    0.4305 H   0  0  0  0  0  0  0  0  0  0  0  0
  1  2  1  0
  2  3  1  0
  3  4  1  0
  4  5  1  0
  5  6  1  0
  6  7  1  0
  7  8  1  0
  5  9  2  0
  9 10  1  0
 10 11  2  0
 11 12  1  0
 12 13  2  0
 13 14  1  0
 14 15  2  0
 15 16  1  0
 16 17  1  0
 17 18  1  0
 17 19  1  0
 17 20  1  0
 15 21  1  0
 21 22  1  0
 21 23  2  0
  9 24  1  0
 24 25  2  0
 25 26  1  0
 26 27  1  0
 26 28  2  0
 28 29  1  0
 29 30  1  0
 29 31  2  0
  8  2  1  0
 23 12  1  0
 31 24  1  0
 11  4  1  0
  1 32  1  0
  1 33  1  0
  1 34  1  0
  2 35  1  1
  3 36  1  0
  3 37  1  0
  6 38  1  0
  6 39  1  0
  7 40  1  0
  7 41  1  0
 13 42  1  0
 14 43  1  0
 23 44  1  0
 25 45  1  0
 27 46  1  0
 27 47  1  0
 27 48  1  0
 30 49  1  0
 30 50  1  0
 30 51  1  0
 31 52  1  0
M  END
$$$$
[H]c1nc2c(nc(C(F)(F)F)n2C([H])([H])C([H])([H])[H])c(Cl)c1N([H])C(=O)C([H])([H])C1([H])C([H])([H])C([H])([H])OC([H])([H])C1([H])[H]
     RDKit          3D

 44 46  0  0  0  0  0  0  0  0999 V2000
    4.7026    1.5795   -2.0072 C   0  0  0  0  0  0  0  0  0  0  0  0
    5.0935    0.1958   -1.4758 C   0  0  0  0  0  0  0  0  0  0  0  0
    4.3379   -0.1401   -0.3182 N   0  0  0  0  0  0  0  0  0  0  0  0
    4.6388    0.0106    0.9526 C   0  0  0  0  0  0  0  0  0  0  0  0
    3.6230   -0.3784    1.7623 N   0  0  0  0  0  0  0  0  0  0  0  0
    2.6190   -0.7986    0.9578 C   0  0  0  0  0  0  0  0  0  0  0  0
    1.3490   -1.2092    1.2384 C   0  0  0  0  0  0  0  0  0  0  0  0
    0.7783   -1.3990    2.8639 Cl  0  0  0  0  0  0  0  0  0  0  0  0
    0.5078   -1.4756    0.1432 C   0  0  0  0  0  0  0  0  0  0  0  0
   -0.8619   -1.7396    0.4914 N   0  0  0  0  0  0  0  0  0  0  0  0
   -1.9276   -1.4889   -0.4177 C   0  0  0  0  0  0  0  0  0  0  0  0
   -1.7285   -1.0958   -1.5521 O   0  0  0  0  0  0  0  0  0  0  0  0
   -3.3010   -1.7078    0.1274 C   0  0  0  0  0  0  0  0  0  0  0  0
   -3.9292   -0.3533    0.1498 C   0  0  0  0  0  0  0  0  0  0  0  0
   -4.1439    0.3501   -1.1164 C   0  0  0  0  0  0  0  0  0  0  0  0
   -4.2719    1.8675   -0.7440 C   0  0  0  0  0  0  0  0  0  0  0  0
   -5.2174    2.0273    0.2292 O   0  0  0  0  0  0  0  0  0  0  0  0
   -4.9667    1.4029    1.4141 C   0  0  0  0  0  0  0  0  0  0  0  0
   -5.0301   -0.1139    1.1371 C   0  0  0  0  0  0  0  0  0  0  0  0
    0.9621   -1.3414   -1.1212 C   0  0  0  0  0  0  0  0  0  0  0  0
    2.2387   -0.9266   -1.3598 N   0  0  0  0  0  0  0  0  0  0  0  0
    3.0736   -0.6464   -0.3299 C   0  0  0  0  0  0  0  0  0  0  0  0
    5.8679    0.5427    1.5658 C   0  0  0  0  0  0  0  0  0  0  0  0
    5.4655    1.5798    2.4373 F   0  0  0  0  0  0  0  0  0  0  0  0
    6.7870    1.1046    0.7572 F   0  0  0  0  0  0  0  0  0  0  0  0
    6.4324   -0.4091    2.3761 F   0  0  0  0  0  0  0  0  0  0  0  0
    4.4292    1.5251   -3.0717 H   0  0  0  0  0  0  0  0  0  0  0  0
    5.4524    2.3538   -1.8666 H   0  0  0  0  0  0  0  0  0  0  0  0
    3.7491    1.8762   -1.4638 H   0  0  0  0  0  0  0  0  0  0  0  0
    6.1690    0.0338   -1.4420 H   0  0  0  0  0  0  0  0  0  0  0  0
    4.7491   -0.5264   -2.2792 H   0  0  0  0  0  0  0  0  0  0  0  0
   -1.0422   -2.1215    1.4469 H   0  0  0  0  0  0  0  0  0  0  0  0
   -3.8724   -2.4237   -0.5143 H   0  0  0  0  0  0  0  0  0  0  0  0
   -3.2951   -2.1282    1.1313 H   0  0  0  0  0  0  0  0  0  0  0  0
   -3.0509    0.2907    0.6758 H   0  0  0  0  0  0  0  0  0  0  0  0
   -3.3958    0.3165   -1.8901 H   0  0  0  0  0  0  0  0  0  0  0  0
   -5.1629    0.0527   -1.5601 H   0  0  0  0  0  0  0  0  0  0  0  0
   -4.5309    2.4482   -1.6438 H   0  0  0  0  0  0  0  0  0  0  0  0
   -3.2658    2.1423   -0.3774 H   0  0  0  0  0  0  0  0  0  0  0  0
   -3.9314    1.6312    1.7550 H   0  0  0  0  0  0  0  0  0  0  0  0
   -5.6665    1.7016    2.1906 H   0  0  0  0  0  0  0  0  0  0  0  0
   -4.7889   -0.6556    2.0700 H   0  0  0  0  0  0  0  0  0  0  0  0
   -6.0014   -0.3592    0.7017 H   0  0  0  0  0  0  0  0  0  0  0  0
    0.3568   -1.5944   -2.0235 H   0  0  0  0  0  0  0  0  0  0  0  0
  1  2  1  0
  2  3  1  0
  3  4  1  0
  4  5  2  0
  5  6  1  0
  6  7  2  0
  7  8  1  0
  7  9  1  0
  9 10  1  0
 10 11  1  0
 11 12  2  0
 11 13  1  0
 13 14  1  0
 14 15  1  0
 15 16  1  0
 16 17  1  0
 17 18  1  0
 18 19  1  0
  9 20  2  0
 20 21  1  0
 21 22  2  0
  4 23  1  0
 23 24  1  0
 23 25  1  0
 23 26  1  0
 22  3  1  0
 22  6  1  0
 19 14  1  0
  1 27  1  0
  1 28  1  0
  1 29  1  0
  2 30  1  0
  2 31  1  0
 10 32  1  0
 13 33  1  0
 13 34  1  0
 14 35  1  0
 15 36  1  0
 15 37  1  0
 16 38  1  0
 16 39  1  0
 18 40  1  0
 18 41  1  0
 19 42  1  0
 19 43  1  0
 20 44  1  0
M  END
$$$$
[H]c1c([H])c(-c2c([H])c(C(=O)N([H])[H])nc3c2C([H])([H])C([H])([H])[C@@]([H])(F)O3)c(F)c([H])c1Cl
     RDKit          3D

 33 35  0  0  0  0  0  0  0  0999 V2000
    4.3527   -2.4121    0.5306 N   0  0  0  0  0  0  0  0  0  0  0  0
    2.9580   -2.5336    0.6744 C   0  0  0  0  0  0  0  0  0  0  0  0
    2.4438   -3.6216    1.0719 O   0  0  0  0  0  0  0  0  0  0  0  0
    2.0804   -1.4023    0.3646 C   0  0  0  0  0  0  0  0  0  0  0  0
    0.7211   -1.4849    0.5013 C   0  0  0  0  0  0  0  0  0  0  0  0
   -0.0954   -0.3962    0.1933 C   0  0  0  0  0  0  0  0  0  0  0  0
    0.4530    0.7742   -0.2493 C   0  0  0  0  0  0  0  0  0  0  0  0
   -0.2902    1.9924   -0.5581 C   0  0  0  0  0  0  0  0  0  0  0  0
    0.4942    2.7460   -1.6449 C   0  0  0  0  0  0  0  0  0  0  0  0
    1.7993    3.1419   -0.9823 C   0  0  1  0  0  0  0  0  0  0  0  0
    1.5386    3.6354    0.2934 F   0  0  0  0  0  0  0  0  0  0  0  0
    2.5271    1.9469   -0.8168 O   0  0  0  0  0  0  0  0  0  0  0  0
    1.8439    0.8200   -0.3765 C   0  0  0  0  0  0  0  0  0  0  0  0
    2.5763   -0.2417   -0.0724 N   0  0  0  0  0  0  0  0  0  0  0  0
   -1.5474   -0.5923    0.3082 C   0  0  0  0  0  0  0  0  0  0  0  0
   -2.4142   -0.4371   -0.7356 C   0  0  0  0  0  0  0  0  0  0  0  0
   -3.7467   -0.6847   -0.5679 C   0  0  0  0  0  0  0  0  0  0  0  0
   -4.2197   -1.0914    0.6513 C   0  0  0  0  0  0  0  0  0  0  0  0
   -5.9468   -1.4013    0.8263 Cl  0  0  0  0  0  0  0  0  0  0  0  0
   -3.3928   -1.2647    1.7358 C   0  0  0  0  0  0  0  0  0  0  0  0
   -2.0519   -1.0036    1.5243 C   0  0  0  0  0  0  0  0  0  0  0  0
   -1.2355   -1.1776    2.6191 F   0  0  0  0  0  0  0  0  0  0  0  0
    4.8686   -1.6375    1.0196 H   0  0  0  0  0  0  0  0  0  0  0  0
    4.9014   -3.0797   -0.0572 H   0  0  0  0  0  0  0  0  0  0  0  0
    0.2717   -2.4025    0.8530 H   0  0  0  0  0  0  0  0  0  0  0  0
   -0.2796    2.6922    0.3340 H   0  0  0  0  0  0  0  0  0  0  0  0
   -1.2947    1.9142   -0.9372 H   0  0  0  0  0  0  0  0  0  0  0  0
   -0.0764    3.5893   -2.0355 H   0  0  0  0  0  0  0  0  0  0  0  0
    0.7302    1.9906   -2.4195 H   0  0  0  0  0  0  0  0  0  0  0  0
    2.3054    3.8970   -1.6120 H   0  0  0  0  0  0  0  0  0  0  0  0
   -2.0427   -0.1258   -1.7303 H   0  0  0  0  0  0  0  0  0  0  0  0
   -4.4393   -0.5597   -1.4084 H   0  0  0  0  0  0  0  0  0  0  0  0
   -3.7926   -1.5899    2.7027 H   0  0  0  0  0  0  0  0  0  0  0  0
  1  2  1  0
  2  3  2  0
  2  4  1  0
  4  5  2  0
  5  6  1  0
  6  7  2  0
  7  8  1  0
  8  9  1  0
  9 10  1  0
 10 11  1  0
 10 12  1  0
 12 13  1  0
 13 14  2  0
  6 15  1  0
 15 16  2  0
 16 17  1  0
 17 18  2  0
 18 19  1  0
 18 20  1  0
 20 21  2  0
 21 22  1  0
 14  4  1  0
 21 15  1  0
 13  7  1  0
  1 23  1  0
  1 24  1  0
  5 25  1  0
  8 26  1  0
  8 27  1  0
  9 28  1  0
  9 29  1  0
 10 30  1  6
 16 31  1  0
 17 32  1  0
 20 33  1  0
M  END
$$$$
[H]OC([H])([H])C([H])([H])c1nc(-c2c([H])c([H])c(F)c(C([H])([H])[H])c2[H])n2c1C([H])([H])C([H])([H])O[C@]([H])(C([H])([H])[H])C2([H])[H]
     RDKit          3D

 43 45  0  0  0  0  0  0  0  0999 V2000
   -1.6277    3.9300   -0.1983 C   0  0  0  0  0  0  0  0  0  0  0  0
   -1.8801    2.4414    0.1021 C   0  0  2  0  0  0  0  0  0  0  0  0
   -0.4837    1.9125    0.4830 C   0  0  0  0  0  0  0  0  0  0  0  0
   -0.4597    0.4617    0.4623 N   0  0  0  0  0  0  0  0  0  0  0  0
   -1.5660   -0.3427    0.4918 C   0  0  0  0  0  0  0  0  0  0  0  0
   -2.9578    0.0894    0.6177 C   0  0  0  0  0  0  0  0  0  0  0  0
   -3.4115    0.9512   -0.5343 C   0  0  0  0  0  0  0  0  0  0  0  0
   -2.4087    1.7968   -0.9839 O   0  0  0  0  0  0  0  0  0  0  0  0
   -1.1046   -1.6368    0.3974 C   0  0  0  0  0  0  0  0  0  0  0  0
   -1.9411   -2.8798    0.3793 C   0  0  0  0  0  0  0  0  0  0  0  0
   -2.5688   -3.0675   -0.9779 C   0  0  0  0  0  0  0  0  0  0  0  0
   -3.3548   -4.2049   -1.0413 O   0  0  0  0  0  0  0  0  0  0  0  0
    0.2151   -1.5566    0.3195 N   0  0  0  0  0  0  0  0  0  0  0  0
    0.6369   -0.2589    0.3599 C   0  0  0  0  0  0  0  0  0  0  0  0
    2.0648    0.0737    0.2535 C   0  0  0  0  0  0  0  0  0  0  0  0
    2.5537    1.2970    0.5892 C   0  0  0  0  0  0  0  0  0  0  0  0
    3.9255    1.5221    0.3873 C   0  0  0  0  0  0  0  0  0  0  0  0
    4.7414    0.5463   -0.1270 C   0  0  0  0  0  0  0  0  0  0  0  0
    6.0642    0.7949   -0.3098 F   0  0  0  0  0  0  0  0  0  0  0  0
    4.2650   -0.7004   -0.4720 C   0  0  0  0  0  0  0  0  0  0  0  0
    5.1762   -1.7314   -1.0282 C   0  0  0  0  0  0  0  0  0  0  0  0
    2.9275   -0.9094   -0.2721 C   0  0  0  0  0  0  0  0  0  0  0  0
   -1.1592    4.3434    0.7184 H   0  0  0  0  0  0  0  0  0  0  0  0
   -0.9051    4.0075   -1.0530 H   0  0  0  0  0  0  0  0  0  0  0  0
   -2.5603    4.4678   -0.3909 H   0  0  0  0  0  0  0  0  0  0  0  0
   -2.5246    2.4511    0.9978 H   0  0  0  0  0  0  0  0  0  0  0  0
   -0.3016    2.3562    1.4729 H   0  0  0  0  0  0  0  0  0  0  0  0
    0.1903    2.3255   -0.3193 H   0  0  0  0  0  0  0  0  0  0  0  0
   -3.1353    0.6392    1.5892 H   0  0  0  0  0  0  0  0  0  0  0  0
   -3.6767   -0.7555    0.6680 H   0  0  0  0  0  0  0  0  0  0  0  0
   -4.3279    1.4943   -0.2311 H   0  0  0  0  0  0  0  0  0  0  0  0
   -3.6303    0.2544   -1.3896 H   0  0  0  0  0  0  0  0  0  0  0  0
   -2.6849   -2.8649    1.1949 H   0  0  0  0  0  0  0  0  0  0  0  0
   -1.2767   -3.7530    0.5532 H   0  0  0  0  0  0  0  0  0  0  0  0
   -3.2259   -2.1971   -1.1691 H   0  0  0  0  0  0  0  0  0  0  0  0
   -1.7457   -3.0923   -1.7257 H   0  0  0  0  0  0  0  0  0  0  0  0
   -2.8653   -4.9549   -1.4537 H   0  0  0  0  0  0  0  0  0  0  0  0
    1.9773    2.1092    1.0317 H   0  0  0  0  0  0  0  0  0  0  0  0
    4.3007    2.5132    0.6625 H   0  0  0  0  0  0  0  0  0  0  0  0
    6.0296   -1.2093   -1.5040 H   0  0  0  0  0  0  0  0  0  0  0  0
    4.6117   -2.3636   -1.7427 H   0  0  0  0  0  0  0  0  0  0  0  0
    5.5693   -2.4062   -0.2382 H   0  0  0  0  0  0  0  0  0  0  0  0
    2.5346   -1.8934   -0.5416 H   0  0  0  0  0  0  0  0  0  0  0  0
  1  2  1  0
  2  3  1  0
  3  4  1  0
  4  5  1  0
  5  6  1  0
  6  7  1  0
  7  8  1  0
  5  9  2  0
  9 10  1  0
 10 11  1  0
 11 12  1  0
  9 13  1  0
 13 14  2  0
 14 15  1  0
 15 16  2  0
 16 17  1  0
 17 18  2  0
 18 19  1  0
 18 20  1  0
 20 21  1  0
 20 22  2  0
  8  2  1  0
 22 15  1  0
 14  4  1  0
  1 23  1  0
  1 24  1  0
  1 25  1  0
  2 26  1  1
  3 27  1  0
  3 28  1  0
  6 29  1  0
  6 30  1  0
  7 31  1  0
  7 32  1  0
 10 33  1  0
 10 34  1  0
 11 35  1  0
 11 36  1  0
 12 37  1  0
 16 38  1  0
 17 39  1  0
 21 40  1  0
 21 41  1  0
 21 42  1  0
 22 43  1  0
M  END
$$$$
[H]c1c([H])c(-c2nc(-c3c([H])c(C([H])([H])[H])nc(C([H])([H])[H])c3[H])c3n2C([H])([H])[C@]([H])(C([H])([H])F)OC([H])([H])C3([H])[H])c([H])c(OC2([H])C([H])([H])C2([H])[H])c1OC([H])(F)F
     RDKit          3D

 60 64  0  0  0  0  0  0  0  0999 V2000
    6.0670   -2.7803   -0.4562 C   0  0  0  0  0  0  0  0  0  0  0  0
    4.7616   -2.5839    0.1972 C   0  0  0  0  0  0  0  0  0  0  0  0
    3.9320   -1.5677   -0.2322 C   0  0  0  0  0  0  0  0  0  0  0  0
    2.7152   -1.3393    0.3344 C   0  0  0  0  0  0  0  0  0  0  0  0
    2.3846   -2.2205    1.3815 C   0  0  0  0  0  0  0  0  0  0  0  0
    3.2248   -3.2289    1.7964 C   0  0  0  0  0  0  0  0  0  0  0  0
    2.8593   -4.1564    2.9097 C   0  0  0  0  0  0  0  0  0  0  0  0
    4.4021   -3.4123    1.2131 N   0  0  0  0  0  0  0  0  0  0  0  0
    1.7759   -0.2899   -0.0408 C   0  0  0  0  0  0  0  0  0  0  0  0
    0.4773   -0.4853   -0.2502 N   0  0  0  0  0  0  0  0  0  0  0  0
   -0.1644    0.6894   -0.5706 C   0  0  0  0  0  0  0  0  0  0  0  0
   -1.6006    0.6882   -0.8229 C   0  0  0  0  0  0  0  0  0  0  0  0
   -2.2653    1.6829   -1.4826 C   0  0  0  0  0  0  0  0  0  0  0  0
   -3.6584    1.6884   -1.6664 C   0  0  0  0  0  0  0  0  0  0  0  0
   -4.3770    0.6478   -1.1618 C   0  0  0  0  0  0  0  0  0  0  0  0
   -5.7406    0.5201   -1.2653 O   0  0  0  0  0  0  0  0  0  0  0  0
   -6.5671    1.4158   -1.8870 C   0  0  0  0  0  0  0  0  0  0  0  0
   -7.2095    0.7992   -2.9784 F   0  0  0  0  0  0  0  0  0  0  0  0
   -7.5534    1.8925   -1.0058 F   0  0  0  0  0  0  0  0  0  0  0  0
   -3.7447   -0.4078   -0.4735 C   0  0  0  0  0  0  0  0  0  0  0  0
   -4.5136   -1.4361    0.0164 O   0  0  0  0  0  0  0  0  0  0  0  0
   -4.0288   -2.5337    0.7095 C   0  0  0  0  0  0  0  0  0  0  0  0
   -4.6389   -3.8999    0.3943 C   0  0  0  0  0  0  0  0  0  0  0  0
   -4.8723   -3.2133    1.7332 C   0  0  0  0  0  0  0  0  0  0  0  0
   -2.3929   -0.3535   -0.3282 C   0  0  0  0  0  0  0  0  0  0  0  0
    0.7651    1.6431   -0.5547 N   0  0  0  0  0  0  0  0  0  0  0  0
    0.4852    3.0252   -0.7671 C   0  0  0  0  0  0  0  0  0  0  0  0
    1.4648    3.9661   -0.0956 C   0  0  2  0  0  0  0  0  0  0  0  0
    0.9098    5.3686   -0.1675 C   0  0  0  0  0  0  0  0  0  0  0  0
    0.7616    5.6769   -1.5155 F   0  0  0  0  0  0  0  0  0  0  0  0
    2.6717    3.8367   -0.7636 O   0  0  0  0  0  0  0  0  0  0  0  0
    3.4624    3.0723    0.0980 C   0  0  0  0  0  0  0  0  0  0  0  0
    3.3058    1.6111   -0.1101 C   0  0  0  0  0  0  0  0  0  0  0  0
    1.9621    1.0738   -0.2378 C   0  0  0  0  0  0  0  0  0  0  0  0
    5.9526   -2.4681   -1.5290 H   0  0  0  0  0  0  0  0  0  0  0  0
    6.2843   -3.8715   -0.4992 H   0  0  0  0  0  0  0  0  0  0  0  0
    6.8927   -2.2443    0.0463 H   0  0  0  0  0  0  0  0  0  0  0  0
    4.2780   -0.9644   -1.0381 H   0  0  0  0  0  0  0  0  0  0  0  0
    1.4375   -2.1060    1.8820 H   0  0  0  0  0  0  0  0  0  0  0  0
    3.3640   -5.1227    2.8040 H   0  0  0  0  0  0  0  0  0  0  0  0
    1.7407   -4.2634    2.9134 H   0  0  0  0  0  0  0  0  0  0  0  0
    3.1555   -3.7204    3.8798 H   0  0  0  0  0  0  0  0  0  0  0  0
   -1.7814    2.5245   -1.9509 H   0  0  0  0  0  0  0  0  0  0  0  0
   -4.1255    2.5089   -2.1981 H   0  0  0  0  0  0  0  0  0  0  0  0
   -6.0370    2.2686   -2.3082 H   0  0  0  0  0  0  0  0  0  0  0  0
   -2.9272   -2.5792    0.8789 H   0  0  0  0  0  0  0  0  0  0  0  0
   -3.9738   -4.7792    0.4006 H   0  0  0  0  0  0  0  0  0  0  0  0
   -5.4930   -3.9392   -0.3170 H   0  0  0  0  0  0  0  0  0  0  0  0
   -5.8836   -2.8151    1.9491 H   0  0  0  0  0  0  0  0  0  0  0  0
   -4.3628   -3.6480    2.6063 H   0  0  0  0  0  0  0  0  0  0  0  0
   -1.8530   -1.1216    0.1856 H   0  0  0  0  0  0  0  0  0  0  0  0
   -0.5354    3.2412   -0.2903 H   0  0  0  0  0  0  0  0  0  0  0  0
    0.4011    3.3569   -1.8094 H   0  0  0  0  0  0  0  0  0  0  0  0
    1.4947    3.6876    0.9672 H   0  0  0  0  0  0  0  0  0  0  0  0
    1.5479    6.0872    0.3643 H   0  0  0  0  0  0  0  0  0  0  0  0
   -0.0975    5.4077    0.2882 H   0  0  0  0  0  0  0  0  0  0  0  0
    4.5010    3.3638   -0.0800 H   0  0  0  0  0  0  0  0  0  0  0  0
    3.2234    3.3423    1.1530 H   0  0  0  0  0  0  0  0  0  0  0  0
    3.8110    1.1247    0.7790 H   0  0  0  0  0  0  0  0  0  0  0  0
    3.9254    1.3403   -1.0275 H   0  0  0  0  0  0  0  0  0  0  0  0
  1  2  1  0
  2  3  2  0
  3  4  1  0
  4  5  2  0
  5  6  1  0
  6  7  1  0
  6  8  2  0
  4  9  1  0
  9 10  1  0
 10 11  2  0
 11 12  1  0
 12 13  2  0
 13 14  1  0
 14 15  2  0
 15 16  1  0
 16 17  1  0
 17 18  1  0
 17 19  1  0
 15 20  1  0
 20 21  1  0
 21 22  1  0
 22 23  1  0
 23 24  1  0
 20 25  2  0
 11 26  1  0
 26 27  1  0
 27 28  1  0
 28 29  1  0
 29 30  1  0
 28 31  1  0
 31 32  1  0
 32 33  1  0
 33 34  1  0
  8  2  1  0
 34  9  2  0
 25 12  1  0
 34 26  1  0
 24 22  1  0
  1 35  1  0
  1 36  1  0
  1 37  1  0
  3 38  1  0
  5 39  1  0
  7 40  1  0
  7 41  1  0
  7 42  1  0
 13 43  1  0
 14 44  1  0
 17 45  1  0
 22 46  1  0
 23 47  1  0
 23 48  1  0
 24 49  1  0
 24 50  1  0
 25 51  1  0
 27 52  1  0
 27 53  1  0
 28 54  1  1
 29 55  1  0
 29 56  1  0
 32 57  1  0
 32 58  1  0
 33 59  1  0
 33 60  1  0
M  END
$$$$
[H]c1nc(C#N)c([H])c([H])c1N1C([H])([H])c2c(nc(-c3c([H])c(C([H])([H])[H])nc(C([H])([H])[H])c3[H])n2C(C([H])([H])[H])(C([H])([H])[H])C([H])([H])[H])C([H])([H])C1([H])[H]
     RDKit          3D

 55 58  0  0  0  0  0  0  0  0999 V2000
    0.7582    1.3718    2.1026 C   0  0  0  0  0  0  0  0  0  0  0  0
   -0.4561    0.5720    1.6751 C   0  0  0  0  0  0  0  0  0  0  0  0
   -1.6016    1.5728    1.8674 C   0  0  0  0  0  0  0  0  0  0  0  0
   -0.5729   -0.4829    2.7511 C   0  0  0  0  0  0  0  0  0  0  0  0
   -0.4733    0.0930    0.3534 N   0  0  0  0  0  0  0  0  0  0  0  0
   -1.5283   -0.2371   -0.3804 C   0  0  0  0  0  0  0  0  0  0  0  0
   -1.0836   -0.5549   -1.6644 N   0  0  0  0  0  0  0  0  0  0  0  0
    0.2221   -0.4220   -1.6956 C   0  0  0  0  0  0  0  0  0  0  0  0
    1.2443   -0.6186   -2.7990 C   0  0  0  0  0  0  0  0  0  0  0  0
    2.3342   -1.4502   -2.0946 C   0  0  0  0  0  0  0  0  0  0  0  0
    2.9248   -0.6174   -1.1136 N   0  0  0  0  0  0  0  0  0  0  0  0
    2.0441    0.1597   -0.2355 C   0  0  0  0  0  0  0  0  0  0  0  0
    0.6306   -0.0208   -0.4477 C   0  0  0  0  0  0  0  0  0  0  0  0
    4.3350   -0.4711   -0.9022 C   0  0  0  0  0  0  0  0  0  0  0  0
    5.2556   -1.2397   -1.5827 C   0  0  0  0  0  0  0  0  0  0  0  0
    6.5976   -1.0274   -1.3196 C   0  0  0  0  0  0  0  0  0  0  0  0
    7.0500   -0.0927   -0.4180 C   0  0  0  0  0  0  0  0  0  0  0  0
    6.1392    0.6392    0.2283 N   0  0  0  0  0  0  0  0  0  0  0  0
    4.8350    0.4452   -0.0158 C   0  0  0  0  0  0  0  0  0  0  0  0
    8.4699    0.0894   -0.1796 C   0  0  0  0  0  0  0  0  0  0  0  0
    9.6001    0.2442    0.0161 N   0  0  0  0  0  0  0  0  0  0  0  0
   -2.9819   -0.3212   -0.2101 C   0  0  0  0  0  0  0  0  0  0  0  0
   -3.6634   -0.7117    0.8874 C   0  0  0  0  0  0  0  0  0  0  0  0
   -5.0324   -0.6822    0.9827 C   0  0  0  0  0  0  0  0  0  0  0  0
   -5.7427   -1.1290    2.2347 C   0  0  0  0  0  0  0  0  0  0  0  0
   -5.7443   -0.2477   -0.0585 N   0  0  0  0  0  0  0  0  0  0  0  0
   -5.1160    0.1544   -1.1840 C   0  0  0  0  0  0  0  0  0  0  0  0
   -5.9701    0.6259   -2.3059 C   0  0  0  0  0  0  0  0  0  0  0  0
   -3.7559    0.1334   -1.2984 C   0  0  0  0  0  0  0  0  0  0  0  0
    1.1491    2.0611    1.3526 H   0  0  0  0  0  0  0  0  0  0  0  0
    1.4777    0.7624    2.6669 H   0  0  0  0  0  0  0  0  0  0  0  0
    0.3639    2.0763    2.9107 H   0  0  0  0  0  0  0  0  0  0  0  0
   -2.3004    1.2921    2.6545 H   0  0  0  0  0  0  0  0  0  0  0  0
   -1.1828    2.5718    2.2657 H   0  0  0  0  0  0  0  0  0  0  0  0
   -2.0803    1.8756    0.9371 H   0  0  0  0  0  0  0  0  0  0  0  0
   -0.8231   -1.4486    2.2220 H   0  0  0  0  0  0  0  0  0  0  0  0
    0.3435   -0.6780    3.3057 H   0  0  0  0  0  0  0  0  0  0  0  0
   -1.3713   -0.2629    3.4800 H   0  0  0  0  0  0  0  0  0  0  0  0
    0.7729   -1.1675   -3.6142 H   0  0  0  0  0  0  0  0  0  0  0  0
    1.6188    0.3420   -3.1458 H   0  0  0  0  0  0  0  0  0  0  0  0
    1.7599   -2.2635   -1.5600 H   0  0  0  0  0  0  0  0  0  0  0  0
    2.9773   -1.9491   -2.8040 H   0  0  0  0  0  0  0  0  0  0  0  0
    2.3195    1.2191   -0.5046 H   0  0  0  0  0  0  0  0  0  0  0  0
    2.4525    0.0196    0.7801 H   0  0  0  0  0  0  0  0  0  0  0  0
    4.9249   -1.9728   -2.2875 H   0  0  0  0  0  0  0  0  0  0  0  0
    7.3167   -1.6324   -1.8555 H   0  0  0  0  0  0  0  0  0  0  0  0
    4.1468    1.0884    0.5539 H   0  0  0  0  0  0  0  0  0  0  0  0
   -3.1534   -1.1115    1.7655 H   0  0  0  0  0  0  0  0  0  0  0  0
   -5.1630   -1.9414    2.6845 H   0  0  0  0  0  0  0  0  0  0  0  0
   -5.6846   -0.2490    2.9211 H   0  0  0  0  0  0  0  0  0  0  0  0
   -6.7754   -1.4214    2.0085 H   0  0  0  0  0  0  0  0  0  0  0  0
   -5.4320    1.3983   -2.9065 H   0  0  0  0  0  0  0  0  0  0  0  0
   -6.2445   -0.2535   -2.9326 H   0  0  0  0  0  0  0  0  0  0  0  0
   -6.8543    1.1353   -1.8696 H   0  0  0  0  0  0  0  0  0  0  0  0
   -3.2763    0.4679   -2.2221 H   0  0  0  0  0  0  0  0  0  0  0  0
  1  2  1  0
  2  3  1  0
  2  4  1  0
  2  5  1  0
  5  6  1  0
  6  7  2  0
  7  8  1  0
  8  9  1  0
  9 10  1  0
 10 11  1  0
 11 12  1  0
 12 13  1  0
 11 14  1  0
 14 15  2  0
 15 16  1  0
 16 17  2  0
 17 18  1  0
 18 19  2  0
 17 20  1  0
 20 21  3  0
  6 22  1  0
 22 23  2  0
 23 24  1  0
 24 25  1  0
 24 26  2  0
 26 27  1  0
 27 28  1  0
 27 29  2  0
 13  5  1  0
 19 14  1  0
 29 22  1  0
 13  8  2  0
  1 30  1  0
  1 31  1  0
  1 32  1  0
  3 33  1  0
  3 34  1  0
  3 35  1  0
  4 36  1  0
  4 37  1  0
  4 38  1  0
  9 39  1  0
  9 40  1  0
 10 41  1  0
 10 42  1  0
 12 43  1  0
 12 44  1  0
 15 45  1  0
 16 46  1  0
 19 47  1  0
 23 48  1  0
 25 49  1  0
 25 50  1  0
 25 51  1  0
 28 52  1  0
 28 53  1  0
 28 54  1  0
 29 55  1  0
M  END
$$$$
[H]OC(=O)[C@@]1(F)[C@]2([H])C([H])([H])[C@@]([H])(OC([H])([H])c3c([H])c([H])c(Cl)c(Cl)c3[H])[C@](C(=O)O[H])(N([H])[H])[C@]12[H]
     RDKit          3D

 38 40  0  0  0  0  0  0  0  0999 V2000
   -2.0434   -0.3592   -1.5770 N   0  0  0  0  0  0  0  0  0  0  0  0
   -1.6382   -0.7176   -0.2308 C   0  0  2  0  0  0  0  0  0  0  0  0
   -2.4189    0.1661    0.7163 C   0  0  1  0  0  0  0  0  0  0  0  0
   -1.5135    1.2725    1.1410 C   0  0  1  0  0  0  0  0  0  0  0  0
   -0.2532    1.0810    0.3242 C   0  0  0  0  0  0  0  0  0  0  0  0
   -0.1811   -0.3750   -0.0286 C   0  0  1  0  0  0  0  0  0  0  0  0
    0.4893   -1.1656    0.8153 O   0  0  0  0  0  0  0  0  0  0  0  0
    1.5590   -1.8818    0.4381 C   0  0  0  0  0  0  0  0  0  0  0  0
    2.6382   -0.9743   -0.0424 C   0  0  0  0  0  0  0  0  0  0  0  0
    2.8896   -0.7513   -1.3747 C   0  0  0  0  0  0  0  0  0  0  0  0
    3.8938    0.0927   -1.7734 C   0  0  0  0  0  0  0  0  0  0  0  0
    4.6765    0.7386   -0.8426 C   0  0  0  0  0  0  0  0  0  0  0  0
    5.9680    1.8243   -1.3762 Cl  0  0  0  0  0  0  0  0  0  0  0  0
    4.4385    0.5269    0.4927 C   0  0  0  0  0  0  0  0  0  0  0  0
    5.4560    1.3672    1.6402 Cl  0  0  0  0  0  0  0  0  0  0  0  0
    3.4276   -0.3226    0.8795 C   0  0  0  0  0  0  0  0  0  0  0  0
   -2.7888    1.5377    0.3673 C   0  0  1  0  0  0  0  0  0  0  0  0
   -2.5669    2.0233   -0.9086 F   0  0  0  0  0  0  0  0  0  0  0  0
   -3.8417    2.1984    1.1499 C   0  0  0  0  0  0  0  0  0  0  0  0
   -4.5794    3.2575    0.6382 O   0  0  0  0  0  0  0  0  0  0  0  0
   -4.1087    1.8202    2.3190 O   0  0  0  0  0  0  0  0  0  0  0  0
   -1.9467   -2.1171    0.0367 C   0  0  0  0  0  0  0  0  0  0  0  0
   -2.5415   -2.8993   -0.9287 O   0  0  0  0  0  0  0  0  0  0  0  0
   -1.6684   -2.6108    1.1526 O   0  0  0  0  0  0  0  0  0  0  0  0
   -3.0845   -0.4166   -1.6553 H   0  0  0  0  0  0  0  0  0  0  0  0
   -1.6817   -1.0644   -2.2810 H   0  0  0  0  0  0  0  0  0  0  0  0
   -3.0056   -0.3547    1.5099 H   0  0  0  0  0  0  0  0  0  0  0  0
   -1.4345    1.5931    2.1871 H   0  0  0  0  0  0  0  0  0  0  0  0
    0.6395    1.4763    0.8099 H   0  0  0  0  0  0  0  0  0  0  0  0
   -0.4047    1.6710   -0.6146 H   0  0  0  0  0  0  0  0  0  0  0  0
    0.2867   -0.4338   -1.0332 H   0  0  0  0  0  0  0  0  0  0  0  0
    1.9312   -2.6292    1.1517 H   0  0  0  0  0  0  0  0  0  0  0  0
    1.2638   -2.4883   -0.4713 H   0  0  0  0  0  0  0  0  0  0  0  0
    2.2991   -1.2382   -2.1320 H   0  0  0  0  0  0  0  0  0  0  0  0
    4.1058    0.2802   -2.8373 H   0  0  0  0  0  0  0  0  0  0  0  0
    3.2823   -0.4544    1.9603 H   0  0  0  0  0  0  0  0  0  0  0  0
   -4.6452    4.1589    1.0965 H   0  0  0  0  0  0  0  0  0  0  0  0
   -2.8983   -3.8315   -0.7185 H   0  0  0  0  0  0  0  0  0  0  0  0
  1  2  1  0
  2  3  1  0
  3  4  1  0
  4  5  1  0
  5  6  1  0
  6  7  1  0
  7  8  1  0
  8  9  1  0
  9 10  2  0
 10 11  1  0
 11 12  2  0
 12 13  1  0
 12 14  1  0
 14 15  1  0
 14 16  2  0
  4 17  1  0
 17 18  1  6
 17 19  1  0
 19 20  1  0
 19 21  2  0
  2 22  1  1
 22 23  1  0
 22 24  2  0
  6  2  1  0
 16  9  1  0
 17  3  1  0
  1 25  1  0
  1 26  1  0
  3 27  1  1
  4 28  1  1
  5 29  1  0
  5 30  1  0
  6 31  1  6
  8 32  1  0
  8 33  1  0
 10 34  1  0
 11 35  1  0
 16 36  1  0
 20 37  1  0
 23 38  1  0
M  END
$$$$
