[H]c1nc(N([H])c2c([H])c([H])c(N3C([H])([H])C([H])([H])C([H])([H])[C@@]([H])(N4C([H])([H])C([H])([H])OC([H])([H])C4([H])[H])C3([H])[H])c([H])c2OC([H])([H])[H])nc(N([H])c2c([H])c([H])c([H])c([H])c2S(=O)(=O)C([H])(C([H])([H])[H])C([H])([H])[H])c1Cl
     RDKit          3D

 78 82  0  0  0  0  0  0  0  0999 V2000
   -3.7193   -2.7659    2.3862 C   0  0  0  0  0  0  0  0  0  0  0  0
   -2.3523   -2.8151    2.0359 O   0  0  0  0  0  0  0  0  0  0  0  0
   -1.8536   -1.8017    1.2202 C   0  0  0  0  0  0  0  0  0  0  0  0
   -2.6758   -0.7909    0.7776 C   0  0  0  0  0  0  0  0  0  0  0  0
   -2.2465    0.2376   -0.0301 C   0  0  0  0  0  0  0  0  0  0  0  0
   -0.9108    0.2101   -0.3877 C   0  0  0  0  0  0  0  0  0  0  0  0
   -0.0712   -0.8114    0.0575 C   0  0  0  0  0  0  0  0  0  0  0  0
   -0.5139   -1.8179    0.8542 C   0  0  0  0  0  0  0  0  0  0  0  0
    0.2687   -2.9077    1.2883 N   0  0  0  0  0  0  0  0  0  0  0  0
    1.6614   -3.0481    1.3029 C   0  0  0  0  0  0  0  0  0  0  0  0
    2.1395   -4.2653    1.7254 N   0  0  0  0  0  0  0  0  0  0  0  0
    3.4485   -4.5202    1.8265 C   0  0  0  0  0  0  0  0  0  0  0  0
    4.3508   -3.5576    1.5070 C   0  0  0  0  0  0  0  0  0  0  0  0
    6.0936   -3.8946    1.6441 Cl  0  0  0  0  0  0  0  0  0  0  0  0
    3.9190   -2.2980    1.0720 C   0  0  0  0  0  0  0  0  0  0  0  0
    4.9055   -1.3615    0.7392 N   0  0  0  0  0  0  0  0  0  0  0  0
    4.7843   -0.0113    0.3569 C   0  0  0  0  0  0  0  0  0  0  0  0
    3.6236    0.6931    0.4410 C   0  0  0  0  0  0  0  0  0  0  0  0
    3.5288    2.0416    0.0792 C   0  0  0  0  0  0  0  0  0  0  0  0
    4.6384    2.6954   -0.3795 C   0  0  0  0  0  0  0  0  0  0  0  0
    5.8191    2.0219   -0.4760 C   0  0  0  0  0  0  0  0  0  0  0  0
    5.8957    0.7000   -0.1169 C   0  0  0  0  0  0  0  0  0  0  0  0
    7.4428   -0.1430   -0.2423 S   0  0  0  0  0  0  0  0  0  0  0  0
    7.9505   -0.5472    1.1317 O   0  0  0  0  0  0  0  0  0  0  0  0
    7.3407   -1.2809   -1.1841 O   0  0  0  0  0  0  0  0  0  0  0  0
    8.6842    0.9949   -0.8564 C   0  0  0  0  0  0  0  0  0  0  0  0
    9.9715    0.1631   -1.0344 C   0  0  0  0  0  0  0  0  0  0  0  0
    8.9860    1.9844    0.2383 C   0  0  0  0  0  0  0  0  0  0  0  0
    2.5948   -2.1484    1.0056 N   0  0  0  0  0  0  0  0  0  0  0  0
   -3.0942    1.2761   -0.4753 N   0  0  0  0  0  0  0  0  0  0  0  0
   -2.7516    2.1335   -1.6204 C   0  0  0  0  0  0  0  0  0  0  0  0
   -4.0507    2.3637   -2.3761 C   0  0  0  0  0  0  0  0  0  0  0  0
   -4.9282    1.1356   -2.1377 C   0  0  0  0  0  0  0  0  0  0  0  0
   -5.5341    1.2969   -0.7498 C   0  0  2  0  0  0  0  0  0  0  0  0
   -4.3649    1.5682    0.1761 C   0  0  0  0  0  0  0  0  0  0  0  0
   -6.2569    0.1387   -0.3292 N   0  0  0  0  0  0  0  0  0  0  0  0
   -6.9253    0.3235    0.9176 C   0  0  0  0  0  0  0  0  0  0  0  0
   -8.2765    1.0063    0.7744 C   0  0  0  0  0  0  0  0  0  0  0  0
   -9.0573    0.3575   -0.1624 O   0  0  0  0  0  0  0  0  0  0  0  0
   -8.4448    0.3347   -1.4137 C   0  0  0  0  0  0  0  0  0  0  0  0
   -7.1424   -0.4255   -1.2957 C   0  0  0  0  0  0  0  0  0  0  0  0
   -4.0435   -3.6342    2.9789 H   0  0  0  0  0  0  0  0  0  0  0  0
   -3.9176   -1.8064    2.9461 H   0  0  0  0  0  0  0  0  0  0  0  0
   -4.3257   -2.7092    1.4624 H   0  0  0  0  0  0  0  0  0  0  0  0
   -3.7328   -0.7988    1.0808 H   0  0  0  0  0  0  0  0  0  0  0  0
   -0.5456    1.0040   -1.0208 H   0  0  0  0  0  0  0  0  0  0  0  0
    0.9444   -0.7687   -0.2786 H   0  0  0  0  0  0  0  0  0  0  0  0
   -0.2738   -3.7640    1.6605 H   0  0  0  0  0  0  0  0  0  0  0  0
    3.8261   -5.4909    2.1628 H   0  0  0  0  0  0  0  0  0  0  0  0
    5.9241   -1.7329    0.7727 H   0  0  0  0  0  0  0  0  0  0  0  0
    2.7192    0.2639    0.8128 H   0  0  0  0  0  0  0  0  0  0  0  0
    2.6024    2.5832    0.1521 H   0  0  0  0  0  0  0  0  0  0  0  0
    4.5948    3.7618   -0.6733 H   0  0  0  0  0  0  0  0  0  0  0  0
    6.7070    2.5613   -0.8584 H   0  0  0  0  0  0  0  0  0  0  0  0
    8.3909    1.4380   -1.8133 H   0  0  0  0  0  0  0  0  0  0  0  0
    9.7247   -0.9136   -1.1620 H   0  0  0  0  0  0  0  0  0  0  0  0
   10.6139    0.2322   -0.1383 H   0  0  0  0  0  0  0  0  0  0  0  0
   10.5121    0.5271   -1.9213 H   0  0  0  0  0  0  0  0  0  0  0  0
    9.1755    3.0079   -0.1398 H   0  0  0  0  0  0  0  0  0  0  0  0
    9.9137    1.7154    0.8172 H   0  0  0  0  0  0  0  0  0  0  0  0
    8.1927    2.0404    1.0139 H   0  0  0  0  0  0  0  0  0  0  0  0
   -2.0289    1.6109   -2.2840 H   0  0  0  0  0  0  0  0  0  0  0  0
   -2.3372    3.1073   -1.3064 H   0  0  0  0  0  0  0  0  0  0  0  0
   -3.8861    2.5083   -3.4683 H   0  0  0  0  0  0  0  0  0  0  0  0
   -4.5803    3.2224   -1.9159 H   0  0  0  0  0  0  0  0  0  0  0  0
   -5.6899    1.1494   -2.9313 H   0  0  0  0  0  0  0  0  0  0  0  0
   -4.3150    0.2098   -2.1772 H   0  0  0  0  0  0  0  0  0  0  0  0
   -6.2430    2.1528   -0.7984 H   0  0  0  0  0  0  0  0  0  0  0  0
   -4.4277    1.0952    1.1489 H   0  0  0  0  0  0  0  0  0  0  0  0
   -4.3683    2.6824    0.3624 H   0  0  0  0  0  0  0  0  0  0  0  0
   -7.1572   -0.7065    1.3163 H   0  0  0  0  0  0  0  0  0  0  0  0
   -6.3688    0.8755    1.6850 H   0  0  0  0  0  0  0  0  0  0  0  0
   -8.1821    2.0978    0.5904 H   0  0  0  0  0  0  0  0  0  0  0  0
   -8.7629    0.9085    1.7658 H   0  0  0  0  0  0  0  0  0  0  0  0
   -9.0887   -0.2113   -2.1014 H   0  0  0  0  0  0  0  0  0  0  0  0
   -8.3036    1.3644   -1.7513 H   0  0  0  0  0  0  0  0  0  0  0  0
   -6.7076   -0.6042   -2.2815 H   0  0  0  0  0  0  0  0  0  0  0  0
   -7.4323   -1.4442   -0.9023 H   0  0  0  0  0  0  0  0  0  0  0  0
  1  2  1  0
  2  3  1  0
  3  4  2  0
  4  5  1  0
  5  6  2  0
  6  7  1  0
  7  8  2  0
  8  9  1  0
  9 10  1  0
 10 11  2  0
 11 12  1  0
 12 13  2  0
 13 14  1  0
 13 15  1  0
 15 16  1  0
 16 17  1  0
 17 18  2  0
 18 19  1  0
 19 20  2  0
 20 21  1  0
 21 22  2  0
 22 23  1  0
 23 24  2  0
 23 25  2  0
 23 26  1  0
 26 27  1  0
 26 28  1  0
 15 29  2  0
  5 30  1  0
 30 31  1  0
 31 32  1  0
 32 33  1  0
 33 34  1  0
 34 35  1  0
 34 36  1  0
 36 37  1  0
 37 38  1  0
 38 39  1  0
 39 40  1  0
 40 41  1  0
  8  3  1  0
 29 10  1  0
 35 30  1  0
 41 36  1  0
 22 17  1  0
  1 42  1  0
  1 43  1  0
  1 44  1  0
  4 45  1  0
  6 46  1  0
  7 47  1  0
  9 48  1  0
 12 49  1  0
 16 50  1  0
 18 51  1  0
 19 52  1  0
 20 53  1  0
 21 54  1  0
 26 55  1  0
 27 56  1  0
 27 57  1  0
 27 58  1  0
 28 59  1  0
 28 60  1  0
 28 61  1  0
 31 62  1  0
 31 63  1  0
 32 64  1  0
 32 65  1  0
 33 66  1  0
 33 67  1  0
 34 68  1  6
 35 69  1  0
 35 70  1  0
 37 71  1  0
 37 72  1  0
 38 73  1  0
 38 74  1  0
 40 75  1  0
 40 76  1  0
 41 77  1  0
 41 78  1  0
M  END
$$$$
[H]N=C(N([H])[H])N([H])C([H])([H])C([H])([H])C([H])([H])[C@@]([H])(C(=O)N1C([H])([H])C([H])([H])OC([H])([H])C1([H])[H])N([H])C(=O)[C@@]([H])(N([H])C(=O)[C@@]1([H])N(C(=O)[C@@]([H])(N([H])C(=O)[C@@]([H])(N([H])[H])C([H])([H])c2c([H])c([H])c([H])c([H])c2[H])C([H])([H])c2c([H])c([H])c([H])c([H])c2[H])C([H])([H])C([H])([H])C1([H])[H])C([H])([H])[H]
     RDKit          3D

102105  0  0  0  0  0  0  0  0999 V2000
   -1.2175   -0.7516   -1.2898 C   0  0  0  0  0  0  0  0  0  0  0  0
   -1.5240    0.1934   -0.1111 C   0  0  2  0  0  0  0  0  0  0  0  0
   -0.6702   -0.0986    0.9959 N   0  0  0  0  0  0  0  0  0  0  0  0
    0.4376    0.7560    1.3395 C   0  0  0  0  0  0  0  0  0  0  0  0
    0.6146    1.7624    0.6387 O   0  0  0  0  0  0  0  0  0  0  0  0
    1.3211    0.4398    2.4700 C   0  0  2  0  0  0  0  0  0  0  0  0
    0.7474    0.8464    3.7982 C   0  0  0  0  0  0  0  0  0  0  0  0
    1.1449    2.2699    3.9567 C   0  0  0  0  0  0  0  0  0  0  0  0
    2.4049    2.4092    3.0861 C   0  0  0  0  0  0  0  0  0  0  0  0
    2.5473    1.1891    2.3867 N   0  0  0  0  0  0  0  0  0  0  0  0
    3.6730    0.6966    1.6784 C   0  0  0  0  0  0  0  0  0  0  0  0
    3.5576   -0.3983    0.9996 O   0  0  0  0  0  0  0  0  0  0  0  0
    4.9842    1.3541    1.6796 C   0  0  2  0  0  0  0  0  0  0  0  0
    5.1076    2.7401    1.2165 C   0  0  0  0  0  0  0  0  0  0  0  0
    4.7523    3.0520   -0.1708 C   0  0  0  0  0  0  0  0  0  0  0  0
    3.5177    3.4608   -0.5900 C   0  0  0  0  0  0  0  0  0  0  0  0
    3.2427    3.7627   -1.9328 C   0  0  0  0  0  0  0  0  0  0  0  0
    4.2297    3.6538   -2.8826 C   0  0  0  0  0  0  0  0  0  0  0  0
    5.4779    3.2463   -2.4885 C   0  0  0  0  0  0  0  0  0  0  0  0
    5.7212    2.9574   -1.1742 C   0  0  0  0  0  0  0  0  0  0  0  0
    5.9269    0.4810    0.9189 N   0  0  0  0  0  0  0  0  0  0  0  0
    6.7797   -0.3792    1.6226 C   0  0  0  0  0  0  0  0  0  0  0  0
    6.8021   -0.4678    2.8795 O   0  0  0  0  0  0  0  0  0  0  0  0
    7.7198   -1.2457    0.8336 C   0  0  1  0  0  0  0  0  0  0  0  0
    8.4516   -2.1522    1.7011 N   0  0  0  0  0  0  0  0  0  0  0  0
    6.8958   -1.9982   -0.1781 C   0  0  0  0  0  0  0  0  0  0  0  0
    7.7642   -2.8687   -0.9916 C   0  0  0  0  0  0  0  0  0  0  0  0
    8.0152   -4.1542   -0.6251 C   0  0  0  0  0  0  0  0  0  0  0  0
    8.8239   -4.9590   -1.3951 C   0  0  0  0  0  0  0  0  0  0  0  0
    9.3893   -4.4678   -2.5491 C   0  0  0  0  0  0  0  0  0  0  0  0
    9.1324   -3.1631   -2.9173 C   0  0  0  0  0  0  0  0  0  0  0  0
    8.3204   -2.3607   -2.1413 C   0  0  0  0  0  0  0  0  0  0  0  0
   -2.9561    0.0583    0.2503 C   0  0  0  0  0  0  0  0  0  0  0  0
   -3.2708   -0.2407    1.4339 O   0  0  0  0  0  0  0  0  0  0  0  0
   -3.9385    0.2602   -0.7273 N   0  0  0  0  0  0  0  0  0  0  0  0
   -5.3581    0.1087   -0.3620 C   0  0  1  0  0  0  0  0  0  0  0  0
   -6.0481    1.3726   -0.7879 C   0  0  0  0  0  0  0  0  0  0  0  0
   -7.5080    1.3858   -0.4918 C   0  0  0  0  0  0  0  0  0  0  0  0
   -8.0892    2.7307   -0.9686 C   0  0  0  0  0  0  0  0  0  0  0  0
   -7.8726    2.8670   -2.3948 N   0  0  0  0  0  0  0  0  0  0  0  0
   -8.6014    1.9729   -3.2378 C   0  0  0  0  0  0  0  0  0  0  0  0
   -7.9439    1.4663   -4.3965 N   0  0  0  0  0  0  0  0  0  0  0  0
   -9.8048    1.6007   -3.0155 N   0  0  0  0  0  0  0  0  0  0  0  0
   -5.8817   -1.1015   -1.0580 C   0  0  0  0  0  0  0  0  0  0  0  0
   -5.3505   -1.3138   -2.2048 O   0  0  0  0  0  0  0  0  0  0  0  0
   -6.8634   -1.9773   -0.5621 N   0  0  0  0  0  0  0  0  0  0  0  0
   -7.2570   -3.0943   -1.4057 C   0  0  0  0  0  0  0  0  0  0  0  0
   -7.8885   -4.2208   -0.6724 C   0  0  0  0  0  0  0  0  0  0  0  0
   -8.4022   -3.9352    0.5664 O   0  0  0  0  0  0  0  0  0  0  0  0
   -7.4703   -3.2254    1.3509 C   0  0  0  0  0  0  0  0  0  0  0  0
   -7.4641   -1.8159    0.7414 C   0  0  0  0  0  0  0  0  0  0  0  0
   -0.2382   -0.4990   -1.7419 H   0  0  0  0  0  0  0  0  0  0  0  0
   -1.2102   -1.7936   -0.9602 H   0  0  0  0  0  0  0  0  0  0  0  0
   -1.9722   -0.5552   -2.0777 H   0  0  0  0  0  0  0  0  0  0  0  0
   -1.3609    1.2009   -0.5326 H   0  0  0  0  0  0  0  0  0  0  0  0
   -0.8198   -0.9371    1.5927 H   0  0  0  0  0  0  0  0  0  0  0  0
    1.5505   -0.6774    2.4753 H   0  0  0  0  0  0  0  0  0  0  0  0
    1.2349    0.2390    4.5910 H   0  0  0  0  0  0  0  0  0  0  0  0
   -0.3449    0.6728    3.8664 H   0  0  0  0  0  0  0  0  0  0  0  0
    0.4214    3.0254    3.6655 H   0  0  0  0  0  0  0  0  0  0  0  0
    1.4320    2.4921    5.0271 H   0  0  0  0  0  0  0  0  0  0  0  0
    3.2732    2.6742    3.7356 H   0  0  0  0  0  0  0  0  0  0  0  0
    2.2532    3.3048    2.4290 H   0  0  0  0  0  0  0  0  0  0  0  0
    5.3227    1.3112    2.7647 H   0  0  0  0  0  0  0  0  0  0  0  0
    6.1987    3.0588    1.4091 H   0  0  0  0  0  0  0  0  0  0  0  0
    4.5692    3.4266    1.9365 H   0  0  0  0  0  0  0  0  0  0  0  0
    2.7406    3.5622    0.1318 H   0  0  0  0  0  0  0  0  0  0  0  0
    2.2391    4.0786   -2.1754 H   0  0  0  0  0  0  0  0  0  0  0  0
    4.0048    3.8926   -3.9327 H   0  0  0  0  0  0  0  0  0  0  0  0
    6.2442    3.1633   -3.2326 H   0  0  0  0  0  0  0  0  0  0  0  0
    6.7088    2.6376   -0.8508 H   0  0  0  0  0  0  0  0  0  0  0  0
    5.9166    0.5402   -0.1031 H   0  0  0  0  0  0  0  0  0  0  0  0
    8.4623   -0.6328    0.2862 H   0  0  0  0  0  0  0  0  0  0  0  0
    8.7122   -1.6226    2.5576 H   0  0  0  0  0  0  0  0  0  0  0  0
    7.8316   -2.9368    2.0348 H   0  0  0  0  0  0  0  0  0  0  0  0
    6.1017   -2.6113    0.3272 H   0  0  0  0  0  0  0  0  0  0  0  0
    6.4112   -1.2477   -0.8430 H   0  0  0  0  0  0  0  0  0  0  0  0
    7.5728   -4.5441    0.2791 H   0  0  0  0  0  0  0  0  0  0  0  0
    9.0318   -5.9897   -1.1131 H   0  0  0  0  0  0  0  0  0  0  0  0
   10.0406   -5.0602   -3.2005 H   0  0  0  0  0  0  0  0  0  0  0  0
    9.5509   -2.7361   -3.8071 H   0  0  0  0  0  0  0  0  0  0  0  0
    8.1271   -1.3368   -2.4437 H   0  0  0  0  0  0  0  0  0  0  0  0
   -3.6967    0.5116   -1.6912 H   0  0  0  0  0  0  0  0  0  0  0  0
   -5.4209    0.0008    0.7235 H   0  0  0  0  0  0  0  0  0  0  0  0
   -5.9157    1.5661   -1.8819 H   0  0  0  0  0  0  0  0  0  0  0  0
   -5.5515    2.2015   -0.2175 H   0  0  0  0  0  0  0  0  0  0  0  0
   -8.0675    0.6124   -1.0769 H   0  0  0  0  0  0  0  0  0  0  0  0
   -7.7273    1.2846    0.5819 H   0  0  0  0  0  0  0  0  0  0  0  0
   -7.5706    3.5305   -0.4072 H   0  0  0  0  0  0  0  0  0  0  0  0
   -9.1689    2.7708   -0.7021 H   0  0  0  0  0  0  0  0  0  0  0  0
   -7.2309    3.5676   -2.7882 H   0  0  0  0  0  0  0  0  0  0  0  0
   -7.9787    2.1021   -5.2379 H   0  0  0  0  0  0  0  0  0  0  0  0
   -7.4710    0.5355   -4.3946 H   0  0  0  0  0  0  0  0  0  0  0  0
  -10.3847    1.8961   -2.2138 H   0  0  0  0  0  0  0  0  0  0  0  0
   -6.3691   -3.4324   -1.9915 H   0  0  0  0  0  0  0  0  0  0  0  0
   -7.9683   -2.7004   -2.1572 H   0  0  0  0  0  0  0  0  0  0  0  0
   -8.7090   -4.7136   -1.2696 H   0  0  0  0  0  0  0  0  0  0  0  0
   -7.1251   -5.0201   -0.5434 H   0  0  0  0  0  0  0  0  0  0  0  0
   -6.4563   -3.6760    1.1953 H   0  0  0  0  0  0  0  0  0  0  0  0
   -7.7790   -3.1673    2.3932 H   0  0  0  0  0  0  0  0  0  0  0  0
   -6.9889   -1.0959    1.3958 H   0  0  0  0  0  0  0  0  0  0  0  0
   -8.5481   -1.5783    0.5445 H   0  0  0  0  0  0  0  0  0  0  0  0
  1  2  1  0
  2  3  1  0
  3  4  1  0
  4  5  2  0
  4  6  1  0
  6  7  1  0
  7  8  1  0
  8  9  1  0
  9 10  1  0
 10 11  1  0
 11 12  2  0
 11 13  1  0
 13 14  1  0
 14 15  1  0
 15 16  2  0
 16 17  1  0
 17 18  2  0
 18 19  1  0
 19 20  2  0
 13 21  1  0
 21 22  1  0
 22 23  2  0
 22 24  1  0
 24 25  1  0
 24 26  1  0
 26 27  1  0
 27 28  2  0
 28 29  1  0
 29 30  2  0
 30 31  1  0
 31 32  2  0
  2 33  1  0
 33 34  2  0
 33 35  1  0
 35 36  1  0
 36 37  1  0
 37 38  1  0
 38 39  1  0
 39 40  1  0
 40 41  1  0
 41 42  1  0
 41 43  2  3
 36 44  1  0
 44 45  2  0
 44 46  1  0
 46 47  1  0
 47 48  1  0
 48 49  1  0
 49 50  1  0
 50 51  1  0
 10  6  1  0
 20 15  1  0
 32 27  1  0
 51 46  1  0
  1 52  1  0
  1 53  1  0
  1 54  1  0
  2 55  1  6
  3 56  1  0
  6 57  1  1
  7 58  1  0
  7 59  1  0
  8 60  1  0
  8 61  1  0
  9 62  1  0
  9 63  1  0
 13 64  1  1
 14 65  1  0
 14 66  1  0
 16 67  1  0
 17 68  1  0
 18 69  1  0
 19 70  1  0
 20 71  1  0
 21 72  1  0
 24 73  1  6
 25 74  1  0
 25 75  1  0
 26 76  1  0
 26 77  1  0
 28 78  1  0
 29 79  1  0
 30 80  1  0
 31 81  1  0
 32 82  1  0
 35 83  1  0
 36 84  1  1
 37 85  1  0
 37 86  1  0
 38 87  1  0
 38 88  1  0
 39 89  1  0
 39 90  1  0
 40 91  1  0
 42 92  1  0
 42 93  1  0
 43 94  1  0
 47 95  1  0
 47 96  1  0
 48 97  1  0
 48 98  1  0
 50 99  1  0
 50100  1  0
 51101  1  0
 51102  1  0
M  END
$$$$
[H]c1c([H])c(Oc2c([H])c([H])c(C#N)c([H])c2[H])c(N2C([H])([H])C([H])([H])N(c3c([H])c([H])c(C#N)c([H])c3[H])[C@@]([H])(C([H])([H])[H])C2([H])[H])c([H])c1F
     RDKit          3D

 52 55  0  0  0  0  0  0  0  0999 V2000
    2.4432   -1.4991   -2.2161 C   0  0  0  0  0  0  0  0  0  0  0  0
    1.8787   -0.3691   -1.4341 C   0  0  1  0  0  0  0  0  0  0  0  0
    0.3604   -0.3690   -1.3995 C   0  0  0  0  0  0  0  0  0  0  0  0
   -0.1278   -1.3669   -0.5039 N   0  0  0  0  0  0  0  0  0  0  0  0
    0.7964   -1.9271    0.4637 C   0  0  0  0  0  0  0  0  0  0  0  0
    1.6866   -0.8340    1.0298 C   0  0  0  0  0  0  0  0  0  0  0  0
    2.4289   -0.2833   -0.0870 N   0  0  0  0  0  0  0  0  0  0  0  0
    3.6857    0.3198    0.1930 C   0  0  0  0  0  0  0  0  0  0  0  0
    4.5113    0.7052   -0.8497 C   0  0  0  0  0  0  0  0  0  0  0  0
    5.7261    1.2957   -0.6096 C   0  0  0  0  0  0  0  0  0  0  0  0
    6.1748    1.5294    0.6678 C   0  0  0  0  0  0  0  0  0  0  0  0
    5.3449    1.1418    1.6999 C   0  0  0  0  0  0  0  0  0  0  0  0
    4.1080    0.5409    1.4763 C   0  0  0  0  0  0  0  0  0  0  0  0
    7.4547    2.1511    0.8878 C   0  0  0  0  0  0  0  0  0  0  0  0
    8.4856    2.6433    1.0605 N   0  0  0  0  0  0  0  0  0  0  0  0
   -1.4446   -1.8352   -0.5063 C   0  0  0  0  0  0  0  0  0  0  0  0
   -1.7491   -3.1792   -0.7365 C   0  0  0  0  0  0  0  0  0  0  0  0
   -3.0546   -3.6257   -0.7361 C   0  0  0  0  0  0  0  0  0  0  0  0
   -3.2777   -4.9405   -0.9661 F   0  0  0  0  0  0  0  0  0  0  0  0
   -4.1028   -2.7606   -0.5085 C   0  0  0  0  0  0  0  0  0  0  0  0
   -3.8083   -1.4338   -0.2809 C   0  0  0  0  0  0  0  0  0  0  0  0
   -2.4924   -0.9689   -0.2785 C   0  0  0  0  0  0  0  0  0  0  0  0
   -2.1799    0.3642   -0.0508 O   0  0  0  0  0  0  0  0  0  0  0  0
   -3.2347    1.2369    0.1786 C   0  0  0  0  0  0  0  0  0  0  0  0
   -3.8661    1.9134   -0.8552 C   0  0  0  0  0  0  0  0  0  0  0  0
   -4.9115    2.7769   -0.6167 C   0  0  0  0  0  0  0  0  0  0  0  0
   -5.3766    3.0058    0.6692 C   0  0  0  0  0  0  0  0  0  0  0  0
   -4.7483    2.3335    1.6907 C   0  0  0  0  0  0  0  0  0  0  0  0
   -3.7031    1.4702    1.4524 C   0  0  0  0  0  0  0  0  0  0  0  0
   -6.4739    3.9162    0.8886 C   0  0  0  0  0  0  0  0  0  0  0  0
   -7.3726    4.6390    1.0565 N   0  0  0  0  0  0  0  0  0  0  0  0
    3.1017   -2.1719   -1.6339 H   0  0  0  0  0  0  0  0  0  0  0  0
    2.9340   -1.1388   -3.1158 H   0  0  0  0  0  0  0  0  0  0  0  0
    1.5917   -2.1531   -2.5610 H   0  0  0  0  0  0  0  0  0  0  0  0
    2.1512    0.5832   -1.9398 H   0  0  0  0  0  0  0  0  0  0  0  0
    0.0808    0.6437   -0.9850 H   0  0  0  0  0  0  0  0  0  0  0  0
   -0.0063   -0.4332   -2.4235 H   0  0  0  0  0  0  0  0  0  0  0  0
    1.4230   -2.7230    0.0657 H   0  0  0  0  0  0  0  0  0  0  0  0
    0.2393   -2.3701    1.3392 H   0  0  0  0  0  0  0  0  0  0  0  0
    1.1389   -0.0667    1.5773 H   0  0  0  0  0  0  0  0  0  0  0  0
    2.3915   -1.3226    1.7395 H   0  0  0  0  0  0  0  0  0  0  0  0
    4.1634    0.5209   -1.8732 H   0  0  0  0  0  0  0  0  0  0  0  0
    6.3562    1.5891   -1.4616 H   0  0  0  0  0  0  0  0  0  0  0  0
    5.7007    1.3269    2.7021 H   0  0  0  0  0  0  0  0  0  0  0  0
    3.4936    0.2578    2.3331 H   0  0  0  0  0  0  0  0  0  0  0  0
   -0.9114   -3.8520   -0.9149 H   0  0  0  0  0  0  0  0  0  0  0  0
   -5.1410   -3.0897   -0.5034 H   0  0  0  0  0  0  0  0  0  0  0  0
   -4.6064   -0.7132   -0.0962 H   0  0  0  0  0  0  0  0  0  0  0  0
   -3.5133    1.7439   -1.8622 H   0  0  0  0  0  0  0  0  0  0  0  0
   -5.4074    3.3089   -1.4338 H   0  0  0  0  0  0  0  0  0  0  0  0
   -5.1206    2.5188    2.7043 H   0  0  0  0  0  0  0  0  0  0  0  0
   -3.2208    0.9499    2.2687 H   0  0  0  0  0  0  0  0  0  0  0  0
  1  2  1  0
  2  3  1  0
  3  4  1  0
  4  5  1  0
  5  6  1  0
  6  7  1  0
  7  8  1  0
  8  9  2  0
  9 10  1  0
 10 11  2  0
 11 12  1  0
 12 13  2  0
 11 14  1  0
 14 15  3  0
  4 16  1  0
 16 17  2  0
 17 18  1  0
 18 19  1  0
 18 20  2  0
 20 21  1  0
 21 22  2  0
 22 23  1  0
 23 24  1  0
 24 25  2  0
 25 26  1  0
 26 27  2  0
 27 28  1  0
 28 29  2  0
 27 30  1  0
 30 31  3  0
  7  2  1  0
 13  8  1  0
 22 16  1  0
 29 24  1  0
  1 32  1  0
  1 33  1  0
  1 34  1  0
  2 35  1  6
  3 36  1  0
  3 37  1  0
  5 38  1  0
  5 39  1  0
  6 40  1  0
  6 41  1  0
  9 42  1  0
 10 43  1  0
 12 44  1  0
 13 45  1  0
 17 46  1  0
 20 47  1  0
 21 48  1  0
 25 49  1  0
 26 50  1  0
 28 51  1  0
 29 52  1  0
M  END
$$$$
[H]N(C(=O)[C@]([H])(C(=O)C([H])([H])[H])C([H])([H])[H])[C@]([H])(C(=O)N([H])[C@]([H])(C(=O)N([H])[C@]([H])(C(=O)N([H])[C@]([H])(C(=O)N([H])[C@]([H])(C(=O)N([H])[C@]([H])(C(=O)N([H])[C@]([H])(C(=O)N1C([H])([H])C([H])([H])C([H])([H])[C@]1([H])C(=O)N(C([H])([H])[H])C([H])([H])[H])C([H])([H])C([H])(C([H])([H])[H])C([H])([H])[H])C([H])([H])[H])C([H])([H])[H])C([H])([H])[H])C([H])([H])[H])C([H])([H])[H])C([H])([H])[H]
     RDKit          3D

116116  0  0  0  0  0  0  0  0999 V2000
   -5.3405   -3.4307    0.6723 C   0  0  0  0  0  0  0  0  0  0  0  0
   -5.8459   -2.3775   -0.3440 C   0  0  0  0  0  0  0  0  0  0  0  0
   -7.0265   -3.0935   -1.0263 C   0  0  0  0  0  0  0  0  0  0  0  0
   -6.2779   -1.1676    0.3694 C   0  0  0  0  0  0  0  0  0  0  0  0
   -6.7843    0.0019   -0.4032 C   0  0  2  0  0  0  0  0  0  0  0  0
   -5.8536    0.6900   -1.2511 N   0  0  0  0  0  0  0  0  0  0  0  0
   -4.5054    0.6087   -1.4609 C   0  0  0  0  0  0  0  0  0  0  0  0
   -3.7330   -0.1644   -0.8601 O   0  0  0  0  0  0  0  0  0  0  0  0
   -3.7826    1.4727   -2.4858 C   0  0  2  0  0  0  0  0  0  0  0  0
   -4.7032    2.2421   -3.3539 C   0  0  0  0  0  0  0  0  0  0  0  0
   -2.8151    0.6617   -3.1770 N   0  0  0  0  0  0  0  0  0  0  0  0
   -1.4020    0.6958   -2.9132 C   0  0  0  0  0  0  0  0  0  0  0  0
   -0.8785    1.4301   -2.0842 O   0  0  0  0  0  0  0  0  0  0  0  0
   -0.5843   -0.2556   -3.7349 C   0  0  2  0  0  0  0  0  0  0  0  0
   -1.2331   -1.5951   -3.9007 C   0  0  0  0  0  0  0  0  0  0  0  0
    0.7303   -0.3971   -3.2125 N   0  0  0  0  0  0  0  0  0  0  0  0
    0.9733   -0.6643   -1.8425 C   0  0  0  0  0  0  0  0  0  0  0  0
    0.1043   -0.8064   -0.9553 O   0  0  0  0  0  0  0  0  0  0  0  0
    2.3998   -0.7856   -1.3932 C   0  0  2  0  0  0  0  0  0  0  0  0
    2.8364   -2.2417   -1.6618 C   0  0  0  0  0  0  0  0  0  0  0  0
    2.4562   -0.5298    0.0295 N   0  0  0  0  0  0  0  0  0  0  0  0
    3.3885    0.4430    0.4546 C   0  0  0  0  0  0  0  0  0  0  0  0
    4.1032    1.0267   -0.3902 O   0  0  0  0  0  0  0  0  0  0  0  0
    3.4790    0.7276    1.9395 C   0  0  2  0  0  0  0  0  0  0  0  0
    2.1968    1.1364    2.5310 C   0  0  0  0  0  0  0  0  0  0  0  0
    4.5566    1.7082    2.0576 N   0  0  0  0  0  0  0  0  0  0  0  0
    5.8989    1.3414    2.0757 C   0  0  0  0  0  0  0  0  0  0  0  0
    6.2131    0.0948    1.9777 O   0  0  0  0  0  0  0  0  0  0  0  0
    7.0707    2.2527    2.1947 C   0  0  2  0  0  0  0  0  0  0  0  0
    6.7592    3.6894    1.9771 C   0  0  0  0  0  0  0  0  0  0  0  0
    8.0498    1.7263    1.2626 N   0  0  0  0  0  0  0  0  0  0  0  0
    9.0038    0.7206    1.5359 C   0  0  0  0  0  0  0  0  0  0  0  0
    9.0307    0.2194    2.6918 O   0  0  0  0  0  0  0  0  0  0  0  0
    9.9427    0.2681    0.4672 C   0  0  2  0  0  0  0  0  0  0  0  0
    9.1067   -0.2322   -0.7133 C   0  0  0  0  0  0  0  0  0  0  0  0
   10.7350   -0.8294    0.9270 N   0  0  0  0  0  0  0  0  0  0  0  0
   12.1477   -0.9209    0.8772 C   0  0  0  0  0  0  0  0  0  0  0  0
   12.7809    0.0431    0.4016 O   0  0  0  0  0  0  0  0  0  0  0  0
   12.8212   -2.1495    1.3870 C   0  0  1  0  0  0  0  0  0  0  0  0
   12.2147   -3.3432    0.6523 C   0  0  0  0  0  0  0  0  0  0  0  0
   14.2517   -2.0797    0.9775 C   0  0  0  0  0  0  0  0  0  0  0  0
   15.1116   -0.9309    1.3887 C   0  0  0  0  0  0  0  0  0  0  0  0
   14.7407   -2.9435    0.3135 O   0  0  0  0  0  0  0  0  0  0  0  0
   -7.4958    0.9302    0.4726 C   0  0  0  0  0  0  0  0  0  0  0  0
   -6.9277    2.0548    0.6907 O   0  0  0  0  0  0  0  0  0  0  0  0
   -8.7433    0.6834    1.0791 N   0  0  0  0  0  0  0  0  0  0  0  0
   -9.5994   -0.4968    0.9544 C   0  0  0  0  0  0  0  0  0  0  0  0
   -9.8329   -0.8116    2.4248 C   0  0  0  0  0  0  0  0  0  0  0  0
   -9.6872    0.5216    3.1493 C   0  0  0  0  0  0  0  0  0  0  0  0
   -9.4554    1.5127    2.0112 C   0  0  2  0  0  0  0  0  0  0  0  0
  -10.7627    1.9392    1.5365 C   0  0  0  0  0  0  0  0  0  0  0  0
  -11.7611    1.9473    2.3733 O   0  0  0  0  0  0  0  0  0  0  0  0
  -11.0506    2.3545    0.2301 N   0  0  0  0  0  0  0  0  0  0  0  0
  -10.1665    2.4907   -0.8787 C   0  0  0  0  0  0  0  0  0  0  0  0
  -12.4782    2.6953   -0.0408 C   0  0  0  0  0  0  0  0  0  0  0  0
   -4.5519   -2.9719    1.3204 H   0  0  0  0  0  0  0  0  0  0  0  0
   -4.8593   -4.2723    0.1372 H   0  0  0  0  0  0  0  0  0  0  0  0
   -6.2083   -3.8145    1.2153 H   0  0  0  0  0  0  0  0  0  0  0  0
   -5.1075   -2.2766   -1.0971 H   0  0  0  0  0  0  0  0  0  0  0  0
   -7.9071   -3.1647   -0.3790 H   0  0  0  0  0  0  0  0  0  0  0  0
   -6.6665   -4.1386   -1.1973 H   0  0  0  0  0  0  0  0  0  0  0  0
   -7.1992   -2.6741   -2.0306 H   0  0  0  0  0  0  0  0  0  0  0  0
   -5.3823   -0.7683    0.9735 H   0  0  0  0  0  0  0  0  0  0  0  0
   -7.0007   -1.4536    1.1687 H   0  0  0  0  0  0  0  0  0  0  0  0
   -7.5352   -0.4334   -1.1853 H   0  0  0  0  0  0  0  0  0  0  0  0
   -6.3591    1.4564   -1.8739 H   0  0  0  0  0  0  0  0  0  0  0  0
   -3.1682    2.2123   -1.8837 H   0  0  0  0  0  0  0  0  0  0  0  0
   -5.4536    1.5806   -3.8782 H   0  0  0  0  0  0  0  0  0  0  0  0
   -5.2875    2.9502   -2.7150 H   0  0  0  0  0  0  0  0  0  0  0  0
   -4.1502    2.8855   -4.0904 H   0  0  0  0  0  0  0  0  0  0  0  0
   -3.1999    0.0210   -3.9167 H   0  0  0  0  0  0  0  0  0  0  0  0
   -0.5083    0.2563   -4.7557 H   0  0  0  0  0  0  0  0  0  0  0  0
   -0.5830   -2.4502   -3.6070 H   0  0  0  0  0  0  0  0  0  0  0  0
   -2.1460   -1.6965   -3.2547 H   0  0  0  0  0  0  0  0  0  0  0  0
   -1.5076   -1.7683   -4.9813 H   0  0  0  0  0  0  0  0  0  0  0  0
    1.5400   -0.2999   -3.8572 H   0  0  0  0  0  0  0  0  0  0  0  0
    3.0004   -0.0916   -1.9991 H   0  0  0  0  0  0  0  0  0  0  0  0
    3.1268   -2.2776   -2.7264 H   0  0  0  0  0  0  0  0  0  0  0  0
    2.0091   -2.9479   -1.4434 H   0  0  0  0  0  0  0  0  0  0  0  0
    3.7033   -2.4535   -1.0451 H   0  0  0  0  0  0  0  0  0  0  0  0
    1.8634   -1.0149    0.7159 H   0  0  0  0  0  0  0  0  0  0  0  0
    3.8641   -0.2110    2.4342 H   0  0  0  0  0  0  0  0  0  0  0  0
    1.9699    0.4859    3.4162 H   0  0  0  0  0  0  0  0  0  0  0  0
    2.1205    2.2026    2.8308 H   0  0  0  0  0  0  0  0  0  0  0  0
    1.3418    0.9782    1.8220 H   0  0  0  0  0  0  0  0  0  0  0  0
    4.2653    2.7050    2.1306 H   0  0  0  0  0  0  0  0  0  0  0  0
    7.4575    2.0422    3.2375 H   0  0  0  0  0  0  0  0  0  0  0  0
    6.6795    3.8647    0.8596 H   0  0  0  0  0  0  0  0  0  0  0  0
    7.6086    4.3389    2.3326 H   0  0  0  0  0  0  0  0  0  0  0  0
    5.8077    4.0122    2.3980 H   0  0  0  0  0  0  0  0  0  0  0  0
    8.0673    2.1352    0.2744 H   0  0  0  0  0  0  0  0  0  0  0  0
   10.5551    1.1371    0.1637 H   0  0  0  0  0  0  0  0  0  0  0  0
    8.2465    0.4718   -0.8823 H   0  0  0  0  0  0  0  0  0  0  0  0
    9.7213   -0.2727   -1.6408 H   0  0  0  0  0  0  0  0  0  0  0  0
    8.6803   -1.2237   -0.4946 H   0  0  0  0  0  0  0  0  0  0  0  0
   10.2078   -1.6463    1.3452 H   0  0  0  0  0  0  0  0  0  0  0  0
   12.7191   -2.2994    2.4699 H   0  0  0  0  0  0  0  0  0  0  0  0
   11.1399   -3.3885    0.9155 H   0  0  0  0  0  0  0  0  0  0  0  0
   12.3062   -3.1884   -0.4593 H   0  0  0  0  0  0  0  0  0  0  0  0
   12.6777   -4.2894    0.9941 H   0  0  0  0  0  0  0  0  0  0  0  0
   16.1139   -1.2526    1.7204 H   0  0  0  0  0  0  0  0  0  0  0  0
   14.5990   -0.3712    2.2075 H   0  0  0  0  0  0  0  0  0  0  0  0
   15.2755   -0.2354    0.5136 H   0  0  0  0  0  0  0  0  0  0  0  0
  -10.6148   -0.1755    0.5879 H   0  0  0  0  0  0  0  0  0  0  0  0
   -9.1873   -1.2991    0.3644 H   0  0  0  0  0  0  0  0  0  0  0  0
   -9.0674   -1.4964    2.8276 H   0  0  0  0  0  0  0  0  0  0  0  0
  -10.8603   -1.1917    2.6223 H   0  0  0  0  0  0  0  0  0  0  0  0
  -10.6104    0.7879    3.6782 H   0  0  0  0  0  0  0  0  0  0  0  0
   -8.8304    0.5268    3.8391 H   0  0  0  0  0  0  0  0  0  0  0  0
   -8.8263    2.3674    2.3763 H   0  0  0  0  0  0  0  0  0  0  0  0
  -10.6990    3.0948   -1.6870 H   0  0  0  0  0  0  0  0  0  0  0  0
   -9.2638    3.1072   -0.6515 H   0  0  0  0  0  0  0  0  0  0  0  0
   -9.8926    1.5549   -1.3877 H   0  0  0  0  0  0  0  0  0  0  0  0
  -12.9930    1.7279   -0.2001 H   0  0  0  0  0  0  0  0  0  0  0  0
  -12.5622    3.3840   -0.8951 H   0  0  0  0  0  0  0  0  0  0  0  0
  -12.8553    3.1397    0.8922 H   0  0  0  0  0  0  0  0  0  0  0  0
  1  2  1  0
  2  3  1  0
  2  4  1  0
  4  5  1  0
  5  6  1  0
  6  7  1  0
  7  8  2  0
  7  9  1  0
  9 10  1  0
  9 11  1  0
 11 12  1  0
 12 13  2  0
 12 14  1  0
 14 15  1  0
 14 16  1  0
 16 17  1  0
 17 18  2  0
 17 19  1  0
 19 20  1  0
 19 21  1  0
 21 22  1  0
 22 23  2  0
 22 24  1  0
 24 25  1  0
 24 26  1  0
 26 27  1  0
 27 28  2  0
 27 29  1  0
 29 30  1  0
 29 31  1  0
 31 32  1  0
 32 33  2  0
 32 34  1  0
 34 35  1  0
 34 36  1  0
 36 37  1  0
 37 38  2  0
 37 39  1  0
 39 40  1  0
 39 41  1  0
 41 42  1  0
 41 43  2  0
  5 44  1  0
 44 45  2  0
 44 46  1  0
 46 47  1  0
 47 48  1  0
 48 49  1  0
 49 50  1  0
 50 51  1  0
 51 52  2  0
 51 53  1  0
 53 54  1  0
 53 55  1  0
 50 46  1  0
  1 56  1  0
  1 57  1  0
  1 58  1  0
  2 59  1  0
  3 60  1  0
  3 61  1  0
  3 62  1  0
  4 63  1  0
  4 64  1  0
  5 65  1  6
  6 66  1  0
  9 67  1  1
 10 68  1  0
 10 69  1  0
 10 70  1  0
 11 71  1  0
 14 72  1  6
 15 73  1  0
 15 74  1  0
 15 75  1  0
 16 76  1  0
 19 77  1  6
 20 78  1  0
 20 79  1  0
 20 80  1  0
 21 81  1  0
 24 82  1  1
 25 83  1  0
 25 84  1  0
 25 85  1  0
 26 86  1  0
 29 87  1  1
 30 88  1  0
 30 89  1  0
 30 90  1  0
 31 91  1  0
 34 92  1  6
 35 93  1  0
 35 94  1  0
 35 95  1  0
 36 96  1  0
 39 97  1  1
 40 98  1  0
 40 99  1  0
 40100  1  0
 42101  1  0
 42102  1  0
 42103  1  0
 47104  1  0
 47105  1  0
 48106  1  0
 48107  1  0
 49108  1  0
 49109  1  0
 50110  1  1
 54111  1  0
 54112  1  0
 54113  1  0
 55114  1  0
 55115  1  0
 55116  1  0
M  END
$$$$
[H]OC(=O)C([H])([H])[C@@]([H])(C(=O)N([H])[C@]([H])(C(=O)N([H])C([H])(C([H])(C([H])([H])[H])C([H])([H])[H])C([H])(C([H])([H])[H])C([H])([H])[H])C([H])([H])C([H])(C([H])([H])[H])C([H])([H])[H])N([H])C(=O)[C@@]([H])(N([H])C(=O)[C@@]([H])(N([H])C(=O)[C@]([H])(N([H])C(=O)c1c([H])c([H])c([H])c([H])c1[H])C([H])([H])C(=O)O[H])C([H])([H])C([H])(C([H])([H])[H])C([H])([H])[H])C([H])([H])C([H])(C([H])([H])[H])C([H])([H])[H]
     RDKit          3D

120120  0  0  0  0  0  0  0  0999 V2000
   -6.7865    1.8664   -3.2298 C   0  0  0  0  0  0  0  0  0  0  0  0
   -8.2172    1.9682   -2.6668 C   0  0  0  0  0  0  0  0  0  0  0  0
   -8.9233    0.7085   -3.0887 C   0  0  0  0  0  0  0  0  0  0  0  0
   -8.1561    2.1802   -1.1737 C   0  0  0  0  0  0  0  0  0  0  0  0
   -7.5157    1.0932   -0.4881 N   0  0  0  0  0  0  0  0  0  0  0  0
   -6.1931    1.1028   -0.0351 C   0  0  0  0  0  0  0  0  0  0  0  0
   -5.4592    2.0870   -0.2024 O   0  0  0  0  0  0  0  0  0  0  0  0
   -5.6192   -0.0967    0.6748 C   0  0  2  0  0  0  0  0  0  0  0  0
   -6.5007   -0.5392    1.7765 C   0  0  0  0  0  0  0  0  0  0  0  0
   -6.0571   -1.7183    2.5616 C   0  0  0  0  0  0  0  0  0  0  0  0
   -4.7626   -1.6076    3.2829 C   0  0  0  0  0  0  0  0  0  0  0  0
   -7.1232   -2.0699    3.5935 C   0  0  0  0  0  0  0  0  0  0  0  0
   -4.2355    0.1213    0.9968 N   0  0  0  0  0  0  0  0  0  0  0  0
   -3.1647   -0.4033    0.2568 C   0  0  0  0  0  0  0  0  0  0  0  0
   -3.4194   -1.1204   -0.7736 O   0  0  0  0  0  0  0  0  0  0  0  0
   -1.7627   -0.1477    0.6348 C   0  0  2  0  0  0  0  0  0  0  0  0
   -1.5177    1.3472    0.8489 C   0  0  0  0  0  0  0  0  0  0  0  0
   -1.7863    2.1505   -0.3424 C   0  0  0  0  0  0  0  0  0  0  0  0
   -1.6339    3.5243   -0.3185 O   0  0  0  0  0  0  0  0  0  0  0  0
   -2.1650    1.6016   -1.4171 O   0  0  0  0  0  0  0  0  0  0  0  0
   -0.8281   -0.6994   -0.3212 N   0  0  0  0  0  0  0  0  0  0  0  0
    0.3212   -1.3736    0.1121 C   0  0  0  0  0  0  0  0  0  0  0  0
    0.5298   -1.4882    1.3485 O   0  0  0  0  0  0  0  0  0  0  0  0
    1.3611   -1.9828   -0.7911 C   0  0  2  0  0  0  0  0  0  0  0  0
    0.9686   -3.2748   -1.3958 C   0  0  0  0  0  0  0  0  0  0  0  0
   -0.2167   -3.3312   -2.2819 C   0  0  0  0  0  0  0  0  0  0  0  0
   -0.1113   -2.4804   -3.5263 C   0  0  0  0  0  0  0  0  0  0  0  0
   -0.4579   -4.7906   -2.6397 C   0  0  0  0  0  0  0  0  0  0  0  0
    2.5630   -2.2932    0.0322 N   0  0  0  0  0  0  0  0  0  0  0  0
    3.6465   -1.4092    0.0762 C   0  0  0  0  0  0  0  0  0  0  0  0
    3.5335   -0.3296   -0.6131 O   0  0  0  0  0  0  0  0  0  0  0  0
    4.9135   -1.5618    0.8248 C   0  0  2  0  0  0  0  0  0  0  0  0
    4.7628   -2.2941    2.1049 C   0  0  0  0  0  0  0  0  0  0  0  0
    6.0010   -2.4860    2.9067 C   0  0  0  0  0  0  0  0  0  0  0  0
    5.6436   -3.2574    4.1858 C   0  0  0  0  0  0  0  0  0  0  0  0
    7.0910   -3.2565    2.2402 C   0  0  0  0  0  0  0  0  0  0  0  0
    5.5449   -0.2617    1.0260 N   0  0  0  0  0  0  0  0  0  0  0  0
    6.6254    0.2595    0.3037 C   0  0  0  0  0  0  0  0  0  0  0  0
    7.1462   -0.4052   -0.6111 O   0  0  0  0  0  0  0  0  0  0  0  0
    7.1439    1.5988    0.6224 C   0  0  1  0  0  0  0  0  0  0  0  0
    7.5904    1.7314    2.0467 C   0  0  0  0  0  0  0  0  0  0  0  0
    8.6561    0.8266    2.4638 C   0  0  0  0  0  0  0  0  0  0  0  0
    9.1670    0.8362    3.7391 O   0  0  0  0  0  0  0  0  0  0  0  0
    9.1446   -0.0122    1.6330 O   0  0  0  0  0  0  0  0  0  0  0  0
    8.1888    1.9402   -0.3332 N   0  0  0  0  0  0  0  0  0  0  0  0
    8.0300    3.0031   -1.2575 C   0  0  0  0  0  0  0  0  0  0  0  0
    6.9457    3.6329   -1.2186 O   0  0  0  0  0  0  0  0  0  0  0  0
    9.0687    3.3371   -2.1911 C   0  0  0  0  0  0  0  0  0  0  0  0
    8.8334    4.3802   -3.0941 C   0  0  0  0  0  0  0  0  0  0  0  0
    9.7495    4.7878   -4.0142 C   0  0  0  0  0  0  0  0  0  0  0  0
   10.9937    4.1646   -4.0955 C   0  0  0  0  0  0  0  0  0  0  0  0
   11.2453    3.1402   -3.2209 C   0  0  0  0  0  0  0  0  0  0  0  0
   10.3006    2.7434   -2.2956 C   0  0  0  0  0  0  0  0  0  0  0  0
   -9.4368    2.5439   -0.5290 C   0  0  0  0  0  0  0  0  0  0  0  0
   -9.1449    2.7153    0.9725 C   0  0  0  0  0  0  0  0  0  0  0  0
  -10.5268    1.5192   -0.6093 C   0  0  0  0  0  0  0  0  0  0  0  0
   -6.1923    2.7600   -2.9669 H   0  0  0  0  0  0  0  0  0  0  0  0
   -6.9076    1.7315   -4.3227 H   0  0  0  0  0  0  0  0  0  0  0  0
   -6.2786    0.9787   -2.8337 H   0  0  0  0  0  0  0  0  0  0  0  0
   -8.6662    2.8599   -3.1271 H   0  0  0  0  0  0  0  0  0  0  0  0
   -9.1258   -0.0030   -2.2897 H   0  0  0  0  0  0  0  0  0  0  0  0
   -8.3413    0.1838   -3.9151 H   0  0  0  0  0  0  0  0  0  0  0  0
   -9.8821    0.9668   -3.5817 H   0  0  0  0  0  0  0  0  0  0  0  0
   -7.4226    3.0497   -1.0701 H   0  0  0  0  0  0  0  0  0  0  0  0
   -8.0947    0.2258   -0.3178 H   0  0  0  0  0  0  0  0  0  0  0  0
   -5.6229   -0.8876   -0.1305 H   0  0  0  0  0  0  0  0  0  0  0  0
   -7.4805   -0.8497    1.2893 H   0  0  0  0  0  0  0  0  0  0  0  0
   -6.7940    0.2869    2.4699 H   0  0  0  0  0  0  0  0  0  0  0  0
   -5.9864   -2.6402    1.9085 H   0  0  0  0  0  0  0  0  0  0  0  0
   -4.6404   -0.5841    3.7326 H   0  0  0  0  0  0  0  0  0  0  0  0
   -3.8762   -1.9804    2.7654 H   0  0  0  0  0  0  0  0  0  0  0  0
   -4.8396   -2.2724    4.2049 H   0  0  0  0  0  0  0  0  0  0  0  0
   -8.1404   -1.9009    3.2450 H   0  0  0  0  0  0  0  0  0  0  0  0
   -6.9622   -1.5006    4.5442 H   0  0  0  0  0  0  0  0  0  0  0  0
   -6.9877   -3.1359    3.8617 H   0  0  0  0  0  0  0  0  0  0  0  0
   -4.0158    0.7106    1.8288 H   0  0  0  0  0  0  0  0  0  0  0  0
   -1.4981   -0.5956    1.6378 H   0  0  0  0  0  0  0  0  0  0  0  0
   -2.1956    1.6543    1.7002 H   0  0  0  0  0  0  0  0  0  0  0  0
   -0.4966    1.4726    1.2262 H   0  0  0  0  0  0  0  0  0  0  0  0
   -1.8738    4.0603    0.5042 H   0  0  0  0  0  0  0  0  0  0  0  0
   -0.9978   -0.5934   -1.3616 H   0  0  0  0  0  0  0  0  0  0  0  0
    1.6882   -1.2176   -1.5113 H   0  0  0  0  0  0  0  0  0  0  0  0
    1.8515   -3.5920   -2.0451 H   0  0  0  0  0  0  0  0  0  0  0  0
    0.8994   -4.0316   -0.5516 H   0  0  0  0  0  0  0  0  0  0  0  0
   -1.1124   -2.9663   -1.7273 H   0  0  0  0  0  0  0  0  0  0  0  0
    0.4024   -3.0353   -4.3504 H   0  0  0  0  0  0  0  0  0  0  0  0
    0.4719   -1.5769   -3.2871 H   0  0  0  0  0  0  0  0  0  0  0  0
   -1.1432   -2.2156   -3.8459 H   0  0  0  0  0  0  0  0  0  0  0  0
   -1.1347   -5.2028   -1.8644 H   0  0  0  0  0  0  0  0  0  0  0  0
    0.4935   -5.3840   -2.5457 H   0  0  0  0  0  0  0  0  0  0  0  0
   -0.9247   -4.8795   -3.6256 H   0  0  0  0  0  0  0  0  0  0  0  0
    2.5547   -3.1741    0.5618 H   0  0  0  0  0  0  0  0  0  0  0  0
    5.6040   -2.0916    0.1004 H   0  0  0  0  0  0  0  0  0  0  0  0
    4.3979   -3.3321    1.8394 H   0  0  0  0  0  0  0  0  0  0  0  0
    3.9778   -1.8921    2.7661 H   0  0  0  0  0  0  0  0  0  0  0  0
    6.4368   -1.5231    3.2687 H   0  0  0  0  0  0  0  0  0  0  0  0
    4.8146   -3.9719    4.0130 H   0  0  0  0  0  0  0  0  0  0  0  0
    5.3192   -2.5407    4.9579 H   0  0  0  0  0  0  0  0  0  0  0  0
    6.5027   -3.8420    4.5570 H   0  0  0  0  0  0  0  0  0  0  0  0
    6.7484   -4.0567    1.5747 H   0  0  0  0  0  0  0  0  0  0  0  0
    7.7027   -3.7560    3.0472 H   0  0  0  0  0  0  0  0  0  0  0  0
    7.7862   -2.5561    1.7384 H   0  0  0  0  0  0  0  0  0  0  0  0
    5.1282    0.3235    1.7962 H   0  0  0  0  0  0  0  0  0  0  0  0
    6.3005    2.3345    0.4386 H   0  0  0  0  0  0  0  0  0  0  0  0
    6.7035    1.5145    2.6822 H   0  0  0  0  0  0  0  0  0  0  0  0
    7.8886    2.7997    2.2562 H   0  0  0  0  0  0  0  0  0  0  0  0
    8.6554    1.2415    4.5194 H   0  0  0  0  0  0  0  0  0  0  0  0
    9.0626    1.3928   -0.3349 H   0  0  0  0  0  0  0  0  0  0  0  0
    7.8601    4.8670   -3.0315 H   0  0  0  0  0  0  0  0  0  0  0  0
    9.5369    5.5969   -4.6972 H   0  0  0  0  0  0  0  0  0  0  0  0
   11.7340    4.4926   -4.8374 H   0  0  0  0  0  0  0  0  0  0  0  0
   12.1964    2.6382   -3.2578 H   0  0  0  0  0  0  0  0  0  0  0  0
   10.5169    1.9177   -1.5984 H   0  0  0  0  0  0  0  0  0  0  0  0
   -9.8211    3.5455   -0.8848 H   0  0  0  0  0  0  0  0  0  0  0  0
   -9.9940    3.2316    1.4702 H   0  0  0  0  0  0  0  0  0  0  0  0
   -9.1006    1.6942    1.3949 H   0  0  0  0  0  0  0  0  0  0  0  0
   -8.1838    3.1982    1.1620 H   0  0  0  0  0  0  0  0  0  0  0  0
  -10.1361    0.5578   -0.2084 H   0  0  0  0  0  0  0  0  0  0  0  0
  -11.3173    1.8179    0.1380 H   0  0  0  0  0  0  0  0  0  0  0  0
  -11.0358    1.4568   -1.5692 H   0  0  0  0  0  0  0  0  0  0  0  0
  1  2  1  0
  2  3  1  0
  2  4  1  0
  4  5  1  0
  5  6  1  0
  6  7  2  0
  6  8  1  0
  8  9  1  0
  9 10  1  0
 10 11  1  0
 10 12  1  0
  8 13  1  0
 13 14  1  0
 14 15  2  0
 14 16  1  0
 16 17  1  0
 17 18  1  0
 18 19  1  0
 18 20  2  0
 16 21  1  0
 21 22  1  0
 22 23  2  0
 22 24  1  0
 24 25  1  0
 25 26  1  0
 26 27  1  0
 26 28  1  0
 24 29  1  0
 29 30  1  0
 30 31  2  0
 30 32  1  0
 32 33  1  0
 33 34  1  0
 34 35  1  0
 34 36  1  0
 32 37  1  0
 37 38  1  0
 38 39  2  0
 38 40  1  0
 40 41  1  0
 41 42  1  0
 42 43  1  0
 42 44  2  0
 40 45  1  0
 45 46  1  0
 46 47  2  0
 46 48  1  0
 48 49  2  0
 49 50  1  0
 50 51  2  0
 51 52  1  0
 52 53  2  0
  4 54  1  0
 54 55  1  0
 54 56  1  0
 53 48  1  0
  1 57  1  0
  1 58  1  0
  1 59  1  0
  2 60  1  0
  3 61  1  0
  3 62  1  0
  3 63  1  0
  4 64  1  0
  5 65  1  0
  8 66  1  6
  9 67  1  0
  9 68  1  0
 10 69  1  0
 11 70  1  0
 11 71  1  0
 11 72  1  0
 12 73  1  0
 12 74  1  0
 12 75  1  0
 13 76  1  0
 16 77  1  1
 17 78  1  0
 17 79  1  0
 19 80  1  0
 21 81  1  0
 24 82  1  6
 25 83  1  0
 25 84  1  0
 26 85  1  0
 27 86  1  0
 27 87  1  0
 27 88  1  0
 28 89  1  0
 28 90  1  0
 28 91  1  0
 29 92  1  0
 32 93  1  6
 33 94  1  0
 33 95  1  0
 34 96  1  0
 35 97  1  0
 35 98  1  0
 35 99  1  0
 36100  1  0
 36101  1  0
 36102  1  0
 37103  1  0
 40104  1  1
 41105  1  0
 41106  1  0
 43107  1  0
 45108  1  0
 49109  1  0
 50110  1  0
 51111  1  0
 52112  1  0
 53113  1  0
 54114  1  0
 55115  1  0
 55116  1  0
 55117  1  0
 56118  1  0
 56119  1  0
 56120  1  0
M  END
$$$$
[H]OC(=O)[C@]([H])(N([H])S(=O)(=O)c1c([H])c([H])c([H])c(C(F)(F)F)c1[H])C([H])(C([H])([H])[H])C([H])([H])[H]
     RDKit          3D

 35 35  0  0  0  0  0  0  0  0999 V2000
   -3.4759    1.6343    0.2386 C   0  0  0  0  0  0  0  0  0  0  0  0
   -3.4694    0.1306    0.0987 C   0  0  0  0  0  0  0  0  0  0  0  0
   -3.5050   -0.5045    1.5085 C   0  0  0  0  0  0  0  0  0  0  0  0
   -2.1652   -0.3416   -0.5172 C   0  0  1  0  0  0  0  0  0  0  0  0
   -1.0976   -0.0207    0.3491 N   0  0  0  0  0  0  0  0  0  0  0  0
    0.1301    0.9895   -0.1965 S   0  0  0  0  0  0  0  0  0  0  0  0
    0.3070    2.2031    0.7263 O   0  0  0  0  0  0  0  0  0  0  0  0
   -0.1341    1.5318   -1.5582 O   0  0  0  0  0  0  0  0  0  0  0  0
    1.7066    0.2203   -0.1952 C   0  0  0  0  0  0  0  0  0  0  0  0
    1.9332   -1.1254   -0.1194 C   0  0  0  0  0  0  0  0  0  0  0  0
    3.2014   -1.6897   -0.0830 C   0  0  0  0  0  0  0  0  0  0  0  0
    4.2666   -0.8484   -0.1274 C   0  0  0  0  0  0  0  0  0  0  0  0
    4.0814    0.5050   -0.2075 C   0  0  0  0  0  0  0  0  0  0  0  0
    2.8200    1.0691   -0.2457 C   0  0  0  0  0  0  0  0  0  0  0  0
    5.2979    1.3713   -0.2237 C   0  0  0  0  0  0  0  0  0  0  0  0
    6.1604    0.9474   -1.2285 F   0  0  0  0  0  0  0  0  0  0  0  0
    5.8979    1.2744    1.0067 F   0  0  0  0  0  0  0  0  0  0  0  0
    4.8621    2.6776   -0.4283 F   0  0  0  0  0  0  0  0  0  0  0  0
   -2.2861   -1.7827   -0.8948 C   0  0  0  0  0  0  0  0  0  0  0  0
   -3.5651   -2.3646   -1.0694 O   0  0  0  0  0  0  0  0  0  0  0  0
   -1.3083   -2.5628   -1.0793 O   0  0  0  0  0  0  0  0  0  0  0  0
   -2.4538    2.0031    0.2004 H   0  0  0  0  0  0  0  0  0  0  0  0
   -4.1027    2.0620   -0.6017 H   0  0  0  0  0  0  0  0  0  0  0  0
   -3.9622    1.8429    1.2188 H   0  0  0  0  0  0  0  0  0  0  0  0
   -4.3803   -0.1784   -0.4107 H   0  0  0  0  0  0  0  0  0  0  0  0
   -4.5515   -0.5844    1.8140 H   0  0  0  0  0  0  0  0  0  0  0  0
   -2.9057    0.2045    2.1496 H   0  0  0  0  0  0  0  0  0  0  0  0
   -2.9327   -1.4450    1.4963 H   0  0  0  0  0  0  0  0  0  0  0  0
   -2.0708    0.2275   -1.5094 H   0  0  0  0  0  0  0  0  0  0  0  0
   -0.8455   -0.7492    1.0140 H   0  0  0  0  0  0  0  0  0  0  0  0
    1.0796   -1.7568   -0.0743 H   0  0  0  0  0  0  0  0  0  0  0  0
    3.3078   -2.7592   -0.0098 H   0  0  0  0  0  0  0  0  0  0  0  0
    5.2826   -1.2643   -0.0885 H   0  0  0  0  0  0  0  0  0  0  0  0
    2.7297    2.1316   -0.3016 H   0  0  0  0  0  0  0  0  0  0  0  0
   -3.8523   -3.0485   -0.3521 H   0  0  0  0  0  0  0  0  0  0  0  0
  1  2  1  0
  2  3  1  0
  2  4  1  0
  4  5  1  0
  5  6  1  0
  6  7  2  0
  6  8  2  0
  6  9  1  0
  9 10  2  0
 10 11  1  0
 11 12  2  0
 12 13  1  0
 13 14  2  0
 13 15  1  0
 15 16  1  0
 15 17  1  0
 15 18  1  0
  4 19  1  0
 19 20  1  0
 19 21  2  0
 14  9  1  0
  1 22  1  0
  1 23  1  0
  1 24  1  0
  2 25  1  0
  3 26  1  0
  3 27  1  0
  3 28  1  0
  4 29  1  6
  5 30  1  0
 10 31  1  0
 11 32  1  0
 12 33  1  0
 14 34  1  0
 20 35  1  0
M  END
$$$$
[H]C([H])=C([H])C(=O)N1C([H])([H])C([H])([H])C([H])([H])[C@@]([H])(n2c([H])c(-c3c([H])c([H])c(Oc4c([H])c([H])c([H])c([H])c4[H])c([H])c3[H])c3c(N([H])[H])nc([H])nc32)C1([H])[H]
     RDKit          3D

 58 62  0  0  0  0  0  0  0  0999 V2000
    2.0021    3.0683   -0.5502 N   0  0  0  0  0  0  0  0  0  0  0  0
    0.5912    3.0303   -0.3929 C   0  0  0  0  0  0  0  0  0  0  0  0
   -0.1453    4.1552   -0.3381 N   0  0  0  0  0  0  0  0  0  0  0  0
   -1.4789    4.1697   -0.1685 C   0  0  0  0  0  0  0  0  0  0  0  0
   -2.1083    2.9879   -0.0471 N   0  0  0  0  0  0  0  0  0  0  0  0
   -1.4811    1.8102   -0.0864 C   0  0  0  0  0  0  0  0  0  0  0  0
   -1.9092    0.5243    0.0230 N   0  0  0  0  0  0  0  0  0  0  0  0
   -0.8382   -0.2552   -0.0821 C   0  0  0  0  0  0  0  0  0  0  0  0
    0.3146    0.5268   -0.2642 C   0  0  0  0  0  0  0  0  0  0  0  0
    1.6324   -0.0097   -0.4542 C   0  0  0  0  0  0  0  0  0  0  0  0
    2.4203    0.1525   -1.5672 C   0  0  0  0  0  0  0  0  0  0  0  0
    3.6784   -0.3937   -1.6458 C   0  0  0  0  0  0  0  0  0  0  0  0
    4.2043   -1.1261   -0.6160 C   0  0  0  0  0  0  0  0  0  0  0  0
    5.4796   -1.6932   -0.6674 O   0  0  0  0  0  0  0  0  0  0  0  0
    6.5608   -0.9495   -0.2102 C   0  0  0  0  0  0  0  0  0  0  0  0
    7.1975   -0.1546   -1.1549 C   0  0  0  0  0  0  0  0  0  0  0  0
    8.2750    0.5950   -0.7275 C   0  0  0  0  0  0  0  0  0  0  0  0
    8.7317    0.5832    0.5742 C   0  0  0  0  0  0  0  0  0  0  0  0
    8.0784   -0.2172    1.4919 C   0  0  0  0  0  0  0  0  0  0  0  0
    6.9896   -0.9840    1.0921 C   0  0  0  0  0  0  0  0  0  0  0  0
    3.4316   -1.3026    0.5112 C   0  0  0  0  0  0  0  0  0  0  0  0
    2.1753   -0.7583    0.5923 C   0  0  0  0  0  0  0  0  0  0  0  0
   -0.0932    1.8168   -0.2645 C   0  0  0  0  0  0  0  0  0  0  0  0
   -3.2674    0.1106    0.2154 C   0  0  2  0  0  0  0  0  0  0  0  0
   -3.3743   -0.7049    1.5168 C   0  0  0  0  0  0  0  0  0  0  0  0
   -4.8056   -0.6762    1.8982 C   0  0  0  0  0  0  0  0  0  0  0  0
   -5.7326   -0.9973    0.7774 C   0  0  0  0  0  0  0  0  0  0  0  0
   -5.2038   -1.0945   -0.5294 N   0  0  0  0  0  0  0  0  0  0  0  0
   -3.7855   -0.7868   -0.8503 C   0  0  0  0  0  0  0  0  0  0  0  0
   -5.9741   -1.4912   -1.6369 C   0  0  0  0  0  0  0  0  0  0  0  0
   -5.3658   -1.5424   -2.8030 O   0  0  0  0  0  0  0  0  0  0  0  0
   -7.3572   -1.8657   -1.7333 C   0  0  0  0  0  0  0  0  0  0  0  0
   -8.2917   -1.9472   -0.8380 C   0  0  0  0  0  0  0  0  0  0  0  0
    2.6874    2.8010    0.1889 H   0  0  0  0  0  0  0  0  0  0  0  0
    2.3976    3.3833   -1.4627 H   0  0  0  0  0  0  0  0  0  0  0  0
   -2.0193    5.1279   -0.1331 H   0  0  0  0  0  0  0  0  0  0  0  0
   -0.8013   -1.3499   -0.0403 H   0  0  0  0  0  0  0  0  0  0  0  0
    2.0375    0.7160   -2.4059 H   0  0  0  0  0  0  0  0  0  0  0  0
    4.2902   -0.2501   -2.5465 H   0  0  0  0  0  0  0  0  0  0  0  0
    6.8714   -0.1158   -2.1877 H   0  0  0  0  0  0  0  0  0  0  0  0
    8.8129    1.2406   -1.4373 H   0  0  0  0  0  0  0  0  0  0  0  0
    9.5968    1.2032    0.8557 H   0  0  0  0  0  0  0  0  0  0  0  0
    8.4122   -0.2493    2.5233 H   0  0  0  0  0  0  0  0  0  0  0  0
    6.4822   -1.6107    1.8218 H   0  0  0  0  0  0  0  0  0  0  0  0
    3.8291   -1.8895    1.3590 H   0  0  0  0  0  0  0  0  0  0  0  0
    1.5953   -0.9220    1.5043 H   0  0  0  0  0  0  0  0  0  0  0  0
   -3.9711    0.9603    0.3250 H   0  0  0  0  0  0  0  0  0  0  0  0
   -2.6907   -0.2399    2.2247 H   0  0  0  0  0  0  0  0  0  0  0  0
   -3.0851   -1.7533    1.2572 H   0  0  0  0  0  0  0  0  0  0  0  0
   -5.0436    0.3719    2.2561 H   0  0  0  0  0  0  0  0  0  0  0  0
   -4.9691   -1.3048    2.8014 H   0  0  0  0  0  0  0  0  0  0  0  0
   -6.6185   -0.2938    0.8083 H   0  0  0  0  0  0  0  0  0  0  0  0
   -6.1476   -2.0219    1.0318 H   0  0  0  0  0  0  0  0  0  0  0  0
   -3.6786   -0.4266   -1.8729 H   0  0  0  0  0  0  0  0  0  0  0  0
   -3.2774   -1.7912   -0.8056 H   0  0  0  0  0  0  0  0  0  0  0  0
   -7.7311   -2.1471   -2.7690 H   0  0  0  0  0  0  0  0  0  0  0  0
   -8.2287   -1.7481    0.1868 H   0  0  0  0  0  0  0  0  0  0  0  0
   -9.3011   -2.2706   -1.1891 H   0  0  0  0  0  0  0  0  0  0  0  0
  1  2  1  0
  2  3  2  0
  3  4  1  0
  4  5  2  0
  5  6  1  0
  6  7  1  0
  7  8  1  0
  8  9  2  0
  9 10  1  0
 10 11  2  0
 11 12  1  0
 12 13  2  0
 13 14  1  0
 14 15  1  0
 15 16  2  0
 16 17  1  0
 17 18  2  0
 18 19  1  0
 19 20  2  0
 13 21  1  0
 21 22  2  0
  9 23  1  0
  7 24  1  0
 24 25  1  0
 25 26  1  0
 26 27  1  0
 27 28  1  0
 28 29  1  0
 28 30  1  0
 30 31  2  0
 30 32  1  0
 32 33  2  3
 23  2  1  0
 29 24  1  0
 23  6  2  0
 22 10  1  0
 20 15  1  0
  1 34  1  0
  1 35  1  0
  4 36  1  0
  8 37  1  0
 11 38  1  0
 12 39  1  0
 16 40  1  0
 17 41  1  0
 18 42  1  0
 19 43  1  0
 20 44  1  0
 21 45  1  0
 22 46  1  0
 24 47  1  1
 25 48  1  0
 25 49  1  0
 26 50  1  0
 26 51  1  0
 27 52  1  0
 27 53  1  0
 29 54  1  0
 29 55  1  0
 32 56  1  0
 33 57  1  0
 33 58  1  0
M  END
$$$$
[H]O[C@@]1([H])[C@]([H])(O[H])[C@]([H])(n2c([H])nc3c(N([H])[H])nc([H])nc32)O[C@@]1([H])n1c([H])nc2c(N([H])[H])nc([H])nc21
     RDKit          3D

 41 45  0  0  0  0  0  0  0  0999 V2000
   -6.6529   -0.6810   -0.8185 N   0  0  0  0  0  0  0  0  0  0  0  0
   -5.2819   -0.9852   -0.7074 C   0  0  0  0  0  0  0  0  0  0  0  0
   -4.8652   -2.2344   -0.4184 N   0  0  0  0  0  0  0  0  0  0  0  0
   -3.5414   -2.5251   -0.3118 C   0  0  0  0  0  0  0  0  0  0  0  0
   -2.5854   -1.5944   -0.4866 N   0  0  0  0  0  0  0  0  0  0  0  0
   -2.9439   -0.3403   -0.7748 C   0  0  0  0  0  0  0  0  0  0  0  0
   -2.1972    0.7572   -0.9931 N   0  0  0  0  0  0  0  0  0  0  0  0
   -3.0725    1.7478   -1.2398 C   0  0  0  0  0  0  0  0  0  0  0  0
   -4.3419    1.2658   -1.1740 N   0  0  0  0  0  0  0  0  0  0  0  0
   -4.2897   -0.0385   -0.8845 C   0  0  0  0  0  0  0  0  0  0  0  0
   -0.7339    0.8793   -0.9732 C   0  0  2  0  0  0  0  0  0  0  0  0
   -0.1716   -0.3617   -0.9621 O   0  0  0  0  0  0  0  0  0  0  0  0
    0.6170   -0.5234    0.1437 C   0  0  2  0  0  0  0  0  0  0  0  0
    0.1051    0.4641    1.1729 C   0  0  1  0  0  0  0  0  0  0  0  0
    1.0807    0.9283    2.0189 O   0  0  0  0  0  0  0  0  0  0  0  0
   -0.3103    1.6111    0.2718 C   0  0  2  0  0  0  0  0  0  0  0  0
   -1.4086    2.2864    0.7701 O   0  0  0  0  0  0  0  0  0  0  0  0
    2.0032   -0.2326   -0.1830 N   0  0  0  0  0  0  0  0  0  0  0  0
    2.4498    0.4070   -1.2793 C   0  0  0  0  0  0  0  0  0  0  0  0
    3.8018    0.4995   -1.2510 N   0  0  0  0  0  0  0  0  0  0  0  0
    4.2356   -0.0811   -0.1339 C   0  0  0  0  0  0  0  0  0  0  0  0
    5.5030   -0.2644    0.3828 C   0  0  0  0  0  0  0  0  0  0  0  0
    6.6708    0.1926   -0.2775 N   0  0  0  0  0  0  0  0  0  0  0  0
    5.5585   -0.9156    1.5731 N   0  0  0  0  0  0  0  0  0  0  0  0
    4.4564   -1.3537    2.2085 C   0  0  0  0  0  0  0  0  0  0  0  0
    3.2156   -1.1819    1.7164 N   0  0  0  0  0  0  0  0  0  0  0  0
    3.1183   -0.5386    0.5345 C   0  0  0  0  0  0  0  0  0  0  0  0
   -7.1857   -1.0055   -1.6365 H   0  0  0  0  0  0  0  0  0  0  0  0
   -7.1214   -0.1348   -0.0827 H   0  0  0  0  0  0  0  0  0  0  0  0
   -3.2672   -3.5436   -0.0783 H   0  0  0  0  0  0  0  0  0  0  0  0
   -2.7799    2.7813   -1.4585 H   0  0  0  0  0  0  0  0  0  0  0  0
   -0.4783    1.5133   -1.8363 H   0  0  0  0  0  0  0  0  0  0  0  0
    0.5722   -1.5505    0.5632 H   0  0  0  0  0  0  0  0  0  0  0  0
   -0.7283    0.0664    1.7619 H   0  0  0  0  0  0  0  0  0  0  0  0
    1.0042    0.5411    2.9330 H   0  0  0  0  0  0  0  0  0  0  0  0
    0.4904    2.3351    0.1057 H   0  0  0  0  0  0  0  0  0  0  0  0
   -1.5094    2.2142    1.7514 H   0  0  0  0  0  0  0  0  0  0  0  0
    1.7977    0.7936   -2.0760 H   0  0  0  0  0  0  0  0  0  0  0  0
    6.7515    1.0923   -0.7974 H   0  0  0  0  0  0  0  0  0  0  0  0
    7.5144   -0.4114   -0.2440 H   0  0  0  0  0  0  0  0  0  0  0  0
    4.5204   -1.8786    3.1707 H   0  0  0  0  0  0  0  0  0  0  0  0
  1  2  1  0
  2  3  2  0
  3  4  1  0
  4  5  2  0
  5  6  1  0
  6  7  1  0
  7  8  1  0
  8  9  2  0
  9 10  1  0
  7 11  1  0
 11 12  1  0
 12 13  1  0
 13 14  1  0
 14 15  1  0
 14 16  1  0
 16 17  1  0
 13 18  1  0
 18 19  1  0
 19 20  2  0
 20 21  1  0
 21 22  2  0
 22 23  1  0
 22 24  1  0
 24 25  2  0
 25 26  1  0
 26 27  2  0
 10  2  1  0
 16 11  1  0
 27 18  1  0
 10  6  2  0
 27 21  1  0
  1 28  1  0
  1 29  1  0
  4 30  1  0
  8 31  1  0
 11 32  1  6
 13 33  1  1
 14 34  1  1
 15 35  1  0
 16 36  1  6
 17 37  1  0
 19 38  1  0
 23 39  1  0
 23 40  1  0
 25 41  1  0
M  END
$$$$
[H]C([H])=C([H])C(=O)N([H])c1c([H])c([H])c(Oc2c([H])c([H])nc3c([H])c(OC([H])([H])[H])c(OC([H])([H])[H])c([H])c23)c([H])c1[H]
     RDKit          3D

 44 46  0  0  0  0  0  0  0  0999 V2000
   -7.3010   -0.0045   -0.1648 C   0  0  0  0  0  0  0  0  0  0  0  0
   -6.1126    0.3755   -0.8246 O   0  0  0  0  0  0  0  0  0  0  0  0
   -4.8664    0.0981   -0.2705 C   0  0  0  0  0  0  0  0  0  0  0  0
   -4.7921   -0.5565    0.9388 C   0  0  0  0  0  0  0  0  0  0  0  0
   -3.5542   -0.8498    1.5220 C   0  0  0  0  0  0  0  0  0  0  0  0
   -3.4776   -1.4840    2.6938 N   0  0  0  0  0  0  0  0  0  0  0  0
   -2.3091   -1.7792    3.2781 C   0  0  0  0  0  0  0  0  0  0  0  0
   -1.1429   -1.4136    2.6442 C   0  0  0  0  0  0  0  0  0  0  0  0
   -1.1445   -0.7510    1.4227 C   0  0  0  0  0  0  0  0  0  0  0  0
   -0.1140   -0.3516    0.7217 O   0  0  0  0  0  0  0  0  0  0  0  0
    1.1907   -0.2470    0.5739 C   0  0  0  0  0  0  0  0  0  0  0  0
    1.6194    0.3993   -0.6055 C   0  0  0  0  0  0  0  0  0  0  0  0
    2.9277    0.5959   -0.9237 C   0  0  0  0  0  0  0  0  0  0  0  0
    3.9053    0.1279   -0.0253 C   0  0  0  0  0  0  0  0  0  0  0  0
    5.2508    0.3596   -0.3789 N   0  0  0  0  0  0  0  0  0  0  0  0
    6.4094   -0.2006    0.1645 C   0  0  0  0  0  0  0  0  0  0  0  0
    6.3846   -1.0584    1.1161 O   0  0  0  0  0  0  0  0  0  0  0  0
    7.7258    0.1713   -0.3348 C   0  0  0  0  0  0  0  0  0  0  0  0
    7.9502    1.0367   -1.3080 C   0  0  0  0  0  0  0  0  0  0  0  0
    3.4996   -0.4996    1.1210 C   0  0  0  0  0  0  0  0  0  0  0  0
    2.1765   -0.6832    1.4144 C   0  0  0  0  0  0  0  0  0  0  0  0
   -2.4215   -0.4727    0.8658 C   0  0  0  0  0  0  0  0  0  0  0  0
   -2.5140    0.1920   -0.3628 C   0  0  0  0  0  0  0  0  0  0  0  0
   -3.7280    0.4858   -0.9461 C   0  0  0  0  0  0  0  0  0  0  0  0
   -3.8166    1.1498   -2.1732 O   0  0  0  0  0  0  0  0  0  0  0  0
   -2.6587    1.5432   -2.8586 C   0  0  0  0  0  0  0  0  0  0  0  0
   -8.1490    0.2720   -0.8099 H   0  0  0  0  0  0  0  0  0  0  0  0
   -7.3401    0.5666    0.7889 H   0  0  0  0  0  0  0  0  0  0  0  0
   -7.2775   -1.0790    0.1042 H   0  0  0  0  0  0  0  0  0  0  0  0
   -5.6634   -0.8631    1.4742 H   0  0  0  0  0  0  0  0  0  0  0  0
   -2.2476   -2.2990    4.2386 H   0  0  0  0  0  0  0  0  0  0  0  0
   -0.1932   -1.6450    3.1034 H   0  0  0  0  0  0  0  0  0  0  0  0
    0.8710    0.7750   -1.3253 H   0  0  0  0  0  0  0  0  0  0  0  0
    3.2355    1.1032   -1.8532 H   0  0  0  0  0  0  0  0  0  0  0  0
    5.4149    1.0672   -1.1693 H   0  0  0  0  0  0  0  0  0  0  0  0
    8.5972   -0.3202    0.1517 H   0  0  0  0  0  0  0  0  0  0  0  0
    7.1849    1.5507   -1.8265 H   0  0  0  0  0  0  0  0  0  0  0  0
    8.9764    1.2664   -1.6306 H   0  0  0  0  0  0  0  0  0  0  0  0
    4.2280   -0.8623    1.8364 H   0  0  0  0  0  0  0  0  0  0  0  0
    1.8852   -1.1948    2.3497 H   0  0  0  0  0  0  0  0  0  0  0  0
   -1.6032    0.4764   -0.8559 H   0  0  0  0  0  0  0  0  0  0  0  0
   -2.2227    2.4937   -2.4439 H   0  0  0  0  0  0  0  0  0  0  0  0
   -2.9247    1.7104   -3.9392 H   0  0  0  0  0  0  0  0  0  0  0  0
   -1.8587    0.7986   -2.8565 H   0  0  0  0  0  0  0  0  0  0  0  0
  1  2  1  0
  2  3  1  0
  3  4  2  0
  4  5  1  0
  5  6  2  0
  6  7  1  0
  7  8  2  0
  8  9  1  0
  9 10  1  0
 10 11  1  0
 11 12  2  0
 12 13  1  0
 13 14  2  0
 14 15  1  0
 15 16  1  0
 16 17  2  0
 16 18  1  0
 18 19  2  3
 14 20  1  0
 20 21  2  0
  9 22  2  0
 22 23  1  0
 23 24  2  0
 24 25  1  0
 25 26  1  0
 24  3  1  0
 22  5  1  0
 21 11  1  0
  1 27  1  0
  1 28  1  0
  1 29  1  0
  4 30  1  0
  7 31  1  0
  8 32  1  0
 12 33  1  0
 13 34  1  0
 15 35  1  0
 18 36  1  0
 19 37  1  0
 19 38  1  0
 20 39  1  0
 21 40  1  0
 23 41  1  0
 26 42  1  0
 26 43  1  0
 26 44  1  0
M  END
$$$$
[H]OC(=O)[C@@]([H])(N([H])C(=O)[C@@]([H])(N([H])C(=O)[C@@]([H])(N([H])C(=O)[C@@]([H])(N([H])[H])C([H])([H])c1c([H])c([H])c(O[H])c(F)c1[H])[C@]([H])(C([H])([H])[H])C([H])([H])C([H])([H])[H])C([H])([H])[H])C([H])([H])c1c([H])n([H])c2c([H])c([H])c([H])c([H])c12
     RDKit          3D

 77 79  0  0  0  0  0  0  0  0999 V2000
    3.1837   -2.2408   -2.7269 C   0  0  0  0  0  0  0  0  0  0  0  0
    2.6592   -2.6539   -1.3699 C   0  0  0  0  0  0  0  0  0  0  0  0
    1.5881   -1.6697   -0.9064 C   0  0  1  0  0  0  0  0  0  0  0  0
    1.0376   -2.0428    0.4365 C   0  0  0  0  0  0  0  0  0  0  0  0
    2.1049   -0.2568   -0.8812 C   0  0  2  0  0  0  0  0  0  0  0  0
    3.2279   -0.1000    0.0120 N   0  0  0  0  0  0  0  0  0  0  0  0
    4.4301    0.5266   -0.4001 C   0  0  0  0  0  0  0  0  0  0  0  0
    4.5009    0.9530   -1.5786 O   0  0  0  0  0  0  0  0  0  0  0  0
    5.6183    0.7160    0.4657 C   0  0  1  0  0  0  0  0  0  0  0  0
    5.3978    0.1243    1.7741 N   0  0  0  0  0  0  0  0  0  0  0  0
    6.8332    0.0502   -0.1480 C   0  0  0  0  0  0  0  0  0  0  0  0
    8.0399    0.2301    0.7113 C   0  0  0  0  0  0  0  0  0  0  0  0
    8.3649   -0.6898    1.6794 C   0  0  0  0  0  0  0  0  0  0  0  0
    9.4839   -0.5022    2.4604 C   0  0  0  0  0  0  0  0  0  0  0  0
   10.3127    0.5724    2.3270 C   0  0  0  0  0  0  0  0  0  0  0  0
   11.4431    0.7616    3.1151 O   0  0  0  0  0  0  0  0  0  0  0  0
    9.9677    1.4949    1.3399 C   0  0  0  0  0  0  0  0  0  0  0  0
   10.7591    2.6003    1.1527 F   0  0  0  0  0  0  0  0  0  0  0  0
    8.8575    1.3266    0.5515 C   0  0  0  0  0  0  0  0  0  0  0  0
    0.9462    0.6069   -0.4647 C   0  0  0  0  0  0  0  0  0  0  0  0
    1.0143    1.3415    0.5566 O   0  0  0  0  0  0  0  0  0  0  0  0
   -0.2516    0.6096   -1.2214 N   0  0  0  0  0  0  0  0  0  0  0  0
   -1.4258    1.3790   -0.9403 C   0  0  1  0  0  0  0  0  0  0  0  0
   -1.6513    2.4821   -1.9551 C   0  0  0  0  0  0  0  0  0  0  0  0
   -2.6352    0.5275   -0.8087 C   0  0  0  0  0  0  0  0  0  0  0  0
   -2.5660   -0.7368   -0.9156 O   0  0  0  0  0  0  0  0  0  0  0  0
   -3.9210    1.0768   -0.5601 N   0  0  0  0  0  0  0  0  0  0  0  0
   -5.1123    0.1992   -0.4352 C   0  0  1  0  0  0  0  0  0  0  0  0
   -5.7047    0.5336    0.8730 C   0  0  0  0  0  0  0  0  0  0  0  0
   -6.9270   -0.1394    1.2954 C   0  0  0  0  0  0  0  0  0  0  0  0
   -7.0504   -1.3392    1.9932 C   0  0  0  0  0  0  0  0  0  0  0  0
   -8.3391   -1.6219    2.1356 N   0  0  0  0  0  0  0  0  0  0  0  0
   -9.1035   -0.6617    1.5631 C   0  0  0  0  0  0  0  0  0  0  0  0
  -10.4657   -0.4779    1.4571 C   0  0  0  0  0  0  0  0  0  0  0  0
  -10.9714    0.6367    0.8265 C   0  0  0  0  0  0  0  0  0  0  0  0
  -10.1194    1.5767    0.2967 C   0  0  0  0  0  0  0  0  0  0  0  0
   -8.7689    1.3741    0.4119 C   0  0  0  0  0  0  0  0  0  0  0  0
   -8.2123    0.2543    1.0447 C   0  0  0  0  0  0  0  0  0  0  0  0
   -5.9639    0.3265   -1.6189 C   0  0  0  0  0  0  0  0  0  0  0  0
   -7.0344   -0.5097   -1.8856 O   0  0  0  0  0  0  0  0  0  0  0  0
   -5.7525    1.2345   -2.4934 O   0  0  0  0  0  0  0  0  0  0  0  0
    4.1451   -1.7119   -2.6784 H   0  0  0  0  0  0  0  0  0  0  0  0
    2.3880   -1.6819   -3.2659 H   0  0  0  0  0  0  0  0  0  0  0  0
    3.3679   -3.1587   -3.3539 H   0  0  0  0  0  0  0  0  0  0  0  0
    3.4699   -2.7744   -0.6409 H   0  0  0  0  0  0  0  0  0  0  0  0
    2.1926   -3.6532   -1.4962 H   0  0  0  0  0  0  0  0  0  0  0  0
    0.7607   -1.7459   -1.6397 H   0  0  0  0  0  0  0  0  0  0  0  0
    1.5895   -2.9135    0.8867 H   0  0  0  0  0  0  0  0  0  0  0  0
    1.0571   -1.1611    1.1435 H   0  0  0  0  0  0  0  0  0  0  0  0
   -0.0254   -2.3570    0.3969 H   0  0  0  0  0  0  0  0  0  0  0  0
    2.4035    0.1357   -1.8703 H   0  0  0  0  0  0  0  0  0  0  0  0
    3.1676   -0.4524    0.9911 H   0  0  0  0  0  0  0  0  0  0  0  0
    5.7915    1.8050    0.6273 H   0  0  0  0  0  0  0  0  0  0  0  0
    5.1961   -0.9090    1.6959 H   0  0  0  0  0  0  0  0  0  0  0  0
    4.5740    0.5710    2.2594 H   0  0  0  0  0  0  0  0  0  0  0  0
    7.0173    0.5268   -1.1447 H   0  0  0  0  0  0  0  0  0  0  0  0
    6.6751   -1.0355   -0.2822 H   0  0  0  0  0  0  0  0  0  0  0  0
    7.7340   -1.5775    1.8318 H   0  0  0  0  0  0  0  0  0  0  0  0
    9.7455   -1.2282    3.2288 H   0  0  0  0  0  0  0  0  0  0  0  0
   12.0042    1.5794    2.9543 H   0  0  0  0  0  0  0  0  0  0  0  0
    8.6290    2.0735   -0.2054 H   0  0  0  0  0  0  0  0  0  0  0  0
   -0.2921   -0.0043   -2.0642 H   0  0  0  0  0  0  0  0  0  0  0  0
   -1.2467    1.9056    0.0253 H   0  0  0  0  0  0  0  0  0  0  0  0
   -2.2799    3.2971   -1.5439 H   0  0  0  0  0  0  0  0  0  0  0  0
   -0.6536    2.9471   -2.1783 H   0  0  0  0  0  0  0  0  0  0  0  0
   -2.0389    2.1103   -2.9248 H   0  0  0  0  0  0  0  0  0  0  0  0
   -3.9976    2.1101   -0.4689 H   0  0  0  0  0  0  0  0  0  0  0  0
   -4.6795   -0.8455   -0.4629 H   0  0  0  0  0  0  0  0  0  0  0  0
   -4.9291    0.3112    1.6783 H   0  0  0  0  0  0  0  0  0  0  0  0
   -5.8288    1.6543    0.9474 H   0  0  0  0  0  0  0  0  0  0  0  0
   -6.1890   -1.8932    2.3321 H   0  0  0  0  0  0  0  0  0  0  0  0
   -8.7407   -2.4586    2.6159 H   0  0  0  0  0  0  0  0  0  0  0  0
  -11.1565   -1.1942    1.8614 H   0  0  0  0  0  0  0  0  0  0  0  0
  -12.0454    0.8025    0.7307 H   0  0  0  0  0  0  0  0  0  0  0  0
  -10.5135    2.4482   -0.1957 H   0  0  0  0  0  0  0  0  0  0  0  0
   -8.0905    2.1141   -0.0055 H   0  0  0  0  0  0  0  0  0  0  0  0
   -6.9957   -1.5085   -1.6765 H   0  0  0  0  0  0  0  0  0  0  0  0
  1  2  1  0
  2  3  1  0
  3  4  1  0
  3  5  1  0
  5  6  1  0
  6  7  1  0
  7  8  2  0
  7  9  1  0
  9 10  1  0
  9 11  1  0
 11 12  1  0
 12 13  2  0
 13 14  1  0
 14 15  2  0
 15 16  1  0
 15 17  1  0
 17 18  1  0
 17 19  2  0
  5 20  1  0
 20 21  2  0
 20 22  1  0
 22 23  1  0
 23 24  1  0
 23 25  1  0
 25 26  2  0
 25 27  1  0
 27 28  1  0
 28 29  1  0
 29 30  1  0
 30 31  2  0
 31 32  1  0
 32 33  1  0
 33 34  2  0
 34 35  1  0
 35 36  2  0
 36 37  1  0
 37 38  2  0
 28 39  1  0
 39 40  1  0
 39 41  2  0
 19 12  1  0
 38 30  1  0
 38 33  1  0
  1 42  1  0
  1 43  1  0
  1 44  1  0
  2 45  1  0
  2 46  1  0
  3 47  1  6
  4 48  1  0
  4 49  1  0
  4 50  1  0
  5 51  1  6
  6 52  1  0
  9 53  1  1
 10 54  1  0
 10 55  1  0
 11 56  1  0
 11 57  1  0
 13 58  1  0
 14 59  1  0
 16 60  1  0
 19 61  1  0
 22 62  1  0
 23 63  1  1
 24 64  1  0
 24 65  1  0
 24 66  1  0
 27 67  1  0
 28 68  1  1
 29 69  1  0
 29 70  1  0
 31 71  1  0
 32 72  1  0
 34 73  1  0
 35 74  1  0
 36 75  1  0
 37 76  1  0
 40 77  1  0
M  END
$$$$
[H]ON([H])C(=O)[C@@]1([H])N(c2c([H])c([H])c(N([H])c3nc([H])c(Cl)c(N([H])c4c([H])c([H])c([H])c([H])c4S(=O)(=O)C(F)(F)F)n3)c(OC([H])([H])[H])c2[H])C([H])([H])C([H])([H])C1([H])[H]
     RDKit          3D

 61 64  0  0  0  0  0  0  0  0999 V2000
   -1.9402    3.2088    0.5569 C   0  0  0  0  0  0  0  0  0  0  0  0
   -1.2164    2.0274    0.2753 O   0  0  0  0  0  0  0  0  0  0  0  0
   -1.8547    0.8123    0.1618 C   0  0  0  0  0  0  0  0  0  0  0  0
   -3.2090    0.6913    0.3186 C   0  0  0  0  0  0  0  0  0  0  0  0
   -3.8715   -0.4966    0.2111 C   0  0  0  0  0  0  0  0  0  0  0  0
   -3.0911   -1.6025   -0.0752 C   0  0  0  0  0  0  0  0  0  0  0  0
   -1.7035   -1.5238   -0.2418 C   0  0  0  0  0  0  0  0  0  0  0  0
   -1.0527   -0.3108   -0.1244 C   0  0  0  0  0  0  0  0  0  0  0  0
    0.3434   -0.1369   -0.1908 N   0  0  0  0  0  0  0  0  0  0  0  0
    1.3128   -1.0880   -0.4943 C   0  0  0  0  0  0  0  0  0  0  0  0
    1.1185   -2.3739   -0.8378 N   0  0  0  0  0  0  0  0  0  0  0  0
    2.1659   -3.1777   -1.0304 C   0  0  0  0  0  0  0  0  0  0  0  0
    3.4565   -2.7419   -0.8910 C   0  0  0  0  0  0  0  0  0  0  0  0
    4.8059   -3.7979   -1.1472 Cl  0  0  0  0  0  0  0  0  0  0  0  0
    3.6978   -1.4144   -0.5344 C   0  0  0  0  0  0  0  0  0  0  0  0
    5.0253   -0.9725   -0.2825 N   0  0  0  0  0  0  0  0  0  0  0  0
    5.3755    0.3497    0.0131 C   0  0  0  0  0  0  0  0  0  0  0  0
    4.5920    1.4488   -0.2125 C   0  0  0  0  0  0  0  0  0  0  0  0
    4.9413    2.7654    0.0975 C   0  0  0  0  0  0  0  0  0  0  0  0
    6.1685    2.9772    0.6731 C   0  0  0  0  0  0  0  0  0  0  0  0
    7.0004    1.9316    0.9251 C   0  0  0  0  0  0  0  0  0  0  0  0
    6.6284    0.6339    0.6065 C   0  0  0  0  0  0  0  0  0  0  0  0
    7.7969   -0.5972    0.9005 S   0  0  0  0  0  0  0  0  0  0  0  0
    8.8035   -0.0532    1.9319 O   0  0  0  0  0  0  0  0  0  0  0  0
    7.1987   -1.8653    1.4633 O   0  0  0  0  0  0  0  0  0  0  0  0
    8.7761   -1.0327   -0.5017 C   0  0  0  0  0  0  0  0  0  0  0  0
    9.6569   -2.0788   -0.1659 F   0  0  0  0  0  0  0  0  0  0  0  0
    8.0586   -1.3187   -1.5903 F   0  0  0  0  0  0  0  0  0  0  0  0
    9.6862    0.0343   -0.7606 F   0  0  0  0  0  0  0  0  0  0  0  0
    2.6177   -0.6666   -0.3589 N   0  0  0  0  0  0  0  0  0  0  0  0
   -5.2726   -0.6938    0.4717 N   0  0  0  0  0  0  0  0  0  0  0  0
   -5.7344   -0.9531    1.8701 C   0  0  0  0  0  0  0  0  0  0  0  0
   -7.2270   -0.8631    1.8442 C   0  0  0  0  0  0  0  0  0  0  0  0
   -7.5956   -0.3741    0.4847 C   0  0  0  0  0  0  0  0  0  0  0  0
   -6.3658   -0.7428   -0.3641 C   0  0  1  0  0  0  0  0  0  0  0  0
   -6.4301    0.1262   -1.5882 C   0  0  0  0  0  0  0  0  0  0  0  0
   -7.5497   -0.2274   -2.2382 O   0  0  0  0  0  0  0  0  0  0  0  0
   -5.6395    1.0856   -2.0554 N   0  0  0  0  0  0  0  0  0  0  0  0
   -4.8615    2.0298   -2.5152 O   0  0  0  0  0  0  0  0  0  0  0  0
   -2.2382    3.2766    1.6159 H   0  0  0  0  0  0  0  0  0  0  0  0
   -1.3422    4.0986    0.2011 H   0  0  0  0  0  0  0  0  0  0  0  0
   -2.8884    3.2859   -0.0218 H   0  0  0  0  0  0  0  0  0  0  0  0
   -3.8167    1.5771    0.5399 H   0  0  0  0  0  0  0  0  0  0  0  0
   -3.5432   -2.5941   -0.1789 H   0  0  0  0  0  0  0  0  0  0  0  0
   -1.1523   -2.4177   -0.4575 H   0  0  0  0  0  0  0  0  0  0  0  0
    0.6945    0.8480    0.0203 H   0  0  0  0  0  0  0  0  0  0  0  0
    1.9446   -4.2236   -1.3113 H   0  0  0  0  0  0  0  0  0  0  0  0
    5.7376   -1.7259   -0.3218 H   0  0  0  0  0  0  0  0  0  0  0  0
    3.6237    1.3282   -0.6951 H   0  0  0  0  0  0  0  0  0  0  0  0
    4.2864    3.5928   -0.1070 H   0  0  0  0  0  0  0  0  0  0  0  0
    6.4448    4.0205    0.9118 H   0  0  0  0  0  0  0  0  0  0  0  0
    7.9533    2.1178    1.3741 H   0  0  0  0  0  0  0  0  0  0  0  0
   -5.2303   -0.2828    2.5717 H   0  0  0  0  0  0  0  0  0  0  0  0
   -5.4136   -2.0226    2.0621 H   0  0  0  0  0  0  0  0  0  0  0  0
   -7.6582   -1.9011    1.9385 H   0  0  0  0  0  0  0  0  0  0  0  0
   -7.6253   -0.2114    2.6591 H   0  0  0  0  0  0  0  0  0  0  0  0
   -7.7323    0.7340    0.4933 H   0  0  0  0  0  0  0  0  0  0  0  0
   -8.4801   -0.8871    0.0615 H   0  0  0  0  0  0  0  0  0  0  0  0
   -6.5780   -1.8228   -0.6579 H   0  0  0  0  0  0  0  0  0  0  0  0
   -6.4422    1.2834   -3.1429 H   0  0  0  0  0  0  0  0  0  0  0  0
   -5.1558    2.9075   -2.1597 H   0  0  0  0  0  0  0  0  0  0  0  0
  1  2  1  0
  2  3  1  0
  3  4  2  0
  4  5  1  0
  5  6  2  0
  6  7  1  0
  7  8  2  0
  8  9  1  0
  9 10  1  0
 10 11  2  0
 11 12  1  0
 12 13  2  0
 13 14  1  0
 13 15  1  0
 15 16  1  0
 16 17  1  0
 17 18  2  0
 18 19  1  0
 19 20  2  0
 20 21  1  0
 21 22  2  0
 22 23  1  0
 23 24  2  0
 23 25  2  0
 23 26  1  0
 26 27  1  0
 26 28  1  0
 26 29  1  0
 15 30  2  0
  5 31  1  0
 31 32  1  0
 32 33  1  0
 33 34  1  0
 34 35  1  0
 35 36  1  0
 36 37  2  0
 36 38  1  0
 38 39  1  0
  8  3  1  0
 30 10  1  0
 35 31  1  0
 22 17  1  0
  1 40  1  0
  1 41  1  0
  1 42  1  0
  4 43  1  0
  6 44  1  0
  7 45  1  0
  9 46  1  0
 12 47  1  0
 16 48  1  0
 18 49  1  0
 19 50  1  0
 20 51  1  0
 21 52  1  0
 32 53  1  0
 32 54  1  0
 33 55  1  0
 33 56  1  0
 34 57  1  0
 34 58  1  0
 35 59  1  6
 38 60  1  0
 39 61  1  0
M  END
$$$$
[H]c1nc(N([H])c2c([H])c([H])c(N3C([H])([H])C([H])([H])N(c4c([H])c([H])c([H])c([H])c4[H])C([H])([H])C3([H])[H])c([H])c2OC([H])([H])[H])nc(N([H])c2c([H])c([H])c([H])c([H])c2P(=O)(C([H])([H])[H])C([H])([H])[H])c1Cl
     RDKit          3D

 71 75  0  0  0  0  0  0  0  0999 V2000
    0.7147   -2.5699   -3.0310 C   0  0  0  0  0  0  0  0  0  0  0  0
    0.0421   -1.8118   -2.0587 O   0  0  0  0  0  0  0  0  0  0  0  0
    0.8135   -1.2172   -1.0423 C   0  0  0  0  0  0  0  0  0  0  0  0
    2.1698   -1.3998   -1.0503 C   0  0  0  0  0  0  0  0  0  0  0  0
    2.9544   -0.8434   -0.0884 C   0  0  0  0  0  0  0  0  0  0  0  0
    2.3216   -0.0977    0.8798 C   0  0  0  0  0  0  0  0  0  0  0  0
    0.9326    0.0949    0.8947 C   0  0  0  0  0  0  0  0  0  0  0  0
    0.1318   -0.4639   -0.0740 C   0  0  0  0  0  0  0  0  0  0  0  0
   -1.2563   -0.3486   -0.1522 N   0  0  0  0  0  0  0  0  0  0  0  0
   -2.1298    0.4106    0.6382 C   0  0  0  0  0  0  0  0  0  0  0  0
   -1.7733    1.2082    1.6535 N   0  0  0  0  0  0  0  0  0  0  0  0
   -2.6069    1.9219    2.3992 C   0  0  0  0  0  0  0  0  0  0  0  0
   -3.9646    1.8703    2.1447 C   0  0  0  0  0  0  0  0  0  0  0  0
   -5.1237    2.7816    3.0712 Cl  0  0  0  0  0  0  0  0  0  0  0  0
   -4.3934    1.0524    1.0938 C   0  0  0  0  0  0  0  0  0  0  0  0
   -5.7820    1.0100    0.8258 N   0  0  0  0  0  0  0  0  0  0  0  0
   -6.4791    0.2788   -0.1517 C   0  0  0  0  0  0  0  0  0  0  0  0
   -5.9257   -0.6912   -0.9636 C   0  0  0  0  0  0  0  0  0  0  0  0
   -6.7217   -1.3673   -1.8743 C   0  0  0  0  0  0  0  0  0  0  0  0
   -8.0590   -1.1255   -2.0196 C   0  0  0  0  0  0  0  0  0  0  0  0
   -8.6111   -0.1619   -1.2131 C   0  0  0  0  0  0  0  0  0  0  0  0
   -7.8551    0.5422   -0.2877 C   0  0  0  0  0  0  0  0  0  0  0  0
   -8.6120    1.7942    0.7155 P   0  0  0  0  0  0  0  0  0  0  0  0
  -10.3101    2.0551    0.0475 C   0  0  0  0  0  0  0  0  0  0  0  0
   -8.8329    1.3172    2.4329 C   0  0  0  0  0  0  0  0  0  0  0  0
   -7.9462    3.1540    0.5537 O   0  0  0  0  0  0  0  0  0  0  0  0
   -3.4741    0.3745    0.4036 N   0  0  0  0  0  0  0  0  0  0  0  0
    4.3689   -0.9917   -0.0705 N   0  0  0  0  0  0  0  0  0  0  0  0
    5.0466   -1.3669   -1.2920 C   0  0  0  0  0  0  0  0  0  0  0  0
    6.3532   -0.5982   -1.4357 C   0  0  0  0  0  0  0  0  0  0  0  0
    7.1162   -0.6363   -0.2038 N   0  0  0  0  0  0  0  0  0  0  0  0
    6.5655   -1.2453    0.9616 C   0  0  0  0  0  0  0  0  0  0  0  0
    5.1238   -0.7921    1.1414 C   0  0  0  0  0  0  0  0  0  0  0  0
    8.4088   -0.0512   -0.1957 C   0  0  0  0  0  0  0  0  0  0  0  0
    9.3338   -0.2432    0.8201 C   0  0  0  0  0  0  0  0  0  0  0  0
   10.5566    0.3808    0.7420 C   0  0  0  0  0  0  0  0  0  0  0  0
   10.9121    1.2044   -0.3192 C   0  0  0  0  0  0  0  0  0  0  0  0
    9.9824    1.3784   -1.3100 C   0  0  0  0  0  0  0  0  0  0  0  0
    8.7648    0.7762   -1.2634 C   0  0  0  0  0  0  0  0  0  0  0  0
    1.4165   -1.9341   -3.6085 H   0  0  0  0  0  0  0  0  0  0  0  0
    0.0260   -3.0742   -3.7367 H   0  0  0  0  0  0  0  0  0  0  0  0
    1.3607   -3.3554   -2.5398 H   0  0  0  0  0  0  0  0  0  0  0  0
    2.6647   -1.9966   -1.8205 H   0  0  0  0  0  0  0  0  0  0  0  0
    2.9161    0.3648    1.6664 H   0  0  0  0  0  0  0  0  0  0  0  0
    0.4967    0.6792    1.6736 H   0  0  0  0  0  0  0  0  0  0  0  0
   -1.7323   -0.9227   -0.9231 H   0  0  0  0  0  0  0  0  0  0  0  0
   -2.2943    2.5703    3.2278 H   0  0  0  0  0  0  0  0  0  0  0  0
   -6.3778    1.6027    1.4649 H   0  0  0  0  0  0  0  0  0  0  0  0
   -4.8767   -0.9224   -0.8804 H   0  0  0  0  0  0  0  0  0  0  0  0
   -6.2212   -2.1224   -2.4888 H   0  0  0  0  0  0  0  0  0  0  0  0
   -8.6489   -1.6515   -2.7185 H   0  0  0  0  0  0  0  0  0  0  0  0
   -9.6863    0.0529   -1.3067 H   0  0  0  0  0  0  0  0  0  0  0  0
  -10.3469    1.9460   -1.0390 H   0  0  0  0  0  0  0  0  0  0  0  0
  -10.6773    3.0609    0.3493 H   0  0  0  0  0  0  0  0  0  0  0  0
  -10.9743    1.2954    0.5012 H   0  0  0  0  0  0  0  0  0  0  0  0
   -9.8527    1.5673    2.8009 H   0  0  0  0  0  0  0  0  0  0  0  0
   -8.0905    1.7160    3.1220 H   0  0  0  0  0  0  0  0  0  0  0  0
   -8.7660    0.2021    2.5052 H   0  0  0  0  0  0  0  0  0  0  0  0
    4.4197   -1.0504   -2.1437 H   0  0  0  0  0  0  0  0  0  0  0  0
    5.2001   -2.4573   -1.2595 H   0  0  0  0  0  0  0  0  0  0  0  0
    6.9562   -1.0920   -2.2163 H   0  0  0  0  0  0  0  0  0  0  0  0
    6.1428    0.4256   -1.7476 H   0  0  0  0  0  0  0  0  0  0  0  0
    7.1111   -0.9724    1.8731 H   0  0  0  0  0  0  0  0  0  0  0  0
    6.6226   -2.3485    0.8379 H   0  0  0  0  0  0  0  0  0  0  0  0
    5.1502    0.2668    1.4459 H   0  0  0  0  0  0  0  0  0  0  0  0
    4.7184   -1.4307    1.9772 H   0  0  0  0  0  0  0  0  0  0  0  0
    9.0756   -0.8786    1.6399 H   0  0  0  0  0  0  0  0  0  0  0  0
   11.2702    0.2259    1.5452 H   0  0  0  0  0  0  0  0  0  0  0  0
   11.8877    1.6607   -0.3131 H   0  0  0  0  0  0  0  0  0  0  0  0
   10.2745    2.0351   -2.1457 H   0  0  0  0  0  0  0  0  0  0  0  0
    8.0793    0.9551   -2.0701 H   0  0  0  0  0  0  0  0  0  0  0  0
  1  2  1  0
  2  3  1  0
  3  4  2  0
  4  5  1  0
  5  6  2  0
  6  7  1  0
  7  8  2  0
  8  9  1  0
  9 10  1  0
 10 11  2  0
 11 12  1  0
 12 13  2  0
 13 14  1  0
 13 15  1  0
 15 16  1  0
 16 17  1  0
 17 18  2  0
 18 19  1  0
 19 20  2  0
 20 21  1  0
 21 22  2  0
 22 23  1  0
 23 24  1  0
 23 25  1  0
 23 26  2  0
 15 27  2  0
  5 28  1  0
 28 29  1  0
 29 30  1  0
 30 31  1  0
 31 32  1  0
 32 33  1  0
 31 34  1  0
 34 35  2  0
 35 36  1  0
 36 37  2  0
 37 38  1  0
 38 39  2  0
  8  3  1  0
 27 10  1  0
 33 28  1  0
 39 34  1  0
 22 17  1  0
  1 40  1  0
  1 41  1  0
  1 42  1  0
  4 43  1  0
  6 44  1  0
  7 45  1  0
  9 46  1  0
 12 47  1  0
 16 48  1  0
 18 49  1  0
 19 50  1  0
 20 51  1  0
 21 52  1  0
 24 53  1  0
 24 54  1  0
 24 55  1  0
 25 56  1  0
 25 57  1  0
 25 58  1  0
 29 59  1  0
 29 60  1  0
 30 61  1  0
 30 62  1  0
 32 63  1  0
 32 64  1  0
 33 65  1  0
 33 66  1  0
 35 67  1  0
 36 68  1  0
 37 69  1  0
 38 70  1  0
 39 71  1  0
M  END
$$$$
[H]O[C@]([H])(C([H])([H])[H])[C@]([H])(C(=O)N([H])[C@@]([H])(C(=O)N([H])[C@]([H])(C(=O)N([H])[H])C([H])([H])c1c([H])c([H])c([H])c([H])c1[H])C([H])([H])c1c([H])c([H])c([H])c([H])c1[H])N([H])C(=O)[C@]([H])(N([H])C(=O)C(C([H])([H])[H])(C([H])([H])[H])C([H])([H])[H])C([H])([H])c1c([H])n([H])c2c([H])c([H])c([H])c([H])c12
     RDKit          3D

 96 99  0  0  0  0  0  0  0  0999 V2000
    1.5699    4.1519   -0.1067 C   0  0  0  0  0  0  0  0  0  0  0  0
    0.2138    3.8056   -0.6799 C   0  0  1  0  0  0  0  0  0  0  0  0
    0.3502    3.8500   -2.0880 O   0  0  0  0  0  0  0  0  0  0  0  0
   -0.2440    2.4684   -0.2018 C   0  0  1  0  0  0  0  0  0  0  0  0
   -1.5500    2.1256   -0.7723 N   0  0  0  0  0  0  0  0  0  0  0  0
   -2.6603    1.8698    0.0735 C   0  0  0  0  0  0  0  0  0  0  0  0
   -2.5492    1.9332    1.3174 O   0  0  0  0  0  0  0  0  0  0  0  0
   -3.9564    1.5231   -0.5276 C   0  0  1  0  0  0  0  0  0  0  0  0
   -3.8068    0.3337   -1.4877 C   0  0  0  0  0  0  0  0  0  0  0  0
   -5.1038    0.0415   -2.1190 C   0  0  0  0  0  0  0  0  0  0  0  0
   -6.2531    0.7985   -2.1284 C   0  0  0  0  0  0  0  0  0  0  0  0
   -7.2087    0.1657   -2.8549 N   0  0  0  0  0  0  0  0  0  0  0  0
   -6.6857   -0.9696   -3.3001 C   0  0  0  0  0  0  0  0  0  0  0  0
   -7.2935   -1.9538   -4.0910 C   0  0  0  0  0  0  0  0  0  0  0  0
   -6.5443   -3.0491   -4.4246 C   0  0  0  0  0  0  0  0  0  0  0  0
   -5.2356   -3.1897   -4.0019 C   0  0  0  0  0  0  0  0  0  0  0  0
   -4.6553   -2.2058   -3.2221 C   0  0  0  0  0  0  0  0  0  0  0  0
   -5.3983   -1.0968   -2.8790 C   0  0  0  0  0  0  0  0  0  0  0  0
   -4.8769    1.2770    0.5432 N   0  0  0  0  0  0  0  0  0  0  0  0
   -5.2978    0.0573    1.0874 C   0  0  0  0  0  0  0  0  0  0  0  0
   -4.8719   -1.0480    0.6792 O   0  0  0  0  0  0  0  0  0  0  0  0
   -6.2862    0.0016    2.1949 C   0  0  0  0  0  0  0  0  0  0  0  0
   -6.4787   -1.4296    2.6503 C   0  0  0  0  0  0  0  0  0  0  0  0
   -7.6069    0.6267    1.7870 C   0  0  0  0  0  0  0  0  0  0  0  0
   -5.7688    0.7882    3.3909 C   0  0  0  0  0  0  0  0  0  0  0  0
    0.7184    1.4255   -0.6398 C   0  0  0  0  0  0  0  0  0  0  0  0
    0.4994    0.9370   -1.8052 O   0  0  0  0  0  0  0  0  0  0  0  0
    1.7954    0.9878    0.1526 N   0  0  0  0  0  0  0  0  0  0  0  0
    2.7798   -0.0010   -0.1262 C   0  0  2  0  0  0  0  0  0  0  0  0
    2.5097   -1.3537    0.5163 C   0  0  0  0  0  0  0  0  0  0  0  0
    1.2195   -1.9213    0.0478 C   0  0  0  0  0  0  0  0  0  0  0  0
    1.2309   -2.6385   -1.1338 C   0  0  0  0  0  0  0  0  0  0  0  0
    0.0593   -3.2136   -1.6198 C   0  0  0  0  0  0  0  0  0  0  0  0
   -1.1058   -3.0661   -0.9213 C   0  0  0  0  0  0  0  0  0  0  0  0
   -1.1084   -2.3499    0.2561 C   0  0  0  0  0  0  0  0  0  0  0  0
    0.0462   -1.7898    0.7230 C   0  0  0  0  0  0  0  0  0  0  0  0
    4.1641    0.4158    0.0786 C   0  0  0  0  0  0  0  0  0  0  0  0
    4.3964    1.6418    0.3296 O   0  0  0  0  0  0  0  0  0  0  0  0
    5.2943   -0.4121    0.0321 N   0  0  0  0  0  0  0  0  0  0  0  0
    6.6764    0.0128    0.2459 C   0  0  1  0  0  0  0  0  0  0  0  0
    6.9223   -0.0025    1.7564 C   0  0  0  0  0  0  0  0  0  0  0  0
    8.2689    0.3958    2.1047 C   0  0  0  0  0  0  0  0  0  0  0  0
    9.2347   -0.5682    2.4463 C   0  0  0  0  0  0  0  0  0  0  0  0
   10.5134   -0.2141    2.7949 C   0  0  0  0  0  0  0  0  0  0  0  0
   10.8993    1.1132    2.8205 C   0  0  0  0  0  0  0  0  0  0  0  0
    9.9771    2.0692    2.4919 C   0  0  0  0  0  0  0  0  0  0  0  0
    8.7025    1.7029    2.1461 C   0  0  0  0  0  0  0  0  0  0  0  0
    7.5926   -0.8708   -0.4492 C   0  0  0  0  0  0  0  0  0  0  0  0
    8.9842   -0.6926   -0.5873 N   0  0  0  0  0  0  0  0  0  0  0  0
    7.1184   -1.9211   -1.0064 O   0  0  0  0  0  0  0  0  0  0  0  0
    1.9008    5.1631   -0.4942 H   0  0  0  0  0  0  0  0  0  0  0  0
    1.5609    4.2402    1.0068 H   0  0  0  0  0  0  0  0  0  0  0  0
    2.3435    3.4541   -0.4768 H   0  0  0  0  0  0  0  0  0  0  0  0
   -0.5074    4.6242   -0.3929 H   0  0  0  0  0  0  0  0  0  0  0  0
   -0.5185    3.8787   -2.5277 H   0  0  0  0  0  0  0  0  0  0  0  0
   -0.3410    2.5056    0.9035 H   0  0  0  0  0  0  0  0  0  0  0  0
   -1.6394    2.0748   -1.7848 H   0  0  0  0  0  0  0  0  0  0  0  0
   -4.3827    2.3323   -1.1531 H   0  0  0  0  0  0  0  0  0  0  0  0
   -3.1180    0.7440   -2.2937 H   0  0  0  0  0  0  0  0  0  0  0  0
   -3.2746   -0.5089   -1.0609 H   0  0  0  0  0  0  0  0  0  0  0  0
   -6.3755    1.7503   -1.6364 H   0  0  0  0  0  0  0  0  0  0  0  0
   -8.1478    0.5666   -2.9892 H   0  0  0  0  0  0  0  0  0  0  0  0
   -8.3153   -1.8300   -4.4140 H   0  0  0  0  0  0  0  0  0  0  0  0
   -7.0170   -3.8237   -5.0446 H   0  0  0  0  0  0  0  0  0  0  0  0
   -4.6875   -4.0676   -4.2885 H   0  0  0  0  0  0  0  0  0  0  0  0
   -3.6333   -2.3089   -2.8856 H   0  0  0  0  0  0  0  0  0  0  0  0
   -5.3025    2.1480    0.9892 H   0  0  0  0  0  0  0  0  0  0  0  0
   -7.5526   -1.5641    2.8983 H   0  0  0  0  0  0  0  0  0  0  0  0
   -5.8204   -1.6685    3.5278 H   0  0  0  0  0  0  0  0  0  0  0  0
   -6.1810   -2.0949    1.8137 H   0  0  0  0  0  0  0  0  0  0  0  0
   -7.9888    0.2501    0.8372 H   0  0  0  0  0  0  0  0  0  0  0  0
   -8.3341    0.3452    2.5934 H   0  0  0  0  0  0  0  0  0  0  0  0
   -7.4541    1.7268    1.7773 H   0  0  0  0  0  0  0  0  0  0  0  0
   -6.4851    0.6036    4.2299 H   0  0  0  0  0  0  0  0  0  0  0  0
   -5.7913    1.8826    3.2053 H   0  0  0  0  0  0  0  0  0  0  0  0
   -4.7878    0.4128    3.7358 H   0  0  0  0  0  0  0  0  0  0  0  0
    1.8782    1.4806    1.1024 H   0  0  0  0  0  0  0  0  0  0  0  0
    2.6698   -0.2348   -1.2410 H   0  0  0  0  0  0  0  0  0  0  0  0
    2.5609   -1.3028    1.6233 H   0  0  0  0  0  0  0  0  0  0  0  0
    3.3127   -2.0374    0.1960 H   0  0  0  0  0  0  0  0  0  0  0  0
    2.1169   -2.7981   -1.7416 H   0  0  0  0  0  0  0  0  0  0  0  0
    0.0460   -3.7772   -2.5415 H   0  0  0  0  0  0  0  0  0  0  0  0
   -2.0508   -3.5124   -1.2825 H   0  0  0  0  0  0  0  0  0  0  0  0
   -2.0644   -2.2410    0.8103 H   0  0  0  0  0  0  0  0  0  0  0  0
    0.0230   -1.2317    1.6453 H   0  0  0  0  0  0  0  0  0  0  0  0
    5.1716   -1.4351   -0.1763 H   0  0  0  0  0  0  0  0  0  0  0  0
    6.8572    1.0713   -0.0333 H   0  0  0  0  0  0  0  0  0  0  0  0
    6.6710   -1.0159    2.1660 H   0  0  0  0  0  0  0  0  0  0  0  0
    6.1463    0.7078    2.1930 H   0  0  0  0  0  0  0  0  0  0  0  0
    8.9009   -1.5944    2.4138 H   0  0  0  0  0  0  0  0  0  0  0  0
   11.2550   -0.9760    3.0706 H   0  0  0  0  0  0  0  0  0  0  0  0
   11.9389    1.3287    3.1065 H   0  0  0  0  0  0  0  0  0  0  0  0
   10.2434    3.1024    2.5100 H   0  0  0  0  0  0  0  0  0  0  0  0
    7.9812    2.4718    1.8887 H   0  0  0  0  0  0  0  0  0  0  0  0
    9.3321    0.2981   -0.6565 H   0  0  0  0  0  0  0  0  0  0  0  0
    9.6693   -1.4844   -0.6218 H   0  0  0  0  0  0  0  0  0  0  0  0
  1  2  1  0
  2  3  1  0
  2  4  1  0
  4  5  1  0
  5  6  1  0
  6  7  2  0
  6  8  1  0
  8  9  1  0
  9 10  1  0
 10 11  2  0
 11 12  1  0
 12 13  1  0
 13 14  2  0
 14 15  1  0
 15 16  2  0
 16 17  1  0
 17 18  2  0
  8 19  1  0
 19 20  1  0
 20 21  2  0
 20 22  1  0
 22 23  1  0
 22 24  1  0
 22 25  1  0
  4 26  1  0
 26 27  2  0
 26 28  1  0
 28 29  1  0
 29 30  1  0
 30 31  1  0
 31 32  2  0
 32 33  1  0
 33 34  2  0
 34 35  1  0
 35 36  2  0
 29 37  1  0
 37 38  2  0
 37 39  1  0
 39 40  1  0
 40 41  1  0
 41 42  1  0
 42 43  2  0
 43 44  1  0
 44 45  2  0
 45 46  1  0
 46 47  2  0
 40 48  1  0
 48 49  1  0
 48 50  2  0
 18 10  1  0
 36 31  1  0
 47 42  1  0
 18 13  1  0
  1 51  1  0
  1 52  1  0
  1 53  1  0
  2 54  1  1
  3 55  1  0
  4 56  1  1
  5 57  1  0
  8 58  1  6
  9 59  1  0
  9 60  1  0
 11 61  1  0
 12 62  1  0
 14 63  1  0
 15 64  1  0
 16 65  1  0
 17 66  1  0
 19 67  1  0
 23 68  1  0
 23 69  1  0
 23 70  1  0
 24 71  1  0
 24 72  1  0
 24 73  1  0
 25 74  1  0
 25 75  1  0
 25 76  1  0
 28 77  1  0
 29 78  1  6
 30 79  1  0
 30 80  1  0
 32 81  1  0
 33 82  1  0
 34 83  1  0
 35 84  1  0
 36 85  1  0
 39 86  1  0
 40 87  1  6
 41 88  1  0
 41 89  1  0
 43 90  1  0
 44 91  1  0
 45 92  1  0
 46 93  1  0
 47 94  1  0
 49 95  1  0
 49 96  1  0
M  END
$$$$
[H]c1nc(N([H])[H])c(C(F)(F)F)c([H])c1-c1c([H])c(N([H])C(=O)c2c([H])c([H])c([H])c(C(F)(F)F)c2[H])c([H])c([H])c1C([H])([H])[H]
     RDKit          3D

 46 48  0  0  0  0  0  0  0  0999 V2000
   -3.1705   -0.2020    3.1373 C   0  0  0  0  0  0  0  0  0  0  0  0
   -1.8330   -0.3179    2.5074 C   0  0  0  0  0  0  0  0  0  0  0  0
   -0.7692   -0.8107    3.2395 C   0  0  0  0  0  0  0  0  0  0  0  0
    0.4807   -0.9239    2.6844 C   0  0  0  0  0  0  0  0  0  0  0  0
    0.6672   -0.5295    1.3537 C   0  0  0  0  0  0  0  0  0  0  0  0
    1.9475   -0.6957    0.7744 N   0  0  0  0  0  0  0  0  0  0  0  0
    2.5143    0.0117   -0.2846 C   0  0  0  0  0  0  0  0  0  0  0  0
    1.9141    0.9376   -0.8594 O   0  0  0  0  0  0  0  0  0  0  0  0
    3.8526   -0.3327   -0.7478 C   0  0  0  0  0  0  0  0  0  0  0  0
    4.2419   -1.6659   -0.9089 C   0  0  0  0  0  0  0  0  0  0  0  0
    5.5077   -1.9859   -1.3343 C   0  0  0  0  0  0  0  0  0  0  0  0
    6.3942   -0.9364   -1.6012 C   0  0  0  0  0  0  0  0  0  0  0  0
    6.0092    0.3705   -1.4419 C   0  0  0  0  0  0  0  0  0  0  0  0
    4.7397    0.6935   -1.0154 C   0  0  0  0  0  0  0  0  0  0  0  0
    6.9663    1.4607   -1.7164 C   0  0  0  0  0  0  0  0  0  0  0  0
    6.4232    2.2803   -2.6947 F   0  0  0  0  0  0  0  0  0  0  0  0
    7.1362    2.1956   -0.5362 F   0  0  0  0  0  0  0  0  0  0  0  0
    8.2118    0.9756   -2.0653 F   0  0  0  0  0  0  0  0  0  0  0  0
   -0.3856   -0.0476    0.6473 C   0  0  0  0  0  0  0  0  0  0  0  0
   -1.6775    0.0764    1.1982 C   0  0  0  0  0  0  0  0  0  0  0  0
   -2.7583    0.5662    0.3460 C   0  0  0  0  0  0  0  0  0  0  0  0
   -2.7098    1.7802   -0.3181 C   0  0  0  0  0  0  0  0  0  0  0  0
   -3.7079    2.1957   -1.1332 N   0  0  0  0  0  0  0  0  0  0  0  0
   -4.8139    1.4637   -1.3554 C   0  0  0  0  0  0  0  0  0  0  0  0
   -5.8702    1.8745   -2.2114 N   0  0  0  0  0  0  0  0  0  0  0  0
   -4.8952    0.2295   -0.6976 C   0  0  0  0  0  0  0  0  0  0  0  0
   -3.8847   -0.2013    0.1331 C   0  0  0  0  0  0  0  0  0  0  0  0
   -6.1082   -0.5724   -0.9465 C   0  0  0  0  0  0  0  0  0  0  0  0
   -6.2669   -0.8717   -2.2890 F   0  0  0  0  0  0  0  0  0  0  0  0
   -5.9014   -1.8209   -0.3316 F   0  0  0  0  0  0  0  0  0  0  0  0
   -7.2132   -0.0127   -0.3703 F   0  0  0  0  0  0  0  0  0  0  0  0
   -3.7467    0.6559    2.7218 H   0  0  0  0  0  0  0  0  0  0  0  0
   -3.0453    0.0145    4.2396 H   0  0  0  0  0  0  0  0  0  0  0  0
   -3.7260   -1.1503    3.0860 H   0  0  0  0  0  0  0  0  0  0  0  0
   -0.9401   -1.1111    4.2825 H   0  0  0  0  0  0  0  0  0  0  0  0
    1.3068   -1.3124    3.2643 H   0  0  0  0  0  0  0  0  0  0  0  0
    2.5409   -1.4750    1.2182 H   0  0  0  0  0  0  0  0  0  0  0  0
    3.5454   -2.4622   -0.7017 H   0  0  0  0  0  0  0  0  0  0  0  0
    5.8163   -3.0081   -1.4676 H   0  0  0  0  0  0  0  0  0  0  0  0
    7.3930   -1.1634   -1.9380 H   0  0  0  0  0  0  0  0  0  0  0  0
    4.4478    1.7154   -0.8918 H   0  0  0  0  0  0  0  0  0  0  0  0
   -0.2769    0.2550   -0.3823 H   0  0  0  0  0  0  0  0  0  0  0  0
   -1.8343    2.3880   -0.1556 H   0  0  0  0  0  0  0  0  0  0  0  0
   -6.6452    2.4817   -1.8696 H   0  0  0  0  0  0  0  0  0  0  0  0
   -5.9316    1.5982   -3.2175 H   0  0  0  0  0  0  0  0  0  0  0  0
   -3.9453   -1.1630    0.6493 H   0  0  0  0  0  0  0  0  0  0  0  0
  1  2  1  0
  2  3  2  0
  3  4  1  0
  4  5  2  0
  5  6  1  0
  6  7  1  0
  7  8  2  0
  7  9  1  0
  9 10  2  0
 10 11  1  0
 11 12  2  0
 12 13  1  0
 13 14  2  0
 13 15  1  0
 15 16  1  0
 15 17  1  0
 15 18  1  0
  5 19  1  0
 19 20  2  0
 20 21  1  0
 21 22  2  0
 22 23  1  0
 23 24  2  0
 24 25  1  0
 24 26  1  0
 26 27  2  0
 26 28  1  0
 28 29  1  0
 28 30  1  0
 28 31  1  0
 20  2  1  0
 27 21  1  0
 14  9  1  0
  1 32  1  0
  1 33  1  0
  1 34  1  0
  3 35  1  0
  4 36  1  0
  6 37  1  0
 10 38  1  0
 11 39  1  0
 12 40  1  0
 14 41  1  0
 19 42  1  0
 22 43  1  0
 25 44  1  0
 25 45  1  0
 27 46  1  0
M  END
$$$$
[H]OC(=O)[C@@]([H])(N([H])C(=O)[C@@]([H])(N([H])C(=O)[C@@]([H])(N([H])C(=O)[C@@]([H])(N([H])C(=O)[C@@]([H])(N([H])C(=O)[C@@]([H])(N([H])C(=O)[C@@]([H])(N([H])C(=O)N([H])c1c([H])c([H])c(C(F)(F)F)c([H])c1F)C([H])([H])C([H])(C([H])([H])[H])C([H])([H])[H])C([H])(C([H])([H])[H])C([H])([H])[H])C([H])([H])[H])C([H])([H])[H])C([H])([H])[H])C([H])(C([H])([H])[H])C([H])([H])[H])C([H])([H])[H]
     RDKit          3D

111111  0  0  0  0  0  0  0  0999 V2000
   -6.5335    1.8367   -2.7334 C   0  0  0  0  0  0  0  0  0  0  0  0
   -6.4480    1.4562   -1.2312 C   0  0  0  0  0  0  0  0  0  0  0  0
   -7.2579    2.5057   -0.5511 C   0  0  0  0  0  0  0  0  0  0  0  0
   -6.8554    0.0643   -1.1432 C   0  0  0  0  0  0  0  0  0  0  0  0
   -6.8721   -0.6092    0.2357 C   0  0  2  0  0  0  0  0  0  0  0  0
   -7.7857    0.0763    1.1169 N   0  0  0  0  0  0  0  0  0  0  0  0
   -9.2007   -0.0071    0.9584 C   0  0  0  0  0  0  0  0  0  0  0  0
   -9.5634   -0.7182   -0.0253 O   0  0  0  0  0  0  0  0  0  0  0  0
  -10.1035    0.6512    1.8142 N   0  0  0  0  0  0  0  0  0  0  0  0
  -11.4751    0.6697    1.6417 C   0  0  0  0  0  0  0  0  0  0  0  0
  -12.1777    0.3605    0.4942 C   0  0  0  0  0  0  0  0  0  0  0  0
  -13.5371    0.4711    0.3925 C   0  0  0  0  0  0  0  0  0  0  0  0
  -14.2949    0.9038    1.4424 C   0  0  0  0  0  0  0  0  0  0  0  0
  -13.6235    1.2207    2.6063 C   0  0  0  0  0  0  0  0  0  0  0  0
  -12.2684    1.1124    2.7137 C   0  0  0  0  0  0  0  0  0  0  0  0
  -11.6532    1.4479    3.8964 F   0  0  0  0  0  0  0  0  0  0  0  0
  -15.7828    1.0366    1.3021 C   0  0  0  0  0  0  0  0  0  0  0  0
  -16.0274    2.0330    0.3641 F   0  0  0  0  0  0  0  0  0  0  0  0
  -16.2186   -0.1722    0.7683 F   0  0  0  0  0  0  0  0  0  0  0  0
  -16.3370    1.3105    2.5164 F   0  0  0  0  0  0  0  0  0  0  0  0
   -5.5053   -0.7305    0.7357 C   0  0  0  0  0  0  0  0  0  0  0  0
   -5.0837   -0.1475    1.7416 O   0  0  0  0  0  0  0  0  0  0  0  0
   -4.5434   -1.5518    0.0597 N   0  0  0  0  0  0  0  0  0  0  0  0
   -3.1498   -1.6758    0.4511 C   0  0  1  0  0  0  0  0  0  0  0  0
   -2.8033   -2.9328    1.1539 C   0  0  0  0  0  0  0  0  0  0  0  0
   -3.0194   -4.2060    0.4133 C   0  0  0  0  0  0  0  0  0  0  0  0
   -1.3227   -2.8871    1.5690 C   0  0  0  0  0  0  0  0  0  0  0  0
   -2.3297   -1.4142   -0.7423 C   0  0  0  0  0  0  0  0  0  0  0  0
   -2.7345   -1.8784   -1.8509 O   0  0  0  0  0  0  0  0  0  0  0  0
   -1.1366   -0.6723   -0.7223 N   0  0  0  0  0  0  0  0  0  0  0  0
   -0.4133   -0.4466   -1.9648 C   0  0  1  0  0  0  0  0  0  0  0  0
   -0.7802    0.9302   -2.4721 C   0  0  0  0  0  0  0  0  0  0  0  0
    1.0192   -0.6730   -1.7989 C   0  0  0  0  0  0  0  0  0  0  0  0
    1.4663   -1.6577   -1.1142 O   0  0  0  0  0  0  0  0  0  0  0  0
    1.9278    0.2325   -2.4287 N   0  0  0  0  0  0  0  0  0  0  0  0
    3.3344   -0.0186   -2.3193 C   0  0  1  0  0  0  0  0  0  0  0  0
    4.1159    0.4359   -3.5164 C   0  0  0  0  0  0  0  0  0  0  0  0
    3.8527    0.6210   -1.0558 C   0  0  0  0  0  0  0  0  0  0  0  0
    3.1305    1.3340   -0.3338 O   0  0  0  0  0  0  0  0  0  0  0  0
    5.1955    0.3663   -0.7229 N   0  0  0  0  0  0  0  0  0  0  0  0
    5.9142    0.8369    0.4384 C   0  0  1  0  0  0  0  0  0  0  0  0
    5.8156   -0.2051    1.5634 C   0  0  0  0  0  0  0  0  0  0  0  0
    7.3197    0.9711    0.0827 C   0  0  0  0  0  0  0  0  0  0  0  0
    7.6770    0.8788   -1.1347 O   0  0  0  0  0  0  0  0  0  0  0  0
    8.3264    1.1912    1.0198 N   0  0  0  0  0  0  0  0  0  0  0  0
    9.7451    1.3059    0.6307 C   0  0  1  0  0  0  0  0  0  0  0  0
   10.4921    2.1214    1.6126 C   0  0  0  0  0  0  0  0  0  0  0  0
    9.9059    3.5150    1.7618 C   0  0  0  0  0  0  0  0  0  0  0  0
   11.9222    2.3197    1.1742 C   0  0  0  0  0  0  0  0  0  0  0  0
   10.2096   -0.1182    0.5971 C   0  0  0  0  0  0  0  0  0  0  0  0
    9.3982   -1.0241    1.0077 O   0  0  0  0  0  0  0  0  0  0  0  0
   11.4504   -0.5817    0.1535 N   0  0  0  0  0  0  0  0  0  0  0  0
   11.8301   -1.9870    0.1484 C   0  0  1  0  0  0  0  0  0  0  0  0
   12.1355   -2.5017   -1.2185 C   0  0  0  0  0  0  0  0  0  0  0  0
   12.8982   -2.1964    1.1316 C   0  0  0  0  0  0  0  0  0  0  0  0
   13.4551   -3.4650    1.4048 O   0  0  0  0  0  0  0  0  0  0  0  0
   13.3628   -1.2347    1.7755 O   0  0  0  0  0  0  0  0  0  0  0  0
   -7.4813    1.4307   -3.0944 H   0  0  0  0  0  0  0  0  0  0  0  0
   -6.4504    2.9386   -2.8543 H   0  0  0  0  0  0  0  0  0  0  0  0
   -5.6769    1.3516   -3.2284 H   0  0  0  0  0  0  0  0  0  0  0  0
   -5.3703    1.6711   -1.0026 H   0  0  0  0  0  0  0  0  0  0  0  0
   -7.2496    2.5284    0.5320 H   0  0  0  0  0  0  0  0  0  0  0  0
   -7.0160    3.5267   -0.9939 H   0  0  0  0  0  0  0  0  0  0  0  0
   -8.3089    2.3482   -0.8730 H   0  0  0  0  0  0  0  0  0  0  0  0
   -7.8584   -0.0802   -1.5656 H   0  0  0  0  0  0  0  0  0  0  0  0
   -6.1619   -0.5538   -1.7546 H   0  0  0  0  0  0  0  0  0  0  0  0
   -7.2887   -1.5910   -0.0106 H   0  0  0  0  0  0  0  0  0  0  0  0
   -7.4190    0.6351    1.8922 H   0  0  0  0  0  0  0  0  0  0  0  0
   -9.6816    1.1677    2.6272 H   0  0  0  0  0  0  0  0  0  0  0  0
  -11.5965    0.0318   -0.3789 H   0  0  0  0  0  0  0  0  0  0  0  0
  -14.0354    0.2178   -0.5257 H   0  0  0  0  0  0  0  0  0  0  0  0
  -14.2144    1.5517    3.4426 H   0  0  0  0  0  0  0  0  0  0  0  0
   -4.8552   -2.0863   -0.7596 H   0  0  0  0  0  0  0  0  0  0  0  0
   -2.9790   -0.8482    1.1844 H   0  0  0  0  0  0  0  0  0  0  0  0
   -3.3470   -2.9477    2.1358 H   0  0  0  0  0  0  0  0  0  0  0  0
   -3.9530   -4.7510    0.6991 H   0  0  0  0  0  0  0  0  0  0  0  0
   -2.2072   -4.9689    0.6562 H   0  0  0  0  0  0  0  0  0  0  0  0
   -2.9262   -4.0376   -0.6676 H   0  0  0  0  0  0  0  0  0  0  0  0
   -1.0205   -1.8924    1.9330 H   0  0  0  0  0  0  0  0  0  0  0  0
   -1.1525   -3.5828    2.4422 H   0  0  0  0  0  0  0  0  0  0  0  0
   -0.6451   -3.2478    0.7709 H   0  0  0  0  0  0  0  0  0  0  0  0
   -0.7971   -0.2958    0.1904 H   0  0  0  0  0  0  0  0  0  0  0  0
   -0.7831   -1.1977   -2.7391 H   0  0  0  0  0  0  0  0  0  0  0  0
   -0.3707    1.0861   -3.4977 H   0  0  0  0  0  0  0  0  0  0  0  0
   -1.9128    0.9068   -2.5770 H   0  0  0  0  0  0  0  0  0  0  0  0
   -0.5584    1.7420   -1.7817 H   0  0  0  0  0  0  0  0  0  0  0  0
    1.5719    1.0449   -2.9464 H   0  0  0  0  0  0  0  0  0  0  0  0
    3.5402   -1.1216   -2.1298 H   0  0  0  0  0  0  0  0  0  0  0  0
    5.2014    0.2112   -3.4141 H   0  0  0  0  0  0  0  0  0  0  0  0
    4.0076    1.5286   -3.6707 H   0  0  0  0  0  0  0  0  0  0  0  0
    3.7747   -0.0631   -4.4472 H   0  0  0  0  0  0  0  0  0  0  0  0
    5.7574   -0.2404   -1.3798 H   0  0  0  0  0  0  0  0  0  0  0  0
    5.4304    1.7395    0.8573 H   0  0  0  0  0  0  0  0  0  0  0  0
    6.8007   -0.2549    2.0498 H   0  0  0  0  0  0  0  0  0  0  0  0
    5.0486    0.0696    2.3151 H   0  0  0  0  0  0  0  0  0  0  0  0
    5.5982   -1.1856    1.1059 H   0  0  0  0  0  0  0  0  0  0  0  0
    8.1289    1.2734    2.0249 H   0  0  0  0  0  0  0  0  0  0  0  0
    9.8018    1.7054   -0.3861 H   0  0  0  0  0  0  0  0  0  0  0  0
   10.5434    1.6486    2.6216 H   0  0  0  0  0  0  0  0  0  0  0  0
   10.3635    4.0258    2.6665 H   0  0  0  0  0  0  0  0  0  0  0  0
    8.8344    3.4264    2.0190 H   0  0  0  0  0  0  0  0  0  0  0  0
   10.1225    4.1713    0.9248 H   0  0  0  0  0  0  0  0  0  0  0  0
   11.9708    2.3874    0.0704 H   0  0  0  0  0  0  0  0  0  0  0  0
   12.5600    1.5227    1.5796 H   0  0  0  0  0  0  0  0  0  0  0  0
   12.3300    3.2913    1.5711 H   0  0  0  0  0  0  0  0  0  0  0  0
   12.1730    0.0639   -0.2168 H   0  0  0  0  0  0  0  0  0  0  0  0
   10.9248   -2.5548    0.5187 H   0  0  0  0  0  0  0  0  0  0  0  0
   12.6900   -3.4554   -1.1355 H   0  0  0  0  0  0  0  0  0  0  0  0
   12.7595   -1.8206   -1.8436 H   0  0  0  0  0  0  0  0  0  0  0  0
   11.1725   -2.7520   -1.7206 H   0  0  0  0  0  0  0  0  0  0  0  0
   13.1481   -4.2184    0.7764 H   0  0  0  0  0  0  0  0  0  0  0  0
  1  2  1  0
  2  3  1  0
  2  4  1  0
  4  5  1  0
  5  6  1  0
  6  7  1  0
  7  8  2  0
  7  9  1  0
  9 10  1  0
 10 11  2  0
 11 12  1  0
 12 13  2  0
 13 14  1  0
 14 15  2  0
 15 16  1  0
 13 17  1  0
 17 18  1  0
 17 19  1  0
 17 20  1  0
  5 21  1  0
 21 22  2  0
 21 23  1  0
 23 24  1  0
 24 25  1  0
 25 26  1  0
 25 27  1  0
 24 28  1  0
 28 29  2  0
 28 30  1  0
 30 31  1  0
 31 32  1  0
 31 33  1  0
 33 34  2  0
 33 35  1  0
 35 36  1  0
 36 37  1  0
 36 38  1  0
 38 39  2  0
 38 40  1  0
 40 41  1  0
 41 42  1  0
 41 43  1  0
 43 44  2  0
 43 45  1  0
 45 46  1  0
 46 47  1  0
 47 48  1  0
 47 49  1  0
 46 50  1  0
 50 51  2  0
 50 52  1  0
 52 53  1  0
 53 54  1  0
 53 55  1  0
 55 56  1  0
 55 57  2  0
 15 10  1  0
  1 58  1  0
  1 59  1  0
  1 60  1  0
  2 61  1  0
  3 62  1  0
  3 63  1  0
  3 64  1  0
  4 65  1  0
  4 66  1  0
  5 67  1  6
  6 68  1  0
  9 69  1  0
 11 70  1  0
 12 71  1  0
 14 72  1  0
 23 73  1  0
 24 74  1  1
 25 75  1  0
 26 76  1  0
 26 77  1  0
 26 78  1  0
 27 79  1  0
 27 80  1  0
 27 81  1  0
 30 82  1  0
 31 83  1  6
 32 84  1  0
 32 85  1  0
 32 86  1  0
 35 87  1  0
 36 88  1  1
 37 89  1  0
 37 90  1  0
 37 91  1  0
 40 92  1  0
 41 93  1  1
 42 94  1  0
 42 95  1  0
 42 96  1  0
 45 97  1  0
 46 98  1  6
 47 99  1  0
 48100  1  0
 48101  1  0
 48102  1  0
 49103  1  0
 49104  1  0
 49105  1  0
 52106  1  0
 53107  1  1
 54108  1  0
 54109  1  0
 54110  1  0
 56111  1  0
M  END
$$$$
[H]c1nc2c(nc1-c1c([H])c(N([H])C(=O)c3c([H])c([H])c([H])c(C(F)(F)F)c3[H])c([H])c([H])c1C([H])([H])[H])c([H])c([H])n2[H]
     RDKit          3D

 44 47  0  0  0  0  0  0  0  0999 V2000
    3.5472   -1.6360   -1.6671 C   0  0  0  0  0  0  0  0  0  0  0  0
    2.1651   -1.2389   -1.2721 C   0  0  0  0  0  0  0  0  0  0  0  0
    1.1173   -1.7014   -2.0308 C   0  0  0  0  0  0  0  0  0  0  0  0
   -0.1851   -1.3979   -1.6296 C   0  0  0  0  0  0  0  0  0  0  0  0
   -0.4467   -0.6481   -0.4942 C   0  0  0  0  0  0  0  0  0  0  0  0
   -1.7842   -0.2679   -0.1233 N   0  0  0  0  0  0  0  0  0  0  0  0
   -2.7441    0.0608   -1.0862 C   0  0  0  0  0  0  0  0  0  0  0  0
   -2.4145    0.0411   -2.3226 O   0  0  0  0  0  0  0  0  0  0  0  0
   -4.1014    0.4296   -0.8013 C   0  0  0  0  0  0  0  0  0  0  0  0
   -4.8602    1.1223   -1.7491 C   0  0  0  0  0  0  0  0  0  0  0  0
   -6.1566    1.4844   -1.5492 C   0  0  0  0  0  0  0  0  0  0  0  0
   -6.7474    1.1536   -0.3561 C   0  0  0  0  0  0  0  0  0  0  0  0
   -6.0453    0.4732    0.6122 C   0  0  0  0  0  0  0  0  0  0  0  0
   -4.7397    0.1239    0.3737 C   0  0  0  0  0  0  0  0  0  0  0  0
   -6.6748    0.1095    1.8893 C   0  0  0  0  0  0  0  0  0  0  0  0
   -6.4005    1.0827    2.8084 F   0  0  0  0  0  0  0  0  0  0  0  0
   -6.1575   -1.1057    2.3307 F   0  0  0  0  0  0  0  0  0  0  0  0
   -8.0536   -0.0236    1.7454 F   0  0  0  0  0  0  0  0  0  0  0  0
    0.6390   -0.2062    0.2374 C   0  0  0  0  0  0  0  0  0  0  0  0
    1.9488   -0.4785   -0.1208 C   0  0  0  0  0  0  0  0  0  0  0  0
    3.1122   -0.0213    0.6159 C   0  0  0  0  0  0  0  0  0  0  0  0
    3.1516    0.0587    1.9853 C   0  0  0  0  0  0  0  0  0  0  0  0
    4.2888    0.4558    2.6256 N   0  0  0  0  0  0  0  0  0  0  0  0
    5.4116    0.7891    1.9758 C   0  0  0  0  0  0  0  0  0  0  0  0
    6.6403    1.2231    2.3533 N   0  0  0  0  0  0  0  0  0  0  0  0
    7.4189    1.4331    1.2737 C   0  0  0  0  0  0  0  0  0  0  0  0
    6.6318    1.1127    0.1580 C   0  0  0  0  0  0  0  0  0  0  0  0
    5.3849    0.7111    0.6036 C   0  0  0  0  0  0  0  0  0  0  0  0
    4.2584    0.3151   -0.0563 N   0  0  0  0  0  0  0  0  0  0  0  0
    4.0808   -2.0614   -0.8041 H   0  0  0  0  0  0  0  0  0  0  0  0
    4.0622   -0.8763   -2.2747 H   0  0  0  0  0  0  0  0  0  0  0  0
    3.4613   -2.5188   -2.4083 H   0  0  0  0  0  0  0  0  0  0  0  0
    1.2774   -2.2873   -2.9147 H   0  0  0  0  0  0  0  0  0  0  0  0
   -1.0195   -1.7729   -2.2199 H   0  0  0  0  0  0  0  0  0  0  0  0
   -2.0718   -0.2319    0.8895 H   0  0  0  0  0  0  0  0  0  0  0  0
   -4.3567    1.3744   -2.6708 H   0  0  0  0  0  0  0  0  0  0  0  0
   -6.6852    2.0298   -2.3425 H   0  0  0  0  0  0  0  0  0  0  0  0
   -7.7699    1.4317   -0.1819 H   0  0  0  0  0  0  0  0  0  0  0  0
   -4.2141   -0.4177    1.1378 H   0  0  0  0  0  0  0  0  0  0  0  0
    0.4735    0.3788    1.1434 H   0  0  0  0  0  0  0  0  0  0  0  0
    2.2437   -0.2168    2.5580 H   0  0  0  0  0  0  0  0  0  0  0  0
    6.9623    1.3981    3.3437 H   0  0  0  0  0  0  0  0  0  0  0  0
    8.4371    1.7759    1.2986 H   0  0  0  0  0  0  0  0  0  0  0  0
    6.9148    1.1772   -0.8837 H   0  0  0  0  0  0  0  0  0  0  0  0
  1  2  1  0
  2  3  2  0
  3  4  1  0
  4  5  2  0
  5  6  1  0
  6  7  1  0
  7  8  2  0
  7  9  1  0
  9 10  2  0
 10 11  1  0
 11 12  2  0
 12 13  1  0
 13 14  2  0
 13 15  1  0
 15 16  1  0
 15 17  1  0
 15 18  1  0
  5 19  1  0
 19 20  2  0
 20 21  1  0
 21 22  2  0
 22 23  1  0
 23 24  2  0
 24 25  1  0
 25 26  1  0
 26 27  2  0
 27 28  1  0
 28 29  2  0
 20  2  1  0
 29 21  1  0
 14  9  1  0
 28 24  1  0
  1 30  1  0
  1 31  1  0
  1 32  1  0
  3 33  1  0
  4 34  1  0
  6 35  1  0
 10 36  1  0
 11 37  1  0
 12 38  1  0
 14 39  1  0
 19 40  1  0
 22 41  1  0
 25 42  1  0
 26 43  1  0
 27 44  1  0
M  END
$$$$
[H]O[C@]1([H])[C@]([H])(C([H])([H])OP(=O)(O[H])OP(=O)(O[H])O[H])O[C@@]([H])(n2c([H])nc3c(N([H])[H])nc([H])nc32)[C@@]1([H])O[H]
     RDKit          3D

 42 44  0  0  0  0  0  0  0  0999 V2000
   -7.1934   -0.1392   -0.0659 N   0  0  0  0  0  0  0  0  0  0  0  0
   -5.8622   -0.5943    0.0259 C   0  0  0  0  0  0  0  0  0  0  0  0
   -5.5701   -1.9207    0.1649 N   0  0  0  0  0  0  0  0  0  0  0  0
   -4.3088   -2.3332    0.2501 C   0  0  0  0  0  0  0  0  0  0  0  0
   -3.2500   -1.4703    0.2044 N   0  0  0  0  0  0  0  0  0  0  0  0
   -3.4852   -0.1627    0.0693 C   0  0  0  0  0  0  0  0  0  0  0  0
   -2.6930    0.9108   -0.0064 N   0  0  0  0  0  0  0  0  0  0  0  0
   -3.4701    2.0252   -0.1423 C   0  0  0  0  0  0  0  0  0  0  0  0
   -4.7689    1.6079   -0.1483 N   0  0  0  0  0  0  0  0  0  0  0  0
   -4.7865    0.2700   -0.0193 C   0  0  0  0  0  0  0  0  0  0  0  0
   -1.2546    0.9873    0.0376 C   0  0  2  0  0  0  0  0  0  0  0  0
   -0.6581   -0.2520   -0.0101 O   0  0  0  0  0  0  0  0  0  0  0  0
    0.6124   -0.1411    0.4920 C   0  0  1  0  0  0  0  0  0  0  0  0
    1.6552   -0.1790   -0.5960 C   0  0  0  0  0  0  0  0  0  0  0  0
    2.9350   -0.0626   -0.0363 O   0  0  0  0  0  0  0  0  0  0  0  0
    4.1391   -0.0977   -1.1917 P   0  0  0  0  0  0  0  0  0  0  0  0
    3.5082    0.1401   -2.7511 O   0  0  0  0  0  0  0  0  0  0  0  0
    5.1575    1.0103   -0.9611 O   0  0  0  0  0  0  0  0  0  0  0  0
    4.9786   -1.5632   -1.0998 O   0  0  0  0  0  0  0  0  0  0  0  0
    6.1775   -1.3904    0.0805 P   0  0  0  0  0  0  0  0  0  0  0  0
    7.1852   -2.7614    0.1220 O   0  0  0  0  0  0  0  0  0  0  0  0
    7.1623   -0.0414   -0.2261 O   0  0  0  0  0  0  0  0  0  0  0  0
    5.5885   -1.2280    1.4629 O   0  0  0  0  0  0  0  0  0  0  0  0
    0.6822    1.0939    1.3348 C   0  0  1  0  0  0  0  0  0  0  0  0
    1.3815    2.1330    0.7537 O   0  0  0  0  0  0  0  0  0  0  0  0
   -0.7807    1.5115    1.3846 C   0  0  2  0  0  0  0  0  0  0  0  0
   -1.4311    0.8053    2.3754 O   0  0  0  0  0  0  0  0  0  0  0  0
   -7.8098   -0.1883    0.7587 H   0  0  0  0  0  0  0  0  0  0  0  0
   -7.5507    0.2417   -0.9541 H   0  0  0  0  0  0  0  0  0  0  0  0
   -4.1335   -3.4035    0.3601 H   0  0  0  0  0  0  0  0  0  0  0  0
   -3.1386    3.0500   -0.2297 H   0  0  0  0  0  0  0  0  0  0  0  0
   -0.8401    1.6059   -0.7977 H   0  0  0  0  0  0  0  0  0  0  0  0
    0.8165   -1.0166    1.1588 H   0  0  0  0  0  0  0  0  0  0  0  0
    1.4817    0.5302   -1.4045 H   0  0  0  0  0  0  0  0  0  0  0  0
    1.6168   -1.2035   -1.0385 H   0  0  0  0  0  0  0  0  0  0  0  0
    2.7094   -0.4295   -2.9126 H   0  0  0  0  0  0  0  0  0  0  0  0
    7.4496   -3.0601   -0.7697 H   0  0  0  0  0  0  0  0  0  0  0  0
    7.6918    0.1067    0.5867 H   0  0  0  0  0  0  0  0  0  0  0  0
    1.0449    0.9334    2.3532 H   0  0  0  0  0  0  0  0  0  0  0  0
    1.2340    2.2289   -0.1994 H   0  0  0  0  0  0  0  0  0  0  0  0
   -0.9028    2.6061    1.4741 H   0  0  0  0  0  0  0  0  0  0  0  0
   -1.3197   -0.1593    2.1688 H   0  0  0  0  0  0  0  0  0  0  0  0
  1  2  1  0
  2  3  2  0
  3  4  1  0
  4  5  2  0
  5  6  1  0
  6  7  1  0
  7  8  1  0
  8  9  2  0
  9 10  1  0
  7 11  1  0
 11 12  1  0
 12 13  1  0
 13 14  1  0
 14 15  1  0
 15 16  1  0
 16 17  1  0
 16 18  2  0
 16 19  1  0
 19 20  1  0
 20 21  1  0
 20 22  1  0
 20 23  2  0
 13 24  1  0
 24 25  1  0
 24 26  1  0
 26 27  1  0
 10  2  1  0
 26 11  1  0
 10  6  2  0
  1 28  1  0
  1 29  1  0
  4 30  1  0
  8 31  1  0
 11 32  1  6
 13 33  1  1
 14 34  1  0
 14 35  1  0
 17 36  1  0
 21 37  1  0
 22 38  1  0
 24 39  1  1
 25 40  1  0
 26 41  1  6
 27 42  1  0
M  END
$$$$
[H]c1nc(N([H])c2c([H])c([H])c(S(=O)(=O)C([H])([H])[H])c([H])c2[H])c2c([H])c(-c3c([H])c([H])c(N4C([H])([H])C([H])([H])N(C([H])([H])[H])C([H])([H])C4([H])[H])c([H])c3[H])oc2n1
     RDKit          3D

 58 62  0  0  0  0  0  0  0  0999 V2000
    8.2880   -1.9209    1.6392 C   0  0  0  0  0  0  0  0  0  0  0  0
    8.1192   -1.9068    0.2203 N   0  0  0  0  0  0  0  0  0  0  0  0
    8.0678   -0.5657   -0.3358 C   0  0  0  0  0  0  0  0  0  0  0  0
    6.8283    0.1053    0.1390 C   0  0  0  0  0  0  0  0  0  0  0  0
    5.6239   -0.6673    0.0306 N   0  0  0  0  0  0  0  0  0  0  0  0
    5.6819   -2.0961   -0.1024 C   0  0  0  0  0  0  0  0  0  0  0  0
    7.0302   -2.6892   -0.2676 C   0  0  0  0  0  0  0  0  0  0  0  0
    4.3480   -0.0449    0.0557 C   0  0  0  0  0  0  0  0  0  0  0  0
    4.1800    1.3143    0.2211 C   0  0  0  0  0  0  0  0  0  0  0  0
    2.9203    1.9151    0.2424 C   0  0  0  0  0  0  0  0  0  0  0  0
    1.7804    1.1577    0.0965 C   0  0  0  0  0  0  0  0  0  0  0  0
    1.9474   -0.2006   -0.0688 C   0  0  0  0  0  0  0  0  0  0  0  0
    3.1880   -0.7940   -0.0901 C   0  0  0  0  0  0  0  0  0  0  0  0
    0.4431    1.7507    0.1134 C   0  0  0  0  0  0  0  0  0  0  0  0
   -0.7735    1.1092   -0.0213 C   0  0  0  0  0  0  0  0  0  0  0  0
   -1.7703    2.0554    0.0554 C   0  0  0  0  0  0  0  0  0  0  0  0
   -3.1723    1.9596   -0.0181 C   0  0  0  0  0  0  0  0  0  0  0  0
   -3.7551    0.6918   -0.2235 N   0  0  0  0  0  0  0  0  0  0  0  0
   -5.1094    0.3561   -0.3097 C   0  0  0  0  0  0  0  0  0  0  0  0
   -5.4813   -0.8494   -0.9082 C   0  0  0  0  0  0  0  0  0  0  0  0
   -6.8000   -1.2362   -0.9993 C   0  0  0  0  0  0  0  0  0  0  0  0
   -7.7941   -0.4199   -0.4891 C   0  0  0  0  0  0  0  0  0  0  0  0
   -7.4293    0.7599    0.0969 C   0  0  0  0  0  0  0  0  0  0  0  0
   -6.0949    1.1489    0.1881 C   0  0  0  0  0  0  0  0  0  0  0  0
   -9.4841   -0.8666   -0.5807 S   0  0  0  0  0  0  0  0  0  0  0  0
   -9.8726   -1.7883    0.8951 C   0  0  0  0  0  0  0  0  0  0  0  0
   -9.7977   -1.6576   -1.8072 O   0  0  0  0  0  0  0  0  0  0  0  0
  -10.3159    0.3908   -0.5380 O   0  0  0  0  0  0  0  0  0  0  0  0
   -3.8129    3.1152    0.1007 N   0  0  0  0  0  0  0  0  0  0  0  0
   -3.2179    4.3086    0.2783 C   0  0  0  0  0  0  0  0  0  0  0  0
   -1.8844    4.3631    0.3435 N   0  0  0  0  0  0  0  0  0  0  0  0
   -1.1226    3.2557    0.2361 C   0  0  0  0  0  0  0  0  0  0  0  0
    0.1633    3.0204    0.2624 O   0  0  0  0  0  0  0  0  0  0  0  0
    9.1878   -2.5522    1.8681 H   0  0  0  0  0  0  0  0  0  0  0  0
    7.4330   -2.2890    2.2100 H   0  0  0  0  0  0  0  0  0  0  0  0
    8.4966   -0.8780    1.9753 H   0  0  0  0  0  0  0  0  0  0  0  0
    8.1260   -0.6269   -1.4305 H   0  0  0  0  0  0  0  0  0  0  0  0
    8.9464   -0.0246    0.1013 H   0  0  0  0  0  0  0  0  0  0  0  0
    6.9266    0.4714    1.1865 H   0  0  0  0  0  0  0  0  0  0  0  0
    6.6773    1.0280   -0.5010 H   0  0  0  0  0  0  0  0  0  0  0  0
    5.1247   -2.6123    0.7228 H   0  0  0  0  0  0  0  0  0  0  0  0
    5.0931   -2.3802   -1.0285 H   0  0  0  0  0  0  0  0  0  0  0  0
    7.2577   -2.9217   -1.3496 H   0  0  0  0  0  0  0  0  0  0  0  0
    7.0543   -3.6750    0.2394 H   0  0  0  0  0  0  0  0  0  0  0  0
    5.0693    1.9216    0.3385 H   0  0  0  0  0  0  0  0  0  0  0  0
    2.8002    2.9711    0.3714 H   0  0  0  0  0  0  0  0  0  0  0  0
    1.0343   -0.7895   -0.1834 H   0  0  0  0  0  0  0  0  0  0  0  0
    3.2940   -1.8715   -0.2220 H   0  0  0  0  0  0  0  0  0  0  0  0
   -0.8953    0.0554   -0.1604 H   0  0  0  0  0  0  0  0  0  0  0  0
   -3.0918   -0.1651   -0.3282 H   0  0  0  0  0  0  0  0  0  0  0  0
   -4.7151   -1.5045   -1.3158 H   0  0  0  0  0  0  0  0  0  0  0  0
   -7.0514   -2.1774   -1.4699 H   0  0  0  0  0  0  0  0  0  0  0  0
   -8.1974    1.4269    0.5100 H   0  0  0  0  0  0  0  0  0  0  0  0
   -5.9178    2.1140    0.6936 H   0  0  0  0  0  0  0  0  0  0  0  0
  -10.9164   -1.5877    1.1586 H   0  0  0  0  0  0  0  0  0  0  0  0
   -9.2468   -1.3738    1.7298 H   0  0  0  0  0  0  0  0  0  0  0  0
   -9.6506   -2.8611    0.7496 H   0  0  0  0  0  0  0  0  0  0  0  0
   -3.7604    5.2283    0.3714 H   0  0  0  0  0  0  0  0  0  0  0  0
  1  2  1  0
  2  3  1  0
  3  4  1  0
  4  5  1  0
  5  6  1  0
  6  7  1  0
  5  8  1  0
  8  9  2  0
  9 10  1  0
 10 11  2  0
 11 12  1  0
 12 13  2  0
 11 14  1  0
 14 15  2  0
 15 16  1  0
 16 17  2  0
 17 18  1  0
 18 19  1  0
 19 20  2  0
 20 21  1  0
 21 22  2  0
 22 23  1  0
 23 24  2  0
 22 25  1  0
 25 26  1  0
 25 27  2  0
 25 28  2  0
 17 29  1  0
 29 30  2  0
 30 31  1  0
 31 32  2  0
 32 33  1  0
  7  2  1  0
 13  8  1  0
 33 14  1  0
 32 16  1  0
 24 19  1  0
  1 34  1  0
  1 35  1  0
  1 36  1  0
  3 37  1  0
  3 38  1  0
  4 39  1  0
  4 40  1  0
  6 41  1  0
  6 42  1  0
  7 43  1  0
  7 44  1  0
  9 45  1  0
 10 46  1  0
 12 47  1  0
 13 48  1  0
 15 49  1  0
 18 50  1  0
 20 51  1  0
 21 52  1  0
 23 53  1  0
 24 54  1  0
 26 55  1  0
 26 56  1  0
 26 57  1  0
 30 58  1  0
M  END
$$$$
[H]c1nc(C(=O)N([H])c2c([H])nn(C3([H])C([H])([H])C3([H])[H])c2[H])nc(N2C([H])([H])C([H])([H])OC([H])([H])[C@@]2([H])C([H])([H])[H])c1C(=O)N([H])c1c([H])c([H])c(F)c(C(F)(F)F)c1[H]
     RDKit          3D

 61 65  0  0  0  0  0  0  0  0999 V2000
   -1.4143   -3.6254   -1.7064 C   0  0  0  0  0  0  0  0  0  0  0  0
   -1.1411   -3.4938   -0.2089 C   0  0  2  0  0  0  0  0  0  0  0  0
   -1.6862   -4.6266    0.5489 C   0  0  0  0  0  0  0  0  0  0  0  0
   -2.8917   -4.4099    1.1968 O   0  0  0  0  0  0  0  0  0  0  0  0
   -2.8928   -3.2329    1.9137 C   0  0  0  0  0  0  0  0  0  0  0  0
   -2.8578   -2.0890    0.8661 C   0  0  0  0  0  0  0  0  0  0  0  0
   -1.5976   -2.1666    0.2078 N   0  0  0  0  0  0  0  0  0  0  0  0
   -0.7378   -1.0790   -0.0669 C   0  0  0  0  0  0  0  0  0  0  0  0
    0.6110   -1.3545    0.0020 N   0  0  0  0  0  0  0  0  0  0  0  0
    1.5554   -0.4541   -0.2479 C   0  0  0  0  0  0  0  0  0  0  0  0
    1.1959    0.7915   -0.5850 N   0  0  0  0  0  0  0  0  0  0  0  0
   -0.0901    1.1447   -0.6751 C   0  0  0  0  0  0  0  0  0  0  0  0
   -1.0768    0.1826   -0.4087 C   0  0  0  0  0  0  0  0  0  0  0  0
   -2.4406    0.7007   -0.5113 C   0  0  0  0  0  0  0  0  0  0  0  0
   -3.0268    0.4532   -1.5947 O   0  0  0  0  0  0  0  0  0  0  0  0
   -3.0353    1.4289    0.5216 N   0  0  0  0  0  0  0  0  0  0  0  0
   -4.3017    2.0198    0.6085 C   0  0  0  0  0  0  0  0  0  0  0  0
   -4.7299    2.5357    1.8375 C   0  0  0  0  0  0  0  0  0  0  0  0
   -5.9617    3.1247    1.9094 C   0  0  0  0  0  0  0  0  0  0  0  0
   -6.7892    3.2283    0.8285 C   0  0  0  0  0  0  0  0  0  0  0  0
   -8.0171    3.8147    0.9080 F   0  0  0  0  0  0  0  0  0  0  0  0
   -6.3836    2.7271   -0.3853 C   0  0  0  0  0  0  0  0  0  0  0  0
   -5.1226    2.1220   -0.4703 C   0  0  0  0  0  0  0  0  0  0  0  0
   -7.2581    2.8226   -1.5887 C   0  0  0  0  0  0  0  0  0  0  0  0
   -8.4203    2.1500   -1.3060 F   0  0  0  0  0  0  0  0  0  0  0  0
   -6.6052    2.2205   -2.6381 F   0  0  0  0  0  0  0  0  0  0  0  0
   -7.5414    4.1449   -1.8818 F   0  0  0  0  0  0  0  0  0  0  0  0
    2.9840   -0.7965   -0.1778 C   0  0  0  0  0  0  0  0  0  0  0  0
    3.2872   -1.9758    0.0532 O   0  0  0  0  0  0  0  0  0  0  0  0
    3.9502    0.2104   -0.3727 N   0  0  0  0  0  0  0  0  0  0  0  0
    5.3417    0.0430   -0.3394 C   0  0  0  0  0  0  0  0  0  0  0  0
    6.0399   -1.1103   -0.1499 C   0  0  0  0  0  0  0  0  0  0  0  0
    7.3652   -0.7991   -0.1926 N   0  0  0  0  0  0  0  0  0  0  0  0
    7.4888    0.4827   -0.3983 N   0  0  0  0  0  0  0  0  0  0  0  0
    6.2825    1.0468   -0.4961 C   0  0  0  0  0  0  0  0  0  0  0  0
    8.7777    1.1513   -0.4977 C   0  0  0  0  0  0  0  0  0  0  0  0
    8.7340    2.6716   -0.2520 C   0  0  0  0  0  0  0  0  0  0  0  0
    9.3507    1.7375    0.7615 C   0  0  0  0  0  0  0  0  0  0  0  0
   -1.4957   -2.6241   -2.1335 H   0  0  0  0  0  0  0  0  0  0  0  0
   -0.6410   -4.2720   -2.1606 H   0  0  0  0  0  0  0  0  0  0  0  0
   -2.3903   -4.1510   -1.7814 H   0  0  0  0  0  0  0  0  0  0  0  0
   -0.0209   -3.5070   -0.1057 H   0  0  0  0  0  0  0  0  0  0  0  0
   -0.9202   -5.0697    1.2567 H   0  0  0  0  0  0  0  0  0  0  0  0
   -1.8883   -5.4720   -0.1699 H   0  0  0  0  0  0  0  0  0  0  0  0
   -2.0587   -3.1057    2.6109 H   0  0  0  0  0  0  0  0  0  0  0  0
   -3.8896   -3.1254    2.3842 H   0  0  0  0  0  0  0  0  0  0  0  0
   -3.0799   -1.1740    1.4062 H   0  0  0  0  0  0  0  0  0  0  0  0
   -3.6404   -2.3439    0.1111 H   0  0  0  0  0  0  0  0  0  0  0  0
   -0.3865    2.1496   -0.9472 H   0  0  0  0  0  0  0  0  0  0  0  0
   -2.4167    1.5546    1.3895 H   0  0  0  0  0  0  0  0  0  0  0  0
   -4.0987    2.4747    2.7381 H   0  0  0  0  0  0  0  0  0  0  0  0
   -6.3248    3.5400    2.8699 H   0  0  0  0  0  0  0  0  0  0  0  0
   -4.8738    1.7599   -1.4631 H   0  0  0  0  0  0  0  0  0  0  0  0
    3.6132    1.2170   -0.5654 H   0  0  0  0  0  0  0  0  0  0  0  0
    5.6594   -2.1013    0.0071 H   0  0  0  0  0  0  0  0  0  0  0  0
    6.0663    2.0960   -0.6692 H   0  0  0  0  0  0  0  0  0  0  0  0
    9.4221    0.8308   -1.3242 H   0  0  0  0  0  0  0  0  0  0  0  0
    7.7487    3.0985   -0.0396 H   0  0  0  0  0  0  0  0  0  0  0  0
    9.4261    3.2847   -0.8553 H   0  0  0  0  0  0  0  0  0  0  0  0
    8.7953    1.5191    1.7105 H   0  0  0  0  0  0  0  0  0  0  0  0
   10.4497    1.6797    0.8396 H   0  0  0  0  0  0  0  0  0  0  0  0
  1  2  1  0
  2  3  1  0
  3  4  1  0
  4  5  1  0
  5  6  1  0
  6  7  1  0
  7  8  1  0
  8  9  2  0
  9 10  1  0
 10 11  2  0
 11 12  1  0
 12 13  2  0
 13 14  1  0
 14 15  2  0
 14 16  1  0
 16 17  1  0
 17 18  2  0
 18 19  1  0
 19 20  2  0
 20 21  1  0
 20 22  1  0
 22 23  2  0
 22 24  1  0
 24 25  1  0
 24 26  1  0
 24 27  1  0
 10 28  1  0
 28 29  2  0
 28 30  1  0
 30 31  1  0
 31 32  1  0
 32 33  2  0
 33 34  1  0
 34 35  1  0
 34 36  1  0
 36 37  1  0
 37 38  1  0
  7  2  1  0
 13  8  1  0
 23 17  1  0
 35 31  2  0
 38 36  1  0
  1 39  1  0
  1 40  1  0
  1 41  1  0
  2 42  1  6
  3 43  1  0
  3 44  1  0
  5 45  1  0
  5 46  1  0
  6 47  1  0
  6 48  1  0
 12 49  1  0
 16 50  1  0
 18 51  1  0
 19 52  1  0
 23 53  1  0
 30 54  1  0
 32 55  1  0
 35 56  1  0
 36 57  1  0
 37 58  1  0
 37 59  1  0
 38 60  1  0
 38 61  1  0
M  END
$$$$
[H]c1c([H])c(S(=O)(=O)N2C([H])([H])C([H])([H])N(C(=O)c3c([H])c(C#N)c([H])c(C(F)(F)F)c3[H])C([H])([H])C2([H])[H])c([H])c([H])c1OC([H])([H])[H]
     RDKit          3D

 49 51  0  0  0  0  0  0  0  0999 V2000
    8.7648   -0.4164   -1.1374 C   0  0  0  0  0  0  0  0  0  0  0  0
    7.5511   -0.7881   -1.7226 O   0  0  0  0  0  0  0  0  0  0  0  0
    6.3413   -0.4042   -1.2048 C   0  0  0  0  0  0  0  0  0  0  0  0
    6.2061    0.3704   -0.0652 C   0  0  0  0  0  0  0  0  0  0  0  0
    4.9852    0.7514    0.4435 C   0  0  0  0  0  0  0  0  0  0  0  0
    3.8048    0.3581   -0.1918 C   0  0  0  0  0  0  0  0  0  0  0  0
    3.9305   -0.4088   -1.3170 C   0  0  0  0  0  0  0  0  0  0  0  0
    5.1429   -0.7881   -1.8233 C   0  0  0  0  0  0  0  0  0  0  0  0
    2.2382    0.8185    0.4566 S   0  0  0  0  0  0  0  0  0  0  0  0
    2.3483    1.3039    1.8637 O   0  0  0  0  0  0  0  0  0  0  0  0
    1.7173    1.9413   -0.3798 O   0  0  0  0  0  0  0  0  0  0  0  0
    1.2257   -0.5858    0.3810 N   0  0  0  0  0  0  0  0  0  0  0  0
    0.2765   -0.3606   -0.6503 C   0  0  0  0  0  0  0  0  0  0  0  0
   -1.1290   -0.8422   -0.3411 C   0  0  0  0  0  0  0  0  0  0  0  0
   -1.6135   -0.3056    0.8785 N   0  0  0  0  0  0  0  0  0  0  0  0
   -0.5687   -0.0308    1.9159 C   0  0  0  0  0  0  0  0  0  0  0  0
    0.6157   -0.8944    1.6589 C   0  0  0  0  0  0  0  0  0  0  0  0
   -2.9040    0.0250    1.3021 C   0  0  0  0  0  0  0  0  0  0  0  0
   -3.0101    0.5561    2.5181 O   0  0  0  0  0  0  0  0  0  0  0  0
   -4.1556   -0.1205    0.6217 C   0  0  0  0  0  0  0  0  0  0  0  0
   -4.3493   -0.8365   -0.5179 C   0  0  0  0  0  0  0  0  0  0  0  0
   -5.5824   -0.8777   -1.1966 C   0  0  0  0  0  0  0  0  0  0  0  0
   -6.6543   -0.1736   -0.7061 C   0  0  0  0  0  0  0  0  0  0  0  0
   -6.5030    0.5621    0.4483 C   0  0  0  0  0  0  0  0  0  0  0  0
   -5.2895    0.5797    1.0812 C   0  0  0  0  0  0  0  0  0  0  0  0
   -7.6257    1.3482    1.0447 C   0  0  0  0  0  0  0  0  0  0  0  0
   -7.9425    2.3173    0.0918 F   0  0  0  0  0  0  0  0  0  0  0  0
   -8.7515    0.5762    1.2515 F   0  0  0  0  0  0  0  0  0  0  0  0
   -7.1917    1.9481    2.2001 F   0  0  0  0  0  0  0  0  0  0  0  0
   -5.7259   -1.6350   -2.3937 C   0  0  0  0  0  0  0  0  0  0  0  0
   -5.8598   -2.2539   -3.3659 N   0  0  0  0  0  0  0  0  0  0  0  0
    9.5611   -0.2317   -1.9155 H   0  0  0  0  0  0  0  0  0  0  0  0
    9.1791   -1.1964   -0.4277 H   0  0  0  0  0  0  0  0  0  0  0  0
    8.7137    0.5294   -0.5599 H   0  0  0  0  0  0  0  0  0  0  0  0
    7.0681    0.7168    0.4840 H   0  0  0  0  0  0  0  0  0  0  0  0
    4.9124    1.3593    1.3365 H   0  0  0  0  0  0  0  0  0  0  0  0
    3.0017   -0.7242   -1.8184 H   0  0  0  0  0  0  0  0  0  0  0  0
    5.2504   -1.3932   -2.7179 H   0  0  0  0  0  0  0  0  0  0  0  0
    0.2471    0.7127   -0.9564 H   0  0  0  0  0  0  0  0  0  0  0  0
    0.6012   -0.9018   -1.5861 H   0  0  0  0  0  0  0  0  0  0  0  0
   -1.1259   -1.9455   -0.4236 H   0  0  0  0  0  0  0  0  0  0  0  0
   -1.7336   -0.4756   -1.2352 H   0  0  0  0  0  0  0  0  0  0  0  0
   -0.9794   -0.2104    2.9055 H   0  0  0  0  0  0  0  0  0  0  0  0
   -0.2956    1.0211    1.7474 H   0  0  0  0  0  0  0  0  0  0  0  0
    0.3385   -1.9872    1.7058 H   0  0  0  0  0  0  0  0  0  0  0  0
    1.3611   -0.7451    2.4724 H   0  0  0  0  0  0  0  0  0  0  0  0
   -3.6029   -1.4542   -0.9636 H   0  0  0  0  0  0  0  0  0  0  0  0
   -7.6089   -0.1666   -1.1765 H   0  0  0  0  0  0  0  0  0  0  0  0
   -5.1802    1.1605    1.9852 H   0  0  0  0  0  0  0  0  0  0  0  0
  1  2  1  0
  2  3  1  0
  3  4  2  0
  4  5  1  0
  5  6  2  0
  6  7  1  0
  7  8  2  0
  6  9  1  0
  9 10  2  0
  9 11  2  0
  9 12  1  0
 12 13  1  0
 13 14  1  0
 14 15  1  0
 15 16  1  0
 16 17  1  0
 15 18  1  0
 18 19  2  0
 18 20  1  0
 20 21  2  0
 21 22  1  0
 22 23  2  0
 23 24  1  0
 24 25  2  0
 24 26  1  0
 26 27  1  0
 26 28  1  0
 26 29  1  0
 22 30  1  0
 30 31  3  0
  8  3  1  0
 17 12  1  0
 25 20  1  0
  1 32  1  0
  1 33  1  0
  1 34  1  0
  4 35  1  0
  5 36  1  0
  7 37  1  0
  8 38  1  0
 13 39  1  0
 13 40  1  0
 14 41  1  0
 14 42  1  0
 16 43  1  0
 16 44  1  0
 17 45  1  0
 17 46  1  0
 21 47  1  0
 23 48  1  0
 25 49  1  0
M  END
$$$$
[H]c1nc(N([H])c2c([H])c([H])c(N3C([H])([H])C([H])([H])OC([H])([H])C3([H])[H])c([H])c2OC([H])([H])[H])nc(N([H])c2c([H])c([H])c([H])c([H])c2S(=O)(=O)C([H])([H])[H])c1Cl
     RDKit          3D

 57 60  0  0  0  0  0  0  0  0999 V2000
   -4.1690    2.1084   -3.3338 C   0  0  0  0  0  0  0  0  0  0  0  0
   -2.8691    1.7566   -2.9499 O   0  0  0  0  0  0  0  0  0  0  0  0
   -2.5674    1.1667   -1.7515 C   0  0  0  0  0  0  0  0  0  0  0  0
   -3.5634    0.9004   -0.8670 C   0  0  0  0  0  0  0  0  0  0  0  0
   -3.2946    0.2992    0.3635 C   0  0  0  0  0  0  0  0  0  0  0  0
   -2.0038   -0.0065    0.6344 C   0  0  0  0  0  0  0  0  0  0  0  0
   -0.9706    0.2696   -0.2797 C   0  0  0  0  0  0  0  0  0  0  0  0
   -1.2147    0.8593   -1.4889 C   0  0  0  0  0  0  0  0  0  0  0  0
   -0.2701    1.1580   -2.4546 N   0  0  0  0  0  0  0  0  0  0  0  0
    1.1499    1.0909   -2.4140 C   0  0  0  0  0  0  0  0  0  0  0  0
    1.8625    1.4249   -3.5076 N   0  0  0  0  0  0  0  0  0  0  0  0
    3.1878    1.4122   -3.4959 C   0  0  0  0  0  0  0  0  0  0  0  0
    3.8960    1.0656   -2.3952 C   0  0  0  0  0  0  0  0  0  0  0  0
    5.5981    1.1951   -2.3505 Cl  0  0  0  0  0  0  0  0  0  0  0  0
    3.1937    0.7038   -1.2261 C   0  0  0  0  0  0  0  0  0  0  0  0
    3.8963    0.2784   -0.1198 N   0  0  0  0  0  0  0  0  0  0  0  0
    4.5739   -0.1320    0.9474 C   0  0  0  0  0  0  0  0  0  0  0  0
    4.5447    0.6947    2.0914 C   0  0  0  0  0  0  0  0  0  0  0  0
    5.3607    0.5281    3.1526 C   0  0  0  0  0  0  0  0  0  0  0  0
    6.2679   -0.4988    3.1259 C   0  0  0  0  0  0  0  0  0  0  0  0
    6.3404   -1.3375    2.0430 C   0  0  0  0  0  0  0  0  0  0  0  0
    5.5020   -1.1574    0.9696 C   0  0  0  0  0  0  0  0  0  0  0  0
    5.5604   -2.3986   -0.2564 S   0  0  0  0  0  0  0  0  0  0  0  0
    3.9713   -3.2677   -0.2757 C   0  0  0  0  0  0  0  0  0  0  0  0
    6.0255   -2.0205   -1.5869 O   0  0  0  0  0  0  0  0  0  0  0  0
    6.5361   -3.4980    0.2067 O   0  0  0  0  0  0  0  0  0  0  0  0
    1.8740    0.7513   -1.3437 N   0  0  0  0  0  0  0  0  0  0  0  0
   -4.3380    0.0684    1.2848 N   0  0  0  0  0  0  0  0  0  0  0  0
   -4.6007   -1.2469    1.8110 C   0  0  0  0  0  0  0  0  0  0  0  0
   -6.0782   -1.5558    1.6455 C   0  0  0  0  0  0  0  0  0  0  0  0
   -6.7900   -0.4978    1.1105 O   0  0  0  0  0  0  0  0  0  0  0  0
   -6.6118    0.7023    1.7484 C   0  0  0  0  0  0  0  0  0  0  0  0
   -5.1740    1.1552    1.7545 C   0  0  0  0  0  0  0  0  0  0  0  0
   -4.7209    2.7435   -2.6459 H   0  0  0  0  0  0  0  0  0  0  0  0
   -4.7421    1.1462   -3.4071 H   0  0  0  0  0  0  0  0  0  0  0  0
   -4.1136    2.6189   -4.3249 H   0  0  0  0  0  0  0  0  0  0  0  0
   -4.6125    1.1327   -1.0572 H   0  0  0  0  0  0  0  0  0  0  0  0
   -1.6936   -0.4779    1.5729 H   0  0  0  0  0  0  0  0  0  0  0  0
    0.0309   -0.0020   -0.0018 H   0  0  0  0  0  0  0  0  0  0  0  0
   -0.6436    1.4953   -3.4105 H   0  0  0  0  0  0  0  0  0  0  0  0
    3.7035    1.6986   -4.4349 H   0  0  0  0  0  0  0  0  0  0  0  0
    2.7434    0.1618    0.5982 H   0  0  0  0  0  0  0  0  0  0  0  0
    3.8210    1.5247    2.1272 H   0  0  0  0  0  0  0  0  0  0  0  0
    5.3158    1.1979    4.0418 H   0  0  0  0  0  0  0  0  0  0  0  0
    6.9362   -0.6304    3.9818 H   0  0  0  0  0  0  0  0  0  0  0  0
    7.0974   -2.1381    2.0956 H   0  0  0  0  0  0  0  0  0  0  0  0
    3.8691   -3.6625    0.7635 H   0  0  0  0  0  0  0  0  0  0  0  0
    3.1535   -2.6314   -0.6106 H   0  0  0  0  0  0  0  0  0  0  0  0
    4.1277   -4.1494   -0.9348 H   0  0  0  0  0  0  0  0  0  0  0  0
   -3.9635   -2.0237    1.3166 H   0  0  0  0  0  0  0  0  0  0  0  0
   -4.3263   -1.2473    2.8620 H   0  0  0  0  0  0  0  0  0  0  0  0
   -6.1847   -2.4363    0.9757 H   0  0  0  0  0  0  0  0  0  0  0  0
   -6.4935   -1.8184    2.6366 H   0  0  0  0  0  0  0  0  0  0  0  0
   -6.9396    0.5793    2.8006 H   0  0  0  0  0  0  0  0  0  0  0  0
   -7.2613    1.4924    1.3114 H   0  0  0  0  0  0  0  0  0  0  0  0
   -5.0630    1.9862    1.0411 H   0  0  0  0  0  0  0  0  0  0  0  0
   -4.8663    1.4685    2.7776 H   0  0  0  0  0  0  0  0  0  0  0  0
  1  2  1  0
  2  3  1  0
  3  4  2  0
  4  5  1  0
  5  6  2  0
  6  7  1  0
  7  8  2  0
  8  9  1  0
  9 10  1  0
 10 11  2  0
 11 12  1  0
 12 13  2  0
 13 14  1  0
 13 15  1  0
 15 16  1  0
 16 17  1  0
 17 18  2  0
 18 19  1  0
 19 20  2  0
 20 21  1  0
 21 22  2  0
 22 23  1  0
 23 24  1  0
 23 25  2  0
 23 26  2  0
 15 27  2  0
  5 28  1  0
 28 29  1  0
 29 30  1  0
 30 31  1  0
 31 32  1  0
 32 33  1  0
  8  3  1  0
 27 10  1  0
 33 28  1  0
 22 17  1  0
  1 34  1  0
  1 35  1  0
  1 36  1  0
  4 37  1  0
  6 38  1  0
  7 39  1  0
  9 40  1  0
 12 41  1  0
 16 42  1  0
 18 43  1  0
 19 44  1  0
 20 45  1  0
 21 46  1  0
 24 47  1  0
 24 48  1  0
 24 49  1  0
 29 50  1  0
 29 51  1  0
 30 52  1  0
 30 53  1  0
 32 54  1  0
 32 55  1  0
 33 56  1  0
 33 57  1  0
M  END
$$$$
[H]c1c([H])c(N([H])C(=O)c2c([H])c(C(=O)N([H])c3c([H])c([H])c(C(C([H])([H])[H])(C([H])([H])[H])C([H])([H])[H])c([H])c3[H])c([H])c([H])c2OC([H])(C([H])([H])[H])C([H])([H])[H])c([H])c(C(F)(F)F)c1[H]
     RDKit          3D

 65 67  0  0  0  0  0  0  0  0999 V2000
   -5.0501   -2.7252    0.3738 C   0  0  0  0  0  0  0  0  0  0  0  0
   -3.7748   -2.1962    0.7928 C   0  0  0  0  0  0  0  0  0  0  0  0
   -3.2475   -3.1109    1.9681 C   0  0  0  0  0  0  0  0  0  0  0  0
   -3.6204   -0.8304    1.3177 O   0  0  0  0  0  0  0  0  0  0  0  0
   -2.2938   -0.3728    0.9691 C   0  0  0  0  0  0  0  0  0  0  0  0
   -1.4650    0.1442    1.9456 C   0  0  0  0  0  0  0  0  0  0  0  0
   -0.1694    0.5090    1.5584 C   0  0  0  0  0  0  0  0  0  0  0  0
    0.2643    0.3572    0.2332 C   0  0  0  0  0  0  0  0  0  0  0  0
   -0.5912   -0.1420   -0.6974 C   0  0  0  0  0  0  0  0  0  0  0  0
   -1.9112   -0.4981   -0.2892 C   0  0  0  0  0  0  0  0  0  0  0  0
   -2.8737   -0.2684   -1.4550 C   0  0  0  0  0  0  0  0  0  0  0  0
   -2.5252   -0.6321   -2.5479 O   0  0  0  0  0  0  0  0  0  0  0  0
   -4.0667    0.3664   -1.0765 N   0  0  0  0  0  0  0  0  0  0  0  0
   -5.1888    0.9609   -0.7373 C   0  0  0  0  0  0  0  0  0  0  0  0
   -5.0836    2.1530    0.0718 C   0  0  0  0  0  0  0  0  0  0  0  0
   -6.1850    2.8196    0.4989 C   0  0  0  0  0  0  0  0  0  0  0  0
   -7.4421    2.3830    0.1716 C   0  0  0  0  0  0  0  0  0  0  0  0
   -7.5616    1.2551   -0.5952 C   0  0  0  0  0  0  0  0  0  0  0  0
   -6.4665    0.5674   -1.0397 C   0  0  0  0  0  0  0  0  0  0  0  0
   -8.9109    0.7396   -0.9960 C   0  0  0  0  0  0  0  0  0  0  0  0
   -9.7902    1.1971   -0.0491 F   0  0  0  0  0  0  0  0  0  0  0  0
   -9.1176    1.1841   -2.2742 F   0  0  0  0  0  0  0  0  0  0  0  0
   -8.8379   -0.6485   -0.9027 F   0  0  0  0  0  0  0  0  0  0  0  0
    1.6878    0.5566   -0.0453 C   0  0  0  0  0  0  0  0  0  0  0  0
    2.4057    0.9921    0.9331 O   0  0  0  0  0  0  0  0  0  0  0  0
    2.3322    0.2833   -1.2546 N   0  0  0  0  0  0  0  0  0  0  0  0
    3.7743    0.4382   -1.2098 C   0  0  0  0  0  0  0  0  0  0  0  0
    4.3314    1.5189   -0.6122 C   0  0  0  0  0  0  0  0  0  0  0  0
    5.6857    1.4643   -0.2405 C   0  0  0  0  0  0  0  0  0  0  0  0
    6.3908    0.3095   -0.5112 C   0  0  0  0  0  0  0  0  0  0  0  0
    5.8388   -0.7881   -1.1356 C   0  0  0  0  0  0  0  0  0  0  0  0
    4.4896   -0.7088   -1.4892 C   0  0  0  0  0  0  0  0  0  0  0  0
    7.7724    0.2103    0.0922 C   0  0  0  0  0  0  0  0  0  0  0  0
    8.4159    1.5559    0.0168 C   0  0  0  0  0  0  0  0  0  0  0  0
    7.4373   -0.0887    1.5833 C   0  0  0  0  0  0  0  0  0  0  0  0
    8.5984   -0.8905   -0.5039 C   0  0  0  0  0  0  0  0  0  0  0  0
   -5.8972   -2.0280    0.3544 H   0  0  0  0  0  0  0  0  0  0  0  0
   -5.3507   -3.6169    1.0009 H   0  0  0  0  0  0  0  0  0  0  0  0
   -5.0051   -3.2348   -0.6626 H   0  0  0  0  0  0  0  0  0  0  0  0
   -2.9664   -2.3617    0.0210 H   0  0  0  0  0  0  0  0  0  0  0  0
   -4.1070   -3.7911    2.2736 H   0  0  0  0  0  0  0  0  0  0  0  0
   -2.9551   -2.5299    2.8091 H   0  0  0  0  0  0  0  0  0  0  0  0
   -2.4876   -3.7999    1.5898 H   0  0  0  0  0  0  0  0  0  0  0  0
   -1.8120    0.2665    2.9569 H   0  0  0  0  0  0  0  0  0  0  0  0
    0.4974    0.9188    2.2656 H   0  0  0  0  0  0  0  0  0  0  0  0
   -0.3151   -0.2662   -1.6915 H   0  0  0  0  0  0  0  0  0  0  0  0
   -4.3685    0.5707   -2.4100 H   0  0  0  0  0  0  0  0  0  0  0  0
   -4.0812    2.4367    0.3105 H   0  0  0  0  0  0  0  0  0  0  0  0
   -6.0763    3.7161    1.1207 H   0  0  0  0  0  0  0  0  0  0  0  0
   -8.3332    2.8860    0.5010 H   0  0  0  0  0  0  0  0  0  0  0  0
   -6.5531   -0.3590   -1.6589 H   0  0  0  0  0  0  0  0  0  0  0  0
    1.9143   -0.0009   -2.1336 H   0  0  0  0  0  0  0  0  0  0  0  0
    3.7374    2.4190   -0.4528 H   0  0  0  0  0  0  0  0  0  0  0  0
    6.1251    2.3487    0.2364 H   0  0  0  0  0  0  0  0  0  0  0  0
    6.4220   -1.6850   -1.3418 H   0  0  0  0  0  0  0  0  0  0  0  0
    4.0739   -1.5825   -1.9871 H   0  0  0  0  0  0  0  0  0  0  0  0
    8.0771    2.1683    0.8493 H   0  0  0  0  0  0  0  0  0  0  0  0
    8.1796    2.1142   -0.9284 H   0  0  0  0  0  0  0  0  0  0  0  0
    9.5358    1.4454    0.0495 H   0  0  0  0  0  0  0  0  0  0  0  0
    6.8879    0.7444    1.9615 H   0  0  0  0  0  0  0  0  0  0  0  0
    8.3559   -0.3919    2.1086 H   0  0  0  0  0  0  0  0  0  0  0  0
    6.7714   -1.0080    1.5233 H   0  0  0  0  0  0  0  0  0  0  0  0
    8.1362   -1.8743   -0.2691 H   0  0  0  0  0  0  0  0  0  0  0  0
    9.5504   -0.8634    0.1072 H   0  0  0  0  0  0  0  0  0  0  0  0
    8.7927   -0.7064   -1.5329 H   0  0  0  0  0  0  0  0  0  0  0  0
  1  2  1  0
  2  3  1  0
  2  4  1  0
  4  5  1  0
  5  6  2  0
  6  7  1  0
  7  8  2  0
  8  9  1  0
  9 10  2  0
 10 11  1  0
 11 12  2  0
 11 13  1  0
 13 14  1  0
 14 15  2  0
 15 16  1  0
 16 17  2  0
 17 18  1  0
 18 19  2  0
 18 20  1  0
 20 21  1  0
 20 22  1  0
 20 23  1  0
  8 24  1  0
 24 25  2  0
 24 26  1  0
 26 27  1  0
 27 28  2  0
 28 29  1  0
 29 30  2  0
 30 31  1  0
 31 32  2  0
 30 33  1  0
 33 34  1  0
 33 35  1  0
 33 36  1  0
 10  5  1  0
 19 14  1  0
 32 27  1  0
  1 37  1  0
  1 38  1  0
  1 39  1  0
  2 40  1  0
  3 41  1  0
  3 42  1  0
  3 43  1  0
  6 44  1  0
  7 45  1  0
  9 46  1  0
 13 47  1  0
 15 48  1  0
 16 49  1  0
 17 50  1  0
 19 51  1  0
 26 52  1  0
 28 53  1  0
 29 54  1  0
 31 55  1  0
 32 56  1  0
 34 57  1  0
 34 58  1  0
 34 59  1  0
 35 60  1  0
 35 61  1  0
 35 62  1  0
 36 63  1  0
 36 64  1  0
 36 65  1  0
M  END
$$$$
[H]OC(=O)[C@]([H])(N([H])S(=O)(=O)c1c([H])c([H])c([H])c(-c2c([H])c([H])c([H])c([H])c2[H])c1[H])C([H])(C([H])([H])[H])C([H])([H])[H]
     RDKit          3D

 42 43  0  0  0  0  0  0  0  0999 V2000
   -1.6983   -0.1061    2.2039 C   0  0  0  0  0  0  0  0  0  0  0  0
   -2.8087    0.0526    1.1864 C   0  0  0  0  0  0  0  0  0  0  0  0
   -2.8345    1.5366    0.8388 C   0  0  0  0  0  0  0  0  0  0  0  0
   -2.5929   -0.7223   -0.0712 C   0  0  1  0  0  0  0  0  0  0  0  0
   -2.4764   -2.1400    0.1357 N   0  0  0  0  0  0  0  0  0  0  0  0
   -1.0427   -2.7080   -0.6194 S   0  0  0  0  0  0  0  0  0  0  0  0
   -1.1373   -2.3039   -2.0830 O   0  0  0  0  0  0  0  0  0  0  0  0
   -0.9962   -4.2110   -0.5940 O   0  0  0  0  0  0  0  0  0  0  0  0
    0.4095   -2.0137    0.0183 C   0  0  0  0  0  0  0  0  0  0  0  0
    1.0090   -2.6421    1.1050 C   0  0  0  0  0  0  0  0  0  0  0  0
    2.1674   -2.1056    1.6144 C   0  0  0  0  0  0  0  0  0  0  0  0
    2.7192   -0.9720    1.0594 C   0  0  0  0  0  0  0  0  0  0  0  0
    2.1336   -0.3330   -0.0249 C   0  0  0  0  0  0  0  0  0  0  0  0
    0.9719   -0.8795   -0.5280 C   0  0  0  0  0  0  0  0  0  0  0  0
    2.7180    0.8595   -0.6065 C   0  0  0  0  0  0  0  0  0  0  0  0
    3.4082    1.7343    0.2287 C   0  0  0  0  0  0  0  0  0  0  0  0
    3.9819    2.8807   -0.2834 C   0  0  0  0  0  0  0  0  0  0  0  0
    3.8784    3.1723   -1.6246 C   0  0  0  0  0  0  0  0  0  0  0  0
    3.1930    2.2988   -2.4393 C   0  0  0  0  0  0  0  0  0  0  0  0
    2.6192    1.1529   -1.9292 C   0  0  0  0  0  0  0  0  0  0  0  0
   -3.7919   -0.4939   -0.9418 C   0  0  0  0  0  0  0  0  0  0  0  0
   -4.1877    0.7582   -1.3480 O   0  0  0  0  0  0  0  0  0  0  0  0
   -4.5020   -1.4666   -1.3457 O   0  0  0  0  0  0  0  0  0  0  0  0
   -1.4699   -1.1531    2.4226 H   0  0  0  0  0  0  0  0  0  0  0  0
   -0.8144    0.4413    1.7731 H   0  0  0  0  0  0  0  0  0  0  0  0
   -1.9931    0.4660    3.1023 H   0  0  0  0  0  0  0  0  0  0  0  0
   -3.7628   -0.2472    1.6820 H   0  0  0  0  0  0  0  0  0  0  0  0
   -2.3964    2.1238    1.6904 H   0  0  0  0  0  0  0  0  0  0  0  0
   -2.2990    1.6927   -0.0964 H   0  0  0  0  0  0  0  0  0  0  0  0
   -3.8883    1.9269    0.7747 H   0  0  0  0  0  0  0  0  0  0  0  0
   -1.7332   -0.3310   -0.6338 H   0  0  0  0  0  0  0  0  0  0  0  0
   -2.5262   -2.3682    1.1431 H   0  0  0  0  0  0  0  0  0  0  0  0
    0.5556   -3.5384    1.5291 H   0  0  0  0  0  0  0  0  0  0  0  0
    2.6391   -2.5951    2.4653 H   0  0  0  0  0  0  0  0  0  0  0  0
    3.6200   -0.5859    1.4835 H   0  0  0  0  0  0  0  0  0  0  0  0
    0.5191   -0.3862   -1.3725 H   0  0  0  0  0  0  0  0  0  0  0  0
    3.4801    1.4854    1.2924 H   0  0  0  0  0  0  0  0  0  0  0  0
    4.5197    3.5524    0.3948 H   0  0  0  0  0  0  0  0  0  0  0  0
    4.3385    4.0757   -1.9898 H   0  0  0  0  0  0  0  0  0  0  0  0
    3.1047    2.5140   -3.4905 H   0  0  0  0  0  0  0  0  0  0  0  0
    2.0926    0.5038   -2.6172 H   0  0  0  0  0  0  0  0  0  0  0  0
   -5.1270    1.0750   -1.4466 H   0  0  0  0  0  0  0  0  0  0  0  0
  1  2  1  0
  2  3  1  0
  2  4  1  0
  4  5  1  0
  5  6  1  0
  6  7  2  0
  6  8  2  0
  6  9  1  0
  9 10  2  0
 10 11  1  0
 11 12  2  0
 12 13  1  0
 13 14  2  0
 13 15  1  0
 15 16  2  0
 16 17  1  0
 17 18  2  0
 18 19  1  0
 19 20  2  0
  4 21  1  0
 21 22  1  0
 21 23  2  0
 14  9  1  0
 20 15  1  0
  1 24  1  0
  1 25  1  0
  1 26  1  0
  2 27  1  0
  3 28  1  0
  3 29  1  0
  3 30  1  0
  4 31  1  6
  5 32  1  0
 10 33  1  0
 11 34  1  0
 12 35  1  0
 14 36  1  0
 16 37  1  0
 17 38  1  0
 18 39  1  0
 19 40  1  0
 20 41  1  0
 22 42  1  0
M  END
$$$$
[H]c1c([H])c(N([H])C(=O)c2c([H])c([H])c(C(F)(F)F)c([H])c2[H])c([H])c(C(F)(F)F)c1[H]
     RDKit          3D

 32 33  0  0  0  0  0  0  0  0999 V2000
   -3.3127    2.8153    0.6440 F   0  0  0  0  0  0  0  0  0  0  0  0
   -4.2386    2.0939   -0.1198 C   0  0  0  0  0  0  0  0  0  0  0  0
   -5.4504    2.3023    0.3624 F   0  0  0  0  0  0  0  0  0  0  0  0
   -4.0623    2.6012   -1.4336 F   0  0  0  0  0  0  0  0  0  0  0  0
   -3.7586    0.6867   -0.1035 C   0  0  0  0  0  0  0  0  0  0  0  0
   -4.6151   -0.3108   -0.5408 C   0  0  0  0  0  0  0  0  0  0  0  0
   -4.1635   -1.6120   -0.5276 C   0  0  0  0  0  0  0  0  0  0  0  0
   -2.8501   -1.8851   -0.0726 C   0  0  0  0  0  0  0  0  0  0  0  0
   -2.0216   -0.9733    0.3375 C   0  0  0  0  0  0  0  0  0  0  0  0
   -0.6681   -0.9630    0.6722 N   0  0  0  0  0  0  0  0  0  0  0  0
    0.2904   -1.1248   -0.3934 C   0  0  0  0  0  0  0  0  0  0  0  0
   -0.1388   -1.4409   -1.5249 O   0  0  0  0  0  0  0  0  0  0  0  0
    1.6826   -0.8606   -0.1527 C   0  0  0  0  0  0  0  0  0  0  0  0
    2.4781   -0.5521   -1.2670 C   0  0  0  0  0  0  0  0  0  0  0  0
    3.7133    0.0207   -1.1221 C   0  0  0  0  0  0  0  0  0  0  0  0
    4.2389    0.3240    0.1146 C   0  0  0  0  0  0  0  0  0  0  0  0
    3.4708    0.0069    1.2324 C   0  0  0  0  0  0  0  0  0  0  0  0
    2.2108   -0.5740    1.0777 C   0  0  0  0  0  0  0  0  0  0  0  0
    5.5383    1.0964    0.2281 C   0  0  0  0  0  0  0  0  0  0  0  0
    5.1753    2.4647    0.3972 F   0  0  0  0  0  0  0  0  0  0  0  0
    6.2840    0.6050    1.2547 F   0  0  0  0  0  0  0  0  0  0  0  0
    6.1084    1.0349   -1.0059 F   0  0  0  0  0  0  0  0  0  0  0  0
   -2.5226    0.3781    0.3093 C   0  0  0  0  0  0  0  0  0  0  0  0
   -5.5957   -0.0252   -0.8923 H   0  0  0  0  0  0  0  0  0  0  0  0
   -4.8317   -2.3653   -0.8771 H   0  0  0  0  0  0  0  0  0  0  0  0
   -2.6341   -2.9479   -0.0709 H   0  0  0  0  0  0  0  0  0  0  0  0
   -0.3451   -0.8627    1.6501 H   0  0  0  0  0  0  0  0  0  0  0  0
    2.0498   -0.7984   -2.2052 H   0  0  0  0  0  0  0  0  0  0  0  0
    4.3277    0.2465   -2.0386 H   0  0  0  0  0  0  0  0  0  0  0  0
    3.8604    0.2108    2.2210 H   0  0  0  0  0  0  0  0  0  0  0  0
    1.6544   -0.7951    2.0134 H   0  0  0  0  0  0  0  0  0  0  0  0
   -1.8739    1.2039    0.5772 H   0  0  0  0  0  0  0  0  0  0  0  0
  1  2  1  0
  2  3  1  0
  2  4  1  0
  2  5  1  0
  5  6  2  0
  6  7  1  0
  7  8  2  0
  8  9  1  0
  9 10  1  0
 10 11  1  0
 11 12  2  0
 11 13  1  0
 13 14  2  0
 14 15  1  0
 15 16  2  0
 16 17  1  0
 17 18  2  0
 16 19  1  0
 19 20  1  0
 19 21  1  0
 19 22  1  0
  9 23  2  0
 23  5  1  0
 18 13  1  0
  6 24  1  0
  7 25  1  0
  8 26  1  0
 10 27  1  0
 14 28  1  0
 15 29  1  0
 17 30  1  0
 18 31  1  0
 23 32  1  0
M  END
$$$$
[H]c1c([H])c([H])c(C(=O)N([H])[C@]([H])(C(=O)N([H])[C@]2([H])C([H])([H])[C@]2([H])c2c([H])c([H])c([H])c([H])c2[H])C([H])(C([H])([H])[H])C([H])([H])[H])c([H])c1[H]
     RDKit          3D

 49 51  0  0  0  0  0  0  0  0999 V2000
   -1.8737   -1.8770   -2.1061 C   0  0  0  0  0  0  0  0  0  0  0  0
   -0.7305   -0.9810   -1.5908 C   0  0  0  0  0  0  0  0  0  0  0  0
    0.4954   -1.9142   -1.6040 C   0  0  0  0  0  0  0  0  0  0  0  0
   -1.0249   -0.6339   -0.1741 C   0  0  2  0  0  0  0  0  0  0  0  0
   -2.3497    0.0354   -0.0766 N   0  0  0  0  0  0  0  0  0  0  0  0
   -3.4656   -0.5569    0.5360 C   0  0  0  0  0  0  0  0  0  0  0  0
   -3.3096   -1.7220    1.0251 O   0  0  0  0  0  0  0  0  0  0  0  0
   -4.7607    0.0758    0.6379 C   0  0  0  0  0  0  0  0  0  0  0  0
   -5.8543   -0.6386    1.0794 C   0  0  0  0  0  0  0  0  0  0  0  0
   -7.0918   -0.0418    1.1789 C   0  0  0  0  0  0  0  0  0  0  0  0
   -7.2147    1.2848    0.8278 C   0  0  0  0  0  0  0  0  0  0  0  0
   -6.1412    2.0226    0.3836 C   0  0  0  0  0  0  0  0  0  0  0  0
   -4.8965    1.3927    0.2922 C   0  0  0  0  0  0  0  0  0  0  0  0
   -0.0320    0.2011    0.5055 C   0  0  0  0  0  0  0  0  0  0  0  0
   -0.4754    0.8274    1.5673 O   0  0  0  0  0  0  0  0  0  0  0  0
    1.3115    0.4494    0.2155 N   0  0  0  0  0  0  0  0  0  0  0  0
    2.0935    1.3253    1.0617 C   0  0  2  0  0  0  0  0  0  0  0  0
    3.0163    2.3201    0.4366 C   0  0  0  0  0  0  0  0  0  0  0  0
    3.4628    1.2015    1.4471 C   0  0  2  0  0  0  0  0  0  0  0  0
    4.5848    0.4743    0.9087 C   0  0  0  0  0  0  0  0  0  0  0  0
    5.8789    0.9998    1.1179 C   0  0  0  0  0  0  0  0  0  0  0  0
    7.0123    0.3941    0.6644 C   0  0  0  0  0  0  0  0  0  0  0  0
    6.9326   -0.7718   -0.0253 C   0  0  0  0  0  0  0  0  0  0  0  0
    5.7174   -1.3393   -0.2657 C   0  0  0  0  0  0  0  0  0  0  0  0
    4.5868   -0.7004    0.2075 C   0  0  0  0  0  0  0  0  0  0  0  0
   -1.5173   -2.2915   -3.0691 H   0  0  0  0  0  0  0  0  0  0  0  0
   -2.0881   -2.6889   -1.4119 H   0  0  0  0  0  0  0  0  0  0  0  0
   -2.7064   -1.2029   -2.3343 H   0  0  0  0  0  0  0  0  0  0  0  0
   -0.5995   -0.1760   -2.2943 H   0  0  0  0  0  0  0  0  0  0  0  0
    0.2057   -2.9196   -1.9894 H   0  0  0  0  0  0  0  0  0  0  0  0
    1.2857   -1.5064   -2.2480 H   0  0  0  0  0  0  0  0  0  0  0  0
    0.8881   -2.0825   -0.6013 H   0  0  0  0  0  0  0  0  0  0  0  0
   -1.1565   -1.5973    0.3709 H   0  0  0  0  0  0  0  0  0  0  0  0
   -2.4081    0.9723   -0.4895 H   0  0  0  0  0  0  0  0  0  0  0  0
   -5.7067   -1.6763    1.3436 H   0  0  0  0  0  0  0  0  0  0  0  0
   -7.9537   -0.5915    1.5227 H   0  0  0  0  0  0  0  0  0  0  0  0
   -8.1853    1.7494    0.9060 H   0  0  0  0  0  0  0  0  0  0  0  0
   -6.2521    3.0785    0.1073 H   0  0  0  0  0  0  0  0  0  0  0  0
   -4.0836    2.0037   -0.0586 H   0  0  0  0  0  0  0  0  0  0  0  0
    1.8209    0.0656   -0.6014 H   0  0  0  0  0  0  0  0  0  0  0  0
    1.4127    1.8065    1.8321 H   0  0  0  0  0  0  0  0  0  0  0  0
    3.0819    3.3460    0.7928 H   0  0  0  0  0  0  0  0  0  0  0  0
    3.2132    2.1383   -0.6310 H   0  0  0  0  0  0  0  0  0  0  0  0
    3.7486    1.6858    2.4519 H   0  0  0  0  0  0  0  0  0  0  0  0
    5.9957    1.9285    1.6630 H   0  0  0  0  0  0  0  0  0  0  0  0
    7.9910    0.8327    0.8467 H   0  0  0  0  0  0  0  0  0  0  0  0
    7.8337   -1.2455   -0.3813 H   0  0  0  0  0  0  0  0  0  0  0  0
    5.6437   -2.2770   -0.8199 H   0  0  0  0  0  0  0  0  0  0  0  0
    3.6646   -1.1794    0.0087 H   0  0  0  0  0  0  0  0  0  0  0  0
  1  2  1  0
  2  3  1  0
  2  4  1  0
  4  5  1  0
  5  6  1  0
  6  7  2  0
  6  8  1  0
  8  9  2  0
  9 10  1  0
 10 11  2  0
 11 12  1  0
 12 13  2  0
  4 14  1  0
 14 15  2  0
 14 16  1  0
 16 17  1  0
 17 18  1  0
 18 19  1  0
 19 20  1  0
 20 21  2  0
 21 22  1  0
 22 23  2  0
 23 24  1  0
 24 25  2  0
 13  8  1  0
 19 17  1  0
 25 20  1  0
  1 26  1  0
  1 27  1  0
  1 28  1  0
  2 29  1  0
  3 30  1  0
  3 31  1  0
  3 32  1  0
  4 33  1  1
  5 34  1  0
  9 35  1  0
 10 36  1  0
 11 37  1  0
 12 38  1  0
 13 39  1  0
 16 40  1  0
 17 41  1  1
 18 42  1  0
 18 43  1  0
 19 44  1  1
 21 45  1  0
 22 46  1  0
 23 47  1  0
 24 48  1  0
 25 49  1  0
M  END
$$$$
[H]c1c([H])c(C(F)(F)F)c([H])c([H])c1N([H])C(=O)N1C([H])([H])C([H])([H])C([H])(N([H])C(=O)N([H])c2c([H])c([H])c(C(F)(F)F)c([H])c2[H])C([H])([H])C1([H])[H]
     RDKit          3D

 53 55  0  0  0  0  0  0  0  0999 V2000
   -9.7622    1.5060   -0.9469 F   0  0  0  0  0  0  0  0  0  0  0  0
   -9.1623    1.8717    0.2150 C   0  0  0  0  0  0  0  0  0  0  0  0
   -9.7423    1.2241    1.3328 F   0  0  0  0  0  0  0  0  0  0  0  0
   -9.1592    3.1983    0.4746 F   0  0  0  0  0  0  0  0  0  0  0  0
   -7.7458    1.3989    0.1845 C   0  0  0  0  0  0  0  0  0  0  0  0
   -7.2833    0.4655   -0.7186 C   0  0  0  0  0  0  0  0  0  0  0  0
   -5.9483    0.0471   -0.7148 C   0  0  0  0  0  0  0  0  0  0  0  0
   -5.0667    0.5554    0.1858 C   0  0  0  0  0  0  0  0  0  0  0  0
   -3.7139    0.1403    0.2894 N   0  0  0  0  0  0  0  0  0  0  0  0
   -3.2404   -1.1222    0.0214 C   0  0  0  0  0  0  0  0  0  0  0  0
   -3.9709   -2.0470   -0.3672 O   0  0  0  0  0  0  0  0  0  0  0  0
   -1.8066   -1.3933    0.2101 N   0  0  0  0  0  0  0  0  0  0  0  0
   -1.0546   -0.2584    0.6358 C   0  0  0  0  0  0  0  0  0  0  0  0
    0.4558   -0.6089    0.6930 C   0  0  0  0  0  0  0  0  0  0  0  0
    0.7072   -1.3525   -0.5922 C   0  0  0  0  0  0  0  0  0  0  0  0
    0.1690   -2.7574   -0.3684 C   0  0  0  0  0  0  0  0  0  0  0  0
   -1.2956   -2.6891   -0.0358 C   0  0  0  0  0  0  0  0  0  0  0  0
    2.0241   -1.4284   -1.0921 N   0  0  0  0  0  0  0  0  0  0  0  0
    3.1377   -0.7242   -0.6816 C   0  0  0  0  0  0  0  0  0  0  0  0
    3.1372    0.1266    0.2875 O   0  0  0  0  0  0  0  0  0  0  0  0
    4.4093   -0.9160   -1.3512 N   0  0  0  0  0  0  0  0  0  0  0  0
    5.5036   -0.1988   -0.8858 C   0  0  0  0  0  0  0  0  0  0  0  0
    6.3199   -0.7020    0.1132 C   0  0  0  0  0  0  0  0  0  0  0  0
    7.3778    0.0299    0.5691 C   0  0  0  0  0  0  0  0  0  0  0  0
    7.6344    1.2650    0.0399 C   0  0  0  0  0  0  0  0  0  0  0  0
    6.8359    1.7942   -0.9611 C   0  0  0  0  0  0  0  0  0  0  0  0
    5.7853    1.0380   -1.4006 C   0  0  0  0  0  0  0  0  0  0  0  0
    8.7959    2.0240    0.5789 C   0  0  0  0  0  0  0  0  0  0  0  0
    8.7889    3.3029    0.0343 F   0  0  0  0  0  0  0  0  0  0  0  0
    8.6152    2.1084    1.9691 F   0  0  0  0  0  0  0  0  0  0  0  0
    9.9614    1.4005    0.2509 F   0  0  0  0  0  0  0  0  0  0  0  0
   -5.5315    1.5025    1.1013 C   0  0  0  0  0  0  0  0  0  0  0  0
   -6.8407    1.8962    1.0810 C   0  0  0  0  0  0  0  0  0  0  0  0
   -7.9745    0.0738   -1.4426 H   0  0  0  0  0  0  0  0  0  0  0  0
   -5.6435   -0.6622   -1.4692 H   0  0  0  0  0  0  0  0  0  0  0  0
   -3.0243    0.8866    0.5925 H   0  0  0  0  0  0  0  0  0  0  0  0
   -1.3488    0.1753    1.5937 H   0  0  0  0  0  0  0  0  0  0  0  0
   -1.0588    0.5118   -0.2175 H   0  0  0  0  0  0  0  0  0  0  0  0
    0.9754    0.3727    0.6963 H   0  0  0  0  0  0  0  0  0  0  0  0
    0.7067   -1.1548    1.5891 H   0  0  0  0  0  0  0  0  0  0  0  0
    0.0993   -0.7479   -1.3261 H   0  0  0  0  0  0  0  0  0  0  0  0
    0.4134   -3.3721   -1.2165 H   0  0  0  0  0  0  0  0  0  0  0  0
    0.7694   -3.1625    0.5161 H   0  0  0  0  0  0  0  0  0  0  0  0
   -1.4351   -3.3371    0.8861 H   0  0  0  0  0  0  0  0  0  0  0  0
   -1.8430   -3.2445   -0.8385 H   0  0  0  0  0  0  0  0  0  0  0  0
    2.1942   -2.1272   -1.9217 H   0  0  0  0  0  0  0  0  0  0  0  0
    4.4433   -1.5845   -2.1405 H   0  0  0  0  0  0  0  0  0  0  0  0
    6.0983   -1.6969    0.5384 H   0  0  0  0  0  0  0  0  0  0  0  0
    7.9868   -0.3951    1.3694 H   0  0  0  0  0  0  0  0  0  0  0  0
    7.0810    2.7578   -1.3613 H   0  0  0  0  0  0  0  0  0  0  0  0
    5.1965    1.4880   -2.1995 H   0  0  0  0  0  0  0  0  0  0  0  0
   -4.8052    1.8936    1.8036 H   0  0  0  0  0  0  0  0  0  0  0  0
   -7.1654    2.6281    1.8080 H   0  0  0  0  0  0  0  0  0  0  0  0
  1  2  1  0
  2  3  1  0
  2  4  1  0
  2  5  1  0
  5  6  2  0
  6  7  1  0
  7  8  2  0
  8  9  1  0
  9 10  1  0
 10 11  2  0
 10 12  1  0
 12 13  1  0
 13 14  1  0
 14 15  1  0
 15 16  1  0
 16 17  1  0
 15 18  1  0
 18 19  1  0
 19 20  2  0
 19 21  1  0
 21 22  1  0
 22 23  2  0
 23 24  1  0
 24 25  2  0
 25 26  1  0
 26 27  2  0
 25 28  1  0
 28 29  1  0
 28 30  1  0
 28 31  1  0
  8 32  1  0
 32 33  2  0
 33  5  1  0
 17 12  1  0
 27 22  1  0
  6 34  1  0
  7 35  1  0
  9 36  1  0
 13 37  1  0
 13 38  1  0
 14 39  1  0
 14 40  1  0
 15 41  1  0
 16 42  1  0
 16 43  1  0
 17 44  1  0
 17 45  1  0
 18 46  1  0
 21 47  1  0
 23 48  1  0
 24 49  1  0
 26 50  1  0
 27 51  1  0
 32 52  1  0
 33 53  1  0
M  END
$$$$
[H]c1nc(N2C([H])([H])C([H])([H])N(C([H])([H])[H])C([H])([H])C2([H])[H])c([H])c([H])c1N([H])C(=O)c1nc([H])c(C#Cc2c([H])c([H])c([H])c(C(F)(F)F)c2[H])n1[H]
     RDKit          3D

 54 57  0  0  0  0  0  0  0  0999 V2000
   -7.8655    2.9650   -0.1510 C   0  0  0  0  0  0  0  0  0  0  0  0
   -7.5078    1.7690    0.6108 N   0  0  0  0  0  0  0  0  0  0  0  0
   -6.2145    1.9826    1.1651 C   0  0  0  0  0  0  0  0  0  0  0  0
   -5.7805    0.7406    1.9076 C   0  0  0  0  0  0  0  0  0  0  0  0
   -5.6870   -0.2854    0.8043 N   0  0  0  0  0  0  0  0  0  0  0  0
   -6.9418   -0.5947    0.2071 C   0  0  0  0  0  0  0  0  0  0  0  0
   -7.7267    0.6462   -0.1864 C   0  0  0  0  0  0  0  0  0  0  0  0
   -4.4063   -0.7759    0.4974 C   0  0  0  0  0  0  0  0  0  0  0  0
   -3.7314   -0.2571   -0.6168 C   0  0  0  0  0  0  0  0  0  0  0  0
   -2.4627   -0.6486   -0.9284 C   0  0  0  0  0  0  0  0  0  0  0  0
   -1.7777   -1.6009   -0.1286 C   0  0  0  0  0  0  0  0  0  0  0  0
   -0.4224   -1.8902   -0.4299 N   0  0  0  0  0  0  0  0  0  0  0  0
    0.2806   -3.0756   -0.1760 C   0  0  0  0  0  0  0  0  0  0  0  0
   -0.2691   -4.0943    0.3287 O   0  0  0  0  0  0  0  0  0  0  0  0
    1.7207   -3.1359   -0.4885 C   0  0  0  0  0  0  0  0  0  0  0  0
    2.5440   -4.1028   -0.7889 N   0  0  0  0  0  0  0  0  0  0  0  0
    3.8093   -3.6763   -0.8712 C   0  0  0  0  0  0  0  0  0  0  0  0
    3.7736   -2.3238   -0.6019 C   0  0  0  0  0  0  0  0  0  0  0  0
    2.4972   -2.0101   -0.3701 N   0  0  0  0  0  0  0  0  0  0  0  0
    4.9205   -1.4325   -0.5068 C   0  0  0  0  0  0  0  0  0  0  0  0
    5.9082   -0.7171   -0.3636 C   0  0  0  0  0  0  0  0  0  0  0  0
    7.0869    0.0809   -0.1359 C   0  0  0  0  0  0  0  0  0  0  0  0
    7.9562   -0.3160    0.8979 C   0  0  0  0  0  0  0  0  0  0  0  0
    9.1049    0.3644    1.1831 C   0  0  0  0  0  0  0  0  0  0  0  0
    9.3899    1.4694    0.4163 C   0  0  0  0  0  0  0  0  0  0  0  0
    8.5499    1.8797   -0.6034 C   0  0  0  0  0  0  0  0  0  0  0  0
    7.3832    1.1676   -0.8711 C   0  0  0  0  0  0  0  0  0  0  0  0
    8.9476    3.0722   -1.3560 C   0  0  0  0  0  0  0  0  0  0  0  0
   10.2959    2.9790   -1.7279 F   0  0  0  0  0  0  0  0  0  0  0  0
    8.8638    4.1721   -0.5138 F   0  0  0  0  0  0  0  0  0  0  0  0
    8.2239    3.2100   -2.5028 F   0  0  0  0  0  0  0  0  0  0  0  0
   -2.4717   -2.0788    0.9355 C   0  0  0  0  0  0  0  0  0  0  0  0
   -3.7399   -1.6778    1.2340 N   0  0  0  0  0  0  0  0  0  0  0  0
   -8.8841    3.3399    0.0827 H   0  0  0  0  0  0  0  0  0  0  0  0
   -7.1430    3.7909    0.0668 H   0  0  0  0  0  0  0  0  0  0  0  0
   -7.7064    2.7191   -1.2287 H   0  0  0  0  0  0  0  0  0  0  0  0
   -5.4864    2.0547    0.2959 H   0  0  0  0  0  0  0  0  0  0  0  0
   -6.1705    2.9124    1.7484 H   0  0  0  0  0  0  0  0  0  0  0  0
   -4.8195    0.8561    2.3979 H   0  0  0  0  0  0  0  0  0  0  0  0
   -6.5479    0.3612    2.6067 H   0  0  0  0  0  0  0  0  0  0  0  0
   -6.8933   -1.2477   -0.6783 H   0  0  0  0  0  0  0  0  0  0  0  0
   -7.5427   -1.1156    1.0045 H   0  0  0  0  0  0  0  0  0  0  0  0
   -8.8066    0.3812   -0.1518 H   0  0  0  0  0  0  0  0  0  0  0  0
   -7.5113    0.8856   -1.2588 H   0  0  0  0  0  0  0  0  0  0  0  0
   -4.2747    0.4741   -1.2378 H   0  0  0  0  0  0  0  0  0  0  0  0
   -1.9220   -0.2617   -1.7754 H   0  0  0  0  0  0  0  0  0  0  0  0
    0.1379   -1.1092   -0.9484 H   0  0  0  0  0  0  0  0  0  0  0  0
    4.6817   -4.2760   -1.1221 H   0  0  0  0  0  0  0  0  0  0  0  0
    2.1398   -1.0548   -0.1254 H   0  0  0  0  0  0  0  0  0  0  0  0
    7.7284   -1.1979    1.5226 H   0  0  0  0  0  0  0  0  0  0  0  0
    9.7284    0.0139    1.9846 H   0  0  0  0  0  0  0  0  0  0  0  0
   10.3050    2.0083    0.6209 H   0  0  0  0  0  0  0  0  0  0  0  0
    6.7114    1.4849   -1.6485 H   0  0  0  0  0  0  0  0  0  0  0  0
   -1.9755   -2.8242    1.5796 H   0  0  0  0  0  0  0  0  0  0  0  0
  1  2  1  0
  2  3  1  0
  3  4  1  0
  4  5  1  0
  5  6  1  0
  6  7  1  0
  5  8  1  0
  8  9  2  0
  9 10  1  0
 10 11  2  0
 11 12  1  0
 12 13  1  0
 13 14  2  0
 13 15  1  0
 15 16  2  0
 16 17  1  0
 17 18  2  0
 18 19  1  0
 18 20  1  0
 20 21  3  0
 21 22  1  0
 22 23  2  0
 23 24  1  0
 24 25  2  0
 25 26  1  0
 26 27  2  0
 26 28  1  0
 28 29  1  0
 28 30  1  0
 28 31  1  0
 11 32  1  0
 32 33  2  0
  7  2  1  0
 33  8  1  0
 19 15  1  0
 27 22  1  0
  1 34  1  0
  1 35  1  0
  1 36  1  0
  3 37  1  0
  3 38  1  0
  4 39  1  0
  4 40  1  0
  6 41  1  0
  6 42  1  0
  7 43  1  0
  7 44  1  0
  9 45  1  0
 10 46  1  0
 12 47  1  0
 17 48  1  0
 19 49  1  0
 23 50  1  0
 24 51  1  0
 25 52  1  0
 27 53  1  0
 32 54  1  0
M  END
$$$$
[H]c1nc([H])c(F)c(-c2c([H])nc(C([H])([H])[H])nc2OC([H])([H])[C@@]2([H])C([H])([H])[C@]2([H])c2nc([H])c(OC([H])([H])[H])c([H])c2[H])c1[H]
     RDKit          3D

 46 49  0  0  0  0  0  0  0  0999 V2000
    7.2856    2.2933   -0.0498 C   0  0  0  0  0  0  0  0  0  0  0  0
    6.8870    1.0182   -0.4951 O   0  0  0  0  0  0  0  0  0  0  0  0
    5.6607    0.4961   -0.1378 C   0  0  0  0  0  0  0  0  0  0  0  0
    5.3326   -0.7653   -0.6102 C   0  0  0  0  0  0  0  0  0  0  0  0
    4.1133   -1.2946   -0.2603 C   0  0  0  0  0  0  0  0  0  0  0  0
    3.2021   -0.6274    0.5391 C   0  0  0  0  0  0  0  0  0  0  0  0
    3.5371    0.6026    0.9915 N   0  0  0  0  0  0  0  0  0  0  0  0
    4.7434    1.1376    0.6517 C   0  0  0  0  0  0  0  0  0  0  0  0
    1.9153   -1.2928    0.8599 C   0  0  1  0  0  0  0  0  0  0  0  0
    1.1558   -0.7680    2.0030 C   0  0  0  0  0  0  0  0  0  0  0  0
    0.6799   -0.4909    0.5963 C   0  0  2  0  0  0  0  0  0  0  0  0
   -0.5750   -1.1923    0.1896 C   0  0  0  0  0  0  0  0  0  0  0  0
   -1.6452   -0.2912   -0.0328 O   0  0  0  0  0  0  0  0  0  0  0  0
   -2.8518   -0.8504   -0.4163 C   0  0  0  0  0  0  0  0  0  0  0  0
   -2.9920   -2.1987   -0.5658 N   0  0  0  0  0  0  0  0  0  0  0  0
   -4.1632   -2.7374   -0.9390 C   0  0  0  0  0  0  0  0  0  0  0  0
   -4.2281   -4.2192   -1.0686 C   0  0  0  0  0  0  0  0  0  0  0  0
   -5.2050   -1.9341   -1.1666 N   0  0  0  0  0  0  0  0  0  0  0  0
   -5.0987   -0.5895   -1.0260 C   0  0  0  0  0  0  0  0  0  0  0  0
   -3.9145   -0.0084   -0.6459 C   0  0  0  0  0  0  0  0  0  0  0  0
   -3.7121    1.4202   -0.4628 C   0  0  0  0  0  0  0  0  0  0  0  0
   -4.1628    2.0035    0.7042 C   0  0  0  0  0  0  0  0  0  0  0  0
   -4.0271    3.3497    0.9766 C   0  0  0  0  0  0  0  0  0  0  0  0
   -3.4269    4.1176    0.0552 N   0  0  0  0  0  0  0  0  0  0  0  0
   -2.9756    3.5863   -1.0927 C   0  0  0  0  0  0  0  0  0  0  0  0
   -3.0999    2.2461   -1.3858 C   0  0  0  0  0  0  0  0  0  0  0  0
   -2.6441    1.7010   -2.5403 F   0  0  0  0  0  0  0  0  0  0  0  0
    6.4580    3.0259   -0.2234 H   0  0  0  0  0  0  0  0  0  0  0  0
    8.1582    2.6101   -0.6546 H   0  0  0  0  0  0  0  0  0  0  0  0
    7.5407    2.2283    1.0341 H   0  0  0  0  0  0  0  0  0  0  0  0
    6.0053   -1.3214   -1.2338 H   0  0  0  0  0  0  0  0  0  0  0  0
    3.8514   -2.2798   -0.6258 H   0  0  0  0  0  0  0  0  0  0  0  0
    4.9847    2.1292    1.0317 H   0  0  0  0  0  0  0  0  0  0  0  0
    1.8670   -2.3823    0.6077 H   0  0  0  0  0  0  0  0  0  0  0  0
    0.5247   -1.4374    2.6411 H   0  0  0  0  0  0  0  0  0  0  0  0
    1.5146    0.1250    2.5648 H   0  0  0  0  0  0  0  0  0  0  0  0
    0.8308    0.5121    0.1666 H   0  0  0  0  0  0  0  0  0  0  0  0
   -0.9168   -1.8311    1.0494 H   0  0  0  0  0  0  0  0  0  0  0  0
   -0.4340   -1.9047   -0.6507 H   0  0  0  0  0  0  0  0  0  0  0  0
   -3.7996   -4.4983   -2.0295 H   0  0  0  0  0  0  0  0  0  0  0  0
   -5.2670   -4.5861   -0.8898 H   0  0  0  0  0  0  0  0  0  0  0  0
   -3.6243   -4.6430   -0.2333 H   0  0  0  0  0  0  0  0  0  0  0  0
   -5.9449    0.0840   -1.2098 H   0  0  0  0  0  0  0  0  0  0  0  0
   -4.6546    1.3876    1.4610 H   0  0  0  0  0  0  0  0  0  0  0  0
   -4.3841    3.8060    1.8957 H   0  0  0  0  0  0  0  0  0  0  0  0
   -2.5008    4.2639   -1.7935 H   0  0  0  0  0  0  0  0  0  0  0  0
  1  2  1  0
  2  3  1  0
  3  4  2  0
  4  5  1  0
  5  6  2  0
  6  7  1  0
  7  8  2  0
  6  9  1  0
  9 10  1  0
 10 11  1  0
 11 12  1  0
 12 13  1  0
 13 14  1  0
 14 15  2  0
 15 16  1  0
 16 17  1  0
 16 18  2  0
 18 19  1  0
 19 20  2  0
 20 21  1  0
 21 22  2  0
 22 23  1  0
 23 24  2  0
 24 25  1  0
 25 26  2  0
 26 27  1  0
  8  3  1  0
 11  9  1  0
 20 14  1  0
 26 21  1  0
  1 28  1  0
  1 29  1  0
  1 30  1  0
  4 31  1  0
  5 32  1  0
  8 33  1  0
  9 34  1  1
 10 35  1  0
 10 36  1  0
 11 37  1  6
 12 38  1  0
 12 39  1  0
 17 40  1  0
 17 41  1  0
 17 42  1  0
 19 43  1  0
 22 44  1  0
 23 45  1  0
 25 46  1  0
M  END
$$$$
[H]c1c([H])c([H])c(-c2c([H])c([H])c(N([H])C(=O)N([H])[C@@]([H])(C([H])([H])C([H])(C([H])([H])[H])C([H])([H])[H])C(C([H])([H])[H])(C([H])([H])[H])C([H])([H])[H])c([H])c2[H])c([H])c1[H]
     RDKit          3D

 55 56  0  0  0  0  0  0  0  0999 V2000
   -4.6260    3.3019   -0.7248 C   0  0  0  0  0  0  0  0  0  0  0  0
   -3.9704    1.9223   -1.0795 C   0  0  0  0  0  0  0  0  0  0  0  0
   -4.9410    1.3469   -2.0682 C   0  0  0  0  0  0  0  0  0  0  0  0
   -3.6850    1.1897    0.1549 C   0  0  0  0  0  0  0  0  0  0  0  0
   -3.0384   -0.1320    0.1733 C   0  0  2  0  0  0  0  0  0  0  0  0
   -1.7484   -0.0829   -0.4917 N   0  0  0  0  0  0  0  0  0  0  0  0
   -0.4830   -0.0838    0.0906 C   0  0  0  0  0  0  0  0  0  0  0  0
   -0.4039   -0.1325    1.3224 O   0  0  0  0  0  0  0  0  0  0  0  0
    0.6693   -0.0302   -0.7098 N   0  0  0  0  0  0  0  0  0  0  0  0
    2.0183   -0.0115   -0.3263 C   0  0  0  0  0  0  0  0  0  0  0  0
    2.4395    0.2533    0.9404 C   0  0  0  0  0  0  0  0  0  0  0  0
    3.8028    0.2424    1.2978 C   0  0  0  0  0  0  0  0  0  0  0  0
    4.7730   -0.0385    0.3715 C   0  0  0  0  0  0  0  0  0  0  0  0
    4.3668   -0.3083   -0.9143 C   0  0  0  0  0  0  0  0  0  0  0  0
    3.0334   -0.2952   -1.2520 C   0  0  0  0  0  0  0  0  0  0  0  0
    6.2048   -0.0532    0.7403 C   0  0  0  0  0  0  0  0  0  0  0  0
    6.6621    0.7920    1.7282 C   0  0  0  0  0  0  0  0  0  0  0  0
    7.9891    0.7880    2.0782 C   0  0  0  0  0  0  0  0  0  0  0  0
    8.8900   -0.0475    1.4626 C   0  0  0  0  0  0  0  0  0  0  0  0
    8.4196   -0.8910    0.4729 C   0  0  0  0  0  0  0  0  0  0  0  0
    7.0867   -0.9100    0.0978 C   0  0  0  0  0  0  0  0  0  0  0  0
   -3.7627   -1.3892    0.1590 C   0  0  0  0  0  0  0  0  0  0  0  0
   -4.6488   -1.8194   -0.9182 C   0  0  0  0  0  0  0  0  0  0  0  0
   -4.6316   -1.4192    1.4557 C   0  0  0  0  0  0  0  0  0  0  0  0
   -2.7526   -2.5367    0.4324 C   0  0  0  0  0  0  0  0  0  0  0  0
   -5.6036    3.0960   -0.2905 H   0  0  0  0  0  0  0  0  0  0  0  0
   -4.7530    3.7839   -1.7198 H   0  0  0  0  0  0  0  0  0  0  0  0
   -3.9392    3.8834   -0.0967 H   0  0  0  0  0  0  0  0  0  0  0  0
   -3.0811    2.2338   -1.6679 H   0  0  0  0  0  0  0  0  0  0  0  0
   -4.4646    0.6334   -2.7428 H   0  0  0  0  0  0  0  0  0  0  0  0
   -5.2903    2.1882   -2.7577 H   0  0  0  0  0  0  0  0  0  0  0  0
   -5.8519    0.9096   -1.6243 H   0  0  0  0  0  0  0  0  0  0  0  0
   -3.0559    1.9175    0.7925 H   0  0  0  0  0  0  0  0  0  0  0  0
   -4.6488    1.1914    0.7591 H   0  0  0  0  0  0  0  0  0  0  0  0
   -2.6246   -0.1517    1.3043 H   0  0  0  0  0  0  0  0  0  0  0  0
   -1.8202   -0.0427   -1.5357 H   0  0  0  0  0  0  0  0  0  0  0  0
    0.5364    0.0099   -1.7978 H   0  0  0  0  0  0  0  0  0  0  0  0
    1.7412    0.4957    1.7268 H   0  0  0  0  0  0  0  0  0  0  0  0
    4.0989    0.4570    2.3128 H   0  0  0  0  0  0  0  0  0  0  0  0
    5.1342   -0.5293   -1.6438 H   0  0  0  0  0  0  0  0  0  0  0  0
    2.6965   -0.5095   -2.2697 H   0  0  0  0  0  0  0  0  0  0  0  0
    5.9983    1.4672    2.2432 H   0  0  0  0  0  0  0  0  0  0  0  0
    8.3735    1.4384    2.8468 H   0  0  0  0  0  0  0  0  0  0  0  0
    9.9283   -0.0343    1.7533 H   0  0  0  0  0  0  0  0  0  0  0  0
    9.1337   -1.5492   -0.0111 H   0  0  0  0  0  0  0  0  0  0  0  0
    6.7110   -1.5554   -0.6634 H   0  0  0  0  0  0  0  0  0  0  0  0
   -4.3038   -1.6733   -1.9589 H   0  0  0  0  0  0  0  0  0  0  0  0
   -4.8282   -2.9384   -0.8261 H   0  0  0  0  0  0  0  0  0  0  0  0
   -5.6761   -1.4040   -0.8571 H   0  0  0  0  0  0  0  0  0  0  0  0
   -4.8977   -2.4896    1.5741 H   0  0  0  0  0  0  0  0  0  0  0  0
   -5.5509   -0.8536    1.3174 H   0  0  0  0  0  0  0  0  0  0  0  0
   -4.0145   -1.1411    2.3104 H   0  0  0  0  0  0  0  0  0  0  0  0
   -2.0643   -2.6140   -0.4215 H   0  0  0  0  0  0  0  0  0  0  0  0
   -2.2539   -2.3761    1.4065 H   0  0  0  0  0  0  0  0  0  0  0  0
   -3.2931   -3.4987    0.5078 H   0  0  0  0  0  0  0  0  0  0  0  0
  1  2  1  0
  2  3  1  0
  2  4  1  0
  4  5  1  0
  5  6  1  0
  6  7  1  0
  7  8  2  0
  7  9  1  0
  9 10  1  0
 10 11  2  0
 11 12  1  0
 12 13  2  0
 13 14  1  0
 14 15  2  0
 13 16  1  0
 16 17  2  0
 17 18  1  0
 18 19  2  0
 19 20  1  0
 20 21  2  0
  5 22  1  0
 22 23  1  0
 22 24  1  0
 22 25  1  0
 15 10  1  0
 21 16  1  0
  1 26  1  0
  1 27  1  0
  1 28  1  0
  2 29  1  0
  3 30  1  0
  3 31  1  0
  3 32  1  0
  4 33  1  0
  4 34  1  0
  5 35  1  1
  6 36  1  0
  9 37  1  0
 11 38  1  0
 12 39  1  0
 14 40  1  0
 15 41  1  0
 17 42  1  0
 18 43  1  0
 19 44  1  0
 20 45  1  0
 21 46  1  0
 23 47  1  0
 23 48  1  0
 23 49  1  0
 24 50  1  0
 24 51  1  0
 24 52  1  0
 25 53  1  0
 25 54  1  0
 25 55  1  0
M  END
$$$$
[H]c1nc([H])n([H])c1C([H])([H])[C@@]([H])(C(=O)N([H])[C@]([H])(C(=O)N([H])[C@]([H])(C(=O)N([H])[H])C([H])([H])c1c([H])c([H])c([H])c([H])c1[H])C([H])([H])c1c([H])c([H])c([H])c([H])c1[H])N([H])C(=O)OC(C([H])([H])[H])(C([H])([H])[H])C([H])([H])[H]
     RDKit          3D

 76 78  0  0  0  0  0  0  0  0999 V2000
   -7.4533   -1.1591   -1.2375 C   0  0  0  0  0  0  0  0  0  0  0  0
   -6.2488   -1.6833   -0.4356 C   0  0  0  0  0  0  0  0  0  0  0  0
   -6.7045   -2.1580    0.9158 C   0  0  0  0  0  0  0  0  0  0  0  0
   -5.6315   -2.8012   -1.2461 C   0  0  0  0  0  0  0  0  0  0  0  0
   -5.3370   -0.6309   -0.3966 O   0  0  0  0  0  0  0  0  0  0  0  0
   -4.0888   -0.6966    0.2727 C   0  0  0  0  0  0  0  0  0  0  0  0
   -3.9244   -1.8095    0.8245 O   0  0  0  0  0  0  0  0  0  0  0  0
   -3.2296    0.4023    0.2509 N   0  0  0  0  0  0  0  0  0  0  0  0
   -1.9650    0.6508    0.8175 C   0  0  1  0  0  0  0  0  0  0  0  0
   -1.4654   -0.3961    1.8148 C   0  0  0  0  0  0  0  0  0  0  0  0
   -2.3864   -0.4081    3.0169 C   0  0  0  0  0  0  0  0  0  0  0  0
   -2.3437   -1.2906    4.0736 C   0  0  0  0  0  0  0  0  0  0  0  0
   -3.2981   -0.9262    4.9454 N   0  0  0  0  0  0  0  0  0  0  0  0
   -3.9472    0.1656    4.4722 C   0  0  0  0  0  0  0  0  0  0  0  0
   -3.3728    0.4551    3.3021 N   0  0  0  0  0  0  0  0  0  0  0  0
   -0.9421    0.8499   -0.1882 C   0  0  0  0  0  0  0  0  0  0  0  0
   -1.2900    0.7147   -1.4174 O   0  0  0  0  0  0  0  0  0  0  0  0
    0.4253    1.1839   -0.0028 N   0  0  0  0  0  0  0  0  0  0  0  0
    1.3196    1.3536   -1.1289 C   0  0  1  0  0  0  0  0  0  0  0  0
    1.4116    2.9006   -1.3359 C   0  0  0  0  0  0  0  0  0  0  0  0
    1.9540    3.5088   -0.0956 C   0  0  0  0  0  0  0  0  0  0  0  0
    1.1420    3.9164    0.9429 C   0  0  0  0  0  0  0  0  0  0  0  0
    1.6571    4.4614    2.1027 C   0  0  0  0  0  0  0  0  0  0  0  0
    3.0288    4.6232    2.2716 C   0  0  0  0  0  0  0  0  0  0  0  0
    3.8375    4.2176    1.2351 C   0  0  0  0  0  0  0  0  0  0  0  0
    3.3120    3.6724    0.0766 C   0  0  0  0  0  0  0  0  0  0  0  0
    2.6828    0.8286   -0.9221 C   0  0  0  0  0  0  0  0  0  0  0  0
    3.0481    0.5289    0.2357 O   0  0  0  0  0  0  0  0  0  0  0  0
    3.5840    0.6522   -1.9971 N   0  0  0  0  0  0  0  0  0  0  0  0
    4.9346    0.1522   -1.8733 C   0  0  1  0  0  0  0  0  0  0  0  0
    4.9115   -1.3012   -2.3633 C   0  0  0  0  0  0  0  0  0  0  0  0
    4.0239   -2.1542   -1.5557 C   0  0  0  0  0  0  0  0  0  0  0  0
    4.5242   -2.7880   -0.4343 C   0  0  0  0  0  0  0  0  0  0  0  0
    3.7262   -3.6089    0.3622 C   0  0  0  0  0  0  0  0  0  0  0  0
    2.4109   -3.7968    0.0314 C   0  0  0  0  0  0  0  0  0  0  0  0
    1.8916   -3.1692   -1.0901 C   0  0  0  0  0  0  0  0  0  0  0  0
    2.7093   -2.3491   -1.8774 C   0  0  0  0  0  0  0  0  0  0  0  0
    5.8167    0.9039   -2.7729 C   0  0  0  0  0  0  0  0  0  0  0  0
    7.1915    0.5947   -2.8545 N   0  0  0  0  0  0  0  0  0  0  0  0
    5.3621    1.8267   -3.4796 O   0  0  0  0  0  0  0  0  0  0  0  0
   -8.0484   -1.9943   -1.6486 H   0  0  0  0  0  0  0  0  0  0  0  0
   -8.0423   -0.5261   -0.5060 H   0  0  0  0  0  0  0  0  0  0  0  0
   -7.0485   -0.4640   -1.9955 H   0  0  0  0  0  0  0  0  0  0  0  0
   -7.8202   -2.3120    0.8580 H   0  0  0  0  0  0  0  0  0  0  0  0
   -6.2923   -3.1475    1.1709 H   0  0  0  0  0  0  0  0  0  0  0  0
   -6.5859   -1.3876    1.7065 H   0  0  0  0  0  0  0  0  0  0  0  0
   -6.3007   -3.0393   -2.1034 H   0  0  0  0  0  0  0  0  0  0  0  0
   -4.6622   -2.4864   -1.6869 H   0  0  0  0  0  0  0  0  0  0  0  0
   -5.4070   -3.7082   -0.6471 H   0  0  0  0  0  0  0  0  0  0  0  0
   -3.6037    1.2478   -0.3182 H   0  0  0  0  0  0  0  0  0  0  0  0
   -2.0857    1.5836    1.5101 H   0  0  0  0  0  0  0  0  0  0  0  0
   -0.4658   -0.1331    2.2111 H   0  0  0  0  0  0  0  0  0  0  0  0
   -1.4060   -1.4027    1.4039 H   0  0  0  0  0  0  0  0  0  0  0  0
   -1.6537   -2.1230    4.1643 H   0  0  0  0  0  0  0  0  0  0  0  0
   -4.7796    0.6966    4.9639 H   0  0  0  0  0  0  0  0  0  0  0  0
   -3.6785    1.2528    2.7159 H   0  0  0  0  0  0  0  0  0  0  0  0
    0.7877    1.3008    0.9547 H   0  0  0  0  0  0  0  0  0  0  0  0
    0.9017    0.9541   -2.0628 H   0  0  0  0  0  0  0  0  0  0  0  0
    0.3742    3.2059   -1.5685 H   0  0  0  0  0  0  0  0  0  0  0  0
    2.0341    3.0386   -2.2177 H   0  0  0  0  0  0  0  0  0  0  0  0
    0.0599    3.8049    0.8406 H   0  0  0  0  0  0  0  0  0  0  0  0
    1.0330    4.7768    2.9130 H   0  0  0  0  0  0  0  0  0  0  0  0
    3.4654    5.0408    3.1672 H   0  0  0  0  0  0  0  0  0  0  0  0
    4.9175    4.3357    1.3457 H   0  0  0  0  0  0  0  0  0  0  0  0
    3.9665    3.3630   -0.7304 H   0  0  0  0  0  0  0  0  0  0  0  0
    3.2208    0.9133   -2.9639 H   0  0  0  0  0  0  0  0  0  0  0  0
    5.2545    0.1673   -0.8046 H   0  0  0  0  0  0  0  0  0  0  0  0
    5.9600   -1.6740   -2.4382 H   0  0  0  0  0  0  0  0  0  0  0  0
    4.5487   -1.2427   -3.4380 H   0  0  0  0  0  0  0  0  0  0  0  0
    5.5615   -2.6655   -0.1344 H   0  0  0  0  0  0  0  0  0  0  0  0
    4.1775   -4.0723    1.2252 H   0  0  0  0  0  0  0  0  0  0  0  0
    1.7765   -4.4440    0.6588 H   0  0  0  0  0  0  0  0  0  0  0  0
    0.8618   -3.3463   -1.3090 H   0  0  0  0  0  0  0  0  0  0  0  0
    2.2451   -1.8971   -2.7246 H   0  0  0  0  0  0  0  0  0  0  0  0
    7.8879    0.9763   -2.1704 H   0  0  0  0  0  0  0  0  0  0  0  0
    7.5696   -0.0289   -3.6016 H   0  0  0  0  0  0  0  0  0  0  0  0
  1  2  1  0
  2  3  1  0
  2  4  1  0
  2  5  1  0
  5  6  1  0
  6  7  2  0
  6  8  1  0
  8  9  1  0
  9 10  1  0
 10 11  1  0
 11 12  2  0
 12 13  1  0
 13 14  2  0
 14 15  1  0
  9 16  1  0
 16 17  2  0
 16 18  1  0
 18 19  1  0
 19 20  1  0
 20 21  1  0
 21 22  2  0
 22 23  1  0
 23 24  2  0
 24 25  1  0
 25 26  2  0
 19 27  1  0
 27 28  2  0
 27 29  1  0
 29 30  1  0
 30 31  1  0
 31 32  1  0
 32 33  2  0
 33 34  1  0
 34 35  2  0
 35 36  1  0
 36 37  2  0
 30 38  1  0
 38 39  1  0
 38 40  2  0
 15 11  1  0
 26 21  1  0
 37 32  1  0
  1 41  1  0
  1 42  1  0
  1 43  1  0
  3 44  1  0
  3 45  1  0
  3 46  1  0
  4 47  1  0
  4 48  1  0
  4 49  1  0
  8 50  1  0
  9 51  1  1
 10 52  1  0
 10 53  1  0
 12 54  1  0
 14 55  1  0
 15 56  1  0
 18 57  1  0
 19 58  1  6
 20 59  1  0
 20 60  1  0
 22 61  1  0
 23 62  1  0
 24 63  1  0
 25 64  1  0
 26 65  1  0
 29 66  1  0
 30 67  1  1
 31 68  1  0
 31 69  1  0
 33 70  1  0
 34 71  1  0
 35 72  1  0
 36 73  1  0
 37 74  1  0
 39 75  1  0
 39 76  1  0
M  END
$$$$
[H]c1c([H])c([N+](=O)[O-])c([H])c([H])c1N1C([H])([H])C([H])([H])N(C(=O)OC(C([H])([H])[H])(C([H])([H])[H])C([H])([H])[H])C([H])([H])C1([H])[H]
     RDKit          3D

 43 44  0  0  0  0  0  0  0  0999 V2000
   -5.1038    0.2769   -0.9334 C   0  0  0  0  0  0  0  0  0  0  0  0
   -4.5244   -0.6503    0.1335 C   0  0  0  0  0  0  0  0  0  0  0  0
   -5.0332   -2.0688   -0.1287 C   0  0  0  0  0  0  0  0  0  0  0  0
   -4.8966   -0.2160    1.5208 C   0  0  0  0  0  0  0  0  0  0  0  0
   -3.1344   -0.6752   -0.0413 O   0  0  0  0  0  0  0  0  0  0  0  0
   -2.4095    0.4949    0.0584 C   0  0  0  0  0  0  0  0  0  0  0  0
   -2.9598    1.6001    0.3043 O   0  0  0  0  0  0  0  0  0  0  0  0
   -1.0126    0.4495   -0.1206 N   0  0  0  0  0  0  0  0  0  0  0  0
   -0.3821   -0.8225   -0.4034 C   0  0  0  0  0  0  0  0  0  0  0  0
    1.0211   -0.8254    0.1707 C   0  0  0  0  0  0  0  0  0  0  0  0
    1.7814    0.3170   -0.2531 N   0  0  0  0  0  0  0  0  0  0  0  0
    1.1030    1.5393   -0.6779 C   0  0  0  0  0  0  0  0  0  0  0  0
   -0.2555    1.6798   -0.0151 C   0  0  0  0  0  0  0  0  0  0  0  0
    3.1962    0.2443   -0.2491 C   0  0  0  0  0  0  0  0  0  0  0  0
    3.9382    1.2798   -0.7743 C   0  0  0  0  0  0  0  0  0  0  0  0
    5.3155    1.2331   -0.7761 C   0  0  0  0  0  0  0  0  0  0  0  0
    5.9639    0.1409   -0.2480 C   0  0  0  0  0  0  0  0  0  0  0  0
    5.2094   -0.8878    0.2740 C   0  0  0  0  0  0  0  0  0  0  0  0
    3.8371   -0.8492    0.2798 C   0  0  0  0  0  0  0  0  0  0  0  0
    7.3925    0.0649   -0.2363 N   0  0  0  0  0  0  0  0  0  0  0  0
    8.0162   -1.0338    0.2954 O   0  0  0  0  0  0  0  0  0  0  0  0
    8.0847    0.9828   -0.7025 O   0  0  0  0  0  0  0  0  0  0  0  0
   -5.3618    1.2731   -0.4939 H   0  0  0  0  0  0  0  0  0  0  0  0
   -4.4183    0.3686   -1.8042 H   0  0  0  0  0  0  0  0  0  0  0  0
   -6.0700   -0.1781   -1.2459 H   0  0  0  0  0  0  0  0  0  0  0  0
   -5.8343   -2.2955    0.6012 H   0  0  0  0  0  0  0  0  0  0  0  0
   -5.3974   -2.1569   -1.1725 H   0  0  0  0  0  0  0  0  0  0  0  0
   -4.1951   -2.8047   -0.0311 H   0  0  0  0  0  0  0  0  0  0  0  0
   -4.9206    0.8714    1.6145 H   0  0  0  0  0  0  0  0  0  0  0  0
   -5.9374   -0.5764    1.7547 H   0  0  0  0  0  0  0  0  0  0  0  0
   -4.1668   -0.7051    2.2238 H   0  0  0  0  0  0  0  0  0  0  0  0
   -0.3912   -1.0033   -1.4999 H   0  0  0  0  0  0  0  0  0  0  0  0
   -0.9549   -1.6075    0.1380 H   0  0  0  0  0  0  0  0  0  0  0  0
    1.4754   -1.7856   -0.1960 H   0  0  0  0  0  0  0  0  0  0  0  0
    0.9303   -0.9202    1.2706 H   0  0  0  0  0  0  0  0  0  0  0  0
    1.6803    2.4364   -0.3416 H   0  0  0  0  0  0  0  0  0  0  0  0
    0.9589    1.5390   -1.7675 H   0  0  0  0  0  0  0  0  0  0  0  0
   -0.1494    1.9942    1.0483 H   0  0  0  0  0  0  0  0  0  0  0  0
   -0.7675    2.5180   -0.5586 H   0  0  0  0  0  0  0  0  0  0  0  0
    3.4829    2.1814   -1.2138 H   0  0  0  0  0  0  0  0  0  0  0  0
    5.8974    2.0275   -1.1791 H   0  0  0  0  0  0  0  0  0  0  0  0
    5.7128   -1.7570    0.6944 H   0  0  0  0  0  0  0  0  0  0  0  0
    3.2796   -1.6936    0.7091 H   0  0  0  0  0  0  0  0  0  0  0  0
  1  2  1  0
  2  3  1  0
  2  4  1  0
  2  5  1  0
  5  6  1  0
  6  7  2  0
  6  8  1  0
  8  9  1  0
  9 10  1  0
 10 11  1  0
 11 12  1  0
 12 13  1  0
 11 14  1  0
 14 15  2  0
 15 16  1  0
 16 17  2  0
 17 18  1  0
 18 19  2  0
 17 20  1  0
 20 21  1  0
 20 22  2  0
 13  8  1  0
 19 14  1  0
  1 23  1  0
  1 24  1  0
  1 25  1  0
  3 26  1  0
  3 27  1  0
  3 28  1  0
  4 29  1  0
  4 30  1  0
  4 31  1  0
  9 32  1  0
  9 33  1  0
 10 34  1  0
 10 35  1  0
 12 36  1  0
 12 37  1  0
 13 38  1  0
 13 39  1  0
 15 40  1  0
 16 41  1  0
 18 42  1  0
 19 43  1  0
M  CHG  2  20   1  21  -1
M  END
$$$$
[H]/C(C(=O)N1C([H])([H])C([H])([H])N(S(=O)(=O)c2c([H])c([H])c(OC([H])([H])[H])c([H])c2[H])C([H])([H])C1([H])[H])=C(/[H])c1c([H])c([H])c(C(F)(F)F)c([H])c1[H]
     RDKit          3D

 52 54  0  0  0  0  0  0  0  0999 V2000
   -7.8630    2.8422   -0.8302 C   0  0  0  0  0  0  0  0  0  0  0  0
   -7.7472    1.4582   -1.0712 O   0  0  0  0  0  0  0  0  0  0  0  0
   -6.7070    0.7501   -0.5068 C   0  0  0  0  0  0  0  0  0  0  0  0
   -6.6251   -0.6366   -0.7800 C   0  0  0  0  0  0  0  0  0  0  0  0
   -5.6355   -1.4168   -0.2704 C   0  0  0  0  0  0  0  0  0  0  0  0
   -4.6571   -0.8901    0.5459 C   0  0  0  0  0  0  0  0  0  0  0  0
   -4.7076    0.4543    0.8337 C   0  0  0  0  0  0  0  0  0  0  0  0
   -5.7268    1.2452    0.3014 C   0  0  0  0  0  0  0  0  0  0  0  0
   -3.3635   -1.9262    1.1626 S   0  0  0  0  0  0  0  0  0  0  0  0
   -3.2297   -1.7020    2.6493 O   0  0  0  0  0  0  0  0  0  0  0  0
   -3.7885   -3.3574    0.9125 O   0  0  0  0  0  0  0  0  0  0  0  0
   -1.9339   -1.5207    0.4181 N   0  0  0  0  0  0  0  0  0  0  0  0
   -0.8527   -1.0020    1.1332 C   0  0  0  0  0  0  0  0  0  0  0  0
    0.4668   -1.4078    0.3727 C   0  0  0  0  0  0  0  0  0  0  0  0
    0.3921   -0.7573   -0.8716 N   0  0  0  0  0  0  0  0  0  0  0  0
   -0.8506   -1.0013   -1.6561 C   0  0  0  0  0  0  0  0  0  0  0  0
   -1.6792   -2.0050   -0.8778 C   0  0  0  0  0  0  0  0  0  0  0  0
    1.3503    0.0350   -1.4840 C   0  0  0  0  0  0  0  0  0  0  0  0
    0.9061    0.6774   -2.5677 O   0  0  0  0  0  0  0  0  0  0  0  0
    2.7197    0.3239   -1.2262 C   0  0  0  0  0  0  0  0  0  0  0  0
    3.5596   -0.1146   -0.3460 C   0  0  0  0  0  0  0  0  0  0  0  0
    4.9739    0.3141   -0.2302 C   0  0  0  0  0  0  0  0  0  0  0  0
    5.5301    1.3271   -0.9537 C   0  0  0  0  0  0  0  0  0  0  0  0
    6.8954    1.6541   -0.8447 C   0  0  0  0  0  0  0  0  0  0  0  0
    7.6996    0.9469    0.0046 C   0  0  0  0  0  0  0  0  0  0  0  0
    7.1675   -0.0804    0.7463 C   0  0  0  0  0  0  0  0  0  0  0  0
    5.8133   -0.3791    0.6180 C   0  0  0  0  0  0  0  0  0  0  0  0
    9.1442    1.3302    0.0597 C   0  0  0  0  0  0  0  0  0  0  0  0
    9.8989    0.3418    0.7183 F   0  0  0  0  0  0  0  0  0  0  0  0
    9.3444    2.5540    0.6496 F   0  0  0  0  0  0  0  0  0  0  0  0
    9.6492    1.3889   -1.2427 F   0  0  0  0  0  0  0  0  0  0  0  0
   -8.1470    3.0741    0.1956 H   0  0  0  0  0  0  0  0  0  0  0  0
   -8.5763    3.3060   -1.5786 H   0  0  0  0  0  0  0  0  0  0  0  0
   -6.8957    3.3540   -1.0293 H   0  0  0  0  0  0  0  0  0  0  0  0
   -7.3945   -1.0540   -1.4067 H   0  0  0  0  0  0  0  0  0  0  0  0
   -5.5668   -2.4952   -0.4770 H   0  0  0  0  0  0  0  0  0  0  0  0
   -3.9630    0.9034    1.4599 H   0  0  0  0  0  0  0  0  0  0  0  0
   -5.7777    2.3196    0.5246 H   0  0  0  0  0  0  0  0  0  0  0  0
   -0.8524    0.1137    1.0855 H   0  0  0  0  0  0  0  0  0  0  0  0
   -0.7665   -1.3257    2.1948 H   0  0  0  0  0  0  0  0  0  0  0  0
    0.4635   -2.5128    0.2483 H   0  0  0  0  0  0  0  0  0  0  0  0
    1.2917   -1.1711    1.0387 H   0  0  0  0  0  0  0  0  0  0  0  0
   -1.4065   -0.0787   -1.8359 H   0  0  0  0  0  0  0  0  0  0  0  0
   -0.5463   -1.5232   -2.6216 H   0  0  0  0  0  0  0  0  0  0  0  0
   -1.2172   -3.0205   -0.9225 H   0  0  0  0  0  0  0  0  0  0  0  0
   -2.6451   -2.0963   -1.4295 H   0  0  0  0  0  0  0  0  0  0  0  0
    3.1745    1.0879   -1.9208 H   0  0  0  0  0  0  0  0  0  0  0  0
    3.2171   -0.8681    0.3303 H   0  0  0  0  0  0  0  0  0  0  0  0
    4.9211    1.8991   -1.6174 H   0  0  0  0  0  0  0  0  0  0  0  0
    7.3066    2.4632   -1.4208 H   0  0  0  0  0  0  0  0  0  0  0  0
    7.8270   -0.6154    1.4028 H   0  0  0  0  0  0  0  0  0  0  0  0
    5.4101   -1.2058    1.2174 H   0  0  0  0  0  0  0  0  0  0  0  0
  1  2  1  0
  2  3  1  0
  3  4  2  0
  4  5  1  0
  5  6  2  0
  6  7  1  0
  7  8  2  0
  6  9  1  0
  9 10  2  0
  9 11  2  0
  9 12  1  0
 12 13  1  0
 13 14  1  0
 14 15  1  0
 15 16  1  0
 16 17  1  0
 15 18  1  0
 18 19  2  0
 18 20  1  0
 20 21  2  0
 21 22  1  0
 22 23  2  0
 23 24  1  0
 24 25  2  0
 25 26  1  0
 26 27  2  0
 25 28  1  0
 28 29  1  0
 28 30  1  0
 28 31  1  0
  8  3  1  0
 17 12  1  0
 27 22  1  0
  1 32  1  0
  1 33  1  0
  1 34  1  0
  4 35  1  0
  5 36  1  0
  7 37  1  0
  8 38  1  0
 13 39  1  0
 13 40  1  0
 14 41  1  0
 14 42  1  0
 16 43  1  0
 16 44  1  0
 17 45  1  0
 17 46  1  0
 20 47  1  0
 21 48  1  0
 23 49  1  0
 24 50  1  0
 26 51  1  0
 27 52  1  0
M  END
$$$$
[H]c1c([H])c([H])c2c(c1[H])c1c3c(c4c5c([H])c([H])c([H])c([H])c5n5c4c1n2[C@@]1([H])O[C@@]5(C([H])([H])[H])[C@]([H])(OC([H])([H])[H])[C@]([H])(C([H])([H])[H])C1([H])[H])C([H])([H])N([H])C3=O
     RDKit          3D

 59 66  0  0  0  0  0  0  0  0999 V2000
    3.9483   -2.2037   -0.9653 C   0  0  0  0  0  0  0  0  0  0  0  0
    3.1003   -1.7275    0.1587 C   0  0  2  0  0  0  0  0  0  0  0  0
    1.8509   -2.6485    0.3500 C   0  0  0  0  0  0  0  0  0  0  0  0
    0.8381   -1.7194    0.3845 C   0  0  2  0  0  0  0  0  0  0  0  0
    1.1336   -0.8723    1.4387 O   0  0  0  0  0  0  0  0  0  0  0  0
    1.7104    0.2919    0.8341 C   0  0  1  0  0  0  0  0  0  0  0  0
    2.3190    0.9922    2.0817 C   0  0  0  0  0  0  0  0  0  0  0  0
    2.7158   -0.2397   -0.0529 C   0  0  2  0  0  0  0  0  0  0  0  0
    2.7688    0.1520   -1.3689 O   0  0  0  0  0  0  0  0  0  0  0  0
    3.8593    0.8878   -1.7493 C   0  0  0  0  0  0  0  0  0  0  0  0
    0.5659    1.0637    0.4196 N   0  0  0  0  0  0  0  0  0  0  0  0
    0.5619    2.4160    0.3332 C   0  0  0  0  0  0  0  0  0  0  0  0
    1.5105    3.4222    0.4365 C   0  0  0  0  0  0  0  0  0  0  0  0
    1.2235    4.7528    0.2922 C   0  0  0  0  0  0  0  0  0  0  0  0
   -0.0534    5.1483    0.0317 C   0  0  0  0  0  0  0  0  0  0  0  0
   -1.0452    4.2146   -0.0853 C   0  0  0  0  0  0  0  0  0  0  0  0
   -0.7193    2.8780    0.0665 C   0  0  0  0  0  0  0  0  0  0  0  0
   -1.5292    1.7983   -0.0199 C   0  0  0  0  0  0  0  0  0  0  0  0
   -2.8694    1.5310   -0.2164 C   0  0  0  0  0  0  0  0  0  0  0  0
   -3.9703    2.5199   -0.4688 C   0  0  0  0  0  0  0  0  0  0  0  0
   -5.1358    1.7278   -0.5866 N   0  0  0  0  0  0  0  0  0  0  0  0
   -4.8299    0.3168   -0.4388 C   0  0  0  0  0  0  0  0  0  0  0  0
   -5.7045   -0.5711   -0.5136 O   0  0  0  0  0  0  0  0  0  0  0  0
   -3.4169    0.2431   -0.2114 C   0  0  0  0  0  0  0  0  0  0  0  0
   -2.5940   -0.8578   -0.0042 C   0  0  0  0  0  0  0  0  0  0  0  0
   -2.7233   -2.2208    0.0196 C   0  0  0  0  0  0  0  0  0  0  0  0
   -3.7984   -3.0505   -0.1101 C   0  0  0  0  0  0  0  0  0  0  0  0
   -3.5613   -4.4085   -0.0350 C   0  0  0  0  0  0  0  0  0  0  0  0
   -2.3020   -4.9514    0.1626 C   0  0  0  0  0  0  0  0  0  0  0  0
   -1.2102   -4.1119    0.2945 C   0  0  0  0  0  0  0  0  0  0  0  0
   -1.4506   -2.7521    0.2189 C   0  0  0  0  0  0  0  0  0  0  0  0
   -0.5720   -1.7682    0.3156 N   0  0  0  0  0  0  0  0  0  0  0  0
   -1.2556   -0.5777    0.1901 C   0  0  0  0  0  0  0  0  0  0  0  0
   -0.7314    0.7106    0.1908 C   0  0  0  0  0  0  0  0  0  0  0  0
    3.5910   -1.9248   -1.9626 H   0  0  0  0  0  0  0  0  0  0  0  0
    4.9986   -1.9189   -0.7687 H   0  0  0  0  0  0  0  0  0  0  0  0
    3.9357   -3.3302   -0.9399 H   0  0  0  0  0  0  0  0  0  0  0  0
    3.6639   -1.8500    1.1064 H   0  0  0  0  0  0  0  0  0  0  0  0
    1.9657   -3.3028    1.2128 H   0  0  0  0  0  0  0  0  0  0  0  0
    1.8542   -3.3048   -0.5603 H   0  0  0  0  0  0  0  0  0  0  0  0
    1.0328   -1.2091   -0.6654 H   0  0  0  0  0  0  0  0  0  0  0  0
    3.3380    1.3342    1.8542 H   0  0  0  0  0  0  0  0  0  0  0  0
    2.4437    0.2600    2.9228 H   0  0  0  0  0  0  0  0  0  0  0  0
    1.6439    1.7624    2.4825 H   0  0  0  0  0  0  0  0  0  0  0  0
    3.7031    0.2246    0.3385 H   0  0  0  0  0  0  0  0  0  0  0  0
    3.9268    1.8467   -1.1611 H   0  0  0  0  0  0  0  0  0  0  0  0
    4.8292    0.3840   -1.6058 H   0  0  0  0  0  0  0  0  0  0  0  0
    3.8105    1.2063   -2.8076 H   0  0  0  0  0  0  0  0  0  0  0  0
    2.5268    3.1649    0.6299 H   0  0  0  0  0  0  0  0  0  0  0  0
    2.0129    5.4999    0.3848 H   0  0  0  0  0  0  0  0  0  0  0  0
   -0.2886    6.1937   -0.0833 H   0  0  0  0  0  0  0  0  0  0  0  0
   -2.0882    4.4948   -0.2948 H   0  0  0  0  0  0  0  0  0  0  0  0
   -4.0831    3.2143    0.3895 H   0  0  0  0  0  0  0  0  0  0  0  0
   -3.7320    3.1248   -1.3683 H   0  0  0  0  0  0  0  0  0  0  0  0
   -6.1042    2.0660   -0.7563 H   0  0  0  0  0  0  0  0  0  0  0  0
   -4.7971   -2.7304   -0.2626 H   0  0  0  0  0  0  0  0  0  0  0  0
   -4.4129   -5.0927   -0.1370 H   0  0  0  0  0  0  0  0  0  0  0  0
   -2.1932   -6.0190    0.2104 H   0  0  0  0  0  0  0  0  0  0  0  0
   -0.2114   -4.4797    0.4492 H   0  0  0  0  0  0  0  0  0  0  0  0
  1  2  1  0
  2  3  1  0
  3  4  1  0
  4  5  1  0
  5  6  1  0
  6  7  1  1
  6  8  1  0
  8  9  1  0
  9 10  1  0
  6 11  1  0
 11 12  1  0
 12 13  2  0
 13 14  1  0
 14 15  2  0
 15 16  1  0
 16 17  2  0
 17 18  1  0
 18 19  2  0
 19 20  1  0
 20 21  1  0
 21 22  1  0
 22 23  2  0
 22 24  1  0
 24 25  2  0
 25 26  1  0
 26 27  2  0
 27 28  1  0
 28 29  2  0
 29 30  1  0
 30 31  2  0
 31 32  1  0
 32 33  1  0
 33 34  2  0
  8  2  1  0
 34 11  1  0
 32  4  1  0
 17 12  1  0
 34 18  1  0
 24 19  1  0
 33 25  1  0
 31 26  1  0
  1 35  1  0
  1 36  1  0
  1 37  1  0
  2 38  1  1
  3 39  1  0
  3 40  1  0
  4 41  1  6
  7 42  1  0
  7 43  1  0
  7 44  1  0
  8 45  1  1
 10 46  1  0
 10 47  1  0
 10 48  1  0
 13 49  1  0
 14 50  1  0
 15 51  1  0
 16 52  1  0
 20 53  1  0
 20 54  1  0
 21 55  1  0
 27 56  1  0
 28 57  1  0
 29 58  1  0
 30 59  1  0
M  END
$$$$
[H]N(C(=O)[C@@]([H])(N([H])C(=O)[C@]([H])(N([H])C(=O)[C@]([H])(C([H])([H])C([H])(C([H])([H])[H])C([H])([H])[H])C([H])(C([H])([H])[H])C([H])([H])[H])C([H])([H])C([H])(C([H])([H])[H])C([H])([H])[H])C([H])([H])C([H])(C([H])([H])[H])C([H])([H])[H])[C@]([H])(C(=O)N([H])[C@]([H])(C(=O)N([H])[C@@]([H])(C([H])([H])C([H])(C([H])([H])[H])C([H])([H])[H])C([H])(C([H])([H])[H])C([H])([H])[H])C([H])([H])C([H])(C([H])([H])[H])C([H])([H])[H])C([H])([H])C([H])(C([H])([H])[H])C([H])([H])[H]
     RDKit          3D

130129  0  0  0  0  0  0  0  0999 V2000
    9.7182    3.3815   -2.0589 C   0  0  0  0  0  0  0  0  0  0  0  0
    9.5335    3.4488   -0.5822 C   0  0  0  0  0  0  0  0  0  0  0  0
    9.0745    4.9024   -0.2815 C   0  0  0  0  0  0  0  0  0  0  0  0
    8.4643    2.5859   -0.0268 C   0  0  0  0  0  0  0  0  0  0  0  0
    8.5327    1.1265   -0.2106 C   0  0  2  0  0  0  0  0  0  0  0  0
    7.3110    0.5883    0.4400 N   0  0  0  0  0  0  0  0  0  0  0  0
    6.0828    0.4222   -0.2235 C   0  0  0  0  0  0  0  0  0  0  0  0
    6.0019    0.7675   -1.4231 O   0  0  0  0  0  0  0  0  0  0  0  0
    4.9205   -0.1413    0.4729 C   0  0  2  0  0  0  0  0  0  0  0  0
    5.0585   -1.6148    0.8208 C   0  0  0  0  0  0  0  0  0  0  0  0
    5.2025   -2.5608   -0.2903 C   0  0  0  0  0  0  0  0  0  0  0  0
    5.2979   -3.9651    0.3480 C   0  0  0  0  0  0  0  0  0  0  0  0
    6.3658   -2.4564   -1.2007 C   0  0  0  0  0  0  0  0  0  0  0  0
    3.7080   -0.0721   -0.3511 N   0  0  0  0  0  0  0  0  0  0  0  0
    2.4570    0.2681    0.1909 C   0  0  0  0  0  0  0  0  0  0  0  0
    2.4092    0.5106    1.4298 O   0  0  0  0  0  0  0  0  0  0  0  0
    1.1701    0.3669   -0.5592 C   0  0  2  0  0  0  0  0  0  0  0  0
    0.9991    1.7740   -1.0964 C   0  0  0  0  0  0  0  0  0  0  0  0
   -0.2756    1.8484   -1.8946 C   0  0  0  0  0  0  0  0  0  0  0  0
   -0.3660    3.3323   -2.3355 C   0  0  0  0  0  0  0  0  0  0  0  0
   -0.0005    1.1197   -3.2228 C   0  0  0  0  0  0  0  0  0  0  0  0
    0.0740    0.1294    0.3724 N   0  0  0  0  0  0  0  0  0  0  0  0
   -1.0044   -0.7670    0.1502 C   0  0  0  0  0  0  0  0  0  0  0  0
   -1.0507   -1.3935   -0.9315 O   0  0  0  0  0  0  0  0  0  0  0  0
   -2.0741   -0.9967    1.1274 C   0  0  2  0  0  0  0  0  0  0  0  0
   -1.7151   -1.8865    2.2663 C   0  0  0  0  0  0  0  0  0  0  0  0
   -1.3421   -3.2911    1.9955 C   0  0  0  0  0  0  0  0  0  0  0  0
   -1.0651   -4.0167    3.3508 C   0  0  0  0  0  0  0  0  0  0  0  0
   -0.0992   -3.5225    1.2055 C   0  0  0  0  0  0  0  0  0  0  0  0
   -3.2635   -1.5218    0.4334 N   0  0  0  0  0  0  0  0  0  0  0  0
   -4.4784   -0.8378    0.5280 C   0  0  0  0  0  0  0  0  0  0  0  0
   -4.5558    0.2182    1.2194 O   0  0  0  0  0  0  0  0  0  0  0  0
   -5.6866   -1.3053   -0.1640 C   0  0  1  0  0  0  0  0  0  0  0  0
   -6.1007   -2.7089    0.0386 C   0  0  0  0  0  0  0  0  0  0  0  0
   -6.4682   -3.1883    1.3754 C   0  0  0  0  0  0  0  0  0  0  0  0
   -5.4699   -3.1404    2.4677 C   0  0  0  0  0  0  0  0  0  0  0  0
   -6.8441   -4.6803    1.2179 C   0  0  0  0  0  0  0  0  0  0  0  0
   -6.7925   -0.3784    0.0786 N   0  0  0  0  0  0  0  0  0  0  0  0
   -7.3361    0.3799   -0.9414 C   0  0  0  0  0  0  0  0  0  0  0  0
   -6.9533    0.3481   -2.1274 O   0  0  0  0  0  0  0  0  0  0  0  0
   -8.4662    1.3060   -0.5931 C   0  0  2  0  0  0  0  0  0  0  0  0
   -7.9309    2.3427    0.3633 C   0  0  0  0  0  0  0  0  0  0  0  0
   -6.8120    3.1375   -0.2677 C   0  0  0  0  0  0  0  0  0  0  0  0
   -6.3156    4.1622    0.7234 C   0  0  0  0  0  0  0  0  0  0  0  0
   -7.2854    3.8777   -1.5028 C   0  0  0  0  0  0  0  0  0  0  0  0
   -9.5296    0.4449    0.0276 C   0  0  0  0  0  0  0  0  0  0  0  0
  -10.7499    1.2225    0.4475 C   0  0  0  0  0  0  0  0  0  0  0  0
   -9.9569   -0.5947   -0.9938 C   0  0  0  0  0  0  0  0  0  0  0  0
    9.7099    0.3573    0.1739 C   0  0  0  0  0  0  0  0  0  0  0  0
   10.1266    0.4439    1.6142 C   0  0  0  0  0  0  0  0  0  0  0  0
   10.9144    0.4300   -0.7010 C   0  0  0  0  0  0  0  0  0  0  0  0
    9.3244    4.2963   -2.5402 H   0  0  0  0  0  0  0  0  0  0  0  0
   10.8078    3.3311   -2.3526 H   0  0  0  0  0  0  0  0  0  0  0  0
    9.1615    2.5328   -2.5393 H   0  0  0  0  0  0  0  0  0  0  0  0
   10.5169    3.3995   -0.0807 H   0  0  0  0  0  0  0  0  0  0  0  0
    9.8179    5.6257   -0.6649 H   0  0  0  0  0  0  0  0  0  0  0  0
    9.0159    4.9813    0.8197 H   0  0  0  0  0  0  0  0  0  0  0  0
    8.0539    5.0291   -0.6762 H   0  0  0  0  0  0  0  0  0  0  0  0
    7.5114    2.9163   -0.5581 H   0  0  0  0  0  0  0  0  0  0  0  0
    8.2629    2.9081    1.0237 H   0  0  0  0  0  0  0  0  0  0  0  0
    8.3028    0.9468   -1.3109 H   0  0  0  0  0  0  0  0  0  0  0  0
    7.4150    0.3330    1.4349 H   0  0  0  0  0  0  0  0  0  0  0  0
    4.6740    0.3502    1.4261 H   0  0  0  0  0  0  0  0  0  0  0  0
    4.1761   -1.8928    1.4214 H   0  0  0  0  0  0  0  0  0  0  0  0
    5.9382   -1.7072    1.5185 H   0  0  0  0  0  0  0  0  0  0  0  0
    4.2836   -2.6504   -0.9283 H   0  0  0  0  0  0  0  0  0  0  0  0
    5.2374   -4.7393   -0.4517 H   0  0  0  0  0  0  0  0  0  0  0  0
    6.3117   -4.0194    0.7862 H   0  0  0  0  0  0  0  0  0  0  0  0
    4.5671   -4.0822    1.1430 H   0  0  0  0  0  0  0  0  0  0  0  0
    6.1402   -1.9695   -2.1759 H   0  0  0  0  0  0  0  0  0  0  0  0
    7.3120   -2.1270   -0.7324 H   0  0  0  0  0  0  0  0  0  0  0  0
    6.6190   -3.5261   -1.5315 H   0  0  0  0  0  0  0  0  0  0  0  0
    3.7563   -0.2776   -1.3784 H   0  0  0  0  0  0  0  0  0  0  0  0
    1.1536   -0.3315   -1.3705 H   0  0  0  0  0  0  0  0  0  0  0  0
    1.8283    2.0672   -1.7564 H   0  0  0  0  0  0  0  0  0  0  0  0
    0.9578    2.5321   -0.2920 H   0  0  0  0  0  0  0  0  0  0  0  0
   -1.1728    1.5023   -1.3931 H   0  0  0  0  0  0  0  0  0  0  0  0
   -1.0758    3.3537   -3.1631 H   0  0  0  0  0  0  0  0  0  0  0  0
    0.6370    3.5759   -2.7368 H   0  0  0  0  0  0  0  0  0  0  0  0
   -0.6635    3.9797   -1.4852 H   0  0  0  0  0  0  0  0  0  0  0  0
    1.0944    1.1187   -3.3710 H   0  0  0  0  0  0  0  0  0  0  0  0
   -0.4709    0.1368   -3.2681 H   0  0  0  0  0  0  0  0  0  0  0  0
   -0.4303    1.7247   -4.0504 H   0  0  0  0  0  0  0  0  0  0  0  0
    0.0634    0.6593    1.2952 H   0  0  0  0  0  0  0  0  0  0  0  0
   -2.3715   -0.0204    1.5603 H   0  0  0  0  0  0  0  0  0  0  0  0
   -0.9177   -1.3400    2.8516 H   0  0  0  0  0  0  0  0  0  0  0  0
   -2.6399   -1.9255    2.9339 H   0  0  0  0  0  0  0  0  0  0  0  0
   -2.2238   -3.8485    1.5769 H   0  0  0  0  0  0  0  0  0  0  0  0
   -1.8212   -3.6315    4.0455 H   0  0  0  0  0  0  0  0  0  0  0  0
   -1.1700   -5.0979    3.1195 H   0  0  0  0  0  0  0  0  0  0  0  0
   -0.0739   -3.7119    3.6926 H   0  0  0  0  0  0  0  0  0  0  0  0
    0.5427   -2.6497    1.1192 H   0  0  0  0  0  0  0  0  0  0  0  0
   -0.3922   -3.8749    0.1855 H   0  0  0  0  0  0  0  0  0  0  0  0
    0.4912   -4.4075    1.6102 H   0  0  0  0  0  0  0  0  0  0  0  0
   -3.1616   -2.3830   -0.1064 H   0  0  0  0  0  0  0  0  0  0  0  0
   -5.4521   -1.2030   -1.2681 H   0  0  0  0  0  0  0  0  0  0  0  0
   -6.9749   -2.9060   -0.6524 H   0  0  0  0  0  0  0  0  0  0  0  0
   -5.2877   -3.3545   -0.4031 H   0  0  0  0  0  0  0  0  0  0  0  0
   -7.4152   -2.7246    1.7599 H   0  0  0  0  0  0  0  0  0  0  0  0
   -5.7771   -3.7460    3.3610 H   0  0  0  0  0  0  0  0  0  0  0  0
   -5.2019   -2.1179    2.7386 H   0  0  0  0  0  0  0  0  0  0  0  0
   -4.5480   -3.6561    2.1093 H   0  0  0  0  0  0  0  0  0  0  0  0
   -7.3262   -4.8860    0.2578 H   0  0  0  0  0  0  0  0  0  0  0  0
   -7.3626   -5.0578    2.1035 H   0  0  0  0  0  0  0  0  0  0  0  0
   -5.8412   -5.2004    1.1798 H   0  0  0  0  0  0  0  0  0  0  0  0
   -7.1380   -0.3282    1.0565 H   0  0  0  0  0  0  0  0  0  0  0  0
   -8.8069    1.8188   -1.5024 H   0  0  0  0  0  0  0  0  0  0  0  0
   -8.6843    3.0278    0.7364 H   0  0  0  0  0  0  0  0  0  0  0  0
   -7.4525    1.8428    1.2601 H   0  0  0  0  0  0  0  0  0  0  0  0
   -5.9705    2.4732   -0.5646 H   0  0  0  0  0  0  0  0  0  0  0  0
   -7.0589    4.2796    1.5519 H   0  0  0  0  0  0  0  0  0  0  0  0
   -6.2147    5.1580    0.2423 H   0  0  0  0  0  0  0  0  0  0  0  0
   -5.3256    3.8630    1.1643 H   0  0  0  0  0  0  0  0  0  0  0  0
   -6.7973    4.8590   -1.5508 H   0  0  0  0  0  0  0  0  0  0  0  0
   -8.3789    4.0354   -1.5275 H   0  0  0  0  0  0  0  0  0  0  0  0
   -7.0200    3.2632   -2.4034 H   0  0  0  0  0  0  0  0  0  0  0  0
   -9.1628   -0.0991    0.9241 H   0  0  0  0  0  0  0  0  0  0  0  0
  -10.4672    2.0661    1.1231 H   0  0  0  0  0  0  0  0  0  0  0  0
  -11.3699    1.5487   -0.3941 H   0  0  0  0  0  0  0  0  0  0  0  0
  -11.3634    0.5212    1.0752 H   0  0  0  0  0  0  0  0  0  0  0  0
   -9.9685   -1.6143   -0.5457 H   0  0  0  0  0  0  0  0  0  0  0  0
   -9.2358   -0.6606   -1.8523 H   0  0  0  0  0  0  0  0  0  0  0  0
  -10.9587   -0.4025   -1.3727 H   0  0  0  0  0  0  0  0  0  0  0  0
    9.3843   -0.7590    0.0632 H   0  0  0  0  0  0  0  0  0  0  0  0
   10.7401    1.3839    1.7480 H   0  0  0  0  0  0  0  0  0  0  0  0
    9.3256    0.3193    2.3382 H   0  0  0  0  0  0  0  0  0  0  0  0
   10.8662   -0.3674    1.7805 H   0  0  0  0  0  0  0  0  0  0  0  0
   10.6289    0.4501   -1.7732 H   0  0  0  0  0  0  0  0  0  0  0  0
   11.5918   -0.4594   -0.5045 H   0  0  0  0  0  0  0  0  0  0  0  0
   11.4908    1.3427   -0.4660 H   0  0  0  0  0  0  0  0  0  0  0  0
  1  2  1  0
  2  3  1  0
  2  4  1  0
  4  5  1  0
  5  6  1  0
  6  7  1  0
  7  8  2  0
  7  9  1  0
  9 10  1  0
 10 11  1  0
 11 12  1  0
 11 13  1  0
  9 14  1  0
 14 15  1  0
 15 16  2  0
 15 17  1  0
 17 18  1  0
 18 19  1  0
 19 20  1  0
 19 21  1  0
 17 22  1  0
 22 23  1  0
 23 24  2  0
 23 25  1  0
 25 26  1  0
 26 27  1  0
 27 28  1  0
 27 29  1  0
 25 30  1  0
 30 31  1  0
 31 32  2  0
 31 33  1  0
 33 34  1  0
 34 35  1  0
 35 36  1  0
 35 37  1  0
 33 38  1  0
 38 39  1  0
 39 40  2  0
 39 41  1  0
 41 42  1  0
 42 43  1  0
 43 44  1  0
 43 45  1  0
 41 46  1  0
 46 47  1  0
 46 48  1  0
  5 49  1  0
 49 50  1  0
 49 51  1  0
  1 52  1  0
  1 53  1  0
  1 54  1  0
  2 55  1  0
  3 56  1  0
  3 57  1  0
  3 58  1  0
  4 59  1  0
  4 60  1  0
  5 61  1  6
  6 62  1  0
  9 63  1  1
 10 64  1  0
 10 65  1  0
 11 66  1  0
 12 67  1  0
 12 68  1  0
 12 69  1  0
 13 70  1  0
 13 71  1  0
 13 72  1  0
 14 73  1  0
 17 74  1  6
 18 75  1  0
 18 76  1  0
 19 77  1  0
 20 78  1  0
 20 79  1  0
 20 80  1  0
 21 81  1  0
 21 82  1  0
 21 83  1  0
 22 84  1  0
 25 85  1  1
 26 86  1  0
 26 87  1  0
 27 88  1  0
 28 89  1  0
 28 90  1  0
 28 91  1  0
 29 92  1  0
 29 93  1  0
 29 94  1  0
 30 95  1  0
 33 96  1  6
 34 97  1  0
 34 98  1  0
 35 99  1  0
 36100  1  0
 36101  1  0
 36102  1  0
 37103  1  0
 37104  1  0
 37105  1  0
 38106  1  0
 41107  1  6
 42108  1  0
 42109  1  0
 43110  1  0
 44111  1  0
 44112  1  0
 44113  1  0
 45114  1  0
 45115  1  0
 45116  1  0
 46117  1  0
 47118  1  0
 47119  1  0
 47120  1  0
 48121  1  0
 48122  1  0
 48123  1  0
 49124  1  0
 50125  1  0
 50126  1  0
 50127  1  0
 51128  1  0
 51129  1  0
 51130  1  0
M  END
$$$$
[H]c1nc2c(c([H])c1C(=O)N([H])[C@@]([H])(C(=O)N1C([H])([H])C([H])([H])C([H])(c3c([H])c([H])c(F)c([H])c3[H])C([H])([H])C1([H])[H])C([H])([H])[H])c([H])c([H])n2[H]
     RDKit          3D

 52 55  0  0  0  0  0  0  0  0999 V2000
    0.8092    0.9041    2.3438 C   0  0  0  0  0  0  0  0  0  0  0  0
    1.0155    0.6191    0.8698 C   0  0  1  0  0  0  0  0  0  0  0  0
    2.4430    0.4385    0.5890 N   0  0  0  0  0  0  0  0  0  0  0  0
    3.1352    1.3077   -0.2663 C   0  0  0  0  0  0  0  0  0  0  0  0
    2.5055    2.2638   -0.8000 O   0  0  0  0  0  0  0  0  0  0  0  0
    4.5445    1.1588   -0.5666 C   0  0  0  0  0  0  0  0  0  0  0  0
    5.2231    2.1135   -1.3184 C   0  0  0  0  0  0  0  0  0  0  0  0
    6.5114    1.9413   -1.5752 N   0  0  0  0  0  0  0  0  0  0  0  0
    7.1915    0.8688   -1.1318 C   0  0  0  0  0  0  0  0  0  0  0  0
    8.4847    0.5298   -1.2915 N   0  0  0  0  0  0  0  0  0  0  0  0
    8.7290   -0.6295   -0.6757 C   0  0  0  0  0  0  0  0  0  0  0  0
    7.5312   -1.0365   -0.1025 C   0  0  0  0  0  0  0  0  0  0  0  0
    6.5708   -0.0954   -0.3905 C   0  0  0  0  0  0  0  0  0  0  0  0
    5.2141    0.0500   -0.0990 C   0  0  0  0  0  0  0  0  0  0  0  0
    0.2669   -0.5667    0.4464 C   0  0  0  0  0  0  0  0  0  0  0  0
    0.8761   -1.5667   -0.0338 O   0  0  0  0  0  0  0  0  0  0  0  0
   -1.1428   -0.6502    0.5508 N   0  0  0  0  0  0  0  0  0  0  0  0
   -1.8328   -1.8785    0.1251 C   0  0  0  0  0  0  0  0  0  0  0  0
   -3.0159   -1.4337   -0.7079 C   0  0  0  0  0  0  0  0  0  0  0  0
   -3.9177   -0.6525    0.2531 C   0  0  0  0  0  0  0  0  0  0  0  0
   -3.2476    0.6529    0.5020 C   0  0  0  0  0  0  0  0  0  0  0  0
   -1.8741    0.4809    1.0650 C   0  0  0  0  0  0  0  0  0  0  0  0
   -5.2238   -0.5219   -0.4160 C   0  0  0  0  0  0  0  0  0  0  0  0
   -5.3938    0.1347   -1.6122 C   0  0  0  0  0  0  0  0  0  0  0  0
   -6.6323    0.2332   -2.2035 C   0  0  0  0  0  0  0  0  0  0  0  0
   -7.7611   -0.3180   -1.6310 C   0  0  0  0  0  0  0  0  0  0  0  0
   -8.9655   -0.1976   -2.2488 F   0  0  0  0  0  0  0  0  0  0  0  0
   -7.6004   -0.9788   -0.4309 C   0  0  0  0  0  0  0  0  0  0  0  0
   -6.3445   -1.0776    0.1670 C   0  0  0  0  0  0  0  0  0  0  0  0
    0.3409    0.0854    2.9000 H   0  0  0  0  0  0  0  0  0  0  0  0
    1.8199    1.0500    2.8254 H   0  0  0  0  0  0  0  0  0  0  0  0
    0.2512    1.8381    2.5364 H   0  0  0  0  0  0  0  0  0  0  0  0
    0.6722    1.5009    0.3047 H   0  0  0  0  0  0  0  0  0  0  0  0
    2.9329   -0.3527    1.0430 H   0  0  0  0  0  0  0  0  0  0  0  0
    4.7033    2.9692   -1.6785 H   0  0  0  0  0  0  0  0  0  0  0  0
    9.2050    1.0785   -1.8154 H   0  0  0  0  0  0  0  0  0  0  0  0
    9.6606   -1.1411   -0.6331 H   0  0  0  0  0  0  0  0  0  0  0  0
    7.3643   -1.9331    0.4726 H   0  0  0  0  0  0  0  0  0  0  0  0
    4.7781   -0.7432    0.4880 H   0  0  0  0  0  0  0  0  0  0  0  0
   -2.2411   -2.4263    1.0019 H   0  0  0  0  0  0  0  0  0  0  0  0
   -1.1290   -2.4968   -0.4647 H   0  0  0  0  0  0  0  0  0  0  0  0
   -3.5525   -2.2874   -1.1570 H   0  0  0  0  0  0  0  0  0  0  0  0
   -2.6280   -0.7155   -1.4614 H   0  0  0  0  0  0  0  0  0  0  0  0
   -4.0127   -1.2081    1.1844 H   0  0  0  0  0  0  0  0  0  0  0  0
   -3.8594    1.2038    1.2689 H   0  0  0  0  0  0  0  0  0  0  0  0
   -3.2270    1.3019   -0.3912 H   0  0  0  0  0  0  0  0  0  0  0  0
   -1.3173    1.4271    0.7985 H   0  0  0  0  0  0  0  0  0  0  0  0
   -1.9003    0.4326    2.1674 H   0  0  0  0  0  0  0  0  0  0  0  0
   -4.5224    0.5704   -2.0716 H   0  0  0  0  0  0  0  0  0  0  0  0
   -6.7307    0.7598   -3.1499 H   0  0  0  0  0  0  0  0  0  0  0  0
   -8.4812   -1.4129    0.0227 H   0  0  0  0  0  0  0  0  0  0  0  0
   -6.2262   -1.5943    1.1032 H   0  0  0  0  0  0  0  0  0  0  0  0
  1  2  1  0
  2  3  1  0
  3  4  1  0
  4  5  2  0
  4  6  1  0
  6  7  2  0
  7  8  1  0
  8  9  2  0
  9 10  1  0
 10 11  1  0
 11 12  2  0
 12 13  1  0
 13 14  2  0
  2 15  1  0
 15 16  2  0
 15 17  1  0
 17 18  1  0
 18 19  1  0
 19 20  1  0
 20 21  1  0
 21 22  1  0
 20 23  1  0
 23 24  2  0
 24 25  1  0
 25 26  2  0
 26 27  1  0
 26 28  1  0
 28 29  2  0
 14  6  1  0
 22 17  1  0
 29 23  1  0
 13  9  1  0
  1 30  1  0
  1 31  1  0
  1 32  1  0
  2 33  1  6
  3 34  1  0
  7 35  1  0
 10 36  1  0
 11 37  1  0
 12 38  1  0
 14 39  1  0
 18 40  1  0
 18 41  1  0
 19 42  1  0
 19 43  1  0
 20 44  1  0
 21 45  1  0
 21 46  1  0
 22 47  1  0
 22 48  1  0
 24 49  1  0
 25 50  1  0
 28 51  1  0
 29 52  1  0
M  END
$$$$
[H]c1nn(C([H])(C([H])([H])[H])C([H])([H])[H])c([H])c1-c1c([H])c(N([H])C(=O)c2c([H])c([H])c([H])c(C(F)(F)F)c2[H])c([H])c([H])c1C#N
     RDKit          3D

 46 48  0  0  0  0  0  0  0  0999 V2000
   -5.7685   -1.8163   -0.0488 C   0  0  0  0  0  0  0  0  0  0  0  0
   -6.1177   -0.5764    0.7523 C   0  0  0  0  0  0  0  0  0  0  0  0
   -6.9407    0.3426   -0.1437 C   0  0  0  0  0  0  0  0  0  0  0  0
   -4.8552    0.1320    0.9803 N   0  0  0  0  0  0  0  0  0  0  0  0
   -3.8936    0.1550    0.0518 C   0  0  0  0  0  0  0  0  0  0  0  0
   -2.8105    0.8829    0.5279 C   0  0  0  0  0  0  0  0  0  0  0  0
   -3.1614    1.2920    1.7843 C   0  0  0  0  0  0  0  0  0  0  0  0
   -4.4111    0.8059    1.9979 N   0  0  0  0  0  0  0  0  0  0  0  0
   -1.5839    1.0962   -0.2447 C   0  0  0  0  0  0  0  0  0  0  0  0
   -0.3545    0.7731    0.2881 C   0  0  0  0  0  0  0  0  0  0  0  0
    0.8171    0.9069   -0.4770 C   0  0  0  0  0  0  0  0  0  0  0  0
    2.0156    0.5037    0.1476 N   0  0  0  0  0  0  0  0  0  0  0  0
    3.1458   -0.0445   -0.4668 C   0  0  0  0  0  0  0  0  0  0  0  0
    3.2076   -0.2319   -1.7394 O   0  0  0  0  0  0  0  0  0  0  0  0
    4.3404   -0.4536    0.2443 C   0  0  0  0  0  0  0  0  0  0  0  0
    4.1937   -0.7384    1.5994 C   0  0  0  0  0  0  0  0  0  0  0  0
    5.2865   -1.1374    2.3444 C   0  0  0  0  0  0  0  0  0  0  0  0
    6.5200   -1.2454    1.7267 C   0  0  0  0  0  0  0  0  0  0  0  0
    6.6947   -0.9701    0.4023 C   0  0  0  0  0  0  0  0  0  0  0  0
    5.5927   -0.5807   -0.3130 C   0  0  0  0  0  0  0  0  0  0  0  0
    8.0479   -1.0885   -0.1760 C   0  0  0  0  0  0  0  0  0  0  0  0
    8.1981   -2.3007   -0.8493 F   0  0  0  0  0  0  0  0  0  0  0  0
    8.2087   -0.0953   -1.1358 F   0  0  0  0  0  0  0  0  0  0  0  0
    9.0580   -0.9546    0.7743 F   0  0  0  0  0  0  0  0  0  0  0  0
    0.7026    1.3686   -1.7528 C   0  0  0  0  0  0  0  0  0  0  0  0
   -0.5024    1.7046   -2.3234 C   0  0  0  0  0  0  0  0  0  0  0  0
   -1.6365    1.5539   -1.5327 C   0  0  0  0  0  0  0  0  0  0  0  0
   -2.8948    1.8933   -2.1262 C   0  0  0  0  0  0  0  0  0  0  0  0
   -3.8969    2.1570   -2.6222 N   0  0  0  0  0  0  0  0  0  0  0  0
   -6.2991   -2.7122    0.3366 H   0  0  0  0  0  0  0  0  0  0  0  0
   -4.6812   -2.0415   -0.0634 H   0  0  0  0  0  0  0  0  0  0  0  0
   -6.0985   -1.7141   -1.1198 H   0  0  0  0  0  0  0  0  0  0  0  0
   -6.6139   -0.8231    1.6992 H   0  0  0  0  0  0  0  0  0  0  0  0
   -6.2416    0.9514   -0.7855 H   0  0  0  0  0  0  0  0  0  0  0  0
   -7.5161   -0.3010   -0.8269 H   0  0  0  0  0  0  0  0  0  0  0  0
   -7.5123    1.0756    0.4335 H   0  0  0  0  0  0  0  0  0  0  0  0
   -3.9042   -0.3106   -0.9195 H   0  0  0  0  0  0  0  0  0  0  0  0
   -2.5598    1.8648    2.4389 H   0  0  0  0  0  0  0  0  0  0  0  0
   -0.3174    0.4243    1.3035 H   0  0  0  0  0  0  0  0  0  0  0  0
    2.0908    0.6277    1.2136 H   0  0  0  0  0  0  0  0  0  0  0  0
    3.2476   -0.6473    2.1120 H   0  0  0  0  0  0  0  0  0  0  0  0
    5.1323   -1.3586    3.3845 H   0  0  0  0  0  0  0  0  0  0  0  0
    7.3458   -1.5561    2.3307 H   0  0  0  0  0  0  0  0  0  0  0  0
    5.6798   -0.3633   -1.3614 H   0  0  0  0  0  0  0  0  0  0  0  0
    1.6045    1.4757   -2.3532 H   0  0  0  0  0  0  0  0  0  0  0  0
   -0.5585    2.0746   -3.3233 H   0  0  0  0  0  0  0  0  0  0  0  0
  1  2  1  0
  2  3  1  0
  2  4  1  0
  4  5  1  0
  5  6  2  0
  6  7  1  0
  7  8  2  0
  6  9  1  0
  9 10  2  0
 10 11  1  0
 11 12  1  0
 12 13  1  0
 13 14  2  0
 13 15  1  0
 15 16  2  0
 16 17  1  0
 17 18  2  0
 18 19  1  0
 19 20  2  0
 19 21  1  0
 21 22  1  0
 21 23  1  0
 21 24  1  0
 11 25  2  0
 25 26  1  0
 26 27  2  0
 27 28  1  0
 28 29  3  0
  8  4  1  0
 27  9  1  0
 20 15  1  0
  1 30  1  0
  1 31  1  0
  1 32  1  0
  2 33  1  0
  3 34  1  0
  3 35  1  0
  3 36  1  0
  5 37  1  0
  7 38  1  0
 10 39  1  0
 12 40  1  0
 16 41  1  0
 17 42  1  0
 18 43  1  0
 20 44  1  0
 25 45  1  0
 26 46  1  0
M  END
$$$$
[H]c1c([H])c(S(=O)(=O)N2C([H])([H])C([H])([H])N(C3([H])C([H])([H])C([H])([H])N(C(=O)c4c([H])c([H])c(Cl)c([H])c4Cl)C([H])([H])C3([H])[H])C([H])([H])C2([H])[H])c([H])c([H])c1F
     RDKit          3D

 56 59  0  0  0  0  0  0  0  0999 V2000
    8.4813    1.4829   -2.0956 F   0  0  0  0  0  0  0  0  0  0  0  0
    7.4859    1.0079   -1.2961 C   0  0  0  0  0  0  0  0  0  0  0  0
    7.5763   -0.2607   -0.7590 C   0  0  0  0  0  0  0  0  0  0  0  0
    6.5835   -0.7605    0.0507 C   0  0  0  0  0  0  0  0  0  0  0  0
    5.4682   -0.0083    0.3498 C   0  0  0  0  0  0  0  0  0  0  0  0
    5.3614    1.2588   -0.1770 C   0  0  0  0  0  0  0  0  0  0  0  0
    6.3750    1.7632   -1.0010 C   0  0  0  0  0  0  0  0  0  0  0  0
    4.2461   -0.7010    1.3827 S   0  0  0  0  0  0  0  0  0  0  0  0
    3.4729    0.4191    2.0620 O   0  0  0  0  0  0  0  0  0  0  0  0
    4.8201   -1.6088    2.4260 O   0  0  0  0  0  0  0  0  0  0  0  0
    3.1115   -1.5287    0.3791 N   0  0  0  0  0  0  0  0  0  0  0  0
    2.4546   -0.6362   -0.5421 C   0  0  0  0  0  0  0  0  0  0  0  0
    1.0853   -1.2354   -0.8357 C   0  0  0  0  0  0  0  0  0  0  0  0
    0.2101   -1.2179    0.2857 N   0  0  0  0  0  0  0  0  0  0  0  0
    0.9128   -1.6386    1.4595 C   0  0  0  0  0  0  0  0  0  0  0  0
    2.2127   -2.3626    1.1248 C   0  0  0  0  0  0  0  0  0  0  0  0
   -0.4823    0.0302    0.5161 C   0  0  0  0  0  0  0  0  0  0  0  0
   -1.2505   -0.0913    1.8159 C   0  0  0  0  0  0  0  0  0  0  0  0
   -2.1699    1.1312    1.8965 C   0  0  0  0  0  0  0  0  0  0  0  0
   -3.1983    0.8892    0.9117 N   0  0  0  0  0  0  0  0  0  0  0  0
   -2.8029    0.4857   -0.3918 C   0  0  0  0  0  0  0  0  0  0  0  0
   -1.3225    0.4704   -0.6234 C   0  0  0  0  0  0  0  0  0  0  0  0
   -4.5615    1.0445    1.2264 C   0  0  0  0  0  0  0  0  0  0  0  0
   -4.9477    1.3961    2.3641 O   0  0  0  0  0  0  0  0  0  0  0  0
   -5.5626    0.7923    0.2097 C   0  0  0  0  0  0  0  0  0  0  0  0
   -5.9612    1.8460   -0.5877 C   0  0  0  0  0  0  0  0  0  0  0  0
   -6.9047    1.6838   -1.5713 C   0  0  0  0  0  0  0  0  0  0  0  0
   -7.4845    0.4507   -1.7897 C   0  0  0  0  0  0  0  0  0  0  0  0
   -8.6843    0.2429   -3.0394 Cl  0  0  0  0  0  0  0  0  0  0  0  0
   -7.0765   -0.6019   -0.9822 C   0  0  0  0  0  0  0  0  0  0  0  0
   -6.1312   -0.4410    0.0035 C   0  0  0  0  0  0  0  0  0  0  0  0
   -5.6415   -1.7915    1.0018 Cl  0  0  0  0  0  0  0  0  0  0  0  0
    8.4256   -0.8751   -0.9673 H   0  0  0  0  0  0  0  0  0  0  0  0
    6.7179   -1.7737    0.4432 H   0  0  0  0  0  0  0  0  0  0  0  0
    4.5128    1.8684    0.0333 H   0  0  0  0  0  0  0  0  0  0  0  0
    6.2587    2.7448   -1.3899 H   0  0  0  0  0  0  0  0  0  0  0  0
    2.3490    0.3989   -0.1529 H   0  0  0  0  0  0  0  0  0  0  0  0
    2.9831   -0.5464   -1.5205 H   0  0  0  0  0  0  0  0  0  0  0  0
    0.7359   -0.7821   -1.7569 H   0  0  0  0  0  0  0  0  0  0  0  0
    1.2897   -2.3179   -1.0674 H   0  0  0  0  0  0  0  0  0  0  0  0
    0.2945   -2.3636    2.0259 H   0  0  0  0  0  0  0  0  0  0  0  0
    1.2115   -0.7898    2.1227 H   0  0  0  0  0  0  0  0  0  0  0  0
    2.0147   -3.3451    0.6388 H   0  0  0  0  0  0  0  0  0  0  0  0
    2.6886   -2.5943    2.1007 H   0  0  0  0  0  0  0  0  0  0  0  0
    0.3327    0.7846    0.7301 H   0  0  0  0  0  0  0  0  0  0  0  0
   -1.8118   -1.0232    1.8291 H   0  0  0  0  0  0  0  0  0  0  0  0
   -0.5877   -0.0201    2.6976 H   0  0  0  0  0  0  0  0  0  0  0  0
   -2.5899    1.2378    2.9133 H   0  0  0  0  0  0  0  0  0  0  0  0
   -1.5802    2.0081    1.5614 H   0  0  0  0  0  0  0  0  0  0  0  0
   -3.2274   -0.5157   -0.6993 H   0  0  0  0  0  0  0  0  0  0  0  0
   -3.2499    1.2030   -1.1235 H   0  0  0  0  0  0  0  0  0  0  0  0
   -1.0319    1.5266   -0.8974 H   0  0  0  0  0  0  0  0  0  0  0  0
   -1.1661   -0.1051   -1.5729 H   0  0  0  0  0  0  0  0  0  0  0  0
   -5.5157    2.8370   -0.4342 H   0  0  0  0  0  0  0  0  0  0  0  0
   -7.2076    2.5249   -2.1912 H   0  0  0  0  0  0  0  0  0  0  0  0
   -7.5220   -1.5929   -1.1355 H   0  0  0  0  0  0  0  0  0  0  0  0
  1  2  1  0
  2  3  2  0
  3  4  1  0
  4  5  2  0
  5  6  1  0
  6  7  2  0
  5  8  1  0
  8  9  2  0
  8 10  2  0
  8 11  1  0
 11 12  1  0
 12 13  1  0
 13 14  1  0
 14 15  1  0
 15 16  1  0
 14 17  1  0
 17 18  1  0
 18 19  1  0
 19 20  1  0
 20 21  1  0
 21 22  1  0
 20 23  1  0
 23 24  2  0
 23 25  1  0
 25 26  2  0
 26 27  1  0
 27 28  2  0
 28 29  1  0
 28 30  1  0
 30 31  2  0
 31 32  1  0
  7  2  1  0
 16 11  1  0
 22 17  1  0
 31 25  1  0
  3 33  1  0
  4 34  1  0
  6 35  1  0
  7 36  1  0
 12 37  1  0
 12 38  1  0
 13 39  1  0
 13 40  1  0
 15 41  1  0
 15 42  1  0
 16 43  1  0
 16 44  1  0
 17 45  1  0
 18 46  1  0
 18 47  1  0
 19 48  1  0
 19 49  1  0
 21 50  1  0
 21 51  1  0
 22 52  1  0
 22 53  1  0
 26 54  1  0
 27 55  1  0
 30 56  1  0
M  END
$$$$
[H]c1nc(N2C([H])([H])C([H])([H])OC([H])([H])C2([H])[H])c([H])c(-c2noc(-c3c([H])c([H])c(C(=O)N([H])[C@]([H])(c4c([H])c([H])c(F)c([H])c4[H])C([H])([H])C([H])(C([H])([H])[H])C([H])([H])[H])c([H])c3[H])n2)c1[H]
     RDKit          3D

 68 72  0  0  0  0  0  0  0  0999 V2000
   -7.1713    1.8005    1.3100 C   0  0  0  0  0  0  0  0  0  0  0  0
   -6.5273    0.6473    2.0138 C   0  0  0  0  0  0  0  0  0  0  0  0
   -7.1823    0.4586    3.3868 C   0  0  0  0  0  0  0  0  0  0  0  0
   -6.6670   -0.6351    1.2776 C   0  0  0  0  0  0  0  0  0  0  0  0
   -6.0647   -0.7470   -0.0645 C   0  0  2  0  0  0  0  0  0  0  0  0
   -4.6398   -0.5202   -0.0279 N   0  0  0  0  0  0  0  0  0  0  0  0
   -3.7357   -1.5584   -0.2733 C   0  0  0  0  0  0  0  0  0  0  0  0
   -4.1762   -2.7079   -0.5310 O   0  0  0  0  0  0  0  0  0  0  0  0
   -2.3013   -1.3404   -0.2374 C   0  0  0  0  0  0  0  0  0  0  0  0
   -1.6992   -0.1201   -0.0521 C   0  0  0  0  0  0  0  0  0  0  0  0
   -0.3048    0.0180   -0.0211 C   0  0  0  0  0  0  0  0  0  0  0  0
    0.5235   -1.0707   -0.1763 C   0  0  0  0  0  0  0  0  0  0  0  0
   -0.0678   -2.2999   -0.3629 C   0  0  0  0  0  0  0  0  0  0  0  0
   -1.4383   -2.4342   -0.3930 C   0  0  0  0  0  0  0  0  0  0  0  0
    1.9865   -0.9340   -0.1437 C   0  0  0  0  0  0  0  0  0  0  0  0
    2.7198    0.1625    0.0196 N   0  0  0  0  0  0  0  0  0  0  0  0
    4.0164   -0.2147   -0.0221 C   0  0  0  0  0  0  0  0  0  0  0  0
    4.0567   -1.5426   -0.2114 N   0  0  0  0  0  0  0  0  0  0  0  0
    2.8236   -1.9329   -0.2787 O   0  0  0  0  0  0  0  0  0  0  0  0
    5.1870    0.6506    0.1114 C   0  0  0  0  0  0  0  0  0  0  0  0
    5.0664    2.0026    0.2908 C   0  0  0  0  0  0  0  0  0  0  0  0
    6.2215    2.7462    0.4096 C   0  0  0  0  0  0  0  0  0  0  0  0
    7.4428    2.1853    0.3544 N   0  0  0  0  0  0  0  0  0  0  0  0
    7.5921    0.8456    0.1768 C   0  0  0  0  0  0  0  0  0  0  0  0
    6.4433    0.0985    0.0578 C   0  0  0  0  0  0  0  0  0  0  0  0
    8.8900    0.2522    0.1223 N   0  0  0  0  0  0  0  0  0  0  0  0
   10.0357    1.1036    0.2504 C   0  0  0  0  0  0  0  0  0  0  0  0
   11.1767    0.4231    0.9771 C   0  0  0  0  0  0  0  0  0  0  0  0
   10.8650   -0.8982    1.2912 O   0  0  0  0  0  0  0  0  0  0  0  0
   10.3915   -1.6195    0.2155 C   0  0  0  0  0  0  0  0  0  0  0  0
    8.9717   -1.1820   -0.0582 C   0  0  0  0  0  0  0  0  0  0  0  0
   -6.7349   -0.1156   -1.2035 C   0  0  0  0  0  0  0  0  0  0  0  0
   -6.3205    1.0217   -1.8613 C   0  0  0  0  0  0  0  0  0  0  0  0
   -7.0242    1.5379   -2.9238 C   0  0  0  0  0  0  0  0  0  0  0  0
   -8.1840    0.9557   -3.3987 C   0  0  0  0  0  0  0  0  0  0  0  0
   -8.8922    1.4451   -4.4421 F   0  0  0  0  0  0  0  0  0  0  0  0
   -8.6092   -0.1819   -2.7496 C   0  0  0  0  0  0  0  0  0  0  0  0
   -7.9112   -0.7050   -1.6858 C   0  0  0  0  0  0  0  0  0  0  0  0
   -7.9953    1.4974    0.6520 H   0  0  0  0  0  0  0  0  0  0  0  0
   -7.6878    2.4128    2.1170 H   0  0  0  0  0  0  0  0  0  0  0  0
   -6.4302    2.4660    0.8218 H   0  0  0  0  0  0  0  0  0  0  0  0
   -5.4508    0.9378    2.1604 H   0  0  0  0  0  0  0  0  0  0  0  0
   -7.1736    1.3995    3.9662 H   0  0  0  0  0  0  0  0  0  0  0  0
   -8.2040    0.0917    3.2002 H   0  0  0  0  0  0  0  0  0  0  0  0
   -6.5723   -0.2980    3.9147 H   0  0  0  0  0  0  0  0  0  0  0  0
   -7.7564   -0.9478    1.2259 H   0  0  0  0  0  0  0  0  0  0  0  0
   -6.2241   -1.4933    1.8893 H   0  0  0  0  0  0  0  0  0  0  0  0
   -6.1281   -1.8850   -0.3486 H   0  0  0  0  0  0  0  0  0  0  0  0
   -4.3037    0.4337    0.1857 H   0  0  0  0  0  0  0  0  0  0  0  0
   -2.3297    0.7603    0.0726 H   0  0  0  0  0  0  0  0  0  0  0  0
    0.1416    0.9766    0.1236 H   0  0  0  0  0  0  0  0  0  0  0  0
    0.5962   -3.1486   -0.4838 H   0  0  0  0  0  0  0  0  0  0  0  0
   -1.8976   -3.4085   -0.5412 H   0  0  0  0  0  0  0  0  0  0  0  0
    4.0765    2.4339    0.3323 H   0  0  0  0  0  0  0  0  0  0  0  0
    6.0813    3.8201    0.5517 H   0  0  0  0  0  0  0  0  0  0  0  0
    6.5959   -0.9706   -0.0827 H   0  0  0  0  0  0  0  0  0  0  0  0
   10.3601    1.3779   -0.7854 H   0  0  0  0  0  0  0  0  0  0  0  0
    9.7453    2.0552    0.7396 H   0  0  0  0  0  0  0  0  0  0  0  0
   11.3084    0.9609    1.9414 H   0  0  0  0  0  0  0  0  0  0  0  0
   12.0879    0.5433    0.3932 H   0  0  0  0  0  0  0  0  0  0  0  0
   10.9866   -1.4815   -0.7090 H   0  0  0  0  0  0  0  0  0  0  0  0
   10.3543   -2.6868    0.5289 H   0  0  0  0  0  0  0  0  0  0  0  0
    8.3365   -1.6419    0.7356 H   0  0  0  0  0  0  0  0  0  0  0  0
    8.6308   -1.4813   -1.0704 H   0  0  0  0  0  0  0  0  0  0  0  0
   -5.4173    1.5103   -1.5238 H   0  0  0  0  0  0  0  0  0  0  0  0
   -6.6907    2.4305   -3.4316 H   0  0  0  0  0  0  0  0  0  0  0  0
   -9.5266   -0.6478   -3.1207 H   0  0  0  0  0  0  0  0  0  0  0  0
   -8.2716   -1.6116   -1.1861 H   0  0  0  0  0  0  0  0  0  0  0  0
  1  2  1  0
  2  3  1  0
  2  4  1  0
  4  5  1  0
  5  6  1  0
  6  7  1  0
  7  8  2  0
  7  9  1  0
  9 10  2  0
 10 11  1  0
 11 12  2  0
 12 13  1  0
 13 14  2  0
 12 15  1  0
 15 16  2  0
 16 17  1  0
 17 18  2  0
 18 19  1  0
 17 20  1  0
 20 21  2  0
 21 22  1  0
 22 23  2  0
 23 24  1  0
 24 25  2  0
 24 26  1  0
 26 27  1  0
 27 28  1  0
 28 29  1  0
 29 30  1  0
 30 31  1  0
  5 32  1  0
 32 33  2  0
 33 34  1  0
 34 35  2  0
 35 36  1  0
 35 37  1  0
 37 38  2  0
 14  9  1  0
 19 15  1  0
 25 20  1  0
 31 26  1  0
 38 32  1  0
  1 39  1  0
  1 40  1  0
  1 41  1  0
  2 42  1  0
  3 43  1  0
  3 44  1  0
  3 45  1  0
  4 46  1  0
  4 47  1  0
  5 48  1  6
  6 49  1  0
 10 50  1  0
 11 51  1  0
 13 52  1  0
 14 53  1  0
 21 54  1  0
 22 55  1  0
 25 56  1  0
 27 57  1  0
 27 58  1  0
 28 59  1  0
 28 60  1  0
 30 61  1  0
 30 62  1  0
 31 63  1  0
 31 64  1  0
 33 65  1  0
 34 66  1  0
 37 67  1  0
 38 68  1  0
M  END
$$$$
[H]OC(=O)[C@@]([H])(N([H])C(=O)[C@@]([H])(N([H])C(=O)[C@]([H])(N([H])C(=O)OC([H])([H])c1c([H])c([H])c([H])c([H])c1[H])C([H])([H])c1c([H])c([H])c([H])c([H])c1[H])C([H])(C([H])([H])[H])C([H])([H])[H])C([H])([H])c1c([H])n([H])c2c([H])c([H])c([H])c([H])c12
     RDKit          3D

 79 82  0  0  0  0  0  0  0  0999 V2000
   -0.6444    1.1160    3.2834 C   0  0  0  0  0  0  0  0  0  0  0  0
   -0.5655   -0.3674    3.1349 C   0  0  0  0  0  0  0  0  0  0  0  0
   -1.2778   -1.1960    4.1416 C   0  0  0  0  0  0  0  0  0  0  0  0
   -0.5498   -0.8729    1.7197 C   0  0  2  0  0  0  0  0  0  0  0  0
    0.4842   -0.4902    1.0235 N   0  0  0  0  0  0  0  0  0  0  0  0
    1.5909   -0.0280    0.1960 C   0  0  0  0  0  0  0  0  0  0  0  0
    1.4180    0.6970   -0.8184 O   0  0  0  0  0  0  0  0  0  0  0  0
    2.9942   -0.3780    0.4825 C   0  0  1  0  0  0  0  0  0  0  0  0
    3.2972   -1.7239   -0.2036 C   0  0  0  0  0  0  0  0  0  0  0  0
    2.5051   -2.8565    0.2076 C   0  0  0  0  0  0  0  0  0  0  0  0
    1.3441   -3.2050   -0.4969 C   0  0  0  0  0  0  0  0  0  0  0  0
    0.5799   -4.2925   -0.1584 C   0  0  0  0  0  0  0  0  0  0  0  0
    0.9001   -5.1211    0.9021 C   0  0  0  0  0  0  0  0  0  0  0  0
    2.0500   -4.7879    1.6129 C   0  0  0  0  0  0  0  0  0  0  0  0
    2.8202   -3.7003    1.2792 C   0  0  0  0  0  0  0  0  0  0  0  0
    3.8356    0.5471   -0.3210 N   0  0  0  0  0  0  0  0  0  0  0  0
    5.1841    0.8145   -0.0125 C   0  0  0  0  0  0  0  0  0  0  0  0
    5.8028    0.3124    0.9556 O   0  0  0  0  0  0  0  0  0  0  0  0
    5.9151    1.6921   -0.8192 O   0  0  0  0  0  0  0  0  0  0  0  0
    7.2782    1.9794   -0.5721 C   0  0  0  0  0  0  0  0  0  0  0  0
    7.7346    2.9612   -1.5748 C   0  0  0  0  0  0  0  0  0  0  0  0
    8.7250    3.8556   -1.2557 C   0  0  0  0  0  0  0  0  0  0  0  0
    9.1701    4.8098   -2.1569 C   0  0  0  0  0  0  0  0  0  0  0  0
    8.5846    4.8397   -3.4036 C   0  0  0  0  0  0  0  0  0  0  0  0
    7.5932    3.9494   -3.7365 C   0  0  0  0  0  0  0  0  0  0  0  0
    7.1639    3.0029   -2.8148 C   0  0  0  0  0  0  0  0  0  0  0  0
   -1.9013   -0.8417    1.0456 C   0  0  0  0  0  0  0  0  0  0  0  0
   -1.8205   -1.2906   -0.1392 O   0  0  0  0  0  0  0  0  0  0  0  0
   -3.1346   -0.4172    1.5100 N   0  0  0  0  0  0  0  0  0  0  0  0
   -4.3495   -0.4816    0.7119 C   0  0  1  0  0  0  0  0  0  0  0  0
   -4.2651    0.3653   -0.5363 C   0  0  0  0  0  0  0  0  0  0  0  0
   -5.4744    0.2778   -1.3909 C   0  0  0  0  0  0  0  0  0  0  0  0
   -5.5132   -0.4272   -2.6034 C   0  0  0  0  0  0  0  0  0  0  0  0
   -6.7317   -0.3155   -3.1274 N   0  0  0  0  0  0  0  0  0  0  0  0
   -7.5179    0.4229   -2.3448 C   0  0  0  0  0  0  0  0  0  0  0  0
   -8.8391    0.8248   -2.4386 C   0  0  0  0  0  0  0  0  0  0  0  0
   -9.3914    1.6015   -1.4520 C   0  0  0  0  0  0  0  0  0  0  0  0
   -8.6256    1.9737   -0.3791 C   0  0  0  0  0  0  0  0  0  0  0  0
   -7.3115    1.5780   -0.2793 C   0  0  0  0  0  0  0  0  0  0  0  0
   -6.7363    0.7973   -1.2562 C   0  0  0  0  0  0  0  0  0  0  0  0
   -4.8021   -1.8134    0.4140 C   0  0  0  0  0  0  0  0  0  0  0  0
   -5.8878   -2.2695   -0.2549 O   0  0  0  0  0  0  0  0  0  0  0  0
   -4.0263   -2.7637    0.8720 O   0  0  0  0  0  0  0  0  0  0  0  0
   -0.7611    1.6505    2.3140 H   0  0  0  0  0  0  0  0  0  0  0  0
    0.2281    1.5966    3.7717 H   0  0  0  0  0  0  0  0  0  0  0  0
   -1.5127    1.3619    3.9697 H   0  0  0  0  0  0  0  0  0  0  0  0
    0.5690   -0.5663    3.4293 H   0  0  0  0  0  0  0  0  0  0  0  0
   -2.2537   -1.5248    3.7691 H   0  0  0  0  0  0  0  0  0  0  0  0
   -1.4282   -0.6708    5.1144 H   0  0  0  0  0  0  0  0  0  0  0  0
   -0.6852   -2.1351    4.3549 H   0  0  0  0  0  0  0  0  0  0  0  0
   -0.4887   -2.0425    1.8697 H   0  0  0  0  0  0  0  0  0  0  0  0
   -0.3437    0.2525    0.1995 H   0  0  0  0  0  0  0  0  0  0  0  0
    3.3267   -0.4038    1.5006 H   0  0  0  0  0  0  0  0  0  0  0  0
    3.2804   -1.5380   -1.3057 H   0  0  0  0  0  0  0  0  0  0  0  0
    4.3833   -1.9268    0.0112 H   0  0  0  0  0  0  0  0  0  0  0  0
    1.0746   -2.5621   -1.3343 H   0  0  0  0  0  0  0  0  0  0  0  0
   -0.3243   -4.5532   -0.7212 H   0  0  0  0  0  0  0  0  0  0  0  0
    0.3122   -5.9848    1.1804 H   0  0  0  0  0  0  0  0  0  0  0  0
    2.2961   -5.4452    2.4483 H   0  0  0  0  0  0  0  0  0  0  0  0
    3.7143   -3.4515    1.8458 H   0  0  0  0  0  0  0  0  0  0  0  0
    3.4075    1.0215   -1.1477 H   0  0  0  0  0  0  0  0  0  0  0  0
    7.4284    2.2916    0.4744 H   0  0  0  0  0  0  0  0  0  0  0  0
    7.8129    0.9950   -0.7645 H   0  0  0  0  0  0  0  0  0  0  0  0
    9.1531    3.7898   -0.2681 H   0  0  0  0  0  0  0  0  0  0  0  0
    9.9445    5.5206   -1.9186 H   0  0  0  0  0  0  0  0  0  0  0  0
    8.9256    5.5938   -4.1158 H   0  0  0  0  0  0  0  0  0  0  0  0
    7.1620    3.9972   -4.7047 H   0  0  0  0  0  0  0  0  0  0  0  0
    6.3766    2.3302   -3.1406 H   0  0  0  0  0  0  0  0  0  0  0  0
   -3.2376   -0.0094    2.4588 H   0  0  0  0  0  0  0  0  0  0  0  0
   -5.1550    0.0262    1.3350 H   0  0  0  0  0  0  0  0  0  0  0  0
   -4.1821    1.4564   -0.2704 H   0  0  0  0  0  0  0  0  0  0  0  0
   -3.3672    0.1747   -1.1579 H   0  0  0  0  0  0  0  0  0  0  0  0
   -4.6611   -0.9574   -2.9942 H   0  0  0  0  0  0  0  0  0  0  0  0
   -7.0612   -0.7451   -4.0443 H   0  0  0  0  0  0  0  0  0  0  0  0
   -9.4099    0.4944   -3.3153 H   0  0  0  0  0  0  0  0  0  0  0  0
  -10.4319    1.8868   -1.5773 H   0  0  0  0  0  0  0  0  0  0  0  0
   -9.0988    2.5830    0.3691 H   0  0  0  0  0  0  0  0  0  0  0  0
   -6.6843    1.8583    0.5529 H   0  0  0  0  0  0  0  0  0  0  0  0
   -5.9141   -3.1423   -0.7752 H   0  0  0  0  0  0  0  0  0  0  0  0
  1  2  1  0
  2  3  1  0
  2  4  1  0
  4  5  1  0
  5  6  1  0
  6  7  2  0
  6  8  1  0
  8  9  1  0
  9 10  1  0
 10 11  2  0
 11 12  1  0
 12 13  2  0
 13 14  1  0
 14 15  2  0
  8 16  1  0
 16 17  1  0
 17 18  2  0
 17 19  1  0
 19 20  1  0
 20 21  1  0
 21 22  2  0
 22 23  1  0
 23 24  2  0
 24 25  1  0
 25 26  2  0
  4 27  1  0
 27 28  2  0
 27 29  1  0
 29 30  1  0
 30 31  1  0
 31 32  1  0
 32 33  2  0
 33 34  1  0
 34 35  1  0
 35 36  2  0
 36 37  1  0
 37 38  2  0
 38 39  1  0
 39 40  2  0
 30 41  1  0
 41 42  1  0
 41 43  2  0
 15 10  1  0
 26 21  1  0
 40 32  1  0
 40 35  1  0
  1 44  1  0
  1 45  1  0
  1 46  1  0
  2 47  1  0
  3 48  1  0
  3 49  1  0
  3 50  1  0
  4 51  1  1
  5 52  1  0
  8 53  1  1
  9 54  1  0
  9 55  1  0
 11 56  1  0
 12 57  1  0
 13 58  1  0
 14 59  1  0
 15 60  1  0
 16 61  1  0
 20 62  1  0
 20 63  1  0
 22 64  1  0
 23 65  1  0
 24 66  1  0
 25 67  1  0
 26 68  1  0
 29 69  1  0
 30 70  1  1
 31 71  1  0
 31 72  1  0
 33 73  1  0
 34 74  1  0
 36 75  1  0
 37 76  1  0
 38 77  1  0
 39 78  1  0
 42 79  1  0
M  END
$$$$
[H]OC(=O)C([H])([H])[C@@]([H])(C(=O)N([H])[C@]([H])(C(=O)N1C([H])([H])C([H])([H])C([H])([H])[C@@]1([H])C(=O)N([H])[C@@]([H])(C(=O)N1C([H])([H])C([H])([H])C([H])([H])[C@@]1([H])C(=O)N([H])[C@]([H])(C(=O)N([H])[H])C([H])([H])[H])C([H])([H])c1c([H])c([H])c(O[H])c([H])c1[H])C([H])([H])c1c([H])c([H])c([H])c([H])c1[H])N([H])C(=O)[C@@]([H])(N([H])C(=O)OC([H])([H])c1c([H])c([H])c([H])c([H])c1[H])C([H])([H])c1c([H])c([H])c([H])c([H])c1[H]
     RDKit          3D

132137  0  0  0  0  0  0  0  0999 V2000
   10.9059    1.9343    0.9577 C   0  0  0  0  0  0  0  0  0  0  0  0
    9.9544    3.1033    1.1882 C   0  0  2  0  0  0  0  0  0  0  0  0
    8.6806    2.8808    0.5778 N   0  0  0  0  0  0  0  0  0  0  0  0
    7.4710    2.6205    1.2597 C   0  0  0  0  0  0  0  0  0  0  0  0
    7.4827    2.5727    2.5169 O   0  0  0  0  0  0  0  0  0  0  0  0
    6.2071    2.4025    0.5349 C   0  0  2  0  0  0  0  0  0  0  0  0
    5.6276    3.7591    0.0788 C   0  0  0  0  0  0  0  0  0  0  0  0
    5.1387    4.2950    1.3965 C   0  0  0  0  0  0  0  0  0  0  0  0
    4.6919    3.1064    2.1697 C   0  0  0  0  0  0  0  0  0  0  0  0
    5.1940    1.9480    1.4778 N   0  0  0  0  0  0  0  0  0  0  0  0
    4.7798    0.6234    1.6661 C   0  0  0  0  0  0  0  0  0  0  0  0
    3.8793    0.3586    2.5059 O   0  0  0  0  0  0  0  0  0  0  0  0
    5.3811   -0.4881    0.8901 C   0  0  1  0  0  0  0  0  0  0  0  0
    6.5755   -1.0753    1.5713 C   0  0  0  0  0  0  0  0  0  0  0  0
    7.1650   -2.1993    0.7935 C   0  0  0  0  0  0  0  0  0  0  0  0
    6.7769   -3.5130    1.0406 C   0  0  0  0  0  0  0  0  0  0  0  0
    7.3201   -4.5585    0.3246 C   0  0  0  0  0  0  0  0  0  0  0  0
    8.2616   -4.3730   -0.6606 C   0  0  0  0  0  0  0  0  0  0  0  0
    8.8178   -5.4147   -1.3903 O   0  0  0  0  0  0  0  0  0  0  0  0
    8.6510   -3.0509   -0.9071 C   0  0  0  0  0  0  0  0  0  0  0  0
    8.1106   -2.0030   -0.1944 C   0  0  0  0  0  0  0  0  0  0  0  0
    4.3526   -1.4938    0.6429 N   0  0  0  0  0  0  0  0  0  0  0  0
    3.5676   -1.4840   -0.5359 C   0  0  0  0  0  0  0  0  0  0  0  0
    3.6633   -0.6244   -1.4341 O   0  0  0  0  0  0  0  0  0  0  0  0
    2.5577   -2.5747   -0.7282 C   0  0  2  0  0  0  0  0  0  0  0  0
    3.3244   -3.8400   -1.1831 C   0  0  0  0  0  0  0  0  0  0  0  0
    3.6295   -3.4528   -2.6263 C   0  0  0  0  0  0  0  0  0  0  0  0
    2.5213   -2.5621   -3.0255 C   0  0  0  0  0  0  0  0  0  0  0  0
    1.6779   -2.3506   -1.8395 N   0  0  0  0  0  0  0  0  0  0  0  0
    0.3022   -2.0545   -1.8919 C   0  0  0  0  0  0  0  0  0  0  0  0
   -0.1574   -1.8261   -3.0863 O   0  0  0  0  0  0  0  0  0  0  0  0
   -0.6477   -1.9768   -0.7933 C   0  0  2  0  0  0  0  0  0  0  0  0
   -0.9357   -3.3182   -0.1225 C   0  0  0  0  0  0  0  0  0  0  0  0
   -1.5143   -4.3258   -1.0305 C   0  0  0  0  0  0  0  0  0  0  0  0
   -0.6981   -5.1600   -1.7562 C   0  0  0  0  0  0  0  0  0  0  0  0
   -1.2650   -6.1029   -2.5881 C   0  0  0  0  0  0  0  0  0  0  0  0
   -2.6248   -6.2415   -2.7186 C   0  0  0  0  0  0  0  0  0  0  0  0
   -3.4225   -5.3765   -1.9667 C   0  0  0  0  0  0  0  0  0  0  0  0
   -2.8738   -4.4381   -1.1404 C   0  0  0  0  0  0  0  0  0  0  0  0
   -1.9157   -1.4491   -1.3037 N   0  0  0  0  0  0  0  0  0  0  0  0
   -2.8114   -0.6479   -0.5768 C   0  0  0  0  0  0  0  0  0  0  0  0
   -2.5558   -0.3509    0.6029 O   0  0  0  0  0  0  0  0  0  0  0  0
   -4.0421   -0.1691   -1.2171 C   0  0  2  0  0  0  0  0  0  0  0  0
   -3.6868    0.8034   -2.3644 C   0  0  0  0  0  0  0  0  0  0  0  0
   -2.9408    1.9760   -1.8826 C   0  0  0  0  0  0  0  0  0  0  0  0
   -2.5229    2.9018   -2.8215 O   0  0  0  0  0  0  0  0  0  0  0  0
   -2.6585    2.1935   -0.6753 O   0  0  0  0  0  0  0  0  0  0  0  0
   -4.9915    0.4644   -0.3362 N   0  0  0  0  0  0  0  0  0  0  0  0
   -6.3827    0.2540   -0.4890 C   0  0  0  0  0  0  0  0  0  0  0  0
   -6.7347   -0.5214   -1.4591 O   0  0  0  0  0  0  0  0  0  0  0  0
   -7.4553    0.8287    0.3380 C   0  0  2  0  0  0  0  0  0  0  0  0
   -7.9092   -0.1590    1.4105 C   0  0  0  0  0  0  0  0  0  0  0  0
   -6.7776   -0.5181    2.2900 C   0  0  0  0  0  0  0  0  0  0  0  0
   -6.4899    0.1822    3.4604 C   0  0  0  0  0  0  0  0  0  0  0  0
   -5.4398   -0.1592    4.2878 C   0  0  0  0  0  0  0  0  0  0  0  0
   -4.6184   -1.2376    3.9709 C   0  0  0  0  0  0  0  0  0  0  0  0
   -4.8740   -1.9435    2.8316 C   0  0  0  0  0  0  0  0  0  0  0  0
   -5.9349   -1.5914    2.0041 C   0  0  0  0  0  0  0  0  0  0  0  0
   -8.5992    1.1569   -0.5092 N   0  0  0  0  0  0  0  0  0  0  0  0
   -9.1365    2.4587   -0.5579 C   0  0  0  0  0  0  0  0  0  0  0  0
   -8.6727    3.4156    0.1201 O   0  0  0  0  0  0  0  0  0  0  0  0
  -10.2123    2.7143   -1.3736 O   0  0  0  0  0  0  0  0  0  0  0  0
  -10.8407    3.9453   -1.5113 C   0  0  0  0  0  0  0  0  0  0  0  0
  -11.4264    4.4999   -0.2819 C   0  0  0  0  0  0  0  0  0  0  0  0
  -10.9081    5.5757    0.3942 C   0  0  0  0  0  0  0  0  0  0  0  0
  -11.4921    6.0491    1.5446 C   0  0  0  0  0  0  0  0  0  0  0  0
  -12.6208    5.4337    2.0308 C   0  0  0  0  0  0  0  0  0  0  0  0
  -13.1403    4.3561    1.3541 C   0  0  0  0  0  0  0  0  0  0  0  0
  -12.5718    3.8776    0.2145 C   0  0  0  0  0  0  0  0  0  0  0  0
   10.5444    4.3605    0.7103 C   0  0  0  0  0  0  0  0  0  0  0  0
   11.8227    4.7561    1.1685 N   0  0  0  0  0  0  0  0  0  0  0  0
    9.9188    5.0793   -0.0996 O   0  0  0  0  0  0  0  0  0  0  0  0
   10.4400    1.1329    0.3744 H   0  0  0  0  0  0  0  0  0  0  0  0
   11.2220    1.4980    1.9197 H   0  0  0  0  0  0  0  0  0  0  0  0
   11.8258    2.2413    0.4164 H   0  0  0  0  0  0  0  0  0  0  0  0
    9.7974    3.1768    2.2925 H   0  0  0  0  0  0  0  0  0  0  0  0
    8.6483    2.9177   -0.4791 H   0  0  0  0  0  0  0  0  0  0  0  0
    6.3223    1.7728   -0.3472 H   0  0  0  0  0  0  0  0  0  0  0  0
    4.7526    3.5451   -0.5619 H   0  0  0  0  0  0  0  0  0  0  0  0
    6.3938    4.3785   -0.4104 H   0  0  0  0  0  0  0  0  0  0  0  0
    4.3357    5.0585    1.2712 H   0  0  0  0  0  0  0  0  0  0  0  0
    6.0298    4.7396    1.9208 H   0  0  0  0  0  0  0  0  0  0  0  0
    3.5746    3.0562    2.2543 H   0  0  0  0  0  0  0  0  0  0  0  0
    5.0584    3.1280    3.2220 H   0  0  0  0  0  0  0  0  0  0  0  0
    5.6284   -0.0792   -0.1085 H   0  0  0  0  0  0  0  0  0  0  0  0
    7.3950   -0.3544    1.7207 H   0  0  0  0  0  0  0  0  0  0  0  0
    6.3171   -1.4617    2.5959 H   0  0  0  0  0  0  0  0  0  0  0  0
    6.0432   -3.6802    1.8074 H   0  0  0  0  0  0  0  0  0  0  0  0
    7.0071   -5.5901    0.5314 H   0  0  0  0  0  0  0  0  0  0  0  0
    8.4686   -5.7840   -2.2435 H   0  0  0  0  0  0  0  0  0  0  0  0
    9.3962   -2.8975   -1.6851 H   0  0  0  0  0  0  0  0  0  0  0  0
    8.4135   -0.9808   -0.3877 H   0  0  0  0  0  0  0  0  0  0  0  0
    4.2005   -2.2309    1.3461 H   0  0  0  0  0  0  0  0  0  0  0  0
    2.0982   -2.7947    0.2181 H   0  0  0  0  0  0  0  0  0  0  0  0
    4.2110   -4.0336   -0.5893 H   0  0  0  0  0  0  0  0  0  0  0  0
    2.6874   -4.7291   -1.2046 H   0  0  0  0  0  0  0  0  0  0  0  0
    4.6306   -2.9423   -2.6177 H   0  0  0  0  0  0  0  0  0  0  0  0
    3.6589   -4.3543   -3.2730 H   0  0  0  0  0  0  0  0  0  0  0  0
    1.9094   -3.1169   -3.8076 H   0  0  0  0  0  0  0  0  0  0  0  0
    2.8282   -1.5874   -3.4905 H   0  0  0  0  0  0  0  0  0  0  0  0
   -0.3089   -1.3250    0.0096 H   0  0  0  0  0  0  0  0  0  0  0  0
   -0.0418   -3.6356    0.4210 H   0  0  0  0  0  0  0  0  0  0  0  0
   -1.6994   -3.0770    0.6626 H   0  0  0  0  0  0  0  0  0  0  0  0
    0.3966   -5.0753   -1.6679 H   0  0  0  0  0  0  0  0  0  0  0  0
   -0.6191   -6.7520   -3.1527 H   0  0  0  0  0  0  0  0  0  0  0  0
   -3.1181   -6.9606   -3.3498 H   0  0  0  0  0  0  0  0  0  0  0  0
   -4.4945   -5.4454   -2.0344 H   0  0  0  0  0  0  0  0  0  0  0  0
   -3.5108   -3.7867   -0.5804 H   0  0  0  0  0  0  0  0  0  0  0  0
   -2.1428   -1.7068   -2.2853 H   0  0  0  0  0  0  0  0  0  0  0  0
   -4.5486   -1.0014   -1.7339 H   0  0  0  0  0  0  0  0  0  0  0  0
   -3.1303    0.2032   -3.0885 H   0  0  0  0  0  0  0  0  0  0  0  0
   -4.6479    1.1299   -2.7917 H   0  0  0  0  0  0  0  0  0  0  0  0
   -3.0517    3.7595   -3.0140 H   0  0  0  0  0  0  0  0  0  0  0  0
   -4.6374    1.0825    0.4163 H   0  0  0  0  0  0  0  0  0  0  0  0
   -7.1233    1.7349    0.8352 H   0  0  0  0  0  0  0  0  0  0  0  0
   -8.2991   -1.0928    0.9379 H   0  0  0  0  0  0  0  0  0  0  0  0
   -8.6991    0.3220    2.0279 H   0  0  0  0  0  0  0  0  0  0  0  0
   -7.0960    1.0194    3.7498 H   0  0  0  0  0  0  0  0  0  0  0  0
   -5.2650    0.4288    5.1947 H   0  0  0  0  0  0  0  0  0  0  0  0
   -3.8028   -1.4537    4.6613 H   0  0  0  0  0  0  0  0  0  0  0  0
   -4.2352   -2.7845    2.5790 H   0  0  0  0  0  0  0  0  0  0  0  0
   -6.1419   -2.1391    1.1103 H   0  0  0  0  0  0  0  0  0  0  0  0
   -9.0274    0.4091   -1.0911 H   0  0  0  0  0  0  0  0  0  0  0  0
  -11.7019    3.8013   -2.2350 H   0  0  0  0  0  0  0  0  0  0  0  0
  -10.1470    4.6584   -2.0112 H   0  0  0  0  0  0  0  0  0  0  0  0
  -10.0243    6.0521    0.0026 H   0  0  0  0  0  0  0  0  0  0  0  0
  -11.1044    6.8968    2.0916 H   0  0  0  0  0  0  0  0  0  0  0  0
  -13.1271    5.7519    2.9274 H   0  0  0  0  0  0  0  0  0  0  0  0
  -14.0462    3.8562    1.7349 H   0  0  0  0  0  0  0  0  0  0  0  0
  -13.0214    3.0291   -0.2736 H   0  0  0  0  0  0  0  0  0  0  0  0
   12.0976    5.7521    1.2612 H   0  0  0  0  0  0  0  0  0  0  0  0
   12.5723    4.0591    1.4429 H   0  0  0  0  0  0  0  0  0  0  0  0
  1  2  1  0
  2  3  1  0
  3  4  1  0
  4  5  2  0
  4  6  1  0
  6  7  1  0
  7  8  1  0
  8  9  1  0
  9 10  1  0
 10 11  1  0
 11 12  2  0
 11 13  1  0
 13 14  1  0
 14 15  1  0
 15 16  2  0
 16 17  1  0
 17 18  2  0
 18 19  1  0
 18 20  1  0
 20 21  2  0
 13 22  1  0
 22 23  1  0
 23 24  2  0
 23 25  1  0
 25 26  1  0
 26 27  1  0
 27 28  1  0
 28 29  1  0
 29 30  1  0
 30 31  2  0
 30 32  1  0
 32 33  1  0
 33 34  1  0
 34 35  2  0
 35 36  1  0
 36 37  2  0
 37 38  1  0
 38 39  2  0
 32 40  1  0
 40 41  1  0
 41 42  2  0
 41 43  1  0
 43 44  1  0
 44 45  1  0
 45 46  1  0
 45 47  2  0
 43 48  1  0
 48 49  1  0
 49 50  2  0
 49 51  1  0
 51 52  1  0
 52 53  1  0
 53 54  2  0
 54 55  1  0
 55 56  2  0
 56 57  1  0
 57 58  2  0
 51 59  1  0
 59 60  1  0
 60 61  2  0
 60 62  1  0
 62 63  1  0
 63 64  1  0
 64 65  2  0
 65 66  1  0
 66 67  2  0
 67 68  1  0
 68 69  2  0
  2 70  1  0
 70 71  1  0
 70 72  2  0
 10  6  1  0
 21 15  1  0
 29 25  1  0
 39 34  1  0
 58 53  1  0
 69 64  1  0
  1 73  1  0
  1 74  1  0
  1 75  1  0
  2 76  1  1
  3 77  1  0
  6 78  1  6
  7 79  1  0
  7 80  1  0
  8 81  1  0
  8 82  1  0
  9 83  1  0
  9 84  1  0
 13 85  1  6
 14 86  1  0
 14 87  1  0
 16 88  1  0
 17 89  1  0
 19 90  1  0
 20 91  1  0
 21 92  1  0
 22 93  1  0
 25 94  1  1
 26 95  1  0
 26 96  1  0
 27 97  1  0
 27 98  1  0
 28 99  1  0
 28100  1  0
 32101  1  1
 33102  1  0
 33103  1  0
 35104  1  0
 36105  1  0
 37106  1  0
 38107  1  0
 39108  1  0
 40109  1  0
 43110  1  6
 44111  1  0
 44112  1  0
 46113  1  0
 48114  1  0
 51115  1  1
 52116  1  0
 52117  1  0
 54118  1  0
 55119  1  0
 56120  1  0
 57121  1  0
 58122  1  0
 59123  1  0
 63124  1  0
 63125  1  0
 65126  1  0
 66127  1  0
 67128  1  0
 68129  1  0
 69130  1  0
 71131  1  0
 71132  1  0
M  END
$$$$
[H]c1nc(N([H])c2c([H])c([H])c(N3C([H])([H])C([H])([H])C([H])([H])C3([H])[H])c([H])c2OC([H])([H])[H])nc(N([H])c2c([H])c([H])c([H])c([H])c2S(=O)(=O)C(F)(F)F)c1Cl
     RDKit          3D

 56 59  0  0  0  0  0  0  0  0999 V2000
    2.1129    2.1372    3.0001 C   0  0  0  0  0  0  0  0  0  0  0  0
    1.5499    1.3555    1.9841 O   0  0  0  0  0  0  0  0  0  0  0  0
    2.2726    0.6882    1.0069 C   0  0  0  0  0  0  0  0  0  0  0  0
    3.6522    0.7467    0.9592 C   0  0  0  0  0  0  0  0  0  0  0  0
    4.3877    0.0903   -0.0061 C   0  0  0  0  0  0  0  0  0  0  0  0
    3.6728   -0.6315   -0.9262 C   0  0  0  0  0  0  0  0  0  0  0  0
    2.2691   -0.7017   -0.8915 C   0  0  0  0  0  0  0  0  0  0  0  0
    1.5435   -0.0584    0.0551 C   0  0  0  0  0  0  0  0  0  0  0  0
    0.1362   -0.0709    0.1935 N   0  0  0  0  0  0  0  0  0  0  0  0
   -0.8146   -0.7057   -0.6229 C   0  0  0  0  0  0  0  0  0  0  0  0
   -0.5643   -1.4280   -1.7183 N   0  0  0  0  0  0  0  0  0  0  0  0
   -1.4909   -2.0250   -2.4629 C   0  0  0  0  0  0  0  0  0  0  0  0
   -2.8171   -1.9239   -2.1266 C   0  0  0  0  0  0  0  0  0  0  0  0
   -4.0869   -2.6829   -3.0598 Cl  0  0  0  0  0  0  0  0  0  0  0  0
   -3.1085   -1.1629   -0.9684 C   0  0  0  0  0  0  0  0  0  0  0  0
   -4.4729   -1.0511   -0.6457 N   0  0  0  0  0  0  0  0  0  0  0  0
   -4.9932   -0.3849    0.4589 C   0  0  0  0  0  0  0  0  0  0  0  0
   -4.2824   -0.0569    1.5925 C   0  0  0  0  0  0  0  0  0  0  0  0
   -4.8607    0.5234    2.7345 C   0  0  0  0  0  0  0  0  0  0  0  0
   -6.2007    0.7807    2.7329 C   0  0  0  0  0  0  0  0  0  0  0  0
   -6.9382    0.4740    1.6363 C   0  0  0  0  0  0  0  0  0  0  0  0
   -6.3638   -0.1038    0.4934 C   0  0  0  0  0  0  0  0  0  0  0  0
   -7.3527   -0.3668   -0.8920 S   0  0  0  0  0  0  0  0  0  0  0  0
   -7.4464   -1.8009   -1.3354 O   0  0  0  0  0  0  0  0  0  0  0  0
   -8.8170   -0.0415   -0.5002 O   0  0  0  0  0  0  0  0  0  0  0  0
   -7.0006    0.7498   -2.2183 C   0  0  0  0  0  0  0  0  0  0  0  0
   -5.7458    0.7377   -2.7125 F   0  0  0  0  0  0  0  0  0  0  0  0
   -7.2399    2.0744   -1.8047 F   0  0  0  0  0  0  0  0  0  0  0  0
   -7.9127    0.4680   -3.2331 F   0  0  0  0  0  0  0  0  0  0  0  0
   -2.1076   -0.6024   -0.2887 N   0  0  0  0  0  0  0  0  0  0  0  0
    5.8149    0.1635   -0.0426 N   0  0  0  0  0  0  0  0  0  0  0  0
    6.6511   -0.5648   -0.9732 C   0  0  0  0  0  0  0  0  0  0  0  0
    8.0517   -0.4580   -0.4944 C   0  0  0  0  0  0  0  0  0  0  0  0
    7.9366    0.1186    0.8862 C   0  0  0  0  0  0  0  0  0  0  0  0
    6.6837    0.9507    0.8062 C   0  0  0  0  0  0  0  0  0  0  0  0
    3.1172    2.5187    2.8201 H   0  0  0  0  0  0  0  0  0  0  0  0
    1.4827    3.0505    3.2121 H   0  0  0  0  0  0  0  0  0  0  0  0
    2.1411    1.6088    3.9800 H   0  0  0  0  0  0  0  0  0  0  0  0
    4.2228    1.3184    1.6913 H   0  0  0  0  0  0  0  0  0  0  0  0
    4.2297   -1.1583   -1.6969 H   0  0  0  0  0  0  0  0  0  0  0  0
    1.7843   -1.2849   -1.6421 H   0  0  0  0  0  0  0  0  0  0  0  0
   -0.2946    0.4651    1.0209 H   0  0  0  0  0  0  0  0  0  0  0  0
   -1.2087   -2.6011   -3.3480 H   0  0  0  0  0  0  0  0  0  0  0  0
   -5.1518   -1.5379   -1.2721 H   0  0  0  0  0  0  0  0  0  0  0  0
   -3.2221   -0.2453    1.6785 H   0  0  0  0  0  0  0  0  0  0  0  0
   -4.2588    0.7588    3.5923 H   0  0  0  0  0  0  0  0  0  0  0  0
   -6.6837    1.2275    3.5963 H   0  0  0  0  0  0  0  0  0  0  0  0
   -8.0108    0.6714    1.6162 H   0  0  0  0  0  0  0  0  0  0  0  0
    6.5001   -0.2628   -2.0250 H   0  0  0  0  0  0  0  0  0  0  0  0
    6.3458   -1.6466   -0.9293 H   0  0  0  0  0  0  0  0  0  0  0  0
    8.6117    0.1947   -1.1935 H   0  0  0  0  0  0  0  0  0  0  0  0
    8.5302   -1.4612   -0.4248 H   0  0  0  0  0  0  0  0  0  0  0  0
    8.7775    0.8374    1.0741 H   0  0  0  0  0  0  0  0  0  0  0  0
    7.8878   -0.6483    1.6844 H   0  0  0  0  0  0  0  0  0  0  0  0
    6.8530    1.9734    0.4362 H   0  0  0  0  0  0  0  0  0  0  0  0
    6.2284    0.9849    1.8400 H   0  0  0  0  0  0  0  0  0  0  0  0
  1  2  1  0
  2  3  1  0
  3  4  2  0
  4  5  1  0
  5  6  2  0
  6  7  1  0
  7  8  2  0
  8  9  1  0
  9 10  1  0
 10 11  2  0
 11 12  1  0
 12 13  2  0
 13 14  1  0
 13 15  1  0
 15 16  1  0
 16 17  1  0
 17 18  2  0
 18 19  1  0
 19 20  2  0
 20 21  1  0
 21 22  2  0
 22 23  1  0
 23 24  2  0
 23 25  2  0
 23 26  1  0
 26 27  1  0
 26 28  1  0
 26 29  1  0
 15 30  2  0
  5 31  1  0
 31 32  1  0
 32 33  1  0
 33 34  1  0
 34 35  1  0
  8  3  1  0
 30 10  1  0
 35 31  1  0
 22 17  1  0
  1 36  1  0
  1 37  1  0
  1 38  1  0
  4 39  1  0
  6 40  1  0
  7 41  1  0
  9 42  1  0
 12 43  1  0
 16 44  1  0
 18 45  1  0
 19 46  1  0
 20 47  1  0
 21 48  1  0
 32 49  1  0
 32 50  1  0
 33 51  1  0
 33 52  1  0
 34 53  1  0
 34 54  1  0
 35 55  1  0
 35 56  1  0
M  END
$$$$
[H]c1nc(-c2c([H])c([H])c([H])c(C(F)(F)F)c2[H])c([H])c(N([H])C(=O)c2c([H])c([H])c([H])c(C(F)(F)F)c2[H])n1
     RDKit          3D

 40 42  0  0  0  0  0  0  0  0999 V2000
   -8.3667   -0.3228   -0.0031 F   0  0  0  0  0  0  0  0  0  0  0  0
   -7.1789   -0.5425    0.6232 C   0  0  0  0  0  0  0  0  0  0  0  0
   -7.0468    0.1298    1.8265 F   0  0  0  0  0  0  0  0  0  0  0  0
   -7.0260   -1.9357    0.9607 F   0  0  0  0  0  0  0  0  0  0  0  0
   -6.0167   -0.2342   -0.2734 C   0  0  0  0  0  0  0  0  0  0  0  0
   -6.2055   -0.1380   -1.6039 C   0  0  0  0  0  0  0  0  0  0  0  0
   -5.1772    0.1382   -2.4559 C   0  0  0  0  0  0  0  0  0  0  0  0
   -3.8885    0.3327   -1.9146 C   0  0  0  0  0  0  0  0  0  0  0  0
   -3.6329    0.2583   -0.5955 C   0  0  0  0  0  0  0  0  0  0  0  0
   -4.7380   -0.0383    0.2633 C   0  0  0  0  0  0  0  0  0  0  0  0
   -2.3460    0.4382    0.0576 C   0  0  0  0  0  0  0  0  0  0  0  0
   -1.1373    0.2787   -0.5206 C   0  0  0  0  0  0  0  0  0  0  0  0
    0.0507    0.3847    0.2158 C   0  0  0  0  0  0  0  0  0  0  0  0
    1.3540    0.0399   -0.3104 N   0  0  0  0  0  0  0  0  0  0  0  0
    2.4516    0.2880    0.5051 C   0  0  0  0  0  0  0  0  0  0  0  0
    2.2872    1.0632    1.5232 O   0  0  0  0  0  0  0  0  0  0  0  0
    3.8074   -0.2400    0.4090 C   0  0  0  0  0  0  0  0  0  0  0  0
    3.9756   -1.4629    1.1357 C   0  0  0  0  0  0  0  0  0  0  0  0
    5.1888   -2.0834    1.2343 C   0  0  0  0  0  0  0  0  0  0  0  0
    6.2915   -1.5047    0.6048 C   0  0  0  0  0  0  0  0  0  0  0  0
    6.1435   -0.3112   -0.1143 C   0  0  0  0  0  0  0  0  0  0  0  0
    4.8997    0.2893   -0.1919 C   0  0  0  0  0  0  0  0  0  0  0  0
    7.3914    0.1886   -0.7199 C   0  0  0  0  0  0  0  0  0  0  0  0
    7.8976   -0.8455   -1.4729 F   0  0  0  0  0  0  0  0  0  0  0  0
    8.3169    0.5036    0.2876 F   0  0  0  0  0  0  0  0  0  0  0  0
    7.1629    1.2869   -1.4769 F   0  0  0  0  0  0  0  0  0  0  0  0
   -0.0406    0.6588    1.5276 N   0  0  0  0  0  0  0  0  0  0  0  0
   -1.2211    0.8216    2.1172 C   0  0  0  0  0  0  0  0  0  0  0  0
   -2.3719    0.7042    1.3925 N   0  0  0  0  0  0  0  0  0  0  0  0
   -7.2270   -0.3078   -2.0157 H   0  0  0  0  0  0  0  0  0  0  0  0
   -5.2876    0.2132   -3.5319 H   0  0  0  0  0  0  0  0  0  0  0  0
   -3.1043    0.5448   -2.5996 H   0  0  0  0  0  0  0  0  0  0  0  0
   -4.5623   -0.1134    1.3325 H   0  0  0  0  0  0  0  0  0  0  0  0
   -1.0683    0.0718   -1.5853 H   0  0  0  0  0  0  0  0  0  0  0  0
    1.3534   -0.5282   -1.1783 H   0  0  0  0  0  0  0  0  0  0  0  0
    3.1085   -1.9038    1.6337 H   0  0  0  0  0  0  0  0  0  0  0  0
    5.3005   -3.0329    1.8154 H   0  0  0  0  0  0  0  0  0  0  0  0
    7.2185   -2.0332    0.7031 H   0  0  0  0  0  0  0  0  0  0  0  0
    4.7994    1.2237   -0.7520 H   0  0  0  0  0  0  0  0  0  0  0  0
   -1.3553    1.0422    3.1475 H   0  0  0  0  0  0  0  0  0  0  0  0
  1  2  1  0
  2  3  1  0
  2  4  1  0
  2  5  1  0
  5  6  2  0
  6  7  1  0
  7  8  2  0
  8  9  1  0
  9 10  2  0
  9 11  1  0
 11 12  2  0
 12 13  1  0
 13 14  1  0
 14 15  1  0
 15 16  2  0
 15 17  1  0
 17 18  2  0
 18 19  1  0
 19 20  2  0
 20 21  1  0
 21 22  2  0
 21 23  1  0
 23 24  1  0
 23 25  1  0
 23 26  1  0
 13 27  2  0
 27 28  1  0
 28 29  2  0
 10  5  1  0
 29 11  1  0
 22 17  1  0
  6 30  1  0
  7 31  1  0
  8 32  1  0
 10 33  1  0
 12 34  1  0
 14 35  1  0
 18 36  1  0
 19 37  1  0
 20 38  1  0
 22 39  1  0
 28 40  1  0
M  END
$$$$
[H]Oc1c([H])c([H])c(C([H])([H])[C@]([H])(C(=O)N([H])[C@]([H])(C(=O)N([H])[H])C([H])([H])C([H])(C([H])([H])[H])C([H])([H])[H])N([H])C(=O)[C@@]2([H])N(C(=O)[C@@]([H])(N([H])[H])C([H])([H])c3c([H])c([H])c([H])c([H])c3[H])C([H])([H])C([H])([H])C2([H])[H])c([H])c1[H]
     RDKit          3D

 78 80  0  0  0  0  0  0  0  0999 V2000
   -4.9686    0.0238   -1.5607 C   0  0  0  0  0  0  0  0  0  0  0  0
   -5.5092    0.9254   -0.4758 C   0  0  0  0  0  0  0  0  0  0  0  0
   -6.5837    1.7831   -1.1382 C   0  0  0  0  0  0  0  0  0  0  0  0
   -4.5283    1.8407    0.1203 C   0  0  0  0  0  0  0  0  0  0  0  0
   -3.3102    1.3067    0.8054 C   0  0  2  0  0  0  0  0  0  0  0  0
   -2.4034    0.5550    0.1084 N   0  0  0  0  0  0  0  0  0  0  0  0
   -1.4926   -0.1970   -0.5946 C   0  0  0  0  0  0  0  0  0  0  0  0
   -0.9874    0.0695   -1.6988 O   0  0  0  0  0  0  0  0  0  0  0  0
   -0.9667   -1.5017   -0.0000 C   0  0  1  0  0  0  0  0  0  0  0  0
   -1.2129   -2.7403   -0.6939 C   0  0  0  0  0  0  0  0  0  0  0  0
   -2.5124   -3.2726   -1.0169 C   0  0  0  0  0  0  0  0  0  0  0  0
   -3.0002   -3.1051   -2.3167 C   0  0  0  0  0  0  0  0  0  0  0  0
   -4.2238   -3.5999   -2.6830 C   0  0  0  0  0  0  0  0  0  0  0  0
   -5.0462   -4.2874   -1.8019 C   0  0  0  0  0  0  0  0  0  0  0  0
   -6.2880   -4.7978   -2.1518 O   0  0  0  0  0  0  0  0  0  0  0  0
   -4.5501   -4.4484   -0.5061 C   0  0  0  0  0  0  0  0  0  0  0  0
   -3.3229   -3.9512   -0.1424 C   0  0  0  0  0  0  0  0  0  0  0  0
    0.5560   -1.2915   -0.0857 N   0  0  0  0  0  0  0  0  0  0  0  0
    1.1291   -0.3995    0.8213 C   0  0  0  0  0  0  0  0  0  0  0  0
    0.3742    0.1931    1.6321 O   0  0  0  0  0  0  0  0  0  0  0  0
    2.5965   -0.1521    0.8234 C   0  0  2  0  0  0  0  0  0  0  0  0
    3.1490   -0.9091    2.0763 C   0  0  0  0  0  0  0  0  0  0  0  0
    2.6929    0.0013    3.2023 C   0  0  0  0  0  0  0  0  0  0  0  0
    2.6948    1.3531    2.5858 C   0  0  0  0  0  0  0  0  0  0  0  0
    2.9605    1.1866    1.1895 N   0  0  0  0  0  0  0  0  0  0  0  0
    3.4747    2.1917    0.3549 C   0  0  0  0  0  0  0  0  0  0  0  0
    3.7526    3.3658    0.9342 O   0  0  0  0  0  0  0  0  0  0  0  0
    3.7680    2.1940   -1.0608 C   0  0  1  0  0  0  0  0  0  0  0  0
    4.2949    3.5258   -1.4661 N   0  0  0  0  0  0  0  0  0  0  0  0
    4.6969    1.2065   -1.6450 C   0  0  0  0  0  0  0  0  0  0  0  0
    6.0635    1.1574   -1.1321 C   0  0  0  0  0  0  0  0  0  0  0  0
    6.3520    0.1719   -0.1742 C   0  0  0  0  0  0  0  0  0  0  0  0
    7.6397    0.0828    0.3574 C   0  0  0  0  0  0  0  0  0  0  0  0
    8.6386    0.9374   -0.0293 C   0  0  0  0  0  0  0  0  0  0  0  0
    8.3467    1.9189   -0.9836 C   0  0  0  0  0  0  0  0  0  0  0  0
    7.0729    1.9921   -1.4964 C   0  0  0  0  0  0  0  0  0  0  0  0
   -3.6752    0.7367    2.1527 C   0  0  0  0  0  0  0  0  0  0  0  0
   -4.4054    1.5380    3.0742 N   0  0  0  0  0  0  0  0  0  0  0  0
   -3.3561   -0.4285    2.5101 O   0  0  0  0  0  0  0  0  0  0  0  0
   -4.2020    0.5141   -2.1827 H   0  0  0  0  0  0  0  0  0  0  0  0
   -5.7942   -0.2944   -2.2283 H   0  0  0  0  0  0  0  0  0  0  0  0
   -4.5328   -0.8593   -1.0196 H   0  0  0  0  0  0  0  0  0  0  0  0
   -6.0760    0.3145    0.2889 H   0  0  0  0  0  0  0  0  0  0  0  0
   -6.0785    2.4801   -1.8435 H   0  0  0  0  0  0  0  0  0  0  0  0
   -7.3112    1.1492   -1.6969 H   0  0  0  0  0  0  0  0  0  0  0  0
   -7.0743    2.3644   -0.3548 H   0  0  0  0  0  0  0  0  0  0  0  0
   -4.1718    2.5313   -0.6986 H   0  0  0  0  0  0  0  0  0  0  0  0
   -5.0734    2.5268    0.8343 H   0  0  0  0  0  0  0  0  0  0  0  0
   -2.7586    2.3061    1.0957 H   0  0  0  0  0  0  0  0  0  0  0  0
   -2.3832    1.4817   -0.9026 H   0  0  0  0  0  0  0  0  0  0  0  0
   -1.1611   -1.4123    1.0629 H   0  0  0  0  0  0  0  0  0  0  0  0
   -0.6813   -3.5654   -0.0650 H   0  0  0  0  0  0  0  0  0  0  0  0
   -0.5242   -2.7674   -1.6115 H   0  0  0  0  0  0  0  0  0  0  0  0
   -2.3743   -2.5648   -3.0215 H   0  0  0  0  0  0  0  0  0  0  0  0
   -4.6315   -3.4773   -3.6955 H   0  0  0  0  0  0  0  0  0  0  0  0
   -6.3771   -5.7339   -2.5319 H   0  0  0  0  0  0  0  0  0  0  0  0
   -5.1642   -4.9747    0.2045 H   0  0  0  0  0  0  0  0  0  0  0  0
   -2.9599   -4.0940    0.8952 H   0  0  0  0  0  0  0  0  0  0  0  0
    1.0751   -1.8063   -0.7896 H   0  0  0  0  0  0  0  0  0  0  0  0
    3.0394   -0.5757   -0.0670 H   0  0  0  0  0  0  0  0  0  0  0  0
    4.2278   -0.9225    1.9746 H   0  0  0  0  0  0  0  0  0  0  0  0
    2.6454   -1.8722    2.2045 H   0  0  0  0  0  0  0  0  0  0  0  0
    1.6840   -0.2892    3.6016 H   0  0  0  0  0  0  0  0  0  0  0  0
    3.4234   -0.0468    4.0759 H   0  0  0  0  0  0  0  0  0  0  0  0
    1.7054    1.8454    2.7694 H   0  0  0  0  0  0  0  0  0  0  0  0
    3.5032    1.9684    3.0737 H   0  0  0  0  0  0  0  0  0  0  0  0
    2.7796    2.0582   -1.6537 H   0  0  0  0  0  0  0  0  0  0  0  0
    4.7999    3.9606   -0.6858 H   0  0  0  0  0  0  0  0  0  0  0  0
    3.5591    4.1132   -1.8913 H   0  0  0  0  0  0  0  0  0  0  0  0
    4.8208    1.5556   -2.7467 H   0  0  0  0  0  0  0  0  0  0  0  0
    4.2339    0.1968   -1.8340 H   0  0  0  0  0  0  0  0  0  0  0  0
    5.6384   -0.5522    0.1744 H   0  0  0  0  0  0  0  0  0  0  0  0
    7.9124   -0.6670    1.0938 H   0  0  0  0  0  0  0  0  0  0  0  0
    9.6657    0.8901    0.3754 H   0  0  0  0  0  0  0  0  0  0  0  0
    9.1365    2.6012   -1.2861 H   0  0  0  0  0  0  0  0  0  0  0  0
    6.8597    2.7558   -2.2261 H   0  0  0  0  0  0  0  0  0  0  0  0
   -3.8533    2.1170    3.7555 H   0  0  0  0  0  0  0  0  0  0  0  0
   -5.4372    1.5695    3.1122 H   0  0  0  0  0  0  0  0  0  0  0  0
  1  2  1  0
  2  3  1  0
  2  4  1  0
  4  5  1  0
  5  6  1  0
  6  7  1  0
  7  8  2  0
  7  9  1  0
  9 10  1  0
 10 11  1  0
 11 12  2  0
 12 13  1  0
 13 14  2  0
 14 15  1  0
 14 16  1  0
 16 17  2  0
  9 18  1  0
 18 19  1  0
 19 20  2  0
 19 21  1  0
 21 22  1  0
 22 23  1  0
 23 24  1  0
 24 25  1  0
 25 26  1  0
 26 27  2  0
 26 28  1  0
 28 29  1  0
 28 30  1  0
 30 31  1  0
 31 32  2  0
 32 33  1  0
 33 34  2  0
 34 35  1  0
 35 36  2  0
  5 37  1  0
 37 38  1  0
 37 39  2  0
 17 11  1  0
 25 21  1  0
 36 31  1  0
  1 40  1  0
  1 41  1  0
  1 42  1  0
  2 43  1  0
  3 44  1  0
  3 45  1  0
  3 46  1  0
  4 47  1  0
  4 48  1  0
  5 49  1  1
  6 50  1  0
  9 51  1  1
 10 52  1  0
 10 53  1  0
 12 54  1  0
 13 55  1  0
 15 56  1  0
 16 57  1  0
 17 58  1  0
 18 59  1  0
 21 60  1  6
 22 61  1  0
 22 62  1  0
 23 63  1  0
 23 64  1  0
 24 65  1  0
 24 66  1  0
 28 67  1  6
 29 68  1  0
 29 69  1  0
 30 70  1  0
 30 71  1  0
 32 72  1  0
 33 73  1  0
 34 74  1  0
 35 75  1  0
 36 76  1  0
 38 77  1  0
 38 78  1  0
M  END
$$$$
[H]c1nc(N([H])c2c([H])c([H])c(F)c(C(F)(F)F)c2[H])c2c([H])c(OC([H])([H])C([H])([H])C([H])([H])N3C([H])([H])C([H])([H])C([H])([H])C([H])([H])C3([H])[H])c(OC([H])([H])[H])c([H])c2n1
     RDKit          3D

 60 63  0  0  0  0  0  0  0  0999 V2000
   -0.5172   -4.7194   -3.9399 C   0  0  0  0  0  0  0  0  0  0  0  0
   -0.6802   -3.5314   -3.2255 O   0  0  0  0  0  0  0  0  0  0  0  0
    0.3279   -2.8283   -2.6149 C   0  0  0  0  0  0  0  0  0  0  0  0
    1.6447   -3.1962   -2.6209 C   0  0  0  0  0  0  0  0  0  0  0  0
    2.6407   -2.4824   -2.0057 C   0  0  0  0  0  0  0  0  0  0  0  0
    3.9264   -2.8866   -2.0363 N   0  0  0  0  0  0  0  0  0  0  0  0
    4.9089   -2.1989   -1.4369 C   0  0  0  0  0  0  0  0  0  0  0  0
    4.5827   -1.0808   -0.7946 N   0  0  0  0  0  0  0  0  0  0  0  0
    3.3068   -0.6080   -0.7196 C   0  0  0  0  0  0  0  0  0  0  0  0
    3.0227    0.6060   -0.0599 N   0  0  0  0  0  0  0  0  0  0  0  0
    3.9951    1.3609    0.6314 C   0  0  0  0  0  0  0  0  0  0  0  0
    3.8587    2.7563    0.6451 C   0  0  0  0  0  0  0  0  0  0  0  0
    4.7206    3.5703    1.3103 C   0  0  0  0  0  0  0  0  0  0  0  0
    5.7685    3.0197    1.9989 C   0  0  0  0  0  0  0  0  0  0  0  0
    6.6640    3.7909    2.6836 F   0  0  0  0  0  0  0  0  0  0  0  0
    5.9181    1.6649    1.9982 C   0  0  0  0  0  0  0  0  0  0  0  0
    5.0292    0.8150    1.3120 C   0  0  0  0  0  0  0  0  0  0  0  0
    7.0506    1.0462    2.7404 C   0  0  0  0  0  0  0  0  0  0  0  0
    8.2317    1.5266    2.2218 F   0  0  0  0  0  0  0  0  0  0  0  0
    6.8912    1.4426    4.0722 F   0  0  0  0  0  0  0  0  0  0  0  0
    6.9443   -0.3087    2.7039 F   0  0  0  0  0  0  0  0  0  0  0  0
    2.2843   -1.3116   -1.3355 C   0  0  0  0  0  0  0  0  0  0  0  0
    0.9651   -0.9211   -1.3161 C   0  0  0  0  0  0  0  0  0  0  0  0
   -0.0518   -1.6493   -1.9428 C   0  0  0  0  0  0  0  0  0  0  0  0
   -1.3543   -1.2623   -1.9187 O   0  0  0  0  0  0  0  0  0  0  0  0
   -2.0587   -0.2486   -1.3698 C   0  0  0  0  0  0  0  0  0  0  0  0
   -2.1170   -0.1302    0.1198 C   0  0  0  0  0  0  0  0  0  0  0  0
   -2.9423    1.0502    0.5730 C   0  0  0  0  0  0  0  0  0  0  0  0
   -4.3058    1.0303    0.1499 N   0  0  0  0  0  0  0  0  0  0  0  0
   -4.9293    2.2405    0.6719 C   0  0  0  0  0  0  0  0  0  0  0  0
   -6.4147    2.0636    0.8708 C   0  0  0  0  0  0  0  0  0  0  0  0
   -6.5931    1.1902    2.0928 C   0  0  0  0  0  0  0  0  0  0  0  0
   -5.5103    0.1394    2.0386 C   0  0  0  0  0  0  0  0  0  0  0  0
   -5.0681   -0.0943    0.5900 C   0  0  0  0  0  0  0  0  0  0  0  0
    0.1049   -4.5132   -4.8188 H   0  0  0  0  0  0  0  0  0  0  0  0
   -0.1124   -5.5237   -3.2824 H   0  0  0  0  0  0  0  0  0  0  0  0
   -1.5510   -5.0688   -4.2244 H   0  0  0  0  0  0  0  0  0  0  0  0
    1.9556   -4.1035   -3.1348 H   0  0  0  0  0  0  0  0  0  0  0  0
    5.9441   -2.5140   -1.4550 H   0  0  0  0  0  0  0  0  0  0  0  0
    2.0186    0.9902   -0.0803 H   0  0  0  0  0  0  0  0  0  0  0  0
    3.0303    3.1673    0.0988 H   0  0  0  0  0  0  0  0  0  0  0  0
    4.6077    4.6422    1.3152 H   0  0  0  0  0  0  0  0  0  0  0  0
    5.1830   -0.2518    1.3648 H   0  0  0  0  0  0  0  0  0  0  0  0
    0.7125   -0.0148   -0.8113 H   0  0  0  0  0  0  0  0  0  0  0  0
   -1.7862    0.7479   -1.8342 H   0  0  0  0  0  0  0  0  0  0  0  0
   -3.1483   -0.3545   -1.6935 H   0  0  0  0  0  0  0  0  0  0  0  0
   -2.5046   -1.0679    0.6019 H   0  0  0  0  0  0  0  0  0  0  0  0
   -1.1104    0.0059    0.5278 H   0  0  0  0  0  0  0  0  0  0  0  0
   -2.9325    1.0459    1.6951 H   0  0  0  0  0  0  0  0  0  0  0  0
   -2.4407    1.9585    0.2360 H   0  0  0  0  0  0  0  0  0  0  0  0
   -4.4846    2.4050    1.6849 H   0  0  0  0  0  0  0  0  0  0  0  0
   -4.7260    3.0889   -0.0192 H   0  0  0  0  0  0  0  0  0  0  0  0
   -6.9158    1.6144    0.0075 H   0  0  0  0  0  0  0  0  0  0  0  0
   -6.8705    3.0514    1.0592 H   0  0  0  0  0  0  0  0  0  0  0  0
   -6.4600    1.7822    3.0002 H   0  0  0  0  0  0  0  0  0  0  0  0
   -7.5724    0.6808    2.0314 H   0  0  0  0  0  0  0  0  0  0  0  0
   -4.6495    0.4893    2.6405 H   0  0  0  0  0  0  0  0  0  0  0  0
   -5.9072   -0.8265    2.4345 H   0  0  0  0  0  0  0  0  0  0  0  0
   -4.5310   -1.0488    0.5947 H   0  0  0  0  0  0  0  0  0  0  0  0
   -5.9932   -0.2378   -0.0258 H   0  0  0  0  0  0  0  0  0  0  0  0
  1  2  1  0
  2  3  1  0
  3  4  2  0
  4  5  1  0
  5  6  2  0
  6  7  1  0
  7  8  2  0
  8  9  1  0
  9 10  1  0
 10 11  1  0
 11 12  2  0
 12 13  1  0
 13 14  2  0
 14 15  1  0
 14 16  1  0
 16 17  2  0
 16 18  1  0
 18 19  1  0
 18 20  1  0
 18 21  1  0
  9 22  2  0
 22 23  1  0
 23 24  2  0
 24 25  1  0
 25 26  1  0
 26 27  1  0
 27 28  1  0
 28 29  1  0
 29 30  1  0
 30 31  1  0
 31 32  1  0
 32 33  1  0
 33 34  1  0
 24  3  1  0
 34 29  1  0
 22  5  1  0
 17 11  1  0
  1 35  1  0
  1 36  1  0
  1 37  1  0
  4 38  1  0
  7 39  1  0
 10 40  1  0
 12 41  1  0
 13 42  1  0
 17 43  1  0
 23 44  1  0
 26 45  1  0
 26 46  1  0
 27 47  1  0
 27 48  1  0
 28 49  1  0
 28 50  1  0
 30 51  1  0
 30 52  1  0
 31 53  1  0
 31 54  1  0
 32 55  1  0
 32 56  1  0
 33 57  1  0
 33 58  1  0
 34 59  1  0
 34 60  1  0
M  END
$$$$
[H]c1c(N([H])C(=O)c2c([H])c([H])c(N3C([H])([H])C([H])([H])N(C([H])([H])[H])C([H])([H])C3([H])[H])c([H])c2[H])nc(C(F)(F)F)nc1N1C([H])([H])C([H])([H])OC([H])([H])C1([H])[H]
     RDKit          3D

 57 60  0  0  0  0  0  0  0  0999 V2000
   -8.5366    1.5377    0.2779 C   0  0  0  0  0  0  0  0  0  0  0  0
   -7.6829    0.5180   -0.3240 N   0  0  0  0  0  0  0  0  0  0  0  0
   -6.4762    1.1815   -0.7264 C   0  0  0  0  0  0  0  0  0  0  0  0
   -5.3360    0.9723    0.2158 C   0  0  0  0  0  0  0  0  0  0  0  0
   -5.0803   -0.4769    0.2770 N   0  0  0  0  0  0  0  0  0  0  0  0
   -6.1937   -1.3486    0.3280 C   0  0  0  0  0  0  0  0  0  0  0  0
   -7.4520   -0.5516    0.6249 C   0  0  0  0  0  0  0  0  0  0  0  0
   -3.7136   -0.8161    0.2765 C   0  0  0  0  0  0  0  0  0  0  0  0
   -2.9044   -0.3620    1.3264 C   0  0  0  0  0  0  0  0  0  0  0  0
   -1.5295   -0.5643    1.2718 C   0  0  0  0  0  0  0  0  0  0  0  0
   -1.0296   -1.2056    0.2051 C   0  0  0  0  0  0  0  0  0  0  0  0
   -1.8052   -1.6908   -0.8703 C   0  0  0  0  0  0  0  0  0  0  0  0
   -3.1704   -1.4655   -0.7965 C   0  0  0  0  0  0  0  0  0  0  0  0
    0.4098   -1.3909    0.0284 C   0  0  0  0  0  0  0  0  0  0  0  0
    0.7469   -2.4765   -0.5968 O   0  0  0  0  0  0  0  0  0  0  0  0
    1.3610   -0.4870    0.4620 N   0  0  0  0  0  0  0  0  0  0  0  0
    2.7037   -0.6173   -0.0036 C   0  0  0  0  0  0  0  0  0  0  0  0
    3.6883    0.2484    0.2771 C   0  0  0  0  0  0  0  0  0  0  0  0
    4.9650    0.1083   -0.2493 C   0  0  0  0  0  0  0  0  0  0  0  0
    5.1934   -0.9408   -1.0725 N   0  0  0  0  0  0  0  0  0  0  0  0
    4.1746   -1.8123   -1.3484 C   0  0  0  0  0  0  0  0  0  0  0  0
    2.9657   -1.6593   -0.8362 N   0  0  0  0  0  0  0  0  0  0  0  0
    4.4827   -2.9591   -2.2747 C   0  0  0  0  0  0  0  0  0  0  0  0
    3.4169   -3.8434   -2.1777 F   0  0  0  0  0  0  0  0  0  0  0  0
    5.6085   -3.5985   -1.8986 F   0  0  0  0  0  0  0  0  0  0  0  0
    4.4958   -2.5252   -3.5748 F   0  0  0  0  0  0  0  0  0  0  0  0
    6.0045    0.9561    0.2224 N   0  0  0  0  0  0  0  0  0  0  0  0
    6.4892    0.5518    1.5885 C   0  0  0  0  0  0  0  0  0  0  0  0
    7.0212    1.7196    2.3275 C   0  0  0  0  0  0  0  0  0  0  0  0
    7.9495    2.4538    1.6466 O   0  0  0  0  0  0  0  0  0  0  0  0
    8.0068    2.2078    0.2857 C   0  0  0  0  0  0  0  0  0  0  0  0
    6.6422    2.0583   -0.3699 C   0  0  0  0  0  0  0  0  0  0  0  0
   -9.4067    1.0927    0.7799 H   0  0  0  0  0  0  0  0  0  0  0  0
   -7.9600    2.2070    0.9544 H   0  0  0  0  0  0  0  0  0  0  0  0
   -8.8625    2.1902   -0.5787 H   0  0  0  0  0  0  0  0  0  0  0  0
   -6.1848    0.8242   -1.7268 H   0  0  0  0  0  0  0  0  0  0  0  0
   -6.6222    2.2970   -0.8165 H   0  0  0  0  0  0  0  0  0  0  0  0
   -4.4298    1.4159   -0.3039 H   0  0  0  0  0  0  0  0  0  0  0  0
   -5.4413    1.3211    1.2308 H   0  0  0  0  0  0  0  0  0  0  0  0
   -6.3936   -1.9505   -0.5641 H   0  0  0  0  0  0  0  0  0  0  0  0
   -6.1003   -2.0542    1.2080 H   0  0  0  0  0  0  0  0  0  0  0  0
   -8.3354   -1.2174    0.5592 H   0  0  0  0  0  0  0  0  0  0  0  0
   -7.3954   -0.1678    1.6642 H   0  0  0  0  0  0  0  0  0  0  0  0
   -3.3781    0.1301    2.1245 H   0  0  0  0  0  0  0  0  0  0  0  0
   -0.8727   -0.2028    2.0623 H   0  0  0  0  0  0  0  0  0  0  0  0
   -1.3397   -2.1797   -1.7110 H   0  0  0  0  0  0  0  0  0  0  0  0
   -3.7860   -1.8358   -1.6224 H   0  0  0  0  0  0  0  0  0  0  0  0
    1.1213    0.3662    0.9988 H   0  0  0  0  0  0  0  0  0  0  0  0
    3.4941    1.0943    0.9229 H   0  0  0  0  0  0  0  0  0  0  0  0
    7.1682   -0.2721    1.4131 H   0  0  0  0  0  0  0  0  0  0  0  0
    5.5356    0.2279    2.1077 H   0  0  0  0  0  0  0  0  0  0  0  0
    6.1774    2.3667    2.6464 H   0  0  0  0  0  0  0  0  0  0  0  0
    7.4843    1.3168    3.2770 H   0  0  0  0  0  0  0  0  0  0  0  0
    8.5130    3.0803   -0.1672 H   0  0  0  0  0  0  0  0  0  0  0  0
    8.6376    1.3129    0.0592 H   0  0  0  0  0  0  0  0  0  0  0  0
    6.8525    1.8936   -1.4485 H   0  0  0  0  0  0  0  0  0  0  0  0
    6.1094    3.0217   -0.2215 H   0  0  0  0  0  0  0  0  0  0  0  0
  1  2  1  0
  2  3  1  0
  3  4  1  0
  4  5  1  0
  5  6  1  0
  6  7  1  0
  5  8  1  0
  8  9  2  0
  9 10  1  0
 10 11  2  0
 11 12  1  0
 12 13  2  0
 11 14  1  0
 14 15  2  0
 14 16  1  0
 16 17  1  0
 17 18  2  0
 18 19  1  0
 19 20  2  0
 20 21  1  0
 21 22  2  0
 21 23  1  0
 23 24  1  0
 23 25  1  0
 23 26  1  0
 19 27  1  0
 27 28  1  0
 28 29  1  0
 29 30  1  0
 30 31  1  0
 31 32  1  0
  7  2  1  0
 13  8  1  0
 22 17  1  0
 32 27  1  0
  1 33  1  0
  1 34  1  0
  1 35  1  0
  3 36  1  0
  3 37  1  0
  4 38  1  0
  4 39  1  0
  6 40  1  0
  6 41  1  0
  7 42  1  0
  7 43  1  0
  9 44  1  0
 10 45  1  0
 12 46  1  0
 13 47  1  0
 16 48  1  0
 18 49  1  0
 28 50  1  0
 28 51  1  0
 29 52  1  0
 29 53  1  0
 31 54  1  0
 31 55  1  0
 32 56  1  0
 32 57  1  0
M  END
$$$$
[H]N([H])[C@]([H])(C(=O)N([H])[C@]1([H])C([H])([H])C([H])([H])[C@@]([H])(N2C(=O)N([H])[C@]3([H])C([H])([H])C([H])([H])[C@]2([H])C3([H])[H])C([H])([H])C1([H])[H])C([H])([H])C([H])(C([H])([H])[H])C([H])([H])[H]
     RDKit          2D

 56 58  0  0  0  0  0  0  0  0999 V2000
  -13.1003    2.1586    0.0000 C   0  0  0  0  0  0  0  0  0  0  0  0
  -12.2615    0.9150    0.0000 C   0  0  0  0  0  0  0  0  0  0  0  0
  -13.5050    0.0762    0.0000 C   0  0  0  0  0  0  0  0  0  0  0  0
  -11.0179    1.7538    0.0000 C   0  0  0  0  0  0  0  0  0  0  0  0
   -9.7744    2.5926    0.0000 C   0  0  0  0  0  0  0  0  0  0  0  0
  -10.6132    3.8362    0.0000 N   0  0  0  0  0  0  0  0  0  0  0  0
   -8.9356    1.3490    0.0000 C   0  0  0  0  0  0  0  0  0  0  0  0
   -9.4239   -0.0692    0.0000 O   0  0  0  0  0  0  0  0  0  0  0  0
   -7.4392    1.4537    0.0000 N   0  0  0  0  0  0  0  0  0  0  0  0
   -6.6004    0.2101    0.0000 C   0  0  0  0  0  0  0  0  0  0  0  0
   -5.5214    1.2521    0.0000 C   0  0  0  0  0  0  0  0  0  0  0  0
   -4.0795    0.8387    0.0000 C   0  0  0  0  0  0  0  0  0  0  0  0
   -3.7167   -0.6168    0.0000 C   0  0  0  0  0  0  0  0  0  0  0  0
   -4.7957   -1.6588    0.0000 C   0  0  0  0  0  0  0  0  0  0  0  0
   -6.2376   -1.2453    0.0000 C   0  0  0  0  0  0  0  0  0  0  0  0
   -2.3463   -0.0067    0.0000 N   0  0  0  0  0  0  0  0  0  0  0  0
   -2.1895    1.4851    0.0000 C   0  0  0  0  0  0  0  0  0  0  0  0
   -3.1768    2.4058    0.0000 O   0  0  0  0  0  0  0  0  0  0  0  0
   -0.8192    2.0952    0.0000 N   0  0  0  0  0  0  0  0  0  0  0  0
    0.3943    1.2135    0.0000 C   0  0  0  0  0  0  0  0  0  0  0  0
    1.2760    0.0000    0.0000 C   0  0  0  0  0  0  0  0  0  0  0  0
    0.3943   -1.2135    0.0000 C   0  0  0  0  0  0  0  0  0  0  0  0
   -1.0323   -0.7500    0.0000 C   0  0  0  0  0  0  0  0  0  0  0  0
   -1.0323    0.7500    0.0000 C   0  0  0  0  0  0  0  0  0  0  0  0
  -13.8895    1.7565    0.0000 H   0  0  0  0  0  0  0  0  0  0  0  0
  -12.4418    2.8900    0.0000 H   0  0  0  0  0  0  0  0  0  0  0  0
  -13.9391    3.4021    0.0000 H   0  0  0  0  0  0  0  0  0  0  0  0
  -11.4227   -0.3285    0.0000 H   0  0  0  0  0  0  0  0  0  0  0  0
  -14.0861    0.7447    0.0000 H   0  0  0  0  0  0  0  0  0  0  0  0
  -12.6662   -1.1673    0.0000 H   0  0  0  0  0  0  0  0  0  0  0  0
  -14.7486   -0.7626    0.0000 H   0  0  0  0  0  0  0  0  0  0  0  0
  -11.5683    2.5697    0.0000 H   0  0  0  0  0  0  0  0  0  0  0  0
  -10.3370    0.4173    0.0000 H   0  0  0  0  0  0  0  0  0  0  0  0
   -8.5308    3.4314    0.0000 H   0  0  0  0  0  0  0  0  0  0  0  0
   -9.9556    5.1843    0.0000 H   0  0  0  0  0  0  0  0  0  0  0  0
  -12.0904    4.0967    0.0000 H   0  0  0  0  0  0  0  0  0  0  0  0
   -7.1188    2.3842    0.0000 H   0  0  0  0  0  0  0  0  0  0  0  0
   -7.9708   -0.4000    0.0000 H   0  0  0  0  0  0  0  0  0  0  0  0
   -6.2412    1.9233    0.0000 H   0  0  0  0  0  0  0  0  0  0  0  0
   -4.9296    2.4655    0.0000 H   0  0  0  0  0  0  0  0  0  0  0  0
   -4.1008    2.0535    0.0000 H   0  0  0  0  0  0  0  0  0  0  0  0
   -2.7201    1.4727    0.0000 H   0  0  0  0  0  0  0  0  0  0  0  0
   -3.0357   -1.9533    0.0000 H   0  0  0  0  0  0  0  0  0  0  0  0
   -3.5821   -2.5405    0.0000 H   0  0  0  0  0  0  0  0  0  0  0  0
   -5.4532   -3.0070    0.0000 H   0  0  0  0  0  0  0  0  0  0  0  0
   -6.3944   -2.7371    0.0000 H   0  0  0  0  0  0  0  0  0  0  0  0
   -7.7339   -1.3500    0.0000 H   0  0  0  0  0  0  0  0  0  0  0  0
   -0.6624    3.5870    0.0000 H   0  0  0  0  0  0  0  0  0  0  0  0
    0.8578    2.6401    0.0000 H   0  0  0  0  0  0  0  0  0  0  0  0
    2.3907    1.0037    0.0000 H   0  0  0  0  0  0  0  0  0  0  0  0
    2.3907   -1.0037    0.0000 H   0  0  0  0  0  0  0  0  0  0  0  0
    1.6933   -1.9635    0.0000 H   0  0  0  0  0  0  0  0  0  0  0  0
   -0.2158   -2.5838    0.0000 H   0  0  0  0  0  0  0  0  0  0  0  0
   -2.1293   -1.7730    0.0000 H   0  0  0  0  0  0  0  0  0  0  0  0
   -2.4811    1.1383    0.0000 H   0  0  0  0  0  0  0  0  0  0  0  0
   -1.6899    2.0982    0.0000 H   0  0  0  0  0  0  0  0  0  0  0  0
  1  2  1  0
  2  3  1  0
  2  4  1  0
  4  5  1  0
  5  6  1  0
  5  7  1  0
  7  8  2  0
  7  9  1  0
  9 10  1  0
 10 11  1  0
 11 12  1  0
 12 13  1  0
 13 14  1  0
 14 15  1  0
 13 16  1  0
 16 17  1  0
 17 18  2  0
 17 19  1  0
 19 20  1  0
 20 21  1  0
 21 22  1  0
 22 23  1  0
 23 24  1  0
 15 10  1  0
 23 16  1  0
 24 20  1  0
  1 25  1  0
  1 26  1  0
  1 27  1  0
  2 28  1  0
  3 29  1  0
  3 30  1  0
  3 31  1  0
  4 32  1  0
  4 33  1  0
  5 34  1  1
  6 35  1  0
  6 36  1  0
  9 37  1  0
 10 38  1  6
 11 39  1  0
 11 40  1  0
 12 41  1  0
 12 42  1  0
 13 43  1  1
 14 44  1  0
 14 45  1  0
 15 46  1  0
 15 47  1  0
 19 48  1  0
 20 49  1  1
 21 50  1  0
 21 51  1  0
 22 52  1  0
 22 53  1  0
 23 54  1  6
 24 55  1  0
 24 56  1  0
M  END
$$$$
[H]c1c([H])c(C(F)(F)F)c([H])c([H])c1N1C([H])([H])C([H])([H])N(C(=O)[C@]2([H])C([H])([H])C([H])([H])[C@@]([H])(N3C([H])([H])C([H])([H])C([H])([H])C3([H])[H])C([H])([H])C2([H])[H])C([H])([H])C1([H])[H]
     RDKit          3D

 59 62  0  0  0  0  0  0  0  0999 V2000
    9.8566   -0.6707    0.4269 F   0  0  0  0  0  0  0  0  0  0  0  0
    8.9299   -0.1207    1.2790 C   0  0  0  0  0  0  0  0  0  0  0  0
    9.3599    1.1920    1.5070 F   0  0  0  0  0  0  0  0  0  0  0  0
    8.9168   -0.8388    2.4562 F   0  0  0  0  0  0  0  0  0  0  0  0
    7.5937   -0.1275    0.6454 C   0  0  0  0  0  0  0  0  0  0  0  0
    6.7696    0.9865    0.7514 C   0  0  0  0  0  0  0  0  0  0  0  0
    5.5276    1.0278    0.1845 C   0  0  0  0  0  0  0  0  0  0  0  0
    5.0057   -0.0611   -0.5459 C   0  0  0  0  0  0  0  0  0  0  0  0
    5.8140   -1.1659   -0.6514 C   0  0  0  0  0  0  0  0  0  0  0  0
    7.0893   -1.1953   -0.0632 C   0  0  0  0  0  0  0  0  0  0  0  0
    3.7483    0.0763   -1.1397 N   0  0  0  0  0  0  0  0  0  0  0  0
    3.2477    1.4447   -1.4123 C   0  0  0  0  0  0  0  0  0  0  0  0
    2.1119    1.6816   -0.4287 C   0  0  0  0  0  0  0  0  0  0  0  0
    1.0877    0.6719   -0.7159 N   0  0  0  0  0  0  0  0  0  0  0  0
    1.3895   -0.4770   -1.5169 C   0  0  0  0  0  0  0  0  0  0  0  0
    2.8275   -0.9506   -1.4916 C   0  0  0  0  0  0  0  0  0  0  0  0
   -0.2143    0.8355   -0.1744 C   0  0  0  0  0  0  0  0  0  0  0  0
   -0.3957    1.8196    0.6309 O   0  0  0  0  0  0  0  0  0  0  0  0
   -1.3951    0.0028   -0.4305 C   0  0  1  0  0  0  0  0  0  0  0  0
   -1.9181   -0.7644    0.7145 C   0  0  0  0  0  0  0  0  0  0  0  0
   -3.1999   -0.2920    1.3309 C   0  0  0  0  0  0  0  0  0  0  0  0
   -4.1527    0.4009    0.4313 C   0  0  1  0  0  0  0  0  0  0  0  0
   -3.7481    0.2315   -1.0574 C   0  0  0  0  0  0  0  0  0  0  0  0
   -2.3961    0.9045   -1.1263 C   0  0  0  0  0  0  0  0  0  0  0  0
   -5.5157    0.0973    0.5228 N   0  0  0  0  0  0  0  0  0  0  0  0
   -5.9408   -1.2406    0.2132 C   0  0  0  0  0  0  0  0  0  0  0  0
   -7.4621   -1.0224    0.1846 C   0  0  0  0  0  0  0  0  0  0  0  0
   -7.6419   -0.0344    1.3332 C   0  0  0  0  0  0  0  0  0  0  0  0
   -6.2219    0.4059    1.7202 C   0  0  0  0  0  0  0  0  0  0  0  0
    7.1830    1.8370    1.3198 H   0  0  0  0  0  0  0  0  0  0  0  0
    4.8811    1.8909    0.3051 H   0  0  0  0  0  0  0  0  0  0  0  0
    5.4354   -2.0115   -1.1979 H   0  0  0  0  0  0  0  0  0  0  0  0
    7.7075   -2.0888   -0.1674 H   0  0  0  0  0  0  0  0  0  0  0  0
    4.0156    2.1773   -1.3881 H   0  0  0  0  0  0  0  0  0  0  0  0
    2.8158    1.3892   -2.4429 H   0  0  0  0  0  0  0  0  0  0  0  0
    1.7012    2.6676   -0.6704 H   0  0  0  0  0  0  0  0  0  0  0  0
    2.4803    1.6592    0.5931 H   0  0  0  0  0  0  0  0  0  0  0  0
    0.7861   -1.3607   -1.1833 H   0  0  0  0  0  0  0  0  0  0  0  0
    1.1486   -0.2448   -2.5787 H   0  0  0  0  0  0  0  0  0  0  0  0
    3.0731   -1.2795   -2.5432 H   0  0  0  0  0  0  0  0  0  0  0  0
    2.9795   -1.7973   -0.8010 H   0  0  0  0  0  0  0  0  0  0  0  0
   -1.1074   -0.7387   -1.2247 H   0  0  0  0  0  0  0  0  0  0  0  0
   -1.1231   -0.7241    1.5290 H   0  0  0  0  0  0  0  0  0  0  0  0
   -2.0062   -1.8690    0.5118 H   0  0  0  0  0  0  0  0  0  0  0  0
   -3.6629   -1.1842    1.8442 H   0  0  0  0  0  0  0  0  0  0  0  0
   -2.9073    0.3838    2.1931 H   0  0  0  0  0  0  0  0  0  0  0  0
   -4.0435    1.5115    0.5725 H   0  0  0  0  0  0  0  0  0  0  0  0
   -4.5348    0.7510   -1.6176 H   0  0  0  0  0  0  0  0  0  0  0  0
   -3.7104   -0.8607   -1.2350 H   0  0  0  0  0  0  0  0  0  0  0  0
   -2.1091    1.0709   -2.1640 H   0  0  0  0  0  0  0  0  0  0  0  0
   -2.5177    1.8922   -0.6041 H   0  0  0  0  0  0  0  0  0  0  0  0
   -5.7653   -1.9842    1.0111 H   0  0  0  0  0  0  0  0  0  0  0  0
   -5.5710   -1.5936   -0.7699 H   0  0  0  0  0  0  0  0  0  0  0  0
   -7.6663   -0.4613   -0.7846 H   0  0  0  0  0  0  0  0  0  0  0  0
   -8.0335   -1.9303    0.2980 H   0  0  0  0  0  0  0  0  0  0  0  0
   -8.1759   -0.5026    2.1542 H   0  0  0  0  0  0  0  0  0  0  0  0
   -8.2412    0.8362    1.0072 H   0  0  0  0  0  0  0  0  0  0  0  0
   -6.2413    1.4995    1.8475 H   0  0  0  0  0  0  0  0  0  0  0  0
   -5.8636   -0.1409    2.6085 H   0  0  0  0  0  0  0  0  0  0  0  0
  1  2  1  0
  2  3  1  0
  2  4  1  0
  2  5  1  0
  5  6  2  0
  6  7  1  0
  7  8  2  0
  8  9  1  0
  9 10  2  0
  8 11  1  0
 11 12  1  0
 12 13  1  0
 13 14  1  0
 14 15  1  0
 15 16  1  0
 14 17  1  0
 17 18  2  0
 17 19  1  0
 19 20  1  0
 20 21  1  0
 21 22  1  0
 22 23  1  0
 23 24  1  0
 22 25  1  0
 25 26  1  0
 26 27  1  0
 27 28  1  0
 28 29  1  0
 10  5  1  0
 16 11  1  0
 24 19  1  0
 29 25  1  0
  6 30  1  0
  7 31  1  0
  9 32  1  0
 10 33  1  0
 12 34  1  0
 12 35  1  0
 13 36  1  0
 13 37  1  0
 15 38  1  0
 15 39  1  0
 16 40  1  0
 16 41  1  0
 19 42  1  6
 20 43  1  0
 20 44  1  0
 21 45  1  0
 21 46  1  0
 22 47  1  1
 23 48  1  0
 23 49  1  0
 24 50  1  0
 24 51  1  0
 26 52  1  0
 26 53  1  0
 27 54  1  0
 27 55  1  0
 28 56  1  0
 28 57  1  0
 29 58  1  0
 29 59  1  0
M  END
$$$$
[H]c1c([H])c([H])c(C([H])([H])[C@@]([H])(C(=O)N([H])[C@]([H])(C(=O)N([H])[C@]([H])(C(=O)N([H])[C@]([H])(C(=O)N([H])[C@]([H])(C(=O)OC(C([H])([H])[H])(C([H])([H])[H])C([H])([H])[H])C([H])([H])C([H])(C([H])([H])[H])C([H])([H])[H])C([H])([H])C([H])(C([H])([H])[H])C([H])([H])[H])C([H])([H])C([H])(C([H])([H])[H])C([H])([H])[H])C([H])([H])C([H])(C([H])([H])[H])C([H])([H])[H])N([H])C(=O)OC(C([H])([H])[H])(C([H])([H])[H])C([H])([H])[H])c([H])c1[H]
     RDKit          3D

126126  0  0  0  0  0  0  0  0999 V2000
    2.0430    3.5028   -3.5401 C   0  0  0  0  0  0  0  0  0  0  0  0
    0.8835    2.6832   -2.9772 C   0  0  0  0  0  0  0  0  0  0  0  0
    0.2766    1.9810   -4.1652 C   0  0  0  0  0  0  0  0  0  0  0  0
    1.4507    1.7519   -1.9595 C   0  0  0  0  0  0  0  0  0  0  0  0
    0.4288    0.8709   -1.2850 C   0  0  2  0  0  0  0  0  0  0  0  0
   -0.5793    1.6271   -0.5745 N   0  0  0  0  0  0  0  0  0  0  0  0
   -1.9700    1.6033   -0.8496 C   0  0  0  0  0  0  0  0  0  0  0  0
   -2.3976    0.8822   -1.7739 O   0  0  0  0  0  0  0  0  0  0  0  0
   -2.8716    2.4436   -0.0163 C   0  0  2  0  0  0  0  0  0  0  0  0
   -2.6481    1.9999    1.4155 C   0  0  0  0  0  0  0  0  0  0  0  0
   -3.4978    2.6948    2.4151 C   0  0  0  0  0  0  0  0  0  0  0  0
   -3.1566    2.1687    3.8079 C   0  0  0  0  0  0  0  0  0  0  0  0
   -3.4358    4.1859    2.4090 C   0  0  0  0  0  0  0  0  0  0  0  0
   -4.2500    2.3658   -0.4035 N   0  0  0  0  0  0  0  0  0  0  0  0
   -5.0635    1.2341   -0.3486 C   0  0  0  0  0  0  0  0  0  0  0  0
   -4.5526    0.1324    0.0492 O   0  0  0  0  0  0  0  0  0  0  0  0
   -6.5174    1.1880   -0.7096 C   0  0  2  0  0  0  0  0  0  0  0  0
   -7.0977    2.3551    0.1655 C   0  0  0  0  0  0  0  0  0  0  0  0
   -8.5279    2.5166    0.0051 C   0  0  0  0  0  0  0  0  0  0  0  0
   -9.0284    3.0904   -1.1323 C   0  0  0  0  0  0  0  0  0  0  0  0
  -10.4025    3.3241   -1.2748 C   0  0  0  0  0  0  0  0  0  0  0  0
  -11.2629    2.9727   -0.2507 C   0  0  0  0  0  0  0  0  0  0  0  0
  -10.7702    2.4029    0.8852 C   0  0  0  0  0  0  0  0  0  0  0  0
   -9.4059    2.1763    1.0093 C   0  0  0  0  0  0  0  0  0  0  0  0
   -7.0450   -0.0414   -0.4239 N   0  0  0  0  0  0  0  0  0  0  0  0
   -7.5808   -1.2692   -0.1382 C   0  0  0  0  0  0  0  0  0  0  0  0
   -8.7738   -1.5667    0.0332 O   0  0  0  0  0  0  0  0  0  0  0  0
   -6.6982   -2.4030   -0.0182 O   0  0  0  0  0  0  0  0  0  0  0  0
   -7.2457   -3.6690    0.3069 C   0  0  0  0  0  0  0  0  0  0  0  0
   -8.4088   -4.0037   -0.6172 C   0  0  0  0  0  0  0  0  0  0  0  0
   -6.1945   -4.7577    0.0148 C   0  0  0  0  0  0  0  0  0  0  0  0
   -7.6005   -3.8037    1.7644 C   0  0  0  0  0  0  0  0  0  0  0  0
    1.1367   -0.0574   -0.3480 C   0  0  0  0  0  0  0  0  0  0  0  0
    0.6821   -0.1160    0.8401 O   0  0  0  0  0  0  0  0  0  0  0  0
    2.2342   -0.8548   -0.6506 N   0  0  0  0  0  0  0  0  0  0  0  0
    2.8746   -1.7667    0.3469 C   0  0  1  0  0  0  0  0  0  0  0  0
    2.8397   -3.1035   -0.2353 C   0  0  0  0  0  0  0  0  0  0  0  0
    3.3447   -4.2668    0.5435 C   0  0  0  0  0  0  0  0  0  0  0  0
    3.1302   -5.4965   -0.3678 C   0  0  0  0  0  0  0  0  0  0  0  0
    2.5684   -4.4513    1.8438 C   0  0  0  0  0  0  0  0  0  0  0  0
    4.1009   -1.1055    0.7255 C   0  0  0  0  0  0  0  0  0  0  0  0
    3.9966    0.1864    0.9977 O   0  0  0  0  0  0  0  0  0  0  0  0
    5.4193   -1.5580    0.8659 N   0  0  0  0  0  0  0  0  0  0  0  0
    6.4916   -0.6519    1.2996 C   0  0  1  0  0  0  0  0  0  0  0  0
    7.4829   -1.2502    2.2005 C   0  0  0  0  0  0  0  0  0  0  0  0
    8.2499   -2.4332    1.7526 C   0  0  0  0  0  0  0  0  0  0  0  0
    9.1901   -2.8379    2.8985 C   0  0  0  0  0  0  0  0  0  0  0  0
    9.1063   -2.2808    0.5425 C   0  0  0  0  0  0  0  0  0  0  0  0
    7.1140    0.0611    0.1581 C   0  0  0  0  0  0  0  0  0  0  0  0
    6.7550   -0.1318   -1.0272 O   0  0  0  0  0  0  0  0  0  0  0  0
    8.1243    0.9900    0.3467 O   0  0  0  0  0  0  0  0  0  0  0  0
    8.7633    1.7431   -0.6205 C   0  0  0  0  0  0  0  0  0  0  0  0
    9.8031    2.6001    0.1045 C   0  0  0  0  0  0  0  0  0  0  0  0
    9.4570    0.9922   -1.7087 C   0  0  0  0  0  0  0  0  0  0  0  0
    7.7388    2.7035   -1.2492 C   0  0  0  0  0  0  0  0  0  0  0  0
    1.5937    4.0550   -4.4130 H   0  0  0  0  0  0  0  0  0  0  0  0
    2.9004    2.8689   -3.8325 H   0  0  0  0  0  0  0  0  0  0  0  0
    2.2936    4.2910   -2.8201 H   0  0  0  0  0  0  0  0  0  0  0  0
    0.1618    3.3893   -2.5538 H   0  0  0  0  0  0  0  0  0  0  0  0
    1.0269    1.2263   -4.5010 H   0  0  0  0  0  0  0  0  0  0  0  0
   -0.7042    1.5655   -3.9581 H   0  0  0  0  0  0  0  0  0  0  0  0
    0.1641    2.7486   -4.9715 H   0  0  0  0  0  0  0  0  0  0  0  0
    1.9642    2.3834   -1.1814 H   0  0  0  0  0  0  0  0  0  0  0  0
    2.1902    1.0905   -2.4686 H   0  0  0  0  0  0  0  0  0  0  0  0
   -0.0499    0.2615   -2.1113 H   0  0  0  0  0  0  0  0  0  0  0  0
   -0.2373    2.2390    0.1905 H   0  0  0  0  0  0  0  0  0  0  0  0
   -2.4822    3.4974   -0.1018 H   0  0  0  0  0  0  0  0  0  0  0  0
   -2.7835    0.9126    1.4955 H   0  0  0  0  0  0  0  0  0  0  0  0
   -1.5764    2.1571    1.7080 H   0  0  0  0  0  0  0  0  0  0  0  0
   -4.5728    2.4132    2.2455 H   0  0  0  0  0  0  0  0  0  0  0  0
   -3.3500    2.9325    4.5652 H   0  0  0  0  0  0  0  0  0  0  0  0
   -2.0777    1.8468    3.8340 H   0  0  0  0  0  0  0  0  0  0  0  0
   -3.7422    1.2327    3.9488 H   0  0  0  0  0  0  0  0  0  0  0  0
   -4.0092    4.5289    1.4994 H   0  0  0  0  0  0  0  0  0  0  0  0
   -2.4313    4.6093    2.4910 H   0  0  0  0  0  0  0  0  0  0  0  0
   -4.0734    4.5670    3.2584 H   0  0  0  0  0  0  0  0  0  0  0  0
   -4.6903    3.2554   -0.7760 H   0  0  0  0  0  0  0  0  0  0  0  0
   -6.6838    1.5480   -1.7747 H   0  0  0  0  0  0  0  0  0  0  0  0
   -6.5560    3.2869   -0.1272 H   0  0  0  0  0  0  0  0  0  0  0  0
   -6.8047    2.0897    1.2000 H   0  0  0  0  0  0  0  0  0  0  0  0
   -8.3901    3.3981   -1.9853 H   0  0  0  0  0  0  0  0  0  0  0  0
  -10.8315    3.7741   -2.1636 H   0  0  0  0  0  0  0  0  0  0  0  0
  -12.3283    3.1242   -0.2985 H   0  0  0  0  0  0  0  0  0  0  0  0
  -11.4038    2.1159    1.7152 H   0  0  0  0  0  0  0  0  0  0  0  0
   -9.0545    1.7180    1.9353 H   0  0  0  0  0  0  0  0  0  0  0  0
   -8.3051    0.4836   -0.6505 H   0  0  0  0  0  0  0  0  0  0  0  0
   -8.4398   -3.4004   -1.5351 H   0  0  0  0  0  0  0  0  0  0  0  0
   -9.3636   -3.9438   -0.0065 H   0  0  0  0  0  0  0  0  0  0  0  0
   -8.3895   -5.0660   -0.9607 H   0  0  0  0  0  0  0  0  0  0  0  0
   -6.0188   -5.4078    0.8934 H   0  0  0  0  0  0  0  0  0  0  0  0
   -6.5963   -5.3935   -0.7973 H   0  0  0  0  0  0  0  0  0  0  0  0
   -5.2606   -4.2713   -0.3569 H   0  0  0  0  0  0  0  0  0  0  0  0
   -6.6690   -3.8039    2.3634 H   0  0  0  0  0  0  0  0  0  0  0  0
   -8.0812   -4.7917    1.8898 H   0  0  0  0  0  0  0  0  0  0  0  0
   -8.3054   -3.0161    2.0938 H   0  0  0  0  0  0  0  0  0  0  0  0
    2.6459   -0.8279   -1.6173 H   0  0  0  0  0  0  0  0  0  0  0  0
    2.1978   -1.6942    1.2735 H   0  0  0  0  0  0  0  0  0  0  0  0
    1.7865   -3.4022   -0.5538 H   0  0  0  0  0  0  0  0  0  0  0  0
    3.4195   -3.1021   -1.2049 H   0  0  0  0  0  0  0  0  0  0  0  0
    4.3922   -4.2427    0.7839 H   0  0  0  0  0  0  0  0  0  0  0  0
    3.0727   -5.1835   -1.4186 H   0  0  0  0  0  0  0  0  0  0  0  0
    3.9820   -6.1854   -0.2298 H   0  0  0  0  0  0  0  0  0  0  0  0
    2.1841   -5.9712    0.0021 H   0  0  0  0  0  0  0  0  0  0  0  0
    1.7591   -5.1826    1.6551 H   0  0  0  0  0  0  0  0  0  0  0  0
    3.2247   -4.8746    2.6479 H   0  0  0  0  0  0  0  0  0  0  0  0
    2.1704   -3.4748    2.2326 H   0  0  0  0  0  0  0  0  0  0  0  0
    5.7035   -2.5138    0.6700 H   0  0  0  0  0  0  0  0  0  0  0  0
    5.9573    0.2227    1.8579 H   0  0  0  0  0  0  0  0  0  0  0  0
    8.2375   -0.4873    2.5729 H   0  0  0  0  0  0  0  0  0  0  0  0
    6.9718   -1.5578    3.1744 H   0  0  0  0  0  0  0  0  0  0  0  0
    7.5321   -3.2743    1.5945 H   0  0  0  0  0  0  0  0  0  0  0  0
    9.7209   -3.7741    2.6194 H   0  0  0  0  0  0  0  0  0  0  0  0
    8.5787   -3.1261    3.7908 H   0  0  0  0  0  0  0  0  0  0  0  0
    9.9378   -2.0576    3.0825 H   0  0  0  0  0  0  0  0  0  0  0  0
    9.8600   -1.4578    0.6308 H   0  0  0  0  0  0  0  0  0  0  0  0
    9.7572   -3.2086    0.4129 H   0  0  0  0  0  0  0  0  0  0  0  0
    8.5305   -2.2266   -0.4009 H   0  0  0  0  0  0  0  0  0  0  0  0
   10.5130    1.9056    0.6251 H   0  0  0  0  0  0  0  0  0  0  0  0
   10.3870    3.2268   -0.5727 H   0  0  0  0  0  0  0  0  0  0  0  0
    9.2433    3.1407    0.8971 H   0  0  0  0  0  0  0  0  0  0  0  0
   10.2812    1.6348   -2.1436 H   0  0  0  0  0  0  0  0  0  0  0  0
    8.7549    0.7405   -2.5317 H   0  0  0  0  0  0  0  0  0  0  0  0
    9.9468    0.1032   -1.2818 H   0  0  0  0  0  0  0  0  0  0  0  0
    8.2901    3.4345   -1.8627 H   0  0  0  0  0  0  0  0  0  0  0  0
    7.0714    2.1251   -1.8984 H   0  0  0  0  0  0  0  0  0  0  0  0
    7.1544    3.2217   -0.4881 H   0  0  0  0  0  0  0  0  0  0  0  0
  1  2  1  0
  2  3  1  0
  2  4  1  0
  4  5  1  0
  5  6  1  0
  6  7  1  0
  7  8  2  0
  7  9  1  0
  9 10  1  0
 10 11  1  0
 11 12  1  0
 11 13  1  0
  9 14  1  0
 14 15  1  0
 15 16  2  0
 15 17  1  0
 17 18  1  0
 18 19  1  0
 19 20  2  0
 20 21  1  0
 21 22  2  0
 22 23  1  0
 23 24  2  0
 17 25  1  0
 25 26  1  0
 26 27  2  0
 26 28  1  0
 28 29  1  0
 29 30  1  0
 29 31  1  0
 29 32  1  0
  5 33  1  0
 33 34  2  0
 33 35  1  0
 35 36  1  0
 36 37  1  0
 37 38  1  0
 38 39  1  0
 38 40  1  0
 36 41  1  0
 41 42  2  0
 41 43  1  0
 43 44  1  0
 44 45  1  0
 45 46  1  0
 46 47  1  0
 46 48  1  0
 44 49  1  0
 49 50  2  0
 49 51  1  0
 51 52  1  0
 52 53  1  0
 52 54  1  0
 52 55  1  0
 24 19  1  0
  1 56  1  0
  1 57  1  0
  1 58  1  0
  2 59  1  0
  3 60  1  0
  3 61  1  0
  3 62  1  0
  4 63  1  0
  4 64  1  0
  5 65  1  6
  6 66  1  0
  9 67  1  1
 10 68  1  0
 10 69  1  0
 11 70  1  0
 12 71  1  0
 12 72  1  0
 12 73  1  0
 13 74  1  0
 13 75  1  0
 13 76  1  0
 14 77  1  0
 17 78  1  6
 18 79  1  0
 18 80  1  0
 20 81  1  0
 21 82  1  0
 22 83  1  0
 23 84  1  0
 24 85  1  0
 25 86  1  0
 30 87  1  0
 30 88  1  0
 30 89  1  0
 31 90  1  0
 31 91  1  0
 31 92  1  0
 32 93  1  0
 32 94  1  0
 32 95  1  0
 35 96  1  0
 36 97  1  1
 37 98  1  0
 37 99  1  0
 38100  1  0
 39101  1  0
 39102  1  0
 39103  1  0
 40104  1  0
 40105  1  0
 40106  1  0
 43107  1  0
 44108  1  1
 45109  1  0
 45110  1  0
 46111  1  0
 47112  1  0
 47113  1  0
 47114  1  0
 48115  1  0
 48116  1  0
 48117  1  0
 53118  1  0
 53119  1  0
 53120  1  0
 54121  1  0
 54122  1  0
 54123  1  0
 55124  1  0
 55125  1  0
 55126  1  0
M  END
$$$$
[H]N=C(N([H])[H])N([H])C([H])([H])C([H])([H])C([H])([H])[C@]([H])(C(=O)N([H])[C@]([H])(C(=O)N([H])[C@]([H])(C(=O)N([H])[C@]([H])(C(=O)N([H])[C@]([H])(C(=O)N([H])[H])C([H])([H])C([H])(C([H])([H])[H])C([H])([H])[H])C([H])([H])c1c([H])c([H])c([H])c([H])c1[H])C([H])([H])c1c([H])c([H])c([H])c([H])c1[H])C([H])([H])c1c([H])c([H])c([H])c([H])c1[H])N([H])C(=O)[C@@]([H])(N([H])[H])C([H])([H])c1c([H])c([H])c([H])c([H])c1[H]
     RDKit          3D

126129  0  0  0  0  0  0  0  0999 V2000
   -9.8856   -0.5262   -2.7704 C   0  0  0  0  0  0  0  0  0  0  0  0
  -10.0761    0.3984   -1.5877 C   0  0  0  0  0  0  0  0  0  0  0  0
  -11.0881   -0.3486   -0.6766 C   0  0  0  0  0  0  0  0  0  0  0  0
   -8.8385    0.5813   -0.7900 C   0  0  0  0  0  0  0  0  0  0  0  0
   -7.6985    1.1588   -1.5928 C   0  0  2  0  0  0  0  0  0  0  0  0
   -6.5133    1.2769   -0.7237 N   0  0  0  0  0  0  0  0  0  0  0  0
   -5.3671    0.4658   -0.8211 C   0  0  0  0  0  0  0  0  0  0  0  0
   -5.3838   -0.4360   -1.7252 O   0  0  0  0  0  0  0  0  0  0  0  0
   -4.1923    0.6298    0.0681 C   0  0  2  0  0  0  0  0  0  0  0  0
   -3.5177    1.9796   -0.1335 C   0  0  0  0  0  0  0  0  0  0  0  0
   -2.9892    2.2217   -1.4571 C   0  0  0  0  0  0  0  0  0  0  0  0
   -1.6805    1.8612   -1.7338 C   0  0  0  0  0  0  0  0  0  0  0  0
   -1.1291    2.0733   -2.9756 C   0  0  0  0  0  0  0  0  0  0  0  0
   -1.8482    2.6465   -3.9856 C   0  0  0  0  0  0  0  0  0  0  0  0
   -3.1617    3.0169   -3.7352 C   0  0  0  0  0  0  0  0  0  0  0  0
   -3.6996    2.7922   -2.4653 C   0  0  0  0  0  0  0  0  0  0  0  0
   -3.2690   -0.4405   -0.2037 N   0  0  0  0  0  0  0  0  0  0  0  0
   -2.6165   -1.2720    0.7200 C   0  0  0  0  0  0  0  0  0  0  0  0
   -2.8269   -1.1008    1.9349 O   0  0  0  0  0  0  0  0  0  0  0  0
   -1.6854   -2.3393    0.2902 C   0  0  2  0  0  0  0  0  0  0  0  0
   -2.3778   -3.6210    0.0363 C   0  0  0  0  0  0  0  0  0  0  0  0
   -3.1020   -4.1833    1.1879 C   0  0  0  0  0  0  0  0  0  0  0  0
   -4.4282   -3.7748    1.3927 C   0  0  0  0  0  0  0  0  0  0  0  0
   -5.1751   -4.2907    2.4516 C   0  0  0  0  0  0  0  0  0  0  0  0
   -4.6132   -5.1947    3.2925 C   0  0  0  0  0  0  0  0  0  0  0  0
   -3.2990   -5.5867    3.0752 C   0  0  0  0  0  0  0  0  0  0  0  0
   -2.5514   -5.0930    2.0427 C   0  0  0  0  0  0  0  0  0  0  0  0
   -0.5321   -2.5075    1.1617 N   0  0  0  0  0  0  0  0  0  0  0  0
    0.6165   -1.7266    1.0348 C   0  0  0  0  0  0  0  0  0  0  0  0
    0.5257   -0.8371    0.0884 O   0  0  0  0  0  0  0  0  0  0  0  0
    1.8851   -1.6786    1.7165 C   0  0  2  0  0  0  0  0  0  0  0  0
    2.0653   -2.0955    3.0929 C   0  0  0  0  0  0  0  0  0  0  0  0
    1.3805   -1.5155    4.1999 C   0  0  0  0  0  0  0  0  0  0  0  0
    0.2287   -2.0865    4.7127 C   0  0  0  0  0  0  0  0  0  0  0  0
   -0.4531   -1.5810    5.7740 C   0  0  0  0  0  0  0  0  0  0  0  0
   -0.0044   -0.4273    6.4101 C   0  0  0  0  0  0  0  0  0  0  0  0
    1.1198    0.1663    5.9393 C   0  0  0  0  0  0  0  0  0  0  0  0
    1.7901   -0.3605    4.8693 C   0  0  0  0  0  0  0  0  0  0  0  0
    2.6020   -0.4408    1.3439 N   0  0  0  0  0  0  0  0  0  0  0  0
    3.7562   -0.3675    0.5673 C   0  0  0  0  0  0  0  0  0  0  0  0
    4.3071   -1.3915    0.1308 O   0  0  0  0  0  0  0  0  0  0  0  0
    4.3191    0.9585    0.2584 C   0  0  1  0  0  0  0  0  0  0  0  0
    4.3518    1.9422    1.3521 C   0  0  0  0  0  0  0  0  0  0  0  0
    5.0817    1.7114    2.5943 C   0  0  0  0  0  0  0  0  0  0  0  0
    6.5593    1.5299    2.5455 C   0  0  0  0  0  0  0  0  0  0  0  0
    7.0218    1.3622    3.9485 N   0  0  0  0  0  0  0  0  0  0  0  0
    8.3937    1.2175    4.2634 C   0  0  0  0  0  0  0  0  0  0  0  0
    8.8118    1.5551    5.5929 N   0  0  0  0  0  0  0  0  0  0  0  0
    9.2796    0.8099    3.4287 N   0  0  0  0  0  0  0  0  0  0  0  0
    5.4798    0.9266   -0.5948 N   0  0  0  0  0  0  0  0  0  0  0  0
    5.3558    1.3969   -1.9435 C   0  0  0  0  0  0  0  0  0  0  0  0
    4.2251    1.8272   -2.3391 O   0  0  0  0  0  0  0  0  0  0  0  0
    6.4805    1.4023   -2.8817 C   0  0  1  0  0  0  0  0  0  0  0  0
    7.6576    0.8197   -2.2678 N   0  0  0  0  0  0  0  0  0  0  0  0
    6.1517    0.5404   -4.0939 C   0  0  0  0  0  0  0  0  0  0  0  0
    7.3335    0.6156   -4.9846 C   0  0  0  0  0  0  0  0  0  0  0  0
    7.3953    1.5803   -5.9606 C   0  0  0  0  0  0  0  0  0  0  0  0
    8.4924    1.6786   -6.7983 C   0  0  0  0  0  0  0  0  0  0  0  0
    9.5613    0.8148   -6.6849 C   0  0  0  0  0  0  0  0  0  0  0  0
    9.4995   -0.1523   -5.7068 C   0  0  0  0  0  0  0  0  0  0  0  0
    8.4084   -0.2560   -4.8680 C   0  0  0  0  0  0  0  0  0  0  0  0
   -8.0437    2.5371   -1.9945 C   0  0  0  0  0  0  0  0  0  0  0  0
   -9.0488    2.8839   -2.9173 N   0  0  0  0  0  0  0  0  0  0  0  0
   -7.4116    3.5398   -1.5008 O   0  0  0  0  0  0  0  0  0  0  0  0
   -9.7080    0.0475   -3.7259 H   0  0  0  0  0  0  0  0  0  0  0  0
   -9.1023   -1.2600   -2.6061 H   0  0  0  0  0  0  0  0  0  0  0  0
  -10.8288   -1.0777   -2.9294 H   0  0  0  0  0  0  0  0  0  0  0  0
  -10.6185    1.2897   -1.8879 H   0  0  0  0  0  0  0  0  0  0  0  0
  -11.9064   -0.6738   -1.3442 H   0  0  0  0  0  0  0  0  0  0  0  0
  -10.5419   -1.2439   -0.3273 H   0  0  0  0  0  0  0  0  0  0  0  0
  -11.4063    0.3476    0.1021 H   0  0  0  0  0  0  0  0  0  0  0  0
   -8.5620   -0.3441   -0.2479 H   0  0  0  0  0  0  0  0  0  0  0  0
   -9.0682    1.3416    0.0079 H   0  0  0  0  0  0  0  0  0  0  0  0
   -7.4188    0.4904   -2.4152 H   0  0  0  0  0  0  0  0  0  0  0  0
   -6.5506    2.0128   -0.0026 H   0  0  0  0  0  0  0  0  0  0  0  0
   -4.5185    0.5726    1.1073 H   0  0  0  0  0  0  0  0  0  0  0  0
   -4.2709    2.7340    0.1712 H   0  0  0  0  0  0  0  0  0  0  0  0
   -2.7055    2.0282    0.6450 H   0  0  0  0  0  0  0  0  0  0  0  0
   -1.0432    1.3983   -0.9803 H   0  0  0  0  0  0  0  0  0  0  0  0
   -0.0932    1.7792   -3.1579 H   0  0  0  0  0  0  0  0  0  0  0  0
   -1.4492    2.8317   -4.9778 H   0  0  0  0  0  0  0  0  0  0  0  0
   -3.7528    3.4682   -4.5115 H   0  0  0  0  0  0  0  0  0  0  0  0
   -4.7151    3.0931   -2.2982 H   0  0  0  0  0  0  0  0  0  0  0  0
   -3.0626   -0.6139   -1.2323 H   0  0  0  0  0  0  0  0  0  0  0  0
   -1.2478   -1.9252   -0.6809 H   0  0  0  0  0  0  0  0  0  0  0  0
   -3.0919   -3.5917   -0.8130 H   0  0  0  0  0  0  0  0  0  0  0  0
   -1.6097   -4.3847   -0.2736 H   0  0  0  0  0  0  0  0  0  0  0  0
   -4.9074   -3.0573    0.7518 H   0  0  0  0  0  0  0  0  0  0  0  0
   -6.1988   -3.9726    2.6046 H   0  0  0  0  0  0  0  0  0  0  0  0
   -5.1616   -5.6157    4.1185 H   0  0  0  0  0  0  0  0  0  0  0  0
   -2.8590   -6.3142    3.7569 H   0  0  0  0  0  0  0  0  0  0  0  0
   -1.5450   -5.4149    1.9039 H   0  0  0  0  0  0  0  0  0  0  0  0
   -0.5752   -3.2310    1.8969 H   0  0  0  0  0  0  0  0  0  0  0  0
    2.5295   -2.4535    1.1124 H   0  0  0  0  0  0  0  0  0  0  0  0
    3.1780   -2.0414    3.3085 H   0  0  0  0  0  0  0  0  0  0  0  0
    1.8989   -3.2318    3.1240 H   0  0  0  0  0  0  0  0  0  0  0  0
   -0.1739   -2.9986    4.2527 H   0  0  0  0  0  0  0  0  0  0  0  0
   -1.3498   -2.0265    6.1827 H   0  0  0  0  0  0  0  0  0  0  0  0
   -0.5138    0.0067    7.2597 H   0  0  0  0  0  0  0  0  0  0  0  0
    1.5018    1.0755    6.4134 H   0  0  0  0  0  0  0  0  0  0  0  0
    2.6701    0.1202    4.5148 H   0  0  0  0  0  0  0  0  0  0  0  0
    2.1587    0.4312    1.7259 H   0  0  0  0  0  0  0  0  0  0  0  0
    3.4959    1.3936   -0.4570 H   0  0  0  0  0  0  0  0  0  0  0  0
    3.3057    2.2664    1.6319 H   0  0  0  0  0  0  0  0  0  0  0  0
    4.7719    2.9084    0.9015 H   0  0  0  0  0  0  0  0  0  0  0  0
    4.6326    0.9049    3.2463 H   0  0  0  0  0  0  0  0  0  0  0  0
    4.9167    2.6346    3.2416 H   0  0  0  0  0  0  0  0  0  0  0  0
    7.1213    2.4044    2.1661 H   0  0  0  0  0  0  0  0  0  0  0  0
    6.8836    0.6492    1.9658 H   0  0  0  0  0  0  0  0  0  0  0  0
    6.3265    1.3447    4.7376 H   0  0  0  0  0  0  0  0  0  0  0  0
    8.8682    0.8679    6.3679 H   0  0  0  0  0  0  0  0  0  0  0  0
    9.0714    2.5664    5.7550 H   0  0  0  0  0  0  0  0  0  0  0  0
   10.2613    0.7297    3.7315 H   0  0  0  0  0  0  0  0  0  0  0  0
    6.4308    0.5735   -0.3065 H   0  0  0  0  0  0  0  0  0  0  0  0
    6.7522    2.4318   -3.1567 H   0  0  0  0  0  0  0  0  0  0  0  0
    7.4925   -0.1713   -1.9738 H   0  0  0  0  0  0  0  0  0  0  0  0
    8.0426    1.4276   -1.5056 H   0  0  0  0  0  0  0  0  0  0  0  0
    6.0304   -0.5161   -3.7237 H   0  0  0  0  0  0  0  0  0  0  0  0
    5.2474    0.8673   -4.6027 H   0  0  0  0  0  0  0  0  0  0  0  0
    6.5473    2.2572   -6.0466 H   0  0  0  0  0  0  0  0  0  0  0  0
    8.5415    2.4369   -7.5683 H   0  0  0  0  0  0  0  0  0  0  0  0
   10.4253    0.8914   -7.3393 H   0  0  0  0  0  0  0  0  0  0  0  0
   10.3527   -0.8167   -5.6420 H   0  0  0  0  0  0  0  0  0  0  0  0
    8.3814   -1.0148   -4.1142 H   0  0  0  0  0  0  0  0  0  0  0  0
   -9.0656    2.6077   -3.9040 H   0  0  0  0  0  0  0  0  0  0  0  0
   -9.8432    3.4726   -2.5560 H   0  0  0  0  0  0  0  0  0  0  0  0
  1  2  1  0
  2  3  1  0
  2  4  1  0
  4  5  1  0
  5  6  1  0
  6  7  1  0
  7  8  2  0
  7  9  1  0
  9 10  1  0
 10 11  1  0
 11 12  2  0
 12 13  1  0
 13 14  2  0
 14 15  1  0
 15 16  2  0
  9 17  1  0
 17 18  1  0
 18 19  2  0
 18 20  1  0
 20 21  1  0
 21 22  1  0
 22 23  2  0
 23 24  1  0
 24 25  2  0
 25 26  1  0
 26 27  2  0
 20 28  1  0
 28 29  1  0
 29 30  2  0
 29 31  1  0
 31 32  1  0
 32 33  1  0
 33 34  2  0
 34 35  1  0
 35 36  2  0
 36 37  1  0
 37 38  2  0
 31 39  1  0
 39 40  1  0
 40 41  2  0
 40 42  1  0
 42 43  1  0
 43 44  1  0
 44 45  1  0
 45 46  1  0
 46 47  1  0
 47 48  1  0
 47 49  2  3
 42 50  1  0
 50 51  1  0
 51 52  2  0
 51 53  1  0
 53 54  1  0
 53 55  1  0
 55 56  1  0
 56 57  2  0
 57 58  1  0
 58 59  2  0
 59 60  1  0
 60 61  2  0
  5 62  1  0
 62 63  1  0
 62 64  2  0
 16 11  1  0
 27 22  1  0
 38 33  1  0
 61 56  1  0
  1 65  1  0
  1 66  1  0
  1 67  1  0
  2 68  1  0
  3 69  1  0
  3 70  1  0
  3 71  1  0
  4 72  1  0
  4 73  1  0
  5 74  1  6
  6 75  1  0
  9 76  1  1
 10 77  1  0
 10 78  1  0
 12 79  1  0
 13 80  1  0
 14 81  1  0
 15 82  1  0
 16 83  1  0
 17 84  1  0
 20 85  1  6
 21 86  1  0
 21 87  1  0
 23 88  1  0
 24 89  1  0
 25 90  1  0
 26 91  1  0
 27 92  1  0
 28 93  1  0
 31 94  1  6
 32 95  1  0
 32 96  1  0
 34 97  1  0
 35 98  1  0
 36 99  1  0
 37100  1  0
 38101  1  0
 39102  1  0
 42103  1  6
 43104  1  0
 43105  1  0
 44106  1  0
 44107  1  0
 45108  1  0
 45109  1  0
 46110  1  0
 48111  1  0
 48112  1  0
 49113  1  0
 50114  1  0
 53115  1  6
 54116  1  0
 54117  1  0
 55118  1  0
 55119  1  0
 57120  1  0
 58121  1  0
 59122  1  0
 60123  1  0
 61124  1  0
 63125  1  0
 63126  1  0
M  END
$$$$
[H]c1nc(C2([H])C([H])([H])C([H])([H])N([C@]3([H])C([H])([H])C([H])([H])[C@@]([H])(N([H])C(=O)c4c([H])c([H])nc(C#N)c4[H])C([H])([H])C3([H])[H])C([H])([H])C2([H])[H])c([H])nc1-c1c([H])nn(C#N)c1[H]
     RDKit          3D

 63 67  0  0  0  0  0  0  0  0999 V2000
    5.9266    0.1792    1.3597 O   0  0  0  0  0  0  0  0  0  0  0  0
    5.9452    0.4956    0.1456 C   0  0  0  0  0  0  0  0  0  0  0  0
    4.7836    0.2082   -0.6181 N   0  0  0  0  0  0  0  0  0  0  0  0
    3.6106   -0.4137   -0.0861 C   0  0  1  0  0  0  0  0  0  0  0  0
    2.3621    0.3877   -0.2100 C   0  0  0  0  0  0  0  0  0  0  0  0
    1.3185   -0.1924   -1.1324 C   0  0  0  0  0  0  0  0  0  0  0  0
    0.9671   -1.6107   -0.8152 C   0  0  1  0  0  0  0  0  0  0  0  0
    2.0675   -2.2942   -0.0275 C   0  0  0  0  0  0  0  0  0  0  0  0
    3.4062   -1.8202   -0.6168 C   0  0  0  0  0  0  0  0  0  0  0  0
   -0.3265   -1.8340   -0.2761 N   0  0  0  0  0  0  0  0  0  0  0  0
   -1.4076   -1.4849   -1.1400 C   0  0  0  0  0  0  0  0  0  0  0  0
   -2.6698   -2.0958   -0.5107 C   0  0  0  0  0  0  0  0  0  0  0  0
   -2.9443   -1.5002    0.8327 C   0  0  0  0  0  0  0  0  0  0  0  0
   -1.8014   -0.6065    1.2534 C   0  0  0  0  0  0  0  0  0  0  0  0
   -0.5324   -1.4529    1.0822 C   0  0  0  0  0  0  0  0  0  0  0  0
   -4.2484   -0.7928    0.8269 C   0  0  0  0  0  0  0  0  0  0  0  0
   -4.5523    0.1954   -0.0902 C   0  0  0  0  0  0  0  0  0  0  0  0
   -5.7532    0.8171   -0.0671 N   0  0  0  0  0  0  0  0  0  0  0  0
   -6.7006    0.5132    0.8338 C   0  0  0  0  0  0  0  0  0  0  0  0
   -6.3961   -0.4755    1.7519 C   0  0  0  0  0  0  0  0  0  0  0  0
   -5.1961   -1.0985    1.7307 N   0  0  0  0  0  0  0  0  0  0  0  0
   -7.9957    1.1818    0.8504 C   0  0  0  0  0  0  0  0  0  0  0  0
   -9.0265    0.9505    1.7400 C   0  0  0  0  0  0  0  0  0  0  0  0
  -10.0395    1.7850    1.3891 N   0  0  0  0  0  0  0  0  0  0  0  0
   -9.7121    2.5093    0.3562 N   0  0  0  0  0  0  0  0  0  0  0  0
   -8.4550    2.1616   -0.0023 C   0  0  0  0  0  0  0  0  0  0  0  0
  -10.5426    3.4757   -0.2573 C   0  0  0  0  0  0  0  0  0  0  0  0
  -11.2337    4.2537   -0.7623 N   0  0  0  0  0  0  0  0  0  0  0  0
    7.1358    1.1253   -0.3902 C   0  0  0  0  0  0  0  0  0  0  0  0
    7.2025    1.6550   -1.6597 C   0  0  0  0  0  0  0  0  0  0  0  0
    8.3660    2.2335   -2.1024 C   0  0  0  0  0  0  0  0  0  0  0  0
    9.4486    2.2855   -1.2985 N   0  0  0  0  0  0  0  0  0  0  0  0
    9.4105    1.7824   -0.0714 C   0  0  0  0  0  0  0  0  0  0  0  0
    8.2611    1.1935    0.4117 C   0  0  0  0  0  0  0  0  0  0  0  0
   10.5557    1.8159    0.8234 C   0  0  0  0  0  0  0  0  0  0  0  0
   11.4800    1.8550    1.5278 N   0  0  0  0  0  0  0  0  0  0  0  0
    4.8022    0.4724   -1.6269 H   0  0  0  0  0  0  0  0  0  0  0  0
    3.8085   -0.5664    1.0160 H   0  0  0  0  0  0  0  0  0  0  0  0
    2.6587    1.3755   -0.6732 H   0  0  0  0  0  0  0  0  0  0  0  0
    1.9347    0.6597    0.7825 H   0  0  0  0  0  0  0  0  0  0  0  0
    0.4349    0.4721   -1.0687 H   0  0  0  0  0  0  0  0  0  0  0  0
    1.7130   -0.0898   -2.1628 H   0  0  0  0  0  0  0  0  0  0  0  0
    0.9703   -2.1610   -1.8078 H   0  0  0  0  0  0  0  0  0  0  0  0
    2.0616   -3.3974   -0.1521 H   0  0  0  0  0  0  0  0  0  0  0  0
    2.0524   -2.0517    1.0335 H   0  0  0  0  0  0  0  0  0  0  0  0
    3.3694   -1.7820   -1.7059 H   0  0  0  0  0  0  0  0  0  0  0  0
    4.1638   -2.5010   -0.1943 H   0  0  0  0  0  0  0  0  0  0  0  0
   -1.2895   -2.0146   -2.1139 H   0  0  0  0  0  0  0  0  0  0  0  0
   -1.5938   -0.4223   -1.2733 H   0  0  0  0  0  0  0  0  0  0  0  0
   -3.5230   -2.0560   -1.1936 H   0  0  0  0  0  0  0  0  0  0  0  0
   -2.4091   -3.1768   -0.3588 H   0  0  0  0  0  0  0  0  0  0  0  0
   -2.9935   -2.3002    1.6268 H   0  0  0  0  0  0  0  0  0  0  0  0
   -1.8627   -0.4205    2.3507 H   0  0  0  0  0  0  0  0  0  0  0  0
   -1.7326    0.3287    0.6833 H   0  0  0  0  0  0  0  0  0  0  0  0
    0.2741   -0.9352    1.5806 H   0  0  0  0  0  0  0  0  0  0  0  0
   -0.7287   -2.3890    1.6697 H   0  0  0  0  0  0  0  0  0  0  0  0
   -3.8103    0.4427   -0.8067 H   0  0  0  0  0  0  0  0  0  0  0  0
   -7.1568   -0.7272    2.4848 H   0  0  0  0  0  0  0  0  0  0  0  0
   -8.9732    0.2333    2.5374 H   0  0  0  0  0  0  0  0  0  0  0  0
   -7.8856    2.5698   -0.8166 H   0  0  0  0  0  0  0  0  0  0  0  0
    6.3382    1.6130   -2.3027 H   0  0  0  0  0  0  0  0  0  0  0  0
    8.4080    2.6499   -3.1142 H   0  0  0  0  0  0  0  0  0  0  0  0
    8.2554    0.7859    1.4287 H   0  0  0  0  0  0  0  0  0  0  0  0
  1  2  2  0
  2  3  1  0
  3  4  1  0
  4  5  1  0
  5  6  1  0
  6  7  1  0
  7  8  1  0
  8  9  1  0
  7 10  1  0
 10 11  1  0
 11 12  1  0
 12 13  1  0
 13 14  1  0
 14 15  1  0
 13 16  1  0
 16 17  2  0
 17 18  1  0
 18 19  2  0
 19 20  1  0
 20 21  2  0
 19 22  1  0
 22 23  1  0
 23 24  2  0
 24 25  1  0
 25 26  1  0
 25 27  1  0
 27 28  3  0
  2 29  1  0
 29 30  2  0
 30 31  1  0
 31 32  2  0
 32 33  1  0
 33 34  2  0
 33 35  1  0
 35 36  3  0
  9  4  1  0
 15 10  1  0
 21 16  1  0
 26 22  2  0
 34 29  1  0
  3 37  1  0
  4 38  1  1
  5 39  1  0
  5 40  1  0
  6 41  1  0
  6 42  1  0
  7 43  1  6
  8 44  1  0
  8 45  1  0
  9 46  1  0
  9 47  1  0
 11 48  1  0
 11 49  1  0
 12 50  1  0
 12 51  1  0
 13 52  1  0
 14 53  1  0
 14 54  1  0
 15 55  1  0
 15 56  1  0
 17 57  1  0
 20 58  1  0
 23 59  1  0
 26 60  1  0
 30 61  1  0
 31 62  1  0
 34 63  1  0
M  END
$$$$
[H]c1nc2c(nc(-c3c([H])c([H])c(N4C([H])([H])C([H])([H])N(c5c([H])c([H])c([H])c([H])c5[H])C([H])([H])[C@@]4([H])C([H])([H])[H])c([H])c3[H])n2[H])c(-c2c([H])c([H])c(F)c([H])c2[H])c1[H]
     RDKit          3D

 61 66  0  0  0  0  0  0  0  0999 V2000
    3.6830    1.6154   -0.6584 C   0  0  0  0  0  0  0  0  0  0  0  0
    3.4095    0.9908    0.6847 C   0  0  2  0  0  0  0  0  0  0  0  0
    4.7406    0.4615    1.2421 C   0  0  0  0  0  0  0  0  0  0  0  0
    5.1920   -0.5980    0.3873 N   0  0  0  0  0  0  0  0  0  0  0  0
    4.1934   -1.4686   -0.2140 C   0  0  0  0  0  0  0  0  0  0  0  0
    2.9159   -1.4168    0.6315 C   0  0  0  0  0  0  0  0  0  0  0  0
    2.4188   -0.0722    0.6141 N   0  0  0  0  0  0  0  0  0  0  0  0
    1.0424    0.2583    0.5322 C   0  0  0  0  0  0  0  0  0  0  0  0
    0.6403    1.5740    0.4824 C   0  0  0  0  0  0  0  0  0  0  0  0
   -0.7054    1.8829    0.4041 C   0  0  0  0  0  0  0  0  0  0  0  0
   -1.6901    0.9302    0.3723 C   0  0  0  0  0  0  0  0  0  0  0  0
   -1.2841   -0.3869    0.4224 C   0  0  0  0  0  0  0  0  0  0  0  0
    0.0701   -0.7177    0.5016 C   0  0  0  0  0  0  0  0  0  0  0  0
   -3.0969    1.3071    0.2893 C   0  0  0  0  0  0  0  0  0  0  0  0
   -4.1626    0.5020    0.2499 N   0  0  0  0  0  0  0  0  0  0  0  0
   -5.2964    1.2348    0.1737 C   0  0  0  0  0  0  0  0  0  0  0  0
   -6.6321    0.8979    0.1098 C   0  0  0  0  0  0  0  0  0  0  0  0
   -7.5491    1.9257    0.0388 C   0  0  0  0  0  0  0  0  0  0  0  0
   -7.1316    3.2371    0.0327 C   0  0  0  0  0  0  0  0  0  0  0  0
   -5.8286    3.5459    0.0955 N   0  0  0  0  0  0  0  0  0  0  0  0
   -4.9028    2.5573    0.1661 C   0  0  0  0  0  0  0  0  0  0  0  0
   -3.5568    2.5695    0.2376 N   0  0  0  0  0  0  0  0  0  0  0  0
   -7.0734   -0.4927    0.1163 C   0  0  0  0  0  0  0  0  0  0  0  0
   -6.5468   -1.4015    0.9907 C   0  0  0  0  0  0  0  0  0  0  0  0
   -7.0032   -2.7003    0.9495 C   0  0  0  0  0  0  0  0  0  0  0  0
   -7.9733   -3.0852    0.0459 C   0  0  0  0  0  0  0  0  0  0  0  0
   -8.4043   -4.3860    0.0325 F   0  0  0  0  0  0  0  0  0  0  0  0
   -8.4809   -2.1476   -0.8181 C   0  0  0  0  0  0  0  0  0  0  0  0
   -8.0417   -0.8442   -0.7968 C   0  0  0  0  0  0  0  0  0  0  0  0
    6.5704   -0.7984    0.1380 C   0  0  0  0  0  0  0  0  0  0  0  0
    7.5482   -0.0903    0.8027 C   0  0  0  0  0  0  0  0  0  0  0  0
    8.8927   -0.3017    0.5357 C   0  0  0  0  0  0  0  0  0  0  0  0
    9.2971   -1.2243   -0.4004 C   0  0  0  0  0  0  0  0  0  0  0  0
    8.3221   -1.9311   -1.0638 C   0  0  0  0  0  0  0  0  0  0  0  0
    7.0037   -1.7291   -0.8075 C   0  0  0  0  0  0  0  0  0  0  0  0
    3.5800    2.7369   -0.5960 H   0  0  0  0  0  0  0  0  0  0  0  0
    2.8974    1.2798   -1.3609 H   0  0  0  0  0  0  0  0  0  0  0  0
    4.7039    1.4261   -1.0336 H   0  0  0  0  0  0  0  0  0  0  0  0
    3.0868    1.7505    1.4438 H   0  0  0  0  0  0  0  0  0  0  0  0
    5.4089    1.3478    1.2739 H   0  0  0  0  0  0  0  0  0  0  0  0
    4.5595    0.1167    2.2728 H   0  0  0  0  0  0  0  0  0  0  0  0
    3.9492   -1.0712   -1.2153 H   0  0  0  0  0  0  0  0  0  0  0  0
    4.5418   -2.5376   -0.2484 H   0  0  0  0  0  0  0  0  0  0  0  0
    2.2534   -2.1808    0.2295 H   0  0  0  0  0  0  0  0  0  0  0  0
    3.2385   -1.6839    1.6669 H   0  0  0  0  0  0  0  0  0  0  0  0
    1.3907    2.3499    0.5050 H   0  0  0  0  0  0  0  0  0  0  0  0
   -0.9843    2.9355    0.3665 H   0  0  0  0  0  0  0  0  0  0  0  0
   -2.0568   -1.1521    0.3979 H   0  0  0  0  0  0  0  0  0  0  0  0
    0.2952   -1.7557    0.5366 H   0  0  0  0  0  0  0  0  0  0  0  0
   -8.6170    1.7226   -0.0137 H   0  0  0  0  0  0  0  0  0  0  0  0
   -7.8341    4.0709   -0.0227 H   0  0  0  0  0  0  0  0  0  0  0  0
   -3.0037    3.4542    0.2479 H   0  0  0  0  0  0  0  0  0  0  0  0
   -5.7843   -1.1227    1.7092 H   0  0  0  0  0  0  0  0  0  0  0  0
   -6.5988   -3.4502    1.6389 H   0  0  0  0  0  0  0  0  0  0  0  0
   -9.2574   -2.4274   -1.5512 H   0  0  0  0  0  0  0  0  0  0  0  0
   -8.4536   -0.1015   -1.4918 H   0  0  0  0  0  0  0  0  0  0  0  0
    7.2771    0.6592    1.5640 H   0  0  0  0  0  0  0  0  0  0  0  0
    9.6348    0.2672    1.0714 H   0  0  0  0  0  0  0  0  0  0  0  0
   10.3623   -1.3909   -0.6110 H   0  0  0  0  0  0  0  0  0  0  0  0
    8.6048   -2.6542   -1.7960 H   0  0  0  0  0  0  0  0  0  0  0  0
    6.2256   -2.2871   -1.3336 H   0  0  0  0  0  0  0  0  0  0  0  0
  1  2  1  0
  2  3  1  0
  3  4  1  0
  4  5  1  0
  5  6  1  0
  6  7  1  0
  7  8  1  0
  8  9  2  0
  9 10  1  0
 10 11  2  0
 11 12  1  0
 12 13  2  0
 11 14  1  0
 14 15  2  0
 15 16  1  0
 16 17  2  0
 17 18  1  0
 18 19  2  0
 19 20  1  0
 20 21  2  0
 21 22  1  0
 17 23  1  0
 23 24  2  0
 24 25  1  0
 25 26  2  0
 26 27  1  0
 26 28  1  0
 28 29  2  0
  4 30  1  0
 30 31  2  0
 31 32  1  0
 32 33  2  0
 33 34  1  0
 34 35  2  0
  7  2  1  0
 13  8  1  0
 22 14  1  0
 29 23  1  0
 35 30  1  0
 21 16  1  0
  1 36  1  0
  1 37  1  0
  1 38  1  0
  2 39  1  1
  3 40  1  0
  3 41  1  0
  5 42  1  0
  5 43  1  0
  6 44  1  0
  6 45  1  0
  9 46  1  0
 10 47  1  0
 12 48  1  0
 13 49  1  0
 18 50  1  0
 19 51  1  0
 22 52  1  0
 24 53  1  0
 25 54  1  0
 28 55  1  0
 29 56  1  0
 31 57  1  0
 32 58  1  0
 33 59  1  0
 34 60  1  0
 35 61  1  0
M  END
$$$$
[H]N=C(N([H])[H])N([H])C([H])([H])C([H])([H])C([H])([H])[C@@]([H])(C(=O)N([H])[C@]([H])(C(=O)N([H])[C@]([H])(C(=O)O[H])C([H])([H])c1c([H])c([H])c([H])c([H])c1[H])C([H])([H])c1c([H])n([H])c2c([H])c([H])c([H])c([H])c12)N([H])C(=O)[C@@]([H])(N([H])C(=O)[C@@]([H])(N([H])C(=O)OC([H])([H])c1c([H])c([H])c([H])c([H])c1[H])C([H])([H])c1c([H])c([H])c([H])c([H])c1[H])C([H])([H])[H]
     RDKit          3D

116120  0  0  0  0  0  0  0  0999 V2000
    2.4809   -0.2445    1.5519 C   0  0  0  0  0  0  0  0  0  0  0  0
    2.7864   -0.8039    0.1779 C   0  0  2  0  0  0  0  0  0  0  0  0
    4.0563   -0.4501   -0.2840 N   0  0  0  0  0  0  0  0  0  0  0  0
    4.6762    0.0188   -1.4376 C   0  0  0  0  0  0  0  0  0  0  0  0
    4.0216    0.3388   -2.4941 O   0  0  0  0  0  0  0  0  0  0  0  0
    6.1458    0.1601   -1.4651 C   0  0  2  0  0  0  0  0  0  0  0  0
    6.8117   -1.0577   -0.8755 C   0  0  0  0  0  0  0  0  0  0  0  0
    6.4667   -2.3291   -1.5167 C   0  0  0  0  0  0  0  0  0  0  0  0
    5.6830   -3.2059   -0.7493 C   0  0  0  0  0  0  0  0  0  0  0  0
    5.2370   -4.3986   -1.2028 C   0  0  0  0  0  0  0  0  0  0  0  0
    5.5751   -4.7552   -2.4888 C   0  0  0  0  0  0  0  0  0  0  0  0
    6.3368   -3.9144   -3.2494 C   0  0  0  0  0  0  0  0  0  0  0  0
    6.8056   -2.6823   -2.7843 C   0  0  0  0  0  0  0  0  0  0  0  0
    6.4931    1.2730   -0.6168 N   0  0  0  0  0  0  0  0  0  0  0  0
    7.7793    1.9130   -0.6188 C   0  0  0  0  0  0  0  0  0  0  0  0
    8.7193    1.6268   -1.3677 O   0  0  0  0  0  0  0  0  0  0  0  0
    8.0399    2.9365    0.3179 O   0  0  0  0  0  0  0  0  0  0  0  0
    9.3171    3.5481    0.3868 C   0  0  0  0  0  0  0  0  0  0  0  0
    9.4239    4.4996    1.4873 C   0  0  0  0  0  0  0  0  0  0  0  0
    9.7204    3.9417    2.7450 C   0  0  0  0  0  0  0  0  0  0  0  0
    9.8475    4.6716    3.8907 C   0  0  0  0  0  0  0  0  0  0  0  0
    9.6810    6.0450    3.8675 C   0  0  0  0  0  0  0  0  0  0  0  0
    9.3865    6.6047    2.6261 C   0  0  0  0  0  0  0  0  0  0  0  0
    9.2631    5.8569    1.4841 C   0  0  0  0  0  0  0  0  0  0  0  0
    1.6423   -0.6275   -0.7329 C   0  0  0  0  0  0  0  0  0  0  0  0
    1.6185    0.1822   -1.6490 O   0  0  0  0  0  0  0  0  0  0  0  0
    0.5318   -1.4672   -0.5068 N   0  0  0  0  0  0  0  0  0  0  0  0
   -0.6898   -1.6211   -1.1630 C   0  0  1  0  0  0  0  0  0  0  0  0
   -1.1454   -3.0305   -1.2585 C   0  0  0  0  0  0  0  0  0  0  0  0
   -0.3495   -4.0105   -2.0484 C   0  0  0  0  0  0  0  0  0  0  0  0
   -0.4442   -3.8413   -3.5130 C   0  0  0  0  0  0  0  0  0  0  0  0
    0.0308   -2.6933   -4.1771 N   0  0  0  0  0  0  0  0  0  0  0  0
   -0.4391   -2.4592   -5.5210 C   0  0  0  0  0  0  0  0  0  0  0  0
   -0.1996   -1.2251   -6.1577 N   0  0  0  0  0  0  0  0  0  0  0  0
   -1.1061   -3.3393   -6.1627 N   0  0  0  0  0  0  0  0  0  0  0  0
   -1.8049   -0.7107   -0.7138 C   0  0  0  0  0  0  0  0  0  0  0  0
   -1.5318    0.5090   -0.6377 O   0  0  0  0  0  0  0  0  0  0  0  0
   -3.0765   -1.2188   -0.4166 N   0  0  0  0  0  0  0  0  0  0  0  0
   -4.2082   -0.4622   -0.0993 C   0  0  1  0  0  0  0  0  0  0  0  0
   -5.4956   -1.1725   -0.3066 C   0  0  0  0  0  0  0  0  0  0  0  0
   -5.6270   -2.4679    0.4024 C   0  0  0  0  0  0  0  0  0  0  0  0
   -5.4094   -3.7124   -0.2487 C   0  0  0  0  0  0  0  0  0  0  0  0
   -5.5621   -4.7122    0.6319 N   0  0  0  0  0  0  0  0  0  0  0  0
   -5.8684   -4.1994    1.8306 C   0  0  0  0  0  0  0  0  0  0  0  0
   -6.1134   -4.8392    3.0300 C   0  0  0  0  0  0  0  0  0  0  0  0
   -6.4144   -4.0892    4.1356 C   0  0  0  0  0  0  0  0  0  0  0  0
   -6.4615   -2.6865    4.0151 C   0  0  0  0  0  0  0  0  0  0  0  0
   -6.2129   -2.0846    2.8174 C   0  0  0  0  0  0  0  0  0  0  0  0
   -5.9066   -2.8063    1.6780 C   0  0  0  0  0  0  0  0  0  0  0  0
   -4.1994    0.4365    1.1031 C   0  0  0  0  0  0  0  0  0  0  0  0
   -3.4543    0.1794    1.9950 O   0  0  0  0  0  0  0  0  0  0  0  0
   -5.1405    1.5439    1.0155 N   0  0  0  0  0  0  0  0  0  0  0  0
   -5.9536    2.5841    1.0513 C   0  0  1  0  0  0  0  0  0  0  0  0
   -7.2976    2.4755    1.6877 C   0  0  0  0  0  0  0  0  0  0  0  0
   -8.1359    3.7023    1.6329 C   0  0  0  0  0  0  0  0  0  0  0  0
   -8.2206    4.5981    2.6648 C   0  0  0  0  0  0  0  0  0  0  0  0
   -9.0027    5.7243    2.5518 C   0  0  0  0  0  0  0  0  0  0  0  0
   -9.7317    6.0025    1.4038 C   0  0  0  0  0  0  0  0  0  0  0  0
   -9.6184    5.0767    0.3789 C   0  0  0  0  0  0  0  0  0  0  0  0
   -8.8494    3.9582    0.4752 C   0  0  0  0  0  0  0  0  0  0  0  0
   -5.1716    3.8037    1.5636 C   0  0  0  0  0  0  0  0  0  0  0  0
   -5.6286    5.0662    1.5201 O   0  0  0  0  0  0  0  0  0  0  0  0
   -4.0236    3.5855    2.0550 O   0  0  0  0  0  0  0  0  0  0  0  0
    2.9985    0.7344    1.6963 H   0  0  0  0  0  0  0  0  0  0  0  0
    1.3697   -0.0257    1.6269 H   0  0  0  0  0  0  0  0  0  0  0  0
    2.6841   -0.9704    2.3551 H   0  0  0  0  0  0  0  0  0  0  0  0
    2.8806   -1.9866    0.2759 H   0  0  0  0  0  0  0  0  0  0  0  0
    4.8300   -0.5229    0.5663 H   0  0  0  0  0  0  0  0  0  0  0  0
    6.5851    0.3699   -2.4564 H   0  0  0  0  0  0  0  0  0  0  0  0
    6.6307   -1.1061    0.1965 H   0  0  0  0  0  0  0  0  0  0  0  0
    7.9161   -0.9154   -1.0924 H   0  0  0  0  0  0  0  0  0  0  0  0
    5.4251   -2.9587    0.2991 H   0  0  0  0  0  0  0  0  0  0  0  0
    4.6231   -5.0575   -0.5731 H   0  0  0  0  0  0  0  0  0  0  0  0
    5.2261   -5.6916   -2.8735 H   0  0  0  0  0  0  0  0  0  0  0  0
    6.6006   -4.2059   -4.2783 H   0  0  0  0  0  0  0  0  0  0  0  0
    7.4054   -2.0194   -3.4088 H   0  0  0  0  0  0  0  0  0  0  0  0
    5.7851    1.6922    0.0638 H   0  0  0  0  0  0  0  0  0  0  0  0
    9.6830    3.9789   -0.5395 H   0  0  0  0  0  0  0  0  0  0  0  0
   10.0172    2.6756    0.5957 H   0  0  0  0  0  0  0  0  0  0  0  0
    9.8624    2.8653    2.8329 H   0  0  0  0  0  0  0  0  0  0  0  0
   10.0878    4.2423    4.8653 H   0  0  0  0  0  0  0  0  0  0  0  0
    9.7672    6.6804    4.7433 H   0  0  0  0  0  0  0  0  0  0  0  0
    9.2580    7.6936    2.5917 H   0  0  0  0  0  0  0  0  0  0  0  0
    9.0279    6.3030    0.5051 H   0  0  0  0  0  0  0  0  0  0  0  0
    0.6625   -2.1366    0.3539 H   0  0  0  0  0  0  0  0  0  0  0  0
   -0.5553   -1.2597   -2.2675 H   0  0  0  0  0  0  0  0  0  0  0  0
   -2.1541   -2.9921   -1.7962 H   0  0  0  0  0  0  0  0  0  0  0  0
   -1.4257   -3.4275   -0.2453 H   0  0  0  0  0  0  0  0  0  0  0  0
    0.7578   -3.9755   -1.7462 H   0  0  0  0  0  0  0  0  0  0  0  0
   -0.6331   -5.0659   -1.7766 H   0  0  0  0  0  0  0  0  0  0  0  0
   -1.5362   -3.9795   -3.8477 H   0  0  0  0  0  0  0  0  0  0  0  0
    0.0381   -4.7764   -3.9980 H   0  0  0  0  0  0  0  0  0  0  0  0
    0.7088   -2.0200   -3.8031 H   0  0  0  0  0  0  0  0  0  0  0  0
    0.7731   -0.7993   -6.2296 H   0  0  0  0  0  0  0  0  0  0  0  0
   -0.9731   -0.6395   -6.5869 H   0  0  0  0  0  0  0  0  0  0  0  0
   -1.3917   -4.2682   -5.8626 H   0  0  0  0  0  0  0  0  0  0  0  0
   -3.1965   -2.2884   -0.4201 H   0  0  0  0  0  0  0  0  0  0  0  0
   -4.1967    0.3881   -0.9385 H   0  0  0  0  0  0  0  0  0  0  0  0
   -5.6581   -1.3345   -1.4249 H   0  0  0  0  0  0  0  0  0  0  0  0
   -6.3386   -0.4787   -0.0366 H   0  0  0  0  0  0  0  0  0  0  0  0
   -5.1586   -3.7861   -1.3117 H   0  0  0  0  0  0  0  0  0  0  0  0
   -5.4628   -5.7332    0.4424 H   0  0  0  0  0  0  0  0  0  0  0  0
   -6.0733   -5.9271    3.1080 H   0  0  0  0  0  0  0  0  0  0  0  0
   -6.6098   -4.5142    5.1149 H   0  0  0  0  0  0  0  0  0  0  0  0
   -6.7021   -2.1029    4.9170 H   0  0  0  0  0  0  0  0  0  0  0  0
   -6.2530   -1.0161    2.7143 H   0  0  0  0  0  0  0  0  0  0  0  0
   -4.8494    1.7655    2.3432 H   0  0  0  0  0  0  0  0  0  0  0  0
   -6.1928    3.0084   -0.0368 H   0  0  0  0  0  0  0  0  0  0  0  0
   -7.1333    2.2567    2.7958 H   0  0  0  0  0  0  0  0  0  0  0  0
   -7.9255    1.6576    1.3009 H   0  0  0  0  0  0  0  0  0  0  0  0
   -7.6656    4.4350    3.5855 H   0  0  0  0  0  0  0  0  0  0  0  0
   -9.0433    6.4112    3.3963 H   0  0  0  0  0  0  0  0  0  0  0  0
  -10.3291    6.8921    1.3549 H   0  0  0  0  0  0  0  0  0  0  0  0
  -10.1932    5.3080   -0.5308 H   0  0  0  0  0  0  0  0  0  0  0  0
   -8.7779    3.2416   -0.3637 H   0  0  0  0  0  0  0  0  0  0  0  0
   -5.2585    5.8381    2.0929 H   0  0  0  0  0  0  0  0  0  0  0  0
  1  2  1  0
  2  3  1  0
  3  4  1  0
  4  5  2  0
  4  6  1  0
  6  7  1  0
  7  8  1  0
  8  9  2  0
  9 10  1  0
 10 11  2  0
 11 12  1  0
 12 13  2  0
  6 14  1  0
 14 15  1  0
 15 16  2  0
 15 17  1  0
 17 18  1  0
 18 19  1  0
 19 20  2  0
 20 21  1  0
 21 22  2  0
 22 23  1  0
 23 24  2  0
  2 25  1  0
 25 26  2  0
 25 27  1  0
 27 28  1  0
 28 29  1  0
 29 30  1  0
 30 31  1  0
 31 32  1  0
 32 33  1  0
 33 34  1  0
 33 35  2  3
 28 36  1  0
 36 37  2  0
 36 38  1  0
 38 39  1  0
 39 40  1  0
 40 41  1  0
 41 42  2  0
 42 43  1  0
 43 44  1  0
 44 45  2  0
 45 46  1  0
 46 47  2  0
 47 48  1  0
 48 49  2  0
 39 50  1  0
 50 51  2  0
 50 52  1  0
 52 53  1  0
 53 54  1  0
 54 55  1  0
 55 56  2  0
 56 57  1  0
 57 58  2  0
 58 59  1  0
 59 60  2  0
 53 61  1  0
 61 62  1  0
 61 63  2  0
 13  8  1  0
 24 19  1  0
 49 41  1  0
 60 55  1  0
 49 44  1  0
  1 64  1  0
  1 65  1  0
  1 66  1  0
  2 67  1  1
  3 68  1  0
  6 69  1  6
  7 70  1  0
  7 71  1  0
  9 72  1  0
 10 73  1  0
 11 74  1  0
 12 75  1  0
 13 76  1  0
 14 77  1  0
 18 78  1  0
 18 79  1  0
 20 80  1  0
 21 81  1  0
 22 82  1  0
 23 83  1  0
 24 84  1  0
 27 85  1  0
 28 86  1  6
 29 87  1  0
 29 88  1  0
 30 89  1  0
 30 90  1  0
 31 91  1  0
 31 92  1  0
 32 93  1  0
 34 94  1  0
 34 95  1  0
 35 96  1  0
 38 97  1  0
 39 98  1  6
 40 99  1  0
 40100  1  0
 42101  1  0
 43102  1  0
 45103  1  0
 46104  1  0
 47105  1  0
 48106  1  0
 52107  1  0
 53108  1  6
 54109  1  0
 54110  1  0
 56111  1  0
 57112  1  0
 58113  1  0
 59114  1  0
 60115  1  0
 62116  1  0
M  END
$$$$
[H]N(C(=O)[C@@]([H])(N([H])C(=O)[C@@]([H])(N([H])C(=O)[C@]([H])(N([H])C(=O)[C@@]([H])(C(=O)C([H])([H])[H])C([H])([H])[H])C([H])([H])[H])C([H])([H])[H])C([H])([H])[H])[C@]([H])(C(=O)N([H])[C@]([H])(C(=O)N([H])[C@]([H])(C(=O)N([H])[C@]([H])(C(=O)N([H])[C@]([H])(C(=O)N1C([H])([H])C([H])([H])C([H])([H])[C@]1([H])C(=O)N(C([H])([H])[H])C([H])([H])[H])C([H])([H])C([H])(C([H])([H])[H])C([H])([H])[H])C([H])([H])[H])C([H])([H])[H])C([H])([H])[H])C([H])([H])[H]
     RDKit          3D

126126  0  0  0  0  0  0  0  0999 V2000
  -12.6571   -2.9940    0.4984 C   0  0  0  0  0  0  0  0  0  0  0  0
  -11.9176   -3.3681   -0.6919 C   0  0  0  0  0  0  0  0  0  0  0  0
  -11.6857   -4.9322   -0.6628 C   0  0  0  0  0  0  0  0  0  0  0  0
  -10.6496   -2.7874   -1.1278 C   0  0  0  0  0  0  0  0  0  0  0  0
  -10.3855   -1.4208   -1.4739 C   0  0  2  0  0  0  0  0  0  0  0  0
   -8.9945   -1.4164   -2.0408 N   0  0  0  0  0  0  0  0  0  0  0  0
   -7.8928   -0.8302   -1.3908 C   0  0  0  0  0  0  0  0  0  0  0  0
   -8.1035   -0.2473   -0.2927 O   0  0  0  0  0  0  0  0  0  0  0  0
   -6.5203   -0.8531   -1.8949 C   0  0  2  0  0  0  0  0  0  0  0  0
   -5.9978   -2.3233   -1.8419 C   0  0  0  0  0  0  0  0  0  0  0  0
   -5.5807   -0.0834   -1.1027 N   0  0  0  0  0  0  0  0  0  0  0  0
   -4.3703    0.3963   -1.6121 C   0  0  0  0  0  0  0  0  0  0  0  0
   -4.1161    0.1246   -2.8372 O   0  0  0  0  0  0  0  0  0  0  0  0
   -3.3576    1.1720   -0.8895 C   0  0  2  0  0  0  0  0  0  0  0  0
   -3.4279    2.6531   -1.3061 C   0  0  0  0  0  0  0  0  0  0  0  0
   -2.0217    0.7288   -1.2498 N   0  0  0  0  0  0  0  0  0  0  0  0
   -0.9301    0.6494   -0.3341 C   0  0  0  0  0  0  0  0  0  0  0  0
   -1.1030    1.0102    0.8360 O   0  0  0  0  0  0  0  0  0  0  0  0
    0.3784    0.1423   -0.7669 C   0  0  2  0  0  0  0  0  0  0  0  0
    0.3173   -1.4226   -0.7400 C   0  0  0  0  0  0  0  0  0  0  0  0
    1.4912    0.5201    0.0931 N   0  0  0  0  0  0  0  0  0  0  0  0
    2.8253    0.4744   -0.4083 C   0  0  0  0  0  0  0  0  0  0  0  0
    2.9717    0.0864   -1.6165 O   0  0  0  0  0  0  0  0  0  0  0  0
    4.0108    0.8307    0.3619 C   0  0  2  0  0  0  0  0  0  0  0  0
    4.1403    2.3290    0.5519 C   0  0  0  0  0  0  0  0  0  0  0  0
    5.2106    0.3459   -0.3303 N   0  0  0  0  0  0  0  0  0  0  0  0
    6.1831   -0.4537    0.2773 C   0  0  0  0  0  0  0  0  0  0  0  0
    6.0092   -0.7527    1.5101 O   0  0  0  0  0  0  0  0  0  0  0  0
    7.3672   -0.9656   -0.3997 C   0  0  2  0  0  0  0  0  0  0  0  0
    6.9385   -1.9594   -1.5122 C   0  0  0  0  0  0  0  0  0  0  0  0
    8.2454   -1.6882    0.5176 N   0  0  0  0  0  0  0  0  0  0  0  0
    9.6623   -1.7007    0.3167 C   0  0  0  0  0  0  0  0  0  0  0  0
   10.1038   -1.0969   -0.6774 O   0  0  0  0  0  0  0  0  0  0  0  0
   10.5617   -2.4007    1.2583 C   0  0  2  0  0  0  0  0  0  0  0  0
   10.3642   -1.8797    2.6804 C   0  0  0  0  0  0  0  0  0  0  0  0
   11.9296   -2.2750    0.8764 N   0  0  0  0  0  0  0  0  0  0  0  0
   12.5791   -1.0451    0.7015 C   0  0  0  0  0  0  0  0  0  0  0  0
   12.0409    0.0905    0.8603 O   0  0  0  0  0  0  0  0  0  0  0  0
   14.0331   -1.0178    0.2924 C   0  0  1  0  0  0  0  0  0  0  0  0
   14.2752   -1.9383   -0.8650 C   0  0  0  0  0  0  0  0  0  0  0  0
   14.4386    0.3285    0.0394 N   0  0  0  0  0  0  0  0  0  0  0  0
   15.2760    1.1420    0.8173 C   0  0  0  0  0  0  0  0  0  0  0  0
   15.7700    0.6904    1.8874 O   0  0  0  0  0  0  0  0  0  0  0  0
   15.5840    2.5214    0.3894 C   0  0  2  0  0  0  0  0  0  0  0  0
   16.3096    2.4998   -0.9464 C   0  0  0  0  0  0  0  0  0  0  0  0
   16.3636    3.2970    1.3490 C   0  0  0  0  0  0  0  0  0  0  0  0
   17.7199    2.9366    1.8530 C   0  0  0  0  0  0  0  0  0  0  0  0
   15.9110    4.3635    1.8311 O   0  0  0  0  0  0  0  0  0  0  0  0
  -10.5852   -0.2101   -0.7705 C   0  0  0  0  0  0  0  0  0  0  0  0
  -10.2976    0.8256   -1.6665 O   0  0  0  0  0  0  0  0  0  0  0  0
  -10.9382    0.3686    0.4309 N   0  0  0  0  0  0  0  0  0  0  0  0
  -11.1467   -0.0923    1.7747 C   0  0  0  0  0  0  0  0  0  0  0  0
  -10.4096    0.9760    2.6009 C   0  0  0  0  0  0  0  0  0  0  0  0
  -10.7637    2.2305    1.8477 C   0  0  0  0  0  0  0  0  0  0  0  0
  -11.3013    1.8284    0.5311 C   0  0  2  0  0  0  0  0  0  0  0  0
  -12.7958    1.9289    0.4965 C   0  0  0  0  0  0  0  0  0  0  0  0
  -13.4954    0.8700    0.3362 O   0  0  0  0  0  0  0  0  0  0  0  0
  -13.5042    3.1382    0.6299 N   0  0  0  0  0  0  0  0  0  0  0  0
  -12.8045    4.3840    0.7836 C   0  0  0  0  0  0  0  0  0  0  0  0
  -14.9428    3.1426    0.6202 C   0  0  0  0  0  0  0  0  0  0  0  0
  -13.4886   -3.7605    0.6810 H   0  0  0  0  0  0  0  0  0  0  0  0
  -13.1917   -2.0005    0.4205 H   0  0  0  0  0  0  0  0  0  0  0  0
  -12.0858   -2.9686    1.4488 H   0  0  0  0  0  0  0  0  0  0  0  0
  -12.6708   -3.2556   -1.5738 H   0  0  0  0  0  0  0  0  0  0  0  0
  -12.5355   -5.3312   -0.0930 H   0  0  0  0  0  0  0  0  0  0  0  0
  -10.7073   -5.1054   -0.1929 H   0  0  0  0  0  0  0  0  0  0  0  0
  -11.6752   -5.3043   -1.6908 H   0  0  0  0  0  0  0  0  0  0  0  0
  -10.2147   -3.4704   -1.9955 H   0  0  0  0  0  0  0  0  0  0  0  0
   -9.8853   -3.1587   -0.3120 H   0  0  0  0  0  0  0  0  0  0  0  0
  -10.9796   -1.2698   -2.5078 H   0  0  0  0  0  0  0  0  0  0  0  0
   -8.8615   -1.8736   -2.9554 H   0  0  0  0  0  0  0  0  0  0  0  0
   -6.4449   -0.5939   -2.9449 H   0  0  0  0  0  0  0  0  0  0  0  0
   -5.5396   -2.5234   -0.8612 H   0  0  0  0  0  0  0  0  0  0  0  0
   -6.8047   -2.9850   -2.1425 H   0  0  0  0  0  0  0  0  0  0  0  0
   -5.1988   -2.3668   -2.6044 H   0  0  0  0  0  0  0  0  0  0  0  0
   -5.8373    0.1117   -0.1149 H   0  0  0  0  0  0  0  0  0  0  0  0
   -3.5361    1.1374    0.1919 H   0  0  0  0  0  0  0  0  0  0  0  0
   -3.0626    3.2465   -0.4224 H   0  0  0  0  0  0  0  0  0  0  0  0
   -2.8280    2.8338   -2.2002 H   0  0  0  0  0  0  0  0  0  0  0  0
   -4.4901    2.8805   -1.4950 H   0  0  0  0  0  0  0  0  0  0  0  0
   -1.8416    0.4566   -2.2445 H   0  0  0  0  0  0  0  0  0  0  0  0
    0.5895    0.3661   -1.8098 H   0  0  0  0  0  0  0  0  0  0  0  0
   -0.7475   -1.6717   -0.8958 H   0  0  0  0  0  0  0  0  0  0  0  0
    0.9674   -1.7652   -1.5443 H   0  0  0  0  0  0  0  0  0  0  0  0
    0.6635   -1.7120    0.2895 H   0  0  0  0  0  0  0  0  0  0  0  0
    1.2973    0.8230    1.0702 H   0  0  0  0  0  0  0  0  0  0  0  0
    3.9513    0.4068    1.3804 H   0  0  0  0  0  0  0  0  0  0  0  0
    5.1381    2.5532    1.0329 H   0  0  0  0  0  0  0  0  0  0  0  0
    4.1630    2.8644   -0.4102 H   0  0  0  0  0  0  0  0  0  0  0  0
    3.4002    2.7235    1.2639 H   0  0  0  0  0  0  0  0  0  0  0  0
    5.3037    0.6355   -1.3272 H   0  0  0  0  0  0  0  0  0  0  0  0
    7.9598   -0.2200   -0.9438 H   0  0  0  0  0  0  0  0  0  0  0  0
    6.2857   -2.7550   -1.1070 H   0  0  0  0  0  0  0  0  0  0  0  0
    7.8642   -2.4331   -1.8701 H   0  0  0  0  0  0  0  0  0  0  0  0
    6.4203   -1.3475   -2.2803 H   0  0  0  0  0  0  0  0  0  0  0  0
    7.7949   -2.1800    1.3083 H   0  0  0  0  0  0  0  0  0  0  0  0
   10.2569   -3.4900    1.2943 H   0  0  0  0  0  0  0  0  0  0  0  0
    9.6687   -2.5305    3.2594 H   0  0  0  0  0  0  0  0  0  0  0  0
   10.0424   -0.8289    2.6594 H   0  0  0  0  0  0  0  0  0  0  0  0
   11.3580   -1.9335    3.1622 H   0  0  0  0  0  0  0  0  0  0  0  0
   12.4849   -3.1367    0.7165 H   0  0  0  0  0  0  0  0  0  0  0  0
   14.5637   -1.3682    1.2278 H   0  0  0  0  0  0  0  0  0  0  0  0
   13.4392   -1.9204   -1.5790 H   0  0  0  0  0  0  0  0  0  0  0  0
   15.2017   -1.6387   -1.4256 H   0  0  0  0  0  0  0  0  0  0  0  0
   14.4682   -2.9681   -0.4615 H   0  0  0  0  0  0  0  0  0  0  0  0
   14.0460    0.7488   -0.8638 H   0  0  0  0  0  0  0  0  0  0  0  0
   14.5900    3.0124    0.2091 H   0  0  0  0  0  0  0  0  0  0  0  0
   17.3833    2.3136   -0.8193 H   0  0  0  0  0  0  0  0  0  0  0  0
   15.8438    1.6893   -1.5608 H   0  0  0  0  0  0  0  0  0  0  0  0
   16.1013    3.4443   -1.4653 H   0  0  0  0  0  0  0  0  0  0  0  0
   17.9436    1.8426    1.7250 H   0  0  0  0  0  0  0  0  0  0  0  0
   18.4948    3.5039    1.2902 H   0  0  0  0  0  0  0  0  0  0  0  0
   17.7898    3.2355    2.9277 H   0  0  0  0  0  0  0  0  0  0  0  0
  -10.6648   -1.0864    1.9584 H   0  0  0  0  0  0  0  0  0  0  0  0
  -12.1802   -0.0532    2.1043 H   0  0  0  0  0  0  0  0  0  0  0  0
  -10.7490    1.0038    3.6490 H   0  0  0  0  0  0  0  0  0  0  0  0
   -9.3265    0.7421    2.5018 H   0  0  0  0  0  0  0  0  0  0  0  0
  -11.5505    2.7513    2.4574 H   0  0  0  0  0  0  0  0  0  0  0  0
   -9.8665    2.8839    1.7279 H   0  0  0  0  0  0  0  0  0  0  0  0
  -10.8508    2.3758   -0.3270 H   0  0  0  0  0  0  0  0  0  0  0  0
  -11.7374    4.3389    0.5157 H   0  0  0  0  0  0  0  0  0  0  0  0
  -13.2680    5.1393    0.0755 H   0  0  0  0  0  0  0  0  0  0  0  0
  -12.9542    4.8498    1.7868 H   0  0  0  0  0  0  0  0  0  0  0  0
  -15.2405    2.3755   -0.1608 H   0  0  0  0  0  0  0  0  0  0  0  0
  -15.3791    2.7537    1.5579 H   0  0  0  0  0  0  0  0  0  0  0  0
  -15.3949    4.0925    0.2993 H   0  0  0  0  0  0  0  0  0  0  0  0
  1  2  1  0
  2  3  1  0
  2  4  1  0
  4  5  1  0
  5  6  1  0
  6  7  1  0
  7  8  2  0
  7  9  1  0
  9 10  1  0
  9 11  1  0
 11 12  1  0
 12 13  2  0
 12 14  1  0
 14 15  1  0
 14 16  1  0
 16 17  1  0
 17 18  2  0
 17 19  1  0
 19 20  1  0
 19 21  1  0
 21 22  1  0
 22 23  2  0
 22 24  1  0
 24 25  1  0
 24 26  1  0
 26 27  1  0
 27 28  2  0
 27 29  1  0
 29 30  1  0
 29 31  1  0
 31 32  1  0
 32 33  2  0
 32 34  1  0
 34 35  1  0
 34 36  1  0
 36 37  1  0
 37 38  2  0
 37 39  1  0
 39 40  1  0
 39 41  1  0
 41 42  1  0
 42 43  2  0
 42 44  1  0
 44 45  1  0
 44 46  1  0
 46 47  1  0
 46 48  2  0
  5 49  1  0
 49 50  2  0
 49 51  1  0
 51 52  1  0
 52 53  1  0
 53 54  1  0
 54 55  1  0
 55 56  1  0
 56 57  2  0
 56 58  1  0
 58 59  1  0
 58 60  1  0
 55 51  1  0
  1 61  1  0
  1 62  1  0
  1 63  1  0
  2 64  1  0
  3 65  1  0
  3 66  1  0
  3 67  1  0
  4 68  1  0
  4 69  1  0
  5 70  1  6
  6 71  1  0
  9 72  1  6
 10 73  1  0
 10 74  1  0
 10 75  1  0
 11 76  1  0
 14 77  1  1
 15 78  1  0
 15 79  1  0
 15 80  1  0
 16 81  1  0
 19 82  1  6
 20 83  1  0
 20 84  1  0
 20 85  1  0
 21 86  1  0
 24 87  1  1
 25 88  1  0
 25 89  1  0
 25 90  1  0
 26 91  1  0
 29 92  1  6
 30 93  1  0
 30 94  1  0
 30 95  1  0
 31 96  1  0
 34 97  1  1
 35 98  1  0
 35 99  1  0
 35100  1  0
 36101  1  0
 39102  1  1
 40103  1  0
 40104  1  0
 40105  1  0
 41106  1  0
 44107  1  6
 45108  1  0
 45109  1  0
 45110  1  0
 47111  1  0
 47112  1  0
 47113  1  0
 52114  1  0
 52115  1  0
 53116  1  0
 53117  1  0
 54118  1  0
 54119  1  0
 55120  1  6
 59121  1  0
 59122  1  0
 59123  1  0
 60124  1  0
 60125  1  0
 60126  1  0
M  END
$$$$
[H]c1c([H])c(N([H])C(=O)c2c([H])c(C(=O)N([H])c3c([H])c([H])c(C(F)(F)F)c([H])c3[H])c([H])c([H])c2OC([H])(C([H])([H])[H])C([H])([H])[H])c([H])c(C(F)(F)F)c1[H]
     RDKit          3D

 56 58  0  0  0  0  0  0  0  0999 V2000
   -3.6894   -4.3265    1.3951 C   0  0  0  0  0  0  0  0  0  0  0  0
   -2.2445   -3.9398    1.2481 C   0  0  0  0  0  0  0  0  0  0  0  0
   -1.6710   -5.0107    0.2773 C   0  0  0  0  0  0  0  0  0  0  0  0
   -2.0736   -2.6514    0.6631 O   0  0  0  0  0  0  0  0  0  0  0  0
   -0.7851   -2.0668    0.6647 C   0  0  0  0  0  0  0  0  0  0  0  0
    0.2804   -2.7399    1.2206 C   0  0  0  0  0  0  0  0  0  0  0  0
    1.5789   -2.1917    1.2189 C   0  0  0  0  0  0  0  0  0  0  0  0
    1.7984   -0.9572    0.6489 C   0  0  0  0  0  0  0  0  0  0  0  0
    0.7479   -0.2993    0.1084 C   0  0  0  0  0  0  0  0  0  0  0  0
   -0.5754   -0.8532    0.1123 C   0  0  0  0  0  0  0  0  0  0  0  0
   -1.6348    0.0556   -0.2963 C   0  0  0  0  0  0  0  0  0  0  0  0
   -1.2428    1.1521   -0.8513 O   0  0  0  0  0  0  0  0  0  0  0  0
   -3.0286   -0.0729   -0.1766 N   0  0  0  0  0  0  0  0  0  0  0  0
   -3.9345    0.9748   -0.6257 C   0  0  0  0  0  0  0  0  0  0  0  0
   -3.6717    1.7669   -1.6948 C   0  0  0  0  0  0  0  0  0  0  0  0
   -4.5093    2.8423   -2.0211 C   0  0  0  0  0  0  0  0  0  0  0  0
   -5.6409    3.1322   -1.2551 C   0  0  0  0  0  0  0  0  0  0  0  0
   -5.9235    2.3453   -0.1817 C   0  0  0  0  0  0  0  0  0  0  0  0
   -5.0749    1.2862    0.1119 C   0  0  0  0  0  0  0  0  0  0  0  0
   -7.1288    2.6211    0.6632 C   0  0  0  0  0  0  0  0  0  0  0  0
   -8.2045    2.7878   -0.2073 F   0  0  0  0  0  0  0  0  0  0  0  0
   -7.0048    3.8108    1.3655 F   0  0  0  0  0  0  0  0  0  0  0  0
   -7.3195    1.5524    1.4753 F   0  0  0  0  0  0  0  0  0  0  0  0
    3.1349   -0.3154    0.6193 C   0  0  0  0  0  0  0  0  0  0  0  0
    3.9304   -0.3196    1.6092 O   0  0  0  0  0  0  0  0  0  0  0  0
    3.5829    0.3638   -0.5585 N   0  0  0  0  0  0  0  0  0  0  0  0
    4.8795    0.9705   -0.4436 C   0  0  0  0  0  0  0  0  0  0  0  0
    6.0411    0.3065   -0.1897 C   0  0  0  0  0  0  0  0  0  0  0  0
    7.2136    1.0520   -0.0126 C   0  0  0  0  0  0  0  0  0  0  0  0
    7.1581    2.4175   -0.0937 C   0  0  0  0  0  0  0  0  0  0  0  0
    5.9964    3.0871   -0.3481 C   0  0  0  0  0  0  0  0  0  0  0  0
    4.8452    2.3536   -0.5267 C   0  0  0  0  0  0  0  0  0  0  0  0
    8.3718    3.2794    0.1198 C   0  0  0  0  0  0  0  0  0  0  0  0
    9.4380    2.5015    0.5029 F   0  0  0  0  0  0  0  0  0  0  0  0
    8.0674    4.1444    1.1479 F   0  0  0  0  0  0  0  0  0  0  0  0
    8.7366    3.9330   -1.0212 F   0  0  0  0  0  0  0  0  0  0  0  0
   -4.3433   -3.5809    1.8703 H   0  0  0  0  0  0  0  0  0  0  0  0
   -4.1457   -4.5680    0.3611 H   0  0  0  0  0  0  0  0  0  0  0  0
   -3.7603   -5.3414    1.8902 H   0  0  0  0  0  0  0  0  0  0  0  0
   -1.7067   -4.0915    2.2077 H   0  0  0  0  0  0  0  0  0  0  0  0
   -1.9452   -4.7343   -0.7212 H   0  0  0  0  0  0  0  0  0  0  0  0
   -2.2268   -5.9646    0.5660 H   0  0  0  0  0  0  0  0  0  0  0  0
   -0.6378   -5.2511    0.4572 H   0  0  0  0  0  0  0  0  0  0  0  0
    0.1472   -3.6819    1.7323 H   0  0  0  0  0  0  0  0  0  0  0  0
    2.4203   -2.7096    1.6286 H   0  0  0  0  0  0  0  0  0  0  0  0
    0.8666    0.6618   -0.3791 H   0  0  0  0  0  0  0  0  0  0  0  0
   -3.4846   -0.8933    0.2322 H   0  0  0  0  0  0  0  0  0  0  0  0
   -2.8315    1.6600   -2.3729 H   0  0  0  0  0  0  0  0  0  0  0  0
   -4.3174    3.4713   -2.8529 H   0  0  0  0  0  0  0  0  0  0  0  0
   -6.2969    3.9646   -1.4673 H   0  0  0  0  0  0  0  0  0  0  0  0
   -5.2868    0.6997    0.9757 H   0  0  0  0  0  0  0  0  0  0  0  0
    3.0206    0.4341   -1.4406 H   0  0  0  0  0  0  0  0  0  0  0  0
    6.0711   -0.7613   -0.1121 H   0  0  0  0  0  0  0  0  0  0  0  0
    8.1586    0.5939    0.2195 H   0  0  0  0  0  0  0  0  0  0  0  0
    5.9355    4.1828   -0.4084 H   0  0  0  0  0  0  0  0  0  0  0  0
    3.9196    2.9175   -0.7277 H   0  0  0  0  0  0  0  0  0  0  0  0
  1  2  1  0
  2  3  1  0
  2  4  1  0
  4  5  1  0
  5  6  2  0
  6  7  1  0
  7  8  2  0
  8  9  1  0
  9 10  2  0
 10 11  1  0
 11 12  2  0
 11 13  1  0
 13 14  1  0
 14 15  2  0
 15 16  1  0
 16 17  2  0
 17 18  1  0
 18 19  2  0
 18 20  1  0
 20 21  1  0
 20 22  1  0
 20 23  1  0
  8 24  1  0
 24 25  2  0
 24 26  1  0
 26 27  1  0
 27 28  2  0
 28 29  1  0
 29 30  2  0
 30 31  1  0
 31 32  2  0
 30 33  1  0
 33 34  1  0
 33 35  1  0
 33 36  1  0
 10  5  1  0
 19 14  1  0
 32 27  1  0
  1 37  1  0
  1 38  1  0
  1 39  1  0
  2 40  1  0
  3 41  1  0
  3 42  1  0
  3 43  1  0
  6 44  1  0
  7 45  1  0
  9 46  1  0
 13 47  1  0
 15 48  1  0
 16 49  1  0
 17 50  1  0
 19 51  1  0
 26 52  1  0
 28 53  1  0
 29 54  1  0
 31 55  1  0
 32 56  1  0
M  END
$$$$
[H]c1c([H])c(C(=O)N([H])[C@]([H])(c2c([H])c([H])c(OC([H])([H])[H])c(OC([H])([H])[H])c2[H])C([H])([H])c2c([H])n([H])c3c([H])c([H])c([H])c([H])c23)c([H])c(C(F)(F)F)c1[H]
     RDKit          3D

 57 60  0  0  0  0  0  0  0  0999 V2000
   -5.9467   -1.9155   -1.2298 C   0  0  0  0  0  0  0  0  0  0  0  0
   -4.9439   -2.5743   -0.4401 O   0  0  0  0  0  0  0  0  0  0  0  0
   -3.7429   -1.9121   -0.2258 C   0  0  0  0  0  0  0  0  0  0  0  0
   -3.5397   -0.6827   -0.7566 C   0  0  0  0  0  0  0  0  0  0  0  0
   -2.3169   -0.0544   -0.5454 C   0  0  0  0  0  0  0  0  0  0  0  0
   -1.3122   -0.6337    0.1819 C   0  0  0  0  0  0  0  0  0  0  0  0
   -1.5286   -1.9113    0.7341 C   0  0  0  0  0  0  0  0  0  0  0  0
   -2.7379   -2.5364    0.5281 C   0  0  0  0  0  0  0  0  0  0  0  0
   -3.1150   -3.7663    0.9879 O   0  0  0  0  0  0  0  0  0  0  0  0
   -2.4791   -4.6709    1.7760 C   0  0  0  0  0  0  0  0  0  0  0  0
   -0.0348    0.0163    0.3334 C   0  0  2  0  0  0  0  0  0  0  0  0
    0.0869    1.4318   -0.1563 C   0  0  0  0  0  0  0  0  0  0  0  0
   -0.6759    2.4493    0.5563 C   0  0  0  0  0  0  0  0  0  0  0  0
   -1.5948    2.3948    1.5938 C   0  0  0  0  0  0  0  0  0  0  0  0
   -1.9209    3.6468    1.8975 N   0  0  0  0  0  0  0  0  0  0  0  0
   -1.2700    4.5254    1.1134 C   0  0  0  0  0  0  0  0  0  0  0  0
   -1.2850    5.8868    1.0724 C   0  0  0  0  0  0  0  0  0  0  0  0
   -0.4802    6.5363    0.1664 C   0  0  0  0  0  0  0  0  0  0  0  0
    0.3269    5.8516   -0.7051 C   0  0  0  0  0  0  0  0  0  0  0  0
    0.3265    4.4519   -0.6555 C   0  0  0  0  0  0  0  0  0  0  0  0
   -0.4848    3.8019    0.2678 C   0  0  0  0  0  0  0  0  0  0  0  0
    1.1736   -0.6624    0.0638 N   0  0  0  0  0  0  0  0  0  0  0  0
    1.8458   -0.7719   -1.1835 C   0  0  0  0  0  0  0  0  0  0  0  0
    1.3891   -0.2711   -2.2725 O   0  0  0  0  0  0  0  0  0  0  0  0
    3.1310   -1.4597   -1.2900 C   0  0  0  0  0  0  0  0  0  0  0  0
    3.5867   -2.1618   -2.3514 C   0  0  0  0  0  0  0  0  0  0  0  0
    4.8261   -2.7607   -2.3464 C   0  0  0  0  0  0  0  0  0  0  0  0
    5.6502   -2.6500   -1.2119 C   0  0  0  0  0  0  0  0  0  0  0  0
    5.2150   -1.9287   -0.1131 C   0  0  0  0  0  0  0  0  0  0  0  0
    3.9670   -1.3527   -0.1810 C   0  0  0  0  0  0  0  0  0  0  0  0
    6.0276   -1.7756    1.1406 C   0  0  0  0  0  0  0  0  0  0  0  0
    7.3786   -1.6949    0.8837 F   0  0  0  0  0  0  0  0  0  0  0  0
    5.6602   -0.5756    1.7378 F   0  0  0  0  0  0  0  0  0  0  0  0
    5.8401   -2.8219    2.0020 F   0  0  0  0  0  0  0  0  0  0  0  0
   -5.5964   -1.8137   -2.2906 H   0  0  0  0  0  0  0  0  0  0  0  0
   -6.2480   -0.9572   -0.8271 H   0  0  0  0  0  0  0  0  0  0  0  0
   -6.8686   -2.5648   -1.2355 H   0  0  0  0  0  0  0  0  0  0  0  0
   -4.3332   -0.1880   -1.3263 H   0  0  0  0  0  0  0  0  0  0  0  0
   -2.2404    0.9207   -1.0245 H   0  0  0  0  0  0  0  0  0  0  0  0
   -0.7799   -2.4289    1.2966 H   0  0  0  0  0  0  0  0  0  0  0  0
   -2.6014   -4.4015    2.8923 H   0  0  0  0  0  0  0  0  0  0  0  0
   -2.9214   -5.7071    1.6752 H   0  0  0  0  0  0  0  0  0  0  0  0
   -1.4042   -4.7429    1.5715 H   0  0  0  0  0  0  0  0  0  0  0  0
    0.0121    0.1586    1.5277 H   0  0  0  0  0  0  0  0  0  0  0  0
   -0.2480    1.4465   -1.2502 H   0  0  0  0  0  0  0  0  0  0  0  0
    1.1546    1.7525   -0.2227 H   0  0  0  0  0  0  0  0  0  0  0  0
   -1.9436    1.5230    2.0905 H   0  0  0  0  0  0  0  0  0  0  0  0
   -2.5832    3.9445    2.6388 H   0  0  0  0  0  0  0  0  0  0  0  0
   -1.9154    6.4302    1.7446 H   0  0  0  0  0  0  0  0  0  0  0  0
   -0.4853    7.6080    0.1379 H   0  0  0  0  0  0  0  0  0  0  0  0
    0.9782    6.2989   -1.4312 H   0  0  0  0  0  0  0  0  0  0  0  0
    0.9583    3.9012   -1.3423 H   0  0  0  0  0  0  0  0  0  0  0  0
    1.6500   -1.1722    0.8772 H   0  0  0  0  0  0  0  0  0  0  0  0
    2.9394   -2.2450   -3.2030 H   0  0  0  0  0  0  0  0  0  0  0  0
    5.2158   -3.3384   -3.1709 H   0  0  0  0  0  0  0  0  0  0  0  0
    6.6240   -3.1085   -1.1831 H   0  0  0  0  0  0  0  0  0  0  0  0
    3.6150   -0.7646    0.6827 H   0  0  0  0  0  0  0  0  0  0  0  0
  1  2  1  0
  2  3  1  0
  3  4  2  0
  4  5  1  0
  5  6  2  0
  6  7  1  0
  7  8  2  0
  8  9  1  0
  9 10  1  0
  6 11  1  0
 11 12  1  0
 12 13  1  0
 13 14  2  0
 14 15  1  0
 15 16  1  0
 16 17  2  0
 17 18  1  0
 18 19  2  0
 19 20  1  0
 20 21  2  0
 11 22  1  0
 22 23  1  0
 23 24  2  0
 23 25  1  0
 25 26  2  0
 26 27  1  0
 27 28  2  0
 28 29  1  0
 29 30  2  0
 29 31  1  0
 31 32  1  0
 31 33  1  0
 31 34  1  0
  8  3  1  0
 21 13  1  0
 30 25  1  0
 21 16  1  0
  1 35  1  0
  1 36  1  0
  1 37  1  0
  4 38  1  0
  5 39  1  0
  7 40  1  0
 10 41  1  0
 10 42  1  0
 10 43  1  0
 11 44  1  1
 12 45  1  0
 12 46  1  0
 14 47  1  0
 15 48  1  0
 17 49  1  0
 18 50  1  0
 19 51  1  0
 20 52  1  0
 22 53  1  0
 26 54  1  0
 27 55  1  0
 28 56  1  0
 30 57  1  0
M  END
$$$$
[H]c1c([H])c([H])c(C2([H])C([H])([H])C([H])([H])N(C(=O)N([H])c3c([H])c([H])c(S(=O)(=O)N([H])[H])c([H])c3[H])C([H])([H])C2([H])[H])c([H])c1[H]
     RDKit          3D

 46 48  0  0  0  0  0  0  0  0999 V2000
    8.3086   -0.1395   -0.7158 N   0  0  0  0  0  0  0  0  0  0  0  0
    7.4220    1.3107   -0.5170 S   0  0  0  0  0  0  0  0  0  0  0  0
    7.5986    2.2701   -1.6477 O   0  0  0  0  0  0  0  0  0  0  0  0
    7.8264    1.9182    0.8040 O   0  0  0  0  0  0  0  0  0  0  0  0
    5.7232    0.8890   -0.3810 C   0  0  0  0  0  0  0  0  0  0  0  0
    5.1715    0.6334    0.8460 C   0  0  0  0  0  0  0  0  0  0  0  0
    3.8147    0.2944    0.9777 C   0  0  0  0  0  0  0  0  0  0  0  0
    2.9793    0.2024   -0.1014 C   0  0  0  0  0  0  0  0  0  0  0  0
    1.6031   -0.1190   -0.0519 N   0  0  0  0  0  0  0  0  0  0  0  0
    0.7699   -0.2319    1.0659 C   0  0  0  0  0  0  0  0  0  0  0  0
    1.1952   -0.0400    2.2179 O   0  0  0  0  0  0  0  0  0  0  0  0
   -0.5888   -0.5686    0.9256 N   0  0  0  0  0  0  0  0  0  0  0  0
   -1.1955   -0.8259   -0.3506 C   0  0  0  0  0  0  0  0  0  0  0  0
   -2.5070   -1.5696   -0.2499 C   0  0  0  0  0  0  0  0  0  0  0  0
   -3.4493   -1.0408    0.7643 C   0  0  0  0  0  0  0  0  0  0  0  0
   -2.7880   -0.0645    1.6672 C   0  0  0  0  0  0  0  0  0  0  0  0
   -1.4330   -0.6581    2.0867 C   0  0  0  0  0  0  0  0  0  0  0  0
   -4.6619   -0.4059    0.1415 C   0  0  0  0  0  0  0  0  0  0  0  0
   -5.9322   -0.8818    0.3795 C   0  0  0  0  0  0  0  0  0  0  0  0
   -7.0458   -0.2790   -0.2067 C   0  0  0  0  0  0  0  0  0  0  0  0
   -6.9154    0.8100   -1.0415 C   0  0  0  0  0  0  0  0  0  0  0  0
   -5.6439    1.2852   -1.2787 C   0  0  0  0  0  0  0  0  0  0  0  0
   -4.5270    0.6798   -0.6902 C   0  0  0  0  0  0  0  0  0  0  0  0
    3.5724    0.4692   -1.3433 C   0  0  0  0  0  0  0  0  0  0  0  0
    4.9011    0.8016   -1.4776 C   0  0  0  0  0  0  0  0  0  0  0  0
    8.7402   -0.1811   -1.6772 H   0  0  0  0  0  0  0  0  0  0  0  0
    9.0210   -0.2957    0.0310 H   0  0  0  0  0  0  0  0  0  0  0  0
    5.7950    0.6952    1.7224 H   0  0  0  0  0  0  0  0  0  0  0  0
    3.4540    0.1017    1.9605 H   0  0  0  0  0  0  0  0  0  0  0  0
    1.1135   -0.3067   -0.9991 H   0  0  0  0  0  0  0  0  0  0  0  0
   -0.5284   -1.4487   -0.9986 H   0  0  0  0  0  0  0  0  0  0  0  0
   -1.3738    0.1101   -0.9087 H   0  0  0  0  0  0  0  0  0  0  0  0
   -2.2168   -2.6268    0.0224 H   0  0  0  0  0  0  0  0  0  0  0  0
   -2.9281   -1.5934   -1.2806 H   0  0  0  0  0  0  0  0  0  0  0  0
   -3.8089   -1.8935    1.4197 H   0  0  0  0  0  0  0  0  0  0  0  0
   -3.3753    0.0357    2.5956 H   0  0  0  0  0  0  0  0  0  0  0  0
   -2.6304    0.9109    1.1560 H   0  0  0  0  0  0  0  0  0  0  0  0
   -1.6228   -1.7055    2.3554 H   0  0  0  0  0  0  0  0  0  0  0  0
   -1.0844   -0.0633    2.9377 H   0  0  0  0  0  0  0  0  0  0  0  0
   -6.0649   -1.7446    1.0378 H   0  0  0  0  0  0  0  0  0  0  0  0
   -8.0482   -0.6380   -0.0318 H   0  0  0  0  0  0  0  0  0  0  0  0
   -7.7808    1.2822   -1.5000 H   0  0  0  0  0  0  0  0  0  0  0  0
   -5.5393    2.1413   -1.9348 H   0  0  0  0  0  0  0  0  0  0  0  0
   -3.5601    1.0806   -0.9007 H   0  0  0  0  0  0  0  0  0  0  0  0
    2.9108    0.3989   -2.2170 H   0  0  0  0  0  0  0  0  0  0  0  0
    5.3296    1.0012   -2.4439 H   0  0  0  0  0  0  0  0  0  0  0  0
  1  2  1  0
  2  3  2  0
  2  4  2  0
  2  5  1  0
  5  6  2  0
  6  7  1  0
  7  8  2  0
  8  9  1  0
  9 10  1  0
 10 11  2  0
 10 12  1  0
 12 13  1  0
 13 14  1  0
 14 15  1  0
 15 16  1  0
 16 17  1  0
 15 18  1  0
 18 19  2  0
 19 20  1  0
 20 21  2  0
 21 22  1  0
 22 23  2  0
  8 24  1  0
 24 25  2  0
 25  5  1  0
 17 12  1  0
 23 18  1  0
  1 26  1  0
  1 27  1  0
  6 28  1  0
  7 29  1  0
  9 30  1  0
 13 31  1  0
 13 32  1  0
 14 33  1  0
 14 34  1  0
 15 35  1  0
 16 36  1  0
 16 37  1  0
 17 38  1  0
 17 39  1  0
 19 40  1  0
 20 41  1  0
 21 42  1  0
 22 43  1  0
 23 44  1  0
 24 45  1  0
 25 46  1  0
M  END
$$$$
[H]N(C(=O)[C@@]([H])(N([H])C(=O)[C@@]([H])(N([H])C(=O)C(C([H])([H])[H])(C([H])([H])[H])C([H])([H])[H])C(C([H])([H])[H])(C([H])([H])[H])C([H])([H])[H])C([H])([H])C([H])(C([H])([H])[H])C([H])([H])[H])[C@]([H])(C(=O)N1C([H])([H])C([H])([H])C([H])([H])[C@]1([H])C#N)C([H])([H])[H]
     RDKit          3D

 77 77  0  0  0  0  0  0  0  0999 V2000
    0.9940   -2.2813   -3.3754 C   0  0  0  0  0  0  0  0  0  0  0  0
    0.0203   -3.1247   -2.6599 C   0  0  0  0  0  0  0  0  0  0  0  0
    0.6580   -4.5169   -2.5291 C   0  0  0  0  0  0  0  0  0  0  0  0
   -0.5857   -2.6632   -1.4147 C   0  0  0  0  0  0  0  0  0  0  0  0
    0.1245   -2.3872   -0.1761 C   0  0  2  0  0  0  0  0  0  0  0  0
   -0.8272   -1.9265    0.8659 N   0  0  0  0  0  0  0  0  0  0  0  0
   -1.6532   -0.8032    0.7882 C   0  0  0  0  0  0  0  0  0  0  0  0
   -1.6202   -0.0683   -0.2417 O   0  0  0  0  0  0  0  0  0  0  0  0
   -2.6086   -0.3530    1.8337 C   0  0  1  0  0  0  0  0  0  0  0  0
   -3.1283    0.9762    1.4571 N   0  0  0  0  0  0  0  0  0  0  0  0
   -3.0752    2.0488    2.3585 C   0  0  0  0  0  0  0  0  0  0  0  0
   -2.5827    1.8757    3.5082 O   0  0  0  0  0  0  0  0  0  0  0  0
   -3.5732    3.3876    2.0174 C   0  0  0  0  0  0  0  0  0  0  0  0
   -5.0121    3.3066    1.5633 C   0  0  0  0  0  0  0  0  0  0  0  0
   -3.5484    4.3145    3.2126 C   0  0  0  0  0  0  0  0  0  0  0  0
   -2.7945    4.0288    0.8866 C   0  0  0  0  0  0  0  0  0  0  0  0
   -3.8311   -1.2811    1.9056 C   0  0  0  0  0  0  0  0  0  0  0  0
   -4.5456   -1.3080    0.5799 C   0  0  0  0  0  0  0  0  0  0  0  0
   -3.4876   -2.6635    2.3223 C   0  0  0  0  0  0  0  0  0  0  0  0
   -4.7859   -0.7363    2.9885 C   0  0  0  0  0  0  0  0  0  0  0  0
    1.2233   -1.4519   -0.1708 C   0  0  0  0  0  0  0  0  0  0  0  0
    1.0597   -0.2422    0.2635 O   0  0  0  0  0  0  0  0  0  0  0  0
    2.5838   -1.6824   -0.5963 N   0  0  0  0  0  0  0  0  0  0  0  0
    3.5753   -0.6494   -0.4978 C   0  0  1  0  0  0  0  0  0  0  0  0
    4.5872   -0.9925    0.6024 C   0  0  0  0  0  0  0  0  0  0  0  0
    4.3622   -0.3542   -1.6921 C   0  0  0  0  0  0  0  0  0  0  0  0
    4.2796   -1.0934   -2.7101 O   0  0  0  0  0  0  0  0  0  0  0  0
    5.2259    0.7713   -1.7177 N   0  0  0  0  0  0  0  0  0  0  0  0
    6.0658    1.1859   -2.8126 C   0  0  0  0  0  0  0  0  0  0  0  0
    5.8087    2.6978   -2.8363 C   0  0  0  0  0  0  0  0  0  0  0  0
    5.2512    3.0403   -1.4637 C   0  0  0  0  0  0  0  0  0  0  0  0
    5.4188    1.7359   -0.6716 C   0  0  2  0  0  0  0  0  0  0  0  0
    6.7768    1.7307   -0.1335 C   0  0  0  0  0  0  0  0  0  0  0  0
    7.8530    1.7512    0.2873 N   0  0  0  0  0  0  0  0  0  0  0  0
    2.0265   -2.7302   -3.3466 H   0  0  0  0  0  0  0  0  0  0  0  0
    1.0248   -1.2175   -3.1136 H   0  0  0  0  0  0  0  0  0  0  0  0
    0.7593   -2.3141   -4.4943 H   0  0  0  0  0  0  0  0  0  0  0  0
   -0.8345   -3.3271   -3.3952 H   0  0  0  0  0  0  0  0  0  0  0  0
   -0.0831   -5.3062   -2.3595 H   0  0  0  0  0  0  0  0  0  0  0  0
    1.1101   -4.7203   -3.5291 H   0  0  0  0  0  0  0  0  0  0  0  0
    1.4894   -4.5123   -1.8011 H   0  0  0  0  0  0  0  0  0  0  0  0
   -1.4075   -3.4492   -1.1428 H   0  0  0  0  0  0  0  0  0  0  0  0
   -1.2940   -1.8021   -1.7175 H   0  0  0  0  0  0  0  0  0  0  0  0
    0.5642   -3.3681    0.2649 H   0  0  0  0  0  0  0  0  0  0  0  0
   -0.8808   -2.4876    1.7570 H   0  0  0  0  0  0  0  0  0  0  0  0
   -2.1753   -0.2553    2.8312 H   0  0  0  0  0  0  0  0  0  0  0  0
   -3.5355    1.1088    0.5154 H   0  0  0  0  0  0  0  0  0  0  0  0
   -5.1277    2.7071    0.6378 H   0  0  0  0  0  0  0  0  0  0  0  0
   -5.6102    2.9076    2.3891 H   0  0  0  0  0  0  0  0  0  0  0  0
   -5.4094    4.3256    1.3062 H   0  0  0  0  0  0  0  0  0  0  0  0
   -4.2831    5.1296    2.9998 H   0  0  0  0  0  0  0  0  0  0  0  0
   -2.5386    4.7413    3.3849 H   0  0  0  0  0  0  0  0  0  0  0  0
   -3.9126    3.7227    4.0866 H   0  0  0  0  0  0  0  0  0  0  0  0
   -2.9436    3.4859   -0.0666 H   0  0  0  0  0  0  0  0  0  0  0  0
   -1.7358    4.2002    1.1367 H   0  0  0  0  0  0  0  0  0  0  0  0
   -3.2505    5.0365    0.7287 H   0  0  0  0  0  0  0  0  0  0  0  0
   -3.9440   -0.8703   -0.2326 H   0  0  0  0  0  0  0  0  0  0  0  0
   -5.5364   -0.7957    0.6737 H   0  0  0  0  0  0  0  0  0  0  0  0
   -4.7881   -2.3566    0.2718 H   0  0  0  0  0  0  0  0  0  0  0  0
   -3.0765   -3.2896    1.5228 H   0  0  0  0  0  0  0  0  0  0  0  0
   -2.7603   -2.6826    3.1693 H   0  0  0  0  0  0  0  0  0  0  0  0
   -4.4195   -3.1402    2.7344 H   0  0  0  0  0  0  0  0  0  0  0  0
   -4.2352   -0.4818    3.8998 H   0  0  0  0  0  0  0  0  0  0  0  0
   -5.5348   -1.5236    3.2447 H   0  0  0  0  0  0  0  0  0  0  0  0
   -5.3599    0.0942    2.5418 H   0  0  0  0  0  0  0  0  0  0  0  0
    2.8125   -2.6185   -0.9545 H   0  0  0  0  0  0  0  0  0  0  0  0
    3.0619    0.2715   -0.1637 H   0  0  0  0  0  0  0  0  0  0  0  0
    4.4370   -0.3021    1.4261 H   0  0  0  0  0  0  0  0  0  0  0  0
    4.2830   -2.0150    0.9779 H   0  0  0  0  0  0  0  0  0  0  0  0
    5.5997   -1.1194    0.2244 H   0  0  0  0  0  0  0  0  0  0  0  0
    5.7532    0.7345   -3.7843 H   0  0  0  0  0  0  0  0  0  0  0  0
    7.1132    0.9617   -2.5623 H   0  0  0  0  0  0  0  0  0  0  0  0
    5.0416    2.9038   -3.6397 H   0  0  0  0  0  0  0  0  0  0  0  0
    6.7239    3.2528   -3.0591 H   0  0  0  0  0  0  0  0  0  0  0  0
    4.1782    3.3177   -1.5045 H   0  0  0  0  0  0  0  0  0  0  0  0
    5.8025    3.8404   -0.9604 H   0  0  0  0  0  0  0  0  0  0  0  0
    4.6876    1.6713    0.1408 H   0  0  0  0  0  0  0  0  0  0  0  0
  1  2  1  0
  2  3  1  0
  2  4  1  0
  4  5  1  0
  5  6  1  0
  6  7  1  0
  7  8  2  0
  7  9  1  0
  9 10  1  0
 10 11  1  0
 11 12  2  0
 11 13  1  0
 13 14  1  0
 13 15  1  0
 13 16  1  0
  9 17  1  0
 17 18  1  0
 17 19  1  0
 17 20  1  0
  5 21  1  0
 21 22  2  0
 21 23  1  0
 23 24  1  0
 24 25  1  0
 24 26  1  0
 26 27  2  0
 26 28  1  0
 28 29  1  0
 29 30  1  0
 30 31  1  0
 31 32  1  0
 32 33  1  0
 33 34  3  0
 32 28  1  0
  1 35  1  0
  1 36  1  0
  1 37  1  0
  2 38  1  0
  3 39  1  0
  3 40  1  0
  3 41  1  0
  4 42  1  0
  4 43  1  0
  5 44  1  1
  6 45  1  0
  9 46  1  1
 10 47  1  0
 14 48  1  0
 14 49  1  0
 14 50  1  0
 15 51  1  0
 15 52  1  0
 15 53  1  0
 16 54  1  0
 16 55  1  0
 16 56  1  0
 18 57  1  0
 18 58  1  0
 18 59  1  0
 19 60  1  0
 19 61  1  0
 19 62  1  0
 20 63  1  0
 20 64  1  0
 20 65  1  0
 23 66  1  0
 24 67  1  1
 25 68  1  0
 25 69  1  0
 25 70  1  0
 29 71  1  0
 29 72  1  0
 30 73  1  0
 30 74  1  0
 31 75  1  0
 31 76  1  0
 32 77  1  1
M  END
$$$$
[H]OC([H])([H])[C@@]1([H])O[C@@]([H])(n2c([H])nc3c(N([H])[C@]4([H])C([H])([H])C([H])([H])C([H])([H])C([H])([H])[C@]4([H])O[H])nc([H])nc32)[C@]([H])(O[H])[C@]1([H])O[H]
     RDKit          3D

 49 52  0  0  0  0  0  0  0  0999 V2000
   -7.4771    0.6965    1.0697 O   0  0  0  0  0  0  0  0  0  0  0  0
   -6.1978    1.2509    1.0831 C   0  0  0  0  0  0  0  0  0  0  0  0
   -5.3591    0.4546    0.1157 C   0  0  1  0  0  0  0  0  0  0  0  0
   -4.0432    0.9326    0.0518 O   0  0  0  0  0  0  0  0  0  0  0  0
   -3.4802   -0.0508   -0.7902 C   0  0  2  0  0  0  0  0  0  0  0  0
   -3.8150   -1.3078   -0.0603 C   0  0  2  0  0  0  0  0  0  0  0  0
   -3.9809   -2.3788   -0.9532 O   0  0  0  0  0  0  0  0  0  0  0  0
   -5.1596   -0.9510    0.5867 C   0  0  2  0  0  0  0  0  0  0  0  0
   -6.1221   -1.8349    0.1169 O   0  0  0  0  0  0  0  0  0  0  0  0
   -2.0990    0.1585   -1.0405 N   0  0  0  0  0  0  0  0  0  0  0  0
   -1.5516    0.3886   -2.2486 C   0  0  0  0  0  0  0  0  0  0  0  0
   -0.2191    0.5423   -2.1267 N   0  0  0  0  0  0  0  0  0  0  0  0
    0.0958    0.4101   -0.8282 C   0  0  0  0  0  0  0  0  0  0  0  0
    1.3035    0.4705   -0.1232 C   0  0  0  0  0  0  0  0  0  0  0  0
    2.4810    0.7296   -0.8668 N   0  0  0  0  0  0  0  0  0  0  0  0
    3.7521    0.7903   -0.1898 C   0  0  2  0  0  0  0  0  0  0  0  0
    4.7888    1.2241   -1.2357 C   0  0  0  0  0  0  0  0  0  0  0  0
    6.1329    1.3287   -0.5777 C   0  0  0  0  0  0  0  0  0  0  0  0
    6.5458   -0.0788   -0.1939 C   0  0  0  0  0  0  0  0  0  0  0  0
    5.5710   -0.5974    0.8159 C   0  0  0  0  0  0  0  0  0  0  0  0
    4.1412   -0.5704    0.3571 C   0  0  2  0  0  0  0  0  0  0  0  0
    3.8513   -1.5340   -0.5956 O   0  0  0  0  0  0  0  0  0  0  0  0
    1.2329    0.2868    1.1936 N   0  0  0  0  0  0  0  0  0  0  0  0
    0.0595    0.0562    1.8042 C   0  0  0  0  0  0  0  0  0  0  0  0
   -1.1199   -0.0084    1.1577 N   0  0  0  0  0  0  0  0  0  0  0  0
   -1.0875    0.1715   -0.1670 C   0  0  0  0  0  0  0  0  0  0  0  0
   -7.7890    0.5626    0.1305 H   0  0  0  0  0  0  0  0  0  0  0  0
   -5.8112    1.1349    2.1072 H   0  0  0  0  0  0  0  0  0  0  0  0
   -6.2868    2.2930    0.7430 H   0  0  0  0  0  0  0  0  0  0  0  0
   -5.8335    0.4374   -0.8860 H   0  0  0  0  0  0  0  0  0  0  0  0
   -4.0903   -0.0227   -1.7171 H   0  0  0  0  0  0  0  0  0  0  0  0
   -3.1402   -1.5798    0.7457 H   0  0  0  0  0  0  0  0  0  0  0  0
   -3.8371   -3.2383   -0.4451 H   0  0  0  0  0  0  0  0  0  0  0  0
   -5.1150   -1.0240    1.6817 H   0  0  0  0  0  0  0  0  0  0  0  0
   -5.8137   -2.7522    0.3304 H   0  0  0  0  0  0  0  0  0  0  0  0
   -2.0658    0.4521   -3.2204 H   0  0  0  0  0  0  0  0  0  0  0  0
    2.4605    0.8798   -1.9047 H   0  0  0  0  0  0  0  0  0  0  0  0
    3.7923    1.5112    0.6308 H   0  0  0  0  0  0  0  0  0  0  0  0
    4.7654    0.5601   -2.1094 H   0  0  0  0  0  0  0  0  0  0  0  0
    4.4239    2.2273   -1.6025 H   0  0  0  0  0  0  0  0  0  0  0  0
    6.8461    1.7138   -1.3606 H   0  0  0  0  0  0  0  0  0  0  0  0
    6.0640    2.0030    0.2746 H   0  0  0  0  0  0  0  0  0  0  0  0
    6.4185   -0.6980   -1.1198 H   0  0  0  0  0  0  0  0  0  0  0  0
    7.5533   -0.1308    0.2153 H   0  0  0  0  0  0  0  0  0  0  0  0
    5.8093   -1.6412    1.1083 H   0  0  0  0  0  0  0  0  0  0  0  0
    5.6236    0.0017    1.7660 H   0  0  0  0  0  0  0  0  0  0  0  0
    3.5235   -0.7797    1.2475 H   0  0  0  0  0  0  0  0  0  0  0  0
    4.1407   -2.4083   -0.2073 H   0  0  0  0  0  0  0  0  0  0  0  0
    0.1176   -0.0812    2.8953 H   0  0  0  0  0  0  0  0  0  0  0  0
  1  2  1  0
  2  3  1  0
  3  4  1  0
  4  5  1  0
  5  6  1  0
  6  7  1  0
  6  8  1  0
  8  9  1  0
  5 10  1  0
 10 11  1  0
 11 12  2  0
 12 13  1  0
 13 14  2  0
 14 15  1  0
 15 16  1  0
 16 17  1  0
 17 18  1  0
 18 19  1  0
 19 20  1  0
 20 21  1  0
 21 22  1  0
 14 23  1  0
 23 24  2  0
 24 25  1  0
 25 26  2  0
  8  3  1  0
 26 10  1  0
 26 13  1  0
 21 16  1  0
  1 27  1  0
  2 28  1  0
  2 29  1  0
  3 30  1  6
  5 31  1  6
  6 32  1  1
  7 33  1  0
  8 34  1  1
  9 35  1  0
 11 36  1  0
 15 37  1  0
 16 38  1  1
 17 39  1  0
 17 40  1  0
 18 41  1  0
 18 42  1  0
 19 43  1  0
 19 44  1  0
 20 45  1  0
 20 46  1  0
 21 47  1  1
 22 48  1  0
 24 49  1  0
M  END
$$$$
[H]O[C@@]1([H])[C@]([H])(C([H])([H])OP(=O)(O[H])OP(=O)(O[H])OP(=O)(O[H])O[H])O[C@@]1([H])n1c([H])nc2c(N([H])[H])nc([H])nc21
     RDKit          3D

 43 45  0  0  0  0  0  0  0  0999 V2000
   -7.5602    0.0609    0.8522 N   0  0  0  0  0  0  0  0  0  0  0  0
   -6.5234    0.0804   -0.1118 C   0  0  0  0  0  0  0  0  0  0  0  0
   -6.7183    0.0627   -1.4254 N   0  0  0  0  0  0  0  0  0  0  0  0
   -5.6826    0.1347   -2.2946 C   0  0  0  0  0  0  0  0  0  0  0  0
   -4.4032    0.2208   -1.8660 N   0  0  0  0  0  0  0  0  0  0  0  0
   -4.1881    0.2307   -0.5471 C   0  0  0  0  0  0  0  0  0  0  0  0
   -3.0625    0.2984    0.1955 N   0  0  0  0  0  0  0  0  0  0  0  0
   -3.4209    0.2571    1.4855 C   0  0  0  0  0  0  0  0  0  0  0  0
   -4.7279    0.1771    1.5837 N   0  0  0  0  0  0  0  0  0  0  0  0
   -5.2326    0.1622    0.3594 C   0  0  0  0  0  0  0  0  0  0  0  0
   -1.6845    0.5078   -0.2348 C   0  0  2  0  0  0  0  0  0  0  0  0
   -1.4362    0.3410   -1.5355 O   0  0  0  0  0  0  0  0  0  0  0  0
   -0.2660   -0.2419   -1.3416 C   0  0  1  0  0  0  0  0  0  0  0  0
    1.0449    0.3956   -1.0248 C   0  0  0  0  0  0  0  0  0  0  0  0
    1.2762    0.5783    0.3382 O   0  0  0  0  0  0  0  0  0  0  0  0
    2.6767   -0.3788    0.6925 P   0  0  0  0  0  0  0  0  0  0  0  0
    2.9328   -0.3049    2.3354 O   0  0  0  0  0  0  0  0  0  0  0  0
    2.2084   -1.8642    0.4034 O   0  0  0  0  0  0  0  0  0  0  0  0
    3.9895   -0.1759   -0.2209 O   0  0  0  0  0  0  0  0  0  0  0  0
    4.6025    1.3594   -0.4002 P   0  0  0  0  0  0  0  0  0  0  0  0
    4.6305    1.6865   -2.0681 O   0  0  0  0  0  0  0  0  0  0  0  0
    3.6644    2.3801    0.2476 O   0  0  0  0  0  0  0  0  0  0  0  0
    6.1156    1.5301    0.3178 O   0  0  0  0  0  0  0  0  0  0  0  0
    6.9078    0.1103    0.6590 P   0  0  0  0  0  0  0  0  0  0  0  0
    5.9459   -1.0752    1.3711 O   0  0  0  0  0  0  0  0  0  0  0  0
    8.1444    0.4652    1.7987 O   0  0  0  0  0  0  0  0  0  0  0  0
    7.5968   -0.4833   -0.5739 O   0  0  0  0  0  0  0  0  0  0  0  0
   -0.8778   -0.7212    0.0497 C   0  0  2  0  0  0  0  0  0  0  0  0
   -1.4776   -1.9290   -0.0833 O   0  0  0  0  0  0  0  0  0  0  0  0
   -7.4129   -0.2509    1.8278 H   0  0  0  0  0  0  0  0  0  0  0  0
   -8.5545    0.3874    0.6215 H   0  0  0  0  0  0  0  0  0  0  0  0
   -5.9446    0.1103   -3.3378 H   0  0  0  0  0  0  0  0  0  0  0  0
   -2.7399    0.2917    2.3562 H   0  0  0  0  0  0  0  0  0  0  0  0
   -1.2423    1.4435    0.2354 H   0  0  0  0  0  0  0  0  0  0  0  0
   -0.0617   -1.2106   -1.8847 H   0  0  0  0  0  0  0  0  0  0  0  0
    1.8851    0.3492   -1.6329 H   0  0  0  0  0  0  0  0  0  0  0  0
    0.7046    1.5626   -1.2545 H   0  0  0  0  0  0  0  0  0  0  0  0
    2.0759   -0.2379    2.8374 H   0  0  0  0  0  0  0  0  0  0  0  0
    4.0056    1.0529   -2.5585 H   0  0  0  0  0  0  0  0  0  0  0  0
    5.8319   -0.8672    2.3413 H   0  0  0  0  0  0  0  0  0  0  0  0
    8.9542   -0.0605    1.6005 H   0  0  0  0  0  0  0  0  0  0  0  0
   -0.2492   -0.5472    0.9121 H   0  0  0  0  0  0  0  0  0  0  0  0
   -1.7269   -2.0511   -1.0253 H   0  0  0  0  0  0  0  0  0  0  0  0
  1  2  1  0
  2  3  2  0
  3  4  1  0
  4  5  2  0
  5  6  1  0
  6  7  1  0
  7  8  1  0
  8  9  2  0
  9 10  1  0
  7 11  1  0
 11 12  1  0
 12 13  1  0
 13 14  1  0
 14 15  1  0
 15 16  1  0
 16 17  1  0
 16 18  2  0
 16 19  1  0
 19 20  1  0
 20 21  1  0
 20 22  2  0
 20 23  1  0
 23 24  1  0
 24 25  1  0
 24 26  1  0
 24 27  2  0
 13 28  1  0
 28 29  1  0
 10  2  1  0
 28 11  1  0
 10  6  2  0
  1 30  1  0
  1 31  1  0
  4 32  1  0
  8 33  1  0
 11 34  1  1
 13 35  1  6
 14 36  1  0
 14 37  1  0
 17 38  1  0
 21 39  1  0
 25 40  1  0
 26 41  1  0
 28 42  1  1
 29 43  1  0
M  END
$$$$
[H]O[C@]1([H])[C@]([H])(n2c([H])nc3c(N([H])[H])nc([H])nc32)O[C@]([H])(n2c([H])nc3c(N([H])[H])nc([H])nc32)[C@]1([H])O[H]
     RDKit          3D

 41 45  0  0  0  0  0  0  0  0999 V2000
   -5.5883    1.8132    1.7223 N   0  0  0  0  0  0  0  0  0  0  0  0
   -4.5447    0.8781    1.6774 C   0  0  0  0  0  0  0  0  0  0  0  0
   -4.2138    0.0843    2.7245 N   0  0  0  0  0  0  0  0  0  0  0  0
   -3.2046   -0.8014    2.6416 C   0  0  0  0  0  0  0  0  0  0  0  0
   -2.5215   -0.8877    1.4900 N   0  0  0  0  0  0  0  0  0  0  0  0
   -2.8046   -0.1173    0.3995 C   0  0  0  0  0  0  0  0  0  0  0  0
   -2.2718   -0.0306   -0.8273 N   0  0  0  0  0  0  0  0  0  0  0  0
   -2.9489    0.9044   -1.4986 C   0  0  0  0  0  0  0  0  0  0  0  0
   -3.9047    1.4051   -0.6986 N   0  0  0  0  0  0  0  0  0  0  0  0
   -3.8340    0.7874    0.4814 C   0  0  0  0  0  0  0  0  0  0  0  0
   -1.1669   -0.8316   -1.2779 C   0  0  2  0  0  0  0  0  0  0  0  0
   -0.1147   -0.8597   -0.3940 O   0  0  0  0  0  0  0  0  0  0  0  0
    1.0415   -1.1651   -1.1305 C   0  0  1  0  0  0  0  0  0  0  0  0
    0.7084   -1.1453   -2.5465 C   0  0  2  0  0  0  0  0  0  0  0  0
    1.6312   -0.8186   -3.4612 O   0  0  0  0  0  0  0  0  0  0  0  0
   -0.5383   -0.2482   -2.5529 C   0  0  2  0  0  0  0  0  0  0  0  0
   -0.2516    1.0689   -2.3044 O   0  0  0  0  0  0  0  0  0  0  0  0
    2.1282   -0.3523   -0.6854 N   0  0  0  0  0  0  0  0  0  0  0  0
    2.8113    0.6366   -1.2340 C   0  0  0  0  0  0  0  0  0  0  0  0
    3.7706    1.1108   -0.4185 N   0  0  0  0  0  0  0  0  0  0  0  0
    3.6944    0.3940    0.6945 C   0  0  0  0  0  0  0  0  0  0  0  0
    4.4304    0.4329    1.8836 C   0  0  0  0  0  0  0  0  0  0  0  0
    5.4772    1.3970    1.9988 N   0  0  0  0  0  0  0  0  0  0  0  0
    4.1391   -0.4318    2.8860 N   0  0  0  0  0  0  0  0  0  0  0  0
    3.1411   -1.3228    2.7273 C   0  0  0  0  0  0  0  0  0  0  0  0
    2.4365   -1.3521    1.5751 N   0  0  0  0  0  0  0  0  0  0  0  0
    2.6781   -0.5257    0.5543 C   0  0  0  0  0  0  0  0  0  0  0  0
   -6.2933    1.8480    0.9694 H   0  0  0  0  0  0  0  0  0  0  0  0
   -5.6504    2.4736    2.5187 H   0  0  0  0  0  0  0  0  0  0  0  0
   -2.9856   -1.4087    3.5093 H   0  0  0  0  0  0  0  0  0  0  0  0
   -2.7794    1.2356   -2.5369 H   0  0  0  0  0  0  0  0  0  0  0  0
   -1.4974   -1.8553   -1.5536 H   0  0  0  0  0  0  0  0  0  0  0  0
    1.2897   -2.2273   -0.8283 H   0  0  0  0  0  0  0  0  0  0  0  0
    0.2902   -2.1582   -2.8378 H   0  0  0  0  0  0  0  0  0  0  0  0
    1.5479   -1.3198   -4.3130 H   0  0  0  0  0  0  0  0  0  0  0  0
   -1.1673   -0.4249   -3.4292 H   0  0  0  0  0  0  0  0  0  0  0  0
   -0.2963    1.3381   -1.3668 H   0  0  0  0  0  0  0  0  0  0  0  0
    2.6406    1.0323   -2.2107 H   0  0  0  0  0  0  0  0  0  0  0  0
    5.3425    2.4109    1.8650 H   0  0  0  0  0  0  0  0  0  0  0  0
    6.4369    1.0272    2.2355 H   0  0  0  0  0  0  0  0  0  0  0  0
    2.9422   -1.9942    3.5522 H   0  0  0  0  0  0  0  0  0  0  0  0
  1  2  1  0
  2  3  2  0
  3  4  1  0
  4  5  2  0
  5  6  1  0
  6  7  1  0
  7  8  1  0
  8  9  2  0
  9 10  1  0
  7 11  1  0
 11 12  1  0
 12 13  1  0
 13 14  1  0
 14 15  1  0
 14 16  1  0
 16 17  1  0
 13 18  1  0
 18 19  1  0
 19 20  2  0
 20 21  1  0
 21 22  2  0
 22 23  1  0
 22 24  1  0
 24 25  2  0
 25 26  1  0
 26 27  2  0
 10  2  1  0
 16 11  1  0
 27 18  1  0
 10  6  2  0
 27 21  1  0
  1 28  1  0
  1 29  1  0
  4 30  1  0
  8 31  1  0
 11 32  1  6
 13 33  1  1
 14 34  1  6
 15 35  1  0
 16 36  1  6
 17 37  1  0
 19 38  1  0
 23 39  1  0
 23 40  1  0
 25 41  1  0
M  END
$$$$
[H]OC(=O)[C@@]([H])(N([H])C(=O)[C@@]([H])(N([H])C(=O)[C@@]1([H])N(C(=O)[C@@]([H])(N([H])[H])C([H])([H])c2c([H])c([H])c(O[H])c([H])c2[H])C([H])([H])C([H])([H])C1([H])[H])C([H])([H])c1c([H])c([H])c([H])c([H])c1[H])C([H])([H])C([H])(C([H])([H])[H])C([H])([H])[H]
     RDKit          3D

 77 79  0  0  0  0  0  0  0  0999 V2000
   -7.0353   -4.0270    0.1533 C   0  0  0  0  0  0  0  0  0  0  0  0
   -5.5561   -3.9333    0.1728 C   0  0  0  0  0  0  0  0  0  0  0  0
   -4.9590   -4.8470    1.2678 C   0  0  0  0  0  0  0  0  0  0  0  0
   -4.9562   -2.5991    0.3925 C   0  0  0  0  0  0  0  0  0  0  0  0
   -5.1978   -1.5080   -0.5831 C   0  0  2  0  0  0  0  0  0  0  0  0
   -4.4349   -0.3578   -0.0108 N   0  0  0  0  0  0  0  0  0  0  0  0
   -3.2255    0.0792   -0.6054 C   0  0  0  0  0  0  0  0  0  0  0  0
   -2.7746   -0.4900   -1.6174 O   0  0  0  0  0  0  0  0  0  0  0  0
   -2.5200    1.2270    0.0161 C   0  0  2  0  0  0  0  0  0  0  0  0
   -3.4138    2.4345   -0.1692 C   0  0  0  0  0  0  0  0  0  0  0  0
   -2.8288    3.6737    0.4114 C   0  0  0  0  0  0  0  0  0  0  0  0
   -3.0608    4.0661    1.7154 C   0  0  0  0  0  0  0  0  0  0  0  0
   -2.4690    5.2289    2.1365 C   0  0  0  0  0  0  0  0  0  0  0  0
   -1.6703    6.0049    1.3319 C   0  0  0  0  0  0  0  0  0  0  0  0
   -1.4494    5.6004    0.0370 C   0  0  0  0  0  0  0  0  0  0  0  0
   -2.0273    4.4379   -0.4215 C   0  0  0  0  0  0  0  0  0  0  0  0
   -1.2742    1.3909   -0.7452 N   0  0  0  0  0  0  0  0  0  0  0  0
   -0.0077    1.1842   -0.1161 C   0  0  0  0  0  0  0  0  0  0  0  0
   -0.0529    0.8727    1.0792 O   0  0  0  0  0  0  0  0  0  0  0  0
    1.1891    1.3408   -0.8746 C   0  0  2  0  0  0  0  0  0  0  0  0
    1.1586    0.5190   -2.1945 C   0  0  0  0  0  0  0  0  0  0  0  0
    2.5511    0.8805   -2.7323 C   0  0  0  0  0  0  0  0  0  0  0  0
    3.3067    1.4641   -1.5572 C   0  0  0  0  0  0  0  0  0  0  0  0
    2.4642    0.9438   -0.4033 N   0  0  0  0  0  0  0  0  0  0  0  0
    3.0379    0.2898    0.7036 C   0  0  0  0  0  0  0  0  0  0  0  0
    2.3385   -0.1050    1.6445 O   0  0  0  0  0  0  0  0  0  0  0  0
    4.5040    0.0320    0.8165 C   0  0  1  0  0  0  0  0  0  0  0  0
    4.7814   -0.3550    2.1917 N   0  0  0  0  0  0  0  0  0  0  0  0
    4.9270   -1.1548   -0.0199 C   0  0  0  0  0  0  0  0  0  0  0  0
    6.3952   -1.3341    0.1485 C   0  0  0  0  0  0  0  0  0  0  0  0
    7.3069   -0.6809   -0.6694 C   0  0  0  0  0  0  0  0  0  0  0  0
    8.6728   -0.8269   -0.5475 C   0  0  0  0  0  0  0  0  0  0  0  0
    9.1971   -1.6547    0.4237 C   0  0  0  0  0  0  0  0  0  0  0  0
   10.5707   -1.8116    0.5579 O   0  0  0  0  0  0  0  0  0  0  0  0
    8.3107   -2.3147    1.2486 C   0  0  0  0  0  0  0  0  0  0  0  0
    6.9374   -2.1614    1.1185 C   0  0  0  0  0  0  0  0  0  0  0  0
   -6.5588   -1.0483   -0.7861 C   0  0  0  0  0  0  0  0  0  0  0  0
   -7.3778   -1.6277   -1.7446 O   0  0  0  0  0  0  0  0  0  0  0  0
   -7.0926   -0.1029   -0.1285 O   0  0  0  0  0  0  0  0  0  0  0  0
   -7.4908   -3.1441    0.6121 H   0  0  0  0  0  0  0  0  0  0  0  0
   -7.3811   -4.2870   -0.8579 H   0  0  0  0  0  0  0  0  0  0  0  0
   -7.2948   -4.9248    0.8136 H   0  0  0  0  0  0  0  0  0  0  0  0
   -5.1178   -4.3101   -0.8084 H   0  0  0  0  0  0  0  0  0  0  0  0
   -5.4704   -5.8080    1.2574 H   0  0  0  0  0  0  0  0  0  0  0  0
   -5.0630   -4.2925    2.2163 H   0  0  0  0  0  0  0  0  0  0  0  0
   -3.8668   -4.9125    1.0580 H   0  0  0  0  0  0  0  0  0  0  0  0
   -5.1439   -2.2127    1.4376 H   0  0  0  0  0  0  0  0  0  0  0  0
   -3.8252   -2.7805    0.4235 H   0  0  0  0  0  0  0  0  0  0  0  0
   -4.6768   -1.7095   -1.5631 H   0  0  0  0  0  0  0  0  0  0  0  0
   -4.8641    0.0669    0.8291 H   0  0  0  0  0  0  0  0  0  0  0  0
   -2.2390    1.0291    1.0529 H   0  0  0  0  0  0  0  0  0  0  0  0
   -4.3928    2.2961    0.3400 H   0  0  0  0  0  0  0  0  0  0  0  0
   -3.6335    2.6360   -1.2220 H   0  0  0  0  0  0  0  0  0  0  0  0
   -3.6924    3.4546    2.3540 H   0  0  0  0  0  0  0  0  0  0  0  0
   -2.6557    5.5323    3.1635 H   0  0  0  0  0  0  0  0  0  0  0  0
   -1.2161    6.9278    1.7082 H   0  0  0  0  0  0  0  0  0  0  0  0
   -0.8298    6.1768   -0.6314 H   0  0  0  0  0  0  0  0  0  0  0  0
   -1.8467    4.1190   -1.4572 H   0  0  0  0  0  0  0  0  0  0  0  0
   -1.2871    1.6593   -1.7501 H   0  0  0  0  0  0  0  0  0  0  0  0
    1.2684    2.4160   -1.3137 H   0  0  0  0  0  0  0  0  0  0  0  0
    0.3565    0.8450   -2.8477 H   0  0  0  0  0  0  0  0  0  0  0  0
    1.1685   -0.5250   -1.8927 H   0  0  0  0  0  0  0  0  0  0  0  0
    3.0899   -0.0655   -3.0099 H   0  0  0  0  0  0  0  0  0  0  0  0
    2.4890    1.5618   -3.5863 H   0  0  0  0  0  0  0  0  0  0  0  0
    3.1155    2.5433   -1.5330 H   0  0  0  0  0  0  0  0  0  0  0  0
    4.3336    1.1574   -1.4555 H   0  0  0  0  0  0  0  0  0  0  0  0
    5.0958    0.9376    0.6060 H   0  0  0  0  0  0  0  0  0  0  0  0
    4.3889   -1.3031    2.3461 H   0  0  0  0  0  0  0  0  0  0  0  0
    5.7512   -0.2158    2.4908 H   0  0  0  0  0  0  0  0  0  0  0  0
    4.6340   -1.1379   -1.0575 H   0  0  0  0  0  0  0  0  0  0  0  0
    4.4676   -2.0907    0.4231 H   0  0  0  0  0  0  0  0  0  0  0  0
    6.8994   -0.0366   -1.4263 H   0  0  0  0  0  0  0  0  0  0  0  0
    9.3733   -0.3008   -1.2068 H   0  0  0  0  0  0  0  0  0  0  0  0
   11.0888   -1.1854    1.1763 H   0  0  0  0  0  0  0  0  0  0  0  0
    8.7286   -2.9604    2.0079 H   0  0  0  0  0  0  0  0  0  0  0  0
    6.2466   -2.6900    1.7777 H   0  0  0  0  0  0  0  0  0  0  0  0
   -8.2144   -1.1962   -2.1154 H   0  0  0  0  0  0  0  0  0  0  0  0
  1  2  1  0
  2  3  1  0
  2  4  1  0
  4  5  1  0
  5  6  1  0
  6  7  1  0
  7  8  2  0
  7  9  1  0
  9 10  1  0
 10 11  1  0
 11 12  2  0
 12 13  1  0
 13 14  2  0
 14 15  1  0
 15 16  2  0
  9 17  1  0
 17 18  1  0
 18 19  2  0
 18 20  1  0
 20 21  1  0
 21 22  1  0
 22 23  1  0
 23 24  1  0
 24 25  1  0
 25 26  2  0
 25 27  1  0
 27 28  1  0
 27 29  1  0
 29 30  1  0
 30 31  2  0
 31 32  1  0
 32 33  2  0
 33 34  1  0
 33 35  1  0
 35 36  2  0
  5 37  1  0
 37 38  1  0
 37 39  2  0
 16 11  1  0
 24 20  1  0
 36 30  1  0
  1 40  1  0
  1 41  1  0
  1 42  1  0
  2 43  1  0
  3 44  1  0
  3 45  1  0
  3 46  1  0
  4 47  1  0
  4 48  1  0
  5 49  1  6
  6 50  1  0
  9 51  1  1
 10 52  1  0
 10 53  1  0
 12 54  1  0
 13 55  1  0
 14 56  1  0
 15 57  1  0
 16 58  1  0
 17 59  1  0
 20 60  1  6
 21 61  1  0
 21 62  1  0
 22 63  1  0
 22 64  1  0
 23 65  1  0
 23 66  1  0
 27 67  1  6
 28 68  1  0
 28 69  1  0
 29 70  1  0
 29 71  1  0
 31 72  1  0
 32 73  1  0
 34 74  1  0
 35 75  1  0
 36 76  1  0
 38 77  1  0
M  END
$$$$
[H]OC(=O)C([H])([H])[C@@]([H])(C(=O)N([H])[C@@]([H])(C(=O)N1C([H])([H])C([H])([H])C([H])([H])[C@@]1([H])C(=O)N([H])[C@@]([H])(C(=O)N([H])[C@]([H])(C(=O)N([H])[H])C([H])([H])C([H])(C([H])([H])[H])C([H])([H])[H])C([H])([H])c1c([H])c([H])c(O[H])c([H])c1[H])C([H])([H])c1c([H])c([H])c([H])c([H])c1[H])N([H])C(=O)[C@@]([H])(N([H])C(=O)[C@@]([H])(N([H])C(=O)OC([H])([H])c1c([H])c([H])c([H])c([H])c1[H])C([H])([H])c1c([H])c([H])c([H])c([H])c1[H])C([H])([H])c1c([H])c([H])c([H])c([H])c1[H]
     RDKit          3D

147152  0  0  0  0  0  0  0  0999 V2000
   11.8037   -4.4694   -0.5021 C   0  0  0  0  0  0  0  0  0  0  0  0
   10.7671   -3.4269   -0.0322 C   0  0  0  0  0  0  0  0  0  0  0  0
   10.6448   -3.6473    1.4575 C   0  0  0  0  0  0  0  0  0  0  0  0
   11.3701   -2.0900   -0.3595 C   0  0  0  0  0  0  0  0  0  0  0  0
   10.5745   -0.8984   -0.0160 C   0  0  2  0  0  0  0  0  0  0  0  0
    9.2774   -0.7878   -0.6469 N   0  0  0  0  0  0  0  0  0  0  0  0
    8.2061   -0.0726   -0.0933 C   0  0  0  0  0  0  0  0  0  0  0  0
    8.4286    0.4828    1.0439 O   0  0  0  0  0  0  0  0  0  0  0  0
    6.8666    0.1424   -0.6371 C   0  0  1  0  0  0  0  0  0  0  0  0
    5.8535   -0.7537   -0.0172 C   0  0  0  0  0  0  0  0  0  0  0  0
    6.0850   -2.2118   -0.2126 C   0  0  0  0  0  0  0  0  0  0  0  0
    5.5607   -2.8460   -1.3323 C   0  0  0  0  0  0  0  0  0  0  0  0
    5.7461   -4.1958   -1.5203 C   0  0  0  0  0  0  0  0  0  0  0  0
    6.4461   -4.9806   -0.6324 C   0  0  0  0  0  0  0  0  0  0  0  0
    6.6208   -6.3553   -0.8509 O   0  0  0  0  0  0  0  0  0  0  0  0
    6.9619   -4.3441    0.4731 C   0  0  0  0  0  0  0  0  0  0  0  0
    6.7858   -2.9739    0.6852 C   0  0  0  0  0  0  0  0  0  0  0  0
    6.4359    1.5255   -0.4318 N   0  0  0  0  0  0  0  0  0  0  0  0
    6.2108    2.4186   -1.4935 C   0  0  0  0  0  0  0  0  0  0  0  0
    6.4005    1.8653   -2.6655 O   0  0  0  0  0  0  0  0  0  0  0  0
    5.8310    3.7919   -1.5108 C   0  0  2  0  0  0  0  0  0  0  0  0
    6.6303    4.6079   -0.4327 C   0  0  0  0  0  0  0  0  0  0  0  0
    6.0069    5.9749   -0.6556 C   0  0  0  0  0  0  0  0  0  0  0  0
    4.8060    5.7691   -1.5369 C   0  0  0  0  0  0  0  0  0  0  0  0
    4.5508    4.2998   -1.2651 N   0  0  0  0  0  0  0  0  0  0  0  0
    3.3238    3.8781   -0.8916 C   0  0  0  0  0  0  0  0  0  0  0  0
    2.4009    4.8337   -0.8487 O   0  0  0  0  0  0  0  0  0  0  0  0
    2.7177    2.5902   -0.5062 C   0  0  1  0  0  0  0  0  0  0  0  0
    2.8952    2.3180    0.9690 C   0  0  0  0  0  0  0  0  0  0  0  0
    2.3141    3.2200    1.9180 C   0  0  0  0  0  0  0  0  0  0  0  0
    1.1440    2.9565    2.5778 C   0  0  0  0  0  0  0  0  0  0  0  0
    0.5952    3.8491    3.4758 C   0  0  0  0  0  0  0  0  0  0  0  0
    1.2086    5.0481    3.7457 C   0  0  0  0  0  0  0  0  0  0  0  0
    2.3738    5.3213    3.0953 C   0  0  0  0  0  0  0  0  0  0  0  0
    2.9158    4.4272    2.2008 C   0  0  0  0  0  0  0  0  0  0  0  0
    1.3363    2.5660   -0.9288 N   0  0  0  0  0  0  0  0  0  0  0  0
    0.3925    1.5615   -0.7248 C   0  0  0  0  0  0  0  0  0  0  0  0
    0.6607    0.5312   -0.0845 O   0  0  0  0  0  0  0  0  0  0  0  0
   -0.9496    1.7251   -1.2852 C   0  0  2  0  0  0  0  0  0  0  0  0
   -1.2541    3.0583   -1.9067 C   0  0  0  0  0  0  0  0  0  0  0  0
   -1.2389    4.2283   -1.0529 C   0  0  0  0  0  0  0  0  0  0  0  0
   -1.2520    4.2499    0.3166 O   0  0  0  0  0  0  0  0  0  0  0  0
   -1.2125    5.3650   -1.6570 O   0  0  0  0  0  0  0  0  0  0  0  0
   -2.0540    1.3627   -0.4156 N   0  0  0  0  0  0  0  0  0  0  0  0
   -3.1163    0.5074   -0.7096 C   0  0  0  0  0  0  0  0  0  0  0  0
   -3.1725   -0.0770   -1.8066 O   0  0  0  0  0  0  0  0  0  0  0  0
   -4.1699    0.3185    0.2873 C   0  0  2  0  0  0  0  0  0  0  0  0
   -3.6319   -0.3390    1.5270 C   0  0  0  0  0  0  0  0  0  0  0  0
   -4.7295   -0.5019    2.5319 C   0  0  0  0  0  0  0  0  0  0  0  0
   -5.0270    0.4609    3.4647 C   0  0  0  0  0  0  0  0  0  0  0  0
   -6.0708    0.2792    4.3603 C   0  0  0  0  0  0  0  0  0  0  0  0
   -6.8251   -0.8645    4.3308 C   0  0  0  0  0  0  0  0  0  0  0  0
   -6.5368   -1.8408    3.3990 C   0  0  0  0  0  0  0  0  0  0  0  0
   -5.4836   -1.6423    2.5069 C   0  0  0  0  0  0  0  0  0  0  0  0
   -5.2192   -0.5407   -0.2636 N   0  0  0  0  0  0  0  0  0  0  0  0
   -6.5483   -0.0780   -0.3792 C   0  0  0  0  0  0  0  0  0  0  0  0
   -6.7967    1.0959   -0.0030 O   0  0  0  0  0  0  0  0  0  0  0  0
   -7.6317   -0.9026   -0.9100 C   0  0  2  0  0  0  0  0  0  0  0  0
   -7.4185   -1.4477   -2.2898 C   0  0  0  0  0  0  0  0  0  0  0  0
   -8.6540   -2.2452   -2.6139 C   0  0  0  0  0  0  0  0  0  0  0  0
   -8.7433   -3.5885   -2.3142 C   0  0  0  0  0  0  0  0  0  0  0  0
   -9.8882   -4.3223   -2.6065 C   0  0  0  0  0  0  0  0  0  0  0  0
  -10.9738   -3.7213   -3.2084 C   0  0  0  0  0  0  0  0  0  0  0  0
  -10.9040   -2.3874   -3.5140 C   0  0  0  0  0  0  0  0  0  0  0  0
   -9.7596   -1.6852   -3.2152 C   0  0  0  0  0  0  0  0  0  0  0  0
   -8.8945   -0.1460   -0.8977 N   0  0  0  0  0  0  0  0  0  0  0  0
   -9.9142   -0.4760    0.0485 C   0  0  0  0  0  0  0  0  0  0  0  0
   -9.7299   -1.3979    0.8563 O   0  0  0  0  0  0  0  0  0  0  0  0
  -11.0856    0.2274    0.0577 O   0  0  0  0  0  0  0  0  0  0  0  0
  -12.1747    0.0275    0.9229 C   0  0  0  0  0  0  0  0  0  0  0  0
  -12.6997   -1.3365    0.7371 C   0  0  0  0  0  0  0  0  0  0  0  0
  -12.5087   -2.3057    1.6943 C   0  0  0  0  0  0  0  0  0  0  0  0
  -13.0037   -3.6019    1.5201 C   0  0  0  0  0  0  0  0  0  0  0  0
  -13.7027   -3.9233    0.3616 C   0  0  0  0  0  0  0  0  0  0  0  0
  -13.8918   -2.9551   -0.5922 C   0  0  0  0  0  0  0  0  0  0  0  0
  -13.3917   -1.6805   -0.3960 C   0  0  0  0  0  0  0  0  0  0  0  0
   11.3102    0.3613   -0.4525 C   0  0  0  0  0  0  0  0  0  0  0  0
   12.5988    0.5718    0.0460 N   0  0  0  0  0  0  0  0  0  0  0  0
   10.7634    1.1541   -1.2198 O   0  0  0  0  0  0  0  0  0  0  0  0
   11.6699   -4.5895   -1.5873 H   0  0  0  0  0  0  0  0  0  0  0  0
   12.8026   -4.0020   -0.3389 H   0  0  0  0  0  0  0  0  0  0  0  0
   11.7023   -5.4209    0.0598 H   0  0  0  0  0  0  0  0  0  0  0  0
    9.8118   -3.6264   -0.5301 H   0  0  0  0  0  0  0  0  0  0  0  0
   10.1421   -4.6204    1.6586 H   0  0  0  0  0  0  0  0  0  0  0  0
   10.1350   -2.8610    2.0021 H   0  0  0  0  0  0  0  0  0  0  0  0
   11.6700   -3.7573    1.9112 H   0  0  0  0  0  0  0  0  0  0  0  0
   11.7425   -2.0979   -1.4135 H   0  0  0  0  0  0  0  0  0  0  0  0
   12.3225   -2.0396    0.2532 H   0  0  0  0  0  0  0  0  0  0  0  0
   10.4975   -0.7632    1.0763 H   0  0  0  0  0  0  0  0  0  0  0  0
    9.1481   -1.2668   -1.5556 H   0  0  0  0  0  0  0  0  0  0  0  0
    6.8305    0.0004   -1.7491 H   0  0  0  0  0  0  0  0  0  0  0  0
    5.9095   -0.6072    1.1067 H   0  0  0  0  0  0  0  0  0  0  0  0
    4.8037   -0.4853   -0.2613 H   0  0  0  0  0  0  0  0  0  0  0  0
    4.9985   -2.2320   -2.0462 H   0  0  0  0  0  0  0  0  0  0  0  0
    5.3320   -4.6840   -2.3960 H   0  0  0  0  0  0  0  0  0  0  0  0
    7.4420   -6.6254   -1.3767 H   0  0  0  0  0  0  0  0  0  0  0  0
    7.5212   -4.9124    1.2107 H   0  0  0  0  0  0  0  0  0  0  0  0
    7.2159   -2.5067    1.5839 H   0  0  0  0  0  0  0  0  0  0  0  0
    6.3002    1.8308    0.5375 H   0  0  0  0  0  0  0  0  0  0  0  0
    6.1694    4.2393   -2.5157 H   0  0  0  0  0  0  0  0  0  0  0  0
    7.6963    4.5986   -0.7067 H   0  0  0  0  0  0  0  0  0  0  0  0
    6.3831    4.1471    0.5210 H   0  0  0  0  0  0  0  0  0  0  0  0
    5.7440    6.4561    0.3126 H   0  0  0  0  0  0  0  0  0  0  0  0
    6.7372    6.5698   -1.2422 H   0  0  0  0  0  0  0  0  0  0  0  0
    5.0294    5.8245   -2.6073 H   0  0  0  0  0  0  0  0  0  0  0  0
    3.9423    6.3730   -1.3006 H   0  0  0  0  0  0  0  0  0  0  0  0
    3.2295    1.7529   -0.9925 H   0  0  0  0  0  0  0  0  0  0  0  0
    2.5509    1.2841    1.1670 H   0  0  0  0  0  0  0  0  0  0  0  0
    4.0226    2.2384    1.1037 H   0  0  0  0  0  0  0  0  0  0  0  0
    0.6369    2.0341    2.4008 H   0  0  0  0  0  0  0  0  0  0  0  0
   -0.3341    3.6447    4.0048 H   0  0  0  0  0  0  0  0  0  0  0  0
    0.7482    5.7244    4.4571 H   0  0  0  0  0  0  0  0  0  0  0  0
    2.8580    6.2787    3.3079 H   0  0  0  0  0  0  0  0  0  0  0  0
    3.8424    4.6959    1.7109 H   0  0  0  0  0  0  0  0  0  0  0  0
    1.0638    3.4514   -1.4843 H   0  0  0  0  0  0  0  0  0  0  0  0
   -1.0426    0.9915   -2.1522 H   0  0  0  0  0  0  0  0  0  0  0  0
   -0.5959    3.2519   -2.7815 H   0  0  0  0  0  0  0  0  0  0  0  0
   -2.2851    2.9562   -2.3461 H   0  0  0  0  0  0  0  0  0  0  0  0
   -1.9987    4.7152    0.8292 H   0  0  0  0  0  0  0  0  0  0  0  0
   -2.0257    1.8190    0.5513 H   0  0  0  0  0  0  0  0  0  0  0  0
   -4.6854    1.2880    0.5377 H   0  0  0  0  0  0  0  0  0  0  0  0
   -2.8339    0.2849    1.9485 H   0  0  0  0  0  0  0  0  0  0  0  0
   -3.2711   -1.3481    1.2602 H   0  0  0  0  0  0  0  0  0  0  0  0
   -4.4478    1.3547    3.4967 H   0  0  0  0  0  0  0  0  0  0  0  0
   -6.3408    1.0222    5.1169 H   0  0  0  0  0  0  0  0  0  0  0  0
   -7.6491   -1.0011    5.0456 H   0  0  0  0  0  0  0  0  0  0  0  0
   -7.1509   -2.7277    3.4018 H   0  0  0  0  0  0  0  0  0  0  0  0
   -5.2998   -2.4360    1.7999 H   0  0  0  0  0  0  0  0  0  0  0  0
   -5.0053   -1.5096   -0.5799 H   0  0  0  0  0  0  0  0  0  0  0  0
   -7.7273   -1.7732   -0.2049 H   0  0  0  0  0  0  0  0  0  0  0  0
   -7.2466   -0.6423   -3.0336 H   0  0  0  0  0  0  0  0  0  0  0  0
   -6.5619   -2.1563   -2.2764 H   0  0  0  0  0  0  0  0  0  0  0  0
   -7.9359   -4.1183   -1.8479 H   0  0  0  0  0  0  0  0  0  0  0  0
   -9.9557   -5.3799   -2.3739 H   0  0  0  0  0  0  0  0  0  0  0  0
  -11.8488   -4.3261   -3.4217 H   0  0  0  0  0  0  0  0  0  0  0  0
  -11.7458   -1.9018   -3.9837 H   0  0  0  0  0  0  0  0  0  0  0  0
   -9.7370   -0.6291   -3.4735 H   0  0  0  0  0  0  0  0  0  0  0  0
   -9.0080    0.6120   -1.5769 H   0  0  0  0  0  0  0  0  0  0  0  0
  -12.9732    0.7888    0.7088 H   0  0  0  0  0  0  0  0  0  0  0  0
  -11.8644    0.1617    2.0006 H   0  0  0  0  0  0  0  0  0  0  0  0
  -11.9768   -2.0888    2.6019 H   0  0  0  0  0  0  0  0  0  0  0  0
  -12.8611   -4.3713    2.2562 H   0  0  0  0  0  0  0  0  0  0  0  0
  -14.0788   -4.9462    0.2533 H   0  0  0  0  0  0  0  0  0  0  0  0
  -14.4360   -3.2218   -1.4892 H   0  0  0  0  0  0  0  0  0  0  0  0
  -13.5363   -0.9177   -1.1370 H   0  0  0  0  0  0  0  0  0  0  0  0
   13.2986   -0.2211    0.1610 H   0  0  0  0  0  0  0  0  0  0  0  0
   12.9468    1.5122    0.3340 H   0  0  0  0  0  0  0  0  0  0  0  0
  1  2  1  0
  2  3  1  0
  2  4  1  0
  4  5  1  0
  5  6  1  0
  6  7  1  0
  7  8  2  0
  7  9  1  0
  9 10  1  0
 10 11  1  0
 11 12  2  0
 12 13  1  0
 13 14  2  0
 14 15  1  0
 14 16  1  0
 16 17  2  0
  9 18  1  0
 18 19  1  0
 19 20  2  0
 19 21  1  0
 21 22  1  0
 22 23  1  0
 23 24  1  0
 24 25  1  0
 25 26  1  0
 26 27  2  0
 26 28  1  0
 28 29  1  0
 29 30  1  0
 30 31  2  0
 31 32  1  0
 32 33  2  0
 33 34  1  0
 34 35  2  0
 28 36  1  0
 36 37  1  0
 37 38  2  0
 37 39  1  0
 39 40  1  0
 40 41  1  0
 41 42  1  0
 41 43  2  0
 39 44  1  0
 44 45  1  0
 45 46  2  0
 45 47  1  0
 47 48  1  0
 48 49  1  0
 49 50  2  0
 50 51  1  0
 51 52  2  0
 52 53  1  0
 53 54  2  0
 47 55  1  0
 55 56  1  0
 56 57  2  0
 56 58  1  0
 58 59  1  0
 59 60  1  0
 60 61  2  0
 61 62  1  0
 62 63  2  0
 63 64  1  0
 64 65  2  0
 58 66  1  0
 66 67  1  0
 67 68  2  0
 67 69  1  0
 69 70  1  0
 70 71  1  0
 71 72  2  0
 72 73  1  0
 73 74  2  0
 74 75  1  0
 75 76  2  0
  5 77  1  0
 77 78  1  0
 77 79  2  0
 17 11  1  0
 25 21  1  0
 35 30  1  0
 54 49  1  0
 65 60  1  0
 76 71  1  0
  1 80  1  0
  1 81  1  0
  1 82  1  0
  2 83  1  0
  3 84  1  0
  3 85  1  0
  3 86  1  0
  4 87  1  0
  4 88  1  0
  5 89  1  1
  6 90  1  0
  9 91  1  6
 10 92  1  0
 10 93  1  0
 12 94  1  0
 13 95  1  0
 15 96  1  0
 16 97  1  0
 17 98  1  0
 18 99  1  0
 21100  1  6
 22101  1  0
 22102  1  0
 23103  1  0
 23104  1  0
 24105  1  0
 24106  1  0
 28107  1  6
 29108  1  0
 29109  1  0
 31110  1  0
 32111  1  0
 33112  1  0
 34113  1  0
 35114  1  0
 36115  1  0
 39116  1  6
 40117  1  0
 40118  1  0
 42119  1  0
 44120  1  0
 47121  1  1
 48122  1  0
 48123  1  0
 50124  1  0
 51125  1  0
 52126  1  0
 53127  1  0
 54128  1  0
 55129  1  0
 58130  1  1
 59131  1  0
 59132  1  0
 61133  1  0
 62134  1  0
 63135  1  0
 64136  1  0
 65137  1  0
 66138  1  0
 70139  1  0
 70140  1  0
 72141  1  0
 73142  1  0
 74143  1  0
 75144  1  0
 76145  1  0
 78146  1  0
 78147  1  0
M  END
$$$$
[H]c1c([H])c([H])c(C([H])([H])[C@@]([H])(C(=O)N([H])C([H])([H])[H])N([H])C(=O)[C@@]([H])(N([H])C(=O)[C@@]([H])(N([H])C(=O)[C@@]([H])(N([H])C(=O)[C@@]([H])(N([H])C(=O)[C@@]([H])(N([H])C(=O)[C@]([H])(N([H])C(=O)[C@]([H])(N([H])C(=O)[C@@]([H])(N([H])C([H])([H])[H])C([H])([H])C([H])(C([H])([H])[H])C([H])([H])[H])C([H])([H])C([H])(C([H])([H])[H])C([H])([H])[H])C([H])([H])C([H])(C([H])([H])[H])C([H])([H])[H])C([H])([H])C([H])(C([H])([H])[H])C([H])([H])[H])C([H])([H])C([H])(C([H])([H])[H])C([H])([H])[H])C([H])([H])C([H])(C([H])([H])[H])C([H])([H])[H])C([H])([H])C([H])(C([H])([H])[H])C([H])([H])[H])C([H])([H])c2c([H])c([H])c([H])c([H])c2[H])c([H])c1[H]
     RDKit          3D

183184  0  0  0  0  0  0  0  0999 V2000
   15.0171    4.2899    2.7551 C   0  0  0  0  0  0  0  0  0  0  0  0
   14.4593    3.3982    1.7685 N   0  0  0  0  0  0  0  0  0  0  0  0
   13.0697    3.2388    1.6347 C   0  0  0  0  0  0  0  0  0  0  0  0
   12.3563    3.9287    2.4523 O   0  0  0  0  0  0  0  0  0  0  0  0
   12.4331    2.3557    0.6490 C   0  0  2  0  0  0  0  0  0  0  0  0
   12.4913    2.8901   -0.7769 C   0  0  0  0  0  0  0  0  0  0  0  0
   13.7971    3.1261   -1.3520 C   0  0  0  0  0  0  0  0  0  0  0  0
   14.3711    4.3776   -1.3408 C   0  0  0  0  0  0  0  0  0  0  0  0
   15.6007    4.6544   -1.8923 C   0  0  0  0  0  0  0  0  0  0  0  0
   16.2963    3.6243   -2.4872 C   0  0  0  0  0  0  0  0  0  0  0  0
   15.7435    2.3588   -2.5102 C   0  0  0  0  0  0  0  0  0  0  0  0
   14.5120    2.0976   -1.9544 C   0  0  0  0  0  0  0  0  0  0  0  0
   10.9983    2.2601    1.0004 N   0  0  0  0  0  0  0  0  0  0  0  0
   10.2819    1.0718    0.8094 C   0  0  0  0  0  0  0  0  0  0  0  0
   10.9073    0.0692    0.3218 O   0  0  0  0  0  0  0  0  0  0  0  0
    8.8682    0.9364    1.1325 C   0  0  2  0  0  0  0  0  0  0  0  0
    8.6578    0.2987    2.4956 C   0  0  0  0  0  0  0  0  0  0  0  0
    9.1980   -1.0647    2.6210 C   0  0  0  0  0  0  0  0  0  0  0  0
   10.4824   -1.2853    3.0550 C   0  0  0  0  0  0  0  0  0  0  0  0
   10.9621   -2.5645    3.1813 C   0  0  0  0  0  0  0  0  0  0  0  0
   10.1842   -3.6714    2.8815 C   0  0  0  0  0  0  0  0  0  0  0  0
    8.9000   -3.4222    2.4465 C   0  0  0  0  0  0  0  0  0  0  0  0
    8.4051   -2.1556    2.3146 C   0  0  0  0  0  0  0  0  0  0  0  0
    8.1840    0.1345    0.1040 N   0  0  0  0  0  0  0  0  0  0  0  0
    6.8230    0.2857   -0.2106 C   0  0  0  0  0  0  0  0  0  0  0  0
    6.1941    1.1546    0.4977 O   0  0  0  0  0  0  0  0  0  0  0  0
    6.0788   -0.4218   -1.2189 C   0  0  2  0  0  0  0  0  0  0  0  0
    5.8060    0.3524   -2.5114 C   0  0  0  0  0  0  0  0  0  0  0  0
    6.9809    0.7674   -3.3190 C   0  0  0  0  0  0  0  0  0  0  0  0
    7.9628    1.7045   -2.7404 C   0  0  0  0  0  0  0  0  0  0  0  0
    6.5474    1.1852   -4.7299 C   0  0  0  0  0  0  0  0  0  0  0  0
    4.8440   -0.9995   -0.7617 N   0  0  0  0  0  0  0  0  0  0  0  0
    3.5186   -0.6753   -1.0062 C   0  0  0  0  0  0  0  0  0  0  0  0
    3.1958    0.3091   -1.7158 O   0  0  0  0  0  0  0  0  0  0  0  0
    2.4094   -1.5376   -0.4034 C   0  0  2  0  0  0  0  0  0  0  0  0
    2.3274   -2.7905   -1.2773 C   0  0  0  0  0  0  0  0  0  0  0  0
    1.3170   -3.7888   -0.8295 C   0  0  0  0  0  0  0  0  0  0  0  0
    1.5959   -4.3305    0.5405 C   0  0  0  0  0  0  0  0  0  0  0  0
    1.3483   -4.9336   -1.8504 C   0  0  0  0  0  0  0  0  0  0  0  0
    1.2106   -0.7735   -0.4704 N   0  0  0  0  0  0  0  0  0  0  0  0
    0.2843   -0.5898    0.5924 C   0  0  0  0  0  0  0  0  0  0  0  0
    0.5263   -1.1580    1.6860 O   0  0  0  0  0  0  0  0  0  0  0  0
   -0.9435    0.2148    0.5080 C   0  0  2  0  0  0  0  0  0  0  0  0
   -0.8463    1.6534    0.8295 C   0  0  0  0  0  0  0  0  0  0  0  0
   -0.3821    2.0543    2.1847 C   0  0  0  0  0  0  0  0  0  0  0  0
   -0.4692    3.6083    2.1969 C   0  0  0  0  0  0  0  0  0  0  0  0
    1.0828    1.7850    2.4607 C   0  0  0  0  0  0  0  0  0  0  0  0
   -2.0437   -0.4347    1.2451 N   0  0  0  0  0  0  0  0  0  0  0  0
   -3.1285   -0.9704    0.5392 C   0  0  0  0  0  0  0  0  0  0  0  0
   -3.1536   -0.8851   -0.7114 O   0  0  0  0  0  0  0  0  0  0  0  0
   -4.3108   -1.6679    1.1839 C   0  0  2  0  0  0  0  0  0  0  0  0
   -3.8633   -2.5977    2.2121 C   0  0  0  0  0  0  0  0  0  0  0  0
   -4.7877   -3.3800    3.0432 C   0  0  0  0  0  0  0  0  0  0  0  0
   -5.6975   -4.3499    2.3843 C   0  0  0  0  0  0  0  0  0  0  0  0
   -3.9226   -4.1819    4.0333 C   0  0  0  0  0  0  0  0  0  0  0  0
   -5.1977   -2.0695    0.1182 N   0  0  0  0  0  0  0  0  0  0  0  0
   -6.5807   -1.7732    0.0564 C   0  0  0  0  0  0  0  0  0  0  0  0
   -7.0073   -1.1653    1.1215 O   0  0  0  0  0  0  0  0  0  0  0  0
   -7.4572   -2.0701   -1.0380 C   0  0  1  0  0  0  0  0  0  0  0  0
   -7.3707   -3.1455   -1.9926 C   0  0  0  0  0  0  0  0  0  0  0  0
   -7.4193   -4.5725   -1.6892 C   0  0  0  0  0  0  0  0  0  0  0  0
   -8.6861   -5.0189   -0.9365 C   0  0  0  0  0  0  0  0  0  0  0  0
   -6.2145   -5.3183   -1.3032 C   0  0  0  0  0  0  0  0  0  0  0  0
   -8.8552   -1.7178   -0.6972 N   0  0  0  0  0  0  0  0  0  0  0  0
   -9.2520   -0.3864   -0.6560 C   0  0  0  0  0  0  0  0  0  0  0  0
   -8.2771    0.4550   -0.9154 O   0  0  0  0  0  0  0  0  0  0  0  0
  -10.5331    0.2346   -0.3937 C   0  0  1  0  0  0  0  0  0  0  0  0
  -11.1577    0.2381    0.9162 C   0  0  0  0  0  0  0  0  0  0  0  0
  -11.5542   -0.9257    1.6994 C   0  0  0  0  0  0  0  0  0  0  0  0
  -10.5453   -1.8793    2.1878 C   0  0  0  0  0  0  0  0  0  0  0  0
  -12.6576   -1.7465    1.0111 C   0  0  0  0  0  0  0  0  0  0  0  0
  -10.3437    1.6907   -0.7361 N   0  0  0  0  0  0  0  0  0  0  0  0
  -10.9725    2.2863   -1.8441 C   0  0  0  0  0  0  0  0  0  0  0  0
  -11.7345    1.5113   -2.5200 O   0  0  0  0  0  0  0  0  0  0  0  0
  -10.8330    3.6647   -2.2841 C   0  0  2  0  0  0  0  0  0  0  0  0
  -10.9411    4.7703   -1.3269 C   0  0  0  0  0  0  0  0  0  0  0  0
  -12.1778    5.0024   -0.5721 C   0  0  0  0  0  0  0  0  0  0  0  0
  -12.6623    3.9249    0.3242 C   0  0  0  0  0  0  0  0  0  0  0  0
  -13.3386    5.5038   -1.4097 C   0  0  0  0  0  0  0  0  0  0  0  0
  -11.6286    3.9047   -3.5057 N   0  0  0  0  0  0  0  0  0  0  0  0
  -11.1311    3.0880   -4.5655 C   0  0  0  0  0  0  0  0  0  0  0  0
   16.1155    4.4084    2.6209 H   0  0  0  0  0  0  0  0  0  0  0  0
   14.5738    5.3219    2.6689 H   0  0  0  0  0  0  0  0  0  0  0  0
   14.8952    3.9044    3.8059 H   0  0  0  0  0  0  0  0  0  0  0  0
   15.1124    2.8597    1.1740 H   0  0  0  0  0  0  0  0  0  0  0  0
   12.9070    1.3678    0.6329 H   0  0  0  0  0  0  0  0  0  0  0  0
   11.9368    2.1990   -1.4570 H   0  0  0  0  0  0  0  0  0  0  0  0
   11.9553    3.8822   -0.7228 H   0  0  0  0  0  0  0  0  0  0  0  0
   13.8493    5.2249   -0.8763 H   0  0  0  0  0  0  0  0  0  0  0  0
   16.0020    5.6737   -1.8513 H   0  0  0  0  0  0  0  0  0  0  0  0
   17.2724    3.8299   -2.9313 H   0  0  0  0  0  0  0  0  0  0  0  0
   16.3202    1.5704   -2.9929 H   0  0  0  0  0  0  0  0  0  0  0  0
   14.1146    1.0860   -1.9878 H   0  0  0  0  0  0  0  0  0  0  0  0
   10.5389    3.0999    1.3902 H   0  0  0  0  0  0  0  0  0  0  0  0
    8.3749    1.9165    1.1941 H   0  0  0  0  0  0  0  0  0  0  0  0
    7.5440    0.2237    2.6248 H   0  0  0  0  0  0  0  0  0  0  0  0
    9.0667    0.9992    3.2336 H   0  0  0  0  0  0  0  0  0  0  0  0
   11.1332   -0.4351    3.3006 H   0  0  0  0  0  0  0  0  0  0  0  0
   11.9876   -2.7347    3.5305 H   0  0  0  0  0  0  0  0  0  0  0  0
   10.5918   -4.6837    2.9981 H   0  0  0  0  0  0  0  0  0  0  0  0
    8.2517   -4.2504    2.1983 H   0  0  0  0  0  0  0  0  0  0  0  0
    7.3876   -1.9403    1.9740 H   0  0  0  0  0  0  0  0  0  0  0  0
    8.7550   -0.5664   -0.3944 H   0  0  0  0  0  0  0  0  0  0  0  0
    6.6858   -1.2921   -1.6149 H   0  0  0  0  0  0  0  0  0  0  0  0
    5.1981    1.2811   -2.2331 H   0  0  0  0  0  0  0  0  0  0  0  0
    5.1392   -0.2607   -3.1403 H   0  0  0  0  0  0  0  0  0  0  0  0
    7.5673   -0.1996   -3.5227 H   0  0  0  0  0  0  0  0  0  0  0  0
    7.5658    2.2143   -1.8496 H   0  0  0  0  0  0  0  0  0  0  0  0
    8.1647    2.4947   -3.5442 H   0  0  0  0  0  0  0  0  0  0  0  0
    8.9372    1.2395   -2.4872 H   0  0  0  0  0  0  0  0  0  0  0  0
    5.6369    1.8218   -4.5732 H   0  0  0  0  0  0  0  0  0  0  0  0
    7.3439    1.7625   -5.2068 H   0  0  0  0  0  0  0  0  0  0  0  0
    6.2164    0.2838   -5.2716 H   0  0  0  0  0  0  0  0  0  0  0  0
    4.9928   -1.8565   -0.1064 H   0  0  0  0  0  0  0  0  0  0  0  0
    2.7108   -1.8300    0.5856 H   0  0  0  0  0  0  0  0  0  0  0  0
    2.1658   -2.5161   -2.3428 H   0  0  0  0  0  0  0  0  0  0  0  0
    3.3275   -3.2669   -1.1816 H   0  0  0  0  0  0  0  0  0  0  0  0
    0.2727   -3.4052   -0.8527 H   0  0  0  0  0  0  0  0  0  0  0  0
    2.3946   -3.7954    1.0887 H   0  0  0  0  0  0  0  0  0  0  0  0
    0.6504   -4.3823    1.1369 H   0  0  0  0  0  0  0  0  0  0  0  0
    1.9286   -5.3926    0.4471 H   0  0  0  0  0  0  0  0  0  0  0  0
    2.3509   -5.3774   -1.7679 H   0  0  0  0  0  0  0  0  0  0  0  0
    0.5400   -5.6287   -1.5865 H   0  0  0  0  0  0  0  0  0  0  0  0
    1.1795   -4.4871   -2.8377 H   0  0  0  0  0  0  0  0  0  0  0  0
    0.9459   -0.2802   -1.3746 H   0  0  0  0  0  0  0  0  0  0  0  0
   -1.2439    0.1523   -0.5940 H   0  0  0  0  0  0  0  0  0  0  0  0
   -0.2425    2.1656    0.0124 H   0  0  0  0  0  0  0  0  0  0  0  0
   -1.8616    2.1464    0.7004 H   0  0  0  0  0  0  0  0  0  0  0  0
   -1.0576    1.6596    2.9415 H   0  0  0  0  0  0  0  0  0  0  0  0
    0.3327    3.9600    1.5196 H   0  0  0  0  0  0  0  0  0  0  0  0
   -0.2171    3.9747    3.2282 H   0  0  0  0  0  0  0  0  0  0  0  0
   -1.4301    3.9642    1.8346 H   0  0  0  0  0  0  0  0  0  0  0  0
    1.6527    1.4686    1.5694 H   0  0  0  0  0  0  0  0  0  0  0  0
    1.5886    2.7520    2.7713 H   0  0  0  0  0  0  0  0  0  0  0  0
    1.2146    1.0384    3.2499 H   0  0  0  0  0  0  0  0  0  0  0  0
   -1.9860   -0.4733    2.2632 H   0  0  0  0  0  0  0  0  0  0  0  0
   -4.8773   -0.8354    1.7158 H   0  0  0  0  0  0  0  0  0  0  0  0
   -3.1860   -3.3610    1.6999 H   0  0  0  0  0  0  0  0  0  0  0  0
   -3.1189   -2.1033    2.9218 H   0  0  0  0  0  0  0  0  0  0  0  0
   -5.4263   -2.7402    3.7189 H   0  0  0  0  0  0  0  0  0  0  0  0
   -6.6904   -3.9156    2.2474 H   0  0  0  0  0  0  0  0  0  0  0  0
   -5.2499   -4.8256    1.5098 H   0  0  0  0  0  0  0  0  0  0  0  0
   -5.8774   -5.2081    3.1251 H   0  0  0  0  0  0  0  0  0  0  0  0
   -3.8829   -3.6525    5.0043 H   0  0  0  0  0  0  0  0  0  0  0  0
   -4.3329   -5.1946    4.1507 H   0  0  0  0  0  0  0  0  0  0  0  0
   -2.8772   -4.2397    3.6500 H   0  0  0  0  0  0  0  0  0  0  0  0
   -4.7243   -2.6146   -0.6588 H   0  0  0  0  0  0  0  0  0  0  0  0
   -7.2270   -1.1007   -1.7360 H   0  0  0  0  0  0  0  0  0  0  0  0
   -8.1592   -2.9470   -2.8078 H   0  0  0  0  0  0  0  0  0  0  0  0
   -6.3688   -2.9953   -2.5666 H   0  0  0  0  0  0  0  0  0  0  0  0
   -7.6868   -5.0544   -2.7517 H   0  0  0  0  0  0  0  0  0  0  0  0
   -9.5883   -4.6899   -1.4919 H   0  0  0  0  0  0  0  0  0  0  0  0
   -8.6777   -4.6643    0.0982 H   0  0  0  0  0  0  0  0  0  0  0  0
   -8.7173   -6.1349   -0.9085 H   0  0  0  0  0  0  0  0  0  0  0  0
   -5.3058   -4.7291   -1.3760 H   0  0  0  0  0  0  0  0  0  0  0  0
   -6.0494   -6.1743   -2.0368 H   0  0  0  0  0  0  0  0  0  0  0  0
   -6.3090   -5.8663   -0.3307 H   0  0  0  0  0  0  0  0  0  0  0  0
   -9.4876   -2.4973   -0.5341 H   0  0  0  0  0  0  0  0  0  0  0  0
  -11.2240   -0.1040   -1.2220 H   0  0  0  0  0  0  0  0  0  0  0  0
  -10.4321    0.8339    1.6055 H   0  0  0  0  0  0  0  0  0  0  0  0
  -12.0347    1.0082    0.9253 H   0  0  0  0  0  0  0  0  0  0  0  0
  -12.1008   -0.5291    2.6266 H   0  0  0  0  0  0  0  0  0  0  0  0
  -10.8086   -2.2149    3.2393 H   0  0  0  0  0  0  0  0  0  0  0  0
   -9.5689   -1.3649    2.2278 H   0  0  0  0  0  0  0  0  0  0  0  0
  -10.5252   -2.7732    1.5499 H   0  0  0  0  0  0  0  0  0  0  0  0
  -12.3203   -2.1548    0.0475 H   0  0  0  0  0  0  0  0  0  0  0  0
  -13.5652   -1.1136    0.9461 H   0  0  0  0  0  0  0  0  0  0  0  0
  -12.8849   -2.5789    1.7020 H   0  0  0  0  0  0  0  0  0  0  0  0
   -9.7268    2.2479   -0.1225 H   0  0  0  0  0  0  0  0  0  0  0  0
   -9.7669    3.7349   -2.7000 H   0  0  0  0  0  0  0  0  0  0  0  0
  -10.6889    5.7186   -1.8801 H   0  0  0  0  0  0  0  0  0  0  0  0
  -10.1025    4.6704   -0.5918 H   0  0  0  0  0  0  0  0  0  0  0  0
  -11.9638    5.8847    0.1139 H   0  0  0  0  0  0  0  0  0  0  0  0
  -11.8905    3.5910    1.0732 H   0  0  0  0  0  0  0  0  0  0  0  0
  -13.5333    4.2505    0.9626 H   0  0  0  0  0  0  0  0  0  0  0  0
  -13.0448    3.0552   -0.2591 H   0  0  0  0  0  0  0  0  0  0  0  0
  -13.1518    6.5073   -1.8320 H   0  0  0  0  0  0  0  0  0  0  0  0
  -13.6856    4.7744   -2.1412 H   0  0  0  0  0  0  0  0  0  0  0  0
  -14.1912    5.6546   -0.6847 H   0  0  0  0  0  0  0  0  0  0  0  0
  -11.4511    4.9055   -3.7300 H   0  0  0  0  0  0  0  0  0  0  0  0
  -10.1362    2.6332   -4.3646 H   0  0  0  0  0  0  0  0  0  0  0  0
  -11.0691    3.7248   -5.4953 H   0  0  0  0  0  0  0  0  0  0  0  0
  -11.8152    2.2491   -4.8621 H   0  0  0  0  0  0  0  0  0  0  0  0
  1  2  1  0
  2  3  1  0
  3  4  2  0
  3  5  1  0
  5  6  1  0
  6  7  1  0
  7  8  2  0
  8  9  1  0
  9 10  2  0
 10 11  1  0
 11 12  2  0
  5 13  1  0
 13 14  1  0
 14 15  2  0
 14 16  1  0
 16 17  1  0
 17 18  1  0
 18 19  2  0
 19 20  1  0
 20 21  2  0
 21 22  1  0
 22 23  2  0
 16 24  1  0
 24 25  1  0
 25 26  2  0
 25 27  1  0
 27 28  1  0
 28 29  1  0
 29 30  1  0
 29 31  1  0
 27 32  1  0
 32 33  1  0
 33 34  2  0
 33 35  1  0
 35 36  1  0
 36 37  1  0
 37 38  1  0
 37 39  1  0
 35 40  1  0
 40 41  1  0
 41 42  2  0
 41 43  1  0
 43 44  1  0
 44 45  1  0
 45 46  1  0
 45 47  1  0
 43 48  1  0
 48 49  1  0
 49 50  2  0
 49 51  1  0
 51 52  1  0
 52 53  1  0
 53 54  1  0
 53 55  1  0
 51 56  1  0
 56 57  1  0
 57 58  2  0
 57 59  1  0
 59 60  1  0
 60 61  1  0
 61 62  1  0
 61 63  1  0
 59 64  1  0
 64 65  1  0
 65 66  2  0
 65 67  1  0
 67 68  1  0
 68 69  1  0
 69 70  1  0
 69 71  1  0
 67 72  1  0
 72 73  1  0
 73 74  2  0
 73 75  1  0
 75 76  1  0
 76 77  1  0
 77 78  1  0
 77 79  1  0
 75 80  1  0
 80 81  1  0
 12  7  1  0
 23 18  1  0
  1 82  1  0
  1 83  1  0
  1 84  1  0
  2 85  1  0
  5 86  1  6
  6 87  1  0
  6 88  1  0
  8 89  1  0
  9 90  1  0
 10 91  1  0
 11 92  1  0
 12 93  1  0
 13 94  1  0
 16 95  1  1
 17 96  1  0
 17 97  1  0
 19 98  1  0
 20 99  1  0
 21100  1  0
 22101  1  0
 23102  1  0
 24103  1  0
 27104  1  6
 28105  1  0
 28106  1  0
 29107  1  0
 30108  1  0
 30109  1  0
 30110  1  0
 31111  1  0
 31112  1  0
 31113  1  0
 32114  1  0
 35115  1  1
 36116  1  0
 36117  1  0
 37118  1  0
 38119  1  0
 38120  1  0
 38121  1  0
 39122  1  0
 39123  1  0
 39124  1  0
 40125  1  0
 43126  1  6
 44127  1  0
 44128  1  0
 45129  1  0
 46130  1  0
 46131  1  0
 46132  1  0
 47133  1  0
 47134  1  0
 47135  1  0
 48136  1  0
 51137  1  1
 52138  1  0
 52139  1  0
 53140  1  0
 54141  1  0
 54142  1  0
 54143  1  0
 55144  1  0
 55145  1  0
 55146  1  0
 56147  1  0
 59148  1  6
 60149  1  0
 60150  1  0
 61151  1  0
 62152  1  0
 62153  1  0
 62154  1  0
 63155  1  0
 63156  1  0
 63157  1  0
 64158  1  0
 67159  1  6
 68160  1  0
 68161  1  0
 69162  1  0
 70163  1  0
 70164  1  0
 70165  1  0
 71166  1  0
 71167  1  0
 71168  1  0
 72169  1  0
 75170  1  6
 76171  1  0
 76172  1  0
 77173  1  0
 78174  1  0
 78175  1  0
 78176  1  0
 79177  1  0
 79178  1  0
 79179  1  0
 80180  1  0
 81181  1  0
 81182  1  0
 81183  1  0
M  END
$$$$
[H]OC(=O)[C@@]([H])(N([H])C(=O)c1c([H])c([H])c(S(=O)(=O)N([H])[H])c([H])c1[H])C([H])([H])c1c([H])c([H])c([H])c([H])c1[H]
     RDKit          3D

 40 41  0  0  0  0  0  0  0  0999 V2000
   -7.2451    1.0221    0.3359 N   0  0  0  0  0  0  0  0  0  0  0  0
   -6.6623   -0.3987   -0.4365 S   0  0  0  0  0  0  0  0  0  0  0  0
   -6.9338   -1.5771    0.4684 O   0  0  0  0  0  0  0  0  0  0  0  0
   -7.3276   -0.6118   -1.7792 O   0  0  0  0  0  0  0  0  0  0  0  0
   -4.9345   -0.2687   -0.6435 C   0  0  0  0  0  0  0  0  0  0  0  0
   -4.0646   -0.7228    0.3251 C   0  0  0  0  0  0  0  0  0  0  0  0
   -2.6880   -0.6266    0.1755 C   0  0  0  0  0  0  0  0  0  0  0  0
   -2.1232   -0.0716   -0.9500 C   0  0  0  0  0  0  0  0  0  0  0  0
   -3.0124    0.3858   -1.9261 C   0  0  0  0  0  0  0  0  0  0  0  0
   -4.3780    0.2883   -1.7736 C   0  0  0  0  0  0  0  0  0  0  0  0
   -0.6855    0.0486   -1.1469 C   0  0  0  0  0  0  0  0  0  0  0  0
   -0.2622    0.5712   -2.2099 O   0  0  0  0  0  0  0  0  0  0  0  0
    0.2471   -0.3905   -0.2080 N   0  0  0  0  0  0  0  0  0  0  0  0
    1.7080   -0.2650   -0.4150 C   0  0  1  0  0  0  0  0  0  0  0  0
    2.2330    0.4695    0.7355 C   0  0  0  0  0  0  0  0  0  0  0  0
    3.6320    0.7738    0.8646 C   0  0  0  0  0  0  0  0  0  0  0  0
    4.4737   -0.0707    1.5536 C   0  0  0  0  0  0  0  0  0  0  0  0
    5.8341    0.2191    1.6825 C   0  0  0  0  0  0  0  0  0  0  0  0
    6.3692    1.3588    1.1227 C   0  0  0  0  0  0  0  0  0  0  0  0
    5.5314    2.2218    0.4235 C   0  0  0  0  0  0  0  0  0  0  0  0
    4.2096    1.9132    0.3144 C   0  0  0  0  0  0  0  0  0  0  0  0
    2.2941   -1.6214   -0.5479 C   0  0  0  0  0  0  0  0  0  0  0  0
    3.6406   -1.7675   -0.8085 O   0  0  0  0  0  0  0  0  0  0  0  0
    1.6067   -2.6702   -0.4340 O   0  0  0  0  0  0  0  0  0  0  0  0
   -7.7887    0.7939    1.2007 H   0  0  0  0  0  0  0  0  0  0  0  0
   -6.4808    1.6758    0.6148 H   0  0  0  0  0  0  0  0  0  0  0  0
   -4.4937   -1.1632    1.2189 H   0  0  0  0  0  0  0  0  0  0  0  0
   -2.0424   -0.9937    0.9563 H   0  0  0  0  0  0  0  0  0  0  0  0
   -2.5886    0.8231   -2.8138 H   0  0  0  0  0  0  0  0  0  0  0  0
   -5.0651    0.6508   -2.5465 H   0  0  0  0  0  0  0  0  0  0  0  0
   -0.0477   -0.8224    0.6727 H   0  0  0  0  0  0  0  0  0  0  0  0
    1.8111    0.2142   -1.3976 H   0  0  0  0  0  0  0  0  0  0  0  0
    1.9328   -0.0961    1.6736 H   0  0  0  0  0  0  0  0  0  0  0  0
    1.6650    1.4430    0.8743 H   0  0  0  0  0  0  0  0  0  0  0  0
    4.1316   -0.9936    2.0270 H   0  0  0  0  0  0  0  0  0  0  0  0
    6.4892   -0.4550    2.2288 H   0  0  0  0  0  0  0  0  0  0  0  0
    7.4240    1.6088    1.2075 H   0  0  0  0  0  0  0  0  0  0  0  0
    5.9248    3.1306   -0.0301 H   0  0  0  0  0  0  0  0  0  0  0  0
    3.5203    2.5532   -0.2192 H   0  0  0  0  0  0  0  0  0  0  0  0
    4.1460   -2.5462   -0.3901 H   0  0  0  0  0  0  0  0  0  0  0  0
  1  2  1  0
  2  3  2  0
  2  4  2  0
  2  5  1  0
  5  6  2  0
  6  7  1  0
  7  8  2  0
  8  9  1  0
  9 10  2  0
  8 11  1  0
 11 12  2  0
 11 13  1  0
 13 14  1  0
 14 15  1  0
 15 16  1  0
 16 17  2  0
 17 18  1  0
 18 19  2  0
 19 20  1  0
 20 21  2  0
 14 22  1  0
 22 23  1  0
 22 24  2  0
 10  5  1  0
 21 16  1  0
  1 25  1  0
  1 26  1  0
  6 27  1  0
  7 28  1  0
  9 29  1  0
 10 30  1  0
 13 31  1  0
 14 32  1  6
 15 33  1  0
 15 34  1  0
 17 35  1  0
 18 36  1  0
 19 37  1  0
 20 38  1  0
 21 39  1  0
 23 40  1  0
M  END
$$$$
[H]c1nc(N([H])[H])c(-c2c([H])c([H])c(C(=O)N([H])[C@@]([H])(C([H])([H])C([H])(C([H])([H])[H])C([H])([H])[H])C(C([H])([H])[H])(C([H])([H])[H])C([H])([H])[H])c([H])c2[H])nc1-c1c([H])c([H])nc(N2C([H])([H])C([H])([H])OC([H])([H])C2([H])[H])c1[H]
     RDKit          3D

 75 78  0  0  0  0  0  0  0  0999 V2000
   -4.5570   -2.6780   -0.2279 C   0  0  0  0  0  0  0  0  0  0  0  0
   -6.0174   -2.4958   -0.4428 C   0  0  0  0  0  0  0  0  0  0  0  0
   -6.7489   -3.7396    0.0445 C   0  0  0  0  0  0  0  0  0  0  0  0
   -6.6104   -1.2608    0.1466 C   0  0  0  0  0  0  0  0  0  0  0  0
   -6.0882    0.0414   -0.3382 C   0  0  2  0  0  0  0  0  0  0  0  0
   -4.6995    0.3050   -0.1399 N   0  0  0  0  0  0  0  0  0  0  0  0
   -3.8041    0.7077   -1.1496 C   0  0  0  0  0  0  0  0  0  0  0  0
   -4.2248    0.8585   -2.3175 O   0  0  0  0  0  0  0  0  0  0  0  0
   -2.4022    0.9570   -0.8792 C   0  0  0  0  0  0  0  0  0  0  0  0
   -1.6815    1.9118   -1.5744 C   0  0  0  0  0  0  0  0  0  0  0  0
   -0.3607    2.1514   -1.3479 C   0  0  0  0  0  0  0  0  0  0  0  0
    0.3213    1.4442   -0.4060 C   0  0  0  0  0  0  0  0  0  0  0  0
   -0.3557    0.4728    0.3210 C   0  0  0  0  0  0  0  0  0  0  0  0
   -1.6980    0.2363    0.0841 C   0  0  0  0  0  0  0  0  0  0  0  0
    1.7499    1.7398   -0.1680 C   0  0  0  0  0  0  0  0  0  0  0  0
    2.6111    0.7085   -0.1630 N   0  0  0  0  0  0  0  0  0  0  0  0
    3.9519    0.8605    0.0527 C   0  0  0  0  0  0  0  0  0  0  0  0
    4.3796    2.1480    0.2691 C   0  0  0  0  0  0  0  0  0  0  0  0
    3.4987    3.1934    0.2630 N   0  0  0  0  0  0  0  0  0  0  0  0
    2.2012    3.0237    0.0511 C   0  0  0  0  0  0  0  0  0  0  0  0
    1.3058    4.1403    0.0578 N   0  0  0  0  0  0  0  0  0  0  0  0
    4.8501   -0.2794    0.0271 C   0  0  0  0  0  0  0  0  0  0  0  0
    4.2958   -1.5342   -0.2250 C   0  0  0  0  0  0  0  0  0  0  0  0
    5.1372   -2.6435   -0.2741 C   0  0  0  0  0  0  0  0  0  0  0  0
    6.4587   -2.4968   -0.0798 N   0  0  0  0  0  0  0  0  0  0  0  0
    7.0031   -1.2718    0.1672 C   0  0  0  0  0  0  0  0  0  0  0  0
    6.1860   -0.1530    0.2204 C   0  0  0  0  0  0  0  0  0  0  0  0
    8.3937   -1.1433    0.3593 N   0  0  0  0  0  0  0  0  0  0  0  0
    9.2799   -2.2930    0.2588 C   0  0  0  0  0  0  0  0  0  0  0  0
   10.3200   -2.0672    1.3675 C   0  0  0  0  0  0  0  0  0  0  0  0
   11.0940   -0.9715    1.0865 O   0  0  0  0  0  0  0  0  0  0  0  0
   10.4678    0.0652    0.4458 C   0  0  0  0  0  0  0  0  0  0  0  0
    8.9691    0.1327    0.6655 C   0  0  0  0  0  0  0  0  0  0  0  0
   -6.9582    1.1990    0.1528 C   0  0  0  0  0  0  0  0  0  0  0  0
   -6.3846    2.4817   -0.3692 C   0  0  0  0  0  0  0  0  0  0  0  0
   -7.1145    1.2383    1.6349 C   0  0  0  0  0  0  0  0  0  0  0  0
   -8.3326    1.0166   -0.4696 C   0  0  0  0  0  0  0  0  0  0  0  0
   -4.1282   -2.1178    0.6155 H   0  0  0  0  0  0  0  0  0  0  0  0
   -4.0138   -2.3822   -1.1540 H   0  0  0  0  0  0  0  0  0  0  0  0
   -4.3561   -3.7806   -0.1245 H   0  0  0  0  0  0  0  0  0  0  0  0
   -6.1921   -2.4455   -1.5650 H   0  0  0  0  0  0  0  0  0  0  0  0
   -6.5018   -4.5947   -0.5843 H   0  0  0  0  0  0  0  0  0  0  0  0
   -7.8274   -3.5205   -0.0613 H   0  0  0  0  0  0  0  0  0  0  0  0
   -6.4517   -3.9081    1.0846 H   0  0  0  0  0  0  0  0  0  0  0  0
   -6.5152   -1.3271    1.2670 H   0  0  0  0  0  0  0  0  0  0  0  0
   -7.7184   -1.3230   -0.0322 H   0  0  0  0  0  0  0  0  0  0  0  0
   -6.2393    0.0774   -1.4643 H   0  0  0  0  0  0  0  0  0  0  0  0
   -4.2923    0.2051    0.8405 H   0  0  0  0  0  0  0  0  0  0  0  0
   -2.2190    2.4684   -2.3186 H   0  0  0  0  0  0  0  0  0  0  0  0
    0.2068    2.9095   -1.9067 H   0  0  0  0  0  0  0  0  0  0  0  0
    0.1773   -0.0979    1.0763 H   0  0  0  0  0  0  0  0  0  0  0  0
   -2.2374   -0.5191    0.6470 H   0  0  0  0  0  0  0  0  0  0  0  0
    5.4176    2.3691    0.4478 H   0  0  0  0  0  0  0  0  0  0  0  0
    1.6658    5.0851   -0.2523 H   0  0  0  0  0  0  0  0  0  0  0  0
    0.3234    4.0965    0.3462 H   0  0  0  0  0  0  0  0  0  0  0  0
    3.2418   -1.6995   -0.3879 H   0  0  0  0  0  0  0  0  0  0  0  0
    4.7462   -3.6408   -0.4696 H   0  0  0  0  0  0  0  0  0  0  0  0
    6.5987    0.8090    0.4149 H   0  0  0  0  0  0  0  0  0  0  0  0
    9.7748   -2.3130   -0.7257 H   0  0  0  0  0  0  0  0  0  0  0  0
    8.7411   -3.2170    0.4700 H   0  0  0  0  0  0  0  0  0  0  0  0
    9.7599   -1.9718    2.3366 H   0  0  0  0  0  0  0  0  0  0  0  0
   10.9490   -2.9658    1.4128 H   0  0  0  0  0  0  0  0  0  0  0  0
   10.6187   -0.0625   -0.6549 H   0  0  0  0  0  0  0  0  0  0  0  0
   10.8939    1.0634    0.6820 H   0  0  0  0  0  0  0  0  0  0  0  0
    8.5552    0.9450   -0.0009 H   0  0  0  0  0  0  0  0  0  0  0  0
    8.7340    0.4326    1.7098 H   0  0  0  0  0  0  0  0  0  0  0  0
   -5.3170    2.6406   -0.0947 H   0  0  0  0  0  0  0  0  0  0  0  0
   -6.9156    3.3714    0.0755 H   0  0  0  0  0  0  0  0  0  0  0  0
   -6.4922    2.5993   -1.4692 H   0  0  0  0  0  0  0  0  0  0  0  0
   -6.1586    0.9227    2.1073 H   0  0  0  0  0  0  0  0  0  0  0  0
   -7.9623    0.6150    1.9873 H   0  0  0  0  0  0  0  0  0  0  0  0
   -7.2404    2.3210    1.9311 H   0  0  0  0  0  0  0  0  0  0  0  0
   -8.9464    0.3785    0.2177 H   0  0  0  0  0  0  0  0  0  0  0  0
   -8.2926    0.5593   -1.4773 H   0  0  0  0  0  0  0  0  0  0  0  0
   -8.8229    2.0120   -0.4587 H   0  0  0  0  0  0  0  0  0  0  0  0
  1  2  1  0
  2  3  1  0
  2  4  1  0
  4  5  1  0
  5  6  1  0
  6  7  1  0
  7  8  2  0
  7  9  1  0
  9 10  2  0
 10 11  1  0
 11 12  2  0
 12 13  1  0
 13 14  2  0
 12 15  1  0
 15 16  2  0
 16 17  1  0
 17 18  2  0
 18 19  1  0
 19 20  2  0
 20 21  1  0
 17 22  1  0
 22 23  2  0
 23 24  1  0
 24 25  2  0
 25 26  1  0
 26 27  2  0
 26 28  1  0
 28 29  1  0
 29 30  1  0
 30 31  1  0
 31 32  1  0
 32 33  1  0
  5 34  1  0
 34 35  1  0
 34 36  1  0
 34 37  1  0
 14  9  1  0
 20 15  1  0
 27 22  1  0
 33 28  1  0
  1 38  1  0
  1 39  1  0
  1 40  1  0
  2 41  1  0
  3 42  1  0
  3 43  1  0
  3 44  1  0
  4 45  1  0
  4 46  1  0
  5 47  1  6
  6 48  1  0
 10 49  1  0
 11 50  1  0
 13 51  1  0
 14 52  1  0
 18 53  1  0
 21 54  1  0
 21 55  1  0
 23 56  1  0
 24 57  1  0
 27 58  1  0
 29 59  1  0
 29 60  1  0
 30 61  1  0
 30 62  1  0
 32 63  1  0
 32 64  1  0
 33 65  1  0
 33 66  1  0
 35 67  1  0
 35 68  1  0
 35 69  1  0
 36 70  1  0
 36 71  1  0
 36 72  1  0
 37 73  1  0
 37 74  1  0
 37 75  1  0
M  END
$$$$
[H]Oc1c([H])c([H])c(C([H])([H])[C@@]([H])(C(=O)N([H])[C@]([H])(C(=O)N([H])[C@]([H])(C(=O)N([H])[C@]([H])(C(=O)N([H])[C@]([H])(C(=O)N([H])[H])C([H])([H])c2c([H])c([H])c([H])c([H])c2[H])C([H])([H])c2c([H])c([H])c([H])c([H])c2[H])C([H])([H])c2c([H])n([H])c3c([H])c([H])c([H])c([H])c23)[C@@]([H])(C([H])([H])[H])C([H])([H])C([H])([H])[H])N([H])[H])c([H])c1[H]
     RDKit          3D

108112  0  0  0  0  0  0  0  0999 V2000
    1.6129    3.9669   -2.5029 C   0  0  0  0  0  0  0  0  0  0  0  0
    1.4474    2.6711   -1.6996 C   0  0  0  0  0  0  0  0  0  0  0  0
    2.7938    2.0858   -1.4042 C   0  0  2  0  0  0  0  0  0  0  0  0
    3.4910    1.7732   -2.7031 C   0  0  0  0  0  0  0  0  0  0  0  0
    2.7459    0.8901   -0.4607 C   0  0  2  0  0  0  0  0  0  0  0  0
    4.1152    0.4721   -0.2943 N   0  0  0  0  0  0  0  0  0  0  0  0
    4.7321    0.7549    0.9451 C   0  0  0  0  0  0  0  0  0  0  0  0
    4.1392    1.3387    1.8891 O   0  0  0  0  0  0  0  0  0  0  0  0
    6.1451    0.3568    1.1605 C   0  0  1  0  0  0  0  0  0  0  0  0
    6.6107   -0.4289    0.0320 N   0  0  0  0  0  0  0  0  0  0  0  0
    6.9209    1.6615    1.2576 C   0  0  0  0  0  0  0  0  0  0  0  0
    8.3642    1.4893    1.4832 C   0  0  0  0  0  0  0  0  0  0  0  0
    9.2243    1.3370    0.4274 C   0  0  0  0  0  0  0  0  0  0  0  0
   10.5686    1.2116    0.7237 C   0  0  0  0  0  0  0  0  0  0  0  0
   11.0538    1.2341    2.0120 C   0  0  0  0  0  0  0  0  0  0  0  0
   12.4151    1.1054    2.2604 O   0  0  0  0  0  0  0  0  0  0  0  0
   10.1741    1.3875    3.0662 C   0  0  0  0  0  0  0  0  0  0  0  0
    8.8214    1.5143    2.7782 C   0  0  0  0  0  0  0  0  0  0  0  0
    1.9595   -0.2203   -1.0467 C   0  0  0  0  0  0  0  0  0  0  0  0
    2.5459   -0.9192   -1.9171 O   0  0  0  0  0  0  0  0  0  0  0  0
    0.6266   -0.4438   -0.6176 N   0  0  0  0  0  0  0  0  0  0  0  0
   -0.2829   -1.4335   -1.0513 C   0  0  1  0  0  0  0  0  0  0  0  0
   -0.6075   -2.5642   -0.1574 C   0  0  0  0  0  0  0  0  0  0  0  0
    0.5201   -3.4419    0.2145 C   0  0  0  0  0  0  0  0  0  0  0  0
    0.9051   -4.6218   -0.3966 C   0  0  0  0  0  0  0  0  0  0  0  0
    1.9893   -5.1003    0.1814 N   0  0  0  0  0  0  0  0  0  0  0  0
    2.3553   -4.2657    1.1832 C   0  0  0  0  0  0  0  0  0  0  0  0
    3.3838   -4.2897    2.0932 C   0  0  0  0  0  0  0  0  0  0  0  0
    3.5323   -3.3092    3.0374 C   0  0  0  0  0  0  0  0  0  0  0  0
    2.6403   -2.2615    3.0962 C   0  0  0  0  0  0  0  0  0  0  0  0
    1.6155   -2.2402    2.1855 C   0  0  0  0  0  0  0  0  0  0  0  0
    1.4340   -3.2221    1.2081 C   0  0  0  0  0  0  0  0  0  0  0  0
   -1.5121   -0.8025   -1.5778 C   0  0  0  0  0  0  0  0  0  0  0  0
   -1.3624    0.2320   -2.3269 O   0  0  0  0  0  0  0  0  0  0  0  0
   -2.8434   -1.2353   -1.3284 N   0  0  0  0  0  0  0  0  0  0  0  0
   -3.9561   -0.5446   -1.9115 C   0  0  1  0  0  0  0  0  0  0  0  0
   -5.0397   -1.2861   -2.4879 C   0  0  0  0  0  0  0  0  0  0  0  0
   -5.8752   -2.2108   -1.7810 C   0  0  0  0  0  0  0  0  0  0  0  0
   -5.4467   -3.5363   -1.6782 C   0  0  0  0  0  0  0  0  0  0  0  0
   -6.1834   -4.4911   -1.0311 C   0  0  0  0  0  0  0  0  0  0  0  0
   -7.3841   -4.1921   -0.4494 C   0  0  0  0  0  0  0  0  0  0  0  0
   -7.8342   -2.8868   -0.5351 C   0  0  0  0  0  0  0  0  0  0  0  0
   -7.0812   -1.9471   -1.1871 C   0  0  0  0  0  0  0  0  0  0  0  0
   -4.2571    0.7256   -1.1568 C   0  0  0  0  0  0  0  0  0  0  0  0
   -3.4675    1.1463   -0.2772 O   0  0  0  0  0  0  0  0  0  0  0  0
   -5.4045    1.5211   -1.3732 N   0  0  0  0  0  0  0  0  0  0  0  0
   -5.7545    2.7453   -0.7668 C   0  0  1  0  0  0  0  0  0  0  0  0
   -5.7951    2.7191    0.7164 C   0  0  0  0  0  0  0  0  0  0  0  0
   -6.7525    1.7754    1.3117 C   0  0  0  0  0  0  0  0  0  0  0  0
   -6.4139    0.5209    1.7537 C   0  0  0  0  0  0  0  0  0  0  0  0
   -7.3690   -0.3067    2.3022 C   0  0  0  0  0  0  0  0  0  0  0  0
   -8.6911    0.1100    2.4182 C   0  0  0  0  0  0  0  0  0  0  0  0
   -9.0581    1.3673    1.9808 C   0  0  0  0  0  0  0  0  0  0  0  0
   -8.0654    2.1670    1.4363 C   0  0  0  0  0  0  0  0  0  0  0  0
   -4.7103    3.7823   -1.1387 C   0  0  0  0  0  0  0  0  0  0  0  0
   -4.8177    5.1092   -0.6555 N   0  0  0  0  0  0  0  0  0  0  0  0
   -3.7642    3.4655   -1.8686 O   0  0  0  0  0  0  0  0  0  0  0  0
    0.6253    4.4683   -2.5558 H   0  0  0  0  0  0  0  0  0  0  0  0
    1.8919    3.6867   -3.5297 H   0  0  0  0  0  0  0  0  0  0  0  0
    2.4059    4.6013   -2.0631 H   0  0  0  0  0  0  0  0  0  0  0  0
    0.8182    2.8643   -0.8342 H   0  0  0  0  0  0  0  0  0  0  0  0
    0.8755    1.9952   -2.4023 H   0  0  0  0  0  0  0  0  0  0  0  0
    3.4053    2.9078   -0.9283 H   0  0  0  0  0  0  0  0  0  0  0  0
    4.4808    1.3015   -2.5792 H   0  0  0  0  0  0  0  0  0  0  0  0
    3.6653    2.7436   -3.2261 H   0  0  0  0  0  0  0  0  0  0  0  0
    2.8161    1.1727   -3.3808 H   0  0  0  0  0  0  0  0  0  0  0  0
    2.2802    1.1978    0.5066 H   0  0  0  0  0  0  0  0  0  0  0  0
    4.6150   -0.0118   -1.0370 H   0  0  0  0  0  0  0  0  0  0  0  0
    6.3157   -0.2158    2.0735 H   0  0  0  0  0  0  0  0  0  0  0  0
    6.0098   -1.2320   -0.1855 H   0  0  0  0  0  0  0  0  0  0  0  0
    7.5790   -0.7859    0.2026 H   0  0  0  0  0  0  0  0  0  0  0  0
    6.4246    2.2775    2.0311 H   0  0  0  0  0  0  0  0  0  0  0  0
    6.7845    2.1974    0.2954 H   0  0  0  0  0  0  0  0  0  0  0  0
    8.9164    1.3097   -0.6018 H   0  0  0  0  0  0  0  0  0  0  0  0
   11.2491    1.0924   -0.1112 H   0  0  0  0  0  0  0  0  0  0  0  0
   13.0123    1.9304    2.3024 H   0  0  0  0  0  0  0  0  0  0  0  0
   10.5886    1.4029    4.0630 H   0  0  0  0  0  0  0  0  0  0  0  0
    8.1540    1.6336    3.6249 H   0  0  0  0  0  0  0  0  0  0  0  0
    0.2872    0.2457    0.1385 H   0  0  0  0  0  0  0  0  0  0  0  0
    0.2173   -1.8784   -2.0144 H   0  0  0  0  0  0  0  0  0  0  0  0
   -1.1189   -2.1423    0.7608 H   0  0  0  0  0  0  0  0  0  0  0  0
   -1.3712   -3.2528   -0.6057 H   0  0  0  0  0  0  0  0  0  0  0  0
    0.3740   -5.0585   -1.2204 H   0  0  0  0  0  0  0  0  0  0  0  0
    2.5413   -5.9864   -0.0460 H   0  0  0  0  0  0  0  0  0  0  0  0
    4.0998   -5.1265    2.0497 H   0  0  0  0  0  0  0  0  0  0  0  0
    4.3432   -3.3490    3.7338 H   0  0  0  0  0  0  0  0  0  0  0  0
    2.7158   -1.4646    3.8260 H   0  0  0  0  0  0  0  0  0  0  0  0
    0.8762   -1.4356    2.1978 H   0  0  0  0  0  0  0  0  0  0  0  0
   -2.9499   -2.0728   -0.6959 H   0  0  0  0  0  0  0  0  0  0  0  0
   -3.4324   -0.0522   -2.8450 H   0  0  0  0  0  0  0  0  0  0  0  0
   -5.7209   -0.5713   -3.0448 H   0  0  0  0  0  0  0  0  0  0  0  0
   -4.6174   -1.8871   -3.3748 H   0  0  0  0  0  0  0  0  0  0  0  0
   -4.5015   -3.8511   -2.1142 H   0  0  0  0  0  0  0  0  0  0  0  0
   -5.8268   -5.5283   -0.9650 H   0  0  0  0  0  0  0  0  0  0  0  0
   -7.9846   -4.9152    0.0631 H   0  0  0  0  0  0  0  0  0  0  0  0
   -8.7911   -2.6572   -0.0662 H   0  0  0  0  0  0  0  0  0  0  0  0
   -7.4394   -0.9474   -1.2467 H   0  0  0  0  0  0  0  0  0  0  0  0
   -6.0790    1.1273   -2.0889 H   0  0  0  0  0  0  0  0  0  0  0  0
   -6.7336    3.1410   -1.1722 H   0  0  0  0  0  0  0  0  0  0  0  0
   -6.0592    3.7505    1.1350 H   0  0  0  0  0  0  0  0  0  0  0  0
   -4.7711    2.5480    1.1593 H   0  0  0  0  0  0  0  0  0  0  0  0
   -5.3786    0.1539    1.6886 H   0  0  0  0  0  0  0  0  0  0  0  0
   -7.0912   -1.3008    2.6531 H   0  0  0  0  0  0  0  0  0  0  0  0
   -9.4596   -0.5224    2.8466 H   0  0  0  0  0  0  0  0  0  0  0  0
  -10.0941    1.6911    2.0725 H   0  0  0  0  0  0  0  0  0  0  0  0
   -8.3377    3.1534    1.0909 H   0  0  0  0  0  0  0  0  0  0  0  0
   -5.7665    5.5159   -0.5216 H   0  0  0  0  0  0  0  0  0  0  0  0
   -3.9968    5.6995   -0.4305 H   0  0  0  0  0  0  0  0  0  0  0  0
  1  2  1  0
  2  3  1  0
  3  4  1  0
  3  5  1  0
  5  6  1  0
  6  7  1  0
  7  8  2  0
  7  9  1  0
  9 10  1  0
  9 11  1  0
 11 12  1  0
 12 13  2  0
 13 14  1  0
 14 15  2  0
 15 16  1  0
 15 17  1  0
 17 18  2  0
  5 19  1  0
 19 20  2  0
 19 21  1  0
 21 22  1  0
 22 23  1  0
 23 24  1  0
 24 25  2  0
 25 26  1  0
 26 27  1  0
 27 28  2  0
 28 29  1  0
 29 30  2  0
 30 31  1  0
 31 32  2  0
 22 33  1  0
 33 34  2  0
 33 35  1  0
 35 36  1  0
 36 37  1  0
 37 38  1  0
 38 39  2  0
 39 40  1  0
 40 41  2  0
 41 42  1  0
 42 43  2  0
 36 44  1  0
 44 45  2  0
 44 46  1  0
 46 47  1  0
 47 48  1  0
 48 49  1  0
 49 50  2  0
 50 51  1  0
 51 52  2  0
 52 53  1  0
 53 54  2  0
 47 55  1  0
 55 56  1  0
 55 57  2  0
 18 12  1  0
 32 24  1  0
 43 38  1  0
 54 49  1  0
 32 27  1  0
  1 58  1  0
  1 59  1  0
  1 60  1  0
  2 61  1  0
  2 62  1  0
  3 63  1  1
  4 64  1  0
  4 65  1  0
  4 66  1  0
  5 67  1  1
  6 68  1  0
  9 69  1  1
 10 70  1  0
 10 71  1  0
 11 72  1  0
 11 73  1  0
 13 74  1  0
 14 75  1  0
 16 76  1  0
 17 77  1  0
 18 78  1  0
 21 79  1  0
 22 80  1  6
 23 81  1  0
 23 82  1  0
 25 83  1  0
 26 84  1  0
 28 85  1  0
 29 86  1  0
 30 87  1  0
 31 88  1  0
 35 89  1  0
 36 90  1  6
 37 91  1  0
 37 92  1  0
 39 93  1  0
 40 94  1  0
 41 95  1  0
 42 96  1  0
 43 97  1  0
 46 98  1  0
 47 99  1  6
 48100  1  0
 48101  1  0
 50102  1  0
 51103  1  0
 52104  1  0
 53105  1  0
 54106  1  0
 56107  1  0
 56108  1  0
M  END
$$$$
[H]c1c([H])c(F)c([H])c(N2C([H])([H])[C@]([H])(c3c([H])c([H])c(Cl)c([H])c3[H])[C@]([H])(C([H])([H])[H])C2([H])[H])c1[H]
     RDKit          3D

 37 39  0  0  0  0  0  0  0  0999 V2000
   -1.5369   -2.0683    1.2098 C   0  0  0  0  0  0  0  0  0  0  0  0
   -0.4908   -1.5273    0.2820 C   0  0  2  0  0  0  0  0  0  0  0  0
    0.7003   -0.9529    1.0175 C   0  0  0  0  0  0  0  0  0  0  0  0
    1.2600   -0.0623    0.0273 N   0  0  0  0  0  0  0  0  0  0  0  0
    0.1346    0.5465   -0.6391 C   0  0  0  0  0  0  0  0  0  0  0  0
   -0.9778   -0.4797   -0.6495 C   0  0  2  0  0  0  0  0  0  0  0  0
   -2.2563    0.1372   -0.3155 C   0  0  0  0  0  0  0  0  0  0  0  0
   -3.3017    0.1476   -1.2134 C   0  0  0  0  0  0  0  0  0  0  0  0
   -4.5289    0.7414   -0.8903 C   0  0  0  0  0  0  0  0  0  0  0  0
   -4.7146    1.3309    0.3417 C   0  0  0  0  0  0  0  0  0  0  0  0
   -6.2710    2.0702    0.7188 Cl  0  0  0  0  0  0  0  0  0  0  0  0
   -3.6754    1.3227    1.2395 C   0  0  0  0  0  0  0  0  0  0  0  0
   -2.4735    0.7331    0.9039 C   0  0  0  0  0  0  0  0  0  0  0  0
    2.6160    0.1904   -0.2615 C   0  0  0  0  0  0  0  0  0  0  0  0
    3.0353    1.0867   -1.2131 C   0  0  0  0  0  0  0  0  0  0  0  0
    4.3641    1.3217   -1.4847 C   0  0  0  0  0  0  0  0  0  0  0  0
    5.3498    0.6609   -0.8066 C   0  0  0  0  0  0  0  0  0  0  0  0
    4.9709   -0.2485    0.1582 C   0  0  0  0  0  0  0  0  0  0  0  0
    5.9326   -0.9140    0.8418 F   0  0  0  0  0  0  0  0  0  0  0  0
    3.6233   -0.4824    0.4289 C   0  0  0  0  0  0  0  0  0  0  0  0
   -2.5613   -1.9779    0.8397 H   0  0  0  0  0  0  0  0  0  0  0  0
   -1.5054   -1.5819    2.2109 H   0  0  0  0  0  0  0  0  0  0  0  0
   -1.3415   -3.1435    1.3993 H   0  0  0  0  0  0  0  0  0  0  0  0
   -0.0748   -2.4079   -0.2930 H   0  0  0  0  0  0  0  0  0  0  0  0
    0.4186   -0.3975    1.9353 H   0  0  0  0  0  0  0  0  0  0  0  0
    1.4033   -1.7464    1.3435 H   0  0  0  0  0  0  0  0  0  0  0  0
   -0.1444    1.4477   -0.0182 H   0  0  0  0  0  0  0  0  0  0  0  0
    0.3933    0.8913   -1.6476 H   0  0  0  0  0  0  0  0  0  0  0  0
   -0.9710   -0.9049   -1.6975 H   0  0  0  0  0  0  0  0  0  0  0  0
   -3.2018   -0.3025   -2.1910 H   0  0  0  0  0  0  0  0  0  0  0  0
   -5.3579    0.7602   -1.5773 H   0  0  0  0  0  0  0  0  0  0  0  0
   -3.8009    1.7782    2.2078 H   0  0  0  0  0  0  0  0  0  0  0  0
   -1.6679    0.7351    1.6177 H   0  0  0  0  0  0  0  0  0  0  0  0
    2.2614    1.6366   -1.7763 H   0  0  0  0  0  0  0  0  0  0  0  0
    4.6246    2.0336   -2.2394 H   0  0  0  0  0  0  0  0  0  0  0  0
    6.4133    0.8161   -0.9895 H   0  0  0  0  0  0  0  0  0  0  0  0
    3.3524   -1.1901    1.1796 H   0  0  0  0  0  0  0  0  0  0  0  0
  1  2  1  0
  2  3  1  0
  3  4  1  0
  4  5  1  0
  5  6  1  0
  6  7  1  0
  7  8  2  0
  8  9  1  0
  9 10  2  0
 10 11  1  0
 10 12  1  0
 12 13  2  0
  4 14  1  0
 14 15  2  0
 15 16  1  0
 16 17  2  0
 17 18  1  0
 18 19  1  0
 18 20  2  0
  6  2  1  0
 13  7  1  0
 20 14  1  0
  1 21  1  0
  1 22  1  0
  1 23  1  0
  2 24  1  6
  3 25  1  0
  3 26  1  0
  5 27  1  0
  5 28  1  0
  6 29  1  6
  8 30  1  0
  9 31  1  0
 12 32  1  0
 13 33  1  0
 15 34  1  0
 16 35  1  0
 17 36  1  0
 20 37  1  0
M  END
$$$$
[H]OC([H])([H])[C@]1([H])O[C@@]([H])(n2c([H])nc3c(N([H])[H])nc([H])nc32)[C@]([H])(O[H])[C@@]([H])(O[H])[C@]1([H])O[H]
     RDKit          3D

 36 38  0  0  0  0  0  0  0  0999 V2000
    5.5258    1.0419    0.5329 N   0  0  0  0  0  0  0  0  0  0  0  0
    4.5013    0.1887    0.0616 C   0  0  0  0  0  0  0  0  0  0  0  0
    4.7820   -1.0413   -0.3625 N   0  0  0  0  0  0  0  0  0  0  0  0
    3.8548   -1.8829   -0.8153 C   0  0  0  0  0  0  0  0  0  0  0  0
    2.5806   -1.4543   -0.8384 N   0  0  0  0  0  0  0  0  0  0  0  0
    2.2206   -0.2243   -0.4257 C   0  0  0  0  0  0  0  0  0  0  0  0
    1.0174    0.3895   -0.3685 N   0  0  0  0  0  0  0  0  0  0  0  0
    1.2445    1.6106    0.1260 C   0  0  0  0  0  0  0  0  0  0  0  0
    2.5657    1.7607    0.3746 N   0  0  0  0  0  0  0  0  0  0  0  0
    3.2041    0.6274    0.0390 C   0  0  0  0  0  0  0  0  0  0  0  0
   -0.2605   -0.2122   -0.7816 C   0  0  2  0  0  0  0  0  0  0  0  0
   -1.1178    0.7645   -1.0739 O   0  0  0  0  0  0  0  0  0  0  0  0
   -2.1592    1.0541   -0.2802 C   0  0  1  0  0  0  0  0  0  0  0  0
   -3.4430    0.8555   -1.0594 C   0  0  0  0  0  0  0  0  0  0  0  0
   -4.5837    1.1313   -0.3251 O   0  0  0  0  0  0  0  0  0  0  0  0
   -2.2511    0.3438    1.0205 C   0  0  1  0  0  0  0  0  0  0  0  0
   -3.4311    0.5863    1.6754 O   0  0  0  0  0  0  0  0  0  0  0  0
   -2.0404   -1.1418    0.7214 C   0  0  2  0  0  0  0  0  0  0  0  0
   -2.2068   -1.9085    1.8678 O   0  0  0  0  0  0  0  0  0  0  0  0
   -0.6241   -1.2284    0.2219 C   0  0  1  0  0  0  0  0  0  0  0  0
   -0.4419   -2.5470   -0.2538 O   0  0  0  0  0  0  0  0  0  0  0  0
    5.4618    2.0773    0.4507 H   0  0  0  0  0  0  0  0  0  0  0  0
    6.3867    0.6613    0.9821 H   0  0  0  0  0  0  0  0  0  0  0  0
    4.1519   -2.8815   -1.1495 H   0  0  0  0  0  0  0  0  0  0  0  0
    0.4570    2.3457    0.2894 H   0  0  0  0  0  0  0  0  0  0  0  0
    0.0028   -0.7603   -1.7371 H   0  0  0  0  0  0  0  0  0  0  0  0
   -2.1280    2.1596   -0.0469 H   0  0  0  0  0  0  0  0  0  0  0  0
   -3.5468   -0.1995   -1.4188 H   0  0  0  0  0  0  0  0  0  0  0  0
   -3.4778    1.5518   -1.9474 H   0  0  0  0  0  0  0  0  0  0  0  0
   -4.5788    2.0673    0.0262 H   0  0  0  0  0  0  0  0  0  0  0  0
   -1.3548    0.6636    1.6313 H   0  0  0  0  0  0  0  0  0  0  0  0
   -3.3162    1.4248    2.2161 H   0  0  0  0  0  0  0  0  0  0  0  0
   -2.7053   -1.4869   -0.0836 H   0  0  0  0  0  0  0  0  0  0  0  0
   -3.0719   -2.3833    1.7773 H   0  0  0  0  0  0  0  0  0  0  0  0
    0.0313   -1.1787    1.1406 H   0  0  0  0  0  0  0  0  0  0  0  0
   -1.2490   -2.7745   -0.7872 H   0  0  0  0  0  0  0  0  0  0  0  0
  1  2  1  0
  2  3  2  0
  3  4  1  0
  4  5  2  0
  5  6  1  0
  6  7  1  0
  7  8  1  0
  8  9  2  0
  9 10  1  0
  7 11  1  0
 11 12  1  0
 12 13  1  0
 13 14  1  0
 14 15  1  0
 13 16  1  0
 16 17  1  0
 16 18  1  0
 18 19  1  0
 18 20  1  0
 20 21  1  0
 10  2  1  0
 20 11  1  0
 10  6  2  0
  1 22  1  0
  1 23  1  0
  4 24  1  0
  8 25  1  0
 11 26  1  6
 13 27  1  1
 14 28  1  0
 14 29  1  0
 15 30  1  0
 16 31  1  1
 17 32  1  0
 18 33  1  6
 19 34  1  0
 20 35  1  1
 21 36  1  0
M  END
$$$$
[H]c1c([H])c([C@]2([H])N(S(=O)(=O)c3c([H])c([H])c(C([H])(C([H])([H])[H])C([H])([H])[H])c([H])c3[H])C([H])([H])[C@@]([H])(c3c([H])c([H])c(Cl)c([H])c3[H])C2([H])[H])c([H])c([H])c1Cl
     RDKit          3D

 56 59  0  0  0  0  0  0  0  0999 V2000
    5.5498    0.9555    1.6798 C   0  0  0  0  0  0  0  0  0  0  0  0
    5.7053    0.7206    0.1780 C   0  0  0  0  0  0  0  0  0  0  0  0
    6.3940    1.8941   -0.4505 C   0  0  0  0  0  0  0  0  0  0  0  0
    4.3446    0.5012   -0.3699 C   0  0  0  0  0  0  0  0  0  0  0  0
    4.0534   -0.7175   -0.9254 C   0  0  0  0  0  0  0  0  0  0  0  0
    2.7862   -0.9438   -1.4443 C   0  0  0  0  0  0  0  0  0  0  0  0
    1.8093    0.0325   -1.4142 C   0  0  0  0  0  0  0  0  0  0  0  0
    2.0937    1.2455   -0.8633 C   0  0  0  0  0  0  0  0  0  0  0  0
    3.3650    1.4571   -0.3484 C   0  0  0  0  0  0  0  0  0  0  0  0
    0.2078   -0.2749   -2.0796 S   0  0  0  0  0  0  0  0  0  0  0  0
    0.4346   -1.2977   -3.1859 O   0  0  0  0  0  0  0  0  0  0  0  0
   -0.3134    0.9954   -2.6572 O   0  0  0  0  0  0  0  0  0  0  0  0
   -0.7845   -0.9351   -0.8415 N   0  0  0  0  0  0  0  0  0  0  0  0
   -0.9827   -0.0888    0.2797 C   0  0  0  0  0  0  0  0  0  0  0  0
   -2.4836    0.0600    0.4675 C   0  0  2  0  0  0  0  0  0  0  0  0
   -2.9232   -0.1083   -0.9902 C   0  0  0  0  0  0  0  0  0  0  0  0
   -2.0761   -1.2967   -1.3877 C   0  0  2  0  0  0  0  0  0  0  0  0
   -2.5199   -2.5285   -0.7278 C   0  0  0  0  0  0  0  0  0  0  0  0
   -1.6278   -3.5841   -0.4981 C   0  0  0  0  0  0  0  0  0  0  0  0
   -1.9941   -4.7522    0.1047 C   0  0  0  0  0  0  0  0  0  0  0  0
   -3.2979   -4.9342    0.5198 C   0  0  0  0  0  0  0  0  0  0  0  0
   -3.7855   -6.4325    1.2977 Cl  0  0  0  0  0  0  0  0  0  0  0  0
   -4.1934   -3.9315    0.3139 C   0  0  0  0  0  0  0  0  0  0  0  0
   -3.8080   -2.7440   -0.3023 C   0  0  0  0  0  0  0  0  0  0  0  0
   -2.8861    1.4143    0.8989 C   0  0  0  0  0  0  0  0  0  0  0  0
   -3.7653    1.6056    1.9645 C   0  0  0  0  0  0  0  0  0  0  0  0
   -4.1125    2.8735    2.3350 C   0  0  0  0  0  0  0  0  0  0  0  0
   -3.6157    3.9768    1.6817 C   0  0  0  0  0  0  0  0  0  0  0  0
   -4.0666    5.6098    2.1630 Cl  0  0  0  0  0  0  0  0  0  0  0  0
   -2.7499    3.8112    0.6314 C   0  0  0  0  0  0  0  0  0  0  0  0
   -2.3996    2.5187    0.2582 C   0  0  0  0  0  0  0  0  0  0  0  0
    6.5570    1.0479    2.1419 H   0  0  0  0  0  0  0  0  0  0  0  0
    5.0368    0.0551    2.1147 H   0  0  0  0  0  0  0  0  0  0  0  0
    4.9081    1.8324    1.8685 H   0  0  0  0  0  0  0  0  0  0  0  0
    6.3350   -0.1793    0.0453 H   0  0  0  0  0  0  0  0  0  0  0  0
    6.0946    2.0120   -1.5225 H   0  0  0  0  0  0  0  0  0  0  0  0
    6.2614    2.8335    0.1244 H   0  0  0  0  0  0  0  0  0  0  0  0
    7.4843    1.6911   -0.4576 H   0  0  0  0  0  0  0  0  0  0  0  0
    4.8030   -1.5026   -0.9620 H   0  0  0  0  0  0  0  0  0  0  0  0
    2.5140   -1.8885   -1.8908 H   0  0  0  0  0  0  0  0  0  0  0  0
    1.3639    2.0441   -0.8162 H   0  0  0  0  0  0  0  0  0  0  0  0
    3.6040    2.4138    0.0912 H   0  0  0  0  0  0  0  0  0  0  0  0
   -0.6108   -0.5923    1.2121 H   0  0  0  0  0  0  0  0  0  0  0  0
   -0.4941    0.8743    0.1343 H   0  0  0  0  0  0  0  0  0  0  0  0
   -2.9303   -0.6850    1.1221 H   0  0  0  0  0  0  0  0  0  0  0  0
   -3.9925   -0.2310   -1.1171 H   0  0  0  0  0  0  0  0  0  0  0  0
   -2.5569    0.8149   -1.4936 H   0  0  0  0  0  0  0  0  0  0  0  0
   -2.0277   -1.4043   -2.4993 H   0  0  0  0  0  0  0  0  0  0  0  0
   -0.6056   -3.4691   -0.8114 H   0  0  0  0  0  0  0  0  0  0  0  0
   -1.3048   -5.5684    0.2826 H   0  0  0  0  0  0  0  0  0  0  0  0
   -5.2155   -4.0796    0.6416 H   0  0  0  0  0  0  0  0  0  0  0  0
   -4.5714   -2.0192   -0.4220 H   0  0  0  0  0  0  0  0  0  0  0  0
   -4.1450    0.7456    2.4645 H   0  0  0  0  0  0  0  0  0  0  0  0
   -4.7987    3.0677    3.1651 H   0  0  0  0  0  0  0  0  0  0  0  0
   -2.3567    4.6651    0.1152 H   0  0  0  0  0  0  0  0  0  0  0  0
   -1.7103    2.4197   -0.5771 H   0  0  0  0  0  0  0  0  0  0  0  0
  1  2  1  0
  2  3  1  0
  2  4  1  0
  4  5  2  0
  5  6  1  0
  6  7  2  0
  7  8  1  0
  8  9  2  0
  7 10  1  0
 10 11  2  0
 10 12  2  0
 10 13  1  0
 13 14  1  0
 14 15  1  0
 15 16  1  0
 16 17  1  0
 17 18  1  0
 18 19  2  0
 19 20  1  0
 20 21  2  0
 21 22  1  0
 21 23  1  0
 23 24  2  0
 15 25  1  0
 25 26  2  0
 26 27  1  0
 27 28  2  0
 28 29  1  0
 28 30  1  0
 30 31  2  0
  9  4  1  0
 17 13  1  0
 24 18  1  0
 31 25  1  0
  1 32  1  0
  1 33  1  0
  1 34  1  0
  2 35  1  0
  3 36  1  0
  3 37  1  0
  3 38  1  0
  5 39  1  0
  6 40  1  0
  8 41  1  0
  9 42  1  0
 14 43  1  0
 14 44  1  0
 15 45  1  1
 16 46  1  0
 16 47  1  0
 17 48  1  6
 19 49  1  0
 20 50  1  0
 23 51  1  0
 24 52  1  0
 26 53  1  0
 27 54  1  0
 30 55  1  0
 31 56  1  0
M  END
$$$$
[H]N([H])[C@]([H])(C(=O)N([H])[C@]1([H])C([H])([H])C([H])([H])[C@@]([H])(C(=O)N([H])[C@@]2([H])C([H])([H])C([H])([H])[C@]3([H])C([H])([H])C([H])([H])[C@]2([H])C3([H])[H])C([H])([H])C1([H])[H])C([H])([H])C([H])(C([H])([H])[H])C([H])([H])[H]
     RDKit          2D

 63 65  0  0  0  0  0  0  0  0999 V2000
    4.6774   -6.4654    0.0000 C   0  0  0  0  0  0  0  0  0  0  0  0
    3.4638   -5.5837    0.0000 C   0  0  0  0  0  0  0  0  0  0  0  0
    4.3455   -4.3702    0.0000 C   0  0  0  0  0  0  0  0  0  0  0  0
    2.5822   -6.7972    0.0000 C   0  0  0  0  0  0  0  0  0  0  0  0
    1.7005   -8.0108    0.0000 C   0  0  0  0  0  0  0  0  0  0  0  0
    2.9140   -8.8924    0.0000 N   0  0  0  0  0  0  0  0  0  0  0  0
    0.4869   -7.1291    0.0000 C   0  0  0  0  0  0  0  0  0  0  0  0
    0.6139   -5.9207    0.0000 O   0  0  0  0  0  0  0  0  0  0  0  0
   -0.8834   -7.7392    0.0000 N   0  0  0  0  0  0  0  0  0  0  0  0
   -2.0969   -6.8575    0.0000 C   0  0  0  0  0  0  0  0  0  0  0  0
   -1.0179   -5.8155    0.0000 C   0  0  0  0  0  0  0  0  0  0  0  0
   -1.3808   -4.3601    0.0000 C   0  0  0  0  0  0  0  0  0  0  0  0
   -2.8227   -3.9466    0.0000 C   0  0  0  0  0  0  0  0  0  0  0  0
   -3.9017   -4.9886    0.0000 C   0  0  0  0  0  0  0  0  0  0  0  0
   -3.5388   -6.4441    0.0000 C   0  0  0  0  0  0  0  0  0  0  0  0
   -2.1651   -2.5984    0.0000 C   0  0  0  0  0  0  0  0  0  0  0  0
   -0.6688   -2.4938    0.0000 O   0  0  0  0  0  0  0  0  0  0  0  0
   -3.0039   -1.3549    0.0000 N   0  0  0  0  0  0  0  0  0  0  0  0
   -2.3463   -0.0067    0.0000 C   0  0  0  0  0  0  0  0  0  0  0  0
   -2.1895    1.4851    0.0000 C   0  0  0  0  0  0  0  0  0  0  0  0
   -0.8192    2.0952    0.0000 C   0  0  0  0  0  0  0  0  0  0  0  0
    0.3943    1.2135    0.0000 C   0  0  0  0  0  0  0  0  0  0  0  0
    1.2760    0.0000    0.0000 C   0  0  0  0  0  0  0  0  0  0  0  0
    0.3943   -1.2135    0.0000 C   0  0  0  0  0  0  0  0  0  0  0  0
   -1.0323   -0.7500    0.0000 C   0  0  0  0  0  0  0  0  0  0  0  0
   -1.0323    0.7500    0.0000 C   0  0  0  0  0  0  0  0  0  0  0  0
    5.2814   -5.8176    0.0000 H   0  0  0  0  0  0  0  0  0  0  0  0
    4.3087   -7.3779    0.0000 H   0  0  0  0  0  0  0  0  0  0  0  0
    5.8909   -7.3471    0.0000 H   0  0  0  0  0  0  0  0  0  0  0  0
    2.2503   -4.7020    0.0000 H   0  0  0  0  0  0  0  0  0  0  0  0
    3.1320   -3.4885    0.0000 H   0  0  0  0  0  0  0  0  0  0  0  0
    5.1202   -4.7996    0.0000 H   0  0  0  0  0  0  0  0  0  0  0  0
    5.2272   -3.1567    0.0000 H   0  0  0  0  0  0  0  0  0  0  0  0
    3.3783   -7.3757    0.0000 H   0  0  0  0  0  0  0  0  0  0  0  0
    1.5948   -5.8765    0.0000 H   0  0  0  0  0  0  0  0  0  0  0  0
    0.8188   -9.2243    0.0000 H   0  0  0  0  0  0  0  0  0  0  0  0
    2.7572  -10.3842    0.0000 H   0  0  0  0  0  0  0  0  0  0  0  0
    4.3912   -8.6320    0.0000 H   0  0  0  0  0  0  0  0  0  0  0  0
   -1.0402   -9.2310    0.0000 H   0  0  0  0  0  0  0  0  0  0  0  0
   -2.7545   -8.2057    0.0000 H   0  0  0  0  0  0  0  0  0  0  0  0
   -0.2052   -6.5472    0.0000 H   0  0  0  0  0  0  0  0  0  0  0  0
    0.0236   -5.1897    0.0000 H   0  0  0  0  0  0  0  0  0  0  0  0
   -0.0341   -4.2659    0.0000 H   0  0  0  0  0  0  0  0  0  0  0  0
   -1.0433   -2.8985    0.0000 H   0  0  0  0  0  0  0  0  0  0  0  0
   -4.0362   -3.0649    0.0000 H   0  0  0  0  0  0  0  0  0  0  0  0
   -4.7405   -3.7451    0.0000 H   0  0  0  0  0  0  0  0  0  0  0  0
   -5.2720   -5.5987    0.0000 H   0  0  0  0  0  0  0  0  0  0  0  0
   -5.0351   -6.5487    0.0000 H   0  0  0  0  0  0  0  0  0  0  0  0
   -3.6956   -7.9358    0.0000 H   0  0  0  0  0  0  0  0  0  0  0  0
   -4.5002   -1.4595    0.0000 H   0  0  0  0  0  0  0  0  0  0  0  0
   -3.7882    0.4068    0.0000 H   0  0  0  0  0  0  0  0  0  0  0  0
   -2.5524    2.9405    0.0000 H   0  0  0  0  0  0  0  0  0  0  0  0
   -3.6859    1.3805    0.0000 H   0  0  0  0  0  0  0  0  0  0  0  0
    0.1247    3.2609    0.0000 H   0  0  0  0  0  0  0  0  0  0  0  0
   -1.6580    3.3388    0.0000 H   0  0  0  0  0  0  0  0  0  0  0  0
    1.0283    2.5730    0.0000 H   0  0  0  0  0  0  0  0  0  0  0  0
    2.3907    1.0037    0.0000 H   0  0  0  0  0  0  0  0  0  0  0  0
    2.3907   -1.0037    0.0000 H   0  0  0  0  0  0  0  0  0  0  0  0
    1.6933   -1.9635    0.0000 H   0  0  0  0  0  0  0  0  0  0  0  0
   -0.0442   -2.6480    0.0000 H   0  0  0  0  0  0  0  0  0  0  0  0
   -1.9964   -1.8991    0.0000 H   0  0  0  0  0  0  0  0  0  0  0  0
   -2.5177    0.9588    0.0000 H   0  0  0  0  0  0  0  0  0  0  0  0
   -1.6899    2.0982    0.0000 H   0  0  0  0  0  0  0  0  0  0  0  0
  1  2  1  0
  2  3  1  0
  2  4  1  0
  4  5  1  0
  5  6  1  0
  5  7  1  0
  7  8  2  0
  7  9  1  0
  9 10  1  0
 10 11  1  0
 11 12  1  0
 12 13  1  0
 13 14  1  0
 14 15  1  0
 13 16  1  0
 16 17  2  0
 16 18  1  0
 18 19  1  0
 19 20  1  0
 20 21  1  0
 21 22  1  0
 22 23  1  0
 23 24  1  0
 24 25  1  0
 25 26  1  0
 15 10  1  0
 25 19  1  0
 26 22  1  0
  1 27  1  0
  1 28  1  0
  1 29  1  0
  2 30  1  0
  3 31  1  0
  3 32  1  0
  3 33  1  0
  4 34  1  0
  4 35  1  0
  5 36  1  1
  6 37  1  0
  6 38  1  0
  9 39  1  0
 10 40  1  1
 11 41  1  0
 11 42  1  0
 12 43  1  0
 12 44  1  0
 13 45  1  6
 14 46  1  0
 14 47  1  0
 15 48  1  0
 15 49  1  0
 18 50  1  0
 19 51  1  6
 20 52  1  0
 20 53  1  0
 21 54  1  0
 21 55  1  0
 22 56  1  1
 23 57  1  0
 23 58  1  0
 24 59  1  0
 24 60  1  0
 25 61  1  6
 26 62  1  0
 26 63  1  0
M  END
$$$$
[H]c1c([H])c(C(=O)N2C([H])([H])C([H])([H])N(S(=O)(=O)c3c([H])c([H])c(Cl)c([H])c3Cl)C([H])([H])[C@@]2([H])C([H])([H])[H])c([H])c([H])c1Cl
     RDKit          3D

 44 46  0  0  0  0  0  0  0  0999 V2000
   -1.1436    0.5775   -1.6920 C   0  0  0  0  0  0  0  0  0  0  0  0
   -0.6084    0.8782   -0.3636 C   0  0  2  0  0  0  0  0  0  0  0  0
    0.5767   -0.0504   -0.0407 C   0  0  0  0  0  0  0  0  0  0  0  0
    1.3432    0.5024    1.0257 N   0  0  0  0  0  0  0  0  0  0  0  0
    0.6213    0.9732    2.1291 C   0  0  0  0  0  0  0  0  0  0  0  0
   -0.6038    1.8072    1.8536 C   0  0  0  0  0  0  0  0  0  0  0  0
   -1.4043    1.0689    0.7787 N   0  0  0  0  0  0  0  0  0  0  0  0
   -2.6413    0.6534    1.1550 C   0  0  0  0  0  0  0  0  0  0  0  0
   -3.0535    1.2204    2.3066 O   0  0  0  0  0  0  0  0  0  0  0  0
   -3.6401   -0.2407    0.6469 C   0  0  0  0  0  0  0  0  0  0  0  0
   -3.4396   -1.2925   -0.2040 C   0  0  0  0  0  0  0  0  0  0  0  0
   -4.4944   -2.0555   -0.7272 C   0  0  0  0  0  0  0  0  0  0  0  0
   -5.7741   -1.7418   -0.3743 C   0  0  0  0  0  0  0  0  0  0  0  0
   -7.1089   -2.6662   -1.0037 Cl  0  0  0  0  0  0  0  0  0  0  0  0
   -6.0325   -0.7033    0.4741 C   0  0  0  0  0  0  0  0  0  0  0  0
   -4.9871    0.0154    0.9611 C   0  0  0  0  0  0  0  0  0  0  0  0
    2.7876    1.2631    0.6189 S   0  0  0  0  0  0  0  0  0  0  0  0
    3.5081    1.8550    1.7964 O   0  0  0  0  0  0  0  0  0  0  0  0
    2.5993    2.3781   -0.4009 O   0  0  0  0  0  0  0  0  0  0  0  0
    3.8938    0.1336   -0.1224 C   0  0  0  0  0  0  0  0  0  0  0  0
    3.5733   -1.1858   -0.2260 C   0  0  0  0  0  0  0  0  0  0  0  0
    4.4974   -2.0392   -0.8100 C   0  0  0  0  0  0  0  0  0  0  0  0
    5.7082   -1.5788   -1.2757 C   0  0  0  0  0  0  0  0  0  0  0  0
    6.8522   -2.6572   -2.0029 Cl  0  0  0  0  0  0  0  0  0  0  0  0
    5.9970   -0.2330   -1.1522 C   0  0  0  0  0  0  0  0  0  0  0  0
    5.1095    0.6333   -0.5827 C   0  0  0  0  0  0  0  0  0  0  0  0
    5.4628    2.3538   -0.4176 Cl  0  0  0  0  0  0  0  0  0  0  0  0
   -0.5016    1.1089   -2.4734 H   0  0  0  0  0  0  0  0  0  0  0  0
   -2.1614    0.9765   -1.8952 H   0  0  0  0  0  0  0  0  0  0  0  0
   -1.0243   -0.4955   -1.9999 H   0  0  0  0  0  0  0  0  0  0  0  0
   -0.1111    1.9406   -0.5099 H   0  0  0  0  0  0  0  0  0  0  0  0
    1.1115   -0.1620   -0.9830 H   0  0  0  0  0  0  0  0  0  0  0  0
    0.1281   -1.0060    0.2901 H   0  0  0  0  0  0  0  0  0  0  0  0
    1.2839    1.6224    2.7643 H   0  0  0  0  0  0  0  0  0  0  0  0
    0.3208    0.0860    2.7601 H   0  0  0  0  0  0  0  0  0  0  0  0
   -1.2111    1.9362    2.7281 H   0  0  0  0  0  0  0  0  0  0  0  0
   -0.3066    2.7331    1.3497 H   0  0  0  0  0  0  0  0  0  0  0  0
   -2.4377   -1.6045   -0.4551 H   0  0  0  0  0  0  0  0  0  0  0  0
   -4.2651   -2.8754   -1.3991 H   0  0  0  0  0  0  0  0  0  0  0  0
   -7.0493   -0.4604    0.7509 H   0  0  0  0  0  0  0  0  0  0  0  0
   -5.2208    0.8432    1.6351 H   0  0  0  0  0  0  0  0  0  0  0  0
    2.6488   -1.6101    0.1265 H   0  0  0  0  0  0  0  0  0  0  0  0
    4.2605   -3.0788   -0.8991 H   0  0  0  0  0  0  0  0  0  0  0  0
    6.9366    0.1767   -1.5034 H   0  0  0  0  0  0  0  0  0  0  0  0
  1  2  1  0
  2  3  1  0
  3  4  1  0
  4  5  1  0
  5  6  1  0
  6  7  1  0
  7  8  1  0
  8  9  2  0
  8 10  1  0
 10 11  2  0
 11 12  1  0
 12 13  2  0
 13 14  1  0
 13 15  1  0
 15 16  2  0
  4 17  1  0
 17 18  2  0
 17 19  2  0
 17 20  1  0
 20 21  2  0
 21 22  1  0
 22 23  2  0
 23 24  1  0
 23 25  1  0
 25 26  2  0
 26 27  1  0
  7  2  1  0
 16 10  1  0
 26 20  1  0
  1 28  1  0
  1 29  1  0
  1 30  1  0
  2 31  1  6
  3 32  1  0
  3 33  1  0
  5 34  1  0
  5 35  1  0
  6 36  1  0
  6 37  1  0
 11 38  1  0
 12 39  1  0
 15 40  1  0
 16 41  1  0
 21 42  1  0
 22 43  1  0
 25 44  1  0
M  END
$$$$
[H]O[C@]1([H])[C@@]([H])(C([H])([H])OP(=O)(O[H])OP(=O)(O[H])O[H])O[C@@]([H])(n2c([H])nc3c(N([H])[H])nc([H])nc32)[C@]1([H])O[H]
     RDKit          3D

 42 44  0  0  0  0  0  0  0  0999 V2000
   -5.5858    2.7066   -0.5194 N   0  0  0  0  0  0  0  0  0  0  0  0
   -5.1159    1.4760    0.0108 C   0  0  0  0  0  0  0  0  0  0  0  0
   -5.9272    0.4247    0.2437 N   0  0  0  0  0  0  0  0  0  0  0  0
   -5.4161   -0.7101    0.7468 C   0  0  0  0  0  0  0  0  0  0  0  0
   -4.1184   -0.8534    1.0342 N   0  0  0  0  0  0  0  0  0  0  0  0
   -3.2751    0.1579    0.8216 C   0  0  0  0  0  0  0  0  0  0  0  0
   -1.9283    0.3121    1.0108 N   0  0  0  0  0  0  0  0  0  0  0  0
   -1.6612    1.5620    0.6077 C   0  0  0  0  0  0  0  0  0  0  0  0
   -2.7578    2.1980    0.1783 N   0  0  0  0  0  0  0  0  0  0  0  0
   -3.7743    1.3333    0.3060 C   0  0  0  0  0  0  0  0  0  0  0  0
   -1.0158   -0.6848    1.5386 C   0  0  2  0  0  0  0  0  0  0  0  0
    0.2860   -0.2664    1.3491 O   0  0  0  0  0  0  0  0  0  0  0  0
    0.8174   -0.8342    0.2246 C   0  0  2  0  0  0  0  0  0  0  0  0
    1.6152    0.0755   -0.6428 C   0  0  0  0  0  0  0  0  0  0  0  0
    2.6843    0.5569    0.1452 O   0  0  0  0  0  0  0  0  0  0  0  0
    3.6621    1.6040   -0.7381 P   0  0  0  0  0  0  0  0  0  0  0  0
    2.8393    2.0329   -2.1655 O   0  0  0  0  0  0  0  0  0  0  0  0
    4.0290    2.8425    0.0398 O   0  0  0  0  0  0  0  0  0  0  0  0
    5.0668    0.8034   -1.1797 O   0  0  0  0  0  0  0  0  0  0  0  0
    5.7546   -0.0719    0.0759 P   0  0  0  0  0  0  0  0  0  0  0  0
    6.1093   -1.6329   -0.5025 O   0  0  0  0  0  0  0  0  0  0  0  0
    7.1822    0.6553    0.6227 O   0  0  0  0  0  0  0  0  0  0  0  0
    4.8417   -0.2329    1.2544 O   0  0  0  0  0  0  0  0  0  0  0  0
   -0.3642   -1.4766   -0.5192 C   0  0  1  0  0  0  0  0  0  0  0  0
    0.0318   -2.5060   -1.3242 O   0  0  0  0  0  0  0  0  0  0  0  0
   -1.0814   -1.9720    0.7467 C   0  0  1  0  0  0  0  0  0  0  0  0
   -0.2123   -2.8760    1.3444 O   0  0  0  0  0  0  0  0  0  0  0  0
   -5.9591    3.4149    0.1432 H   0  0  0  0  0  0  0  0  0  0  0  0
   -5.5492    2.8757   -1.5432 H   0  0  0  0  0  0  0  0  0  0  0  0
   -6.1422   -1.5102    0.9043 H   0  0  0  0  0  0  0  0  0  0  0  0
   -0.6671    2.0177    0.6238 H   0  0  0  0  0  0  0  0  0  0  0  0
   -1.2008   -0.8631    2.6232 H   0  0  0  0  0  0  0  0  0  0  0  0
    1.4363   -1.7120    0.5620 H   0  0  0  0  0  0  0  0  0  0  0  0
    1.9710   -0.3780   -1.5697 H   0  0  0  0  0  0  0  0  0  0  0  0
    1.0254    0.9763   -0.9057 H   0  0  0  0  0  0  0  0  0  0  0  0
    2.8340    1.2104   -2.7406 H   0  0  0  0  0  0  0  0  0  0  0  0
    6.1433   -1.6184   -1.5091 H   0  0  0  0  0  0  0  0  0  0  0  0
    7.7498   -0.0424    0.9997 H   0  0  0  0  0  0  0  0  0  0  0  0
   -0.9861   -0.7162   -0.9911 H   0  0  0  0  0  0  0  0  0  0  0  0
   -0.6865   -2.6783   -1.9848 H   0  0  0  0  0  0  0  0  0  0  0  0
   -2.0680   -2.3539    0.5546 H   0  0  0  0  0  0  0  0  0  0  0  0
   -0.5867   -3.2466    2.1815 H   0  0  0  0  0  0  0  0  0  0  0  0
  1  2  1  0
  2  3  2  0
  3  4  1  0
  4  5  2  0
  5  6  1  0
  6  7  1  0
  7  8  1  0
  8  9  2  0
  9 10  1  0
  7 11  1  0
 11 12  1  0
 12 13  1  0
 13 14  1  0
 14 15  1  0
 15 16  1  0
 16 17  1  0
 16 18  2  0
 16 19  1  0
 19 20  1  0
 20 21  1  0
 20 22  1  0
 20 23  2  0
 13 24  1  0
 24 25  1  0
 24 26  1  0
 26 27  1  0
 10  2  1  0
 26 11  1  0
 10  6  2  0
  1 28  1  0
  1 29  1  0
  4 30  1  0
  8 31  1  0
 11 32  1  1
 13 33  1  1
 14 34  1  0
 14 35  1  0
 17 36  1  0
 21 37  1  0
 22 38  1  0
 24 39  1  6
 25 40  1  0
 26 41  1  6
 27 42  1  0
M  END
$$$$
[H]Oc1c([H])c([H])c(C([H])([H])[C@@]([H])(C(=O)N([H])[C@]([H])(C(=O)N([H])[C@]([H])(C(=O)N([H])[C@]([H])(C(=O)N([H])[H])C([H])([H])c2c([H])n([H])c3c([H])c([H])c([H])c([H])c23)C([H])([H])[H])[C@]([H])(C([H])([H])[H])C([H])([H])C([H])([H])[H])N([H])[H])c([H])c1[H]
     RDKit          3D

 78 80  0  0  0  0  0  0  0  0999 V2000
   -4.8402   -3.6921    0.8427 C   0  0  0  0  0  0  0  0  0  0  0  0
   -4.8476   -2.6405   -0.2351 C   0  0  0  0  0  0  0  0  0  0  0  0
   -3.4556   -2.1444   -0.5128 C   0  0  1  0  0  0  0  0  0  0  0  0
   -3.5085   -1.1168   -1.5736 C   0  0  0  0  0  0  0  0  0  0  0  0
   -2.7675   -1.7479    0.7385 C   0  0  2  0  0  0  0  0  0  0  0  0
   -3.3961   -0.7296    1.4902 N   0  0  0  0  0  0  0  0  0  0  0  0
   -3.1544   -0.0552    2.6631 C   0  0  0  0  0  0  0  0  0  0  0  0
   -2.0817   -0.3320    3.3429 O   0  0  0  0  0  0  0  0  0  0  0  0
   -3.9867    0.9754    3.2722 C   0  0  1  0  0  0  0  0  0  0  0  0
   -3.4436    1.2950    4.6271 N   0  0  0  0  0  0  0  0  0  0  0  0
   -4.3751    2.2055    2.5810 C   0  0  0  0  0  0  0  0  0  0  0  0
   -5.1554    2.1293    1.3387 C   0  0  0  0  0  0  0  0  0  0  0  0
   -4.5524    2.3450    0.1101 C   0  0  0  0  0  0  0  0  0  0  0  0
   -5.2790    2.2599   -1.0686 C   0  0  0  0  0  0  0  0  0  0  0  0
   -6.6172    1.9589   -1.0532 C   0  0  0  0  0  0  0  0  0  0  0  0
   -7.3230    1.8804   -2.2546 O   0  0  0  0  0  0  0  0  0  0  0  0
   -7.2071    1.7453    0.1784 C   0  0  0  0  0  0  0  0  0  0  0  0
   -6.5133    1.8246    1.3382 C   0  0  0  0  0  0  0  0  0  0  0  0
   -1.2921   -1.8268    0.6812 C   0  0  0  0  0  0  0  0  0  0  0  0
   -0.5324   -1.7260    1.6716 O   0  0  0  0  0  0  0  0  0  0  0  0
   -0.5597   -2.0406   -0.5582 N   0  0  0  0  0  0  0  0  0  0  0  0
    0.8579   -2.1561   -0.5396 C   0  0  1  0  0  0  0  0  0  0  0  0
    1.4265   -3.2783   -1.3556 C   0  0  0  0  0  0  0  0  0  0  0  0
    1.6141   -0.9029   -0.9035 C   0  0  0  0  0  0  0  0  0  0  0  0
    1.1529    0.1654   -1.2197 O   0  0  0  0  0  0  0  0  0  0  0  0
    3.0373   -1.0899   -0.8334 N   0  0  0  0  0  0  0  0  0  0  0  0
    3.9890    0.0042   -1.1259 C   0  0  1  0  0  0  0  0  0  0  0  0
    4.7250    0.3073    0.1550 C   0  0  0  0  0  0  0  0  0  0  0  0
    5.7535    1.3357    0.0197 C   0  0  0  0  0  0  0  0  0  0  0  0
    5.5764    2.7255    0.1241 C   0  0  0  0  0  0  0  0  0  0  0  0
    6.7414    3.3385   -0.1110 N   0  0  0  0  0  0  0  0  0  0  0  0
    7.7060    2.4404   -0.3702 C   0  0  0  0  0  0  0  0  0  0  0  0
    9.0673    2.5749   -0.6543 C   0  0  0  0  0  0  0  0  0  0  0  0
    9.8506    1.4656   -0.8614 C   0  0  0  0  0  0  0  0  0  0  0  0
    9.2394    0.2430   -0.7774 C   0  0  0  0  0  0  0  0  0  0  0  0
    7.9085    0.0897   -0.5025 C   0  0  0  0  0  0  0  0  0  0  0  0
    7.1007    1.2045   -0.2902 C   0  0  0  0  0  0  0  0  0  0  0  0
    4.8936   -0.3774   -2.2028 C   0  0  0  0  0  0  0  0  0  0  0  0
    5.4497    0.5574   -3.1349 N   0  0  0  0  0  0  0  0  0  0  0  0
    5.2452   -1.5887   -2.3841 O   0  0  0  0  0  0  0  0  0  0  0  0
   -4.9322   -3.1711    1.8305 H   0  0  0  0  0  0  0  0  0  0  0  0
   -3.9304   -4.3256    0.8281 H   0  0  0  0  0  0  0  0  0  0  0  0
   -5.7485   -4.3564    0.7489 H   0  0  0  0  0  0  0  0  0  0  0  0
   -5.5395   -1.8357    0.0544 H   0  0  0  0  0  0  0  0  0  0  0  0
   -5.2071   -3.0968   -1.2033 H   0  0  0  0  0  0  0  0  0  0  0  0
   -2.8965   -3.0422   -0.9054 H   0  0  0  0  0  0  0  0  0  0  0  0
   -4.5883   -0.8666   -1.8084 H   0  0  0  0  0  0  0  0  0  0  0  0
   -3.1268   -1.5087   -2.5485 H   0  0  0  0  0  0  0  0  0  0  0  0
   -2.9388   -0.2003   -1.3603 H   0  0  0  0  0  0  0  0  0  0  0  0
   -2.9417   -2.6867    1.4616 H   0  0  0  0  0  0  0  0  0  0  0  0
   -4.3639   -0.4416    1.0176 H   0  0  0  0  0  0  0  0  0  0  0  0
   -4.9644    0.4151    3.5380 H   0  0  0  0  0  0  0  0  0  0  0  0
   -4.2109    1.7749    5.1290 H   0  0  0  0  0  0  0  0  0  0  0  0
   -3.2834    0.3384    5.0576 H   0  0  0  0  0  0  0  0  0  0  0  0
   -3.4882    2.8847    2.3450 H   0  0  0  0  0  0  0  0  0  0  0  0
   -5.0491    2.7837    3.3091 H   0  0  0  0  0  0  0  0  0  0  0  0
   -3.5033    2.5825    0.0791 H   0  0  0  0  0  0  0  0  0  0  0  0
   -4.7492    2.4388   -1.9951 H   0  0  0  0  0  0  0  0  0  0  0  0
   -7.3957    1.0024   -2.7502 H   0  0  0  0  0  0  0  0  0  0  0  0
   -8.2830    1.5020    0.1355 H   0  0  0  0  0  0  0  0  0  0  0  0
   -6.9780    1.6585    2.2982 H   0  0  0  0  0  0  0  0  0  0  0  0
   -1.1042   -2.0974   -1.4351 H   0  0  0  0  0  0  0  0  0  0  0  0
    1.1577   -2.3147    0.5438 H   0  0  0  0  0  0  0  0  0  0  0  0
    1.9224   -2.9506   -2.3038 H   0  0  0  0  0  0  0  0  0  0  0  0
    2.2783   -3.7334   -0.7662 H   0  0  0  0  0  0  0  0  0  0  0  0
    0.6872   -4.0938   -1.5229 H   0  0  0  0  0  0  0  0  0  0  0  0
    3.4729   -1.9875   -0.5836 H   0  0  0  0  0  0  0  0  0  0  0  0
    3.4026    0.9098   -1.3992 H   0  0  0  0  0  0  0  0  0  0  0  0
    3.9657    0.5569    0.9451 H   0  0  0  0  0  0  0  0  0  0  0  0
    5.2406   -0.6530    0.5049 H   0  0  0  0  0  0  0  0  0  0  0  0
    4.6439    3.1960    0.3548 H   0  0  0  0  0  0  0  0  0  0  0  0
    6.9471    4.3746   -0.1109 H   0  0  0  0  0  0  0  0  0  0  0  0
    9.5331    3.5422   -0.7204 H   0  0  0  0  0  0  0  0  0  0  0  0
   10.9252    1.5877   -1.0857 H   0  0  0  0  0  0  0  0  0  0  0  0
    9.8351   -0.6629   -0.9328 H   0  0  0  0  0  0  0  0  0  0  0  0
    7.4132   -0.8748   -0.4341 H   0  0  0  0  0  0  0  0  0  0  0  0
    4.9233    1.3659   -3.5234 H   0  0  0  0  0  0  0  0  0  0  0  0
    6.4286    0.4400   -3.4440 H   0  0  0  0  0  0  0  0  0  0  0  0
  1  2  1  0
  2  3  1  0
  3  4  1  0
  3  5  1  0
  5  6  1  0
  6  7  1  0
  7  8  2  0
  7  9  1  0
  9 10  1  0
  9 11  1  0
 11 12  1  0
 12 13  2  0
 13 14  1  0
 14 15  2  0
 15 16  1  0
 15 17  1  0
 17 18  2  0
  5 19  1  0
 19 20  2  0
 19 21  1  0
 21 22  1  0
 22 23  1  0
 22 24  1  0
 24 25  2  0
 24 26  1  0
 26 27  1  0
 27 28  1  0
 28 29  1  0
 29 30  2  0
 30 31  1  0
 31 32  1  0
 32 33  2  0
 33 34  1  0
 34 35  2  0
 35 36  1  0
 36 37  2  0
 27 38  1  0
 38 39  1  0
 38 40  2  0
 18 12  1  0
 37 29  1  0
 37 32  1  0
  1 41  1  0
  1 42  1  0
  1 43  1  0
  2 44  1  0
  2 45  1  0
  3 46  1  6
  4 47  1  0
  4 48  1  0
  4 49  1  0
  5 50  1  1
  6 51  1  0
  9 52  1  1
 10 53  1  0
 10 54  1  0
 11 55  1  0
 11 56  1  0
 13 57  1  0
 14 58  1  0
 16 59  1  0
 17 60  1  0
 18 61  1  0
 21 62  1  0
 22 63  1  1
 23 64  1  0
 23 65  1  0
 23 66  1  0
 26 67  1  0
 27 68  1  6
 28 69  1  0
 28 70  1  0
 30 71  1  0
 31 72  1  0
 33 73  1  0
 34 74  1  0
 35 75  1  0
 36 76  1  0
 39 77  1  0
 39 78  1  0
M  END
$$$$
[H]Oc1c([H])c(C([H])([H])[H])c(C([H])([H])[C@@]([H])(C(=O)N2C([H])([H])c3c([H])c([H])c([H])c([H])c3C([H])([H])C2([H])C(=O)N([H])[C@]([H])(C(=O)N([H])[C@]([H])(C(=O)N([H])[H])C([H])([H])c2c([H])c([H])c([H])c([H])c2[H])C([H])([H])c2c([H])c([H])c([H])c([H])c2[H])N([H])[H])c(C([H])([H])[H])c1[H]
     RDKit          3D

 92 96  0  0  0  0  0  0  0  0999 V2000
   -7.9728    0.2536   -1.3092 C   0  0  0  0  0  0  0  0  0  0  0  0
   -7.5076    1.4925   -0.6293 C   0  0  0  0  0  0  0  0  0  0  0  0
   -8.4285    2.5620   -0.5249 C   0  0  0  0  0  0  0  0  0  0  0  0
   -8.0705    3.6935    0.1575 C   0  0  0  0  0  0  0  0  0  0  0  0
   -8.9781    4.7480    0.2596 O   0  0  0  0  0  0  0  0  0  0  0  0
   -6.8236    3.7627    0.7256 C   0  0  0  0  0  0  0  0  0  0  0  0
   -5.8993    2.7484    0.6478 C   0  0  0  0  0  0  0  0  0  0  0  0
   -4.5847    2.8415    1.3063 C   0  0  0  0  0  0  0  0  0  0  0  0
   -6.2746    1.5924   -0.0568 C   0  0  0  0  0  0  0  0  0  0  0  0
   -5.1805    0.5676   -0.1556 C   0  0  0  0  0  0  0  0  0  0  0  0
   -4.4095    0.7432   -1.3878 C   0  0  2  0  0  0  0  0  0  0  0  0
   -5.1831    0.6291   -2.5944 N   0  0  0  0  0  0  0  0  0  0  0  0
   -3.0811    0.1536   -1.5139 C   0  0  0  0  0  0  0  0  0  0  0  0
   -2.3461    0.6399   -2.4952 O   0  0  0  0  0  0  0  0  0  0  0  0
   -2.4050   -0.8464   -0.7972 N   0  0  0  0  0  0  0  0  0  0  0  0
   -2.8812   -1.6541    0.2888 C   0  0  0  0  0  0  0  0  0  0  0  0
   -3.0004   -3.0470   -0.3076 C   0  0  0  0  0  0  0  0  0  0  0  0
   -4.0611   -3.8136    0.0593 C   0  0  0  0  0  0  0  0  0  0  0  0
   -4.1436   -5.0788   -0.5074 C   0  0  0  0  0  0  0  0  0  0  0  0
   -3.1900   -5.5078   -1.3889 C   0  0  0  0  0  0  0  0  0  0  0  0
   -2.1223   -4.7033   -1.7420 C   0  0  0  0  0  0  0  0  0  0  0  0
   -2.0107   -3.4510   -1.2018 C   0  0  0  0  0  0  0  0  0  0  0  0
   -0.8828   -2.5769   -1.5582 C   0  0  0  0  0  0  0  0  0  0  0  0
   -0.9906   -1.1530   -1.1611 C   0  0  0  0  0  0  0  0  0  0  0  0
   -0.0534   -0.7010   -0.1177 C   0  0  0  0  0  0  0  0  0  0  0  0
   -0.4654    0.0720    0.7772 O   0  0  0  0  0  0  0  0  0  0  0  0
    1.3081   -1.1028   -0.0748 N   0  0  0  0  0  0  0  0  0  0  0  0
    2.2461   -0.6760    0.9312 C   0  0  1  0  0  0  0  0  0  0  0  0
    2.5652   -1.7942    1.9035 C   0  0  0  0  0  0  0  0  0  0  0  0
    3.1349   -2.9896    1.3019 C   0  0  0  0  0  0  0  0  0  0  0  0
    2.3312   -4.0157    0.8548 C   0  0  0  0  0  0  0  0  0  0  0  0
    2.8663   -5.1549    0.2868 C   0  0  0  0  0  0  0  0  0  0  0  0
    4.2155   -5.2959    0.1518 C   0  0  0  0  0  0  0  0  0  0  0  0
    5.0410   -4.2911    0.5872 C   0  0  0  0  0  0  0  0  0  0  0  0
    4.4910   -3.1389    1.1628 C   0  0  0  0  0  0  0  0  0  0  0  0
    3.4281    0.0145    0.3972 C   0  0  0  0  0  0  0  0  0  0  0  0
    3.5429    0.1087   -0.8575 O   0  0  0  0  0  0  0  0  0  0  0  0
    4.4434    0.5829    1.1969 N   0  0  0  0  0  0  0  0  0  0  0  0
    5.6118    1.2703    0.6231 C   0  0  1  0  0  0  0  0  0  0  0  0
    5.3719    2.7418    0.8103 C   0  0  0  0  0  0  0  0  0  0  0  0
    6.4083    3.6407    0.3150 C   0  0  0  0  0  0  0  0  0  0  0  0
    7.4414    4.1647    1.0557 C   0  0  0  0  0  0  0  0  0  0  0  0
    8.4027    5.0095    0.5453 C   0  0  0  0  0  0  0  0  0  0  0  0
    8.3473    5.3641   -0.7808 C   0  0  0  0  0  0  0  0  0  0  0  0
    7.3216    4.8576   -1.5633 C   0  0  0  0  0  0  0  0  0  0  0  0
    6.3748    4.0162   -1.0294 C   0  0  0  0  0  0  0  0  0  0  0  0
    6.8466    0.7504    1.1961 C   0  0  0  0  0  0  0  0  0  0  0  0
    8.1486    1.1345    0.7794 N   0  0  0  0  0  0  0  0  0  0  0  0
    6.8045   -0.1185    2.1441 O   0  0  0  0  0  0  0  0  0  0  0  0
   -8.1163    0.3583   -2.3929 H   0  0  0  0  0  0  0  0  0  0  0  0
   -8.9977    0.0534   -0.8284 H   0  0  0  0  0  0  0  0  0  0  0  0
   -7.3736   -0.5946   -0.9702 H   0  0  0  0  0  0  0  0  0  0  0  0
   -9.3999    2.4364   -1.0016 H   0  0  0  0  0  0  0  0  0  0  0  0
   -9.0090    5.4833   -0.4268 H   0  0  0  0  0  0  0  0  0  0  0  0
   -6.5577    4.6625    1.2620 H   0  0  0  0  0  0  0  0  0  0  0  0
   -4.5772    2.1826    2.2297 H   0  0  0  0  0  0  0  0  0  0  0  0
   -3.7113    2.6038    0.7224 H   0  0  0  0  0  0  0  0  0  0  0  0
   -4.4876    3.8859    1.6845 H   0  0  0  0  0  0  0  0  0  0  0  0
   -5.6545   -0.4273   -0.1319 H   0  0  0  0  0  0  0  0  0  0  0  0
   -4.5214    0.6986    0.7736 H   0  0  0  0  0  0  0  0  0  0  0  0
   -4.1713    1.8996   -1.4019 H   0  0  0  0  0  0  0  0  0  0  0  0
   -4.8376   -0.0598   -3.2617 H   0  0  0  0  0  0  0  0  0  0  0  0
   -5.5958    1.4895   -2.9577 H   0  0  0  0  0  0  0  0  0  0  0  0
   -2.0467   -1.6939    1.0621 H   0  0  0  0  0  0  0  0  0  0  0  0
   -3.7577   -1.3839    0.8244 H   0  0  0  0  0  0  0  0  0  0  0  0
   -4.8173   -3.4944    0.7490 H   0  0  0  0  0  0  0  0  0  0  0  0
   -4.9726   -5.7220   -0.2449 H   0  0  0  0  0  0  0  0  0  0  0  0
   -3.2550   -6.4960   -1.8302 H   0  0  0  0  0  0  0  0  0  0  0  0
   -1.4060   -5.1059   -2.4439 H   0  0  0  0  0  0  0  0  0  0  0  0
   -0.8393   -2.6150   -2.6952 H   0  0  0  0  0  0  0  0  0  0  0  0
    0.1034   -3.0342   -1.2738 H   0  0  0  0  0  0  0  0  0  0  0  0
   -0.7656   -0.5061   -2.0625 H   0  0  0  0  0  0  0  0  0  0  0  0
    1.6447   -1.7452   -0.8189 H   0  0  0  0  0  0  0  0  0  0  0  0
    1.6753    0.0874    1.5505 H   0  0  0  0  0  0  0  0  0  0  0  0
    1.5879   -2.0449    2.4029 H   0  0  0  0  0  0  0  0  0  0  0  0
    3.1930   -1.3663    2.7225 H   0  0  0  0  0  0  0  0  0  0  0  0
    1.2698   -3.9505    0.9382 H   0  0  0  0  0  0  0  0  0  0  0  0
    2.1821   -5.9440   -0.0521 H   0  0  0  0  0  0  0  0  0  0  0  0
    4.5941   -6.2212   -0.3064 H   0  0  0  0  0  0  0  0  0  0  0  0
    6.1073   -4.4090    0.4782 H   0  0  0  0  0  0  0  0  0  0  0  0
    5.2127   -2.4035    1.4770 H   0  0  0  0  0  0  0  0  0  0  0  0
    4.3830    0.5245    2.2252 H   0  0  0  0  0  0  0  0  0  0  0  0
    5.6222    1.1156   -0.4954 H   0  0  0  0  0  0  0  0  0  0  0  0
    4.4196    3.0263    0.2703 H   0  0  0  0  0  0  0  0  0  0  0  0
    5.1795    3.0063    1.8742 H   0  0  0  0  0  0  0  0  0  0  0  0
    7.4983    3.8910    2.1173 H   0  0  0  0  0  0  0  0  0  0  0  0
    9.2115    5.4063    1.1655 H   0  0  0  0  0  0  0  0  0  0  0  0
    9.0729    6.0162   -1.2101 H   0  0  0  0  0  0  0  0  0  0  0  0
    7.3039    5.1531   -2.6027 H   0  0  0  0  0  0  0  0  0  0  0  0
    5.5946    3.6403   -1.6578 H   0  0  0  0  0  0  0  0  0  0  0  0
    8.3839    1.3112   -0.2120 H   0  0  0  0  0  0  0  0  0  0  0  0
    8.8853    1.2400    1.4979 H   0  0  0  0  0  0  0  0  0  0  0  0
  1  2  1  0
  2  3  2  0
  3  4  1  0
  4  5  1  0
  4  6  2  0
  6  7  1  0
  7  8  1  0
  7  9  2  0
  9 10  1  0
 10 11  1  0
 11 12  1  0
 11 13  1  0
 13 14  2  0
 13 15  1  0
 15 16  1  0
 16 17  1  0
 17 18  2  0
 18 19  1  0
 19 20  2  0
 20 21  1  0
 21 22  2  0
 22 23  1  0
 23 24  1  0
 24 25  1  0
 25 26  2  0
 25 27  1  0
 27 28  1  0
 28 29  1  0
 29 30  1  0
 30 31  2  0
 31 32  1  0
 32 33  2  0
 33 34  1  0
 34 35  2  0
 28 36  1  0
 36 37  2  0
 36 38  1  0
 38 39  1  0
 39 40  1  0
 40 41  1  0
 41 42  2  0
 42 43  1  0
 43 44  2  0
 44 45  1  0
 45 46  2  0
 39 47  1  0
 47 48  1  0
 47 49  2  0
  9  2  1  0
 24 15  1  0
 35 30  1  0
 46 41  1  0
 22 17  1  0
  1 50  1  0
  1 51  1  0
  1 52  1  0
  3 53  1  0
  5 54  1  0
  6 55  1  0
  8 56  1  0
  8 57  1  0
  8 58  1  0
 10 59  1  0
 10 60  1  0
 11 61  1  1
 12 62  1  0
 12 63  1  0
 16 64  1  0
 16 65  1  0
 18 66  1  0
 19 67  1  0
 20 68  1  0
 21 69  1  0
 23 70  1  0
 23 71  1  0
 24 72  1  0
 27 73  1  0
 28 74  1  1
 29 75  1  0
 29 76  1  0
 31 77  1  0
 32 78  1  0
 33 79  1  0
 34 80  1  0
 35 81  1  0
 38 82  1  0
 39 83  1  6
 40 84  1  0
 40 85  1  0
 42 86  1  0
 43 87  1  0
 44 88  1  0
 45 89  1  0
 46 90  1  0
 48 91  1  0
 48 92  1  0
M  END
$$$$
[H]c1nc(N([H])c2c([H])c([H])c(N3C([H])([H])C([H])([H])OC([H])([H])C3([H])[H])c([H])c2OC([H])([H])[H])nc(N([H])c2c([H])c([H])c([H])c([H])c2P(=O)(C([H])([H])[H])C([H])([H])[H])c1Cl
     RDKit          3D

 60 63  0  0  0  0  0  0  0  0999 V2000
    3.0028    3.4059    0.3454 C   0  0  0  0  0  0  0  0  0  0  0  0
    2.2062    2.2504    0.2447 O   0  0  0  0  0  0  0  0  0  0  0  0
    2.7879    1.0004    0.1172 C   0  0  0  0  0  0  0  0  0  0  0  0
    4.1539    0.8782    0.0880 C   0  0  0  0  0  0  0  0  0  0  0  0
    4.8143   -0.3188   -0.0356 C   0  0  0  0  0  0  0  0  0  0  0  0
    3.9954   -1.4318   -0.1320 C   0  0  0  0  0  0  0  0  0  0  0  0
    2.6096   -1.3223   -0.1036 C   0  0  0  0  0  0  0  0  0  0  0  0
    1.9668   -0.1204    0.0201 C   0  0  0  0  0  0  0  0  0  0  0  0
    0.5897    0.0722    0.0562 N   0  0  0  0  0  0  0  0  0  0  0  0
   -0.3998   -0.9203   -0.0264 C   0  0  0  0  0  0  0  0  0  0  0  0
   -0.2091   -2.2264   -0.1542 N   0  0  0  0  0  0  0  0  0  0  0  0
   -1.2530   -3.0606   -0.2210 C   0  0  0  0  0  0  0  0  0  0  0  0
   -2.5441   -2.5920   -0.1596 C   0  0  0  0  0  0  0  0  0  0  0  0
   -3.8565   -3.7188   -0.2481 Cl  0  0  0  0  0  0  0  0  0  0  0  0
   -2.7886   -1.2093   -0.0239 C   0  0  0  0  0  0  0  0  0  0  0  0
   -4.1322   -0.7715    0.0337 N   0  0  0  0  0  0  0  0  0  0  0  0
   -4.6314    0.5305    0.1683 C   0  0  0  0  0  0  0  0  0  0  0  0
   -3.8471    1.6747    0.2548 C   0  0  0  0  0  0  0  0  0  0  0  0
   -4.4236    2.9440    0.3851 C   0  0  0  0  0  0  0  0  0  0  0  0
   -5.7845    3.0848    0.4303 C   0  0  0  0  0  0  0  0  0  0  0  0
   -6.5680    1.9592    0.3455 C   0  0  0  0  0  0  0  0  0  0  0  0
   -6.0229    0.7011    0.2171 C   0  0  0  0  0  0  0  0  0  0  0  0
   -7.1090   -0.6705    0.1178 P   0  0  0  0  0  0  0  0  0  0  0  0
   -7.0784   -1.5504   -1.4361 C   0  0  0  0  0  0  0  0  0  0  0  0
   -8.8372   -0.0659    0.3452 C   0  0  0  0  0  0  0  0  0  0  0  0
   -6.8468   -1.6612    1.2403 O   0  0  0  0  0  0  0  0  0  0  0  0
   -1.6986   -0.4749    0.0328 N   0  0  0  0  0  0  0  0  0  0  0  0
    6.2327   -0.4602   -0.0753 N   0  0  0  0  0  0  0  0  0  0  0  0
    6.8639   -1.7729   -0.0001 C   0  0  0  0  0  0  0  0  0  0  0  0
    8.2549   -1.5121    0.5581 C   0  0  0  0  0  0  0  0  0  0  0  0
    8.1862   -0.5548    1.5837 O   0  0  0  0  0  0  0  0  0  0  0  0
    7.9164    0.7172    1.1022 C   0  0  0  0  0  0  0  0  0  0  0  0
    7.1293    0.6571   -0.1968 C   0  0  0  0  0  0  0  0  0  0  0  0
    3.6951    3.3128    1.1979 H   0  0  0  0  0  0  0  0  0  0  0  0
    3.5633    3.5908   -0.6131 H   0  0  0  0  0  0  0  0  0  0  0  0
    2.3411    4.3006    0.4556 H   0  0  0  0  0  0  0  0  0  0  0  0
    4.7749    1.7907    0.1727 H   0  0  0  0  0  0  0  0  0  0  0  0
    4.4579   -2.4141   -0.2332 H   0  0  0  0  0  0  0  0  0  0  0  0
    2.0559   -2.2695   -0.1874 H   0  0  0  0  0  0  0  0  0  0  0  0
    0.2746    1.1053    0.1594 H   0  0  0  0  0  0  0  0  0  0  0  0
   -1.0330   -4.1263   -0.3260 H   0  0  0  0  0  0  0  0  0  0  0  0
   -4.8480   -1.5427   -0.0398 H   0  0  0  0  0  0  0  0  0  0  0  0
   -2.7710    1.6075    0.2225 H   0  0  0  0  0  0  0  0  0  0  0  0
   -3.7816    3.8088    0.4493 H   0  0  0  0  0  0  0  0  0  0  0  0
   -6.2385    4.0826    0.5327 H   0  0  0  0  0  0  0  0  0  0  0  0
   -7.6381    2.1002    0.3837 H   0  0  0  0  0  0  0  0  0  0  0  0
   -6.5415   -2.5296   -1.4063 H   0  0  0  0  0  0  0  0  0  0  0  0
   -8.1153   -1.8170   -1.7204 H   0  0  0  0  0  0  0  0  0  0  0  0
   -6.6974   -0.9177   -2.2845 H   0  0  0  0  0  0  0  0  0  0  0  0
   -8.9780    0.2799    1.3721 H   0  0  0  0  0  0  0  0  0  0  0  0
   -9.5342   -0.8665    0.0389 H   0  0  0  0  0  0  0  0  0  0  0  0
   -8.9594    0.7506   -0.4052 H   0  0  0  0  0  0  0  0  0  0  0  0
    6.9314   -2.1742   -1.0277 H   0  0  0  0  0  0  0  0  0  0  0  0
    6.2902   -2.4640    0.6375 H   0  0  0  0  0  0  0  0  0  0  0  0
    8.6138   -2.4531    1.0166 H   0  0  0  0  0  0  0  0  0  0  0  0
    8.9150   -1.1938   -0.2608 H   0  0  0  0  0  0  0  0  0  0  0  0
    8.8340    1.3177    0.9520 H   0  0  0  0  0  0  0  0  0  0  0  0
    7.2790    1.2294    1.8528 H   0  0  0  0  0  0  0  0  0  0  0  0
    7.8021    0.4319   -1.0586 H   0  0  0  0  0  0  0  0  0  0  0  0
    6.6289    1.5994   -0.4538 H   0  0  0  0  0  0  0  0  0  0  0  0
  1  2  1  0
  2  3  1  0
  3  4  2  0
  4  5  1  0
  5  6  2  0
  6  7  1  0
  7  8  2  0
  8  9  1  0
  9 10  1  0
 10 11  2  0
 11 12  1  0
 12 13  2  0
 13 14  1  0
 13 15  1  0
 15 16  1  0
 16 17  1  0
 17 18  2  0
 18 19  1  0
 19 20  2  0
 20 21  1  0
 21 22  2  0
 22 23  1  0
 23 24  1  0
 23 25  1  0
 23 26  2  0
 15 27  2  0
  5 28  1  0
 28 29  1  0
 29 30  1  0
 30 31  1  0
 31 32  1  0
 32 33  1  0
  8  3  1  0
 27 10  1  0
 33 28  1  0
 22 17  1  0
  1 34  1  0
  1 35  1  0
  1 36  1  0
  4 37  1  0
  6 38  1  0
  7 39  1  0
  9 40  1  0
 12 41  1  0
 16 42  1  0
 18 43  1  0
 19 44  1  0
 20 45  1  0
 21 46  1  0
 24 47  1  0
 24 48  1  0
 24 49  1  0
 25 50  1  0
 25 51  1  0
 25 52  1  0
 29 53  1  0
 29 54  1  0
 30 55  1  0
 30 56  1  0
 32 57  1  0
 32 58  1  0
 33 59  1  0
 33 60  1  0
M  END
$$$$
[H]OC(=O)C([H])([H])[C@@]([H])(C(=O)N([H])[C@]([H])(C(=O)N([H])[C@@]([H])(C([H])([H])c1c([H])c([H])c([H])c([H])c1[H])C([H])(C([H])([H])[H])C([H])([H])[H])C([H])(C([H])([H])[H])C([H])([H])[H])N([H])C(=O)[C@@]([H])(N([H])C(=O)OC([H])([H])c1c([H])c([H])c([H])c([H])c1[H])C([H])([H])C([H])(C([H])([H])[H])C([H])([H])[H]
     RDKit          3D

 93 94  0  0  0  0  0  0  0  0999 V2000
   -1.9916   -1.9862    2.2576 C   0  0  0  0  0  0  0  0  0  0  0  0
   -1.1576   -0.8980    1.5715 C   0  0  0  0  0  0  0  0  0  0  0  0
   -1.0462    0.2623    2.5054 C   0  0  0  0  0  0  0  0  0  0  0  0
   -1.7746   -0.5398    0.2203 C   0  0  2  0  0  0  0  0  0  0  0  0
   -0.8728    0.4932   -0.3155 N   0  0  0  0  0  0  0  0  0  0  0  0
    0.0713    0.1084   -1.2642 C   0  0  0  0  0  0  0  0  0  0  0  0
    0.1015   -1.1324   -1.6137 O   0  0  0  0  0  0  0  0  0  0  0  0
    1.0875    0.9405   -1.9536 C   0  0  2  0  0  0  0  0  0  0  0  0
    0.7350    1.2953   -3.3387 C   0  0  0  0  0  0  0  0  0  0  0  0
   -0.4964    2.0643   -3.4957 C   0  0  0  0  0  0  0  0  0  0  0  0
   -0.9797    2.4195   -4.7746 O   0  0  0  0  0  0  0  0  0  0  0  0
   -1.2077    2.4624   -2.5520 O   0  0  0  0  0  0  0  0  0  0  0  0
    2.3830    0.1929   -1.9433 N   0  0  0  0  0  0  0  0  0  0  0  0
    3.2379    0.3422   -0.8328 C   0  0  0  0  0  0  0  0  0  0  0  0
    2.8376    1.0976    0.1038 O   0  0  0  0  0  0  0  0  0  0  0  0
    4.5462   -0.3021   -0.6717 C   0  0  2  0  0  0  0  0  0  0  0  0
    4.6651   -1.6952   -1.0908 C   0  0  0  0  0  0  0  0  0  0  0  0
    3.8122   -2.7410   -0.4914 C   0  0  0  0  0  0  0  0  0  0  0  0
    3.9110   -2.9737    0.9737 C   0  0  0  0  0  0  0  0  0  0  0  0
    4.2429   -4.0684   -1.1599 C   0  0  0  0  0  0  0  0  0  0  0  0
    5.1276   -0.0485    0.6183 N   0  0  0  0  0  0  0  0  0  0  0  0
    6.2159    0.8464    0.8206 C   0  0  0  0  0  0  0  0  0  0  0  0
    6.7483    1.4683   -0.1259 O   0  0  0  0  0  0  0  0  0  0  0  0
    6.7032    1.0434    2.1003 O   0  0  0  0  0  0  0  0  0  0  0  0
    7.7542    1.9160    2.3491 C   0  0  0  0  0  0  0  0  0  0  0  0
    7.4635    3.3273    1.9705 C   0  0  0  0  0  0  0  0  0  0  0  0
    6.1992    3.8146    1.7369 C   0  0  0  0  0  0  0  0  0  0  0  0
    6.0106    5.1261    1.4028 C   0  0  0  0  0  0  0  0  0  0  0  0
    7.0638    6.0064    1.2866 C   0  0  0  0  0  0  0  0  0  0  0  0
    8.3222    5.5090    1.5217 C   0  0  0  0  0  0  0  0  0  0  0  0
    8.5343    4.1898    1.8598 C   0  0  0  0  0  0  0  0  0  0  0  0
   -3.1040    0.0387    0.3595 C   0  0  0  0  0  0  0  0  0  0  0  0
   -3.2058    1.3004    0.5257 O   0  0  0  0  0  0  0  0  0  0  0  0
   -4.3075   -0.7037    0.3235 N   0  0  0  0  0  0  0  0  0  0  0  0
   -5.5785   -0.0348    0.4817 C   0  0  1  0  0  0  0  0  0  0  0  0
   -6.1952    0.3252   -0.8383 C   0  0  0  0  0  0  0  0  0  0  0  0
   -6.4748   -0.7391   -1.7711 C   0  0  0  0  0  0  0  0  0  0  0  0
   -7.7058   -1.3301   -1.8472 C   0  0  0  0  0  0  0  0  0  0  0  0
   -7.9839   -2.3497   -2.7436 C   0  0  0  0  0  0  0  0  0  0  0  0
   -7.0022   -2.7809   -3.5774 C   0  0  0  0  0  0  0  0  0  0  0  0
   -5.7479   -2.2062   -3.5263 C   0  0  0  0  0  0  0  0  0  0  0  0
   -5.4992   -1.1851   -2.6168 C   0  0  0  0  0  0  0  0  0  0  0  0
   -6.4560   -0.6454    1.5030 C   0  0  0  0  0  0  0  0  0  0  0  0
   -6.8493   -2.0654    1.3009 C   0  0  0  0  0  0  0  0  0  0  0  0
   -7.6117    0.2765    1.8119 C   0  0  0  0  0  0  0  0  0  0  0  0
   -3.0339   -1.5863    2.3731 H   0  0  0  0  0  0  0  0  0  0  0  0
   -1.5819   -2.2472    3.2353 H   0  0  0  0  0  0  0  0  0  0  0  0
   -2.0542   -2.8469    1.5734 H   0  0  0  0  0  0  0  0  0  0  0  0
   -0.1520   -1.3355    1.4203 H   0  0  0  0  0  0  0  0  0  0  0  0
   -0.1631    0.0681    3.1816 H   0  0  0  0  0  0  0  0  0  0  0  0
   -0.8612    1.2369    2.0289 H   0  0  0  0  0  0  0  0  0  0  0  0
   -1.9326    0.2931    3.1952 H   0  0  0  0  0  0  0  0  0  0  0  0
   -1.6899   -1.4545   -0.3837 H   0  0  0  0  0  0  0  0  0  0  0  0
   -0.9686    1.4846    0.0446 H   0  0  0  0  0  0  0  0  0  0  0  0
    1.2391    1.8153   -1.3136 H   0  0  0  0  0  0  0  0  0  0  0  0
    1.5566    1.9516   -3.7727 H   0  0  0  0  0  0  0  0  0  0  0  0
    0.6810    0.3467   -3.9589 H   0  0  0  0  0  0  0  0  0  0  0  0
   -1.7605    1.9370   -5.1778 H   0  0  0  0  0  0  0  0  0  0  0  0
    2.5589   -0.3881   -2.7658 H   0  0  0  0  0  0  0  0  0  0  0  0
    5.2196    0.3227   -1.3856 H   0  0  0  0  0  0  0  0  0  0  0  0
    5.7345   -2.0746   -0.9874 H   0  0  0  0  0  0  0  0  0  0  0  0
    4.5172   -1.7726   -2.2145 H   0  0  0  0  0  0  0  0  0  0  0  0
    2.7331   -2.6526   -0.8298 H   0  0  0  0  0  0  0  0  0  0  0  0
    3.5326   -4.0239    1.1514 H   0  0  0  0  0  0  0  0  0  0  0  0
    3.2410   -2.3403    1.5830 H   0  0  0  0  0  0  0  0  0  0  0  0
    4.9481   -2.9108    1.3039 H   0  0  0  0  0  0  0  0  0  0  0  0
    3.7112   -4.8942   -0.6644 H   0  0  0  0  0  0  0  0  0  0  0  0
    3.9091   -4.0624   -2.2268 H   0  0  0  0  0  0  0  0  0  0  0  0
    5.3371   -4.1918   -1.1240 H   0  0  0  0  0  0  0  0  0  0  0  0
    4.7428   -0.5312    1.4448 H   0  0  0  0  0  0  0  0  0  0  0  0
    8.7261    1.6415    1.8850 H   0  0  0  0  0  0  0  0  0  0  0  0
    7.9622    1.9306    3.4527 H   0  0  0  0  0  0  0  0  0  0  0  0
    5.3472    3.1492    1.8195 H   0  0  0  0  0  0  0  0  0  0  0  0
    5.0268    5.5481    1.2104 H   0  0  0  0  0  0  0  0  0  0  0  0
    6.8955    7.0482    1.0227 H   0  0  0  0  0  0  0  0  0  0  0  0
    9.1475    6.2087    1.4291 H   0  0  0  0  0  0  0  0  0  0  0  0
    9.5618    3.8568    2.0345 H   0  0  0  0  0  0  0  0  0  0  0  0
   -4.2657   -1.7521    0.1781 H   0  0  0  0  0  0  0  0  0  0  0  0
   -5.2997    0.9913    0.9128 H   0  0  0  0  0  0  0  0  0  0  0  0
   -5.4863    1.0777   -1.3126 H   0  0  0  0  0  0  0  0  0  0  0  0
   -7.0934    0.9639   -0.5990 H   0  0  0  0  0  0  0  0  0  0  0  0
   -8.5078   -1.0077   -1.1911 H   0  0  0  0  0  0  0  0  0  0  0  0
   -8.9660   -2.8002   -2.7855 H   0  0  0  0  0  0  0  0  0  0  0  0
   -7.1527   -3.5700   -4.2948 H   0  0  0  0  0  0  0  0  0  0  0  0
   -4.9868   -2.5620   -4.1919 H   0  0  0  0  0  0  0  0  0  0  0  0
   -4.5181   -0.7648   -2.6027 H   0  0  0  0  0  0  0  0  0  0  0  0
   -5.8411   -0.6326    2.4651 H   0  0  0  0  0  0  0  0  0  0  0  0
   -7.9536   -2.1935    1.1025 H   0  0  0  0  0  0  0  0  0  0  0  0
   -6.2034   -2.5882    0.5997 H   0  0  0  0  0  0  0  0  0  0  0  0
   -6.7203   -2.6284    2.2774 H   0  0  0  0  0  0  0  0  0  0  0  0
   -8.2216   -0.2022    2.6068 H   0  0  0  0  0  0  0  0  0  0  0  0
   -7.1686    1.2061    2.2594 H   0  0  0  0  0  0  0  0  0  0  0  0
   -8.2719    0.4957    0.9769 H   0  0  0  0  0  0  0  0  0  0  0  0
  1  2  1  0
  2  3  1  0
  2  4  1  0
  4  5  1  0
  5  6  1  0
  6  7  2  0
  6  8  1  0
  8  9  1  0
  9 10  1  0
 10 11  1  0
 10 12  2  0
  8 13  1  0
 13 14  1  0
 14 15  2  0
 14 16  1  0
 16 17  1  0
 17 18  1  0
 18 19  1  0
 18 20  1  0
 16 21  1  0
 21 22  1  0
 22 23  2  0
 22 24  1  0
 24 25  1  0
 25 26  1  0
 26 27  2  0
 27 28  1  0
 28 29  2  0
 29 30  1  0
 30 31  2  0
  4 32  1  0
 32 33  2  0
 32 34  1  0
 34 35  1  0
 35 36  1  0
 36 37  1  0
 37 38  2  0
 38 39  1  0
 39 40  2  0
 40 41  1  0
 41 42  2  0
 35 43  1  0
 43 44  1  0
 43 45  1  0
 31 26  1  0
 42 37  1  0
  1 46  1  0
  1 47  1  0
  1 48  1  0
  2 49  1  0
  3 50  1  0
  3 51  1  0
  3 52  1  0
  4 53  1  6
  5 54  1  0
  8 55  1  1
  9 56  1  0
  9 57  1  0
 11 58  1  0
 13 59  1  0
 16 60  1  6
 17 61  1  0
 17 62  1  0
 18 63  1  0
 19 64  1  0
 19 65  1  0
 19 66  1  0
 20 67  1  0
 20 68  1  0
 20 69  1  0
 21 70  1  0
 25 71  1  0
 25 72  1  0
 27 73  1  0
 28 74  1  0
 29 75  1  0
 30 76  1  0
 31 77  1  0
 34 78  1  0
 35 79  1  1
 36 80  1  0
 36 81  1  0
 38 82  1  0
 39 83  1  0
 40 84  1  0
 41 85  1  0
 42 86  1  0
 43 87  1  0
 44 88  1  0
 44 89  1  0
 44 90  1  0
 45 91  1  0
 45 92  1  0
 45 93  1  0
M  END
$$$$
[H]c1c([H])c(C(=O)N2C([H])([H])C([H])([H])N(C(=O)[C@]3([H])C([H])([H])N(C(F)(F)F)C([H])([H])[C@]3([H])c3c([H])c([H])c(Cl)c(Cl)c3[H])[C@]([H])(C([H])([H])[H])C2([H])[H])c([H])c(C(F)(F)F)c1[H]
     RDKit          3D

 61 64  0  0  0  0  0  0  0  0999 V2000
    0.5515    0.4213    2.1714 C   0  0  0  0  0  0  0  0  0  0  0  0
    0.2042   -0.6896    1.2007 C   0  0  2  0  0  0  0  0  0  0  0  0
    1.3816   -1.5691    0.9137 C   0  0  0  0  0  0  0  0  0  0  0  0
    2.4949   -0.7491    0.3631 N   0  0  0  0  0  0  0  0  0  0  0  0
    2.1339    0.4468   -0.2991 C   0  0  0  0  0  0  0  0  0  0  0  0
    0.7449    0.4526   -0.8883 C   0  0  0  0  0  0  0  0  0  0  0  0
   -0.2775   -0.0619   -0.0251 N   0  0  0  0  0  0  0  0  0  0  0  0
   -1.6433    0.0245   -0.3785 C   0  0  0  0  0  0  0  0  0  0  0  0
   -1.9065    0.6335   -1.4581 O   0  0  0  0  0  0  0  0  0  0  0  0
   -2.6589   -0.5756    0.4814 C   0  0  2  0  0  0  0  0  0  0  0  0
   -2.6200   -2.0948    0.1273 C   0  0  0  0  0  0  0  0  0  0  0  0
   -3.4939   -2.1985   -1.0084 N   0  0  0  0  0  0  0  0  0  0  0  0
   -4.2448   -0.9974   -1.1643 C   0  0  0  0  0  0  0  0  0  0  0  0
   -4.0715   -0.3143    0.1878 C   0  0  2  0  0  0  0  0  0  0  0  0
   -4.6080    1.0178    0.2705 C   0  0  0  0  0  0  0  0  0  0  0  0
   -5.9805    1.1570    0.0690 C   0  0  0  0  0  0  0  0  0  0  0  0
   -6.5928    2.3886    0.1407 C   0  0  0  0  0  0  0  0  0  0  0  0
   -5.8604    3.5197    0.4154 C   0  0  0  0  0  0  0  0  0  0  0  0
   -6.6571    5.1059    0.5018 Cl  0  0  0  0  0  0  0  0  0  0  0  0
   -4.5105    3.3976    0.6172 C   0  0  0  0  0  0  0  0  0  0  0  0
   -3.5777    4.8501    0.9624 Cl  0  0  0  0  0  0  0  0  0  0  0  0
   -3.8997    2.1551    0.5439 C   0  0  0  0  0  0  0  0  0  0  0  0
   -4.2890   -3.3944   -1.0588 C   0  0  0  0  0  0  0  0  0  0  0  0
   -3.4902   -4.5202   -1.0934 F   0  0  0  0  0  0  0  0  0  0  0  0
   -5.1254   -3.5373    0.0445 F   0  0  0  0  0  0  0  0  0  0  0  0
   -5.1140   -3.4324   -2.1593 F   0  0  0  0  0  0  0  0  0  0  0  0
    3.7692   -1.2928    0.5204 C   0  0  0  0  0  0  0  0  0  0  0  0
    3.8044   -2.4828    1.0894 O   0  0  0  0  0  0  0  0  0  0  0  0
    5.0521   -0.7907    0.1702 C   0  0  0  0  0  0  0  0  0  0  0  0
    6.1473   -1.6758    0.1725 C   0  0  0  0  0  0  0  0  0  0  0  0
    7.4240   -1.2645   -0.1027 C   0  0  0  0  0  0  0  0  0  0  0  0
    7.6447    0.0436   -0.3886 C   0  0  0  0  0  0  0  0  0  0  0  0
    6.6182    0.9565   -0.4058 C   0  0  0  0  0  0  0  0  0  0  0  0
    5.3150    0.5116   -0.1195 C   0  0  0  0  0  0  0  0  0  0  0  0
    6.8281    2.3912   -0.7100 C   0  0  0  0  0  0  0  0  0  0  0  0
    7.8709    2.5538   -1.6148 F   0  0  0  0  0  0  0  0  0  0  0  0
    7.0505    3.0536    0.4785 F   0  0  0  0  0  0  0  0  0  0  0  0
    5.6782    2.9453   -1.2797 F   0  0  0  0  0  0  0  0  0  0  0  0
    1.6467    0.3971    2.3318 H   0  0  0  0  0  0  0  0  0  0  0  0
   -0.0024    0.3060    3.1325 H   0  0  0  0  0  0  0  0  0  0  0  0
    0.2251    1.3871    1.7411 H   0  0  0  0  0  0  0  0  0  0  0  0
   -0.5703   -1.3685    1.6603 H   0  0  0  0  0  0  0  0  0  0  0  0
    1.7309   -1.9782    1.8941 H   0  0  0  0  0  0  0  0  0  0  0  0
    1.1244   -2.3300    0.1682 H   0  0  0  0  0  0  0  0  0  0  0  0
    2.8009    0.5420   -1.2248 H   0  0  0  0  0  0  0  0  0  0  0  0
    2.3166    1.3721    0.2815 H   0  0  0  0  0  0  0  0  0  0  0  0
    0.7564   -0.1256   -1.8240 H   0  0  0  0  0  0  0  0  0  0  0  0
    0.5510    1.5104   -1.1933 H   0  0  0  0  0  0  0  0  0  0  0  0
   -2.4845   -0.4592    1.5785 H   0  0  0  0  0  0  0  0  0  0  0  0
   -2.9166   -2.6420    1.0146 H   0  0  0  0  0  0  0  0  0  0  0  0
   -1.6036   -2.3917   -0.1783 H   0  0  0  0  0  0  0  0  0  0  0  0
   -5.3513   -1.1916   -1.2359 H   0  0  0  0  0  0  0  0  0  0  0  0
   -4.0053   -0.3764   -2.0183 H   0  0  0  0  0  0  0  0  0  0  0  0
   -4.6690   -1.0254    0.8756 H   0  0  0  0  0  0  0  0  0  0  0  0
   -6.6135    0.3099   -0.1483 H   0  0  0  0  0  0  0  0  0  0  0  0
   -7.6517    2.5378   -0.0098 H   0  0  0  0  0  0  0  0  0  0  0  0
   -2.8142    2.1361    0.7315 H   0  0  0  0  0  0  0  0  0  0  0  0
    5.9822   -2.7437    0.3995 H   0  0  0  0  0  0  0  0  0  0  0  0
    8.2518   -1.9830   -0.0920 H   0  0  0  0  0  0  0  0  0  0  0  0
    8.6488    0.4349   -0.6192 H   0  0  0  0  0  0  0  0  0  0  0  0
    4.5555    1.2973   -0.1200 H   0  0  0  0  0  0  0  0  0  0  0  0
  1  2  1  0
  2  3  1  0
  3  4  1  0
  4  5  1  0
  5  6  1  0
  6  7  1  0
  7  8  1  0
  8  9  2  0
  8 10  1  0
 10 11  1  0
 11 12  1  0
 12 13  1  0
 13 14  1  0
 14 15  1  0
 15 16  2  0
 16 17  1  0
 17 18  2  0
 18 19  1  0
 18 20  1  0
 20 21  1  0
 20 22  2  0
 12 23  1  0
 23 24  1  0
 23 25  1  0
 23 26  1  0
  4 27  1  0
 27 28  2  0
 27 29  1  0
 29 30  2  0
 30 31  1  0
 31 32  2  0
 32 33  1  0
 33 34  2  0
 33 35  1  0
 35 36  1  0
 35 37  1  0
 35 38  1  0
  7  2  1  0
 14 10  1  0
 22 15  1  0
 34 29  1  0
  1 39  1  0
  1 40  1  0
  1 41  1  0
  2 42  1  1
  3 43  1  0
  3 44  1  0
  5 45  1  0
  5 46  1  0
  6 47  1  0
  6 48  1  0
 10 49  1  1
 11 50  1  0
 11 51  1  0
 13 52  1  0
 13 53  1  0
 14 54  1  1
 16 55  1  0
 17 56  1  0
 22 57  1  0
 30 58  1  0
 31 59  1  0
 32 60  1  0
 34 61  1  0
M  END
$$$$
[H]c1nn(C([H])([H])[H])c([H])c1-c1c([H])c([H])c(N([H])[H])c(C(=O)N2C([H])([H])[C@@]3([H])C([H])([H])N(S(=O)(=O)c4c([H])c([H])c(OC([H])([H])[H])c([H])c4[H])C([H])([H])[C@@]23[H])c1[H]
     RDKit          3D

 58 62  0  0  0  0  0  0  0  0999 V2000
    8.7571    1.3683    1.3624 C   0  0  0  0  0  0  0  0  0  0  0  0
    8.1896    0.7501    0.2230 O   0  0  0  0  0  0  0  0  0  0  0  0
    6.9224    0.1843    0.3604 C   0  0  0  0  0  0  0  0  0  0  0  0
    6.2352    0.2182    1.5587 C   0  0  0  0  0  0  0  0  0  0  0  0
    4.9753   -0.3368    1.7196 C   0  0  0  0  0  0  0  0  0  0  0  0
    4.3792   -0.9460    0.6522 C   0  0  0  0  0  0  0  0  0  0  0  0
    5.0179   -1.0052   -0.5534 C   0  0  0  0  0  0  0  0  0  0  0  0
    6.2779   -0.4413   -0.6851 C   0  0  0  0  0  0  0  0  0  0  0  0
    2.8002   -1.6483    0.8366 S   0  0  0  0  0  0  0  0  0  0  0  0
    2.6620   -2.7826   -0.1375 O   0  0  0  0  0  0  0  0  0  0  0  0
    2.6047   -2.1640    2.2420 O   0  0  0  0  0  0  0  0  0  0  0  0
    1.6272   -0.4489    0.4574 N   0  0  0  0  0  0  0  0  0  0  0  0
    1.6997    0.6939    1.3469 C   0  0  0  0  0  0  0  0  0  0  0  0
    0.7472    1.6634    0.6704 C   0  0  1  0  0  0  0  0  0  0  0  0
    0.9089    1.3497   -0.7618 C   0  0  1  0  0  0  0  0  0  0  0  0
    1.7596    0.0904   -0.8569 C   0  0  0  0  0  0  0  0  0  0  0  0
   -0.4997    0.9261   -0.8634 N   0  0  0  0  0  0  0  0  0  0  0  0
   -0.6498    1.2118    0.5203 C   0  0  0  0  0  0  0  0  0  0  0  0
   -1.2223    0.4494   -2.0034 C   0  0  0  0  0  0  0  0  0  0  0  0
   -0.5979    0.3607   -3.1169 O   0  0  0  0  0  0  0  0  0  0  0  0
   -2.6062    0.0630   -1.9770 C   0  0  0  0  0  0  0  0  0  0  0  0
   -3.4438    0.0913   -0.8999 C   0  0  0  0  0  0  0  0  0  0  0  0
   -4.7889   -0.3029   -0.9576 C   0  0  0  0  0  0  0  0  0  0  0  0
   -5.3088   -0.7394   -2.1348 C   0  0  0  0  0  0  0  0  0  0  0  0
   -4.5025   -0.7829   -3.2377 C   0  0  0  0  0  0  0  0  0  0  0  0
   -3.1826   -0.3933   -3.1705 C   0  0  0  0  0  0  0  0  0  0  0  0
   -2.4015   -0.4638   -4.3433 N   0  0  0  0  0  0  0  0  0  0  0  0
   -5.5379   -0.2078    0.2891 C   0  0  0  0  0  0  0  0  0  0  0  0
   -5.3335    0.7280    1.2874 C   0  0  0  0  0  0  0  0  0  0  0  0
   -6.2246    0.4771    2.2666 N   0  0  0  0  0  0  0  0  0  0  0  0
   -6.9801   -0.5533    1.9587 N   0  0  0  0  0  0  0  0  0  0  0  0
   -8.0663   -1.1475    2.7530 C   0  0  0  0  0  0  0  0  0  0  0  0
   -6.5774   -0.9909    0.7492 C   0  0  0  0  0  0  0  0  0  0  0  0
    9.7580    1.7938    1.1514 H   0  0  0  0  0  0  0  0  0  0  0  0
    8.0364    2.1366    1.7134 H   0  0  0  0  0  0  0  0  0  0  0  0
    8.7949    0.5823    2.1641 H   0  0  0  0  0  0  0  0  0  0  0  0
    6.7359    0.7113    2.3976 H   0  0  0  0  0  0  0  0  0  0  0  0
    4.4940   -0.2698    2.7030 H   0  0  0  0  0  0  0  0  0  0  0  0
    4.5553   -1.4930   -1.4343 H   0  0  0  0  0  0  0  0  0  0  0  0
    6.7829   -0.4944   -1.6581 H   0  0  0  0  0  0  0  0  0  0  0  0
    2.7131    1.1243    1.2333 H   0  0  0  0  0  0  0  0  0  0  0  0
    1.4365    0.4728    2.3820 H   0  0  0  0  0  0  0  0  0  0  0  0
    0.9075    2.7188    0.9812 H   0  0  0  0  0  0  0  0  0  0  0  0
    1.1893    2.1536   -1.4498 H   0  0  0  0  0  0  0  0  0  0  0  0
    1.3784   -0.5903   -1.6516 H   0  0  0  0  0  0  0  0  0  0  0  0
    2.7996    0.4012   -1.0452 H   0  0  0  0  0  0  0  0  0  0  0  0
   -0.9432    0.3784    1.1949 H   0  0  0  0  0  0  0  0  0  0  0  0
   -1.3536    2.0762    0.6886 H   0  0  0  0  0  0  0  0  0  0  0  0
   -3.0430    0.4392    0.0486 H   0  0  0  0  0  0  0  0  0  0  0  0
   -6.3384   -1.0397   -2.1733 H   0  0  0  0  0  0  0  0  0  0  0  0
   -4.8878   -1.1277   -4.1958 H   0  0  0  0  0  0  0  0  0  0  0  0
   -1.7969   -1.3145   -4.4633 H   0  0  0  0  0  0  0  0  0  0  0  0
   -2.3701    0.2445   -5.0977 H   0  0  0  0  0  0  0  0  0  0  0  0
   -4.5768    1.5010    1.2362 H   0  0  0  0  0  0  0  0  0  0  0  0
   -7.8873   -0.9186    3.8388 H   0  0  0  0  0  0  0  0  0  0  0  0
   -9.0138   -0.6899    2.4672 H   0  0  0  0  0  0  0  0  0  0  0  0
   -8.0191   -2.2406    2.6564 H   0  0  0  0  0  0  0  0  0  0  0  0
   -6.9920   -1.8259    0.2053 H   0  0  0  0  0  0  0  0  0  0  0  0
  1  2  1  0
  2  3  1  0
  3  4  2  0
  4  5  1  0
  5  6  2  0
  6  7  1  0
  7  8  2  0
  6  9  1  0
  9 10  2  0
  9 11  2  0
  9 12  1  0
 12 13  1  0
 13 14  1  0
 14 15  1  0
 15 16  1  0
 15 17  1  0
 17 18  1  0
 17 19  1  0
 19 20  2  0
 19 21  1  0
 21 22  2  0
 22 23  1  0
 23 24  2  0
 24 25  1  0
 25 26  2  0
 26 27  1  0
 23 28  1  0
 28 29  1  0
 29 30  2  0
 30 31  1  0
 31 32  1  0
 31 33  1  0
  8  3  1  0
 16 12  1  0
 26 21  1  0
 33 28  2  0
 18 14  1  0
  1 34  1  0
  1 35  1  0
  1 36  1  0
  4 37  1  0
  5 38  1  0
  7 39  1  0
  8 40  1  0
 13 41  1  0
 13 42  1  0
 14 43  1  6
 15 44  1  6
 16 45  1  0
 16 46  1  0
 18 47  1  0
 18 48  1  0
 22 49  1  0
 24 50  1  0
 25 51  1  0
 27 52  1  0
 27 53  1  0
 29 54  1  0
 32 55  1  0
 32 56  1  0
 32 57  1  0
 33 58  1  0
M  END
$$$$
[H]Oc1c([H])c([H])c(C([H])([H])[C@@]([H])(C(=O)N([H])[C@]([H])(C(=O)N2C([H])([H])C([H])([H])C([H])([H])[C@@]2([H])C(=O)N([H])[C@]([H])(C(F)(F)F)C([H])([H])c2c([H])c([H])c(O[H])c([H])c2[H])C([H])([H])C([H])(C([H])([H])[H])C([H])([H])[H])N([H])[H])c([H])c1[H]
     RDKit          3D

 78 80  0  0  0  0  0  0  0  0999 V2000
   -3.3025   -4.5742    0.5266 C   0  0  0  0  0  0  0  0  0  0  0  0
   -3.2846   -3.7316   -0.7559 C   0  0  0  0  0  0  0  0  0  0  0  0
   -4.5670   -3.0057   -0.8508 C   0  0  0  0  0  0  0  0  0  0  0  0
   -2.0207   -2.9769   -0.9134 C   0  0  0  0  0  0  0  0  0  0  0  0
   -1.6656   -2.0076    0.1641 C   0  0  2  0  0  0  0  0  0  0  0  0
   -2.6184   -0.9174    0.3289 N   0  0  0  0  0  0  0  0  0  0  0  0
   -3.0161   -0.0331   -0.7004 C   0  0  0  0  0  0  0  0  0  0  0  0
   -2.5889   -0.1194   -1.8843 O   0  0  0  0  0  0  0  0  0  0  0  0
   -3.9693    1.0608   -0.4192 C   0  0  1  0  0  0  0  0  0  0  0  0
   -4.1982    1.7890   -1.6708 N   0  0  0  0  0  0  0  0  0  0  0  0
   -5.3075    0.6324    0.0737 C   0  0  0  0  0  0  0  0  0  0  0  0
   -6.1605    1.8469    0.3149 C   0  0  0  0  0  0  0  0  0  0  0  0
   -6.9557    2.3674   -0.6879 C   0  0  0  0  0  0  0  0  0  0  0  0
   -7.7537    3.4888   -0.4910 C   0  0  0  0  0  0  0  0  0  0  0  0
   -7.7659    4.1166    0.7389 C   0  0  0  0  0  0  0  0  0  0  0  0
   -8.5521    5.2420    0.9735 O   0  0  0  0  0  0  0  0  0  0  0  0
   -6.9651    3.5892    1.7427 C   0  0  0  0  0  0  0  0  0  0  0  0
   -6.1791    2.4779    1.5350 C   0  0  0  0  0  0  0  0  0  0  0  0
   -0.2754   -1.4609    0.0519 C   0  0  0  0  0  0  0  0  0  0  0  0
   -0.2161   -0.2548   -0.2737 O   0  0  0  0  0  0  0  0  0  0  0  0
    0.9125   -2.1672    0.2774 N   0  0  0  0  0  0  0  0  0  0  0  0
    0.9288   -3.6001    0.7262 C   0  0  0  0  0  0  0  0  0  0  0  0
    1.7873   -4.1770   -0.3726 C   0  0  0  0  0  0  0  0  0  0  0  0
    2.6844   -3.0165   -0.8413 C   0  0  0  0  0  0  0  0  0  0  0  0
    2.3115   -1.9598    0.2008 C   0  0  1  0  0  0  0  0  0  0  0  0
    2.9138   -0.6910   -0.0029 C   0  0  0  0  0  0  0  0  0  0  0  0
    2.3451    0.3995   -0.0325 O   0  0  0  0  0  0  0  0  0  0  0  0
    4.3354   -0.6469   -0.1973 N   0  0  0  0  0  0  0  0  0  0  0  0
    5.0327    0.6288   -0.4126 C   0  0  1  0  0  0  0  0  0  0  0  0
    6.0155    0.7732    0.6940 C   0  0  0  0  0  0  0  0  0  0  0  0
    6.8330    1.9880    0.6916 C   0  0  0  0  0  0  0  0  0  0  0  0
    8.0776    2.0195    0.1085 C   0  0  0  0  0  0  0  0  0  0  0  0
    8.8474    3.1595    0.1065 C   0  0  0  0  0  0  0  0  0  0  0  0
    8.3870    4.3277    0.7001 C   0  0  0  0  0  0  0  0  0  0  0  0
    9.1762    5.4613    0.6872 O   0  0  0  0  0  0  0  0  0  0  0  0
    7.1393    4.2962    1.2848 C   0  0  0  0  0  0  0  0  0  0  0  0
    6.3739    3.1518    1.2831 C   0  0  0  0  0  0  0  0  0  0  0  0
    5.6705    0.5218   -1.7736 C   0  0  0  0  0  0  0  0  0  0  0  0
    6.5809   -0.5024   -1.8676 F   0  0  0  0  0  0  0  0  0  0  0  0
    6.2068    1.6713   -2.2540 F   0  0  0  0  0  0  0  0  0  0  0  0
    4.6534    0.1568   -2.6972 F   0  0  0  0  0  0  0  0  0  0  0  0
   -3.8548   -3.9768    1.3091 H   0  0  0  0  0  0  0  0  0  0  0  0
   -2.2984   -4.7931    0.8980 H   0  0  0  0  0  0  0  0  0  0  0  0
   -3.9107   -5.4886    0.3812 H   0  0  0  0  0  0  0  0  0  0  0  0
   -3.3315   -4.5351   -1.5693 H   0  0  0  0  0  0  0  0  0  0  0  0
   -4.7157   -2.4253   -1.7673 H   0  0  0  0  0  0  0  0  0  0  0  0
   -5.3746   -3.8045   -0.9050 H   0  0  0  0  0  0  0  0  0  0  0  0
   -4.8468   -2.4595    0.0912 H   0  0  0  0  0  0  0  0  0  0  0  0
   -2.0681   -2.4855   -1.9258 H   0  0  0  0  0  0  0  0  0  0  0  0
   -1.2063   -3.7138   -1.0282 H   0  0  0  0  0  0  0  0  0  0  0  0
   -1.6711   -2.6378    1.1029 H   0  0  0  0  0  0  0  0  0  0  0  0
   -3.0254   -0.7956    1.2831 H   0  0  0  0  0  0  0  0  0  0  0  0
   -3.5305    1.8114    0.2896 H   0  0  0  0  0  0  0  0  0  0  0  0
   -4.1737    1.0785   -2.4326 H   0  0  0  0  0  0  0  0  0  0  0  0
   -3.4401    2.4842   -1.8346 H   0  0  0  0  0  0  0  0  0  0  0  0
   -5.2119    0.0203    0.9736 H   0  0  0  0  0  0  0  0  0  0  0  0
   -5.8593    0.0492   -0.6959 H   0  0  0  0  0  0  0  0  0  0  0  0
   -6.9663    1.8984   -1.6579 H   0  0  0  0  0  0  0  0  0  0  0  0
   -8.3641    3.8671   -1.3051 H   0  0  0  0  0  0  0  0  0  0  0  0
   -8.1367    6.1565    0.7883 H   0  0  0  0  0  0  0  0  0  0  0  0
   -7.0016    4.1134    2.7004 H   0  0  0  0  0  0  0  0  0  0  0  0
   -5.5719    2.0967    2.3338 H   0  0  0  0  0  0  0  0  0  0  0  0
    1.5679   -3.6129    1.6568 H   0  0  0  0  0  0  0  0  0  0  0  0
   -0.0288   -4.0180    0.8955 H   0  0  0  0  0  0  0  0  0  0  0  0
    1.1702   -4.4942   -1.2497 H   0  0  0  0  0  0  0  0  0  0  0  0
    2.4378   -4.9991   -0.0055 H   0  0  0  0  0  0  0  0  0  0  0  0
    2.3839   -2.6595   -1.8451 H   0  0  0  0  0  0  0  0  0  0  0  0
    3.7430   -3.2780   -0.8324 H   0  0  0  0  0  0  0  0  0  0  0  0
    2.7286   -2.4358    1.1750 H   0  0  0  0  0  0  0  0  0  0  0  0
    4.9005   -1.4970   -0.1923 H   0  0  0  0  0  0  0  0  0  0  0  0
    4.3361    1.4748   -0.4121 H   0  0  0  0  0  0  0  0  0  0  0  0
    5.4421    0.7876    1.6630 H   0  0  0  0  0  0  0  0  0  0  0  0
    6.6673   -0.1371    0.7330 H   0  0  0  0  0  0  0  0  0  0  0  0
    8.5172    1.1525   -0.3789 H   0  0  0  0  0  0  0  0  0  0  0  0
    9.8317    3.1957   -0.3510 H   0  0  0  0  0  0  0  0  0  0  0  0
    8.8089    6.3026    1.1319 H   0  0  0  0  0  0  0  0  0  0  0  0
    6.8103    5.2363    1.7430 H   0  0  0  0  0  0  0  0  0  0  0  0
    5.3924    3.1980    1.7656 H   0  0  0  0  0  0  0  0  0  0  0  0
  1  2  1  0
  2  3  1  0
  2  4  1  0
  4  5  1  0
  5  6  1  0
  6  7  1  0
  7  8  2  0
  7  9  1  0
  9 10  1  0
  9 11  1  0
 11 12  1  0
 12 13  2  0
 13 14  1  0
 14 15  2  0
 15 16  1  0
 15 17  1  0
 17 18  2  0
  5 19  1  0
 19 20  2  0
 19 21  1  0
 21 22  1  0
 22 23  1  0
 23 24  1  0
 24 25  1  0
 25 26  1  0
 26 27  2  0
 26 28  1  0
 28 29  1  0
 29 30  1  0
 30 31  1  0
 31 32  2  0
 32 33  1  0
 33 34  2  0
 34 35  1  0
 34 36  1  0
 36 37  2  0
 29 38  1  0
 38 39  1  0
 38 40  1  0
 38 41  1  0
 18 12  1  0
 25 21  1  0
 37 31  1  0
  1 42  1  0
  1 43  1  0
  1 44  1  0
  2 45  1  0
  3 46  1  0
  3 47  1  0
  3 48  1  0
  4 49  1  0
  4 50  1  0
  5 51  1  1
  6 52  1  0
  9 53  1  1
 10 54  1  0
 10 55  1  0
 11 56  1  0
 11 57  1  0
 13 58  1  0
 14 59  1  0
 16 60  1  0
 17 61  1  0
 18 62  1  0
 22 63  1  0
 22 64  1  0
 23 65  1  0
 23 66  1  0
 24 67  1  0
 24 68  1  0
 25 69  1  1
 28 70  1  0
 29 71  1  6
 30 72  1  0
 30 73  1  0
 32 74  1  0
 33 75  1  0
 35 76  1  0
 36 77  1  0
 37 78  1  0
M  END
$$$$
[H]c1c([H])c([H])c(C([H])([H])[C@@]([H])(C(=O)N2C([H])([H])C([H])([H])C([H])([H])[C@@]2([H])C(=O)N([H])[C@]([H])(c2c([H])c([H])c([H])c([H])c2[H])C([H])([H])[H])N([H])C(=O)c2c([H])c([H])c([H])c(C(F)(F)F)c2[H])c([H])c1[H]
     RDKit          3D

 69 72  0  0  0  0  0  0  0  0999 V2000
   -5.1060    2.2256   -2.0325 C   0  0  0  0  0  0  0  0  0  0  0  0
   -4.5124    1.6858   -0.7649 C   0  0  2  0  0  0  0  0  0  0  0  0
   -4.0817    0.3275   -0.8697 N   0  0  0  0  0  0  0  0  0  0  0  0
   -2.7336   -0.1065   -0.5581 C   0  0  0  0  0  0  0  0  0  0  0  0
   -1.9814    0.7837   -0.1882 O   0  0  0  0  0  0  0  0  0  0  0  0
   -2.3366   -1.4951   -0.6853 C   0  0  2  0  0  0  0  0  0  0  0  0
   -3.1266   -2.2320    0.4099 C   0  0  0  0  0  0  0  0  0  0  0  0
   -2.4824   -3.5831    0.3201 C   0  0  0  0  0  0  0  0  0  0  0  0
   -1.0157   -3.1902    0.1921 C   0  0  0  0  0  0  0  0  0  0  0  0
   -1.0002   -1.8873   -0.4972 N   0  0  0  0  0  0  0  0  0  0  0  0
    0.2236   -1.2913   -0.8796 C   0  0  0  0  0  0  0  0  0  0  0  0
    0.0873   -0.2010   -1.5556 O   0  0  0  0  0  0  0  0  0  0  0  0
    1.6014   -1.6883   -0.6426 C   0  0  2  0  0  0  0  0  0  0  0  0
    1.9875   -2.5575    0.4655 C   0  0  0  0  0  0  0  0  0  0  0  0
    3.4844   -2.7967    0.5274 C   0  0  0  0  0  0  0  0  0  0  0  0
    4.0333   -3.8259   -0.1765 C   0  0  0  0  0  0  0  0  0  0  0  0
    5.3705   -4.0939   -0.1346 C   0  0  0  0  0  0  0  0  0  0  0  0
    6.2122   -3.3189    0.6317 C   0  0  0  0  0  0  0  0  0  0  0  0
    5.6855   -2.2746    1.3508 C   0  0  0  0  0  0  0  0  0  0  0  0
    4.3105   -2.0167    1.2944 C   0  0  0  0  0  0  0  0  0  0  0  0
    2.5075   -0.5225   -0.6751 N   0  0  0  0  0  0  0  0  0  0  0  0
    2.2239    0.6546    0.0518 C   0  0  0  0  0  0  0  0  0  0  0  0
    1.1996    0.7972    0.7848 O   0  0  0  0  0  0  0  0  0  0  0  0
    3.1176    1.7911   -0.0073 C   0  0  0  0  0  0  0  0  0  0  0  0
    2.7155    3.0234    0.5333 C   0  0  0  0  0  0  0  0  0  0  0  0
    3.5191    4.1398    0.5223 C   0  0  0  0  0  0  0  0  0  0  0  0
    4.7712    4.0755   -0.0333 C   0  0  0  0  0  0  0  0  0  0  0  0
    5.2063    2.8730   -0.5787 C   0  0  0  0  0  0  0  0  0  0  0  0
    4.3878    1.7770   -0.5560 C   0  0  0  0  0  0  0  0  0  0  0  0
    6.5753    2.8873   -1.1557 C   0  0  0  0  0  0  0  0  0  0  0  0
    7.4991    2.7062   -0.1257 F   0  0  0  0  0  0  0  0  0  0  0  0
    6.7600    1.9660   -2.1575 F   0  0  0  0  0  0  0  0  0  0  0  0
    6.8537    4.1487   -1.6887 F   0  0  0  0  0  0  0  0  0  0  0  0
   -5.4693    1.9018    0.3435 C   0  0  0  0  0  0  0  0  0  0  0  0
   -5.3250    2.9672    1.1934 C   0  0  0  0  0  0  0  0  0  0  0  0
   -6.1862    3.2070    2.2497 C   0  0  0  0  0  0  0  0  0  0  0  0
   -7.2466    2.3548    2.4822 C   0  0  0  0  0  0  0  0  0  0  0  0
   -7.4119    1.2788    1.6380 C   0  0  0  0  0  0  0  0  0  0  0  0
   -6.5301    1.0582    0.5819 C   0  0  0  0  0  0  0  0  0  0  0  0
   -5.4456    1.3510   -2.6385 H   0  0  0  0  0  0  0  0  0  0  0  0
   -4.4418    2.9020   -2.5883 H   0  0  0  0  0  0  0  0  0  0  0  0
   -6.0251    2.7841   -1.7807 H   0  0  0  0  0  0  0  0  0  0  0  0
   -3.6057    2.3081   -0.5111 H   0  0  0  0  0  0  0  0  0  0  0  0
   -4.7464   -0.4048   -1.1745 H   0  0  0  0  0  0  0  0  0  0  0  0
   -2.6787   -1.8535   -1.6859 H   0  0  0  0  0  0  0  0  0  0  0  0
   -2.8984   -1.6977    1.3488 H   0  0  0  0  0  0  0  0  0  0  0  0
   -4.1799   -2.2020    0.1362 H   0  0  0  0  0  0  0  0  0  0  0  0
   -2.6651   -4.1641    1.2345 H   0  0  0  0  0  0  0  0  0  0  0  0
   -2.8467   -4.0739   -0.6123 H   0  0  0  0  0  0  0  0  0  0  0  0
   -0.5832   -3.9417   -0.4844 H   0  0  0  0  0  0  0  0  0  0  0  0
   -0.5679   -3.1338    1.1870 H   0  0  0  0  0  0  0  0  0  0  0  0
    1.8851   -2.2769   -1.6107 H   0  0  0  0  0  0  0  0  0  0  0  0
    1.7318   -2.1956    1.4820 H   0  0  0  0  0  0  0  0  0  0  0  0
    1.5254   -3.5743    0.3715 H   0  0  0  0  0  0  0  0  0  0  0  0
    3.3986   -4.4670   -0.7978 H   0  0  0  0  0  0  0  0  0  0  0  0
    5.8147   -4.9257   -0.7028 H   0  0  0  0  0  0  0  0  0  0  0  0
    7.2888   -3.5520    0.6524 H   0  0  0  0  0  0  0  0  0  0  0  0
    6.3601   -1.6811    1.9434 H   0  0  0  0  0  0  0  0  0  0  0  0
    3.9469   -1.1888    1.8818 H   0  0  0  0  0  0  0  0  0  0  0  0
    3.3579   -0.6263   -1.2552 H   0  0  0  0  0  0  0  0  0  0  0  0
    1.7289    3.0969    0.9800 H   0  0  0  0  0  0  0  0  0  0  0  0
    3.1864    5.0897    0.9503 H   0  0  0  0  0  0  0  0  0  0  0  0
    5.3936    4.9561   -0.0415 H   0  0  0  0  0  0  0  0  0  0  0  0
    4.7500    0.8442   -0.9882 H   0  0  0  0  0  0  0  0  0  0  0  0
   -4.5121    3.6669    1.0603 H   0  0  0  0  0  0  0  0  0  0  0  0
   -6.0788    4.0498    2.9270 H   0  0  0  0  0  0  0  0  0  0  0  0
   -7.9309    2.5398    3.3195 H   0  0  0  0  0  0  0  0  0  0  0  0
   -8.2573    0.6158    1.8324 H   0  0  0  0  0  0  0  0  0  0  0  0
   -6.6919    0.2057   -0.0645 H   0  0  0  0  0  0  0  0  0  0  0  0
  1  2  1  0
  2  3  1  0
  3  4  1  0
  4  5  2  0
  4  6  1  0
  6  7  1  0
  7  8  1  0
  8  9  1  0
  9 10  1  0
 10 11  1  0
 11 12  2  0
 11 13  1  0
 13 14  1  0
 14 15  1  0
 15 16  2  0
 16 17  1  0
 17 18  2  0
 18 19  1  0
 19 20  2  0
 13 21  1  0
 21 22  1  0
 22 23  2  0
 22 24  1  0
 24 25  2  0
 25 26  1  0
 26 27  2  0
 27 28  1  0
 28 29  2  0
 28 30  1  0
 30 31  1  0
 30 32  1  0
 30 33  1  0
  2 34  1  0
 34 35  2  0
 35 36  1  0
 36 37  2  0
 37 38  1  0
 38 39  2  0
 10  6  1  0
 20 15  1  0
 29 24  1  0
 39 34  1  0
  1 40  1  0
  1 41  1  0
  1 42  1  0
  2 43  1  1
  3 44  1  0
  6 45  1  6
  7 46  1  0
  7 47  1  0
  8 48  1  0
  8 49  1  0
  9 50  1  0
  9 51  1  0
 13 52  1  6
 14 53  1  0
 14 54  1  0
 16 55  1  0
 17 56  1  0
 18 57  1  0
 19 58  1  0
 20 59  1  0
 21 60  1  0
 25 61  1  0
 26 62  1  0
 27 63  1  0
 29 64  1  0
 35 65  1  0
 36 66  1  0
 37 67  1  0
 38 68  1  0
 39 69  1  0
M  END
$$$$
[H]c1nc(N([H])c2c([H])c([H])c(N3C([H])([H])C([H])([H])N(C([H])([H])[H])C([H])([H])C3([H])[H])c([H])c2OC([H])([H])[H])nc(N([H])c2c([H])c([H])c([H])c([H])c2P(=O)(C([H])([H])[H])C([H])([H])[H])c1Cl
     RDKit          3D

 64 67  0  0  0  0  0  0  0  0999 V2000
    2.2800    3.4701    0.7665 C   0  0  0  0  0  0  0  0  0  0  0  0
    1.5577    2.2913    0.5129 O   0  0  0  0  0  0  0  0  0  0  0  0
    2.1725    1.0943    0.2339 C   0  0  0  0  0  0  0  0  0  0  0  0
    3.5506    0.9866    0.1880 C   0  0  0  0  0  0  0  0  0  0  0  0
    4.1999   -0.1830   -0.0857 C   0  0  0  0  0  0  0  0  0  0  0  0
    3.3974   -1.2921   -0.3226 C   0  0  0  0  0  0  0  0  0  0  0  0
    2.0209   -1.2081   -0.2818 C   0  0  0  0  0  0  0  0  0  0  0  0
    1.3590   -0.0356   -0.0074 C   0  0  0  0  0  0  0  0  0  0  0  0
   -0.0231    0.1527    0.0572 N   0  0  0  0  0  0  0  0  0  0  0  0
   -1.0680   -0.7747   -0.1309 C   0  0  0  0  0  0  0  0  0  0  0  0
   -0.8307   -2.0604   -0.4194 N   0  0  0  0  0  0  0  0  0  0  0  0
   -1.7842   -2.9772   -0.6063 C   0  0  0  0  0  0  0  0  0  0  0  0
   -3.0850   -2.5425   -0.4882 C   0  0  0  0  0  0  0  0  0  0  0  0
   -4.3445   -3.7249   -0.7285 Cl  0  0  0  0  0  0  0  0  0  0  0  0
   -3.3767   -1.1861   -0.1832 C   0  0  0  0  0  0  0  0  0  0  0  0
   -4.7423   -0.8676   -0.0922 N   0  0  0  0  0  0  0  0  0  0  0  0
   -5.2920    0.3864    0.1967 C   0  0  0  0  0  0  0  0  0  0  0  0
   -4.5754    1.5391    0.4619 C   0  0  0  0  0  0  0  0  0  0  0  0
   -5.2354    2.7237    0.7376 C   0  0  0  0  0  0  0  0  0  0  0  0
   -6.5967    2.7981    0.7579 C   0  0  0  0  0  0  0  0  0  0  0  0
   -7.3102    1.6360    0.4906 C   0  0  0  0  0  0  0  0  0  0  0  0
   -6.7041    0.4401    0.2124 C   0  0  0  0  0  0  0  0  0  0  0  0
   -7.6931   -0.9659   -0.1146 P   0  0  0  0  0  0  0  0  0  0  0  0
   -7.5564   -1.6103   -1.7911 C   0  0  0  0  0  0  0  0  0  0  0  0
   -9.4546   -0.4824    0.1090 C   0  0  0  0  0  0  0  0  0  0  0  0
   -7.4625   -2.0853    0.8833 O   0  0  0  0  0  0  0  0  0  0  0  0
   -2.3664   -0.3649   -0.0184 N   0  0  0  0  0  0  0  0  0  0  0  0
    5.6073   -0.2586   -0.1368 N   0  0  0  0  0  0  0  0  0  0  0  0
    6.3360   -1.5100   -0.0530 C   0  0  0  0  0  0  0  0  0  0  0  0
    7.5581   -1.4473    0.8143 C   0  0  0  0  0  0  0  0  0  0  0  0
    8.1858   -0.1856    0.9365 N   0  0  0  0  0  0  0  0  0  0  0  0
    9.3364   -0.0009    0.0912 C   0  0  0  0  0  0  0  0  0  0  0  0
    7.3056    0.9586    0.9532 C   0  0  0  0  0  0  0  0  0  0  0  0
    6.4052    0.9271   -0.2958 C   0  0  0  0  0  0  0  0  0  0  0  0
    1.6124    4.3653    0.6843 H   0  0  0  0  0  0  0  0  0  0  0  0
    3.0707    3.6396   -0.0203 H   0  0  0  0  0  0  0  0  0  0  0  0
    2.7111    3.4928    1.7899 H   0  0  0  0  0  0  0  0  0  0  0  0
    4.0898    1.9139    0.3958 H   0  0  0  0  0  0  0  0  0  0  0  0
    3.9090   -2.2199   -0.5432 H   0  0  0  0  0  0  0  0  0  0  0  0
    1.4693   -2.0992   -0.4736 H   0  0  0  0  0  0  0  0  0  0  0  0
   -0.3647    1.1422    0.2817 H   0  0  0  0  0  0  0  0  0  0  0  0
   -1.5635   -4.0229   -0.8415 H   0  0  0  0  0  0  0  0  0  0  0  0
   -5.4065   -1.6616   -0.2596 H   0  0  0  0  0  0  0  0  0  0  0  0
   -3.4974    1.5258    0.4575 H   0  0  0  0  0  0  0  0  0  0  0  0
   -4.6497    3.5989    0.9382 H   0  0  0  0  0  0  0  0  0  0  0  0
   -7.0915    3.7321    0.9752 H   0  0  0  0  0  0  0  0  0  0  0  0
   -8.3788    1.7170    0.5121 H   0  0  0  0  0  0  0  0  0  0  0  0
   -8.3509   -1.1358   -2.4020 H   0  0  0  0  0  0  0  0  0  0  0  0
   -7.7327   -2.7059   -1.8413 H   0  0  0  0  0  0  0  0  0  0  0  0
   -6.6070   -1.3168   -2.2863 H   0  0  0  0  0  0  0  0  0  0  0  0
   -9.6197    0.4419   -0.4817 H   0  0  0  0  0  0  0  0  0  0  0  0
   -9.6297   -0.2236    1.1686 H   0  0  0  0  0  0  0  0  0  0  0  0
  -10.1282   -1.3044   -0.1549 H   0  0  0  0  0  0  0  0  0  0  0  0
    6.5261   -1.9176   -1.0655 H   0  0  0  0  0  0  0  0  0  0  0  0
    5.6507   -2.2547    0.4501 H   0  0  0  0  0  0  0  0  0  0  0  0
    7.3731   -1.8807    1.8387 H   0  0  0  0  0  0  0  0  0  0  0  0
    8.3102   -2.1621    0.3667 H   0  0  0  0  0  0  0  0  0  0  0  0
    9.1322    0.6630   -0.7851 H   0  0  0  0  0  0  0  0  0  0  0  0
   10.1067    0.5186    0.6979 H   0  0  0  0  0  0  0  0  0  0  0  0
    9.7163   -0.9548   -0.3318 H   0  0  0  0  0  0  0  0  0  0  0  0
    7.9221    1.8660    0.9318 H   0  0  0  0  0  0  0  0  0  0  0  0
    6.6623    0.9600    1.8444 H   0  0  0  0  0  0  0  0  0  0  0  0
    7.1085    0.7755   -1.1661 H   0  0  0  0  0  0  0  0  0  0  0  0
    5.8785    1.8666   -0.3743 H   0  0  0  0  0  0  0  0  0  0  0  0
  1  2  1  0
  2  3  1  0
  3  4  2  0
  4  5  1  0
  5  6  2  0
  6  7  1  0
  7  8  2  0
  8  9  1  0
  9 10  1  0
 10 11  2  0
 11 12  1  0
 12 13  2  0
 13 14  1  0
 13 15  1  0
 15 16  1  0
 16 17  1  0
 17 18  2  0
 18 19  1  0
 19 20  2  0
 20 21  1  0
 21 22  2  0
 22 23  1  0
 23 24  1  0
 23 25  1  0
 23 26  2  0
 15 27  2  0
  5 28  1  0
 28 29  1  0
 29 30  1  0
 30 31  1  0
 31 32  1  0
 31 33  1  0
 33 34  1  0
  8  3  1  0
 27 10  1  0
 34 28  1  0
 22 17  1  0
  1 35  1  0
  1 36  1  0
  1 37  1  0
  4 38  1  0
  6 39  1  0
  7 40  1  0
  9 41  1  0
 12 42  1  0
 16 43  1  0
 18 44  1  0
 19 45  1  0
 20 46  1  0
 21 47  1  0
 24 48  1  0
 24 49  1  0
 24 50  1  0
 25 51  1  0
 25 52  1  0
 25 53  1  0
 29 54  1  0
 29 55  1  0
 30 56  1  0
 30 57  1  0
 32 58  1  0
 32 59  1  0
 32 60  1  0
 33 61  1  0
 33 62  1  0
 34 63  1  0
 34 64  1  0
M  END
$$$$
[H]Oc1c([H])c([H])c(C([H])([H])[C@@]([H])(C(=O)N2C([H])([H])C([H])([H])C([H])([H])[C@@]2([H])C(=O)N([H])[C@]([H])(C(=O)N([H])[C@]([H])(C([H])(C([H])([H])[H])C([H])([H])[H])C(C([H])([H])[H])(C([H])([H])[H])C([H])([H])[H])C([H])([H])c2c([H])c([H])c(O[H])c([H])c2[H])N([H])[H])c([H])c1[H]
     RDKit          3D

 84 86  0  0  0  0  0  0  0  0999 V2000
   -5.1589    2.1103   -0.9020 C   0  0  0  0  0  0  0  0  0  0  0  0
   -5.6422    1.5158    0.4378 C   0  0  0  0  0  0  0  0  0  0  0  0
   -7.0396    0.9794    0.0668 C   0  0  0  0  0  0  0  0  0  0  0  0
   -4.7206    0.4035    0.8546 C   0  0  1  0  0  0  0  0  0  0  0  0
   -3.3832    0.9875    0.9339 N   0  0  0  0  0  0  0  0  0  0  0  0
   -2.2062    0.3999    0.4304 C   0  0  0  0  0  0  0  0  0  0  0  0
   -2.2409   -0.6983   -0.1333 O   0  0  0  0  0  0  0  0  0  0  0  0
   -0.9218    1.1194    0.5925 C   0  0  2  0  0  0  0  0  0  0  0  0
   -0.6058    1.9756   -0.6011 C   0  0  0  0  0  0  0  0  0  0  0  0
   -0.4605    1.2600   -1.8685 C   0  0  0  0  0  0  0  0  0  0  0  0
   -1.5793    1.0571   -2.6661 C   0  0  0  0  0  0  0  0  0  0  0  0
   -1.5338    0.4040   -3.8784 C   0  0  0  0  0  0  0  0  0  0  0  0
   -0.3431   -0.0847   -4.3557 C   0  0  0  0  0  0  0  0  0  0  0  0
   -0.2270   -0.7519   -5.5686 O   0  0  0  0  0  0  0  0  0  0  0  0
    0.7897    0.1138   -3.5618 C   0  0  0  0  0  0  0  0  0  0  0  0
    0.7507    0.7634   -2.3538 C   0  0  0  0  0  0  0  0  0  0  0  0
    0.1720    0.2029    0.8948 N   0  0  0  0  0  0  0  0  0  0  0  0
    0.6332   -0.0036    2.2086 C   0  0  0  0  0  0  0  0  0  0  0  0
    0.0255    0.6476    3.1334 O   0  0  0  0  0  0  0  0  0  0  0  0
    1.7266   -0.8759    2.6495 C   0  0  2  0  0  0  0  0  0  0  0  0
    2.4061   -0.2519    3.8513 C   0  0  0  0  0  0  0  0  0  0  0  0
    3.6405    0.4425    3.3611 C   0  0  0  0  0  0  0  0  0  0  0  0
    3.6369    0.2091    1.8728 C   0  0  0  0  0  0  0  0  0  0  0  0
    2.8108   -1.0118    1.6950 N   0  0  0  0  0  0  0  0  0  0  0  0
    3.1329   -2.0274    0.7858 C   0  0  0  0  0  0  0  0  0  0  0  0
    2.4166   -3.0753    0.6998 O   0  0  0  0  0  0  0  0  0  0  0  0
    4.3148   -1.9578   -0.1280 C   0  0  1  0  0  0  0  0  0  0  0  0
    4.5046   -3.1909   -0.8250 N   0  0  0  0  0  0  0  0  0  0  0  0
    4.1199   -0.8495   -1.1514 C   0  0  0  0  0  0  0  0  0  0  0  0
    5.2583   -0.7110   -2.0817 C   0  0  0  0  0  0  0  0  0  0  0  0
    5.3301   -1.4044   -3.2828 C   0  0  0  0  0  0  0  0  0  0  0  0
    6.3819   -1.2431   -4.1482 C   0  0  0  0  0  0  0  0  0  0  0  0
    7.3991   -0.3837   -3.8434 C   0  0  0  0  0  0  0  0  0  0  0  0
    8.4731   -0.2144   -4.7236 O   0  0  0  0  0  0  0  0  0  0  0  0
    7.3838    0.3304   -2.6664 C   0  0  0  0  0  0  0  0  0  0  0  0
    6.3215    0.1548   -1.8131 C   0  0  0  0  0  0  0  0  0  0  0  0
   -5.0662   -0.1566    2.2373 C   0  0  0  0  0  0  0  0  0  0  0  0
   -5.0006    0.9062    3.3133 C   0  0  0  0  0  0  0  0  0  0  0  0
   -4.0371   -1.2580    2.5316 C   0  0  0  0  0  0  0  0  0  0  0  0
   -6.4027   -0.8166    2.2947 C   0  0  0  0  0  0  0  0  0  0  0  0
   -5.4227    1.4242   -1.7308 H   0  0  0  0  0  0  0  0  0  0  0  0
   -4.1146    2.3985   -0.8546 H   0  0  0  0  0  0  0  0  0  0  0  0
   -5.7529    3.0274   -1.0555 H   0  0  0  0  0  0  0  0  0  0  0  0
   -5.7260    2.3523    1.1326 H   0  0  0  0  0  0  0  0  0  0  0  0
   -6.9366    0.0232   -0.4700 H   0  0  0  0  0  0  0  0  0  0  0  0
   -7.7433    1.0073    0.8992 H   0  0  0  0  0  0  0  0  0  0  0  0
   -7.4932    1.6746   -0.7080 H   0  0  0  0  0  0  0  0  0  0  0  0
   -4.8118   -0.4343    0.1693 H   0  0  0  0  0  0  0  0  0  0  0  0
   -3.3224    1.9149    1.3966 H   0  0  0  0  0  0  0  0  0  0  0  0
   -1.0382    1.7520    1.4991 H   0  0  0  0  0  0  0  0  0  0  0  0
    0.2769    2.6094   -0.4380 H   0  0  0  0  0  0  0  0  0  0  0  0
   -1.4891    2.6841   -0.6875 H   0  0  0  0  0  0  0  0  0  0  0  0
   -2.5571    1.4117   -2.3703 H   0  0  0  0  0  0  0  0  0  0  0  0
   -2.4252    0.2704   -4.4620 H   0  0  0  0  0  0  0  0  0  0  0  0
   -0.3207   -1.7520   -5.6824 H   0  0  0  0  0  0  0  0  0  0  0  0
    1.7313   -0.2701   -3.9365 H   0  0  0  0  0  0  0  0  0  0  0  0
    1.5952    0.9349   -1.7209 H   0  0  0  0  0  0  0  0  0  0  0  0
    0.6173   -0.3176    0.1151 H   0  0  0  0  0  0  0  0  0  0  0  0
    1.2947   -1.8739    2.9014 H   0  0  0  0  0  0  0  0  0  0  0  0
    1.7136    0.5114    4.2691 H   0  0  0  0  0  0  0  0  0  0  0  0
    2.6302   -1.0148    4.6314 H   0  0  0  0  0  0  0  0  0  0  0  0
    4.5574    0.0402    3.8495 H   0  0  0  0  0  0  0  0  0  0  0  0
    3.5478    1.5435    3.5376 H   0  0  0  0  0  0  0  0  0  0  0  0
    3.1636    1.0553    1.3610 H   0  0  0  0  0  0  0  0  0  0  0  0
    4.6897    0.0135    1.5718 H   0  0  0  0  0  0  0  0  0  0  0  0
    5.2332   -1.7198    0.4414 H   0  0  0  0  0  0  0  0  0  0  0  0
    3.8881   -3.3882   -1.6100 H   0  0  0  0  0  0  0  0  0  0  0  0
    4.8359   -3.9604   -0.2432 H   0  0  0  0  0  0  0  0  0  0  0  0
    3.9481    0.1301   -0.6944 H   0  0  0  0  0  0  0  0  0  0  0  0
    3.2146   -1.0528   -1.7728 H   0  0  0  0  0  0  0  0  0  0  0  0
    4.5470   -2.0829   -3.5431 H   0  0  0  0  0  0  0  0  0  0  0  0
    6.4630   -1.7746   -5.1072 H   0  0  0  0  0  0  0  0  0  0  0  0
    8.3434    0.5317   -5.4186 H   0  0  0  0  0  0  0  0  0  0  0  0
    8.1879    0.9904   -2.4601 H   0  0  0  0  0  0  0  0  0  0  0  0
    6.2877    0.7007   -0.8886 H   0  0  0  0  0  0  0  0  0  0  0  0
   -4.4968    0.4930    4.2192 H   0  0  0  0  0  0  0  0  0  0  0  0
   -6.0448    1.1589    3.6421 H   0  0  0  0  0  0  0  0  0  0  0  0
   -4.4519    1.8010    3.0358 H   0  0  0  0  0  0  0  0  0  0  0  0
   -3.0791   -0.8068    2.7866 H   0  0  0  0  0  0  0  0  0  0  0  0
   -4.0260   -1.9893    1.7048 H   0  0  0  0  0  0  0  0  0  0  0  0
   -4.3706   -1.8560    3.4317 H   0  0  0  0  0  0  0  0  0  0  0  0
   -7.1734   -0.1831    2.7982 H   0  0  0  0  0  0  0  0  0  0  0  0
   -6.2982   -1.6783    3.0523 H   0  0  0  0  0  0  0  0  0  0  0  0
   -6.7314   -1.3165    1.3881 H   0  0  0  0  0  0  0  0  0  0  0  0
  1  2  1  0
  2  3  1  0
  2  4  1  0
  4  5  1  0
  5  6  1  0
  6  7  2  0
  6  8  1  0
  8  9  1  0
  9 10  1  0
 10 11  2  0
 11 12  1  0
 12 13  2  0
 13 14  1  0
 13 15  1  0
 15 16  2  0
  8 17  1  0
 17 18  1  0
 18 19  2  0
 18 20  1  0
 20 21  1  0
 21 22  1  0
 22 23  1  0
 23 24  1  0
 24 25  1  0
 25 26  2  0
 25 27  1  0
 27 28  1  0
 27 29  1  0
 29 30  1  0
 30 31  2  0
 31 32  1  0
 32 33  2  0
 33 34  1  0
 33 35  1  0
 35 36  2  0
  4 37  1  0
 37 38  1  0
 37 39  1  0
 37 40  1  0
 16 10  1  0
 24 20  1  0
 36 30  1  0
  1 41  1  0
  1 42  1  0
  1 43  1  0
  2 44  1  0
  3 45  1  0
  3 46  1  0
  3 47  1  0
  4 48  1  6
  5 49  1  0
  8 50  1  1
  9 51  1  0
  9 52  1  0
 11 53  1  0
 12 54  1  0
 14 55  1  0
 15 56  1  0
 16 57  1  0
 17 58  1  0
 20 59  1  1
 21 60  1  0
 21 61  1  0
 22 62  1  0
 22 63  1  0
 23 64  1  0
 23 65  1  0
 27 66  1  1
 28 67  1  0
 28 68  1  0
 29 69  1  0
 29 70  1  0
 31 71  1  0
 32 72  1  0
 34 73  1  0
 35 74  1  0
 36 75  1  0
 38 76  1  0
 38 77  1  0
 38 78  1  0
 39 79  1  0
 39 80  1  0
 39 81  1  0
 40 82  1  0
 40 83  1  0
 40 84  1  0
M  END
$$$$
[H]Oc1c([H])c([H])c(C([H])([H])[C@@]([H])(C(=O)N([H])[C@]([H])(C(=O)N([H])[H])C([H])([H])c2c([H])c([H])c([H])c([H])c2[H])N([H])C(=O)[C@@]([H])(N([H])C(=O)[C@@]([H])(N([H])[H])C([H])([H])C([H])(C([H])([H])[H])C([H])([H])[H])C([H])([H])c2c([H])c([H])c(O[H])c([H])c2[H])c([H])c1[H]
     RDKit          3D

 85 87  0  0  0  0  0  0  0  0999 V2000
    6.9376   -3.5321   -1.5437 C   0  0  0  0  0  0  0  0  0  0  0  0
    7.0013   -2.3092   -0.6496 C   0  0  0  0  0  0  0  0  0  0  0  0
    7.7152   -1.1521   -1.3478 C   0  0  0  0  0  0  0  0  0  0  0  0
    5.6743   -1.9362   -0.0899 C   0  0  0  0  0  0  0  0  0  0  0  0
    4.6388   -1.5995   -1.1494 C   0  0  2  0  0  0  0  0  0  0  0  0
    5.1398   -0.4638   -1.9125 N   0  0  0  0  0  0  0  0  0  0  0  0
    3.3127   -1.3794   -0.5794 C   0  0  0  0  0  0  0  0  0  0  0  0
    2.5788   -2.3594   -0.3133 O   0  0  0  0  0  0  0  0  0  0  0  0
    2.7935   -0.0852   -0.2990 N   0  0  0  0  0  0  0  0  0  0  0  0
    1.4822    0.1086    0.2431 C   0  0  1  0  0  0  0  0  0  0  0  0
    1.5568    0.2239    1.7754 C   0  0  0  0  0  0  0  0  0  0  0  0
    2.3982    1.3639    2.1922 C   0  0  0  0  0  0  0  0  0  0  0  0
    1.8879    2.6330    2.4448 C   0  0  0  0  0  0  0  0  0  0  0  0
    2.7121    3.6612    2.8204 C   0  0  0  0  0  0  0  0  0  0  0  0
    4.0538    3.4233    2.9456 C   0  0  0  0  0  0  0  0  0  0  0  0
    4.9644    4.4200    3.3231 O   0  0  0  0  0  0  0  0  0  0  0  0
    4.5810    2.1744    2.7003 C   0  0  0  0  0  0  0  0  0  0  0  0
    3.7630    1.1592    2.3294 C   0  0  0  0  0  0  0  0  0  0  0  0
    0.9545    1.4516   -0.2028 C   0  0  0  0  0  0  0  0  0  0  0  0
    1.8563    2.2498   -0.5584 O   0  0  0  0  0  0  0  0  0  0  0  0
   -0.3836    1.7089   -0.1870 N   0  0  0  0  0  0  0  0  0  0  0  0
   -1.7205    1.9678   -0.1718 C   0  0  1  0  0  0  0  0  0  0  0  0
   -2.2067    2.5942   -1.4693 C   0  0  0  0  0  0  0  0  0  0  0  0
   -1.9650    1.8472   -2.6832 C   0  0  0  0  0  0  0  0  0  0  0  0
   -0.7347    1.9524   -3.3372 C   0  0  0  0  0  0  0  0  0  0  0  0
   -0.4722    1.3067   -4.5276 C   0  0  0  0  0  0  0  0  0  0  0  0
   -1.4494    0.5218   -5.1127 C   0  0  0  0  0  0  0  0  0  0  0  0
   -1.1775   -0.1299   -6.3247 O   0  0  0  0  0  0  0  0  0  0  0  0
   -2.6567    0.4065   -4.4894 C   0  0  0  0  0  0  0  0  0  0  0  0
   -2.9048    1.0660   -3.2875 C   0  0  0  0  0  0  0  0  0  0  0  0
   -2.4879    0.8343    0.3337 C   0  0  0  0  0  0  0  0  0  0  0  0
   -1.9100   -0.1924    0.8418 O   0  0  0  0  0  0  0  0  0  0  0  0
   -3.8995    0.7775    0.3072 N   0  0  0  0  0  0  0  0  0  0  0  0
   -4.5796   -0.3962    0.8889 C   0  0  1  0  0  0  0  0  0  0  0  0
   -5.7473    0.1465    1.6413 C   0  0  0  0  0  0  0  0  0  0  0  0
   -6.6051   -0.8128    2.3189 C   0  0  0  0  0  0  0  0  0  0  0  0
   -6.3477   -1.2366    3.5923 C   0  0  0  0  0  0  0  0  0  0  0  0
   -7.1618   -2.1194    4.2377 C   0  0  0  0  0  0  0  0  0  0  0  0
   -8.2664   -2.5923    3.5926 C   0  0  0  0  0  0  0  0  0  0  0  0
   -8.5604   -2.1880    2.3052 C   0  0  0  0  0  0  0  0  0  0  0  0
   -7.7329   -1.3091    1.6870 C   0  0  0  0  0  0  0  0  0  0  0  0
   -4.9249   -1.4107   -0.0996 C   0  0  0  0  0  0  0  0  0  0  0  0
   -5.3888   -2.7155    0.2794 N   0  0  0  0  0  0  0  0  0  0  0  0
   -4.8328   -1.2113   -1.3338 O   0  0  0  0  0  0  0  0  0  0  0  0
    7.9366   -4.0392   -1.5973 H   0  0  0  0  0  0  0  0  0  0  0  0
    6.2170   -4.2714   -1.1750 H   0  0  0  0  0  0  0  0  0  0  0  0
    6.7064   -3.2635   -2.6053 H   0  0  0  0  0  0  0  0  0  0  0  0
    7.6600   -2.5821    0.2015 H   0  0  0  0  0  0  0  0  0  0  0  0
    7.5671   -1.1496   -2.4259 H   0  0  0  0  0  0  0  0  0  0  0  0
    8.8337   -1.2671   -1.2132 H   0  0  0  0  0  0  0  0  0  0  0  0
    7.4586   -0.2262   -0.8225 H   0  0  0  0  0  0  0  0  0  0  0  0
    5.8552   -1.0414    0.5777 H   0  0  0  0  0  0  0  0  0  0  0  0
    5.2902   -2.7272    0.5777 H   0  0  0  0  0  0  0  0  0  0  0  0
    4.6795   -2.4801   -1.8601 H   0  0  0  0  0  0  0  0  0  0  0  0
    4.5147   -0.3923   -2.7592 H   0  0  0  0  0  0  0  0  0  0  0  0
    5.1614    0.3900   -1.3412 H   0  0  0  0  0  0  0  0  0  0  0  0
    3.3643    0.7721   -0.4780 H   0  0  0  0  0  0  0  0  0  0  0  0
    0.8148   -0.6917   -0.0119 H   0  0  0  0  0  0  0  0  0  0  0  0
    1.8311   -0.7152    2.2597 H   0  0  0  0  0  0  0  0  0  0  0  0
    0.5285    0.4624    2.1095 H   0  0  0  0  0  0  0  0  0  0  0  0
    0.8205    2.8288    2.3494 H   0  0  0  0  0  0  0  0  0  0  0  0
    2.3313    4.6420    3.0196 H   0  0  0  0  0  0  0  0  0  0  0  0
    5.3548    4.9344    2.5179 H   0  0  0  0  0  0  0  0  0  0  0  0
    5.6382    1.9419    2.7865 H   0  0  0  0  0  0  0  0  0  0  0  0
    4.1385    0.1719    2.1307 H   0  0  0  0  0  0  0  0  0  0  0  0
   -0.1602    3.0252   -0.5503 H   0  0  0  0  0  0  0  0  0  0  0  0
   -1.9550    2.8756    0.5556 H   0  0  0  0  0  0  0  0  0  0  0  0
   -1.6931    3.6120   -1.4956 H   0  0  0  0  0  0  0  0  0  0  0  0
   -3.2944    2.8742   -1.3648 H   0  0  0  0  0  0  0  0  0  0  0  0
    0.0375    2.5595   -2.9176 H   0  0  0  0  0  0  0  0  0  0  0  0
    0.4775    1.3930   -5.0254 H   0  0  0  0  0  0  0  0  0  0  0  0
   -0.7862   -1.0518   -6.3731 H   0  0  0  0  0  0  0  0  0  0  0  0
   -3.4167   -0.2156   -4.9641 H   0  0  0  0  0  0  0  0  0  0  0  0
   -3.8954    0.9296   -2.8687 H   0  0  0  0  0  0  0  0  0  0  0  0
   -4.5149    1.5028   -0.0947 H   0  0  0  0  0  0  0  0  0  0  0  0
   -3.8657   -0.8711    1.6151 H   0  0  0  0  0  0  0  0  0  0  0  0
   -5.3430    0.8358    2.4431 H   0  0  0  0  0  0  0  0  0  0  0  0
   -6.3736    0.8294    0.9877 H   0  0  0  0  0  0  0  0  0  0  0  0
   -5.4669   -0.8499    4.1022 H   0  0  0  0  0  0  0  0  0  0  0  0
   -6.9052   -2.4191    5.2481 H   0  0  0  0  0  0  0  0  0  0  0  0
   -8.9244   -3.2884    4.0779 H   0  0  0  0  0  0  0  0  0  0  0  0
   -9.4356   -2.5479    1.7665 H   0  0  0  0  0  0  0  0  0  0  0  0
   -7.9428   -0.9794    0.6779 H   0  0  0  0  0  0  0  0  0  0  0  0
   -5.9888   -3.2600   -0.3800 H   0  0  0  0  0  0  0  0  0  0  0  0
   -5.1416   -3.1179    1.1892 H   0  0  0  0  0  0  0  0  0  0  0  0
  1  2  1  0
  2  3  1  0
  2  4  1  0
  4  5  1  0
  5  6  1  0
  5  7  1  0
  7  8  2  0
  7  9  1  0
  9 10  1  0
 10 11  1  0
 11 12  1  0
 12 13  2  0
 13 14  1  0
 14 15  2  0
 15 16  1  0
 15 17  1  0
 17 18  2  0
 10 19  1  0
 19 20  2  0
 19 21  1  0
 21 22  1  0
 22 23  1  0
 23 24  1  0
 24 25  2  0
 25 26  1  0
 26 27  2  0
 27 28  1  0
 27 29  1  0
 29 30  2  0
 22 31  1  0
 31 32  2  0
 31 33  1  0
 33 34  1  0
 34 35  1  0
 35 36  1  0
 36 37  2  0
 37 38  1  0
 38 39  2  0
 39 40  1  0
 40 41  2  0
 34 42  1  0
 42 43  1  0
 42 44  2  0
 18 12  1  0
 30 24  1  0
 41 36  1  0
  1 45  1  0
  1 46  1  0
  1 47  1  0
  2 48  1  0
  3 49  1  0
  3 50  1  0
  3 51  1  0
  4 52  1  0
  4 53  1  0
  5 54  1  6
  6 55  1  0
  6 56  1  0
  9 57  1  0
 10 58  1  1
 11 59  1  0
 11 60  1  0
 13 61  1  0
 14 62  1  0
 16 63  1  0
 17 64  1  0
 18 65  1  0
 21 66  1  0
 22 67  1  1
 23 68  1  0
 23 69  1  0
 25 70  1  0
 26 71  1  0
 28 72  1  0
 29 73  1  0
 30 74  1  0
 33 75  1  0
 34 76  1  1
 35 77  1  0
 35 78  1  0
 37 79  1  0
 38 80  1  0
 39 81  1  0
 40 82  1  0
 41 83  1  0
 43 84  1  0
 43 85  1  0
M  END
$$$$
[H]O[C@]1([H])C([H])([H])C([H])([H])[C@@]([H])(N([H])C(=O)[C@@]([H])(N([H])C(=O)c2c([H])c([H])c(-c3nc(C(F)(F)F)c([H])n3[H])c([H])c2[H])C([H])([H])C([H])(C([H])([H])[H])C([H])([H])[H])C1([H])[H]
     RDKit          3D

 59 61  0  0  0  0  0  0  0  0999 V2000
   -2.7373   -4.1810    1.5591 C   0  0  0  0  0  0  0  0  0  0  0  0
   -2.8433   -2.9904    0.5684 C   0  0  0  0  0  0  0  0  0  0  0  0
   -3.0882   -3.5841   -0.8273 C   0  0  0  0  0  0  0  0  0  0  0  0
   -1.5494   -2.2872    0.6333 C   0  0  0  0  0  0  0  0  0  0  0  0
   -1.3626   -1.1043   -0.2523 C   0  0  2  0  0  0  0  0  0  0  0  0
    0.0431   -0.6144   -0.0507 N   0  0  0  0  0  0  0  0  0  0  0  0
    1.0357   -0.8560   -1.0192 C   0  0  0  0  0  0  0  0  0  0  0  0
    0.7797   -1.5013   -2.0686 O   0  0  0  0  0  0  0  0  0  0  0  0
    2.3662   -0.3619   -0.8114 C   0  0  0  0  0  0  0  0  0  0  0  0
    3.4463   -0.8807   -1.4791 C   0  0  0  0  0  0  0  0  0  0  0  0
    4.7263   -0.3808   -1.2673 C   0  0  0  0  0  0  0  0  0  0  0  0
    4.9657    0.6525   -0.3898 C   0  0  0  0  0  0  0  0  0  0  0  0
    3.8770    1.1691    0.2679 C   0  0  0  0  0  0  0  0  0  0  0  0
    2.5897    0.6702    0.0658 C   0  0  0  0  0  0  0  0  0  0  0  0
    6.3125    1.1728   -0.1273 C   0  0  0  0  0  0  0  0  0  0  0  0
    7.4723    0.6595   -0.5607 N   0  0  0  0  0  0  0  0  0  0  0  0
    8.4885    1.3785   -0.0637 C   0  0  0  0  0  0  0  0  0  0  0  0
    7.9440    2.3898    0.7095 C   0  0  0  0  0  0  0  0  0  0  0  0
    6.6109    2.2180    0.6363 N   0  0  0  0  0  0  0  0  0  0  0  0
    9.9362    1.1315   -0.2641 C   0  0  0  0  0  0  0  0  0  0  0  0
   10.6797    2.1426    0.3198 F   0  0  0  0  0  0  0  0  0  0  0  0
   10.2337   -0.0224    0.4596 F   0  0  0  0  0  0  0  0  0  0  0  0
   10.2687    0.9630   -1.5571 F   0  0  0  0  0  0  0  0  0  0  0  0
   -2.2075    0.0702   -0.1437 C   0  0  0  0  0  0  0  0  0  0  0  0
   -1.5571    1.2239   -0.0731 O   0  0  0  0  0  0  0  0  0  0  0  0
   -3.6039    0.1191   -0.1064 N   0  0  0  0  0  0  0  0  0  0  0  0
   -4.3158    1.4044   -0.0035 C   0  0  1  0  0  0  0  0  0  0  0  0
   -5.3708    1.4638   -1.0640 C   0  0  0  0  0  0  0  0  0  0  0  0
   -6.2881    2.5287   -0.4720 C   0  0  2  0  0  0  0  0  0  0  0  0
   -5.6656    3.7633   -0.4902 O   0  0  0  0  0  0  0  0  0  0  0  0
   -6.4755    2.0100    0.9353 C   0  0  0  0  0  0  0  0  0  0  0  0
   -5.0390    1.5877    1.2900 C   0  0  0  0  0  0  0  0  0  0  0  0
   -2.2898   -3.8340    2.4944 H   0  0  0  0  0  0  0  0  0  0  0  0
   -2.0564   -4.9188    1.1244 H   0  0  0  0  0  0  0  0  0  0  0  0
   -3.7333   -4.5926    1.7370 H   0  0  0  0  0  0  0  0  0  0  0  0
   -3.7477   -2.4792    0.8820 H   0  0  0  0  0  0  0  0  0  0  0  0
   -3.6896   -4.4747   -0.7041 H   0  0  0  0  0  0  0  0  0  0  0  0
   -3.6220   -2.8601   -1.4969 H   0  0  0  0  0  0  0  0  0  0  0  0
   -2.0935   -3.7747   -1.2998 H   0  0  0  0  0  0  0  0  0  0  0  0
   -1.2701   -2.0363    1.7089 H   0  0  0  0  0  0  0  0  0  0  0  0
   -0.7730   -3.0562    0.3037 H   0  0  0  0  0  0  0  0  0  0  0  0
   -1.3375   -1.5184   -1.3007 H   0  0  0  0  0  0  0  0  0  0  0  0
    0.2698   -0.0950    0.8340 H   0  0  0  0  0  0  0  0  0  0  0  0
    3.3655   -1.6971   -2.1979 H   0  0  0  0  0  0  0  0  0  0  0  0
    5.5717   -0.7919   -1.7863 H   0  0  0  0  0  0  0  0  0  0  0  0
    4.0278    1.9728    0.9620 H   0  0  0  0  0  0  0  0  0  0  0  0
    1.7776    1.1183    0.6402 H   0  0  0  0  0  0  0  0  0  0  0  0
    8.5056    3.1613    1.2552 H   0  0  0  0  0  0  0  0  0  0  0  0
    5.8859    2.7963    1.0983 H   0  0  0  0  0  0  0  0  0  0  0  0
   -4.2123   -0.7039   -0.1559 H   0  0  0  0  0  0  0  0  0  0  0  0
   -3.5787    2.2363   -0.1304 H   0  0  0  0  0  0  0  0  0  0  0  0
   -4.9917    1.7567   -2.0565 H   0  0  0  0  0  0  0  0  0  0  0  0
   -5.9880    0.5165   -1.0802 H   0  0  0  0  0  0  0  0  0  0  0  0
   -7.2161    2.5114   -1.0587 H   0  0  0  0  0  0  0  0  0  0  0  0
   -4.8792    3.6827   -1.0890 H   0  0  0  0  0  0  0  0  0  0  0  0
   -7.1155    1.1259    0.8754 H   0  0  0  0  0  0  0  0  0  0  0  0
   -6.8667    2.7810    1.6163 H   0  0  0  0  0  0  0  0  0  0  0  0
   -4.6228    2.4793    1.8291 H   0  0  0  0  0  0  0  0  0  0  0  0
   -4.9918    0.7404    1.9684 H   0  0  0  0  0  0  0  0  0  0  0  0
  1  2  1  0
  2  3  1  0
  2  4  1  0
  4  5  1  0
  5  6  1  0
  6  7  1  0
  7  8  2  0
  7  9  1  0
  9 10  2  0
 10 11  1  0
 11 12  2  0
 12 13  1  0
 13 14  2  0
 12 15  1  0
 15 16  2  0
 16 17  1  0
 17 18  2  0
 18 19  1  0
 17 20  1  0
 20 21  1  0
 20 22  1  0
 20 23  1  0
  5 24  1  0
 24 25  2  0
 24 26  1  0
 26 27  1  0
 27 28  1  0
 28 29  1  0
 29 30  1  0
 29 31  1  0
 31 32  1  0
 14  9  1  0
 19 15  1  0
 32 27  1  0
  1 33  1  0
  1 34  1  0
  1 35  1  0
  2 36  1  0
  3 37  1  0
  3 38  1  0
  3 39  1  0
  4 40  1  0
  4 41  1  0
  5 42  1  6
  6 43  1  0
 10 44  1  0
 11 45  1  0
 13 46  1  0
 14 47  1  0
 18 48  1  0
 19 49  1  0
 26 50  1  0
 27 51  1  6
 28 52  1  0
 28 53  1  0
 29 54  1  6
 30 55  1  0
 31 56  1  0
 31 57  1  0
 32 58  1  0
 32 59  1  0
M  END
$$$$
[H]c1c([H])c(C#N)c([H])c(N2C([H])([H])C([H])([H])N(S(=O)(=O)c3c([H])c([H])c(C(F)(F)F)c([H])c3[H])C([H])([H])C2([H])[H])c1[H]
     RDKit          3D

 43 45  0  0  0  0  0  0  0  0999 V2000
    7.7538   -0.4306    0.4831 F   0  0  0  0  0  0  0  0  0  0  0  0
    6.7152   -0.6254    1.3714 C   0  0  0  0  0  0  0  0  0  0  0  0
    6.7754    0.3289    2.3438 F   0  0  0  0  0  0  0  0  0  0  0  0
    6.8171   -1.9108    1.8895 F   0  0  0  0  0  0  0  0  0  0  0  0
    5.4308   -0.5542    0.6029 C   0  0  0  0  0  0  0  0  0  0  0  0
    4.5375   -1.6257    0.5885 C   0  0  0  0  0  0  0  0  0  0  0  0
    3.3525   -1.5228   -0.1328 C   0  0  0  0  0  0  0  0  0  0  0  0
    3.0432   -0.3916   -0.8293 C   0  0  0  0  0  0  0  0  0  0  0  0
    3.9177    0.6640   -0.8187 C   0  0  0  0  0  0  0  0  0  0  0  0
    5.1190    0.5857   -0.0999 C   0  0  0  0  0  0  0  0  0  0  0  0
    1.5596   -0.2598   -1.7281 S   0  0  0  0  0  0  0  0  0  0  0  0
    1.1637   -1.6034   -2.2796 O   0  0  0  0  0  0  0  0  0  0  0  0
    1.7776    0.6277   -2.9473 O   0  0  0  0  0  0  0  0  0  0  0  0
    0.3782    0.4351   -0.7524 N   0  0  0  0  0  0  0  0  0  0  0  0
   -0.0173   -0.2133    0.4207 C   0  0  0  0  0  0  0  0  0  0  0  0
   -1.3994    0.0676    0.9041 C   0  0  0  0  0  0  0  0  0  0  0  0
   -2.2262    0.6922   -0.1115 N   0  0  0  0  0  0  0  0  0  0  0  0
   -1.7150    1.6990   -0.9753 C   0  0  0  0  0  0  0  0  0  0  0  0
   -0.2144    1.6368   -1.1599 C   0  0  0  0  0  0  0  0  0  0  0  0
   -3.5882    0.2910   -0.1948 C   0  0  0  0  0  0  0  0  0  0  0  0
   -4.2498    0.3818   -1.3978 C   0  0  0  0  0  0  0  0  0  0  0  0
   -5.6038    0.0061   -1.4266 C   0  0  0  0  0  0  0  0  0  0  0  0
   -6.2508   -0.4349   -0.3080 C   0  0  0  0  0  0  0  0  0  0  0  0
   -5.5646   -0.5214    0.9028 C   0  0  0  0  0  0  0  0  0  0  0  0
   -4.2513   -0.1587    0.9402 C   0  0  0  0  0  0  0  0  0  0  0  0
   -6.2458   -0.9911    2.1024 C   0  0  0  0  0  0  0  0  0  0  0  0
   -6.7670   -1.3731    3.0710 N   0  0  0  0  0  0  0  0  0  0  0  0
    4.7946   -2.5285    1.1471 H   0  0  0  0  0  0  0  0  0  0  0  0
    2.6881   -2.3811   -0.1158 H   0  0  0  0  0  0  0  0  0  0  0  0
    3.6869    1.5756   -1.3708 H   0  0  0  0  0  0  0  0  0  0  0  0
    5.8278    1.4183   -0.0831 H   0  0  0  0  0  0  0  0  0  0  0  0
    0.7105    0.0748    1.2421 H   0  0  0  0  0  0  0  0  0  0  0  0
    0.0833   -1.3171    0.2726 H   0  0  0  0  0  0  0  0  0  0  0  0
   -1.8748   -0.8963    1.2533 H   0  0  0  0  0  0  0  0  0  0  0  0
   -1.3414    0.7173    1.8022 H   0  0  0  0  0  0  0  0  0  0  0  0
   -2.2397    1.7625   -1.9424 H   0  0  0  0  0  0  0  0  0  0  0  0
   -1.9050    2.6827   -0.4277 H   0  0  0  0  0  0  0  0  0  0  0  0
    0.3122    2.5209   -0.7570 H   0  0  0  0  0  0  0  0  0  0  0  0
   -0.0509    1.7203   -2.2799 H   0  0  0  0  0  0  0  0  0  0  0  0
   -3.8124    0.7131   -2.3245 H   0  0  0  0  0  0  0  0  0  0  0  0
   -6.1281    0.0765   -2.3674 H   0  0  0  0  0  0  0  0  0  0  0  0
   -7.3097   -0.7256   -0.3335 H   0  0  0  0  0  0  0  0  0  0  0  0
   -3.6891   -0.2121    1.8538 H   0  0  0  0  0  0  0  0  0  0  0  0
  1  2  1  0
  2  3  1  0
  2  4  1  0
  2  5  1  0
  5  6  2  0
  6  7  1  0
  7  8  2  0
  8  9  1  0
  9 10  2  0
  8 11  1  0
 11 12  2  0
 11 13  2  0
 11 14  1  0
 14 15  1  0
 15 16  1  0
 16 17  1  0
 17 18  1  0
 18 19  1  0
 17 20  1  0
 20 21  2  0
 21 22  1  0
 22 23  2  0
 23 24  1  0
 24 25  2  0
 24 26  1  0
 26 27  3  0
 10  5  1  0
 19 14  1  0
 25 20  1  0
  6 28  1  0
  7 29  1  0
  9 30  1  0
 10 31  1  0
 15 32  1  0
 15 33  1  0
 16 34  1  0
 16 35  1  0
 18 36  1  0
 18 37  1  0
 19 38  1  0
 19 39  1  0
 21 40  1  0
 22 41  1  0
 23 42  1  0
 25 43  1  0
M  END
$$$$
[H]N=C(N([H])[H])N([H])C([H])([H])C([H])([H])C([H])([H])[C@@]([H])(C(=O)N([H])[C@]([H])(C(=O)N([H])[C@]([H])(C(=O)O[H])C([H])([H])C([H])(C([H])([H])[H])C([H])([H])[H])C([H])([H])c1c([H])n([H])c2c([H])c([H])c([H])c([H])c12)N([H])C(=O)[C@@]([H])(N([H])C(=O)[C@@]([H])(N([H])C(=O)OC([H])([H])c1c([H])c([H])c([H])c([H])c1[H])C([H])([H])c1c([H])c([H])c([H])c([H])c1[H])C([H])([H])[H]
     RDKit          3D

115118  0  0  0  0  0  0  0  0999 V2000
    4.1871    0.9504    1.6268 C   0  0  0  0  0  0  0  0  0  0  0  0
    3.4443   -0.4061    1.3722 C   0  0  2  0  0  0  0  0  0  0  0  0
    4.2114   -1.1055    0.3468 N   0  0  0  0  0  0  0  0  0  0  0  0
    5.5030   -1.6544    0.5341 C   0  0  0  0  0  0  0  0  0  0  0  0
    6.1411   -1.5740    1.5845 O   0  0  0  0  0  0  0  0  0  0  0  0
    6.0921   -2.3729   -0.6544 C   0  0  2  0  0  0  0  0  0  0  0  0
    5.9441   -3.8727   -0.4324 C   0  0  0  0  0  0  0  0  0  0  0  0
    6.4850   -4.5981   -1.5996 C   0  0  0  0  0  0  0  0  0  0  0  0
    5.6318   -4.9272   -2.6443 C   0  0  0  0  0  0  0  0  0  0  0  0
    6.0391   -5.5952   -3.7740 C   0  0  0  0  0  0  0  0  0  0  0  0
    7.3608   -5.9572   -3.8761 C   0  0  0  0  0  0  0  0  0  0  0  0
    8.2206   -5.6426   -2.8575 C   0  0  0  0  0  0  0  0  0  0  0  0
    7.7896   -4.9700   -1.7288 C   0  0  0  0  0  0  0  0  0  0  0  0
    7.4589   -1.9842   -0.8602 N   0  0  0  0  0  0  0  0  0  0  0  0
    7.6856   -1.0182   -1.8846 C   0  0  0  0  0  0  0  0  0  0  0  0
    6.7384   -0.5249   -2.5367 O   0  0  0  0  0  0  0  0  0  0  0  0
    8.9953   -0.6223   -2.1474 O   0  0  0  0  0  0  0  0  0  0  0  0
    9.1323    0.3679   -3.1850 C   0  0  0  0  0  0  0  0  0  0  0  0
    8.3359    1.5494   -2.7096 C   0  0  0  0  0  0  0  0  0  0  0  0
    8.3412    1.8498   -1.3486 C   0  0  0  0  0  0  0  0  0  0  0  0
    7.5939    2.9233   -0.9327 C   0  0  0  0  0  0  0  0  0  0  0  0
    6.8475    3.7116   -1.7616 C   0  0  0  0  0  0  0  0  0  0  0  0
    6.8509    3.4019   -3.1084 C   0  0  0  0  0  0  0  0  0  0  0  0
    7.5951    2.3252   -3.5650 C   0  0  0  0  0  0  0  0  0  0  0  0
    2.1484   -0.1335    0.7920 C   0  0  0  0  0  0  0  0  0  0  0  0
    2.1358    0.2769   -0.4397 O   0  0  0  0  0  0  0  0  0  0  0  0
    0.8885   -0.2681    1.4196 N   0  0  0  0  0  0  0  0  0  0  0  0
   -0.2769    0.0467    0.6512 C   0  0  1  0  0  0  0  0  0  0  0  0
   -0.5456   -1.0865   -0.3360 C   0  0  0  0  0  0  0  0  0  0  0  0
   -0.7953   -2.4337    0.1826 C   0  0  0  0  0  0  0  0  0  0  0  0
    0.2745   -3.1185    0.9641 C   0  0  0  0  0  0  0  0  0  0  0  0
   -0.2390   -4.4766    1.2778 N   0  0  0  0  0  0  0  0  0  0  0  0
    0.6169   -5.3455    1.9940 C   0  0  0  0  0  0  0  0  0  0  0  0
    0.8924   -6.6261    1.4934 N   0  0  0  0  0  0  0  0  0  0  0  0
    1.1304   -4.9391    3.0992 N   0  0  0  0  0  0  0  0  0  0  0  0
   -1.5167    0.3980    1.3480 C   0  0  0  0  0  0  0  0  0  0  0  0
   -1.6891    0.0826    2.5352 O   0  0  0  0  0  0  0  0  0  0  0  0
   -2.4830    1.1101    0.5614 N   0  0  0  0  0  0  0  0  0  0  0  0
   -3.7888    1.4438    1.1645 C   0  0  1  0  0  0  0  0  0  0  0  0
   -3.5891    2.7688    1.8261 C   0  0  0  0  0  0  0  0  0  0  0  0
   -4.7413    3.3560    2.4994 C   0  0  0  0  0  0  0  0  0  0  0  0
   -5.1700    3.1362    3.7729 C   0  0  0  0  0  0  0  0  0  0  0  0
   -6.2884    3.8136    4.0310 N   0  0  0  0  0  0  0  0  0  0  0  0
   -6.6145    4.4978    2.9142 C   0  0  0  0  0  0  0  0  0  0  0  0
   -7.6487    5.3819    2.6184 C   0  0  0  0  0  0  0  0  0  0  0  0
   -7.7335    5.9901    1.3635 C   0  0  0  0  0  0  0  0  0  0  0  0
   -6.7786    5.7104    0.3986 C   0  0  0  0  0  0  0  0  0  0  0  0
   -5.7691    4.8398    0.7007 C   0  0  0  0  0  0  0  0  0  0  0  0
   -5.6866    4.2428    1.9414 C   0  0  0  0  0  0  0  0  0  0  0  0
   -4.7932    1.3928    0.0859 C   0  0  0  0  0  0  0  0  0  0  0  0
   -4.4836    1.9179   -1.0141 O   0  0  0  0  0  0  0  0  0  0  0  0
   -6.0485    0.7828    0.2222 N   0  0  0  0  0  0  0  0  0  0  0  0
   -7.0654    0.6138   -0.7469 C   0  0  1  0  0  0  0  0  0  0  0  0
   -8.0098    1.7027   -1.0408 C   0  0  0  0  0  0  0  0  0  0  0  0
   -8.8323    2.1072    0.1852 C   0  0  0  0  0  0  0  0  0  0  0  0
   -9.7874    3.2120   -0.2306 C   0  0  0  0  0  0  0  0  0  0  0  0
   -9.6314    0.9399    0.7040 C   0  0  0  0  0  0  0  0  0  0  0  0
   -6.5215    0.0701   -2.0124 C   0  0  0  0  0  0  0  0  0  0  0  0
   -7.3638    0.0270   -3.1111 O   0  0  0  0  0  0  0  0  0  0  0  0
   -5.3681   -0.3369   -2.1200 O   0  0  0  0  0  0  0  0  0  0  0  0
    4.7378    1.2278    0.7073 H   0  0  0  0  0  0  0  0  0  0  0  0
    4.9093    0.8389    2.4524 H   0  0  0  0  0  0  0  0  0  0  0  0
    3.4472    1.7357    1.8319 H   0  0  0  0  0  0  0  0  0  0  0  0
    3.5170   -0.9045    2.3140 H   0  0  0  0  0  0  0  0  0  0  0  0
    3.7349   -1.1984   -0.6012 H   0  0  0  0  0  0  0  0  0  0  0  0
    5.4970   -2.0606   -1.5539 H   0  0  0  0  0  0  0  0  0  0  0  0
    4.9094   -4.1353   -0.1872 H   0  0  0  0  0  0  0  0  0  0  0  0
    6.5983   -4.1244    0.4547 H   0  0  0  0  0  0  0  0  0  0  0  0
    4.5904   -4.6368   -2.5561 H   0  0  0  0  0  0  0  0  0  0  0  0
    5.3333   -5.8292   -4.5627 H   0  0  0  0  0  0  0  0  0  0  0  0
    7.6941   -6.4843   -4.7673 H   0  0  0  0  0  0  0  0  0  0  0  0
    9.2747   -5.9205   -2.9194 H   0  0  0  0  0  0  0  0  0  0  0  0
    8.4799   -4.7258   -0.9158 H   0  0  0  0  0  0  0  0  0  0  0  0
    8.2511   -2.3545   -0.3212 H   0  0  0  0  0  0  0  0  0  0  0  0
    8.6856   -0.0519   -4.0963 H   0  0  0  0  0  0  0  0  0  0  0  0
   10.1977    0.6154   -3.3317 H   0  0  0  0  0  0  0  0  0  0  0  0
    8.9332    1.2187   -0.7103 H   0  0  0  0  0  0  0  0  0  0  0  0
    7.6087    3.1511    0.1390 H   0  0  0  0  0  0  0  0  0  0  0  0
    6.2630    4.5576   -1.3782 H   0  0  0  0  0  0  0  0  0  0  0  0
    6.2609    4.0234   -3.7682 H   0  0  0  0  0  0  0  0  0  0  0  0
    7.5832    2.1047   -4.6131 H   0  0  0  0  0  0  0  0  0  0  0  0
    0.8819   -0.5629    2.4160 H   0  0  0  0  0  0  0  0  0  0  0  0
    0.0110    0.8990   -0.0608 H   0  0  0  0  0  0  0  0  0  0  0  0
   -1.4723   -0.7511   -0.8960 H   0  0  0  0  0  0  0  0  0  0  0  0
    0.2524   -1.0406   -1.1040 H   0  0  0  0  0  0  0  0  0  0  0  0
   -1.1444   -3.0867   -0.6825 H   0  0  0  0  0  0  0  0  0  0  0  0
   -1.7050   -2.4075    0.8450 H   0  0  0  0  0  0  0  0  0  0  0  0
    1.2516   -3.1641    0.4764 H   0  0  0  0  0  0  0  0  0  0  0  0
    0.3931   -2.6749    1.9897 H   0  0  0  0  0  0  0  0  0  0  0  0
   -1.1767   -4.7970    1.0014 H   0  0  0  0  0  0  0  0  0  0  0  0
    1.7909   -6.9412    1.0626 H   0  0  0  0  0  0  0  0  0  0  0  0
    0.1123   -7.3309    1.5589 H   0  0  0  0  0  0  0  0  0  0  0  0
    0.9487   -3.9954    3.5043 H   0  0  0  0  0  0  0  0  0  0  0  0
   -2.2857    1.4003   -0.4293 H   0  0  0  0  0  0  0  0  0  0  0  0
   -3.9276    0.6668    1.9673 H   0  0  0  0  0  0  0  0  0  0  0  0
   -3.3341    3.5472    0.9964 H   0  0  0  0  0  0  0  0  0  0  0  0
   -2.6795    2.8065    2.4370 H   0  0  0  0  0  0  0  0  0  0  0  0
   -4.7063    2.4951    4.5513 H   0  0  0  0  0  0  0  0  0  0  0  0
   -6.8653    3.8476    4.9253 H   0  0  0  0  0  0  0  0  0  0  0  0
   -8.3960    5.6042    3.3616 H   0  0  0  0  0  0  0  0  0  0  0  0
   -8.5604    6.6796    1.1753 H   0  0  0  0  0  0  0  0  0  0  0  0
   -6.8714    6.2102   -0.5859 H   0  0  0  0  0  0  0  0  0  0  0  0
   -5.0180    4.6207   -0.0380 H   0  0  0  0  0  0  0  0  0  0  0  0
   -6.2114    0.4019    1.2361 H   0  0  0  0  0  0  0  0  0  0  0  0
   -7.7508   -0.2701   -0.3459 H   0  0  0  0  0  0  0  0  0  0  0  0
   -8.7857    1.3893   -1.8097 H   0  0  0  0  0  0  0  0  0  0  0  0
   -7.5579    2.6081   -1.4870 H   0  0  0  0  0  0  0  0  0  0  0  0
   -8.1731    2.4485    1.0074 H   0  0  0  0  0  0  0  0  0  0  0  0
   -9.2279    3.8928   -0.9061 H   0  0  0  0  0  0  0  0  0  0  0  0
  -10.6106    2.7116   -0.7886 H   0  0  0  0  0  0  0  0  0  0  0  0
  -10.1200    3.7217    0.6958 H   0  0  0  0  0  0  0  0  0  0  0  0
   -9.0334    0.2947    1.3887 H   0  0  0  0  0  0  0  0  0  0  0  0
  -10.5243    1.2786    1.2561 H   0  0  0  0  0  0  0  0  0  0  0  0
   -9.9692    0.2534   -0.1096 H   0  0  0  0  0  0  0  0  0  0  0  0
   -7.4944    0.8457   -3.6942 H   0  0  0  0  0  0  0  0  0  0  0  0
  1  2  1  0
  2  3  1  0
  3  4  1  0
  4  5  2  0
  4  6  1  0
  6  7  1  0
  7  8  1  0
  8  9  2  0
  9 10  1  0
 10 11  2  0
 11 12  1  0
 12 13  2  0
  6 14  1  0
 14 15  1  0
 15 16  2  0
 15 17  1  0
 17 18  1  0
 18 19  1  0
 19 20  2  0
 20 21  1  0
 21 22  2  0
 22 23  1  0
 23 24  2  0
  2 25  1  0
 25 26  2  0
 25 27  1  0
 27 28  1  0
 28 29  1  0
 29 30  1  0
 30 31  1  0
 31 32  1  0
 32 33  1  0
 33 34  1  0
 33 35  2  3
 28 36  1  0
 36 37  2  0
 36 38  1  0
 38 39  1  0
 39 40  1  0
 40 41  1  0
 41 42  2  0
 42 43  1  0
 43 44  1  0
 44 45  2  0
 45 46  1  0
 46 47  2  0
 47 48  1  0
 48 49  2  0
 39 50  1  0
 50 51  2  0
 50 52  1  0
 52 53  1  0
 53 54  1  0
 54 55  1  0
 55 56  1  0
 55 57  1  0
 53 58  1  0
 58 59  1  0
 58 60  2  0
 13  8  1  0
 24 19  1  0
 49 41  1  0
 49 44  1  0
  1 61  1  0
  1 62  1  0
  1 63  1  0
  2 64  1  1
  3 65  1  0
  6 66  1  6
  7 67  1  0
  7 68  1  0
  9 69  1  0
 10 70  1  0
 11 71  1  0
 12 72  1  0
 13 73  1  0
 14 74  1  0
 18 75  1  0
 18 76  1  0
 20 77  1  0
 21 78  1  0
 22 79  1  0
 23 80  1  0
 24 81  1  0
 27 82  1  0
 28 83  1  6
 29 84  1  0
 29 85  1  0
 30 86  1  0
 30 87  1  0
 31 88  1  0
 31 89  1  0
 32 90  1  0
 34 91  1  0
 34 92  1  0
 35 93  1  0
 38 94  1  0
 39 95  1  1
 40 96  1  0
 40 97  1  0
 42 98  1  0
 43 99  1  0
 45100  1  0
 46101  1  0
 47102  1  0
 48103  1  0
 52104  1  0
 53105  1  1
 54106  1  0
 54107  1  0
 55108  1  0
 56109  1  0
 56110  1  0
 56111  1  0
 57112  1  0
 57113  1  0
 57114  1  0
 59115  1  0
M  END
$$$$
[H]c1nc(N([H])c2c([H])c([H])c(N(C([H])([H])[H])C([H])([H])[H])c([H])c2OC([H])([H])[H])nc(N([H])c2c([H])c([H])c([H])c([H])c2S(=O)(=O)C([H])(C([H])([H])[H])C([H])([H])[H])c1Cl
     RDKit          3D

 58 60  0  0  0  0  0  0  0  0999 V2000
    4.4062    3.4984   -0.1452 C   0  0  0  0  0  0  0  0  0  0  0  0
    3.6111    2.3317   -0.1051 O   0  0  0  0  0  0  0  0  0  0  0  0
    4.1981    1.0874   -0.0832 C   0  0  0  0  0  0  0  0  0  0  0  0
    5.5540    0.9647   -0.0998 C   0  0  0  0  0  0  0  0  0  0  0  0
    6.2002   -0.2425   -0.0796 C   0  0  0  0  0  0  0  0  0  0  0  0
    5.4245   -1.3717   -0.0408 C   0  0  0  0  0  0  0  0  0  0  0  0
    4.0278   -1.2651   -0.0232 C   0  0  0  0  0  0  0  0  0  0  0  0
    3.3718   -0.0588   -0.0432 C   0  0  0  0  0  0  0  0  0  0  0  0
    1.9802    0.1184   -0.0273 N   0  0  0  0  0  0  0  0  0  0  0  0
    0.9512   -0.8476    0.0111 C   0  0  0  0  0  0  0  0  0  0  0  0
    1.1963   -2.1464    0.0391 N   0  0  0  0  0  0  0  0  0  0  0  0
    0.2277   -3.0576    0.0753 C   0  0  0  0  0  0  0  0  0  0  0  0
   -1.0736   -2.6137    0.0832 C   0  0  0  0  0  0  0  0  0  0  0  0
   -2.3340   -3.7936    0.1300 Cl  0  0  0  0  0  0  0  0  0  0  0  0
   -1.4051   -1.2474    0.0548 C   0  0  0  0  0  0  0  0  0  0  0  0
   -2.7553   -0.8948    0.0633 N   0  0  0  0  0  0  0  0  0  0  0  0
   -3.3324    0.3894    0.0424 C   0  0  0  0  0  0  0  0  0  0  0  0
   -2.6323    1.5679    0.0508 C   0  0  0  0  0  0  0  0  0  0  0  0
   -3.2370    2.8256    0.0415 C   0  0  0  0  0  0  0  0  0  0  0  0
   -4.6019    2.8853    0.0232 C   0  0  0  0  0  0  0  0  0  0  0  0
   -5.3336    1.7103    0.0145 C   0  0  0  0  0  0  0  0  0  0  0  0
   -4.7305    0.4794    0.0231 C   0  0  0  0  0  0  0  0  0  0  0  0
   -5.7319   -0.9461    0.0177 S   0  0  0  0  0  0  0  0  0  0  0  0
   -5.4883   -1.8307   -1.1751 O   0  0  0  0  0  0  0  0  0  0  0  0
   -5.5713   -1.7197    1.2948 O   0  0  0  0  0  0  0  0  0  0  0  0
   -7.4419   -0.4707   -0.0753 C   0  0  0  0  0  0  0  0  0  0  0  0
   -8.3033   -1.7419    0.0377 C   0  0  0  0  0  0  0  0  0  0  0  0
   -7.8098    0.1509   -1.3998 C   0  0  0  0  0  0  0  0  0  0  0  0
   -0.3515   -0.4345    0.0199 N   0  0  0  0  0  0  0  0  0  0  0  0
    7.6179   -0.3434   -0.0970 N   0  0  0  0  0  0  0  0  0  0  0  0
    8.4537    0.8280   -0.1329 C   0  0  0  0  0  0  0  0  0  0  0  0
    8.2615   -1.6612   -0.0798 C   0  0  0  0  0  0  0  0  0  0  0  0
    3.7328    4.3718   -0.1479 H   0  0  0  0  0  0  0  0  0  0  0  0
    5.0632    3.5354   -1.0399 H   0  0  0  0  0  0  0  0  0  0  0  0
    5.0107    3.5662    0.7888 H   0  0  0  0  0  0  0  0  0  0  0  0
    6.1694    1.8761   -0.1314 H   0  0  0  0  0  0  0  0  0  0  0  0
    5.9069   -2.3395   -0.0241 H   0  0  0  0  0  0  0  0  0  0  0  0
    3.4863   -2.1877    0.0072 H   0  0  0  0  0  0  0  0  0  0  0  0
    1.6538    1.1603   -0.0479 H   0  0  0  0  0  0  0  0  0  0  0  0
    0.4523   -4.1205    0.0979 H   0  0  0  0  0  0  0  0  0  0  0  0
   -3.4462   -1.7039    0.0943 H   0  0  0  0  0  0  0  0  0  0  0  0
   -1.5520    1.5914    0.0670 H   0  0  0  0  0  0  0  0  0  0  0  0
   -2.6687    3.7416    0.0481 H   0  0  0  0  0  0  0  0  0  0  0  0
   -5.1311    3.8475    0.0153 H   0  0  0  0  0  0  0  0  0  0  0  0
   -6.4315    1.8235    0.0107 H   0  0  0  0  0  0  0  0  0  0  0  0
   -7.7214    0.2137    0.7495 H   0  0  0  0  0  0  0  0  0  0  0  0
   -9.3529   -1.4016   -0.0085 H   0  0  0  0  0  0  0  0  0  0  0  0
   -8.0035   -2.3857   -0.8043 H   0  0  0  0  0  0  0  0  0  0  0  0
   -8.0407   -2.1800    1.0337 H   0  0  0  0  0  0  0  0  0  0  0  0
   -8.4048    1.0877   -1.2461 H   0  0  0  0  0  0  0  0  0  0  0  0
   -8.4264   -0.5039   -2.0345 H   0  0  0  0  0  0  0  0  0  0  0  0
   -6.8759    0.4591   -1.9124 H   0  0  0  0  0  0  0  0  0  0  0  0
    8.4382    1.2217   -1.1767 H   0  0  0  0  0  0  0  0  0  0  0  0
    9.4829    0.5333    0.1273 H   0  0  0  0  0  0  0  0  0  0  0  0
    8.0852    1.6529    0.5147 H   0  0  0  0  0  0  0  0  0  0  0  0
    9.3593   -1.5512   -0.0513 H   0  0  0  0  0  0  0  0  0  0  0  0
    7.9752   -2.1440    0.8976 H   0  0  0  0  0  0  0  0  0  0  0  0
    7.8909   -2.3143   -0.8839 H   0  0  0  0  0  0  0  0  0  0  0  0
  1  2  1  0
  2  3  1  0
  3  4  2  0
  4  5  1  0
  5  6  2  0
  6  7  1  0
  7  8  2  0
  8  9  1  0
  9 10  1  0
 10 11  2  0
 11 12  1  0
 12 13  2  0
 13 14  1  0
 13 15  1  0
 15 16  1  0
 16 17  1  0
 17 18  2  0
 18 19  1  0
 19 20  2  0
 20 21  1  0
 21 22  2  0
 22 23  1  0
 23 24  2  0
 23 25  2  0
 23 26  1  0
 26 27  1  0
 26 28  1  0
 15 29  2  0
  5 30  1  0
 30 31  1  0
 30 32  1  0
  8  3  1  0
 29 10  1  0
 22 17  1  0
  1 33  1  0
  1 34  1  0
  1 35  1  0
  4 36  1  0
  6 37  1  0
  7 38  1  0
  9 39  1  0
 12 40  1  0
 16 41  1  0
 18 42  1  0
 19 43  1  0
 20 44  1  0
 21 45  1  0
 26 46  1  0
 27 47  1  0
 27 48  1  0
 27 49  1  0
 28 50  1  0
 28 51  1  0
 28 52  1  0
 31 53  1  0
 31 54  1  0
 31 55  1  0
 32 56  1  0
 32 57  1  0
 32 58  1  0
M  END
$$$$
[H]c1c([H])c([H])c(C([H])([H])OC(=O)N([H])[C@@]([H])(C(=O)N([H])[C@]([H])(C(=O)N([H])[C@]([H])(C(=O)N([H])[C@]([H])(C(=O)N([H])[C@]([H])(C(=O)N([H])C([H])([H])[H])C([H])([H])c2c([H])c([H])c([H])c([H])c2[H])C([H])([H])C([H])(C([H])([H])[H])C([H])([H])[H])C([H])([H])c2c([H])c([H])c([H])c([H])c2[H])C([H])([H])C([H])(C([H])([H])[H])C([H])([H])[H])C([H])([H])c2c([H])c([H])c([H])c([H])c2[H])c([H])c1[H]
     RDKit          3D

121124  0  0  0  0  0  0  0  0999 V2000
    6.3280    5.4741    0.7654 C   0  0  0  0  0  0  0  0  0  0  0  0
    6.5901    4.1349    0.3346 N   0  0  0  0  0  0  0  0  0  0  0  0
    5.7558    3.0498    0.6682 C   0  0  0  0  0  0  0  0  0  0  0  0
    4.7331    3.3405    1.3977 O   0  0  0  0  0  0  0  0  0  0  0  0
    5.9100    1.6559    0.2928 C   0  0  2  0  0  0  0  0  0  0  0  0
    5.1897    1.4511   -1.0630 C   0  0  0  0  0  0  0  0  0  0  0  0
    5.7456    2.3891   -2.0886 C   0  0  0  0  0  0  0  0  0  0  0  0
    5.0510    3.5534   -2.3694 C   0  0  0  0  0  0  0  0  0  0  0  0
    5.5327    4.4726   -3.2945 C   0  0  0  0  0  0  0  0  0  0  0  0
    6.7117    4.2393   -3.9450 C   0  0  0  0  0  0  0  0  0  0  0  0
    7.4145    3.0900   -3.6786 C   0  0  0  0  0  0  0  0  0  0  0  0
    6.9314    2.1663   -2.7522 C   0  0  0  0  0  0  0  0  0  0  0  0
    5.2893    0.8138    1.2868 N   0  0  0  0  0  0  0  0  0  0  0  0
    4.8459   -0.5050    1.1728 C   0  0  0  0  0  0  0  0  0  0  0  0
    4.8388   -1.2395    0.2032 O   0  0  0  0  0  0  0  0  0  0  0  0
    4.2661   -1.1494    2.4859 C   0  0  2  0  0  0  0  0  0  0  0  0
    5.2606   -2.2035    2.8513 C   0  0  0  0  0  0  0  0  0  0  0  0
    6.6505   -1.7862    3.1252 C   0  0  0  0  0  0  0  0  0  0  0  0
    6.8799   -0.8595    4.2560 C   0  0  0  0  0  0  0  0  0  0  0  0
    7.6203   -2.9490    3.1860 C   0  0  0  0  0  0  0  0  0  0  0  0
    3.0677   -1.8002    2.0737 N   0  0  0  0  0  0  0  0  0  0  0  0
    1.9200   -1.2333    1.4853 C   0  0  0  0  0  0  0  0  0  0  0  0
    1.9081   -0.0097    1.2243 O   0  0  0  0  0  0  0  0  0  0  0  0
    0.6848   -1.9954    1.1386 C   0  0  2  0  0  0  0  0  0  0  0  0
    0.7626   -3.4442    1.4259 C   0  0  0  0  0  0  0  0  0  0  0  0
   -0.4094   -4.2582    1.1525 C   0  0  0  0  0  0  0  0  0  0  0  0
   -1.3822   -4.4028    2.1432 C   0  0  0  0  0  0  0  0  0  0  0  0
   -2.5034   -5.1942    1.9251 C   0  0  0  0  0  0  0  0  0  0  0  0
   -2.6810   -5.8568    0.7244 C   0  0  0  0  0  0  0  0  0  0  0  0
   -1.7299   -5.7201   -0.2500 C   0  0  0  0  0  0  0  0  0  0  0  0
   -0.6127   -4.9205   -0.0124 C   0  0  0  0  0  0  0  0  0  0  0  0
    0.2359   -1.6461   -0.2143 N   0  0  0  0  0  0  0  0  0  0  0  0
   -1.0546   -1.2465   -0.5080 C   0  0  0  0  0  0  0  0  0  0  0  0
   -1.8243   -1.1801    0.5690 O   0  0  0  0  0  0  0  0  0  0  0  0
   -1.7272   -0.8981   -1.7080 C   0  0  2  0  0  0  0  0  0  0  0  0
   -1.1332   -0.9112   -3.0281 C   0  0  0  0  0  0  0  0  0  0  0  0
   -0.6664   -2.1322   -3.6974 C   0  0  0  0  0  0  0  0  0  0  0  0
   -1.8438   -3.1085   -3.8011 C   0  0  0  0  0  0  0  0  0  0  0  0
    0.6306   -2.7426   -3.4382 C   0  0  0  0  0  0  0  0  0  0  0  0
   -2.5426    0.3284   -1.5106 N   0  0  0  0  0  0  0  0  0  0  0  0
   -3.8656    0.2663   -1.0672 C   0  0  0  0  0  0  0  0  0  0  0  0
   -4.3398   -0.9209   -0.8060 O   0  0  0  0  0  0  0  0  0  0  0  0
   -4.7740    1.3704   -0.8683 C   0  0  1  0  0  0  0  0  0  0  0  0
   -5.2969    1.7515   -2.2893 C   0  0  0  0  0  0  0  0  0  0  0  0
   -5.9751    0.6153   -2.8912 C   0  0  0  0  0  0  0  0  0  0  0  0
   -7.3140    0.3721   -2.6193 C   0  0  0  0  0  0  0  0  0  0  0  0
   -7.9764   -0.7082   -3.1755 C   0  0  0  0  0  0  0  0  0  0  0  0
   -7.3041   -1.5921   -4.0351 C   0  0  0  0  0  0  0  0  0  0  0  0
   -6.0022   -1.3402   -4.2881 C   0  0  0  0  0  0  0  0  0  0  0  0
   -5.3561   -0.2670   -3.7323 C   0  0  0  0  0  0  0  0  0  0  0  0
   -5.9272    1.0061   -0.0684 N   0  0  0  0  0  0  0  0  0  0  0  0
   -6.6095    1.9100    0.7498 C   0  0  0  0  0  0  0  0  0  0  0  0
   -6.2364    3.0995    0.8026 O   0  0  0  0  0  0  0  0  0  0  0  0
   -7.6993    1.5047    1.5005 O   0  0  0  0  0  0  0  0  0  0  0  0
   -8.3526    2.4950    2.2797 C   0  0  0  0  0  0  0  0  0  0  0  0
   -7.4912    3.1453    3.2728 C   0  0  0  0  0  0  0  0  0  0  0  0
   -6.5555    2.3902    3.9490 C   0  0  0  0  0  0  0  0  0  0  0  0
   -5.7309    2.9839    4.8782 C   0  0  0  0  0  0  0  0  0  0  0  0
   -5.8488    4.3598    5.1323 C   0  0  0  0  0  0  0  0  0  0  0  0
   -6.7842    5.1071    4.4568 C   0  0  0  0  0  0  0  0  0  0  0  0
   -7.6106    4.5242    3.5282 C   0  0  0  0  0  0  0  0  0  0  0  0
    6.4157    6.2010   -0.0782 H   0  0  0  0  0  0  0  0  0  0  0  0
    5.2663    5.5610    1.1416 H   0  0  0  0  0  0  0  0  0  0  0  0
    7.0321    5.7943    1.5643 H   0  0  0  0  0  0  0  0  0  0  0  0
    7.4438    3.9686   -0.2388 H   0  0  0  0  0  0  0  0  0  0  0  0
    6.9766    1.3744    0.1221 H   0  0  0  0  0  0  0  0  0  0  0  0
    5.3736    0.4194   -1.3649 H   0  0  0  0  0  0  0  0  0  0  0  0
    4.1173    1.6251   -0.9696 H   0  0  0  0  0  0  0  0  0  0  0  0
    4.1239    3.7237   -1.8483 H   0  0  0  0  0  0  0  0  0  0  0  0
    4.9455    5.3661   -3.4743 H   0  0  0  0  0  0  0  0  0  0  0  0
    7.1085    4.9599   -4.6797 H   0  0  0  0  0  0  0  0  0  0  0  0
    8.3271    2.9345   -4.1902 H   0  0  0  0  0  0  0  0  0  0  0  0
    7.4936    1.2531   -2.5495 H   0  0  0  0  0  0  0  0  0  0  0  0
    5.1707    1.2871    2.2480 H   0  0  0  0  0  0  0  0  0  0  0  0
    4.1583   -0.2729    3.1047 H   0  0  0  0  0  0  0  0  0  0  0  0
    5.2796   -2.9074    1.9599 H   0  0  0  0  0  0  0  0  0  0  0  0
    4.9246   -2.8723    3.6946 H   0  0  0  0  0  0  0  0  0  0  0  0
    7.0288   -1.2010    2.1985 H   0  0  0  0  0  0  0  0  0  0  0  0
    7.3154    0.1329    3.9614 H   0  0  0  0  0  0  0  0  0  0  0  0
    5.9947   -0.7430    4.9057 H   0  0  0  0  0  0  0  0  0  0  0  0
    7.6798   -1.3135    4.9132 H   0  0  0  0  0  0  0  0  0  0  0  0
    7.8611   -3.2913    4.2080 H   0  0  0  0  0  0  0  0  0  0  0  0
    7.1805   -3.8347    2.6331 H   0  0  0  0  0  0  0  0  0  0  0  0
    8.6166   -2.6994    2.7065 H   0  0  0  0  0  0  0  0  0  0  0  0
    2.9947   -2.8645    2.2087 H   0  0  0  0  0  0  0  0  0  0  0  0
   -0.1338   -1.5389    1.7891 H   0  0  0  0  0  0  0  0  0  0  0  0
    1.6505   -3.8890    0.8951 H   0  0  0  0  0  0  0  0  0  0  0  0
    1.0298   -3.5599    2.5214 H   0  0  0  0  0  0  0  0  0  0  0  0
   -1.2792   -3.9089    3.0872 H   0  0  0  0  0  0  0  0  0  0  0  0
   -3.2878   -5.3418    2.6636 H   0  0  0  0  0  0  0  0  0  0  0  0
   -3.5739   -6.4728    0.5640 H   0  0  0  0  0  0  0  0  0  0  0  0
   -1.8583   -6.2293   -1.1866 H   0  0  0  0  0  0  0  0  0  0  0  0
    0.0917   -4.8577   -0.8141 H   0  0  0  0  0  0  0  0  0  0  0  0
    1.0030   -1.6889   -0.9047 H   0  0  0  0  0  0  0  0  0  0  0  0
   -2.6530   -1.6897   -1.7685 H   0  0  0  0  0  0  0  0  0  0  0  0
   -1.8081   -0.3699   -3.7992 H   0  0  0  0  0  0  0  0  0  0  0  0
   -0.2372   -0.1812   -3.0508 H   0  0  0  0  0  0  0  0  0  0  0  0
   -0.5902   -1.8080   -4.8356 H   0  0  0  0  0  0  0  0  0  0  0  0
   -2.1333   -3.4297   -2.8067 H   0  0  0  0  0  0  0  0  0  0  0  0
   -2.6678   -2.4839   -4.2729 H   0  0  0  0  0  0  0  0  0  0  0  0
   -1.5728   -3.8822   -4.5250 H   0  0  0  0  0  0  0  0  0  0  0  0
    0.9807   -3.2856   -4.3692 H   0  0  0  0  0  0  0  0  0  0  0  0
    1.4034   -1.9695   -3.2273 H   0  0  0  0  0  0  0  0  0  0  0  0
    0.7092   -3.4944   -2.6371 H   0  0  0  0  0  0  0  0  0  0  0  0
   -2.1212    1.2564   -1.6990 H   0  0  0  0  0  0  0  0  0  0  0  0
   -4.3140    2.2635   -0.4499 H   0  0  0  0  0  0  0  0  0  0  0  0
   -5.9353    2.6379   -2.1381 H   0  0  0  0  0  0  0  0  0  0  0  0
   -4.4437    2.0567   -2.9233 H   0  0  0  0  0  0  0  0  0  0  0  0
   -7.8898    1.0070   -1.9670 H   0  0  0  0  0  0  0  0  0  0  0  0
   -9.0099   -0.9415   -2.9875 H   0  0  0  0  0  0  0  0  0  0  0  0
   -7.8308   -2.4443   -4.4746 H   0  0  0  0  0  0  0  0  0  0  0  0
   -5.4454   -2.0201   -4.9569 H   0  0  0  0  0  0  0  0  0  0  0  0
   -4.3346   -0.1245   -3.9651 H   0  0  0  0  0  0  0  0  0  0  0  0
   -6.2616    0.0139   -0.1227 H   0  0  0  0  0  0  0  0  0  0  0  0
   -9.2196    1.9778    2.7517 H   0  0  0  0  0  0  0  0  0  0  0  0
   -8.7988    3.2318    1.5442 H   0  0  0  0  0  0  0  0  0  0  0  0
   -6.4632    1.3113    3.7491 H   0  0  0  0  0  0  0  0  0  0  0  0
   -5.0049    2.3992    5.4027 H   0  0  0  0  0  0  0  0  0  0  0  0
   -5.1963    4.8060    5.8638 H   0  0  0  0  0  0  0  0  0  0  0  0
   -6.8679    6.1601    4.6618 H   0  0  0  0  0  0  0  0  0  0  0  0
   -8.3588    5.0492    2.9737 H   0  0  0  0  0  0  0  0  0  0  0  0
  1  2  1  0
  2  3  1  0
  3  4  2  0
  3  5  1  0
  5  6  1  0
  6  7  1  0
  7  8  2  0
  8  9  1  0
  9 10  2  0
 10 11  1  0
 11 12  2  0
  5 13  1  0
 13 14  1  0
 14 15  2  0
 14 16  1  0
 16 17  1  0
 17 18  1  0
 18 19  1  0
 18 20  1  0
 16 21  1  0
 21 22  1  0
 22 23  2  0
 22 24  1  0
 24 25  1  0
 25 26  1  0
 26 27  2  0
 27 28  1  0
 28 29  2  0
 29 30  1  0
 30 31  2  0
 24 32  1  0
 32 33  1  0
 33 34  2  0
 33 35  1  0
 35 36  1  0
 36 37  1  0
 37 38  1  0
 37 39  1  0
 35 40  1  0
 40 41  1  0
 41 42  2  0
 41 43  1  0
 43 44  1  0
 44 45  1  0
 45 46  2  0
 46 47  1  0
 47 48  2  0
 48 49  1  0
 49 50  2  0
 43 51  1  0
 51 52  1  0
 52 53  2  0
 52 54  1  0
 54 55  1  0
 55 56  1  0
 56 57  2  0
 57 58  1  0
 58 59  2  0
 59 60  1  0
 60 61  2  0
 12  7  1  0
 31 26  1  0
 50 45  1  0
 61 56  1  0
  1 62  1  0
  1 63  1  0
  1 64  1  0
  2 65  1  0
  5 66  1  6
  6 67  1  0
  6 68  1  0
  8 69  1  0
  9 70  1  0
 10 71  1  0
 11 72  1  0
 12 73  1  0
 13 74  1  0
 16 75  1  1
 17 76  1  0
 17 77  1  0
 18 78  1  0
 19 79  1  0
 19 80  1  0
 19 81  1  0
 20 82  1  0
 20 83  1  0
 20 84  1  0
 21 85  1  0
 24 86  1  1
 25 87  1  0
 25 88  1  0
 27 89  1  0
 28 90  1  0
 29 91  1  0
 30 92  1  0
 31 93  1  0
 32 94  1  0
 35 95  1  6
 36 96  1  0
 36 97  1  0
 37 98  1  0
 38 99  1  0
 38100  1  0
 38101  1  0
 39102  1  0
 39103  1  0
 39104  1  0
 40105  1  0
 43106  1  1
 44107  1  0
 44108  1  0
 46109  1  0
 47110  1  0
 48111  1  0
 49112  1  0
 50113  1  0
 51114  1  0
 55115  1  0
 55116  1  0
 57117  1  0
 58118  1  0
 59119  1  0
 60120  1  0
 61121  1  0
M  END
$$$$
[H]c1c([H])c(C(F)(F)F)c([H])c([H])c1N([H])C(=O)C(c1c([H])c([H])c(N([H])C(=O)OC(C([H])([H])[H])(C([H])([H])[H])C([H])([H])[H])c([H])c1[H])(C([H])([H])[H])C([H])([H])[H]
     RDKit          3D

 55 56  0  0  0  0  0  0  0  0999 V2000
   -6.7936    0.5226    0.7442 C   0  0  0  0  0  0  0  0  0  0  0  0
   -6.6529   -0.7842    0.0125 C   0  0  0  0  0  0  0  0  0  0  0  0
   -7.9873   -0.9273   -0.7580 C   0  0  0  0  0  0  0  0  0  0  0  0
   -6.5346   -1.9112    0.9872 C   0  0  0  0  0  0  0  0  0  0  0  0
   -5.6706   -0.7985   -0.9606 O   0  0  0  0  0  0  0  0  0  0  0  0
   -4.3753   -0.5109   -0.7369 C   0  0  0  0  0  0  0  0  0  0  0  0
   -4.0903   -0.2385    0.4870 O   0  0  0  0  0  0  0  0  0  0  0  0
   -3.2927   -0.4660   -1.6764 N   0  0  0  0  0  0  0  0  0  0  0  0
   -2.0071   -0.0926   -1.1622 C   0  0  0  0  0  0  0  0  0  0  0  0
   -1.2497   -0.8253   -0.3139 C   0  0  0  0  0  0  0  0  0  0  0  0
   -0.0727   -0.3064    0.2575 C   0  0  0  0  0  0  0  0  0  0  0  0
    0.3168    0.9591   -0.0455 C   0  0  0  0  0  0  0  0  0  0  0  0
   -0.4415    1.7267   -0.9190 C   0  0  0  0  0  0  0  0  0  0  0  0
   -1.5788    1.1959   -1.4587 C   0  0  0  0  0  0  0  0  0  0  0  0
    1.4998    1.5372    0.5738 C   0  0  0  0  0  0  0  0  0  0  0  0
    1.6173    3.0283    0.2332 C   0  0  0  0  0  0  0  0  0  0  0  0
    1.2002    1.5454    2.0934 C   0  0  0  0  0  0  0  0  0  0  0  0
    2.7865    0.9387    0.3817 C   0  0  0  0  0  0  0  0  0  0  0  0
    3.7852    1.7611    0.6116 O   0  0  0  0  0  0  0  0  0  0  0  0
    3.1981   -0.3391   -0.0062 N   0  0  0  0  0  0  0  0  0  0  0  0
    4.6112   -0.6327   -0.0910 C   0  0  0  0  0  0  0  0  0  0  0  0
    5.2009   -1.1653   -1.2075 C   0  0  0  0  0  0  0  0  0  0  0  0
    6.5829   -1.4005   -1.2569 C   0  0  0  0  0  0  0  0  0  0  0  0
    7.3840   -1.0992   -0.1765 C   0  0  0  0  0  0  0  0  0  0  0  0
    6.7850   -0.5663    0.9478 C   0  0  0  0  0  0  0  0  0  0  0  0
    5.4316   -0.3402    0.9860 C   0  0  0  0  0  0  0  0  0  0  0  0
    8.8725   -1.3077   -0.2011 C   0  0  0  0  0  0  0  0  0  0  0  0
    9.5079   -0.1047    0.1427 F   0  0  0  0  0  0  0  0  0  0  0  0
    9.2844   -2.2630    0.6760 F   0  0  0  0  0  0  0  0  0  0  0  0
    9.2738   -1.6233   -1.4660 F   0  0  0  0  0  0  0  0  0  0  0  0
   -7.8459    0.6243    1.0476 H   0  0  0  0  0  0  0  0  0  0  0  0
   -6.5758    1.3741    0.0505 H   0  0  0  0  0  0  0  0  0  0  0  0
   -6.1921    0.5778    1.6763 H   0  0  0  0  0  0  0  0  0  0  0  0
   -7.9150   -1.8274   -1.3738 H   0  0  0  0  0  0  0  0  0  0  0  0
   -8.8534   -0.8830   -0.0764 H   0  0  0  0  0  0  0  0  0  0  0  0
   -7.9776   -0.0417   -1.4395 H   0  0  0  0  0  0  0  0  0  0  0  0
   -7.5633   -2.1758    1.3347 H   0  0  0  0  0  0  0  0  0  0  0  0
   -6.0056   -2.8107    0.5936 H   0  0  0  0  0  0  0  0  0  0  0  0
   -5.9769   -1.5699    1.8691 H   0  0  0  0  0  0  0  0  0  0  0  0
   -3.4115   -0.6907   -2.6685 H   0  0  0  0  0  0  0  0  0  0  0  0
   -1.5755   -1.8312   -0.0828 H   0  0  0  0  0  0  0  0  0  0  0  0
    0.4956   -0.9488    0.9511 H   0  0  0  0  0  0  0  0  0  0  0  0
   -0.1261    2.7480   -1.1651 H   0  0  0  0  0  0  0  0  0  0  0  0
   -2.1341    1.8236   -2.1400 H   0  0  0  0  0  0  0  0  0  0  0  0
    2.5141    3.3700    0.8159 H   0  0  0  0  0  0  0  0  0  0  0  0
    1.8751    3.1113   -0.8308 H   0  0  0  0  0  0  0  0  0  0  0  0
    0.7488    3.5839    0.5763 H   0  0  0  0  0  0  0  0  0  0  0  0
    0.1218    1.5469    2.2597 H   0  0  0  0  0  0  0  0  0  0  0  0
    1.6457    0.6387    2.5743 H   0  0  0  0  0  0  0  0  0  0  0  0
    1.6286    2.4317    2.5794 H   0  0  0  0  0  0  0  0  0  0  0  0
    2.5266   -1.0770   -0.2422 H   0  0  0  0  0  0  0  0  0  0  0  0
    4.5809   -1.3990   -2.0622 H   0  0  0  0  0  0  0  0  0  0  0  0
    7.0372   -1.8138   -2.1327 H   0  0  0  0  0  0  0  0  0  0  0  0
    7.4381   -0.3374    1.7762 H   0  0  0  0  0  0  0  0  0  0  0  0
    4.9492    0.0646    1.8745 H   0  0  0  0  0  0  0  0  0  0  0  0
  1  2  1  0
  2  3  1  0
  2  4  1  0
  2  5  1  0
  5  6  1  0
  6  7  2  0
  6  8  1  0
  8  9  1  0
  9 10  2  0
 10 11  1  0
 11 12  2  0
 12 13  1  0
 13 14  2  0
 12 15  1  0
 15 16  1  0
 15 17  1  0
 15 18  1  0
 18 19  2  0
 18 20  1  0
 20 21  1  0
 21 22  2  0
 22 23  1  0
 23 24  2  0
 24 25  1  0
 25 26  2  0
 24 27  1  0
 27 28  1  0
 27 29  1  0
 27 30  1  0
 14  9  1  0
 26 21  1  0
  1 31  1  0
  1 32  1  0
  1 33  1  0
  3 34  1  0
  3 35  1  0
  3 36  1  0
  4 37  1  0
  4 38  1  0
  4 39  1  0
  8 40  1  0
 10 41  1  0
 11 42  1  0
 13 43  1  0
 14 44  1  0
 16 45  1  0
 16 46  1  0
 16 47  1  0
 17 48  1  0
 17 49  1  0
 17 50  1  0
 20 51  1  0
 22 52  1  0
 23 53  1  0
 25 54  1  0
 26 55  1  0
M  END
$$$$
[H]c1c([H])c(-c2c([H])c([H])c(C(F)(F)F)c([H])c2[H])c([H])c([H])c1C(=O)N([H])[C@]([H])(C([H])([H])[H])C(C([H])([H])[H])(C([H])([H])[H])C([H])([H])[H]
     RDKit          3D

 47 48  0  0  0  0  0  0  0  0999 V2000
   -4.5127   -2.0188   -0.1054 C   0  0  0  0  0  0  0  0  0  0  0  0
   -4.0601   -0.6705    0.3399 C   0  0  1  0  0  0  0  0  0  0  0  0
   -2.6186   -0.5611    0.0593 N   0  0  0  0  0  0  0  0  0  0  0  0
   -1.6781   -0.4754    1.0851 C   0  0  0  0  0  0  0  0  0  0  0  0
   -2.0847   -0.4959    2.2983 O   0  0  0  0  0  0  0  0  0  0  0  0
   -0.2683   -0.3655    0.8519 C   0  0  0  0  0  0  0  0  0  0  0  0
    0.2239    0.5836   -0.0167 C   0  0  0  0  0  0  0  0  0  0  0  0
    1.5766    0.7292   -0.2636 C   0  0  0  0  0  0  0  0  0  0  0  0
    2.5129   -0.0684    0.3507 C   0  0  0  0  0  0  0  0  0  0  0  0
    2.0057   -1.0268    1.2276 C   0  0  0  0  0  0  0  0  0  0  0  0
    0.6615   -1.1878    1.4832 C   0  0  0  0  0  0  0  0  0  0  0  0
    3.9492    0.0266    0.1668 C   0  0  0  0  0  0  0  0  0  0  0  0
    4.8575   -0.2983    1.1668 C   0  0  0  0  0  0  0  0  0  0  0  0
    6.2131   -0.2178    0.9897 C   0  0  0  0  0  0  0  0  0  0  0  0
    6.7321    0.2047   -0.2255 C   0  0  0  0  0  0  0  0  0  0  0  0
    5.8495    0.5318   -1.2286 C   0  0  0  0  0  0  0  0  0  0  0  0
    4.4850    0.4410   -1.0282 C   0  0  0  0  0  0  0  0  0  0  0  0
    8.2061    0.2936   -0.4462 C   0  0  0  0  0  0  0  0  0  0  0  0
    8.4714   -0.4704   -1.5813 F   0  0  0  0  0  0  0  0  0  0  0  0
    8.8149   -0.2760    0.6540 F   0  0  0  0  0  0  0  0  0  0  0  0
    8.6322    1.5884   -0.5874 F   0  0  0  0  0  0  0  0  0  0  0  0
   -4.7267    0.4886   -0.3156 C   0  0  0  0  0  0  0  0  0  0  0  0
   -4.4820    0.3940   -1.8162 C   0  0  0  0  0  0  0  0  0  0  0  0
   -6.1629    0.6446    0.0429 C   0  0  0  0  0  0  0  0  0  0  0  0
   -3.9628    1.7425    0.1211 C   0  0  0  0  0  0  0  0  0  0  0  0
   -5.6152   -2.0770   -0.2526 H   0  0  0  0  0  0  0  0  0  0  0  0
   -4.2753   -2.7451    0.6942 H   0  0  0  0  0  0  0  0  0  0  0  0
   -4.0218   -2.3786   -1.0258 H   0  0  0  0  0  0  0  0  0  0  0  0
   -4.1470   -0.5920    1.4584 H   0  0  0  0  0  0  0  0  0  0  0  0
   -2.2665   -0.5535   -0.9428 H   0  0  0  0  0  0  0  0  0  0  0  0
   -0.4871    1.2454   -0.5386 H   0  0  0  0  0  0  0  0  0  0  0  0
    1.9021    1.4759   -0.9414 H   0  0  0  0  0  0  0  0  0  0  0  0
    2.7420   -1.6622    1.7189 H   0  0  0  0  0  0  0  0  0  0  0  0
    0.3082   -1.9597    2.1811 H   0  0  0  0  0  0  0  0  0  0  0  0
    4.4762   -0.6244    2.1190 H   0  0  0  0  0  0  0  0  0  0  0  0
    6.9053   -0.4815    1.7863 H   0  0  0  0  0  0  0  0  0  0  0  0
    6.2370    0.8653   -2.1832 H   0  0  0  0  0  0  0  0  0  0  0  0
    3.7926    0.7041   -1.8281 H   0  0  0  0  0  0  0  0  0  0  0  0
   -4.2178   -0.6499   -2.0756 H   0  0  0  0  0  0  0  0  0  0  0  0
   -5.4206    0.6141   -2.3677 H   0  0  0  0  0  0  0  0  0  0  0  0
   -3.6768    1.0732   -2.1629 H   0  0  0  0  0  0  0  0  0  0  0  0
   -6.8242    0.0088   -0.5788 H   0  0  0  0  0  0  0  0  0  0  0  0
   -6.2831    0.4742    1.1255 H   0  0  0  0  0  0  0  0  0  0  0  0
   -6.4583    1.6971   -0.2118 H   0  0  0  0  0  0  0  0  0  0  0  0
   -3.8919    1.6969    1.2475 H   0  0  0  0  0  0  0  0  0  0  0  0
   -4.4746    2.6613   -0.1536 H   0  0  0  0  0  0  0  0  0  0  0  0
   -2.9380    1.6719   -0.2905 H   0  0  0  0  0  0  0  0  0  0  0  0
  1  2  1  0
  2  3  1  0
  3  4  1  0
  4  5  2  0
  4  6  1  0
  6  7  2  0
  7  8  1  0
  8  9  2  0
  9 10  1  0
 10 11  2  0
  9 12  1  0
 12 13  2  0
 13 14  1  0
 14 15  2  0
 15 16  1  0
 16 17  2  0
 15 18  1  0
 18 19  1  0
 18 20  1  0
 18 21  1  0
  2 22  1  0
 22 23  1  0
 22 24  1  0
 22 25  1  0
 11  6  1  0
 17 12  1  0
  1 26  1  0
  1 27  1  0
  1 28  1  0
  2 29  1  1
  3 30  1  0
  7 31  1  0
  8 32  1  0
 10 33  1  0
 11 34  1  0
 13 35  1  0
 14 36  1  0
 16 37  1  0
 17 38  1  0
 23 39  1  0
 23 40  1  0
 23 41  1  0
 24 42  1  0
 24 43  1  0
 24 44  1  0
 25 45  1  0
 25 46  1  0
 25 47  1  0
M  END
$$$$
[H]c1nc(N([H])c2c([H])c([H])c(N3C([H])([H])C([H])([H])C([H])([H])C3([H])[H])c([H])c2OC([H])([H])[H])nc(N([H])c2c([H])c([H])c([H])c([H])c2S(=O)(=O)C([H])(C([H])([H])[H])C([H])([H])[H])c1Cl
     RDKit          3D

 62 65  0  0  0  0  0  0  0  0999 V2000
    3.2096   -2.0609    2.6947 C   0  0  0  0  0  0  0  0  0  0  0  0
    2.4224   -1.4133    1.7127 O   0  0  0  0  0  0  0  0  0  0  0  0
    2.9677   -0.3618    0.9953 C   0  0  0  0  0  0  0  0  0  0  0  0
    4.2572    0.0530    1.2291 C   0  0  0  0  0  0  0  0  0  0  0  0
    4.8235    1.0886    0.5366 C   0  0  0  0  0  0  0  0  0  0  0  0
    4.0752    1.7161   -0.4079 C   0  0  0  0  0  0  0  0  0  0  0  0
    2.7540    1.2879   -0.6446 C   0  0  0  0  0  0  0  0  0  0  0  0
    2.1664    0.2666    0.0243 C   0  0  0  0  0  0  0  0  0  0  0  0
    0.8696   -0.1802   -0.1856 N   0  0  0  0  0  0  0  0  0  0  0  0
   -0.1084    0.2853   -1.0961 C   0  0  0  0  0  0  0  0  0  0  0  0
    0.0610    1.2910   -1.9564 N   0  0  0  0  0  0  0  0  0  0  0  0
   -0.8873    1.7043   -2.8056 C   0  0  0  0  0  0  0  0  0  0  0  0
   -2.1134    1.0929   -2.8294 C   0  0  0  0  0  0  0  0  0  0  0  0
   -3.3915    1.5675   -3.9002 Cl  0  0  0  0  0  0  0  0  0  0  0  0
   -2.3447    0.0208   -1.9370 C   0  0  0  0  0  0  0  0  0  0  0  0
   -3.6191   -0.5623   -1.9497 N   0  0  0  0  0  0  0  0  0  0  0  0
   -4.0331   -1.6625   -1.1801 C   0  0  0  0  0  0  0  0  0  0  0  0
   -3.0825   -2.5500   -0.6621 C   0  0  0  0  0  0  0  0  0  0  0  0
   -3.4800   -3.7098   -0.0047 C   0  0  0  0  0  0  0  0  0  0  0  0
   -4.8200   -3.9597    0.1206 C   0  0  0  0  0  0  0  0  0  0  0  0
   -5.7733   -3.1221   -0.3685 C   0  0  0  0  0  0  0  0  0  0  0  0
   -5.4002   -1.9313   -1.0412 C   0  0  0  0  0  0  0  0  0  0  0  0
   -6.6384   -0.8507   -1.5489 S   0  0  0  0  0  0  0  0  0  0  0  0
   -7.9900   -1.6248   -1.4519 O   0  0  0  0  0  0  0  0  0  0  0  0
   -6.4774   -0.4460   -2.9853 O   0  0  0  0  0  0  0  0  0  0  0  0
   -6.8303    0.5130   -0.4913 C   0  0  0  0  0  0  0  0  0  0  0  0
   -7.3705    0.0426    0.8690 C   0  0  0  0  0  0  0  0  0  0  0  0
   -5.5901    1.2834   -0.2036 C   0  0  0  0  0  0  0  0  0  0  0  0
   -1.3250   -0.2996   -1.1400 N   0  0  0  0  0  0  0  0  0  0  0  0
    6.1674    1.4448    0.8462 N   0  0  0  0  0  0  0  0  0  0  0  0
    6.8682    2.5381    0.1883 C   0  0  0  0  0  0  0  0  0  0  0  0
    8.2520    2.5587    0.7521 C   0  0  0  0  0  0  0  0  0  0  0  0
    8.4449    1.1679    1.3147 C   0  0  0  0  0  0  0  0  0  0  0  0
    7.0530    0.8320    1.8113 C   0  0  0  0  0  0  0  0  0  0  0  0
    4.0894   -2.5362    2.1987 H   0  0  0  0  0  0  0  0  0  0  0  0
    2.6755   -2.8565    3.2164 H   0  0  0  0  0  0  0  0  0  0  0  0
    3.5743   -1.2577    3.3766 H   0  0  0  0  0  0  0  0  0  0  0  0
    4.8446   -0.4612    1.9910 H   0  0  0  0  0  0  0  0  0  0  0  0
    4.5234    2.5305   -0.9509 H   0  0  0  0  0  0  0  0  0  0  0  0
    2.2714    1.8655   -1.4148 H   0  0  0  0  0  0  0  0  0  0  0  0
    0.5351   -1.0076    0.4279 H   0  0  0  0  0  0  0  0  0  0  0  0
   -0.7109    2.5334   -3.4969 H   0  0  0  0  0  0  0  0  0  0  0  0
   -4.3140   -0.1463   -2.6066 H   0  0  0  0  0  0  0  0  0  0  0  0
   -2.0227   -2.3788   -0.7743 H   0  0  0  0  0  0  0  0  0  0  0  0
   -2.7473   -4.3997    0.3987 H   0  0  0  0  0  0  0  0  0  0  0  0
   -5.1686   -4.8689    0.6336 H   0  0  0  0  0  0  0  0  0  0  0  0
   -6.8436   -3.3243   -0.2661 H   0  0  0  0  0  0  0  0  0  0  0  0
   -7.6366    1.2216   -0.8449 H   0  0  0  0  0  0  0  0  0  0  0  0
   -8.2066   -0.6669    0.7112 H   0  0  0  0  0  0  0  0  0  0  0  0
   -7.7906    0.9344    1.3833 H   0  0  0  0  0  0  0  0  0  0  0  0
   -6.5680   -0.3436    1.5138 H   0  0  0  0  0  0  0  0  0  0  0  0
   -4.8537    0.7097    0.3759 H   0  0  0  0  0  0  0  0  0  0  0  0
   -5.8201    2.1632    0.4907 H   0  0  0  0  0  0  0  0  0  0  0  0
   -5.2221    1.7511   -1.1308 H   0  0  0  0  0  0  0  0  0  0  0  0
    6.3066    3.4803    0.3755 H   0  0  0  0  0  0  0  0  0  0  0  0
    6.8731    2.3300   -0.9042 H   0  0  0  0  0  0  0  0  0  0  0  0
    8.4205    3.3305    1.5265 H   0  0  0  0  0  0  0  0  0  0  0  0
    8.9618    2.7046   -0.1146 H   0  0  0  0  0  0  0  0  0  0  0  0
    8.6951    0.5113    0.4519 H   0  0  0  0  0  0  0  0  0  0  0  0
    9.2055    1.1239    2.1031 H   0  0  0  0  0  0  0  0  0  0  0  0
    6.8957   -0.2634    1.8903 H   0  0  0  0  0  0  0  0  0  0  0  0
    6.9158    1.3020    2.8021 H   0  0  0  0  0  0  0  0  0  0  0  0
  1  2  1  0
  2  3  1  0
  3  4  2  0
  4  5  1  0
  5  6  2  0
  6  7  1  0
  7  8  2  0
  8  9  1  0
  9 10  1  0
 10 11  2  0
 11 12  1  0
 12 13  2  0
 13 14  1  0
 13 15  1  0
 15 16  1  0
 16 17  1  0
 17 18  2  0
 18 19  1  0
 19 20  2  0
 20 21  1  0
 21 22  2  0
 22 23  1  0
 23 24  2  0
 23 25  2  0
 23 26  1  0
 26 27  1  0
 26 28  1  0
 15 29  2  0
  5 30  1  0
 30 31  1  0
 31 32  1  0
 32 33  1  0
 33 34  1  0
  8  3  1  0
 29 10  1  0
 34 30  1  0
 22 17  1  0
  1 35  1  0
  1 36  1  0
  1 37  1  0
  4 38  1  0
  6 39  1  0
  7 40  1  0
  9 41  1  0
 12 42  1  0
 16 43  1  0
 18 44  1  0
 19 45  1  0
 20 46  1  0
 21 47  1  0
 26 48  1  0
 27 49  1  0
 27 50  1  0
 27 51  1  0
 28 52  1  0
 28 53  1  0
 28 54  1  0
 31 55  1  0
 31 56  1  0
 32 57  1  0
 32 58  1  0
 33 59  1  0
 33 60  1  0
 34 61  1  0
 34 62  1  0
M  END
$$$$
