[H]OC(=O)C1([H])C([H])([H])C([H])=C(c2nc3c(c([H])c2[H])C([H])([H])N(C([H])([H])C(F)(F)F)C([H])([H])C3([H])[H])C([H])([H])C1([H])[H]
     RDKit          3D

 43 45  0  0  0  0  0  0  0  0999 V2000
    6.9514   -0.5885    1.4327 O   0  0  0  0  0  0  0  0  0  0  0  0
    6.2904   -0.5563    0.2245 C   0  0  0  0  0  0  0  0  0  0  0  0
    6.7509   -1.1949   -0.7417 O   0  0  0  0  0  0  0  0  0  0  0  0
    5.0499    0.2300    0.0868 C   0  0  0  0  0  0  0  0  0  0  0  0
    4.0373   -0.3389    1.0568 C   0  0  0  0  0  0  0  0  0  0  0  0
    2.7792    0.4861    0.9123 C   0  0  0  0  0  0  0  0  0  0  0  0
    2.2320    0.2564   -0.4477 C   0  0  0  0  0  0  0  0  0  0  0  0
    3.0691    0.1564   -1.4383 C   0  0  0  0  0  0  0  0  0  0  0  0
    4.5543    0.2547   -1.3180 C   0  0  0  0  0  0  0  0  0  0  0  0
    0.7838    0.1609   -0.5783 C   0  0  0  0  0  0  0  0  0  0  0  0
    0.1384   -0.0490   -1.7745 C   0  0  0  0  0  0  0  0  0  0  0  0
   -1.2474   -0.1391   -1.8953 C   0  0  0  0  0  0  0  0  0  0  0  0
   -2.0170   -0.0097   -0.7420 C   0  0  0  0  0  0  0  0  0  0  0  0
   -3.4739   -0.1011   -0.8455 C   0  0  0  0  0  0  0  0  0  0  0  0
   -4.1531   -0.3518    0.3702 N   0  0  0  0  0  0  0  0  0  0  0  0
   -5.4127    0.2936    0.5295 C   0  0  0  0  0  0  0  0  0  0  0  0
   -6.4921   -0.2296   -0.3990 C   0  0  0  0  0  0  0  0  0  0  0  0
   -6.6638   -1.5744   -0.1371 F   0  0  0  0  0  0  0  0  0  0  0  0
   -6.2062   -0.0125   -1.7314 F   0  0  0  0  0  0  0  0  0  0  0  0
   -7.6983    0.4047   -0.1476 F   0  0  0  0  0  0  0  0  0  0  0  0
   -3.3825   -0.5476    1.5405 C   0  0  0  0  0  0  0  0  0  0  0  0
   -2.1737    0.3392    1.6702 C   0  0  0  0  0  0  0  0  0  0  0  0
   -1.3558    0.1999    0.4457 C   0  0  0  0  0  0  0  0  0  0  0  0
   -0.0211    0.2803    0.5177 N   0  0  0  0  0  0  0  0  0  0  0  0
    7.1508    0.2568    1.9483 H   0  0  0  0  0  0  0  0  0  0  0  0
    5.2351    1.2844    0.4364 H   0  0  0  0  0  0  0  0  0  0  0  0
    3.8795   -1.3974    0.7804 H   0  0  0  0  0  0  0  0  0  0  0  0
    4.4222   -0.2135    2.0889 H   0  0  0  0  0  0  0  0  0  0  0  0
    2.0149    0.2205    1.6532 H   0  0  0  0  0  0  0  0  0  0  0  0
    3.0653    1.5608    0.9511 H   0  0  0  0  0  0  0  0  0  0  0  0
    2.6984   -0.0101   -2.4347 H   0  0  0  0  0  0  0  0  0  0  0  0
    4.9084    1.1816   -1.8452 H   0  0  0  0  0  0  0  0  0  0  0  0
    4.9932   -0.6017   -1.8995 H   0  0  0  0  0  0  0  0  0  0  0  0
    0.7157   -0.1520   -2.6793 H   0  0  0  0  0  0  0  0  0  0  0  0
   -1.7243   -0.3047   -2.8530 H   0  0  0  0  0  0  0  0  0  0  0  0
   -3.8871    0.8003   -1.3651 H   0  0  0  0  0  0  0  0  0  0  0  0
   -3.6985   -0.9562   -1.5462 H   0  0  0  0  0  0  0  0  0  0  0  0
   -5.2614    1.3726    0.2243 H   0  0  0  0  0  0  0  0  0  0  0  0
   -5.8050    0.2281    1.5560 H   0  0  0  0  0  0  0  0  0  0  0  0
   -3.0221   -1.5989    1.5483 H   0  0  0  0  0  0  0  0  0  0  0  0
   -4.0115   -0.3985    2.4383 H   0  0  0  0  0  0  0  0  0  0  0  0
   -2.4325    1.3966    1.8745 H   0  0  0  0  0  0  0  0  0  0  0  0
   -1.5800   -0.0378    2.5327 H   0  0  0  0  0  0  0  0  0  0  0  0
  1  2  1  0
  2  3  2  0
  2  4  1  0
  4  5  1  0
  5  6  1  0
  6  7  1  0
  7  8  2  0
  8  9  1  0
  7 10  1  0
 10 11  2  0
 11 12  1  0
 12 13  2  0
 13 14  1  0
 14 15  1  0
 15 16  1  0
 16 17  1  0
 17 18  1  0
 17 19  1  0
 17 20  1  0
 15 21  1  0
 21 22  1  0
 22 23  1  0
 23 24  2  0
  9  4  1  0
 24 10  1  0
 23 13  1  0
  1 25  1  0
  4 26  1  0
  5 27  1  0
  5 28  1  0
  6 29  1  0
  6 30  1  0
  8 31  1  0
  9 32  1  0
  9 33  1  0
 11 34  1  0
 12 35  1  0
 14 36  1  0
 14 37  1  0
 16 38  1  0
 16 39  1  0
 21 40  1  0
 21 41  1  0
 22 42  1  0
 22 43  1  0
M  END
$$$$
[H]Oc1c([H])c([H])c2c(=O)c([H])c(-c3c([H])c([H])c(C([H])([H])[H])c([H])c3[H])oc2c1[H]
     RDKit          3D

 31 33  0  0  0  0  0  0  0  0999 V2000
   -5.5521   -0.8405    0.3652 C   0  0  0  0  0  0  0  0  0  0  0  0
   -4.1182   -0.5088    0.2327 C   0  0  0  0  0  0  0  0  0  0  0  0
   -3.7203    0.6342   -0.3906 C   0  0  0  0  0  0  0  0  0  0  0  0
   -2.3813    0.9571   -0.5217 C   0  0  0  0  0  0  0  0  0  0  0  0
   -1.4101    0.1343   -0.0268 C   0  0  0  0  0  0  0  0  0  0  0  0
   -1.8007   -1.0333    0.6105 C   0  0  0  0  0  0  0  0  0  0  0  0
   -3.1340   -1.3293    0.7268 C   0  0  0  0  0  0  0  0  0  0  0  0
    0.0129    0.4600   -0.1564 C   0  0  0  0  0  0  0  0  0  0  0  0
    0.4239    1.6105   -0.7834 C   0  0  0  0  0  0  0  0  0  0  0  0
    1.7826    1.8361   -0.8594 C   0  0  0  0  0  0  0  0  0  0  0  0
    2.1739    2.8814   -1.4284 O   0  0  0  0  0  0  0  0  0  0  0  0
    2.6659    0.9312   -0.3220 C   0  0  0  0  0  0  0  0  0  0  0  0
    4.0395    1.1143   -0.3737 C   0  0  0  0  0  0  0  0  0  0  0  0
    4.9137    0.1905    0.1739 C   0  0  0  0  0  0  0  0  0  0  0  0
    4.4345   -0.9461    0.7907 C   0  0  0  0  0  0  0  0  0  0  0  0
    5.3208   -1.8890    1.3494 O   0  0  0  0  0  0  0  0  0  0  0  0
    3.0734   -1.1365    0.8470 C   0  0  0  0  0  0  0  0  0  0  0  0
    2.1960   -0.2079    0.2965 C   0  0  0  0  0  0  0  0  0  0  0  0
    0.9021   -0.3689    0.3389 O   0  0  0  0  0  0  0  0  0  0  0  0
   -5.7624   -1.8973    0.1227 H   0  0  0  0  0  0  0  0  0  0  0  0
   -5.9050   -0.5915    1.3931 H   0  0  0  0  0  0  0  0  0  0  0  0
   -6.1473   -0.2164   -0.3222 H   0  0  0  0  0  0  0  0  0  0  0  0
   -4.4953    1.2942   -0.7874 H   0  0  0  0  0  0  0  0  0  0  0  0
   -2.1813    1.8848   -1.0321 H   0  0  0  0  0  0  0  0  0  0  0  0
   -1.0134   -1.6728    0.9963 H   0  0  0  0  0  0  0  0  0  0  0  0
   -3.4390   -2.2452    1.2268 H   0  0  0  0  0  0  0  0  0  0  0  0
   -0.2759    2.3387   -1.2155 H   0  0  0  0  0  0  0  0  0  0  0  0
    4.3854    2.0211   -0.8671 H   0  0  0  0  0  0  0  0  0  0  0  0
    5.9860    0.3467    0.1261 H   0  0  0  0  0  0  0  0  0  0  0  0
    6.3140   -1.7228    1.2932 H   0  0  0  0  0  0  0  0  0  0  0  0
    2.7119   -2.0289    1.3318 H   0  0  0  0  0  0  0  0  0  0  0  0
  1  2  1  0
  2  3  2  0
  3  4  1  0
  4  5  2  0
  5  6  1  0
  6  7  2  0
  5  8  1  0
  8  9  2  0
  9 10  1  0
 10 11  2  0
 10 12  1  0
 12 13  2  0
 13 14  1  0
 14 15  2  0
 15 16  1  0
 15 17  1  0
 17 18  2  0
 18 19  1  0
  7  2  1  0
 19  8  1  0
 18 12  1  0
  1 20  1  0
  1 21  1  0
  1 22  1  0
  3 23  1  0
  4 24  1  0
  6 25  1  0
  7 26  1  0
  9 27  1  0
 13 28  1  0
 14 29  1  0
 16 30  1  0
 17 31  1  0
M  END
$$$$
[H]c1c([H])c(S(=O)(=O)N([H])C(=O)[C@@]([H])(N([H])[H])C([H])([H])C([H])(C([H])([H])[H])C([H])([H])[H])c([H])c([H])c1N([H])[H]
     RDKit          3D

 38 38  0  0  0  0  0  0  0  0999 V2000
   -5.0146   -0.1509   -1.0348 C   0  0  0  0  0  0  0  0  0  0  0  0
   -4.1881   -0.7844    0.0348 C   0  0  0  0  0  0  0  0  0  0  0  0
   -5.0902   -1.1409    1.1905 C   0  0  0  0  0  0  0  0  0  0  0  0
   -3.0683    0.0679    0.5398 C   0  0  0  0  0  0  0  0  0  0  0  0
   -2.0902    0.4364   -0.5549 C   0  0  2  0  0  0  0  0  0  0  0  0
   -1.5426   -0.7852   -1.0895 N   0  0  0  0  0  0  0  0  0  0  0  0
   -1.0178    1.2651    0.0168 C   0  0  0  0  0  0  0  0  0  0  0  0
   -1.2872    2.3682    0.5277 O   0  0  0  0  0  0  0  0  0  0  0  0
    0.3182    0.8160   -0.0105 N   0  0  0  0  0  0  0  0  0  0  0  0
    1.5956    1.7736    0.6561 S   0  0  0  0  0  0  0  0  0  0  0  0
    1.2679    2.1199    2.0730 O   0  0  0  0  0  0  0  0  0  0  0  0
    1.7342    3.0213   -0.1555 O   0  0  0  0  0  0  0  0  0  0  0  0
    3.0879    0.8707    0.5456 C   0  0  0  0  0  0  0  0  0  0  0  0
    3.9000    0.9809   -0.5752 C   0  0  0  0  0  0  0  0  0  0  0  0
    5.0736    0.2609   -0.6454 C   0  0  0  0  0  0  0  0  0  0  0  0
    5.4796   -0.5752    0.3648 C   0  0  0  0  0  0  0  0  0  0  0  0
    6.6851   -1.3007    0.2688 N   0  0  0  0  0  0  0  0  0  0  0  0
    4.6870   -0.6996    1.4881 C   0  0  0  0  0  0  0  0  0  0  0  0
    3.5185    0.0204    1.5525 C   0  0  0  0  0  0  0  0  0  0  0  0
   -4.7914    0.9117   -1.2273 H   0  0  0  0  0  0  0  0  0  0  0  0
   -4.8850   -0.6969   -2.0087 H   0  0  0  0  0  0  0  0  0  0  0  0
   -6.1023   -0.2194   -0.8069 H   0  0  0  0  0  0  0  0  0  0  0  0
   -3.7469   -1.7385   -0.3395 H   0  0  0  0  0  0  0  0  0  0  0  0
   -6.0303   -1.5561    0.7890 H   0  0  0  0  0  0  0  0  0  0  0  0
   -4.6156   -1.8434    1.8999 H   0  0  0  0  0  0  0  0  0  0  0  0
   -5.3524   -0.1876    1.7022 H   0  0  0  0  0  0  0  0  0  0  0  0
   -3.4779    0.9541    1.0635 H   0  0  0  0  0  0  0  0  0  0  0  0
   -2.5067   -0.5230    1.2890 H   0  0  0  0  0  0  0  0  0  0  0  0
   -2.5704    1.0260   -1.3623 H   0  0  0  0  0  0  0  0  0  0  0  0
   -1.0905   -1.3359   -0.3345 H   0  0  0  0  0  0  0  0  0  0  0  0
   -0.9264   -0.6261   -1.9139 H   0  0  0  0  0  0  0  0  0  0  0  0
    0.5420   -0.1127   -0.4415 H   0  0  0  0  0  0  0  0  0  0  0  0
    3.5999    1.6336   -1.3832 H   0  0  0  0  0  0  0  0  0  0  0  0
    5.7227    0.3334   -1.5135 H   0  0  0  0  0  0  0  0  0  0  0  0
    7.1899   -1.4147   -0.6328 H   0  0  0  0  0  0  0  0  0  0  0  0
    7.0932   -1.7402    1.1168 H   0  0  0  0  0  0  0  0  0  0  0  0
    5.0162   -1.3653    2.2853 H   0  0  0  0  0  0  0  0  0  0  0  0
    2.8833   -0.0633    2.4242 H   0  0  0  0  0  0  0  0  0  0  0  0
  1  2  1  0
  2  3  1  0
  2  4  1  0
  4  5  1  0
  5  6  1  0
  5  7  1  0
  7  8  2  0
  7  9  1  0
  9 10  1  0
 10 11  2  0
 10 12  2  0
 10 13  1  0
 13 14  2  0
 14 15  1  0
 15 16  2  0
 16 17  1  0
 16 18  1  0
 18 19  2  0
 19 13  1  0
  1 20  1  0
  1 21  1  0
  1 22  1  0
  2 23  1  0
  3 24  1  0
  3 25  1  0
  3 26  1  0
  4 27  1  0
  4 28  1  0
  5 29  1  6
  6 30  1  0
  6 31  1  0
  9 32  1  0
 14 33  1  0
 15 34  1  0
 17 35  1  0
 17 36  1  0
 18 37  1  0
 19 38  1  0
M  END
$$$$
[H]c1nc(N([H])c2c([H])c([H])c([H])c(-n3nc([H])c([H])c3[H])c2[H])sc1-c1nn(C([H])([H])[H])c(=O)c([H])c1[H]
     RDKit          3D

 39 42  0  0  0  0  0  0  0  0999 V2000
    7.0130    2.4010    0.7691 C   0  0  0  0  0  0  0  0  0  0  0  0
    6.3424    1.1473    0.4758 N   0  0  0  0  0  0  0  0  0  0  0  0
    5.0407    1.0209    0.4239 N   0  0  0  0  0  0  0  0  0  0  0  0
    4.4077   -0.1288    0.1547 C   0  0  0  0  0  0  0  0  0  0  0  0
    5.1155   -1.2731   -0.0891 C   0  0  0  0  0  0  0  0  0  0  0  0
    6.5093   -1.1686   -0.0404 C   0  0  0  0  0  0  0  0  0  0  0  0
    7.0911    0.0487    0.2431 C   0  0  0  0  0  0  0  0  0  0  0  0
    8.3408    0.1224    0.2823 O   0  0  0  0  0  0  0  0  0  0  0  0
    2.9307   -0.1873    0.1148 C   0  0  0  0  0  0  0  0  0  0  0  0
    2.1390   -1.2723   -0.1428 C   0  0  0  0  0  0  0  0  0  0  0  0
    0.8583   -1.0956   -0.1264 N   0  0  0  0  0  0  0  0  0  0  0  0
    0.3301    0.0752    0.1265 C   0  0  0  0  0  0  0  0  0  0  0  0
   -1.0148    0.5423    0.2067 N   0  0  0  0  0  0  0  0  0  0  0  0
   -2.1530   -0.2596    0.0227 C   0  0  0  0  0  0  0  0  0  0  0  0
   -2.1906   -1.6274   -0.0578 C   0  0  0  0  0  0  0  0  0  0  0  0
   -3.3581   -2.3598   -0.2563 C   0  0  0  0  0  0  0  0  0  0  0  0
   -4.5403   -1.6617   -0.3774 C   0  0  0  0  0  0  0  0  0  0  0  0
   -4.5758   -0.2912   -0.3062 C   0  0  0  0  0  0  0  0  0  0  0  0
   -3.4003    0.3745   -0.1105 C   0  0  0  0  0  0  0  0  0  0  0  0
   -5.8067    0.3829   -0.4349 N   0  0  0  0  0  0  0  0  0  0  0  0
   -6.8972    0.1759    0.3288 C   0  0  0  0  0  0  0  0  0  0  0  0
   -7.9137    1.0099   -0.0800 C   0  0  0  0  0  0  0  0  0  0  0  0
   -7.3909    1.7364   -1.1307 C   0  0  0  0  0  0  0  0  0  0  0  0
   -6.1178    1.3369   -1.3225 N   0  0  0  0  0  0  0  0  0  0  0  0
    1.7693    1.0325    0.3672 S   0  0  0  0  0  0  0  0  0  0  0  0
    8.0356    2.2220    1.1241 H   0  0  0  0  0  0  0  0  0  0  0  0
    6.3916    2.9122    1.5379 H   0  0  0  0  0  0  0  0  0  0  0  0
    7.0039    3.0325   -0.1429 H   0  0  0  0  0  0  0  0  0  0  0  0
    4.6621   -2.2237   -0.3104 H   0  0  0  0  0  0  0  0  0  0  0  0
    7.1276   -2.0139   -0.2187 H   0  0  0  0  0  0  0  0  0  0  0  0
    2.6005   -2.2594   -0.3557 H   0  0  0  0  0  0  0  0  0  0  0  0
   -1.1561    1.5873    0.4286 H   0  0  0  0  0  0  0  0  0  0  0  0
   -1.2738   -2.1863    0.0445 H   0  0  0  0  0  0  0  0  0  0  0  0
   -3.2905   -3.4406   -0.3071 H   0  0  0  0  0  0  0  0  0  0  0  0
   -5.4461   -2.2544   -0.5328 H   0  0  0  0  0  0  0  0  0  0  0  0
   -3.4057    1.4580   -0.0518 H   0  0  0  0  0  0  0  0  0  0  0  0
   -6.9944   -0.5263    1.1430 H   0  0  0  0  0  0  0  0  0  0  0  0
   -8.9165    1.1155    0.2993 H   0  0  0  0  0  0  0  0  0  0  0  0
   -7.8670    2.4954   -1.7241 H   0  0  0  0  0  0  0  0  0  0  0  0
  1  2  1  0
  2  3  1  0
  3  4  2  0
  4  5  1  0
  5  6  2  0
  6  7  1  0
  7  8  2  0
  4  9  1  0
  9 10  2  0
 10 11  1  0
 11 12  2  0
 12 13  1  0
 13 14  1  0
 14 15  2  0
 15 16  1  0
 16 17  2  0
 17 18  1  0
 18 19  2  0
 18 20  1  0
 20 21  1  0
 21 22  2  0
 22 23  1  0
 23 24  2  0
 12 25  1  0
  7  2  1  0
 25  9  1  0
 19 14  1  0
 24 20  1  0
  1 26  1  0
  1 27  1  0
  1 28  1  0
  5 29  1  0
  6 30  1  0
 10 31  1  0
 13 32  1  0
 15 33  1  0
 16 34  1  0
 17 35  1  0
 19 36  1  0
 21 37  1  0
 22 38  1  0
 23 39  1  0
M  END
$$$$
[H]c1nc2c(c([H])c([H])n2[H])c(C([H])([H])[H])c1-c1sc(C([H])([H])N2C([H])([H])C([H])([H])N(C([H])([H])C([H])([H])[H])C([H])([H])C2([H])[H])c([H])c1[H]
     RDKit          3D

 48 51  0  0  0  0  0  0  0  0999 V2000
    6.2141    1.6363    0.1818 C   0  0  0  0  0  0  0  0  0  0  0  0
    4.9058    1.2877    0.7965 C   0  0  0  0  0  0  0  0  0  0  0  0
    4.6019   -0.1136    0.7949 N   0  0  0  0  0  0  0  0  0  0  0  0
    3.3598   -0.4548    1.3765 C   0  0  0  0  0  0  0  0  0  0  0  0
    2.4849   -1.3448    0.5347 C   0  0  0  0  0  0  0  0  0  0  0  0
    2.6661   -1.1013   -0.8588 N   0  0  0  0  0  0  0  0  0  0  0  0
    1.9917    0.0421   -1.3828 C   0  0  0  0  0  0  0  0  0  0  0  0
    0.4944   -0.0645   -1.1981 C   0  0  0  0  0  0  0  0  0  0  0  0
   -0.4029   -0.6534   -2.0412 C   0  0  0  0  0  0  0  0  0  0  0  0
   -1.7115   -0.6309   -1.6742 C   0  0  0  0  0  0  0  0  0  0  0  0
   -2.0478   -0.0350   -0.5127 C   0  0  0  0  0  0  0  0  0  0  0  0
   -0.4918    0.4942    0.0597 S   0  0  0  0  0  0  0  0  0  0  0  0
   -3.2585    0.1873    0.2509 C   0  0  0  0  0  0  0  0  0  0  0  0
   -3.1641    0.6790    1.5674 C   0  0  0  0  0  0  0  0  0  0  0  0
   -4.1872    0.9381    2.3559 N   0  0  0  0  0  0  0  0  0  0  0  0
   -5.4294    0.7326    1.9121 C   0  0  0  0  0  0  0  0  0  0  0  0
   -6.6261    0.9086    2.4950 N   0  0  0  0  0  0  0  0  0  0  0  0
   -7.5895    0.5556    1.6296 C   0  0  0  0  0  0  0  0  0  0  0  0
   -6.9599    0.1407    0.4531 C   0  0  0  0  0  0  0  0  0  0  0  0
   -5.6138    0.2542    0.6376 C   0  0  0  0  0  0  0  0  0  0  0  0
   -4.5127   -0.0219   -0.2056 C   0  0  0  0  0  0  0  0  0  0  0  0
   -4.7837   -0.5003   -1.5686 C   0  0  0  0  0  0  0  0  0  0  0  0
    4.0090   -1.2530   -1.3151 C   0  0  0  0  0  0  0  0  0  0  0  0
    5.0459   -0.8501   -0.3156 C   0  0  0  0  0  0  0  0  0  0  0  0
    7.0074    0.8697    0.3548 H   0  0  0  0  0  0  0  0  0  0  0  0
    6.5947    2.5675    0.6913 H   0  0  0  0  0  0  0  0  0  0  0  0
    6.1286    1.9162   -0.8892 H   0  0  0  0  0  0  0  0  0  0  0  0
    4.9364    1.6057    1.8781 H   0  0  0  0  0  0  0  0  0  0  0  0
    4.1118    1.8978    0.3371 H   0  0  0  0  0  0  0  0  0  0  0  0
    2.7455    0.4264    1.6914 H   0  0  0  0  0  0  0  0  0  0  0  0
    3.5649   -1.0095    2.3338 H   0  0  0  0  0  0  0  0  0  0  0  0
    2.8086   -2.4103    0.7230 H   0  0  0  0  0  0  0  0  0  0  0  0
    1.4293   -1.2751    0.7979 H   0  0  0  0  0  0  0  0  0  0  0  0
    2.2362    0.1407   -2.4574 H   0  0  0  0  0  0  0  0  0  0  0  0
    2.2685    0.9998   -0.9069 H   0  0  0  0  0  0  0  0  0  0  0  0
   -0.0694   -1.1369   -3.0006 H   0  0  0  0  0  0  0  0  0  0  0  0
   -2.4723   -1.1203   -2.3315 H   0  0  0  0  0  0  0  0  0  0  0  0
   -2.1561    0.8582    1.9666 H   0  0  0  0  0  0  0  0  0  0  0  0
   -6.7908    1.2581    3.4530 H   0  0  0  0  0  0  0  0  0  0  0  0
   -8.6567    0.5709    1.7673 H   0  0  0  0  0  0  0  0  0  0  0  0
   -7.4354   -0.2091   -0.4466 H   0  0  0  0  0  0  0  0  0  0  0  0
   -4.3320    0.1907   -2.3119 H   0  0  0  0  0  0  0  0  0  0  0  0
   -4.6455   -1.5635   -1.7406 H   0  0  0  0  0  0  0  0  0  0  0  0
   -5.9006   -0.3334   -1.7530 H   0  0  0  0  0  0  0  0  0  0  0  0
    4.1163   -0.6863   -2.2798 H   0  0  0  0  0  0  0  0  0  0  0  0
    4.1315   -2.3301   -1.6206 H   0  0  0  0  0  0  0  0  0  0  0  0
    5.8265   -0.2760   -0.8531 H   0  0  0  0  0  0  0  0  0  0  0  0
    5.5581   -1.7842    0.0362 H   0  0  0  0  0  0  0  0  0  0  0  0
  1  2  1  0
  2  3  1  0
  3  4  1  0
  4  5  1  0
  5  6  1  0
  6  7  1  0
  7  8  1  0
  8  9  2  0
  9 10  1  0
 10 11  2  0
 11 12  1  0
 11 13  1  0
 13 14  2  0
 14 15  1  0
 15 16  2  0
 16 17  1  0
 17 18  1  0
 18 19  2  0
 19 20  1  0
 20 21  2  0
 21 22  1  0
  6 23  1  0
 23 24  1  0
 24  3  1  0
 12  8  1  0
 21 13  1  0
 20 16  1  0
  1 25  1  0
  1 26  1  0
  1 27  1  0
  2 28  1  0
  2 29  1  0
  4 30  1  0
  4 31  1  0
  5 32  1  0
  5 33  1  0
  7 34  1  0
  7 35  1  0
  9 36  1  0
 10 37  1  0
 14 38  1  0
 17 39  1  0
 18 40  1  0
 19 41  1  0
 22 42  1  0
 22 43  1  0
 22 44  1  0
 23 45  1  0
 23 46  1  0
 24 47  1  0
 24 48  1  0
M  END
$$$$
[H]N=C(c1c([H])c([H])c(C([H])([H])n2c([H])nc(C(=S)N([H])C([H])([H])c3c([H])c([H])c([H])c(F)c3[H])c2[H])c([H])c1[H])N([H])[H]
     RDKit          3D

 44 46  0  0  0  0  0  0  0  0999 V2000
    7.8127    0.2185    0.3377 N   0  0  0  0  0  0  0  0  0  0  0  0
    6.8799    1.1991   -0.0951 C   0  0  0  0  0  0  0  0  0  0  0  0
    7.2663    2.4238   -0.1192 N   0  0  0  0  0  0  0  0  0  0  0  0
    5.5446    0.7555   -0.4842 C   0  0  0  0  0  0  0  0  0  0  0  0
    4.5882    1.6519   -0.9142 C   0  0  0  0  0  0  0  0  0  0  0  0
    3.3091    1.2256   -1.2868 C   0  0  0  0  0  0  0  0  0  0  0  0
    2.9594   -0.1074   -1.2370 C   0  0  0  0  0  0  0  0  0  0  0  0
    1.5985   -0.5744   -1.6317 C   0  0  0  0  0  0  0  0  0  0  0  0
    0.6996   -0.5817   -0.5085 N   0  0  0  0  0  0  0  0  0  0  0  0
    0.4979   -1.6138    0.3273 C   0  0  0  0  0  0  0  0  0  0  0  0
   -0.4081   -1.2168    1.2304 N   0  0  0  0  0  0  0  0  0  0  0  0
   -0.7778    0.0506    0.9726 C   0  0  0  0  0  0  0  0  0  0  0  0
   -0.0763    0.4534   -0.1289 C   0  0  0  0  0  0  0  0  0  0  0  0
   -1.7419    0.7796    1.7598 C   0  0  0  0  0  0  0  0  0  0  0  0
   -1.2682    1.8964    2.8719 S   0  0  0  0  0  0  0  0  0  0  0  0
   -3.1186    0.5399    1.5824 N   0  0  0  0  0  0  0  0  0  0  0  0
   -3.5601   -0.4331    0.6147 C   0  0  0  0  0  0  0  0  0  0  0  0
   -5.0401   -0.5222    0.5950 C   0  0  0  0  0  0  0  0  0  0  0  0
   -5.7348   -1.3958    1.4016 C   0  0  0  0  0  0  0  0  0  0  0  0
   -7.1167   -1.4786    1.3827 C   0  0  0  0  0  0  0  0  0  0  0  0
   -7.7580   -0.6253    0.4994 C   0  0  0  0  0  0  0  0  0  0  0  0
   -7.0882    0.2427   -0.3036 C   0  0  0  0  0  0  0  0  0  0  0  0
   -7.7722    1.0429   -1.1380 F   0  0  0  0  0  0  0  0  0  0  0  0
   -5.7247    0.3050   -0.2659 C   0  0  0  0  0  0  0  0  0  0  0  0
    3.9207   -0.9977   -0.8061 C   0  0  0  0  0  0  0  0  0  0  0  0
    5.1819   -0.5785   -0.4386 C   0  0  0  0  0  0  0  0  0  0  0  0
    8.5802   -0.0212   -0.3510 H   0  0  0  0  0  0  0  0  0  0  0  0
    7.7695   -0.2483    1.2609 H   0  0  0  0  0  0  0  0  0  0  0  0
    6.7268    3.2448   -0.4012 H   0  0  0  0  0  0  0  0  0  0  0  0
    4.8474    2.7063   -0.9594 H   0  0  0  0  0  0  0  0  0  0  0  0
    2.5855    1.9323   -1.6157 H   0  0  0  0  0  0  0  0  0  0  0  0
    1.7134   -1.5789   -2.0889 H   0  0  0  0  0  0  0  0  0  0  0  0
    1.2476    0.1063   -2.4372 H   0  0  0  0  0  0  0  0  0  0  0  0
    1.0018   -2.5746    0.2444 H   0  0  0  0  0  0  0  0  0  0  0  0
   -0.1351    1.4189   -0.6027 H   0  0  0  0  0  0  0  0  0  0  0  0
   -3.8249    1.0528    2.1377 H   0  0  0  0  0  0  0  0  0  0  0  0
   -3.1589   -0.1471   -0.3938 H   0  0  0  0  0  0  0  0  0  0  0  0
   -3.0917   -1.4041    0.8911 H   0  0  0  0  0  0  0  0  0  0  0  0
   -5.2029   -2.0466    2.0784 H   0  0  0  0  0  0  0  0  0  0  0  0
   -7.7055   -2.1308    1.9799 H   0  0  0  0  0  0  0  0  0  0  0  0
   -8.8363   -0.6608    0.4561 H   0  0  0  0  0  0  0  0  0  0  0  0
   -5.1922    1.0094   -0.9183 H   0  0  0  0  0  0  0  0  0  0  0  0
    3.6617   -2.0411   -0.7622 H   0  0  0  0  0  0  0  0  0  0  0  0
    5.9407   -1.2769   -0.0990 H   0  0  0  0  0  0  0  0  0  0  0  0
  1  2  1  0
  2  3  2  3
  2  4  1  0
  4  5  2  0
  5  6  1  0
  6  7  2  0
  7  8  1  0
  8  9  1  0
  9 10  1  0
 10 11  2  0
 11 12  1  0
 12 13  2  0
 12 14  1  0
 14 15  2  0
 14 16  1  0
 16 17  1  0
 17 18  1  0
 18 19  2  0
 19 20  1  0
 20 21  2  0
 21 22  1  0
 22 23  1  0
 22 24  2  0
  7 25  1  0
 25 26  2  0
 26  4  1  0
 13  9  1  0
 24 18  1  0
  1 27  1  0
  1 28  1  0
  3 29  1  0
  5 30  1  0
  6 31  1  0
  8 32  1  0
  8 33  1  0
 10 34  1  0
 13 35  1  0
 16 36  1  0
 17 37  1  0
 17 38  1  0
 19 39  1  0
 20 40  1  0
 21 41  1  0
 24 42  1  0
 25 43  1  0
 26 44  1  0
M  END
$$$$
[H]c1c([H])c([H])c(C([H])([H])[C@@]2([H])N(C(=O)c3c([H])c(C(F)(F)F)c([H])c(C(F)(F)F)c3[H])C([H])([H])C([H])([H])[C@]([H])(N3C(=O)C([H])([H])C([H])([H])C3([H])[H])C2([H])[H])c([H])c1[H]
     RDKit          3D

 59 62  0  0  0  0  0  0  0  0999 V2000
    5.9325    3.2580   -1.9499 F   0  0  0  0  0  0  0  0  0  0  0  0
    5.9016    1.8612   -2.0950 C   0  0  0  0  0  0  0  0  0  0  0  0
    7.1326    1.3299   -1.8496 F   0  0  0  0  0  0  0  0  0  0  0  0
    5.3885    1.5854   -3.3425 F   0  0  0  0  0  0  0  0  0  0  0  0
    4.9440    1.3720   -1.0620 C   0  0  0  0  0  0  0  0  0  0  0  0
    3.6133    1.0798   -1.3409 C   0  0  0  0  0  0  0  0  0  0  0  0
    2.7285    0.6341   -0.4215 C   0  0  0  0  0  0  0  0  0  0  0  0
    3.2031    0.4717    0.8850 C   0  0  0  0  0  0  0  0  0  0  0  0
    4.5305    0.7543    1.2067 C   0  0  0  0  0  0  0  0  0  0  0  0
    5.3691    1.1927    0.2350 C   0  0  0  0  0  0  0  0  0  0  0  0
    5.0232    0.4932    2.5844 C   0  0  0  0  0  0  0  0  0  0  0  0
    3.9701    0.1595    3.4277 F   0  0  0  0  0  0  0  0  0  0  0  0
    5.7676    1.5343    3.0384 F   0  0  0  0  0  0  0  0  0  0  0  0
    5.8523   -0.6304    2.4582 F   0  0  0  0  0  0  0  0  0  0  0  0
    1.4176    0.0039   -0.7206 C   0  0  0  0  0  0  0  0  0  0  0  0
    1.4212   -0.5948   -1.8415 O   0  0  0  0  0  0  0  0  0  0  0  0
    0.3555    0.0777    0.1651 N   0  0  0  0  0  0  0  0  0  0  0  0
    0.2429    1.0480    1.2763 C   0  0  0  0  0  0  0  0  0  0  0  0
   -1.1559    1.6717    1.1577 C   0  0  0  0  0  0  0  0  0  0  0  0
   -1.7672    1.1955   -0.1456 C   0  0  1  0  0  0  0  0  0  0  0  0
   -2.0020   -0.3019   -0.0434 C   0  0  0  0  0  0  0  0  0  0  0  0
   -0.7245   -0.9813    0.2884 C   0  0  1  0  0  0  0  0  0  0  0  0
   -0.2521   -2.1561   -0.4506 C   0  0  0  0  0  0  0  0  0  0  0  0
   -1.0089   -3.4082   -0.3742 C   0  0  0  0  0  0  0  0  0  0  0  0
   -1.9811   -3.7498   -1.2476 C   0  0  0  0  0  0  0  0  0  0  0  0
   -2.6813   -4.9592   -1.0942 C   0  0  0  0  0  0  0  0  0  0  0  0
   -2.3952   -5.8113   -0.0684 C   0  0  0  0  0  0  0  0  0  0  0  0
   -1.4031   -5.4750    0.8262 C   0  0  0  0  0  0  0  0  0  0  0  0
   -0.7253   -4.2956    0.6795 C   0  0  0  0  0  0  0  0  0  0  0  0
   -3.0085    1.9300   -0.3791 N   0  0  0  0  0  0  0  0  0  0  0  0
   -4.2645    1.7389    0.3524 C   0  0  0  0  0  0  0  0  0  0  0  0
   -5.0666    2.9815    0.0393 C   0  0  0  0  0  0  0  0  0  0  0  0
   -4.2113    3.8573   -0.8304 C   0  0  0  0  0  0  0  0  0  0  0  0
   -3.2171    2.8641   -1.3943 C   0  0  0  0  0  0  0  0  0  0  0  0
   -2.7229    2.9294   -2.5439 O   0  0  0  0  0  0  0  0  0  0  0  0
    3.2829    1.2036   -2.3842 H   0  0  0  0  0  0  0  0  0  0  0  0
    2.5585    0.0993    1.6444 H   0  0  0  0  0  0  0  0  0  0  0  0
    6.4270    1.4114    0.4482 H   0  0  0  0  0  0  0  0  0  0  0  0
    0.3810    0.5467    2.2526 H   0  0  0  0  0  0  0  0  0  0  0  0
    0.9741    1.8324    1.1736 H   0  0  0  0  0  0  0  0  0  0  0  0
   -1.7674    1.3502    2.0060 H   0  0  0  0  0  0  0  0  0  0  0  0
   -1.0935    2.7879    1.2282 H   0  0  0  0  0  0  0  0  0  0  0  0
   -1.0738    1.4193   -0.9580 H   0  0  0  0  0  0  0  0  0  0  0  0
   -2.7510   -0.3814    0.8457 H   0  0  0  0  0  0  0  0  0  0  0  0
   -2.5370   -0.6983   -0.8972 H   0  0  0  0  0  0  0  0  0  0  0  0
   -0.7367   -1.1564    1.4063 H   0  0  0  0  0  0  0  0  0  0  0  0
   -0.3512   -1.8785   -1.5694 H   0  0  0  0  0  0  0  0  0  0  0  0
    0.8081   -2.4094   -0.2082 H   0  0  0  0  0  0  0  0  0  0  0  0
   -2.2700   -3.1410   -2.0843 H   0  0  0  0  0  0  0  0  0  0  0  0
   -3.4388   -5.2313   -1.8099 H   0  0  0  0  0  0  0  0  0  0  0  0
   -2.9599   -6.7616    0.0302 H   0  0  0  0  0  0  0  0  0  0  0  0
   -1.2193   -6.2011    1.6069 H   0  0  0  0  0  0  0  0  0  0  0  0
    0.0543   -4.0422    1.3896 H   0  0  0  0  0  0  0  0  0  0  0  0
   -4.8080    0.8400   -0.0874 H   0  0  0  0  0  0  0  0  0  0  0  0
   -4.1389    1.5587    1.4122 H   0  0  0  0  0  0  0  0  0  0  0  0
   -5.9518    2.7170   -0.5474 H   0  0  0  0  0  0  0  0  0  0  0  0
   -5.2739    3.5273    0.9864 H   0  0  0  0  0  0  0  0  0  0  0  0
   -4.7305    4.3748   -1.6397 H   0  0  0  0  0  0  0  0  0  0  0  0
   -3.5907    4.5722   -0.2580 H   0  0  0  0  0  0  0  0  0  0  0  0
  1  2  1  0
  2  3  1  0
  2  4  1  0
  2  5  1  0
  5  6  2  0
  6  7  1  0
  7  8  2  0
  8  9  1  0
  9 10  2  0
  9 11  1  0
 11 12  1  0
 11 13  1  0
 11 14  1  0
  7 15  1  0
 15 16  2  0
 15 17  1  0
 17 18  1  0
 18 19  1  0
 19 20  1  0
 20 21  1  0
 21 22  1  0
 22 23  1  0
 23 24  1  0
 24 25  2  0
 25 26  1  0
 26 27  2  0
 27 28  1  0
 28 29  2  0
 20 30  1  0
 30 31  1  0
 31 32  1  0
 32 33  1  0
 33 34  1  0
 34 35  2  0
 10  5  1  0
 22 17  1  0
 29 24  1  0
 34 30  1  0
  6 36  1  0
  8 37  1  0
 10 38  1  0
 18 39  1  0
 18 40  1  0
 19 41  1  0
 19 42  1  0
 20 43  1  6
 21 44  1  0
 21 45  1  0
 22 46  1  1
 23 47  1  0
 23 48  1  0
 25 49  1  0
 26 50  1  0
 27 51  1  0
 28 52  1  0
 29 53  1  0
 31 54  1  0
 31 55  1  0
 32 56  1  0
 32 57  1  0
 33 58  1  0
 33 59  1  0
M  END
$$$$
[H]c1nc2c(C(F)(F)F)c([H])c(-c3c(C([H])(C([H])([H])[H])C([H])([H])[H])c4c([H])c(C5([H])C([H])([H])C([H])([H])N(C([H])([H])C(=O)N([H])[H])C([H])([H])C5([H])[H])c([H])c([H])c4n3[H])c([H])n2n1
     RDKit          3D

 62 66  0  0  0  0  0  0  0  0999 V2000
   -1.6385   -3.2146   -0.4956 C   0  0  0  0  0  0  0  0  0  0  0  0
   -2.5205   -2.0225   -0.3571 C   0  0  0  0  0  0  0  0  0  0  0  0
   -3.3385   -2.3077    0.9263 C   0  0  0  0  0  0  0  0  0  0  0  0
   -1.9382   -0.7046   -0.2030 C   0  0  0  0  0  0  0  0  0  0  0  0
   -2.7048    0.4394   -0.0381 C   0  0  0  0  0  0  0  0  0  0  0  0
   -1.8175    1.4566    0.1367 N   0  0  0  0  0  0  0  0  0  0  0  0
   -0.5543    1.0256    0.0893 C   0  0  0  0  0  0  0  0  0  0  0  0
    0.6679    1.6705    0.2091 C   0  0  0  0  0  0  0  0  0  0  0  0
    1.8450    0.9589    0.1153 C   0  0  0  0  0  0  0  0  0  0  0  0
    1.8460   -0.3989   -0.0982 C   0  0  0  0  0  0  0  0  0  0  0  0
    0.5815   -1.0138   -0.2140 C   0  0  0  0  0  0  0  0  0  0  0  0
   -0.5908   -0.3230   -0.1228 C   0  0  0  0  0  0  0  0  0  0  0  0
    3.0848   -1.2077   -0.2029 C   0  0  0  0  0  0  0  0  0  0  0  0
    3.9841   -0.7919   -1.3388 C   0  0  0  0  0  0  0  0  0  0  0  0
    5.1344    0.0641   -0.9754 C   0  0  0  0  0  0  0  0  0  0  0  0
    5.7827   -0.1712    0.2628 N   0  0  0  0  0  0  0  0  0  0  0  0
    7.2175   -0.1777    0.1592 C   0  0  0  0  0  0  0  0  0  0  0  0
    7.8266    1.1153   -0.1490 C   0  0  0  0  0  0  0  0  0  0  0  0
    7.0947    2.3168   -0.3389 N   0  0  0  0  0  0  0  0  0  0  0  0
    9.0842    1.1944   -0.2585 O   0  0  0  0  0  0  0  0  0  0  0  0
    5.3370   -1.4323    0.8162 C   0  0  0  0  0  0  0  0  0  0  0  0
    3.8493   -1.2678    1.1107 C   0  0  0  0  0  0  0  0  0  0  0  0
   -4.1437    0.7106    0.0396 C   0  0  0  0  0  0  0  0  0  0  0  0
   -4.5214    1.8435    0.7955 C   0  0  0  0  0  0  0  0  0  0  0  0
   -5.8255    2.2363    0.8922 C   0  0  0  0  0  0  0  0  0  0  0  0
   -6.7567    1.4796    0.2202 C   0  0  0  0  0  0  0  0  0  0  0  0
   -8.0924    1.6050    0.1212 N   0  0  0  0  0  0  0  0  0  0  0  0
   -8.5676    0.6082   -0.6592 C   0  0  0  0  0  0  0  0  0  0  0  0
   -7.4992   -0.1168   -1.0269 N   0  0  0  0  0  0  0  0  0  0  0  0
   -6.4159    0.4108   -0.4963 N   0  0  0  0  0  0  0  0  0  0  0  0
   -5.1303    0.0121   -0.6011 C   0  0  0  0  0  0  0  0  0  0  0  0
   -6.2473    3.4234    1.6847 C   0  0  0  0  0  0  0  0  0  0  0  0
   -6.8825    4.3750    0.9165 F   0  0  0  0  0  0  0  0  0  0  0  0
   -7.0880    3.0263    2.6791 F   0  0  0  0  0  0  0  0  0  0  0  0
   -5.1377    4.0498    2.2447 F   0  0  0  0  0  0  0  0  0  0  0  0
   -2.3416   -4.1205   -0.6345 H   0  0  0  0  0  0  0  0  0  0  0  0
   -1.0596   -3.5040    0.3788 H   0  0  0  0  0  0  0  0  0  0  0  0
   -1.1096   -3.2153   -1.4696 H   0  0  0  0  0  0  0  0  0  0  0  0
   -3.2496   -2.1223   -1.2015 H   0  0  0  0  0  0  0  0  0  0  0  0
   -2.8182   -3.0709    1.5380 H   0  0  0  0  0  0  0  0  0  0  0  0
   -4.3193   -2.7474    0.6655 H   0  0  0  0  0  0  0  0  0  0  0  0
   -3.3920   -1.4125    1.5744 H   0  0  0  0  0  0  0  0  0  0  0  0
   -2.0334    2.4734    0.2897 H   0  0  0  0  0  0  0  0  0  0  0  0
    0.6807    2.7600    0.3810 H   0  0  0  0  0  0  0  0  0  0  0  0
    2.8061    1.4478    0.2067 H   0  0  0  0  0  0  0  0  0  0  0  0
    0.5634   -2.0779   -0.3846 H   0  0  0  0  0  0  0  0  0  0  0  0
    2.7724   -2.2547   -0.3978 H   0  0  0  0  0  0  0  0  0  0  0  0
    4.2744   -1.6722   -1.9529 H   0  0  0  0  0  0  0  0  0  0  0  0
    3.3258   -0.1835   -2.0298 H   0  0  0  0  0  0  0  0  0  0  0  0
    5.9189   -0.0810   -1.7794 H   0  0  0  0  0  0  0  0  0  0  0  0
    4.8995    1.1692   -1.0660 H   0  0  0  0  0  0  0  0  0  0  0  0
    7.6469   -0.5268    1.1445 H   0  0  0  0  0  0  0  0  0  0  0  0
    7.5789   -0.9494   -0.5810 H   0  0  0  0  0  0  0  0  0  0  0  0
    7.2363    2.8274   -1.2531 H   0  0  0  0  0  0  0  0  0  0  0  0
    6.4647    2.6458    0.4012 H   0  0  0  0  0  0  0  0  0  0  0  0
    5.4000   -2.2003    0.0036 H   0  0  0  0  0  0  0  0  0  0  0  0
    5.8592   -1.7368    1.7268 H   0  0  0  0  0  0  0  0  0  0  0  0
    3.7365   -0.2858    1.6148 H   0  0  0  0  0  0  0  0  0  0  0  0
    3.4748   -2.0415    1.7990 H   0  0  0  0  0  0  0  0  0  0  0  0
   -3.7708    2.4278    1.3242 H   0  0  0  0  0  0  0  0  0  0  0  0
   -9.5918    0.4058   -0.9493 H   0  0  0  0  0  0  0  0  0  0  0  0
   -4.8773   -0.8261   -1.2133 H   0  0  0  0  0  0  0  0  0  0  0  0
  1  2  1  0
  2  3  1  0
  2  4  1  0
  4  5  2  0
  5  6  1  0
  6  7  1  0
  7  8  2  0
  8  9  1  0
  9 10  2  0
 10 11  1  0
 11 12  2  0
 10 13  1  0
 13 14  1  0
 14 15  1  0
 15 16  1  0
 16 17  1  0
 17 18  1  0
 18 19  1  0
 18 20  2  0
 16 21  1  0
 21 22  1  0
  5 23  1  0
 23 24  1  0
 24 25  2  0
 25 26  1  0
 26 27  2  0
 27 28  1  0
 28 29  2  0
 29 30  1  0
 30 31  1  0
 25 32  1  0
 32 33  1  0
 32 34  1  0
 32 35  1  0
 12  4  1  0
 22 13  1  0
 31 23  2  0
 12  7  1  0
 30 26  1  0
  1 36  1  0
  1 37  1  0
  1 38  1  0
  2 39  1  0
  3 40  1  0
  3 41  1  0
  3 42  1  0
  6 43  1  0
  8 44  1  0
  9 45  1  0
 11 46  1  0
 13 47  1  0
 14 48  1  0
 14 49  1  0
 15 50  1  0
 15 51  1  0
 17 52  1  0
 17 53  1  0
 19 54  1  0
 19 55  1  0
 21 56  1  0
 21 57  1  0
 22 58  1  0
 22 59  1  0
 24 60  1  0
 28 61  1  0
 31 62  1  0
M  END
$$$$
[H]c1c([H])c(N([H])C(=O)c2c([H])c([H])c(N([H])C(=O)C([H])([H])C([H])([H])C(=O)N([H])C([H])([H])C(=O)N([H])[H])c([H])c2[H])c([H])c([H])c1F
     RDKit          3D

 47 48  0  0  0  0  0  0  0  0999 V2000
   -7.5430   -0.6346   -3.7097 N   0  0  0  0  0  0  0  0  0  0  0  0
   -7.2030   -0.7176   -2.3392 C   0  0  0  0  0  0  0  0  0  0  0  0
   -7.8203   -1.4997   -1.5944 O   0  0  0  0  0  0  0  0  0  0  0  0
   -6.1106    0.1287   -1.7934 C   0  0  0  0  0  0  0  0  0  0  0  0
   -5.9442   -0.1319   -0.3593 N   0  0  0  0  0  0  0  0  0  0  0  0
   -4.9669    0.5459    0.4040 C   0  0  0  0  0  0  0  0  0  0  0  0
   -4.2226    1.3866   -0.1410 O   0  0  0  0  0  0  0  0  0  0  0  0
   -4.8258    0.2614    1.8405 C   0  0  0  0  0  0  0  0  0  0  0  0
   -3.6910    0.9500    2.5211 C   0  0  0  0  0  0  0  0  0  0  0  0
   -2.3826    0.5106    1.9273 C   0  0  0  0  0  0  0  0  0  0  0  0
   -2.4080   -0.3913    1.0666 O   0  0  0  0  0  0  0  0  0  0  0  0
   -1.2303    1.1507    2.3881 N   0  0  0  0  0  0  0  0  0  0  0  0
    0.0673    0.8733    1.9399 C   0  0  0  0  0  0  0  0  0  0  0  0
    0.3462    0.2350    0.7560 C   0  0  0  0  0  0  0  0  0  0  0  0
    1.6740   -0.0230    0.3960 C   0  0  0  0  0  0  0  0  0  0  0  0
    2.7302    0.3351    1.1771 C   0  0  0  0  0  0  0  0  0  0  0  0
    2.4355    0.9793    2.3695 C   0  0  0  0  0  0  0  0  0  0  0  0
    1.1546    1.2492    2.7573 C   0  0  0  0  0  0  0  0  0  0  0  0
    4.1137    0.0685    0.7924 C   0  0  0  0  0  0  0  0  0  0  0  0
    4.9858    0.2335    1.7066 O   0  0  0  0  0  0  0  0  0  0  0  0
    4.4732   -0.3418   -0.4948 N   0  0  0  0  0  0  0  0  0  0  0  0
    5.7550   -0.6390   -1.0092 C   0  0  0  0  0  0  0  0  0  0  0  0
    6.9061   -0.7548   -0.2662 C   0  0  0  0  0  0  0  0  0  0  0  0
    8.1435   -1.0345   -0.8346 C   0  0  0  0  0  0  0  0  0  0  0  0
    8.2741   -1.2115   -2.1893 C   0  0  0  0  0  0  0  0  0  0  0  0
    9.4946   -1.4873   -2.7538 F   0  0  0  0  0  0  0  0  0  0  0  0
    7.1427   -1.1018   -2.9528 C   0  0  0  0  0  0  0  0  0  0  0  0
    5.9262   -0.8267   -2.3947 C   0  0  0  0  0  0  0  0  0  0  0  0
   -7.5898    0.3364   -4.1369 H   0  0  0  0  0  0  0  0  0  0  0  0
   -7.7464   -1.4484   -4.3147 H   0  0  0  0  0  0  0  0  0  0  0  0
   -5.1328   -0.0922   -2.2816 H   0  0  0  0  0  0  0  0  0  0  0  0
   -6.3218    1.2215   -1.9358 H   0  0  0  0  0  0  0  0  0  0  0  0
   -6.5785   -0.8453    0.0942 H   0  0  0  0  0  0  0  0  0  0  0  0
   -4.7489   -0.8332    2.0180 H   0  0  0  0  0  0  0  0  0  0  0  0
   -5.7676    0.6652    2.3215 H   0  0  0  0  0  0  0  0  0  0  0  0
   -3.7014    0.6712    3.5941 H   0  0  0  0  0  0  0  0  0  0  0  0
   -3.7728    2.0550    2.4629 H   0  0  0  0  0  0  0  0  0  0  0  0
   -1.3238    1.9144    3.1344 H   0  0  0  0  0  0  0  0  0  0  0  0
   -0.4067   -0.0788    0.0555 H   0  0  0  0  0  0  0  0  0  0  0  0
    1.8149   -0.5298   -0.5430 H   0  0  0  0  0  0  0  0  0  0  0  0
    3.2730    1.2717    3.0047 H   0  0  0  0  0  0  0  0  0  0  0  0
    0.9159    1.7562    3.6970 H   0  0  0  0  0  0  0  0  0  0  0  0
    3.6747   -0.4451   -1.1821 H   0  0  0  0  0  0  0  0  0  0  0  0
    6.8820   -0.6374    0.7954 H   0  0  0  0  0  0  0  0  0  0  0  0
    9.0411   -1.1225   -0.2368 H   0  0  0  0  0  0  0  0  0  0  0  0
    7.1988   -1.2342   -4.0280 H   0  0  0  0  0  0  0  0  0  0  0  0
    5.0156   -0.7369   -3.0029 H   0  0  0  0  0  0  0  0  0  0  0  0
  1  2  1  0
  2  3  2  0
  2  4  1  0
  4  5  1  0
  5  6  1  0
  6  7  2  0
  6  8  1  0
  8  9  1  0
  9 10  1  0
 10 11  2  0
 10 12  1  0
 12 13  1  0
 13 14  2  0
 14 15  1  0
 15 16  2  0
 16 17  1  0
 17 18  2  0
 16 19  1  0
 19 20  2  0
 19 21  1  0
 21 22  1  0
 22 23  2  0
 23 24  1  0
 24 25  2  0
 25 26  1  0
 25 27  1  0
 27 28  2  0
 18 13  1  0
 28 22  1  0
  1 29  1  0
  1 30  1  0
  4 31  1  0
  4 32  1  0
  5 33  1  0
  8 34  1  0
  8 35  1  0
  9 36  1  0
  9 37  1  0
 12 38  1  0
 14 39  1  0
 15 40  1  0
 17 41  1  0
 18 42  1  0
 21 43  1  0
 23 44  1  0
 24 45  1  0
 27 46  1  0
 28 47  1  0
M  END
$$$$
[H]c1nc([H])c(OC([H])([H])C([H])([H])N2[C@]3([H])C([H])([H])C([H])([H])[C@@]2([H])C([H])([H])C3([H])[H])c([H])c1[H]
     RDKit          3D

 34 36  0  0  0  0  0  0  0  0999 V2000
   -2.4464    1.4510   -0.2898 C   0  0  0  0  0  0  0  0  0  0  0  0
   -2.4676    0.4422   -1.4301 C   0  0  0  0  0  0  0  0  0  0  0  0
   -2.2391   -0.8885   -0.7389 C   0  0  2  0  0  0  0  0  0  0  0  0
   -3.5311   -1.2113   -0.0132 C   0  0  0  0  0  0  0  0  0  0  0  0
   -3.5118   -0.1890    1.1300 C   0  0  0  0  0  0  0  0  0  0  0  0
   -2.1975    0.5677    0.8977 C   0  0  1  0  0  0  0  0  0  0  0  0
   -1.3945   -0.5225    0.3708 N   0  0  0  0  0  0  0  0  0  0  0  0
   -0.0871   -0.0630    0.0014 C   0  0  0  0  0  0  0  0  0  0  0  0
    0.7935   -1.1056   -0.5717 C   0  0  0  0  0  0  0  0  0  0  0  0
    2.0516   -0.7143   -0.9466 O   0  0  0  0  0  0  0  0  0  0  0  0
    3.1397   -0.2147   -0.3494 C   0  0  0  0  0  0  0  0  0  0  0  0
    3.2500    0.0396    0.9927 C   0  0  0  0  0  0  0  0  0  0  0  0
    4.4154    0.5652    1.5398 C   0  0  0  0  0  0  0  0  0  0  0  0
    5.4649    0.8249    0.6935 C   0  0  0  0  0  0  0  0  0  0  0  0
    5.3576    0.5743   -0.6268 N   0  0  0  0  0  0  0  0  0  0  0  0
    4.2600    0.0758   -1.1661 C   0  0  0  0  0  0  0  0  0  0  0  0
   -1.7263    2.2605   -0.4247 H   0  0  0  0  0  0  0  0  0  0  0  0
   -3.4541    1.9398   -0.1528 H   0  0  0  0  0  0  0  0  0  0  0  0
   -1.7197    0.6559   -2.2074 H   0  0  0  0  0  0  0  0  0  0  0  0
   -3.5105    0.4259   -1.8235 H   0  0  0  0  0  0  0  0  0  0  0  0
   -1.8678   -1.6834   -1.3731 H   0  0  0  0  0  0  0  0  0  0  0  0
   -3.4261   -2.2544    0.3725 H   0  0  0  0  0  0  0  0  0  0  0  0
   -4.4247   -1.0929   -0.6395 H   0  0  0  0  0  0  0  0  0  0  0  0
   -4.3466    0.5110    0.9435 H   0  0  0  0  0  0  0  0  0  0  0  0
   -3.5306   -0.6684    2.1173 H   0  0  0  0  0  0  0  0  0  0  0  0
   -1.8051    1.0443    1.7729 H   0  0  0  0  0  0  0  0  0  0  0  0
    0.3548    0.3532    0.9162 H   0  0  0  0  0  0  0  0  0  0  0  0
   -0.1217    0.7940   -0.7219 H   0  0  0  0  0  0  0  0  0  0  0  0
    0.3375   -1.6327   -1.4509 H   0  0  0  0  0  0  0  0  0  0  0  0
    0.9296   -1.9625    0.1701 H   0  0  0  0  0  0  0  0  0  0  0  0
    2.4241   -0.1834    1.6676 H   0  0  0  0  0  0  0  0  0  0  0  0
    4.4348    0.7437    2.6027 H   0  0  0  0  0  0  0  0  0  0  0  0
    6.3941    1.2396    1.0980 H   0  0  0  0  0  0  0  0  0  0  0  0
    4.2005   -0.1218   -2.2464 H   0  0  0  0  0  0  0  0  0  0  0  0
  1  2  1  0
  2  3  1  0
  3  4  1  0
  4  5  1  0
  5  6  1  0
  6  7  1  0
  7  8  1  0
  8  9  1  0
  9 10  1  0
 10 11  1  0
 11 12  2  0
 12 13  1  0
 13 14  2  0
 14 15  1  0
 15 16  2  0
  6  1  1  0
 16 11  1  0
  7  3  1  0
  1 17  1  0
  1 18  1  0
  2 19  1  0
  2 20  1  0
  3 21  1  6
  4 22  1  0
  4 23  1  0
  5 24  1  0
  5 25  1  0
  6 26  1  1
  8 27  1  0
  8 28  1  0
  9 29  1  0
  9 30  1  0
 12 31  1  0
 13 32  1  0
 14 33  1  0
 16 34  1  0
M  END
$$$$
[H]N=C(N([H])[H])N([H])C([H])([H])C([H])([H])C([H])([H])[C@@]([H])(C(=O)c1nc2c([H])c([H])c([H])c([H])c2n1C([H])([H])[H])N([H])C(=O)[C@@]([H])(N([H])C(=O)C([H])([H])C([H])([H])C(=O)O[H])C([H])([H])C([H])(C([H])([H])[H])C([H])([H])[H]
     RDKit          3D

 71 72  0  0  0  0  0  0  0  0999 V2000
    3.2114   -3.3282   -2.9235 C   0  0  0  0  0  0  0  0  0  0  0  0
    2.6555   -1.9932   -2.3728 C   0  0  0  0  0  0  0  0  0  0  0  0
    3.0301   -0.9649   -3.4210 C   0  0  0  0  0  0  0  0  0  0  0  0
    3.3368   -1.7570   -1.0712 C   0  0  0  0  0  0  0  0  0  0  0  0
    2.8929   -0.4803   -0.4169 C   0  0  2  0  0  0  0  0  0  0  0  0
    3.6545   -0.3452    0.8546 N   0  0  0  0  0  0  0  0  0  0  0  0
    4.5289    0.7105    1.1166 C   0  0  0  0  0  0  0  0  0  0  0  0
    4.7094    1.6095    0.2656 O   0  0  0  0  0  0  0  0  0  0  0  0
    5.2495    0.7744    2.4032 C   0  0  0  0  0  0  0  0  0  0  0  0
    6.1305    1.9849    2.4588 C   0  0  0  0  0  0  0  0  0  0  0  0
    6.8458    2.0310    3.7577 C   0  0  0  0  0  0  0  0  0  0  0  0
    8.1534    1.6288    3.8197 O   0  0  0  0  0  0  0  0  0  0  0  0
    6.2281    2.4403    4.7700 O   0  0  0  0  0  0  0  0  0  0  0  0
    1.4825   -0.4212   -0.0281 C   0  0  0  0  0  0  0  0  0  0  0  0
    1.2129   -0.5116    1.2302 O   0  0  0  0  0  0  0  0  0  0  0  0
    0.3872   -0.2703   -0.8850 N   0  0  0  0  0  0  0  0  0  0  0  0
   -1.0003   -0.2273   -0.3693 C   0  0  1  0  0  0  0  0  0  0  0  0
   -1.6015    1.1109   -0.7876 C   0  0  0  0  0  0  0  0  0  0  0  0
   -0.8305    2.2661   -0.2259 C   0  0  0  0  0  0  0  0  0  0  0  0
   -1.4735    3.5546   -0.6814 C   0  0  0  0  0  0  0  0  0  0  0  0
   -2.8466    3.6298   -0.2161 N   0  0  0  0  0  0  0  0  0  0  0  0
   -3.6291    4.7887   -0.5528 C   0  0  0  0  0  0  0  0  0  0  0  0
   -3.9465    5.7555    0.4210 N   0  0  0  0  0  0  0  0  0  0  0  0
   -4.0155    4.8811   -1.7928 N   0  0  0  0  0  0  0  0  0  0  0  0
   -1.8052   -1.2892   -0.9445 C   0  0  0  0  0  0  0  0  0  0  0  0
   -1.3828   -1.7658   -2.0740 O   0  0  0  0  0  0  0  0  0  0  0  0
   -3.0195   -1.9002   -0.4407 C   0  0  0  0  0  0  0  0  0  0  0  0
   -3.7323   -2.8368   -1.1508 N   0  0  0  0  0  0  0  0  0  0  0  0
   -4.7846   -3.2606   -0.4339 C   0  0  0  0  0  0  0  0  0  0  0  0
   -5.7928   -4.1815   -0.6954 C   0  0  0  0  0  0  0  0  0  0  0  0
   -6.7353   -4.3791    0.2827 C   0  0  0  0  0  0  0  0  0  0  0  0
   -6.6828   -3.6877    1.4822 C   0  0  0  0  0  0  0  0  0  0  0  0
   -5.6725   -2.7795    1.7173 C   0  0  0  0  0  0  0  0  0  0  0  0
   -4.7030   -2.5588    0.7434 C   0  0  0  0  0  0  0  0  0  0  0  0
   -3.6178   -1.7228    0.7407 N   0  0  0  0  0  0  0  0  0  0  0  0
   -3.2657   -0.8888    1.8625 C   0  0  0  0  0  0  0  0  0  0  0  0
    4.3103   -3.2097   -3.0102 H   0  0  0  0  0  0  0  0  0  0  0  0
    2.7577   -3.5604   -3.9080 H   0  0  0  0  0  0  0  0  0  0  0  0
    2.9885   -4.1008   -2.1737 H   0  0  0  0  0  0  0  0  0  0  0  0
    1.5647   -2.1031   -2.3437 H   0  0  0  0  0  0  0  0  0  0  0  0
    2.6464    0.0367   -3.1928 H   0  0  0  0  0  0  0  0  0  0  0  0
    4.1261   -0.9591   -3.5936 H   0  0  0  0  0  0  0  0  0  0  0  0
    2.5624   -1.2986   -4.3709 H   0  0  0  0  0  0  0  0  0  0  0  0
    4.4234   -1.6330   -1.2959 H   0  0  0  0  0  0  0  0  0  0  0  0
    3.1674   -2.6333   -0.4047 H   0  0  0  0  0  0  0  0  0  0  0  0
    3.1981    0.3665   -1.0383 H   0  0  0  0  0  0  0  0  0  0  0  0
    3.4910   -1.1010    1.5447 H   0  0  0  0  0  0  0  0  0  0  0  0
    5.8308   -0.1693    2.5073 H   0  0  0  0  0  0  0  0  0  0  0  0
    4.4942    0.8683    3.2136 H   0  0  0  0  0  0  0  0  0  0  0  0
    6.8786    2.0115    1.6393 H   0  0  0  0  0  0  0  0  0  0  0  0
    5.4833    2.8854    2.3572 H   0  0  0  0  0  0  0  0  0  0  0  0
    8.7412    1.5905    2.9991 H   0  0  0  0  0  0  0  0  0  0  0  0
    0.4844   -0.1575   -1.9025 H   0  0  0  0  0  0  0  0  0  0  0  0
   -0.9430   -0.2781    0.7066 H   0  0  0  0  0  0  0  0  0  0  0  0
   -2.6309    1.1491   -0.4206 H   0  0  0  0  0  0  0  0  0  0  0  0
   -1.6357    1.1776   -1.9095 H   0  0  0  0  0  0  0  0  0  0  0  0
    0.2198    2.2907   -0.5742 H   0  0  0  0  0  0  0  0  0  0  0  0
   -0.9170    2.2354    0.8792 H   0  0  0  0  0  0  0  0  0  0  0  0
   -1.4808    3.5512   -1.8024 H   0  0  0  0  0  0  0  0  0  0  0  0
   -0.9072    4.4501   -0.3523 H   0  0  0  0  0  0  0  0  0  0  0  0
   -3.3214    2.9109    0.3461 H   0  0  0  0  0  0  0  0  0  0  0  0
   -4.2353    6.7140    0.1549 H   0  0  0  0  0  0  0  0  0  0  0  0
   -3.8933    5.5117    1.4262 H   0  0  0  0  0  0  0  0  0  0  0  0
   -4.5854    5.7221   -2.0447 H   0  0  0  0  0  0  0  0  0  0  0  0
   -5.8284   -4.7134   -1.6256 H   0  0  0  0  0  0  0  0  0  0  0  0
   -7.5657   -5.0860    0.1624 H   0  0  0  0  0  0  0  0  0  0  0  0
   -7.4148   -3.8270    2.2698 H   0  0  0  0  0  0  0  0  0  0  0  0
   -5.6121   -2.2265    2.6508 H   0  0  0  0  0  0  0  0  0  0  0  0
   -2.3014   -1.1875    2.3472 H   0  0  0  0  0  0  0  0  0  0  0  0
   -3.2606    0.1694    1.6144 H   0  0  0  0  0  0  0  0  0  0  0  0
   -4.0069   -1.0130    2.7022 H   0  0  0  0  0  0  0  0  0  0  0  0
  1  2  1  0
  2  3  1  0
  2  4  1  0
  4  5  1  0
  5  6  1  0
  6  7  1  0
  7  8  2  0
  7  9  1  0
  9 10  1  0
 10 11  1  0
 11 12  1  0
 11 13  2  0
  5 14  1  0
 14 15  2  0
 14 16  1  0
 16 17  1  0
 17 18  1  0
 18 19  1  0
 19 20  1  0
 20 21  1  0
 21 22  1  0
 22 23  1  0
 22 24  2  3
 17 25  1  0
 25 26  2  0
 25 27  1  0
 27 28  2  0
 28 29  1  0
 29 30  2  0
 30 31  1  0
 31 32  2  0
 32 33  1  0
 33 34  2  0
 34 35  1  0
 35 36  1  0
 35 27  1  0
 34 29  1  0
  1 37  1  0
  1 38  1  0
  1 39  1  0
  2 40  1  0
  3 41  1  0
  3 42  1  0
  3 43  1  0
  4 44  1  0
  4 45  1  0
  5 46  1  6
  6 47  1  0
  9 48  1  0
  9 49  1  0
 10 50  1  0
 10 51  1  0
 12 52  1  0
 16 53  1  0
 17 54  1  1
 18 55  1  0
 18 56  1  0
 19 57  1  0
 19 58  1  0
 20 59  1  0
 20 60  1  0
 21 61  1  0
 23 62  1  0
 23 63  1  0
 24 64  1  0
 30 65  1  0
 31 66  1  0
 32 67  1  0
 33 68  1  0
 36 69  1  0
 36 70  1  0
 36 71  1  0
M  END
$$$$
[H]N=C(c1c([H])c([H])c(C([H])([H])N([H])C(=O)c2c([H])c([H])c(C([H])([H])c3c([H])c(N=[N+]=[N-])c([H])c(N4C([H])([H])C([H])([H])N(C(=O)Oc5c([H])c(Cl)c([H])c(Cl)c5[H])C([H])([H])C4([H])[H])c3[H])c([H])c2[H])c([H])c1[H])N([H])[H]
     RDKit          3D

 76 80  0  0  0  0  0  0  0  0999 V2000
   11.6538   -0.2127   -1.8610 N   0  0  0  0  0  0  0  0  0  0  0  0
   11.2028    1.0549   -1.3742 C   0  0  0  0  0  0  0  0  0  0  0  0
   11.8075    2.0851   -1.8408 N   0  0  0  0  0  0  0  0  0  0  0  0
   10.1201    1.0968   -0.4038 C   0  0  0  0  0  0  0  0  0  0  0  0
    9.5238   -0.0847    0.0398 C   0  0  0  0  0  0  0  0  0  0  0  0
    8.5146   -0.1353    0.9460 C   0  0  0  0  0  0  0  0  0  0  0  0
    8.0288    1.0459    1.4781 C   0  0  0  0  0  0  0  0  0  0  0  0
    6.9396    1.0875    2.4695 C   0  0  0  0  0  0  0  0  0  0  0  0
    5.6833    0.6992    1.8722 N   0  0  0  0  0  0  0  0  0  0  0  0
    4.9647    1.5426    0.9879 C   0  0  0  0  0  0  0  0  0  0  0  0
    5.4863    2.6775    0.7519 O   0  0  0  0  0  0  0  0  0  0  0  0
    3.7108    1.2192    0.3489 C   0  0  0  0  0  0  0  0  0  0  0  0
    2.9974    2.1963   -0.3051 C   0  0  0  0  0  0  0  0  0  0  0  0
    1.7978    1.9358   -0.9274 C   0  0  0  0  0  0  0  0  0  0  0  0
    1.2562    0.6445   -0.9143 C   0  0  0  0  0  0  0  0  0  0  0  0
   -0.0522    0.3838   -1.5849 C   0  0  0  0  0  0  0  0  0  0  0  0
   -1.1721    0.4589   -0.6141 C   0  0  0  0  0  0  0  0  0  0  0  0
   -1.6082    1.7033   -0.2117 C   0  0  0  0  0  0  0  0  0  0  0  0
   -2.6465    1.8171    0.6814 C   0  0  0  0  0  0  0  0  0  0  0  0
   -3.2842    0.7070    1.2022 C   0  0  0  0  0  0  0  0  0  0  0  0
   -2.8674   -0.5674    0.8145 C   0  0  0  0  0  0  0  0  0  0  0  0
   -1.8082   -0.6450   -0.0949 C   0  0  0  0  0  0  0  0  0  0  0  0
   -3.4942   -1.7190    1.3253 N   0  0  0  0  0  0  0  0  0  0  0  0
   -3.5071   -2.9843    0.6535 C   0  0  0  0  0  0  0  0  0  0  0  0
   -4.9223   -3.2651    0.1932 C   0  0  0  0  0  0  0  0  0  0  0  0
   -5.8326   -2.5022    1.0201 N   0  0  0  0  0  0  0  0  0  0  0  0
   -5.5840   -2.2698    2.4350 C   0  0  0  0  0  0  0  0  0  0  0  0
   -4.1833   -1.6873    2.6144 C   0  0  0  0  0  0  0  0  0  0  0  0
   -6.9988   -1.9469    0.4481 C   0  0  0  0  0  0  0  0  0  0  0  0
   -7.7985   -1.2942    1.1641 O   0  0  0  0  0  0  0  0  0  0  0  0
   -7.3645   -2.0561   -0.8906 O   0  0  0  0  0  0  0  0  0  0  0  0
   -8.5280   -1.4778   -1.3805 C   0  0  0  0  0  0  0  0  0  0  0  0
   -8.4801   -0.1760   -1.8367 C   0  0  0  0  0  0  0  0  0  0  0  0
   -9.5947    0.4622   -2.3353 C   0  0  0  0  0  0  0  0  0  0  0  0
   -9.5391    2.1297   -2.9193 Cl  0  0  0  0  0  0  0  0  0  0  0  0
  -10.8204   -0.1910   -2.3971 C   0  0  0  0  0  0  0  0  0  0  0  0
  -10.8752   -1.4919   -1.9429 C   0  0  0  0  0  0  0  0  0  0  0  0
  -12.3875   -2.3726   -1.9906 Cl  0  0  0  0  0  0  0  0  0  0  0  0
   -9.7381   -2.1275   -1.4397 C   0  0  0  0  0  0  0  0  0  0  0  0
   -3.1245    3.1022    1.1183 N   0  0  0  0  0  0  0  0  0  0  0  0
   -4.1964    3.5457    0.6794 N   0  0  0  0  0  0  0  0  0  0  0  0
   -5.3833    3.7328    0.3643 N   0  0  0  0  0  0  0  0  0  0  0  0
    1.9704   -0.3247   -0.2625 C   0  0  0  0  0  0  0  0  0  0  0  0
    3.1931   -0.0601    0.3719 C   0  0  0  0  0  0  0  0  0  0  0  0
    8.6098    2.2390    1.0500 C   0  0  0  0  0  0  0  0  0  0  0  0
    9.6253    2.2512    0.1348 C   0  0  0  0  0  0  0  0  0  0  0  0
   11.7705   -0.4464   -2.8512 H   0  0  0  0  0  0  0  0  0  0  0  0
   11.8753   -0.9354   -1.1462 H   0  0  0  0  0  0  0  0  0  0  0  0
   11.5412    3.0416   -1.5392 H   0  0  0  0  0  0  0  0  0  0  0  0
    9.9103   -1.0111   -0.3834 H   0  0  0  0  0  0  0  0  0  0  0  0
    8.0807   -1.0950    1.2606 H   0  0  0  0  0  0  0  0  0  0  0  0
    7.1737    0.4303    3.3333 H   0  0  0  0  0  0  0  0  0  0  0  0
    6.8170    2.1337    2.8122 H   0  0  0  0  0  0  0  0  0  0  0  0
    5.2981   -0.2384    2.1031 H   0  0  0  0  0  0  0  0  0  0  0  0
    3.4208    3.1940   -0.3127 H   0  0  0  0  0  0  0  0  0  0  0  0
    1.2568    2.6943   -1.4284 H   0  0  0  0  0  0  0  0  0  0  0  0
    0.0331   -0.6263   -2.0379 H   0  0  0  0  0  0  0  0  0  0  0  0
   -0.2167    1.1077   -2.4194 H   0  0  0  0  0  0  0  0  0  0  0  0
   -1.1499    2.6304   -0.5838 H   0  0  0  0  0  0  0  0  0  0  0  0
   -4.1005    0.8526    1.9016 H   0  0  0  0  0  0  0  0  0  0  0  0
   -1.4650   -1.6266   -0.4106 H   0  0  0  0  0  0  0  0  0  0  0  0
   -3.2946   -3.7698    1.4355 H   0  0  0  0  0  0  0  0  0  0  0  0
   -2.7659   -3.1335   -0.1256 H   0  0  0  0  0  0  0  0  0  0  0  0
   -4.9931   -2.9268   -0.8751 H   0  0  0  0  0  0  0  0  0  0  0  0
   -5.1499   -4.3423    0.1854 H   0  0  0  0  0  0  0  0  0  0  0  0
   -6.3206   -1.5292    2.7893 H   0  0  0  0  0  0  0  0  0  0  0  0
   -5.7251   -3.1963    2.9916 H   0  0  0  0  0  0  0  0  0  0  0  0
   -4.2254   -0.7255    3.0959 H   0  0  0  0  0  0  0  0  0  0  0  0
   -3.6349   -2.3908    3.2727 H   0  0  0  0  0  0  0  0  0  0  0  0
   -7.5255    0.3677   -1.8007 H   0  0  0  0  0  0  0  0  0  0  0  0
  -11.6828    0.3357   -2.7930 H   0  0  0  0  0  0  0  0  0  0  0  0
   -9.7627   -3.1457   -1.0802 H   0  0  0  0  0  0  0  0  0  0  0  0
    1.5571   -1.3337   -0.2473 H   0  0  0  0  0  0  0  0  0  0  0  0
    3.7029   -0.8776    0.8665 H   0  0  0  0  0  0  0  0  0  0  0  0
    8.2223    3.1441    1.4773 H   0  0  0  0  0  0  0  0  0  0  0  0
   10.0583    3.1916   -0.1830 H   0  0  0  0  0  0  0  0  0  0  0  0
  1  2  1  0
  2  3  2  3
  2  4  1  0
  4  5  2  0
  5  6  1  0
  6  7  2  0
  7  8  1  0
  8  9  1  0
  9 10  1  0
 10 11  2  0
 10 12  1  0
 12 13  2  0
 13 14  1  0
 14 15  2  0
 15 16  1  0
 16 17  1  0
 17 18  2  0
 18 19  1  0
 19 20  2  0
 20 21  1  0
 21 22  2  0
 21 23  1  0
 23 24  1  0
 24 25  1  0
 25 26  1  0
 26 27  1  0
 27 28  1  0
 26 29  1  0
 29 30  2  0
 29 31  1  0
 31 32  1  0
 32 33  2  0
 33 34  1  0
 34 35  1  0
 34 36  2  0
 36 37  1  0
 37 38  1  0
 37 39  2  0
 19 40  1  0
 40 41  2  3
 41 42  2  0
 15 43  1  0
 43 44  2  0
  7 45  1  0
 45 46  2  0
 46  4  1  0
 44 12  1  0
 22 17  1  0
 28 23  1  0
 39 32  1  0
  1 47  1  0
  1 48  1  0
  3 49  1  0
  5 50  1  0
  6 51  1  0
  8 52  1  0
  8 53  1  0
  9 54  1  0
 13 55  1  0
 14 56  1  0
 16 57  1  0
 16 58  1  0
 18 59  1  0
 20 60  1  0
 22 61  1  0
 24 62  1  0
 24 63  1  0
 25 64  1  0
 25 65  1  0
 27 66  1  0
 27 67  1  0
 28 68  1  0
 28 69  1  0
 33 70  1  0
 36 71  1  0
 39 72  1  0
 43 73  1  0
 44 74  1  0
 45 75  1  0
 46 76  1  0
M  CHG  2  41   1  42  -1
M  END
$$$$
[H]ON([H])C(=O)[C@]1([H])C([H])([H])C([H])([H])[C@@]([H])(N([H])C(=O)c2c(C(=O)c3c([H])c([H])c([H])n(C([H])([H])c4c([H])c([H])c([H])c([H])c4[H])c3=O)c3c(N([H])c4c([H])c([H])c(OC([H])([H])c5c([H])c([H])c([H])c(F)c5[H])c(Cl)c4[H])nc([H])nn3c2[H])C([H])([H])C1([H])[H]
     RDKit          3D

 90 96  0  0  0  0  0  0  0  0999 V2000
  -10.7823   -1.7549    1.4954 O   0  0  0  0  0  0  0  0  0  0  0  0
   -9.4427   -1.8655    1.6285 N   0  0  0  0  0  0  0  0  0  0  0  0
   -8.7024   -2.5430    0.6447 C   0  0  0  0  0  0  0  0  0  0  0  0
   -9.2817   -3.0415   -0.3391 O   0  0  0  0  0  0  0  0  0  0  0  0
   -7.2169   -2.6322    0.8331 C   0  0  1  0  0  0  0  0  0  0  0  0
   -6.6170   -3.3995   -0.3215 C   0  0  0  0  0  0  0  0  0  0  0  0
   -5.1009   -3.4368   -0.1331 C   0  0  0  0  0  0  0  0  0  0  0  0
   -4.6496   -2.0013   -0.3751 C   0  0  1  0  0  0  0  0  0  0  0  0
   -5.1400   -1.1921    0.7860 C   0  0  0  0  0  0  0  0  0  0  0  0
   -6.6082   -1.2831    1.0228 C   0  0  0  0  0  0  0  0  0  0  0  0
   -3.2092   -1.9391   -0.5382 N   0  0  0  0  0  0  0  0  0  0  0  0
   -2.5506   -2.0525   -1.7797 C   0  0  0  0  0  0  0  0  0  0  0  0
   -3.3105   -2.2387   -2.7753 O   0  0  0  0  0  0  0  0  0  0  0  0
   -1.1106   -1.9808   -1.9498 C   0  0  0  0  0  0  0  0  0  0  0  0
   -0.3625   -2.8088   -2.8057 C   0  0  0  0  0  0  0  0  0  0  0  0
    0.9546   -2.5002   -2.6507 N   0  0  0  0  0  0  0  0  0  0  0  0
    2.0220   -3.0147   -3.2395 N   0  0  0  0  0  0  0  0  0  0  0  0
    3.2587   -2.5799   -2.9566 C   0  0  0  0  0  0  0  0  0  0  0  0
    3.4669   -1.6074   -2.0672 N   0  0  0  0  0  0  0  0  0  0  0  0
    2.3753   -1.0609   -1.4459 C   0  0  0  0  0  0  0  0  0  0  0  0
    2.6256   -0.0113   -0.5512 N   0  0  0  0  0  0  0  0  0  0  0  0
    3.9898    0.3192   -0.3167 C   0  0  0  0  0  0  0  0  0  0  0  0
    4.6545   -0.3083    0.7299 C   0  0  0  0  0  0  0  0  0  0  0  0
    5.9838   -0.0949    1.0044 C   0  0  0  0  0  0  0  0  0  0  0  0
    6.7227    0.7612    0.2441 C   0  0  0  0  0  0  0  0  0  0  0  0
    8.0438    1.0388    0.4387 O   0  0  0  0  0  0  0  0  0  0  0  0
    8.7977    0.4237    1.4317 C   0  0  0  0  0  0  0  0  0  0  0  0
    8.8816   -1.0405    1.1472 C   0  0  0  0  0  0  0  0  0  0  0  0
    8.6215   -1.6014   -0.0805 C   0  0  0  0  0  0  0  0  0  0  0  0
    8.6991   -2.9419   -0.2661 C   0  0  0  0  0  0  0  0  0  0  0  0
    9.0494   -3.7557    0.8092 C   0  0  0  0  0  0  0  0  0  0  0  0
    9.3130   -3.2024    2.0431 C   0  0  0  0  0  0  0  0  0  0  0  0
    9.6572   -4.0195    3.0987 F   0  0  0  0  0  0  0  0  0  0  0  0
    9.2340   -1.8563    2.2280 C   0  0  0  0  0  0  0  0  0  0  0  0
    6.0844    1.4076   -0.8106 C   0  0  0  0  0  0  0  0  0  0  0  0
    7.0174    2.5249   -1.8164 Cl  0  0  0  0  0  0  0  0  0  0  0  0
    4.7451    1.1797   -1.0708 C   0  0  0  0  0  0  0  0  0  0  0  0
    1.1033   -1.5159   -1.7423 C   0  0  0  0  0  0  0  0  0  0  0  0
   -0.1832   -1.2009   -1.3142 C   0  0  0  0  0  0  0  0  0  0  0  0
   -0.5209   -0.1412   -0.3681 C   0  0  0  0  0  0  0  0  0  0  0  0
   -0.4730   -0.2587    0.8712 O   0  0  0  0  0  0  0  0  0  0  0  0
   -0.9577    1.1694   -0.9055 C   0  0  0  0  0  0  0  0  0  0  0  0
   -0.4862    1.5925   -2.1362 C   0  0  0  0  0  0  0  0  0  0  0  0
   -0.8608    2.8010   -2.6834 C   0  0  0  0  0  0  0  0  0  0  0  0
   -1.7137    3.6052   -2.0088 C   0  0  0  0  0  0  0  0  0  0  0  0
   -2.1875    3.2031   -0.7953 N   0  0  0  0  0  0  0  0  0  0  0  0
   -3.0975    4.0731   -0.1118 C   0  0  0  0  0  0  0  0  0  0  0  0
   -2.4238    4.9970    0.8005 C   0  0  0  0  0  0  0  0  0  0  0  0
   -1.7776    6.1134    0.3384 C   0  0  0  0  0  0  0  0  0  0  0  0
   -1.1493    6.9850    1.1969 C   0  0  0  0  0  0  0  0  0  0  0  0
   -1.1769    6.7157    2.5686 C   0  0  0  0  0  0  0  0  0  0  0  0
   -1.8198    5.6006    3.0541 C   0  0  0  0  0  0  0  0  0  0  0  0
   -2.4387    4.7502    2.1667 C   0  0  0  0  0  0  0  0  0  0  0  0
   -1.8190    2.0109   -0.2519 C   0  0  0  0  0  0  0  0  0  0  0  0
   -2.2767    1.6899    0.8545 O   0  0  0  0  0  0  0  0  0  0  0  0
  -11.0129   -1.6956    0.5256 H   0  0  0  0  0  0  0  0  0  0  0  0
   -8.9846   -1.4462    2.4450 H   0  0  0  0  0  0  0  0  0  0  0  0
   -6.9780   -3.2280    1.7632 H   0  0  0  0  0  0  0  0  0  0  0  0
   -6.7972   -2.8389   -1.2679 H   0  0  0  0  0  0  0  0  0  0  0  0
   -7.0590   -4.3878   -0.4533 H   0  0  0  0  0  0  0  0  0  0  0  0
   -4.7280   -4.1436   -0.8801 H   0  0  0  0  0  0  0  0  0  0  0  0
   -4.8857   -3.7666    0.8824 H   0  0  0  0  0  0  0  0  0  0  0  0
   -5.0931   -1.7439   -1.3570 H   0  0  0  0  0  0  0  0  0  0  0  0
   -4.6394   -1.6446    1.6975 H   0  0  0  0  0  0  0  0  0  0  0  0
   -4.7740   -0.1363    0.7735 H   0  0  0  0  0  0  0  0  0  0  0  0
   -6.8813   -0.9536    2.0570 H   0  0  0  0  0  0  0  0  0  0  0  0
   -7.1320   -0.5882    0.3350 H   0  0  0  0  0  0  0  0  0  0  0  0
   -2.6601   -1.8191    0.3239 H   0  0  0  0  0  0  0  0  0  0  0  0
   -0.7946   -3.5472   -3.4521 H   0  0  0  0  0  0  0  0  0  0  0  0
    4.1496   -3.0048   -3.4410 H   0  0  0  0  0  0  0  0  0  0  0  0
    1.9351    0.5308   -0.0675 H   0  0  0  0  0  0  0  0  0  0  0  0
    4.0887   -0.9980    1.3499 H   0  0  0  0  0  0  0  0  0  0  0  0
    6.4129   -0.6119    1.8497 H   0  0  0  0  0  0  0  0  0  0  0  0
    9.7965    0.8675    1.5927 H   0  0  0  0  0  0  0  0  0  0  0  0
    8.2970    0.4907    2.4432 H   0  0  0  0  0  0  0  0  0  0  0  0
    8.3471   -0.9722   -0.9278 H   0  0  0  0  0  0  0  0  0  0  0  0
    8.4972   -3.4222   -1.2340 H   0  0  0  0  0  0  0  0  0  0  0  0
    9.1124   -4.8244    0.6702 H   0  0  0  0  0  0  0  0  0  0  0  0
    9.4352   -1.4039    3.1771 H   0  0  0  0  0  0  0  0  0  0  0  0
    4.2441    1.6849   -1.8951 H   0  0  0  0  0  0  0  0  0  0  0  0
    0.1831    0.9875   -2.6996 H   0  0  0  0  0  0  0  0  0  0  0  0
   -0.4803    3.1163   -3.6487 H   0  0  0  0  0  0  0  0  0  0  0  0
   -2.0440    4.5579   -2.3831 H   0  0  0  0  0  0  0  0  0  0  0  0
   -3.8250    3.4211    0.4290 H   0  0  0  0  0  0  0  0  0  0  0  0
   -3.7082    4.5969   -0.8937 H   0  0  0  0  0  0  0  0  0  0  0  0
   -1.7687    6.2996   -0.7186 H   0  0  0  0  0  0  0  0  0  0  0  0
   -0.6494    7.8574    0.7950 H   0  0  0  0  0  0  0  0  0  0  0  0
   -0.6875    7.3818    3.2609 H   0  0  0  0  0  0  0  0  0  0  0  0
   -1.8191    5.4218    4.1362 H   0  0  0  0  0  0  0  0  0  0  0  0
   -2.9505    3.8827    2.5468 H   0  0  0  0  0  0  0  0  0  0  0  0
  1  2  1  0
  2  3  1  0
  3  4  2  0
  3  5  1  0
  5  6  1  0
  6  7  1  0
  7  8  1  0
  8  9  1  0
  9 10  1  0
  8 11  1  0
 11 12  1  0
 12 13  2  0
 12 14  1  0
 14 15  2  0
 15 16  1  0
 16 17  1  0
 17 18  2  0
 18 19  1  0
 19 20  2  0
 20 21  1  0
 21 22  1  0
 22 23  2  0
 23 24  1  0
 24 25  2  0
 25 26  1  0
 26 27  1  0
 27 28  1  0
 28 29  2  0
 29 30  1  0
 30 31  2  0
 31 32  1  0
 32 33  1  0
 32 34  2  0
 25 35  1  0
 35 36  1  0
 35 37  2  0
 20 38  1  0
 38 39  2  0
 39 40  1  0
 40 41  2  0
 40 42  1  0
 42 43  2  0
 43 44  1  0
 44 45  2  0
 45 46  1  0
 46 47  1  0
 47 48  1  0
 48 49  2  0
 49 50  1  0
 50 51  2  0
 51 52  1  0
 52 53  2  0
 46 54  1  0
 54 55  2  0
 10  5  1  0
 39 14  1  0
 54 42  1  0
 38 16  1  0
 53 48  1  0
 37 22  1  0
 34 28  1  0
  1 56  1  0
  2 57  1  0
  5 58  1  1
  6 59  1  0
  6 60  1  0
  7 61  1  0
  7 62  1  0
  8 63  1  6
  9 64  1  0
  9 65  1  0
 10 66  1  0
 10 67  1  0
 11 68  1  0
 15 69  1  0
 18 70  1  0
 21 71  1  0
 23 72  1  0
 24 73  1  0
 27 74  1  0
 27 75  1  0
 29 76  1  0
 30 77  1  0
 31 78  1  0
 34 79  1  0
 37 80  1  0
 43 81  1  0
 44 82  1  0
 45 83  1  0
 47 84  1  0
 47 85  1  0
 49 86  1  0
 50 87  1  0
 51 88  1  0
 52 89  1  0
 53 90  1  0
M  END
$$$$
[H]OC([H])(c1c([H])c(F)c([H])c(-c2nc(N([H])[H])sc2[H])c1[H])C([H])([H])[H]
     RDKit          3D

 27 28  0  0  0  0  0  0  0  0999 V2000
   -3.1477   -1.4286   -0.3402 C   0  0  0  0  0  0  0  0  0  0  0  0
   -3.1147   -0.0295    0.1710 C   0  0  0  0  0  0  0  0  0  0  0  0
   -3.9407    0.8252   -0.5895 O   0  0  0  0  0  0  0  0  0  0  0  0
   -1.7741    0.5400    0.2979 C   0  0  0  0  0  0  0  0  0  0  0  0
   -1.6285    1.8740    0.6042 C   0  0  0  0  0  0  0  0  0  0  0  0
   -0.3656    2.4477    0.7324 C   0  0  0  0  0  0  0  0  0  0  0  0
   -0.2755    3.7719    1.0366 F   0  0  0  0  0  0  0  0  0  0  0  0
    0.7343    1.6533    0.5463 C   0  0  0  0  0  0  0  0  0  0  0  0
    0.6355    0.3169    0.2393 C   0  0  0  0  0  0  0  0  0  0  0  0
   -0.6142   -0.2097    0.1220 C   0  0  0  0  0  0  0  0  0  0  0  0
    1.8481   -0.5340    0.0400 C   0  0  0  0  0  0  0  0  0  0  0  0
    1.7412   -1.8704   -0.2670 C   0  0  0  0  0  0  0  0  0  0  0  0
    3.3798   -2.3375   -0.3794 S   0  0  0  0  0  0  0  0  0  0  0  0
    4.0994   -0.8064   -0.0295 C   0  0  0  0  0  0  0  0  0  0  0  0
    5.4921   -0.4777    0.0418 N   0  0  0  0  0  0  0  0  0  0  0  0
    3.0416   -0.0441    0.1490 N   0  0  0  0  0  0  0  0  0  0  0  0
   -4.1848   -1.6393   -0.7142 H   0  0  0  0  0  0  0  0  0  0  0  0
   -2.9539   -2.1692    0.4678 H   0  0  0  0  0  0  0  0  0  0  0  0
   -2.4699   -1.6331   -1.1823 H   0  0  0  0  0  0  0  0  0  0  0  0
   -3.5768   -0.0327    1.1991 H   0  0  0  0  0  0  0  0  0  0  0  0
   -4.1882    1.6134   -0.0189 H   0  0  0  0  0  0  0  0  0  0  0  0
   -2.4807    2.5234    0.7561 H   0  0  0  0  0  0  0  0  0  0  0  0
    1.7095    2.0888    0.6436 H   0  0  0  0  0  0  0  0  0  0  0  0
   -0.7390   -1.2419   -0.1150 H   0  0  0  0  0  0  0  0  0  0  0  0
    0.8196   -2.4676   -0.4015 H   0  0  0  0  0  0  0  0  0  0  0  0
    5.9377    0.0050   -0.7378 H   0  0  0  0  0  0  0  0  0  0  0  0
    6.0155   -0.7380    0.8842 H   0  0  0  0  0  0  0  0  0  0  0  0
  1  2  1  0
  2  3  1  0
  2  4  1  0
  4  5  2  0
  5  6  1  0
  6  7  1  0
  6  8  2  0
  8  9  1  0
  9 10  2  0
  9 11  1  0
 11 12  2  0
 12 13  1  0
 13 14  1  0
 14 15  1  0
 14 16  2  0
 10  4  1  0
 16 11  1  0
  1 17  1  0
  1 18  1  0
  1 19  1  0
  2 20  1  0
  3 21  1  0
  5 22  1  0
  8 23  1  0
 10 24  1  0
 12 25  1  0
 15 26  1  0
 15 27  1  0
M  END
$$$$
[H]ON([H])C(=O)[C@]([H])(N1C(=O)c2c([H])c(S(=O)(=O)c3c([H])c([H])c(OC([H])([H])c4c([H])c([H])c(C#N)c([H])c4[H])c([H])c3[H])c([H])c([H])c2C1([H])[H])C([H])([H])[H]
     RDKit          3D

 56 59  0  0  0  0  0  0  0  0999 V2000
   -6.3525    2.5154   -1.0080 C   0  0  0  0  0  0  0  0  0  0  0  0
   -6.5464    1.0363   -0.6859 C   0  0  1  0  0  0  0  0  0  0  0  0
   -5.3160    0.4174   -0.2067 N   0  0  0  0  0  0  0  0  0  0  0  0
   -4.5516    0.7098    0.9612 C   0  0  0  0  0  0  0  0  0  0  0  0
   -3.4411   -0.2602    0.9989 C   0  0  0  0  0  0  0  0  0  0  0  0
   -2.4279   -0.4638    1.9671 C   0  0  0  0  0  0  0  0  0  0  0  0
   -1.5021   -1.4451    1.7016 C   0  0  0  0  0  0  0  0  0  0  0  0
   -1.4976   -2.2192    0.5852 C   0  0  0  0  0  0  0  0  0  0  0  0
   -2.4965   -1.9988   -0.3386 C   0  0  0  0  0  0  0  0  0  0  0  0
   -3.4706   -1.0176   -0.1290 C   0  0  0  0  0  0  0  0  0  0  0  0
   -4.6269   -0.6257   -0.9102 C   0  0  0  0  0  0  0  0  0  0  0  0
   -4.9726   -1.1075   -2.0055 O   0  0  0  0  0  0  0  0  0  0  0  0
   -0.2791   -3.4741    0.2934 S   0  0  0  0  0  0  0  0  0  0  0  0
   -0.5266   -4.1926   -0.9822 O   0  0  0  0  0  0  0  0  0  0  0  0
   -0.2865   -4.4103    1.4881 O   0  0  0  0  0  0  0  0  0  0  0  0
    1.2504   -2.6748    0.2556 C   0  0  0  0  0  0  0  0  0  0  0  0
    1.3431   -1.4245   -0.3301 C   0  0  0  0  0  0  0  0  0  0  0  0
    2.5945   -0.8293   -0.3154 C   0  0  0  0  0  0  0  0  0  0  0  0
    3.7021   -1.4353    0.2465 C   0  0  0  0  0  0  0  0  0  0  0  0
    4.9124   -0.7338    0.2047 O   0  0  0  0  0  0  0  0  0  0  0  0
    4.9988    0.5542   -0.3745 C   0  0  0  0  0  0  0  0  0  0  0  0
    6.4140    1.0360   -0.2546 C   0  0  0  0  0  0  0  0  0  0  0  0
    6.8942    1.4926    0.9632 C   0  0  0  0  0  0  0  0  0  0  0  0
    8.1886    1.9473    1.0930 C   0  0  0  0  0  0  0  0  0  0  0  0
    9.0675    1.9675    0.0133 C   0  0  0  0  0  0  0  0  0  0  0  0
    8.5877    1.5124   -1.1934 C   0  0  0  0  0  0  0  0  0  0  0  0
    7.2819    1.0554   -1.3218 C   0  0  0  0  0  0  0  0  0  0  0  0
   10.4145    2.4496    0.1728 C   0  0  0  0  0  0  0  0  0  0  0  0
   11.5093    2.8489    0.3328 N   0  0  0  0  0  0  0  0  0  0  0  0
    3.5644   -2.6644    0.8091 C   0  0  0  0  0  0  0  0  0  0  0  0
    2.3513   -3.3179    0.8328 C   0  0  0  0  0  0  0  0  0  0  0  0
   -7.6692    0.9642    0.3129 C   0  0  0  0  0  0  0  0  0  0  0  0
   -7.4082    0.3644    1.3606 O   0  0  0  0  0  0  0  0  0  0  0  0
   -8.8478    1.5553   -0.0257 N   0  0  0  0  0  0  0  0  0  0  0  0
   -9.9608    2.1132   -0.3451 O   0  0  0  0  0  0  0  0  0  0  0  0
   -5.9894    2.6504   -2.0488 H   0  0  0  0  0  0  0  0  0  0  0  0
   -7.2822    3.0633   -0.8034 H   0  0  0  0  0  0  0  0  0  0  0  0
   -5.5674    2.9037   -0.3296 H   0  0  0  0  0  0  0  0  0  0  0  0
   -6.8233    0.5470   -1.6469 H   0  0  0  0  0  0  0  0  0  0  0  0
   -4.1660    1.7679    0.9573 H   0  0  0  0  0  0  0  0  0  0  0  0
   -5.1416    0.5301    1.8898 H   0  0  0  0  0  0  0  0  0  0  0  0
   -2.4592    0.1544    2.8279 H   0  0  0  0  0  0  0  0  0  0  0  0
   -0.7047   -1.6142    2.4479 H   0  0  0  0  0  0  0  0  0  0  0  0
   -2.5507   -2.5928   -1.2563 H   0  0  0  0  0  0  0  0  0  0  0  0
    0.4900   -0.9342   -0.7762 H   0  0  0  0  0  0  0  0  0  0  0  0
    2.7157    0.1665   -0.7669 H   0  0  0  0  0  0  0  0  0  0  0  0
    4.3707    1.2459    0.2550 H   0  0  0  0  0  0  0  0  0  0  0  0
    4.6090    0.5823   -1.3959 H   0  0  0  0  0  0  0  0  0  0  0  0
    6.2448    1.4967    1.8242 H   0  0  0  0  0  0  0  0  0  0  0  0
    8.5785    2.3108    2.0509 H   0  0  0  0  0  0  0  0  0  0  0  0
    9.2628    1.5192   -2.0372 H   0  0  0  0  0  0  0  0  0  0  0  0
    6.9316    0.6954   -2.2949 H   0  0  0  0  0  0  0  0  0  0  0  0
    4.4434   -3.1278    1.2501 H   0  0  0  0  0  0  0  0  0  0  0  0
    2.2100   -4.3100    1.2799 H   0  0  0  0  0  0  0  0  0  0  0  0
   -9.4694    1.2024    1.1485 H   0  0  0  0  0  0  0  0  0  0  0  0
  -10.5974    1.4980   -0.7806 H   0  0  0  0  0  0  0  0  0  0  0  0
  1  2  1  0
  2  3  1  0
  3  4  1  0
  4  5  1  0
  5  6  2  0
  6  7  1  0
  7  8  2  0
  8  9  1  0
  9 10  2  0
 10 11  1  0
 11 12  2  0
  8 13  1  0
 13 14  2  0
 13 15  2  0
 13 16  1  0
 16 17  2  0
 17 18  1  0
 18 19  2  0
 19 20  1  0
 20 21  1  0
 21 22  1  0
 22 23  2  0
 23 24  1  0
 24 25  2  0
 25 26  1  0
 26 27  2  0
 25 28  1  0
 28 29  3  0
 19 30  1  0
 30 31  2  0
  2 32  1  0
 32 33  2  0
 32 34  1  0
 34 35  1  0
 11  3  1  0
 31 16  1  0
 10  5  1  0
 27 22  1  0
  1 36  1  0
  1 37  1  0
  1 38  1  0
  2 39  1  6
  4 40  1  0
  4 41  1  0
  6 42  1  0
  7 43  1  0
  9 44  1  0
 17 45  1  0
 18 46  1  0
 21 47  1  0
 21 48  1  0
 23 49  1  0
 24 50  1  0
 26 51  1  0
 27 52  1  0
 30 53  1  0
 31 54  1  0
 34 55  1  0
 35 56  1  0
M  END
$$$$
[H]OC(=O)C([H])([H])C([H])([H])[C@@]([H])(C(=O)N([H])[C@]([H])(C(=O)N([H])[C@]([H])(/C([H])=C(/[H])C([H])([H])C([H])([H])C([H])([H])C([H])([H])c1c([H])c([H])c([H])c([H])c1[H])C([H])([H])C(=O)O[H])C([H])(C([H])([H])[H])C([H])([H])[H])N([H])C(=O)[C@@]([H])(N([H])C(=O)OC([H])([H])c1c([H])c([H])c([H])c([H])c1[H])C([H])([H])C(=O)O[H]
     RDKit          3D

100101  0  0  0  0  0  0  0  0999 V2000
    1.0520   -0.9458   -3.5009 C   0  0  0  0  0  0  0  0  0  0  0  0
   -0.3757   -0.9813   -2.9533 C   0  0  0  0  0  0  0  0  0  0  0  0
   -0.5406   -2.3737   -2.3694 C   0  0  0  0  0  0  0  0  0  0  0  0
   -0.5622    0.1240   -1.9413 C   0  0  2  0  0  0  0  0  0  0  0  0
    0.3544   -0.0146   -0.8027 N   0  0  0  0  0  0  0  0  0  0  0  0
    1.5150    0.7825   -0.7386 C   0  0  0  0  0  0  0  0  0  0  0  0
    1.6738    1.5895   -1.7385 O   0  0  0  0  0  0  0  0  0  0  0  0
    2.5663    0.8313    0.2700 C   0  0  2  0  0  0  0  0  0  0  0  0
    2.2295    1.4891    1.5589 C   0  0  0  0  0  0  0  0  0  0  0  0
    1.1447    0.8629    2.3735 C   0  0  0  0  0  0  0  0  0  0  0  0
    1.4467   -0.4969    2.8664 C   0  0  0  0  0  0  0  0  0  0  0  0
    1.5128   -0.7263    4.2559 O   0  0  0  0  0  0  0  0  0  0  0  0
    1.6522   -1.4878    2.1470 O   0  0  0  0  0  0  0  0  0  0  0  0
    3.7930    1.4534   -0.2977 N   0  0  0  0  0  0  0  0  0  0  0  0
    5.0388    0.8670   -0.0696 C   0  0  0  0  0  0  0  0  0  0  0  0
    5.0957   -0.1760    0.6589 O   0  0  0  0  0  0  0  0  0  0  0  0
    6.2896    1.4535   -0.6720 C   0  0  2  0  0  0  0  0  0  0  0  0
    6.5912    0.4665   -1.9054 C   0  0  0  0  0  0  0  0  0  0  0  0
    6.8030   -0.8672   -1.3774 C   0  0  0  0  0  0  0  0  0  0  0  0
    5.8119   -1.8588   -1.8289 O   0  0  0  0  0  0  0  0  0  0  0  0
    7.6392   -1.3305   -0.6321 O   0  0  0  0  0  0  0  0  0  0  0  0
    7.3335    1.4863    0.1875 N   0  0  0  0  0  0  0  0  0  0  0  0
    8.4151    1.5315    1.0520 C   0  0  0  0  0  0  0  0  0  0  0  0
    9.5274    2.0387    0.8230 O   0  0  0  0  0  0  0  0  0  0  0  0
    8.3165    0.9622    2.3584 O   0  0  0  0  0  0  0  0  0  0  0  0
    9.3751    0.9808    3.2600 C   0  0  0  0  0  0  0  0  0  0  0  0
   10.4862    0.1284    2.7198 C   0  0  0  0  0  0  0  0  0  0  0  0
   10.1581   -0.9942    1.9822 C   0  0  0  0  0  0  0  0  0  0  0  0
   11.1246   -1.8323    1.5048 C   0  0  0  0  0  0  0  0  0  0  0  0
   12.4509   -1.5282    1.7789 C   0  0  0  0  0  0  0  0  0  0  0  0
   12.8064   -0.4297    2.5025 C   0  0  0  0  0  0  0  0  0  0  0  0
   11.7863    0.4199    2.9811 C   0  0  0  0  0  0  0  0  0  0  0  0
   -1.9464    0.1691   -1.4488 C   0  0  0  0  0  0  0  0  0  0  0  0
   -2.2127    0.0875   -0.2299 O   0  0  0  0  0  0  0  0  0  0  0  0
   -2.9715    0.3109   -2.4021 N   0  0  0  0  0  0  0  0  0  0  0  0
   -4.3674    0.3691   -2.0612 C   0  0  1  0  0  0  0  0  0  0  0  0
   -5.0919    1.4703   -2.7481 C   0  0  0  0  0  0  0  0  0  0  0  0
   -4.9823    1.3273   -4.2232 C   0  0  0  0  0  0  0  0  0  0  0  0
   -5.9078    0.5761   -4.9402 O   0  0  0  0  0  0  0  0  0  0  0  0
   -4.0518    1.8805   -4.8529 O   0  0  0  0  0  0  0  0  0  0  0  0
   -4.9425   -0.9550   -2.4279 C   0  0  0  0  0  0  0  0  0  0  0  0
   -5.8532   -1.6230   -1.7583 C   0  0  0  0  0  0  0  0  0  0  0  0
   -6.4302   -1.0936   -0.5164 C   0  0  0  0  0  0  0  0  0  0  0  0
   -7.9378   -0.9094   -0.6392 C   0  0  0  0  0  0  0  0  0  0  0  0
   -8.5707   -0.3649    0.6171 C   0  0  0  0  0  0  0  0  0  0  0  0
  -10.0762   -0.2169    0.4757 C   0  0  0  0  0  0  0  0  0  0  0  0
  -10.5472    0.3292    1.7647 C   0  0  0  0  0  0  0  0  0  0  0  0
  -10.6587    1.7133    1.9811 C   0  0  0  0  0  0  0  0  0  0  0  0
  -11.0930    2.2589    3.1739 C   0  0  0  0  0  0  0  0  0  0  0  0
  -11.4451    1.4048    4.2333 C   0  0  0  0  0  0  0  0  0  0  0  0
  -11.3443    0.0506    4.0511 C   0  0  0  0  0  0  0  0  0  0  0  0
  -10.9061   -0.4459    2.8482 C   0  0  0  0  0  0  0  0  0  0  0  0
    1.2377   -0.0102   -4.0583 H   0  0  0  0  0  0  0  0  0  0  0  0
    1.1337   -1.7724   -4.2695 H   0  0  0  0  0  0  0  0  0  0  0  0
    1.7513   -1.1498   -2.6739 H   0  0  0  0  0  0  0  0  0  0  0  0
   -1.0737   -0.8073   -3.7846 H   0  0  0  0  0  0  0  0  0  0  0  0
    0.3976   -2.6277   -1.8330 H   0  0  0  0  0  0  0  0  0  0  0  0
   -1.3713   -2.4475   -1.6730 H   0  0  0  0  0  0  0  0  0  0  0  0
   -0.7530   -3.0522   -3.2194 H   0  0  0  0  0  0  0  0  0  0  0  0
   -0.2615    1.0762   -2.4513 H   0  0  0  0  0  0  0  0  0  0  0  0
    0.1234   -0.6977   -0.0761 H   0  0  0  0  0  0  0  0  0  0  0  0
    2.8894   -0.2235    0.5120 H   0  0  0  0  0  0  0  0  0  0  0  0
    1.9819    2.5811    1.3954 H   0  0  0  0  0  0  0  0  0  0  0  0
    3.1660    1.5118    2.2000 H   0  0  0  0  0  0  0  0  0  0  0  0
    0.8690    1.5035    3.2532 H   0  0  0  0  0  0  0  0  0  0  0  0
    0.1983    0.8198    1.7571 H   0  0  0  0  0  0  0  0  0  0  0  0
    0.6688   -0.9272    4.7606 H   0  0  0  0  0  0  0  0  0  0  0  0
    3.6489    2.3186   -0.8438 H   0  0  0  0  0  0  0  0  0  0  0  0
    6.0243    2.3556   -1.2228 H   0  0  0  0  0  0  0  0  0  0  0  0
    7.4872    0.9013   -2.3460 H   0  0  0  0  0  0  0  0  0  0  0  0
    5.6713    0.5619   -2.5203 H   0  0  0  0  0  0  0  0  0  0  0  0
    5.3428   -1.6769   -2.6856 H   0  0  0  0  0  0  0  0  0  0  0  0
    8.0997    2.0769   -0.7790 H   0  0  0  0  0  0  0  0  0  0  0  0
    9.7501    2.0239    3.5090 H   0  0  0  0  0  0  0  0  0  0  0  0
    9.0692    0.5410    4.2546 H   0  0  0  0  0  0  0  0  0  0  0  0
    9.1141   -1.1952    1.8037 H   0  0  0  0  0  0  0  0  0  0  0  0
   10.9058   -2.7164    0.9313 H   0  0  0  0  0  0  0  0  0  0  0  0
   13.1992   -2.2114    1.3915 H   0  0  0  0  0  0  0  0  0  0  0  0
   13.8300   -0.1839    2.7323 H   0  0  0  0  0  0  0  0  0  0  0  0
   12.1196    1.2760    3.5434 H   0  0  0  0  0  0  0  0  0  0  0  0
   -2.7373    0.3746   -3.4079 H   0  0  0  0  0  0  0  0  0  0  0  0
   -4.3913    0.5167   -0.9524 H   0  0  0  0  0  0  0  0  0  0  0  0
   -6.1647    1.4612   -2.4387 H   0  0  0  0  0  0  0  0  0  0  0  0
   -4.6771    2.4575   -2.4183 H   0  0  0  0  0  0  0  0  0  0  0  0
   -5.6151   -0.1665   -5.5781 H   0  0  0  0  0  0  0  0  0  0  0  0
   -4.5801   -1.4165   -3.3404 H   0  0  0  0  0  0  0  0  0  0  0  0
   -6.1873   -2.6060   -2.1395 H   0  0  0  0  0  0  0  0  0  0  0  0
   -6.3324   -1.9299    0.2489 H   0  0  0  0  0  0  0  0  0  0  0  0
   -5.9256   -0.2444   -0.0534 H   0  0  0  0  0  0  0  0  0  0  0  0
   -8.4017   -1.8506   -0.9611 H   0  0  0  0  0  0  0  0  0  0  0  0
   -8.1654   -0.1716   -1.4681 H   0  0  0  0  0  0  0  0  0  0  0  0
   -8.3360   -1.0377    1.4677 H   0  0  0  0  0  0  0  0  0  0  0  0
   -8.1703    0.6467    0.8875 H   0  0  0  0  0  0  0  0  0  0  0  0
  -10.2690    0.5602   -0.2963 H   0  0  0  0  0  0  0  0  0  0  0  0
  -10.5792   -1.1632    0.2112 H   0  0  0  0  0  0  0  0  0  0  0  0
  -10.3919    2.3924    1.1614 H   0  0  0  0  0  0  0  0  0  0  0  0
  -11.2022    3.3097    3.3731 H   0  0  0  0  0  0  0  0  0  0  0  0
  -11.7879    1.8486    5.1568 H   0  0  0  0  0  0  0  0  0  0  0  0
  -11.6305   -0.5814    4.8802 H   0  0  0  0  0  0  0  0  0  0  0  0
  -10.8492   -1.5231    2.7099 H   0  0  0  0  0  0  0  0  0  0  0  0
  1  2  1  0
  2  3  1  0
  2  4  1  0
  4  5  1  0
  5  6  1  0
  6  7  2  0
  6  8  1  0
  8  9  1  0
  9 10  1  0
 10 11  1  0
 11 12  1  0
 11 13  2  0
  8 14  1  0
 14 15  1  0
 15 16  2  0
 15 17  1  0
 17 18  1  0
 18 19  1  0
 19 20  1  0
 19 21  2  0
 17 22  1  0
 22 23  1  0
 23 24  2  0
 23 25  1  0
 25 26  1  0
 26 27  1  0
 27 28  2  0
 28 29  1  0
 29 30  2  0
 30 31  1  0
 31 32  2  0
  4 33  1  0
 33 34  2  0
 33 35  1  0
 35 36  1  0
 36 37  1  0
 37 38  1  0
 38 39  1  0
 38 40  2  0
 36 41  1  0
 41 42  2  0
 42 43  1  0
 43 44  1  0
 44 45  1  0
 45 46  1  0
 46 47  1  0
 47 48  2  0
 48 49  1  0
 49 50  2  0
 50 51  1  0
 51 52  2  0
 32 27  1  0
 52 47  1  0
  1 53  1  0
  1 54  1  0
  1 55  1  0
  2 56  1  0
  3 57  1  0
  3 58  1  0
  3 59  1  0
  4 60  1  6
  5 61  1  0
  8 62  1  1
  9 63  1  0
  9 64  1  0
 10 65  1  0
 10 66  1  0
 12 67  1  0
 14 68  1  0
 17 69  1  6
 18 70  1  0
 18 71  1  0
 20 72  1  0
 22 73  1  0
 26 74  1  0
 26 75  1  0
 28 76  1  0
 29 77  1  0
 30 78  1  0
 31 79  1  0
 32 80  1  0
 35 81  1  0
 36 82  1  1
 37 83  1  0
 37 84  1  0
 39 85  1  0
 41 86  1  0
 42 87  1  0
 43 88  1  0
 43 89  1  0
 44 90  1  0
 44 91  1  0
 45 92  1  0
 45 93  1  0
 46 94  1  0
 46 95  1  0
 48 96  1  0
 49 97  1  0
 50 98  1  0
 51 99  1  0
 52100  1  0
M  END
$$$$
[H]c1c([H])c([H])c2c(c1[H])N=C(N([H])[H])C2([H])C([H])([H])Oc1c([H])c([H])c([H])c(C(=O)N([H])OC([H])([H])[H])c1[H]
     RDKit          3D

 40 42  0  0  0  0  0  0  0  0999 V2000
    6.9737    0.0920   -1.5135 C   0  0  0  0  0  0  0  0  0  0  0  0
    6.0813   -0.9617   -1.3896 O   0  0  0  0  0  0  0  0  0  0  0  0
    4.8623   -0.6096   -0.9698 N   0  0  0  0  0  0  0  0  0  0  0  0
    4.4091   -1.0434    0.2990 C   0  0  0  0  0  0  0  0  0  0  0  0
    5.1911   -1.7641    1.0086 O   0  0  0  0  0  0  0  0  0  0  0  0
    3.0999   -0.7107    0.8336 C   0  0  0  0  0  0  0  0  0  0  0  0
    2.8074   -0.9870    2.1567 C   0  0  0  0  0  0  0  0  0  0  0  0
    1.5803   -0.6934    2.7018 C   0  0  0  0  0  0  0  0  0  0  0  0
    0.5714   -0.0964    1.9261 C   0  0  0  0  0  0  0  0  0  0  0  0
    0.8317    0.1869    0.6153 C   0  0  0  0  0  0  0  0  0  0  0  0
   -0.0614    0.7544   -0.2321 O   0  0  0  0  0  0  0  0  0  0  0  0
   -1.3453    1.1105    0.0034 C   0  0  0  0  0  0  0  0  0  0  0  0
   -2.2987   -0.0336    0.2923 C   0  0  0  0  0  0  0  0  0  0  0  0
   -2.3538   -0.9562   -0.8746 C   0  0  0  0  0  0  0  0  0  0  0  0
   -1.2981   -1.7421   -1.3927 N   0  0  0  0  0  0  0  0  0  0  0  0
   -3.5302   -0.9404   -1.3656 N   0  0  0  0  0  0  0  0  0  0  0  0
   -4.3906   -0.0611   -0.6511 C   0  0  0  0  0  0  0  0  0  0  0  0
   -5.7260    0.2842   -0.8072 C   0  0  0  0  0  0  0  0  0  0  0  0
   -6.3185    1.1916    0.0539 C   0  0  0  0  0  0  0  0  0  0  0  0
   -5.6107    1.7624    1.0667 C   0  0  0  0  0  0  0  0  0  0  0  0
   -4.2677    1.4017    1.2071 C   0  0  0  0  0  0  0  0  0  0  0  0
   -3.6748    0.5069    0.3617 C   0  0  0  0  0  0  0  0  0  0  0  0
    2.1056   -0.1306    0.0953 C   0  0  0  0  0  0  0  0  0  0  0  0
    6.8006    0.6951   -2.4462 H   0  0  0  0  0  0  0  0  0  0  0  0
    6.9222    0.8142   -0.6745 H   0  0  0  0  0  0  0  0  0  0  0  0
    8.0367   -0.2881   -1.5409 H   0  0  0  0  0  0  0  0  0  0  0  0
    4.2425   -0.0254   -1.5512 H   0  0  0  0  0  0  0  0  0  0  0  0
    3.5908   -1.4465    2.7458 H   0  0  0  0  0  0  0  0  0  0  0  0
    1.3352   -0.9024    3.7330 H   0  0  0  0  0  0  0  0  0  0  0  0
   -0.3755    0.1508    2.3776 H   0  0  0  0  0  0  0  0  0  0  0  0
   -1.8327    1.6435   -0.8794 H   0  0  0  0  0  0  0  0  0  0  0  0
   -1.4782    1.8020    0.8984 H   0  0  0  0  0  0  0  0  0  0  0  0
   -2.0536   -0.6399    1.1666 H   0  0  0  0  0  0  0  0  0  0  0  0
   -1.3347   -2.7900   -1.3785 H   0  0  0  0  0  0  0  0  0  0  0  0
   -0.4576   -1.2947   -1.8039 H   0  0  0  0  0  0  0  0  0  0  0  0
   -6.2756   -0.1797   -1.6172 H   0  0  0  0  0  0  0  0  0  0  0  0
   -7.3624    1.4593   -0.0719 H   0  0  0  0  0  0  0  0  0  0  0  0
   -6.0016    2.4693    1.7684 H   0  0  0  0  0  0  0  0  0  0  0  0
   -3.7023    1.8702    2.0313 H   0  0  0  0  0  0  0  0  0  0  0  0
    2.3080    0.1019   -0.9608 H   0  0  0  0  0  0  0  0  0  0  0  0
  1  2  1  0
  2  3  1  0
  3  4  1  0
  4  5  2  0
  4  6  1  0
  6  7  2  0
  7  8  1  0
  8  9  2  0
  9 10  1  0
 10 11  1  0
 11 12  1  0
 12 13  1  0
 13 14  1  0
 14 15  1  0
 14 16  2  0
 16 17  1  0
 17 18  2  0
 18 19  1  0
 19 20  2  0
 20 21  1  0
 21 22  2  0
 10 23  2  0
 23  6  1  0
 22 13  1  0
 22 17  1  0
  1 24  1  0
  1 25  1  0
  1 26  1  0
  3 27  1  0
  7 28  1  0
  8 29  1  0
  9 30  1  0
 12 31  1  0
 12 32  1  0
 13 33  1  0
 15 34  1  0
 15 35  1  0
 18 36  1  0
 19 37  1  0
 20 38  1  0
 21 39  1  0
 23 40  1  0
M  END
$$$$
[H]c1c(OC([H])([H])C([H])([H])OC([H])([H])[H])c([H])c2c(N(C([H])([H])[H])C([H])([H])[H])nc(N([H])c3c([H])c([H])c4c(c3[H])c([H])c([H])n4C([H])([H])[H])nc2c1[H]
     RDKit          3D

 54 57  0  0  0  0  0  0  0  0999 V2000
    7.8069   -0.5406    0.8774 C   0  0  0  0  0  0  0  0  0  0  0  0
    7.3274   -0.0353   -0.3269 O   0  0  0  0  0  0  0  0  0  0  0  0
    6.0436   -0.6072   -0.5054 C   0  0  0  0  0  0  0  0  0  0  0  0
    5.5372   -0.0514   -1.8125 C   0  0  0  0  0  0  0  0  0  0  0  0
    4.2949   -0.4579   -2.2153 O   0  0  0  0  0  0  0  0  0  0  0  0
    3.0475   -0.3244   -1.7048 C   0  0  0  0  0  0  0  0  0  0  0  0
    2.0100   -0.9209   -2.4333 C   0  0  0  0  0  0  0  0  0  0  0  0
    0.7131   -0.8392   -1.9990 C   0  0  0  0  0  0  0  0  0  0  0  0
    0.4463   -0.1593   -0.8313 C   0  0  0  0  0  0  0  0  0  0  0  0
   -0.8013   -0.0360   -0.3547 N   0  0  0  0  0  0  0  0  0  0  0  0
   -1.1388    0.6074    0.7568 C   0  0  0  0  0  0  0  0  0  0  0  0
   -2.4638    0.6979    1.1967 N   0  0  0  0  0  0  0  0  0  0  0  0
   -3.6474    0.2028    0.6428 C   0  0  0  0  0  0  0  0  0  0  0  0
   -3.7761   -0.2591   -0.6339 C   0  0  0  0  0  0  0  0  0  0  0  0
   -4.9718   -0.7658   -1.1481 C   0  0  0  0  0  0  0  0  0  0  0  0
   -6.0672   -0.7947   -0.3158 C   0  0  0  0  0  0  0  0  0  0  0  0
   -7.3415   -1.2276   -0.5435 N   0  0  0  0  0  0  0  0  0  0  0  0
   -7.8064   -1.7779   -1.8014 C   0  0  0  0  0  0  0  0  0  0  0  0
   -8.0532   -1.0507    0.5827 C   0  0  0  0  0  0  0  0  0  0  0  0
   -7.2473   -0.5020    1.5496 C   0  0  0  0  0  0  0  0  0  0  0  0
   -5.9849   -0.3372    0.9846 C   0  0  0  0  0  0  0  0  0  0  0  0
   -4.7944    0.1570    1.4666 C   0  0  0  0  0  0  0  0  0  0  0  0
   -0.1299    1.1711    1.4408 N   0  0  0  0  0  0  0  0  0  0  0  0
    1.1567    1.1111    1.0582 C   0  0  0  0  0  0  0  0  0  0  0  0
    2.1657    1.7110    1.8547 N   0  0  0  0  0  0  0  0  0  0  0  0
    3.0773    0.8611    2.5697 C   0  0  0  0  0  0  0  0  0  0  0  0
    2.2815    3.1391    1.9507 C   0  0  0  0  0  0  0  0  0  0  0  0
    1.4746    0.4394   -0.0966 C   0  0  0  0  0  0  0  0  0  0  0  0
    2.7616    0.3481   -0.5460 C   0  0  0  0  0  0  0  0  0  0  0  0
    8.8239   -0.0984    1.0359 H   0  0  0  0  0  0  0  0  0  0  0  0
    7.1717   -0.1857    1.7188 H   0  0  0  0  0  0  0  0  0  0  0  0
    7.8147   -1.6424    0.9020 H   0  0  0  0  0  0  0  0  0  0  0  0
    6.2675   -1.6893   -0.7078 H   0  0  0  0  0  0  0  0  0  0  0  0
    5.4091   -0.4591    0.3552 H   0  0  0  0  0  0  0  0  0  0  0  0
    6.2789   -0.4266   -2.5870 H   0  0  0  0  0  0  0  0  0  0  0  0
    5.6728    1.0584   -1.8567 H   0  0  0  0  0  0  0  0  0  0  0  0
    2.1993   -1.4599   -3.3537 H   0  0  0  0  0  0  0  0  0  0  0  0
   -0.1176   -1.2954   -2.5479 H   0  0  0  0  0  0  0  0  0  0  0  0
   -2.5698    1.2532    2.1232 H   0  0  0  0  0  0  0  0  0  0  0  0
   -2.9739   -0.2505   -1.3199 H   0  0  0  0  0  0  0  0  0  0  0  0
   -5.0546   -1.1272   -2.1606 H   0  0  0  0  0  0  0  0  0  0  0  0
   -7.9347   -0.9870   -2.5642 H   0  0  0  0  0  0  0  0  0  0  0  0
   -7.0909   -2.5486   -2.1887 H   0  0  0  0  0  0  0  0  0  0  0  0
   -8.7651   -2.3369   -1.6143 H   0  0  0  0  0  0  0  0  0  0  0  0
   -9.0945   -1.3103    0.6785 H   0  0  0  0  0  0  0  0  0  0  0  0
   -7.5384   -0.2488    2.5517 H   0  0  0  0  0  0  0  0  0  0  0  0
   -4.7396    0.5133    2.4890 H   0  0  0  0  0  0  0  0  0  0  0  0
    3.0219   -0.1997    2.2328 H   0  0  0  0  0  0  0  0  0  0  0  0
    2.7453    0.8761    3.6483 H   0  0  0  0  0  0  0  0  0  0  0  0
    4.1167    1.2453    2.5859 H   0  0  0  0  0  0  0  0  0  0  0  0
    3.3180    3.5026    2.0183 H   0  0  0  0  0  0  0  0  0  0  0  0
    1.7421    3.5578    2.8286 H   0  0  0  0  0  0  0  0  0  0  0  0
    1.8418    3.6567    1.0495 H   0  0  0  0  0  0  0  0  0  0  0  0
    3.5352    0.8437    0.0350 H   0  0  0  0  0  0  0  0  0  0  0  0
  1  2  1  0
  2  3  1  0
  3  4  1  0
  4  5  1  0
  5  6  1  0
  6  7  2  0
  7  8  1  0
  8  9  2  0
  9 10  1  0
 10 11  2  0
 11 12  1  0
 12 13  1  0
 13 14  2  0
 14 15  1  0
 15 16  2  0
 16 17  1  0
 17 18  1  0
 17 19  1  0
 19 20  2  0
 20 21  1  0
 21 22  2  0
 11 23  1  0
 23 24  2  0
 24 25  1  0
 25 26  1  0
 25 27  1  0
 24 28  1  0
 28 29  2  0
 29  6  1  0
 28  9  1  0
 22 13  1  0
 21 16  1  0
  1 30  1  0
  1 31  1  0
  1 32  1  0
  3 33  1  0
  3 34  1  0
  4 35  1  0
  4 36  1  0
  7 37  1  0
  8 38  1  0
 12 39  1  0
 14 40  1  0
 15 41  1  0
 18 42  1  0
 18 43  1  0
 18 44  1  0
 19 45  1  0
 20 46  1  0
 22 47  1  0
 26 48  1  0
 26 49  1  0
 26 50  1  0
 27 51  1  0
 27 52  1  0
 27 53  1  0
 29 54  1  0
M  END
$$$$
[H]c1nc(N([H])c2c([H])c(N([H])C(=O)c3c([H])c([H])c(C([H])([H])[H])c(N([H])C(=O)c4c([H])c([H])c([H])c(C(F)(F)F)c4[H])c3[H])c([H])c([H])c2C([H])([H])[H])n(C([H])([H])[H])n1
     RDKit          3D

 60 63  0  0  0  0  0  0  0  0999 V2000
   -6.5542   -2.5468   -2.5323 C   0  0  0  0  0  0  0  0  0  0  0  0
   -5.3417   -2.0352   -1.8555 C   0  0  0  0  0  0  0  0  0  0  0  0
   -4.1202   -2.4445   -2.2779 C   0  0  0  0  0  0  0  0  0  0  0  0
   -2.9678   -1.9529   -1.6834 C   0  0  0  0  0  0  0  0  0  0  0  0
   -3.0914   -1.0437   -0.6598 C   0  0  0  0  0  0  0  0  0  0  0  0
   -1.9811   -0.4618   -0.0362 N   0  0  0  0  0  0  0  0  0  0  0  0
   -0.6704   -0.9292    0.1190 C   0  0  0  0  0  0  0  0  0  0  0  0
   -0.3462   -2.0578   -0.3178 O   0  0  0  0  0  0  0  0  0  0  0  0
    0.3540   -0.0841    0.7981 C   0  0  0  0  0  0  0  0  0  0  0  0
    0.0299    0.9625    1.6148 C   0  0  0  0  0  0  0  0  0  0  0  0
    1.0275    1.7669    2.1604 C   0  0  0  0  0  0  0  0  0  0  0  0
    2.3565    1.5485    1.9079 C   0  0  0  0  0  0  0  0  0  0  0  0
    3.4061    2.4497    2.4992 C   0  0  0  0  0  0  0  0  0  0  0  0
    2.7084    0.4848    1.0808 C   0  0  0  0  0  0  0  0  0  0  0  0
    4.0677    0.2976    0.8020 N   0  0  0  0  0  0  0  0  0  0  0  0
    4.7381   -0.7411    0.1631 C   0  0  0  0  0  0  0  0  0  0  0  0
    4.1298   -1.7533   -0.2717 O   0  0  0  0  0  0  0  0  0  0  0  0
    6.1780   -0.7663   -0.0627 C   0  0  0  0  0  0  0  0  0  0  0  0
    6.8588   -1.9475   -0.0362 C   0  0  0  0  0  0  0  0  0  0  0  0
    8.2358   -2.0182   -0.2522 C   0  0  0  0  0  0  0  0  0  0  0  0
    8.9510   -0.8564   -0.5055 C   0  0  0  0  0  0  0  0  0  0  0  0
    8.2712    0.3349   -0.5346 C   0  0  0  0  0  0  0  0  0  0  0  0
    6.9118    0.3962   -0.3187 C   0  0  0  0  0  0  0  0  0  0  0  0
    9.0216    1.5792   -0.8113 C   0  0  0  0  0  0  0  0  0  0  0  0
    8.9167    2.3508    0.3547 F   0  0  0  0  0  0  0  0  0  0  0  0
    8.5112    2.2759   -1.8950 F   0  0  0  0  0  0  0  0  0  0  0  0
   10.3698    1.3244   -0.9615 F   0  0  0  0  0  0  0  0  0  0  0  0
    1.6934   -0.3117    0.5424 C   0  0  0  0  0  0  0  0  0  0  0  0
   -4.3652   -0.6231   -0.2211 C   0  0  0  0  0  0  0  0  0  0  0  0
   -5.5139   -1.1043   -0.8064 C   0  0  0  0  0  0  0  0  0  0  0  0
   -6.8268   -0.8446   -0.4100 N   0  0  0  0  0  0  0  0  0  0  0  0
   -7.4384    0.2517    0.2286 C   0  0  0  0  0  0  0  0  0  0  0  0
   -8.6773    0.1425    0.8443 N   0  0  0  0  0  0  0  0  0  0  0  0
   -9.0304    1.3407    1.2768 C   0  0  0  0  0  0  0  0  0  0  0  0
   -8.0543    2.1736    0.9453 N   0  0  0  0  0  0  0  0  0  0  0  0
   -7.0718    1.5155    0.2985 N   0  0  0  0  0  0  0  0  0  0  0  0
   -5.9529    2.2636   -0.2029 C   0  0  0  0  0  0  0  0  0  0  0  0
   -7.0946   -1.6752   -2.9653 H   0  0  0  0  0  0  0  0  0  0  0  0
   -7.1850   -3.1897   -1.9113 H   0  0  0  0  0  0  0  0  0  0  0  0
   -6.2221   -3.1762   -3.3909 H   0  0  0  0  0  0  0  0  0  0  0  0
   -3.9817   -3.1702   -3.0874 H   0  0  0  0  0  0  0  0  0  0  0  0
   -1.9904   -2.2589   -2.0029 H   0  0  0  0  0  0  0  0  0  0  0  0
   -2.1650    0.5104    0.3827 H   0  0  0  0  0  0  0  0  0  0  0  0
   -0.9991    1.1738    1.8481 H   0  0  0  0  0  0  0  0  0  0  0  0
    0.7545    2.6116    2.8214 H   0  0  0  0  0  0  0  0  0  0  0  0
    3.9312    3.0124    1.6854 H   0  0  0  0  0  0  0  0  0  0  0  0
    2.9284    3.2432    3.1082 H   0  0  0  0  0  0  0  0  0  0  0  0
    4.1032    1.9066    3.1597 H   0  0  0  0  0  0  0  0  0  0  0  0
    4.7130    1.0934    1.1340 H   0  0  0  0  0  0  0  0  0  0  0  0
    6.3820   -2.8985    0.1594 H   0  0  0  0  0  0  0  0  0  0  0  0
    8.7909   -2.9433   -0.2302 H   0  0  0  0  0  0  0  0  0  0  0  0
   10.0303   -0.9376   -0.6701 H   0  0  0  0  0  0  0  0  0  0  0  0
    6.3298    1.3090   -0.3347 H   0  0  0  0  0  0  0  0  0  0  0  0
    1.9252   -1.1498   -0.1037 H   0  0  0  0  0  0  0  0  0  0  0  0
   -4.4250    0.0325    0.6200 H   0  0  0  0  0  0  0  0  0  0  0  0
   -7.5434   -1.6566   -0.6303 H   0  0  0  0  0  0  0  0  0  0  0  0
   -9.9398    1.6435    1.8117 H   0  0  0  0  0  0  0  0  0  0  0  0
   -6.2609    3.3637   -0.2905 H   0  0  0  0  0  0  0  0  0  0  0  0
   -5.0611    2.2809    0.4468 H   0  0  0  0  0  0  0  0  0  0  0  0
   -5.7536    1.9383   -1.2565 H   0  0  0  0  0  0  0  0  0  0  0  0
  1  2  1  0
  2  3  2  0
  3  4  1  0
  4  5  2  0
  5  6  1  0
  6  7  1  0
  7  8  2  0
  7  9  1  0
  9 10  2  0
 10 11  1  0
 11 12  2  0
 12 13  1  0
 12 14  1  0
 14 15  1  0
 15 16  1  0
 16 17  2  0
 16 18  1  0
 18 19  2  0
 19 20  1  0
 20 21  2  0
 21 22  1  0
 22 23  2  0
 22 24  1  0
 24 25  1  0
 24 26  1  0
 24 27  1  0
 14 28  2  0
  5 29  1  0
 29 30  2  0
 30 31  1  0
 31 32  1  0
 32 33  2  0
 33 34  1  0
 34 35  2  0
 35 36  1  0
 36 37  1  0
 30  2  1  0
 36 32  1  0
 28  9  1  0
 23 18  1  0
  1 38  1  0
  1 39  1  0
  1 40  1  0
  3 41  1  0
  4 42  1  0
  6 43  1  0
 10 44  1  0
 11 45  1  0
 13 46  1  0
 13 47  1  0
 13 48  1  0
 15 49  1  0
 19 50  1  0
 20 51  1  0
 21 52  1  0
 23 53  1  0
 28 54  1  0
 29 55  1  0
 31 56  1  0
 34 57  1  0
 37 58  1  0
 37 59  1  0
 37 60  1  0
M  END
$$$$
[H]OC(=O)c1c([H])c([H])c([H])c2c(C(=O)N([H])C3([H])C([H])([H])C([H])([H])N(C([H])([H])c4nc([H])c([H])c([H])c4[N+](=O)[O-])C([H])([H])C3([H])[H])nn(-c3c([H])c([H])c([H])c([H])c3[H])c12
     RDKit          3D

 61 65  0  0  0  0  0  0  0  0999 V2000
    7.9824    2.1043    1.0376 O   0  0  0  0  0  0  0  0  0  0  0  0
    8.0544    1.0040    1.8245 N   0  0  0  0  0  0  0  0  0  0  0  0
    9.1588    0.5266    2.1174 O   0  0  0  0  0  0  0  0  0  0  0  0
    6.8770    0.3831    2.3238 C   0  0  0  0  0  0  0  0  0  0  0  0
    6.9725   -0.3207    3.5288 C   0  0  0  0  0  0  0  0  0  0  0  0
    5.8772   -0.9435    4.0264 C   0  0  0  0  0  0  0  0  0  0  0  0
    4.6650   -0.8905    3.3550 C   0  0  0  0  0  0  0  0  0  0  0  0
    4.6238   -0.2111    2.2171 N   0  0  0  0  0  0  0  0  0  0  0  0
    5.6714    0.4283    1.6695 C   0  0  0  0  0  0  0  0  0  0  0  0
    5.5010    1.1723    0.3830 C   0  0  0  0  0  0  0  0  0  0  0  0
    4.2078    1.1056   -0.1774 N   0  0  0  0  0  0  0  0  0  0  0  0
    3.1151    1.6296    0.5460 C   0  0  0  0  0  0  0  0  0  0  0  0
    2.1279    2.1457   -0.5206 C   0  0  0  0  0  0  0  0  0  0  0  0
    1.6067    0.9110   -1.2171 C   0  0  0  0  0  0  0  0  0  0  0  0
    2.4873   -0.3125   -0.9735 C   0  0  0  0  0  0  0  0  0  0  0  0
    3.9416    0.1364   -1.1706 C   0  0  0  0  0  0  0  0  0  0  0  0
    0.2677    0.5819   -0.8400 N   0  0  0  0  0  0  0  0  0  0  0  0
   -0.7765    0.5124   -1.8311 C   0  0  0  0  0  0  0  0  0  0  0  0
   -0.5336    0.7358   -3.0304 O   0  0  0  0  0  0  0  0  0  0  0  0
   -2.1331    0.1761   -1.4189 C   0  0  0  0  0  0  0  0  0  0  0  0
   -2.5453   -0.0858   -0.1720 N   0  0  0  0  0  0  0  0  0  0  0  0
   -3.8575   -0.3559   -0.1486 N   0  0  0  0  0  0  0  0  0  0  0  0
   -4.3073   -0.2661   -1.3999 C   0  0  0  0  0  0  0  0  0  0  0  0
   -5.5318   -0.4472   -1.9941 C   0  0  0  0  0  0  0  0  0  0  0  0
   -5.6693   -0.3008   -3.3832 C   0  0  0  0  0  0  0  0  0  0  0  0
   -4.6320    0.0231   -4.2055 C   0  0  0  0  0  0  0  0  0  0  0  0
   -3.4063    0.2076   -3.6078 C   0  0  0  0  0  0  0  0  0  0  0  0
   -3.2236    0.0730   -2.2473 C   0  0  0  0  0  0  0  0  0  0  0  0
   -6.7563   -0.7008   -1.2392 C   0  0  0  0  0  0  0  0  0  0  0  0
   -7.4459   -1.9028   -1.4662 O   0  0  0  0  0  0  0  0  0  0  0  0
   -7.2236    0.0961   -0.4011 O   0  0  0  0  0  0  0  0  0  0  0  0
   -4.5660   -0.7133    1.0273 C   0  0  0  0  0  0  0  0  0  0  0  0
   -4.9717   -2.0303    1.1949 C   0  0  0  0  0  0  0  0  0  0  0  0
   -5.6056   -2.4280    2.3352 C   0  0  0  0  0  0  0  0  0  0  0  0
   -5.8526   -1.5086    3.3482 C   0  0  0  0  0  0  0  0  0  0  0  0
   -5.4655   -0.1900    3.2210 C   0  0  0  0  0  0  0  0  0  0  0  0
   -4.8267    0.1877    2.0597 C   0  0  0  0  0  0  0  0  0  0  0  0
    7.9512   -0.3450    4.0414 H   0  0  0  0  0  0  0  0  0  0  0  0
    5.9095   -1.5004    4.9575 H   0  0  0  0  0  0  0  0  0  0  0  0
    3.7697   -1.3719    3.7145 H   0  0  0  0  0  0  0  0  0  0  0  0
    5.6520    2.2608    0.6928 H   0  0  0  0  0  0  0  0  0  0  0  0
    6.2558    0.9163   -0.3702 H   0  0  0  0  0  0  0  0  0  0  0  0
    2.5728    0.9057    1.1844 H   0  0  0  0  0  0  0  0  0  0  0  0
    3.4395    2.4437    1.2152 H   0  0  0  0  0  0  0  0  0  0  0  0
    2.7568    2.7585   -1.2100 H   0  0  0  0  0  0  0  0  0  0  0  0
    1.3619    2.7876   -0.0946 H   0  0  0  0  0  0  0  0  0  0  0  0
    1.6690    1.0972   -2.3095 H   0  0  0  0  0  0  0  0  0  0  0  0
    2.1975   -1.0452   -1.7775 H   0  0  0  0  0  0  0  0  0  0  0  0
    2.3166   -0.7466    0.0209 H   0  0  0  0  0  0  0  0  0  0  0  0
    3.9586    0.6228   -2.1732 H   0  0  0  0  0  0  0  0  0  0  0  0
    4.5899   -0.7409   -1.1984 H   0  0  0  0  0  0  0  0  0  0  0  0
    0.0194    0.3856    0.1518 H   0  0  0  0  0  0  0  0  0  0  0  0
   -6.6611   -0.4566   -3.8191 H   0  0  0  0  0  0  0  0  0  0  0  0
   -4.7752    0.1280   -5.2805 H   0  0  0  0  0  0  0  0  0  0  0  0
   -2.5625    0.4656   -4.2258 H   0  0  0  0  0  0  0  0  0  0  0  0
   -6.9749   -2.7629   -1.2181 H   0  0  0  0  0  0  0  0  0  0  0  0
   -4.7894   -2.7644    0.4205 H   0  0  0  0  0  0  0  0  0  0  0  0
   -5.9183   -3.4399    2.4647 H   0  0  0  0  0  0  0  0  0  0  0  0
   -6.3560   -1.8533    4.2381 H   0  0  0  0  0  0  0  0  0  0  0  0
   -5.6683    0.5140    4.0243 H   0  0  0  0  0  0  0  0  0  0  0  0
   -4.5218    1.2089    1.9508 H   0  0  0  0  0  0  0  0  0  0  0  0
  1  2  1  0
  2  3  2  0
  2  4  1  0
  4  5  2  0
  5  6  1  0
  6  7  2  0
  7  8  1  0
  8  9  2  0
  9 10  1  0
 10 11  1  0
 11 12  1  0
 12 13  1  0
 13 14  1  0
 14 15  1  0
 15 16  1  0
 14 17  1  0
 17 18  1  0
 18 19  2  0
 18 20  1  0
 20 21  2  0
 21 22  1  0
 22 23  1  0
 23 24  2  0
 24 25  1  0
 25 26  2  0
 26 27  1  0
 27 28  2  0
 24 29  1  0
 29 30  1  0
 29 31  2  0
 22 32  1  0
 32 33  2  0
 33 34  1  0
 34 35  2  0
 35 36  1  0
 36 37  2  0
  9  4  1  0
 16 11  1  0
 28 20  1  0
 37 32  1  0
 28 23  1  0
  5 38  1  0
  6 39  1  0
  7 40  1  0
 10 41  1  0
 10 42  1  0
 12 43  1  0
 12 44  1  0
 13 45  1  0
 13 46  1  0
 14 47  1  0
 15 48  1  0
 15 49  1  0
 16 50  1  0
 16 51  1  0
 17 52  1  0
 25 53  1  0
 26 54  1  0
 27 55  1  0
 30 56  1  0
 33 57  1  0
 34 58  1  0
 35 59  1  0
 36 60  1  0
 37 61  1  0
M  CHG  2   1  -1   2   1
M  END
$$$$
[H]O[C@@]([H])(C(=O)N([H])[C@]([H])(c1nc(N2C([H])([H])C([H])([H])C([H])([H])C([H])([H])C2([H])[H])c2nc([H])n(C([H])([H])[H])c2n1)C([H])([H])c1c([H])c([H])c(-c2noc(C([H])([H])[H])c2[H])c([H])c1[H])C([H])([H])[H]
     RDKit          3D

 67 71  0  0  0  0  0  0  0  0999 V2000
    0.2849   -3.5748   -3.0941 C   0  0  0  0  0  0  0  0  0  0  0  0
    1.2133   -2.4616   -2.6499 C   0  0  1  0  0  0  0  0  0  0  0  0
    1.2305   -1.4760   -3.6330 O   0  0  0  0  0  0  0  0  0  0  0  0
    0.8125   -1.9151   -1.3283 C   0  0  0  0  0  0  0  0  0  0  0  0
    0.7615   -2.7129   -0.3644 O   0  0  0  0  0  0  0  0  0  0  0  0
    0.4973   -0.5485   -1.1490 N   0  0  0  0  0  0  0  0  0  0  0  0
    0.1101   -0.0542    0.1584 C   0  0  1  0  0  0  0  0  0  0  0  0
    0.9506    1.1200    0.5769 C   0  0  0  0  0  0  0  0  0  0  0  0
    2.3798    0.8414    0.6689 C   0  0  0  0  0  0  0  0  0  0  0  0
    2.9526    0.3955    1.8454 C   0  0  0  0  0  0  0  0  0  0  0  0
    4.3269    0.1362    1.9052 C   0  0  0  0  0  0  0  0  0  0  0  0
    5.1187    0.3237    0.7913 C   0  0  0  0  0  0  0  0  0  0  0  0
    4.5663    0.7659   -0.3849 C   0  0  0  0  0  0  0  0  0  0  0  0
    3.2094    1.0123   -0.4114 C   0  0  0  0  0  0  0  0  0  0  0  0
    6.5611    0.0451    0.8761 C   0  0  0  0  0  0  0  0  0  0  0  0
    7.4656    0.1876   -0.1513 C   0  0  0  0  0  0  0  0  0  0  0  0
    8.7097   -0.1822    0.3636 C   0  0  0  0  0  0  0  0  0  0  0  0
    9.9689   -0.1769   -0.4087 C   0  0  0  0  0  0  0  0  0  0  0  0
    8.5023   -0.5147    1.6211 O   0  0  0  0  0  0  0  0  0  0  0  0
    7.2505   -0.3858    1.9318 N   0  0  0  0  0  0  0  0  0  0  0  0
   -1.2944    0.4708   -0.0062 C   0  0  0  0  0  0  0  0  0  0  0  0
   -2.2522    0.1939    0.8848 N   0  0  0  0  0  0  0  0  0  0  0  0
   -3.5184    0.6533    0.7586 C   0  0  0  0  0  0  0  0  0  0  0  0
   -4.5187    0.3486    1.7139 N   0  0  0  0  0  0  0  0  0  0  0  0
   -4.1949   -0.4737    2.8590 C   0  0  0  0  0  0  0  0  0  0  0  0
   -5.1497   -1.6482    2.8441 C   0  0  0  0  0  0  0  0  0  0  0  0
   -6.5805   -1.1659    2.8029 C   0  0  0  0  0  0  0  0  0  0  0  0
   -6.6866    0.3308    2.7894 C   0  0  0  0  0  0  0  0  0  0  0  0
   -5.8731    0.8337    1.5898 C   0  0  0  0  0  0  0  0  0  0  0  0
   -3.8433    1.4386   -0.3282 C   0  0  0  0  0  0  0  0  0  0  0  0
   -4.9686    2.0466   -0.7559 N   0  0  0  0  0  0  0  0  0  0  0  0
   -4.6619    2.6798   -1.9015 C   0  0  0  0  0  0  0  0  0  0  0  0
   -3.3743    2.4982   -2.2243 N   0  0  0  0  0  0  0  0  0  0  0  0
   -2.6079    2.9838   -3.3545 C   0  0  0  0  0  0  0  0  0  0  0  0
   -2.8614    1.7225   -1.2418 C   0  0  0  0  0  0  0  0  0  0  0  0
   -1.6338    1.2353   -1.0534 N   0  0  0  0  0  0  0  0  0  0  0  0
    0.8443   -4.5332   -3.2753 H   0  0  0  0  0  0  0  0  0  0  0  0
   -0.3191   -3.2833   -3.9643 H   0  0  0  0  0  0  0  0  0  0  0  0
   -0.4263   -3.7561   -2.2597 H   0  0  0  0  0  0  0  0  0  0  0  0
    2.2455   -2.8902   -2.5989 H   0  0  0  0  0  0  0  0  0  0  0  0
    0.3282   -1.1508   -3.8655 H   0  0  0  0  0  0  0  0  0  0  0  0
    0.5512    0.0829   -1.9734 H   0  0  0  0  0  0  0  0  0  0  0  0
    0.1184   -0.8789    0.8774 H   0  0  0  0  0  0  0  0  0  0  0  0
    0.7021    1.9653   -0.1095 H   0  0  0  0  0  0  0  0  0  0  0  0
    0.5951    1.4346    1.5853 H   0  0  0  0  0  0  0  0  0  0  0  0
    2.3233    0.2482    2.7249 H   0  0  0  0  0  0  0  0  0  0  0  0
    4.7605   -0.2135    2.8372 H   0  0  0  0  0  0  0  0  0  0  0  0
    5.2068    0.9106   -1.2626 H   0  0  0  0  0  0  0  0  0  0  0  0
    2.7544    1.3609   -1.3267 H   0  0  0  0  0  0  0  0  0  0  0  0
    7.2836    0.5126   -1.1499 H   0  0  0  0  0  0  0  0  0  0  0  0
   10.7939    0.0048    0.3205 H   0  0  0  0  0  0  0  0  0  0  0  0
   10.1795   -1.1027   -0.9417 H   0  0  0  0  0  0  0  0  0  0  0  0
    9.9788    0.6516   -1.1561 H   0  0  0  0  0  0  0  0  0  0  0  0
   -4.4248    0.0907    3.8040 H   0  0  0  0  0  0  0  0  0  0  0  0
   -3.1547   -0.8129    2.8653 H   0  0  0  0  0  0  0  0  0  0  0  0
   -4.9657   -2.1733    1.8621 H   0  0  0  0  0  0  0  0  0  0  0  0
   -4.9666   -2.3324    3.6971 H   0  0  0  0  0  0  0  0  0  0  0  0
   -7.1594   -1.5317    3.6758 H   0  0  0  0  0  0  0  0  0  0  0  0
   -7.1292   -1.5402    1.9025 H   0  0  0  0  0  0  0  0  0  0  0  0
   -6.3354    0.8010    3.7289 H   0  0  0  0  0  0  0  0  0  0  0  0
   -7.7306    0.6253    2.5765 H   0  0  0  0  0  0  0  0  0  0  0  0
   -5.9299    1.9424    1.6490 H   0  0  0  0  0  0  0  0  0  0  0  0
   -6.3531    0.4101    0.7020 H   0  0  0  0  0  0  0  0  0  0  0  0
   -5.3339    3.2730   -2.5204 H   0  0  0  0  0  0  0  0  0  0  0  0
   -2.2935    2.1047   -3.9570 H   0  0  0  0  0  0  0  0  0  0  0  0
   -3.2870    3.6068   -3.9733 H   0  0  0  0  0  0  0  0  0  0  0  0
   -1.7093    3.5319   -3.0145 H   0  0  0  0  0  0  0  0  0  0  0  0
  1  2  1  0
  2  3  1  0
  2  4  1  0
  4  5  2  0
  4  6  1  0
  6  7  1  0
  7  8  1  0
  8  9  1  0
  9 10  2  0
 10 11  1  0
 11 12  2  0
 12 13  1  0
 13 14  2  0
 12 15  1  0
 15 16  1  0
 16 17  2  0
 17 18  1  0
 17 19  1  0
 19 20  1  0
  7 21  1  0
 21 22  2  0
 22 23  1  0
 23 24  1  0
 24 25  1  0
 25 26  1  0
 26 27  1  0
 27 28  1  0
 28 29  1  0
 23 30  2  0
 30 31  1  0
 31 32  2  0
 32 33  1  0
 33 34  1  0
 33 35  1  0
 35 36  2  0
 14  9  1  0
 20 15  2  0
 36 21  1  0
 29 24  1  0
 35 30  1  0
  1 37  1  0
  1 38  1  0
  1 39  1  0
  2 40  1  1
  3 41  1  0
  6 42  1  0
  7 43  1  1
  8 44  1  0
  8 45  1  0
 10 46  1  0
 11 47  1  0
 13 48  1  0
 14 49  1  0
 16 50  1  0
 18 51  1  0
 18 52  1  0
 18 53  1  0
 25 54  1  0
 25 55  1  0
 26 56  1  0
 26 57  1  0
 27 58  1  0
 27 59  1  0
 28 60  1  0
 28 61  1  0
 29 62  1  0
 29 63  1  0
 32 64  1  0
 34 65  1  0
 34 66  1  0
 34 67  1  0
M  END
$$$$
[H]c1c(F)c([H])c2c(c1F)[C@]([H])(C([H])([H])Sc1c([H])c(C#N)c([H])c(C([H])([H])[H])c1[H])N(C(=O)C1([H])C([H])([H])C1([H])[H])C([H])([H])C2([H])[H]
     RDKit          3D

 48 51  0  0  0  0  0  0  0  0999 V2000
    5.8384    2.2491   -1.4914 C   0  0  0  0  0  0  0  0  0  0  0  0
    4.8274    1.3538   -0.8979 C   0  0  0  0  0  0  0  0  0  0  0  0
    3.6511    1.1269   -1.5738 C   0  0  0  0  0  0  0  0  0  0  0  0
    2.6564    0.2827   -1.1004 C   0  0  0  0  0  0  0  0  0  0  0  0
    1.1866   -0.0551   -2.0728 S   0  0  0  0  0  0  0  0  0  0  0  0
    0.0731   -1.1856   -1.2990 C   0  0  0  0  0  0  0  0  0  0  0  0
   -1.3153   -0.7569   -1.0765 C   0  0  2  0  0  0  0  0  0  0  0  0
   -1.6294    0.3944   -0.3034 N   0  0  0  0  0  0  0  0  0  0  0  0
   -1.7047    0.4221    1.1274 C   0  0  0  0  0  0  0  0  0  0  0  0
   -1.3761   -0.9247    1.7503 C   0  0  0  0  0  0  0  0  0  0  0  0
   -1.9700   -2.0166    0.9280 C   0  0  0  0  0  0  0  0  0  0  0  0
   -2.5180   -3.0990    1.5788 C   0  0  0  0  0  0  0  0  0  0  0  0
   -3.0936   -4.1410    0.8741 C   0  0  0  0  0  0  0  0  0  0  0  0
   -3.6267   -5.1916    1.5215 F   0  0  0  0  0  0  0  0  0  0  0  0
   -3.0948   -4.0462   -0.5122 C   0  0  0  0  0  0  0  0  0  0  0  0
   -2.5501   -2.9661   -1.1720 C   0  0  0  0  0  0  0  0  0  0  0  0
   -2.5505   -2.8637   -2.5057 F   0  0  0  0  0  0  0  0  0  0  0  0
   -1.9892   -1.9580   -0.4272 C   0  0  0  0  0  0  0  0  0  0  0  0
   -1.8837    1.6173   -1.0090 C   0  0  0  0  0  0  0  0  0  0  0  0
   -1.6923    1.5395   -2.2991 O   0  0  0  0  0  0  0  0  0  0  0  0
   -2.3162    2.9099   -0.5409 C   0  0  0  0  0  0  0  0  0  0  0  0
   -3.7822    2.8572   -0.0026 C   0  0  0  0  0  0  0  0  0  0  0  0
   -2.6020    3.4051    0.7811 C   0  0  0  0  0  0  0  0  0  0  0  0
    2.9039   -0.3299    0.1082 C   0  0  0  0  0  0  0  0  0  0  0  0
    4.0944   -0.1137    0.8147 C   0  0  0  0  0  0  0  0  0  0  0  0
    5.0562    0.7211    0.3243 C   0  0  0  0  0  0  0  0  0  0  0  0
    4.2854   -0.8125    2.0737 C   0  0  0  0  0  0  0  0  0  0  0  0
    4.4519   -1.3782    3.0521 N   0  0  0  0  0  0  0  0  0  0  0  0
    5.3684    3.0845   -2.0383 H   0  0  0  0  0  0  0  0  0  0  0  0
    6.5169    2.6283   -0.6828 H   0  0  0  0  0  0  0  0  0  0  0  0
    6.4282    1.6331   -2.2115 H   0  0  0  0  0  0  0  0  0  0  0  0
    3.4573    1.6132   -2.5256 H   0  0  0  0  0  0  0  0  0  0  0  0
    0.5000   -1.5787   -0.3117 H   0  0  0  0  0  0  0  0  0  0  0  0
    0.0713   -2.1632   -1.9067 H   0  0  0  0  0  0  0  0  0  0  0  0
   -1.8397   -0.7014   -2.0815 H   0  0  0  0  0  0  0  0  0  0  0  0
   -1.0210    1.1924    1.5093 H   0  0  0  0  0  0  0  0  0  0  0  0
   -2.7230    0.6432    1.4835 H   0  0  0  0  0  0  0  0  0  0  0  0
   -1.8164   -0.9949    2.7618 H   0  0  0  0  0  0  0  0  0  0  0  0
   -0.2822   -0.9864    1.8568 H   0  0  0  0  0  0  0  0  0  0  0  0
   -2.5070   -3.1517    2.6712 H   0  0  0  0  0  0  0  0  0  0  0  0
   -3.5425   -4.8735   -1.0444 H   0  0  0  0  0  0  0  0  0  0  0  0
   -2.2961    3.7085   -1.3559 H   0  0  0  0  0  0  0  0  0  0  0  0
   -4.2187    1.8857    0.2124 H   0  0  0  0  0  0  0  0  0  0  0  0
   -4.4890    3.6281   -0.3553 H   0  0  0  0  0  0  0  0  0  0  0  0
   -2.5006    2.9440    1.7531 H   0  0  0  0  0  0  0  0  0  0  0  0
   -2.5962    4.5468    0.9012 H   0  0  0  0  0  0  0  0  0  0  0  0
    2.1739   -0.9979    0.5427 H   0  0  0  0  0  0  0  0  0  0  0  0
    5.9866    0.8999    0.8517 H   0  0  0  0  0  0  0  0  0  0  0  0
  1  2  1  0
  2  3  2  0
  3  4  1  0
  4  5  1  0
  5  6  1  0
  6  7  1  0
  7  8  1  0
  8  9  1  0
  9 10  1  0
 10 11  1  0
 11 12  2  0
 12 13  1  0
 13 14  1  0
 13 15  2  0
 15 16  1  0
 16 17  1  0
 16 18  2  0
  8 19  1  0
 19 20  2  0
 19 21  1  0
 21 22  1  0
 22 23  1  0
  4 24  2  0
 24 25  1  0
 25 26  2  0
 25 27  1  0
 27 28  3  0
 26  2  1  0
 18  7  1  0
 23 21  1  0
 18 11  1  0
  1 29  1  0
  1 30  1  0
  1 31  1  0
  3 32  1  0
  6 33  1  0
  6 34  1  0
  7 35  1  6
  9 36  1  0
  9 37  1  0
 10 38  1  0
 10 39  1  0
 12 40  1  0
 15 41  1  0
 21 42  1  0
 22 43  1  0
 22 44  1  0
 23 45  1  0
 23 46  1  0
 24 47  1  0
 26 48  1  0
M  END
$$$$
[H]c1c([H])c(-c2nc3c([H])c([H])c([H])c(-c4nc(C([H])([H])[H])no4)c3o2)c([H])c(C(C([H])([H])[H])(C([H])([H])[H])C([H])([H])[H])c1[H]
     RDKit          3D

 44 47  0  0  0  0  0  0  0  0999 V2000
   -5.4565    0.4335   -1.0798 C   0  0  0  0  0  0  0  0  0  0  0  0
   -4.6413   -0.0877    0.1059 C   0  0  0  0  0  0  0  0  0  0  0  0
   -5.3608    0.3521    1.3625 C   0  0  0  0  0  0  0  0  0  0  0  0
   -4.6167   -1.5956   -0.0166 C   0  0  0  0  0  0  0  0  0  0  0  0
   -3.2896    0.4957    0.1180 C   0  0  0  0  0  0  0  0  0  0  0  0
   -3.1674    1.8658    0.0319 C   0  0  0  0  0  0  0  0  0  0  0  0
   -1.9317    2.4701    0.0278 C   0  0  0  0  0  0  0  0  0  0  0  0
   -0.8026    1.6995    0.1112 C   0  0  0  0  0  0  0  0  0  0  0  0
   -0.9124    0.3324    0.1981 C   0  0  0  0  0  0  0  0  0  0  0  0
   -2.1451   -0.2572    0.2015 C   0  0  0  0  0  0  0  0  0  0  0  0
    0.3215   -0.4892    0.2602 C   0  0  0  0  0  0  0  0  0  0  0  0
    0.4106   -1.8167    0.4304 N   0  0  0  0  0  0  0  0  0  0  0  0
    1.6985   -2.1765    0.4298 C   0  0  0  0  0  0  0  0  0  0  0  0
    2.4147   -3.3580    0.5560 C   0  0  0  0  0  0  0  0  0  0  0  0
    3.7906   -3.3980    0.5072 C   0  0  0  0  0  0  0  0  0  0  0  0
    4.5122   -2.2322    0.3264 C   0  0  0  0  0  0  0  0  0  0  0  0
    3.8088   -1.0576    0.2014 C   0  0  0  0  0  0  0  0  0  0  0  0
    4.5429    0.1751   -0.0277 C   0  0  0  0  0  0  0  0  0  0  0  0
    5.8372    0.4250   -0.2309 N   0  0  0  0  0  0  0  0  0  0  0  0
    6.0554    1.7346   -0.4006 C   0  0  0  0  0  0  0  0  0  0  0  0
    7.2964    2.4953   -0.6580 C   0  0  0  0  0  0  0  0  0  0  0  0
    4.8359    2.2892   -0.2918 N   0  0  0  0  0  0  0  0  0  0  0  0
    3.9353    1.3807   -0.0712 O   0  0  0  0  0  0  0  0  0  0  0  0
    2.4325   -1.0160    0.2505 C   0  0  0  0  0  0  0  0  0  0  0  0
    1.5444   -0.0421    0.1569 O   0  0  0  0  0  0  0  0  0  0  0  0
   -6.4132   -0.1154   -1.0727 H   0  0  0  0  0  0  0  0  0  0  0  0
   -4.8947    0.2970   -2.0167 H   0  0  0  0  0  0  0  0  0  0  0  0
   -5.6747    1.5069   -0.8746 H   0  0  0  0  0  0  0  0  0  0  0  0
   -6.3002   -0.2663    1.4088 H   0  0  0  0  0  0  0  0  0  0  0  0
   -4.7482    0.2569    2.2701 H   0  0  0  0  0  0  0  0  0  0  0  0
   -5.7179    1.4111    1.2705 H   0  0  0  0  0  0  0  0  0  0  0  0
   -5.6667   -1.9348   -0.1220 H   0  0  0  0  0  0  0  0  0  0  0  0
   -4.1203   -1.8345   -1.0020 H   0  0  0  0  0  0  0  0  0  0  0  0
   -4.1517   -2.1097    0.8323 H   0  0  0  0  0  0  0  0  0  0  0  0
   -4.0687    2.4739   -0.0328 H   0  0  0  0  0  0  0  0  0  0  0  0
   -1.8754    3.5637   -0.0393 H   0  0  0  0  0  0  0  0  0  0  0  0
    0.1722    2.1830    0.1079 H   0  0  0  0  0  0  0  0  0  0  0  0
   -2.2529   -1.3191    0.2683 H   0  0  0  0  0  0  0  0  0  0  0  0
    1.8058   -4.2632    0.7014 H   0  0  0  0  0  0  0  0  0  0  0  0
    4.2932   -4.3527    0.6146 H   0  0  0  0  0  0  0  0  0  0  0  0
    5.6080   -2.2571    0.2834 H   0  0  0  0  0  0  0  0  0  0  0  0
    8.2110    1.9784   -0.3176 H   0  0  0  0  0  0  0  0  0  0  0  0
    7.4156    2.6413   -1.7728 H   0  0  0  0  0  0  0  0  0  0  0  0
    7.2662    3.5182   -0.2363 H   0  0  0  0  0  0  0  0  0  0  0  0
  1  2  1  0
  2  3  1  0
  2  4  1  0
  2  5  1  0
  5  6  2  0
  6  7  1  0
  7  8  2  0
  8  9  1  0
  9 10  2  0
  9 11  1  0
 11 12  2  0
 12 13  1  0
 13 14  2  0
 14 15  1  0
 15 16  2  0
 16 17  1  0
 17 18  1  0
 18 19  2  0
 19 20  1  0
 20 21  1  0
 20 22  2  0
 22 23  1  0
 17 24  2  0
 24 25  1  0
 10  5  1  0
 25 11  1  0
 24 13  1  0
 23 18  1  0
  1 26  1  0
  1 27  1  0
  1 28  1  0
  3 29  1  0
  3 30  1  0
  3 31  1  0
  4 32  1  0
  4 33  1  0
  4 34  1  0
  6 35  1  0
  7 36  1  0
  8 37  1  0
 10 38  1  0
 14 39  1  0
 15 40  1  0
 16 41  1  0
 21 42  1  0
 21 43  1  0
 21 44  1  0
M  END
$$$$
[H]c1nc(N([H])c2c([H])c(N(C([H])([H])[H])C([H])([H])[H])c([H])c(N3C([H])([H])C([H])([H])OC([H])([H])C3([H])[H])c2[H])nc(Oc2c([H])c([H])c(F)c([H])c2C([H])([H])N(C([H])([H])[H])C([H])([H])[H])c1F
     RDKit          3D

 65 68  0  0  0  0  0  0  0  0999 V2000
    7.2278   -1.5594   -0.8310 C   0  0  0  0  0  0  0  0  0  0  0  0
    5.8580   -1.4971   -0.7107 N   0  0  0  0  0  0  0  0  0  0  0  0
    5.1174   -2.2889   -1.6442 C   0  0  0  0  0  0  0  0  0  0  0  0
    5.0805   -0.8681    0.2689 C   0  0  0  0  0  0  0  0  0  0  0  0
    5.7381    0.3521    0.7873 C   0  0  0  0  0  0  0  0  0  0  0  0
    6.9054    0.2834    1.4702 C   0  0  0  0  0  0  0  0  0  0  0  0
    7.5629    1.3346    2.0597 C   0  0  0  0  0  0  0  0  0  0  0  0
    8.7362    1.1372    2.7224 F   0  0  0  0  0  0  0  0  0  0  0  0
    7.0068    2.5527    1.9696 C   0  0  0  0  0  0  0  0  0  0  0  0
    5.7629    2.7527    1.3034 C   0  0  0  0  0  0  0  0  0  0  0  0
    5.1531    1.6423    0.7226 C   0  0  0  0  0  0  0  0  0  0  0  0
    4.0091    1.8141    0.0884 O   0  0  0  0  0  0  0  0  0  0  0  0
    2.7056    1.9491    0.0781 C   0  0  0  0  0  0  0  0  0  0  0  0
    1.7693    0.9864    0.0815 N   0  0  0  0  0  0  0  0  0  0  0  0
    0.4235    1.2121    0.0288 C   0  0  0  0  0  0  0  0  0  0  0  0
   -0.5133    0.1762    0.1161 N   0  0  0  0  0  0  0  0  0  0  0  0
   -1.8925    0.1899   -0.0767 C   0  0  0  0  0  0  0  0  0  0  0  0
   -2.6508   -0.9486    0.2449 C   0  0  0  0  0  0  0  0  0  0  0  0
   -3.9562   -1.0734   -0.0086 C   0  0  0  0  0  0  0  0  0  0  0  0
   -4.5747    0.0374   -0.6203 C   0  0  0  0  0  0  0  0  0  0  0  0
   -3.9529    1.1832   -0.9592 C   0  0  0  0  0  0  0  0  0  0  0  0
   -2.5442    1.2355   -0.6725 C   0  0  0  0  0  0  0  0  0  0  0  0
   -4.6272    2.2464   -1.5762 N   0  0  0  0  0  0  0  0  0  0  0  0
   -6.1077    2.0666   -1.6854 C   0  0  0  0  0  0  0  0  0  0  0  0
   -4.0746    3.4356   -2.1414 C   0  0  0  0  0  0  0  0  0  0  0  0
   -4.7997   -2.1958    0.2990 N   0  0  0  0  0  0  0  0  0  0  0  0
   -5.8784   -1.8759    1.2597 C   0  0  0  0  0  0  0  0  0  0  0  0
   -6.2171   -3.0526    2.1078 C   0  0  0  0  0  0  0  0  0  0  0  0
   -6.3976   -4.1421    1.2891 O   0  0  0  0  0  0  0  0  0  0  0  0
   -5.1491   -4.5084    0.8095 C   0  0  0  0  0  0  0  0  0  0  0  0
   -4.7167   -3.4881   -0.2382 C   0  0  0  0  0  0  0  0  0  0  0  0
    0.0329    2.4788   -0.0294 N   0  0  0  0  0  0  0  0  0  0  0  0
    0.8555    3.5476   -0.0341 C   0  0  0  0  0  0  0  0  0  0  0  0
    2.1810    3.2527    0.0199 C   0  0  0  0  0  0  0  0  0  0  0  0
    3.0341    4.2835    0.0035 F   0  0  0  0  0  0  0  0  0  0  0  0
    7.5582   -2.2223   -1.7212 H   0  0  0  0  0  0  0  0  0  0  0  0
    7.6949   -0.5634   -1.1701 H   0  0  0  0  0  0  0  0  0  0  0  0
    7.8707   -1.9063   -0.0085 H   0  0  0  0  0  0  0  0  0  0  0  0
    5.8000   -2.8453   -2.3580 H   0  0  0  0  0  0  0  0  0  0  0  0
    4.4940   -1.6855   -2.2945 H   0  0  0  0  0  0  0  0  0  0  0  0
    4.5452   -3.1167   -1.1461 H   0  0  0  0  0  0  0  0  0  0  0  0
    4.0248   -0.8183    0.0333 H   0  0  0  0  0  0  0  0  0  0  0  0
    5.0786   -1.5695    1.2118 H   0  0  0  0  0  0  0  0  0  0  0  0
    7.3785   -0.6978    1.6413 H   0  0  0  0  0  0  0  0  0  0  0  0
    7.4491    3.4366    2.4171 H   0  0  0  0  0  0  0  0  0  0  0  0
    5.4261    3.7596    1.2357 H   0  0  0  0  0  0  0  0  0  0  0  0
   -0.0936   -0.8012    0.4591 H   0  0  0  0  0  0  0  0  0  0  0  0
   -2.1601   -1.8196    0.7357 H   0  0  0  0  0  0  0  0  0  0  0  0
   -5.6592   -0.0987   -0.8184 H   0  0  0  0  0  0  0  0  0  0  0  0
   -2.1014    2.1790   -0.9180 H   0  0  0  0  0  0  0  0  0  0  0  0
   -6.5958    2.9396   -2.1026 H   0  0  0  0  0  0  0  0  0  0  0  0
   -6.3394    1.1775   -2.3208 H   0  0  0  0  0  0  0  0  0  0  0  0
   -6.5458    1.9015   -0.6800 H   0  0  0  0  0  0  0  0  0  0  0  0
   -2.9816    3.4852   -2.1129 H   0  0  0  0  0  0  0  0  0  0  0  0
   -4.5681    4.2994   -1.6214 H   0  0  0  0  0  0  0  0  0  0  0  0
   -4.4784    3.5292   -3.2009 H   0  0  0  0  0  0  0  0  0  0  0  0
   -5.4862   -1.0526    1.9310 H   0  0  0  0  0  0  0  0  0  0  0  0
   -6.7339   -1.4535    0.6695 H   0  0  0  0  0  0  0  0  0  0  0  0
   -7.1616   -2.7562    2.6615 H   0  0  0  0  0  0  0  0  0  0  0  0
   -5.3785   -3.2173    2.8087 H   0  0  0  0  0  0  0  0  0  0  0  0
   -4.3954   -4.4081    1.6407 H   0  0  0  0  0  0  0  0  0  0  0  0
   -5.1564   -5.5243    0.3804 H   0  0  0  0  0  0  0  0  0  0  0  0
   -5.4153   -3.6331   -1.1183 H   0  0  0  0  0  0  0  0  0  0  0  0
   -3.6898   -3.7543   -0.6310 H   0  0  0  0  0  0  0  0  0  0  0  0
    0.5132    4.5844   -0.1054 H   0  0  0  0  0  0  0  0  0  0  0  0
  1  2  1  0
  2  3  1  0
  2  4  1  0
  4  5  1  0
  5  6  2  0
  6  7  1  0
  7  8  1  0
  7  9  2  0
  9 10  1  0
 10 11  2  0
 11 12  1  0
 12 13  1  0
 13 14  2  0
 14 15  1  0
 15 16  1  0
 16 17  1  0
 17 18  2  0
 18 19  1  0
 19 20  2  0
 20 21  1  0
 21 22  2  0
 21 23  1  0
 23 24  1  0
 23 25  1  0
 19 26  1  0
 26 27  1  0
 27 28  1  0
 28 29  1  0
 29 30  1  0
 30 31  1  0
 15 32  2  0
 32 33  1  0
 33 34  2  0
 34 35  1  0
 11  5  1  0
 34 13  1  0
 22 17  1  0
 31 26  1  0
  1 36  1  0
  1 37  1  0
  1 38  1  0
  3 39  1  0
  3 40  1  0
  3 41  1  0
  4 42  1  0
  4 43  1  0
  6 44  1  0
  9 45  1  0
 10 46  1  0
 16 47  1  0
 18 48  1  0
 20 49  1  0
 22 50  1  0
 24 51  1  0
 24 52  1  0
 24 53  1  0
 25 54  1  0
 25 55  1  0
 25 56  1  0
 27 57  1  0
 27 58  1  0
 28 59  1  0
 28 60  1  0
 30 61  1  0
 30 62  1  0
 31 63  1  0
 31 64  1  0
 33 65  1  0
M  END
$$$$
[H]c1c([H])c([H])c2c(c1[H])C(=NN([H])C(=O)N([H])c1c([H])c([H])c([N+](=O)[O-])c([H])c1[H])c1c(C(F)(F)F)c([H])c([H])c([H])c1C([H])([H])C2([H])[H]
     RDKit          3D

 50 53  0  0  0  0  0  0  0  0999 V2000
    9.0494   -0.3685   -1.4486 O   0  0  0  0  0  0  0  0  0  0  0  0
    8.0031    0.4764   -1.6792 N   0  0  0  0  0  0  0  0  0  0  0  0
    8.1820    1.5149   -2.2983 O   0  0  0  0  0  0  0  0  0  0  0  0
    6.7096    0.1329   -1.1945 C   0  0  0  0  0  0  0  0  0  0  0  0
    6.5432   -1.0461   -0.5269 C   0  0  0  0  0  0  0  0  0  0  0  0
    5.3116   -1.4251   -0.0424 C   0  0  0  0  0  0  0  0  0  0  0  0
    4.1703   -0.6219   -0.2098 C   0  0  0  0  0  0  0  0  0  0  0  0
    2.9698   -1.0721    0.3233 N   0  0  0  0  0  0  0  0  0  0  0  0
    1.7226   -0.5224    0.1141 C   0  0  0  0  0  0  0  0  0  0  0  0
    1.4825    0.4665   -0.5940 O   0  0  0  0  0  0  0  0  0  0  0  0
    0.4941   -1.0775    0.7402 N   0  0  0  0  0  0  0  0  0  0  0  0
   -0.6794   -0.6091    0.5819 N   0  0  0  0  0  0  0  0  0  0  0  0
   -1.7638   -0.1618    0.4434 C   0  0  0  0  0  0  0  0  0  0  0  0
   -2.0896    1.1849    1.0661 C   0  0  0  0  0  0  0  0  0  0  0  0
   -1.2572    1.3728    2.1376 C   0  0  0  0  0  0  0  0  0  0  0  0
   -1.3499    2.5605    2.8339 C   0  0  0  0  0  0  0  0  0  0  0  0
   -2.2800    3.5029    2.4152 C   0  0  0  0  0  0  0  0  0  0  0  0
   -3.1112    3.3128    1.3452 C   0  0  0  0  0  0  0  0  0  0  0  0
   -3.0190    2.1012    0.6319 C   0  0  0  0  0  0  0  0  0  0  0  0
   -3.9701    2.0365   -0.4756 C   0  0  0  0  0  0  0  0  0  0  0  0
   -3.5520    1.2803   -1.6923 C   0  0  0  0  0  0  0  0  0  0  0  0
   -3.5197   -0.2035   -1.4239 C   0  0  0  0  0  0  0  0  0  0  0  0
   -4.3510   -0.9357   -2.2096 C   0  0  0  0  0  0  0  0  0  0  0  0
   -4.4357   -2.2788   -2.0027 C   0  0  0  0  0  0  0  0  0  0  0  0
   -3.6913   -2.8590   -1.0156 C   0  0  0  0  0  0  0  0  0  0  0  0
   -2.8038   -2.1629   -0.1549 C   0  0  0  0  0  0  0  0  0  0  0  0
   -2.7518   -0.8221   -0.4078 C   0  0  0  0  0  0  0  0  0  0  0  0
   -2.0698   -2.7505    0.9197 C   0  0  0  0  0  0  0  0  0  0  0  0
   -2.2267   -2.3380    2.2462 F   0  0  0  0  0  0  0  0  0  0  0  0
   -1.2637   -3.8585    0.7102 F   0  0  0  0  0  0  0  0  0  0  0  0
   -3.1552   -3.7029    1.2549 F   0  0  0  0  0  0  0  0  0  0  0  0
    4.3941    0.5417   -0.8820 C   0  0  0  0  0  0  0  0  0  0  0  0
    5.6256    0.9337   -1.3734 C   0  0  0  0  0  0  0  0  0  0  0  0
    7.3796   -1.7157   -0.3619 H   0  0  0  0  0  0  0  0  0  0  0  0
    5.1950   -2.3580    0.4815 H   0  0  0  0  0  0  0  0  0  0  0  0
    3.0000   -1.9429    0.9740 H   0  0  0  0  0  0  0  0  0  0  0  0
    0.8135   -1.9283    1.3491 H   0  0  0  0  0  0  0  0  0  0  0  0
   -0.5571    0.5899    2.4026 H   0  0  0  0  0  0  0  0  0  0  0  0
   -0.7171    2.7525    3.6768 H   0  0  0  0  0  0  0  0  0  0  0  0
   -2.3496    4.4514    2.9757 H   0  0  0  0  0  0  0  0  0  0  0  0
   -3.8398    4.0230    0.9972 H   0  0  0  0  0  0  0  0  0  0  0  0
   -4.9693    1.6202   -0.1561 H   0  0  0  0  0  0  0  0  0  0  0  0
   -4.1812    3.0840   -0.7998 H   0  0  0  0  0  0  0  0  0  0  0  0
   -4.1167    1.5087   -2.5850 H   0  0  0  0  0  0  0  0  0  0  0  0
   -2.4716    1.5349   -1.8973 H   0  0  0  0  0  0  0  0  0  0  0  0
   -4.9311   -0.4718   -2.9791 H   0  0  0  0  0  0  0  0  0  0  0  0
   -5.0802   -2.8842   -2.6053 H   0  0  0  0  0  0  0  0  0  0  0  0
   -3.7333   -3.9460   -0.8170 H   0  0  0  0  0  0  0  0  0  0  0  0
    3.5466    1.2133   -1.0378 H   0  0  0  0  0  0  0  0  0  0  0  0
    5.6953    1.8673   -1.8860 H   0  0  0  0  0  0  0  0  0  0  0  0
  1  2  1  0
  2  3  2  0
  2  4  1  0
  4  5  2  0
  5  6  1  0
  6  7  2  0
  7  8  1  0
  8  9  1  0
  9 10  2  0
  9 11  1  0
 11 12  1  0
 12 13  2  3
 13 14  1  0
 14 15  2  0
 15 16  1  0
 16 17  2  0
 17 18  1  0
 18 19  2  0
 19 20  1  0
 20 21  1  0
 21 22  1  0
 22 23  2  0
 23 24  1  0
 24 25  2  0
 25 26  1  0
 26 27  2  0
 26 28  1  0
 28 29  1  0
 28 30  1  0
 28 31  1  0
  7 32  1  0
 32 33  2  0
 33  4  1  0
 27 13  1  0
 19 14  1  0
 27 22  1  0
  5 34  1  0
  6 35  1  0
  8 36  1  0
 11 37  1  0
 15 38  1  0
 16 39  1  0
 17 40  1  0
 18 41  1  0
 20 42  1  0
 20 43  1  0
 21 44  1  0
 21 45  1  0
 23 46  1  0
 24 47  1  0
 25 48  1  0
 32 49  1  0
 33 50  1  0
M  CHG  2   1  -1   2   1
M  END
$$$$
[H]OC(=O)c1c([H])c(-c2c([H])c([H])c([H])c(Oc3c([H])c([H])c([H])c(F)c3[H])c2[H])c([H])c2c(Cl)c([H])c([H])c([H])c12
     RDKit          3D

 42 45  0  0  0  0  0  0  0  0999 V2000
   -3.5721   -3.1987   -1.8443 O   0  0  0  0  0  0  0  0  0  0  0  0
   -4.1648   -2.3659   -0.8587 C   0  0  0  0  0  0  0  0  0  0  0  0
   -5.2561   -2.7527   -0.4698 O   0  0  0  0  0  0  0  0  0  0  0  0
   -3.4039   -1.2138   -0.4752 C   0  0  0  0  0  0  0  0  0  0  0  0
   -2.1312   -0.9912   -0.9947 C   0  0  0  0  0  0  0  0  0  0  0  0
   -1.3217    0.0626   -0.6913 C   0  0  0  0  0  0  0  0  0  0  0  0
   -1.7972    0.9860    0.2022 C   0  0  0  0  0  0  0  0  0  0  0  0
   -3.0655    0.8227    0.7603 C   0  0  0  0  0  0  0  0  0  0  0  0
   -3.4868    1.7838    1.6480 C   0  0  0  0  0  0  0  0  0  0  0  0
   -2.4424    3.1194    2.0232 Cl  0  0  0  0  0  0  0  0  0  0  0  0
   -4.7392    1.6691    2.2280 C   0  0  0  0  0  0  0  0  0  0  0  0
   -5.5284    0.6020    1.9040 C   0  0  0  0  0  0  0  0  0  0  0  0
   -5.1147   -0.3853    1.0023 C   0  0  0  0  0  0  0  0  0  0  0  0
   -3.8704   -0.2734    0.4251 C   0  0  0  0  0  0  0  0  0  0  0  0
    0.0119    0.2362   -1.2771 C   0  0  0  0  0  0  0  0  0  0  0  0
    0.2499   -0.2137   -2.5599 C   0  0  0  0  0  0  0  0  0  0  0  0
    1.5027   -0.0539   -3.1181 C   0  0  0  0  0  0  0  0  0  0  0  0
    2.5329    0.5503   -2.4191 C   0  0  0  0  0  0  0  0  0  0  0  0
    2.3071    1.0071   -1.1288 C   0  0  0  0  0  0  0  0  0  0  0  0
    3.3112    1.6174   -0.3951 O   0  0  0  0  0  0  0  0  0  0  0  0
    4.1521    0.8619    0.4096 C   0  0  0  0  0  0  0  0  0  0  0  0
    5.1560    1.4586    1.1483 C   0  0  0  0  0  0  0  0  0  0  0  0
    5.9973    0.7253    1.9500 C   0  0  0  0  0  0  0  0  0  0  0  0
    5.8596   -0.6415    2.0390 C   0  0  0  0  0  0  0  0  0  0  0  0
    4.8717   -1.2702    1.3182 C   0  0  0  0  0  0  0  0  0  0  0  0
    4.7284   -2.6053    1.3984 F   0  0  0  0  0  0  0  0  0  0  0  0
    4.0325   -0.5016    0.5129 C   0  0  0  0  0  0  0  0  0  0  0  0
    1.0395    0.8396   -0.5781 C   0  0  0  0  0  0  0  0  0  0  0  0
   -2.9760   -3.9688   -1.5610 H   0  0  0  0  0  0  0  0  0  0  0  0
   -1.7433   -1.7136   -1.7022 H   0  0  0  0  0  0  0  0  0  0  0  0
   -1.1630    1.8322    0.4545 H   0  0  0  0  0  0  0  0  0  0  0  0
   -5.0645    2.4221    2.9216 H   0  0  0  0  0  0  0  0  0  0  0  0
   -6.5259    0.4722    2.3389 H   0  0  0  0  0  0  0  0  0  0  0  0
   -5.7904   -1.2019    0.7881 H   0  0  0  0  0  0  0  0  0  0  0  0
   -0.5645   -0.6839   -3.0943 H   0  0  0  0  0  0  0  0  0  0  0  0
    1.6687   -0.4131   -4.1243 H   0  0  0  0  0  0  0  0  0  0  0  0
    3.5312    0.6840   -2.8479 H   0  0  0  0  0  0  0  0  0  0  0  0
    5.3015    2.5334    1.1091 H   0  0  0  0  0  0  0  0  0  0  0  0
    6.7898    1.2188    2.5299 H   0  0  0  0  0  0  0  0  0  0  0  0
    6.5335   -1.2171    2.6796 H   0  0  0  0  0  0  0  0  0  0  0  0
    3.2825   -1.0367   -0.0262 H   0  0  0  0  0  0  0  0  0  0  0  0
    0.8619    1.1973    0.4329 H   0  0  0  0  0  0  0  0  0  0  0  0
  1  2  1  0
  2  3  2  0
  2  4  1  0
  4  5  2  0
  5  6  1  0
  6  7  2  0
  7  8  1  0
  8  9  2  0
  9 10  1  0
  9 11  1  0
 11 12  2  0
 12 13  1  0
 13 14  2  0
  6 15  1  0
 15 16  2  0
 16 17  1  0
 17 18  2  0
 18 19  1  0
 19 20  1  0
 20 21  1  0
 21 22  2  0
 22 23  1  0
 23 24  2  0
 24 25  1  0
 25 26  1  0
 25 27  2  0
 19 28  2  0
 14  4  1  0
 28 15  1  0
 14  8  1  0
 27 21  1  0
  1 29  1  0
  5 30  1  0
  7 31  1  0
 11 32  1  0
 12 33  1  0
 13 34  1  0
 16 35  1  0
 17 36  1  0
 18 37  1  0
 22 38  1  0
 23 39  1  0
 24 40  1  0
 27 41  1  0
 28 42  1  0
M  END
$$$$
[H]Oc1c([H])c([H])c2c(c1[H])[C@@]([H])(C([H])([H])[H])O[C@@]([H])(c1c([H])c([H])c(C#N)c([H])c1[H])[C@]([H])(c1c([H])c([H])c(N3C([H])([H])C([H])([H])O[C@]([H])(C([H])([H])[H])C3([H])[H])c([H])c1[H])O2
     RDKit          3D

 62 66  0  0  0  0  0  0  0  0999 V2000
    6.9798    0.2557   -1.2383 C   0  0  0  0  0  0  0  0  0  0  0  0
    6.2110    0.5236    0.0636 C   0  0  2  0  0  0  0  0  0  0  0  0
    4.9086   -0.2428   -0.0770 C   0  0  0  0  0  0  0  0  0  0  0  0
    3.9925    0.3577    0.8846 N   0  0  0  0  0  0  0  0  0  0  0  0
    4.6408    1.1493    1.9079 C   0  0  0  0  0  0  0  0  0  0  0  0
    5.2378    2.3450    1.1475 C   0  0  0  0  0  0  0  0  0  0  0  0
    6.0497    1.8830    0.1483 O   0  0  0  0  0  0  0  0  0  0  0  0
    2.5968    0.1604    0.7908 C   0  0  0  0  0  0  0  0  0  0  0  0
    1.6909    0.7528    1.6419 C   0  0  0  0  0  0  0  0  0  0  0  0
    0.3167    0.5505    1.5337 C   0  0  0  0  0  0  0  0  0  0  0  0
   -0.1191   -0.2660    0.5431 C   0  0  0  0  0  0  0  0  0  0  0  0
    0.7840   -0.8712   -0.3228 C   0  0  0  0  0  0  0  0  0  0  0  0
    2.1396   -0.6805   -0.2275 C   0  0  0  0  0  0  0  0  0  0  0  0
   -1.5717   -0.5897    0.2782 C   0  0  2  0  0  0  0  0  0  0  0  0
   -1.5632   -1.9794    0.1408 O   0  0  0  0  0  0  0  0  0  0  0  0
   -2.6025   -2.7949   -0.1996 C   0  0  0  0  0  0  0  0  0  0  0  0
   -2.3938   -4.0843    0.2482 C   0  0  0  0  0  0  0  0  0  0  0  0
   -3.3354   -5.0350   -0.0051 C   0  0  0  0  0  0  0  0  0  0  0  0
   -4.4846   -4.7097   -0.7024 C   0  0  0  0  0  0  0  0  0  0  0  0
   -5.4659   -5.6499   -0.9792 O   0  0  0  0  0  0  0  0  0  0  0  0
   -4.6677   -3.3982   -1.1430 C   0  0  0  0  0  0  0  0  0  0  0  0
   -3.7248   -2.4236   -0.8950 C   0  0  0  0  0  0  0  0  0  0  0  0
   -4.0715   -1.0899   -1.4397 C   0  0  1  0  0  0  0  0  0  0  0  0
   -5.4335   -0.6604   -0.9019 C   0  0  0  0  0  0  0  0  0  0  0  0
   -3.1586   -0.1734   -1.5502 O   0  0  0  0  0  0  0  0  0  0  0  0
   -2.0792    0.1769   -0.9199 C   0  0  1  0  0  0  0  0  0  0  0  0
   -1.9852    1.6539   -0.5752 C   0  0  0  0  0  0  0  0  0  0  0  0
   -3.0116    2.3186    0.0550 C   0  0  0  0  0  0  0  0  0  0  0  0
   -2.9456    3.6580    0.3641 C   0  0  0  0  0  0  0  0  0  0  0  0
   -1.8119    4.3880    0.0386 C   0  0  0  0  0  0  0  0  0  0  0  0
   -0.7809    3.7569   -0.5854 C   0  0  0  0  0  0  0  0  0  0  0  0
   -0.8805    2.4155   -0.8798 C   0  0  0  0  0  0  0  0  0  0  0  0
   -1.6935    5.7965    0.3422 C   0  0  0  0  0  0  0  0  0  0  0  0
   -1.6072    6.9121    0.5737 N   0  0  0  0  0  0  0  0  0  0  0  0
    6.6506    1.0082   -1.9851 H   0  0  0  0  0  0  0  0  0  0  0  0
    6.7046   -0.7662   -1.6183 H   0  0  0  0  0  0  0  0  0  0  0  0
    8.0503    0.3316   -1.0382 H   0  0  0  0  0  0  0  0  0  0  0  0
    6.8100    0.0757    0.8684 H   0  0  0  0  0  0  0  0  0  0  0  0
    5.1125   -1.2932    0.1757 H   0  0  0  0  0  0  0  0  0  0  0  0
    4.4932   -0.0857   -1.0921 H   0  0  0  0  0  0  0  0  0  0  0  0
    5.4997    0.5763    2.3701 H   0  0  0  0  0  0  0  0  0  0  0  0
    4.0182    1.4537    2.7385 H   0  0  0  0  0  0  0  0  0  0  0  0
    5.6518    3.1014    1.8077 H   0  0  0  0  0  0  0  0  0  0  0  0
    4.3400    2.8112    0.6455 H   0  0  0  0  0  0  0  0  0  0  0  0
    2.0342    1.3973    2.4226 H   0  0  0  0  0  0  0  0  0  0  0  0
   -0.4008    1.0068    2.1891 H   0  0  0  0  0  0  0  0  0  0  0  0
    0.4264   -1.5322   -1.1221 H   0  0  0  0  0  0  0  0  0  0  0  0
    2.7880   -1.1676   -0.9174 H   0  0  0  0  0  0  0  0  0  0  0  0
   -2.1052   -0.3224    1.2098 H   0  0  0  0  0  0  0  0  0  0  0  0
   -1.5005   -4.3423    0.7922 H   0  0  0  0  0  0  0  0  0  0  0  0
   -3.2076   -6.0552    0.3288 H   0  0  0  0  0  0  0  0  0  0  0  0
   -5.4094   -6.6058   -0.6992 H   0  0  0  0  0  0  0  0  0  0  0  0
   -5.5822   -3.1828   -1.6849 H   0  0  0  0  0  0  0  0  0  0  0  0
   -4.3497   -1.3612   -2.5291 H   0  0  0  0  0  0  0  0  0  0  0  0
   -6.2786   -1.2077   -1.3912 H   0  0  0  0  0  0  0  0  0  0  0  0
   -5.6332    0.4036   -1.0481 H   0  0  0  0  0  0  0  0  0  0  0  0
   -5.4781   -0.9743    0.1736 H   0  0  0  0  0  0  0  0  0  0  0  0
   -1.2232    0.0545   -1.6683 H   0  0  0  0  0  0  0  0  0  0  0  0
   -3.9077    1.7901    0.3259 H   0  0  0  0  0  0  0  0  0  0  0  0
   -3.7589    4.1851    0.8645 H   0  0  0  0  0  0  0  0  0  0  0  0
    0.1288    4.3269   -0.8518 H   0  0  0  0  0  0  0  0  0  0  0  0
   -0.0336    1.9690   -1.3792 H   0  0  0  0  0  0  0  0  0  0  0  0
  1  2  1  0
  2  3  1  0
  3  4  1  0
  4  5  1  0
  5  6  1  0
  6  7  1  0
  4  8  1  0
  8  9  2  0
  9 10  1  0
 10 11  2  0
 11 12  1  0
 12 13  2  0
 11 14  1  0
 14 15  1  0
 15 16  1  0
 16 17  2  0
 17 18  1  0
 18 19  2  0
 19 20  1  0
 19 21  1  0
 21 22  2  0
 22 23  1  0
 23 24  1  0
 23 25  1  0
 25 26  1  0
 26 27  1  0
 27 28  2  0
 28 29  1  0
 29 30  2  0
 30 31  1  0
 31 32  2  0
 30 33  1  0
 33 34  3  0
  7  2  1  0
 13  8  1  0
 26 14  1  0
 32 27  1  0
 22 16  1  0
  1 35  1  0
  1 36  1  0
  1 37  1  0
  2 38  1  1
  3 39  1  0
  3 40  1  0
  5 41  1  0
  5 42  1  0
  6 43  1  0
  6 44  1  0
  9 45  1  0
 10 46  1  0
 12 47  1  0
 13 48  1  0
 14 49  1  1
 17 50  1  0
 18 51  1  0
 20 52  1  0
 21 53  1  0
 23 54  1  6
 24 55  1  0
 24 56  1  0
 24 57  1  0
 26 58  1  6
 28 59  1  0
 29 60  1  0
 31 61  1  0
 32 62  1  0
M  END
$$$$
[H]OC(=O)C([H])([H])[C@@]([H])(C(=O)N([H])[C@]([H])(C(=O)O[H])C([H])([H])C([H])([H])S[H])C([H])([H])c1c([H])c([H])c([H])c([H])c1[H]
     RDKit          3D

 41 41  0  0  0  0  0  0  0  0999 V2000
    4.7451   -1.4437    0.1377 O   0  0  0  0  0  0  0  0  0  0  0  0
    3.4835   -1.2515    0.6611 C   0  0  0  0  0  0  0  0  0  0  0  0
    3.1581   -1.8747    1.7034 O   0  0  0  0  0  0  0  0  0  0  0  0
    2.5381   -0.3201   -0.0085 C   0  0  2  0  0  0  0  0  0  0  0  0
    3.2286    1.0263   -0.0893 C   0  0  0  0  0  0  0  0  0  0  0  0
    3.5752    1.5426    1.2906 C   0  0  0  0  0  0  0  0  0  0  0  0
    4.3949    3.1359    1.2399 S   0  0  0  0  0  0  0  0  0  0  0  0
    1.2811   -0.2495    0.6822 N   0  0  0  0  0  0  0  0  0  0  0  0
    0.0326   -0.5582    0.0796 C   0  0  0  0  0  0  0  0  0  0  0  0
    0.0581   -0.9048   -1.1080 O   0  0  0  0  0  0  0  0  0  0  0  0
   -1.2117   -0.4691    0.8307 C   0  0  2  0  0  0  0  0  0  0  0  0
   -1.2116   -1.4935    1.9834 C   0  0  0  0  0  0  0  0  0  0  0  0
   -1.0706   -2.8728    1.5261 C   0  0  0  0  0  0  0  0  0  0  0  0
   -0.8785   -3.3214    0.2447 O   0  0  0  0  0  0  0  0  0  0  0  0
   -1.1325   -3.7752    2.4247 O   0  0  0  0  0  0  0  0  0  0  0  0
   -2.4790   -0.5886    0.1204 C   0  0  0  0  0  0  0  0  0  0  0  0
   -2.8466    0.3434   -0.9258 C   0  0  0  0  0  0  0  0  0  0  0  0
   -2.6669    0.0013   -2.2437 C   0  0  0  0  0  0  0  0  0  0  0  0
   -2.9821    0.8716   -3.2963 C   0  0  0  0  0  0  0  0  0  0  0  0
   -3.4893    2.1107   -3.0111 C   0  0  0  0  0  0  0  0  0  0  0  0
   -3.6741    2.4627   -1.6912 C   0  0  0  0  0  0  0  0  0  0  0  0
   -3.3629    1.6068   -0.6791 C   0  0  0  0  0  0  0  0  0  0  0  0
    5.5693   -0.9703    0.4559 H   0  0  0  0  0  0  0  0  0  0  0  0
    2.3144   -0.6475   -1.0529 H   0  0  0  0  0  0  0  0  0  0  0  0
    4.1792    0.8660   -0.6599 H   0  0  0  0  0  0  0  0  0  0  0  0
    2.6304    1.7527   -0.6754 H   0  0  0  0  0  0  0  0  0  0  0  0
    4.2772    0.8160    1.7583 H   0  0  0  0  0  0  0  0  0  0  0  0
    2.6449    1.5386    1.8940 H   0  0  0  0  0  0  0  0  0  0  0  0
    5.2299    3.1872    0.1020 H   0  0  0  0  0  0  0  0  0  0  0  0
    1.2696    0.0425    1.6818 H   0  0  0  0  0  0  0  0  0  0  0  0
   -1.1135    0.5062    1.4099 H   0  0  0  0  0  0  0  0  0  0  0  0
   -0.4882   -1.1934    2.7590 H   0  0  0  0  0  0  0  0  0  0  0  0
   -2.2259   -1.3953    2.4492 H   0  0  0  0  0  0  0  0  0  0  0  0
   -1.4329   -3.9977   -0.2381 H   0  0  0  0  0  0  0  0  0  0  0  0
   -3.3586   -0.6133    0.8413 H   0  0  0  0  0  0  0  0  0  0  0  0
   -2.5306   -1.6297   -0.3251 H   0  0  0  0  0  0  0  0  0  0  0  0
   -2.2880   -0.9727   -2.5868 H   0  0  0  0  0  0  0  0  0  0  0  0
   -2.8408    0.6036   -4.3331 H   0  0  0  0  0  0  0  0  0  0  0  0
   -3.7525    2.8293   -3.7930 H   0  0  0  0  0  0  0  0  0  0  0  0
   -4.0774    3.4464   -1.4602 H   0  0  0  0  0  0  0  0  0  0  0  0
   -3.4962    1.8530    0.3646 H   0  0  0  0  0  0  0  0  0  0  0  0
  1  2  1  0
  2  3  2  0
  2  4  1  0
  4  5  1  0
  5  6  1  0
  6  7  1  0
  4  8  1  0
  8  9  1  0
  9 10  2  0
  9 11  1  0
 11 12  1  0
 12 13  1  0
 13 14  1  0
 13 15  2  0
 11 16  1  0
 16 17  1  0
 17 18  2  0
 18 19  1  0
 19 20  2  0
 20 21  1  0
 21 22  2  0
 22 17  1  0
  1 23  1  0
  4 24  1  6
  5 25  1  0
  5 26  1  0
  6 27  1  0
  6 28  1  0
  7 29  1  0
  8 30  1  0
 11 31  1  1
 12 32  1  0
 12 33  1  0
 14 34  1  0
 16 35  1  0
 16 36  1  0
 18 37  1  0
 19 38  1  0
 20 39  1  0
 21 40  1  0
 22 41  1  0
M  END
$$$$
[H]c1c([H])c(C([H])([H])[H])c([H])c(C([H])([H])n2c([H])nc3c([H])c(N([H])C(=O)C([H])(C([H])([H])[H])C([H])([H])[H])c([H])c([H])c32)c1[H]
     RDKit          3D

 44 46  0  0  0  0  0  0  0  0999 V2000
   -6.7351   -0.4091   -1.5089 C   0  0  0  0  0  0  0  0  0  0  0  0
   -5.8302   -0.6575   -0.3397 C   0  0  0  0  0  0  0  0  0  0  0  0
   -6.3233   -0.0485    0.9390 C   0  0  0  0  0  0  0  0  0  0  0  0
   -4.4668   -0.0831   -0.6386 C   0  0  0  0  0  0  0  0  0  0  0  0
   -4.3151    0.4805   -1.7572 O   0  0  0  0  0  0  0  0  0  0  0  0
   -3.4904   -0.2259    0.3514 N   0  0  0  0  0  0  0  0  0  0  0  0
   -2.1503    0.2273    0.2997 C   0  0  0  0  0  0  0  0  0  0  0  0
   -1.2929    0.0012    1.3882 C   0  0  0  0  0  0  0  0  0  0  0  0
   -0.0060    0.4112    1.3936 C   0  0  0  0  0  0  0  0  0  0  0  0
    0.5529    1.0737    0.3427 C   0  0  0  0  0  0  0  0  0  0  0  0
    1.7874    1.5592    0.1483 N   0  0  0  0  0  0  0  0  0  0  0  0
    2.9294    1.5149    1.0355 C   0  0  0  0  0  0  0  0  0  0  0  0
    3.7655    0.2933    0.8196 C   0  0  0  0  0  0  0  0  0  0  0  0
    3.5169   -0.8591    1.5316 C   0  0  0  0  0  0  0  0  0  0  0  0
    4.2957   -1.9759    1.3206 C   0  0  0  0  0  0  0  0  0  0  0  0
    5.3214   -1.9493    0.4030 C   0  0  0  0  0  0  0  0  0  0  0  0
    5.5963   -0.8129   -0.3254 C   0  0  0  0  0  0  0  0  0  0  0  0
    6.7086   -0.8521   -1.2914 C   0  0  0  0  0  0  0  0  0  0  0  0
    4.8041    0.2810   -0.0928 C   0  0  0  0  0  0  0  0  0  0  0  0
    1.7623    2.1224   -1.0926 C   0  0  0  0  0  0  0  0  0  0  0  0
    0.5280    1.9737   -1.6296 N   0  0  0  0  0  0  0  0  0  0  0  0
   -0.2421    1.3218   -0.7503 C   0  0  0  0  0  0  0  0  0  0  0  0
   -1.5780    0.8942   -0.7513 C   0  0  0  0  0  0  0  0  0  0  0  0
   -6.1208   -0.4809   -2.4426 H   0  0  0  0  0  0  0  0  0  0  0  0
   -7.4500   -1.2737   -1.5582 H   0  0  0  0  0  0  0  0  0  0  0  0
   -7.2655    0.5533   -1.4586 H   0  0  0  0  0  0  0  0  0  0  0  0
   -5.6686   -1.7649   -0.2519 H   0  0  0  0  0  0  0  0  0  0  0  0
   -5.6167    0.7221    1.3334 H   0  0  0  0  0  0  0  0  0  0  0  0
   -7.3507    0.3843    0.8435 H   0  0  0  0  0  0  0  0  0  0  0  0
   -6.3296   -0.8571    1.7190 H   0  0  0  0  0  0  0  0  0  0  0  0
   -3.8052   -0.7357    1.2396 H   0  0  0  0  0  0  0  0  0  0  0  0
   -1.7366   -0.5303    2.2345 H   0  0  0  0  0  0  0  0  0  0  0  0
    0.6097    0.2023    2.2785 H   0  0  0  0  0  0  0  0  0  0  0  0
    2.6536    1.5318    2.0995 H   0  0  0  0  0  0  0  0  0  0  0  0
    3.5986    2.4076    0.8681 H   0  0  0  0  0  0  0  0  0  0  0  0
    2.7185   -0.9314    2.2687 H   0  0  0  0  0  0  0  0  0  0  0  0
    4.1109   -2.9062    1.8815 H   0  0  0  0  0  0  0  0  0  0  0  0
    5.9135   -2.8658    0.2714 H   0  0  0  0  0  0  0  0  0  0  0  0
    7.6739   -0.7318   -0.7249 H   0  0  0  0  0  0  0  0  0  0  0  0
    6.7486   -1.8733   -1.7281 H   0  0  0  0  0  0  0  0  0  0  0  0
    6.6884   -0.0530   -2.0397 H   0  0  0  0  0  0  0  0  0  0  0  0
    5.0148    1.1918   -0.6682 H   0  0  0  0  0  0  0  0  0  0  0  0
    2.6075    2.6054   -1.5525 H   0  0  0  0  0  0  0  0  0  0  0  0
   -2.1327    1.1247   -1.6387 H   0  0  0  0  0  0  0  0  0  0  0  0
  1  2  1  0
  2  3  1  0
  2  4  1  0
  4  5  2  0
  4  6  1  0
  6  7  1  0
  7  8  2  0
  8  9  1  0
  9 10  2  0
 10 11  1  0
 11 12  1  0
 12 13  1  0
 13 14  2  0
 14 15  1  0
 15 16  2  0
 16 17  1  0
 17 18  1  0
 17 19  2  0
 11 20  1  0
 20 21  2  0
 21 22  1  0
 22 23  2  0
 23  7  1  0
 22 10  1  0
 19 13  1  0
  1 24  1  0
  1 25  1  0
  1 26  1  0
  2 27  1  0
  3 28  1  0
  3 29  1  0
  3 30  1  0
  6 31  1  0
  8 32  1  0
  9 33  1  0
 12 34  1  0
 12 35  1  0
 14 36  1  0
 15 37  1  0
 16 38  1  0
 18 39  1  0
 18 40  1  0
 18 41  1  0
 19 42  1  0
 20 43  1  0
 23 44  1  0
M  END
$$$$
[H]c1c([H])c(Cl)c([H])c(-c2c(N([H])[H])nc(N([H])[H])nc2C([H])([H])C([H])([H])[H])c1[H]
     RDKit          3D

 30 31  0  0  0  0  0  0  0  0999 V2000
   -2.1310    2.3934    0.5264 C   0  0  0  0  0  0  0  0  0  0  0  0
   -0.8880    1.7377   -0.0270 C   0  0  0  0  0  0  0  0  0  0  0  0
   -1.1765    0.2923   -0.2483 C   0  0  0  0  0  0  0  0  0  0  0  0
   -2.4370   -0.1376   -0.4563 N   0  0  0  0  0  0  0  0  0  0  0  0
   -2.7291   -1.4328   -0.6569 C   0  0  0  0  0  0  0  0  0  0  0  0
   -4.0783   -1.8852   -0.8555 N   0  0  0  0  0  0  0  0  0  0  0  0
   -1.6980   -2.3106   -0.6434 N   0  0  0  0  0  0  0  0  0  0  0  0
   -0.4253   -1.9111   -0.4371 C   0  0  0  0  0  0  0  0  0  0  0  0
    0.6633   -2.8343   -0.4244 N   0  0  0  0  0  0  0  0  0  0  0  0
   -0.1131   -0.5881   -0.2297 C   0  0  0  0  0  0  0  0  0  0  0  0
    1.2268   -0.0840    0.0358 C   0  0  0  0  0  0  0  0  0  0  0  0
    1.6922   -0.1633    1.3530 C   0  0  0  0  0  0  0  0  0  0  0  0
    2.9333    0.2971    1.6783 C   0  0  0  0  0  0  0  0  0  0  0  0
    3.7907    0.8600    0.7336 C   0  0  0  0  0  0  0  0  0  0  0  0
    3.3126    0.9259   -0.5512 C   0  0  0  0  0  0  0  0  0  0  0  0
    4.3621    1.6270   -1.7824 Cl  0  0  0  0  0  0  0  0  0  0  0  0
    2.0572    0.4671   -0.9051 C   0  0  0  0  0  0  0  0  0  0  0  0
   -2.9824    1.6840    0.6354 H   0  0  0  0  0  0  0  0  0  0  0  0
   -1.9501    2.8751    1.5234 H   0  0  0  0  0  0  0  0  0  0  0  0
   -2.5226    3.1960   -0.1534 H   0  0  0  0  0  0  0  0  0  0  0  0
   -0.0094    1.8835    0.6514 H   0  0  0  0  0  0  0  0  0  0  0  0
   -0.6909    2.1819   -1.0336 H   0  0  0  0  0  0  0  0  0  0  0  0
   -4.4859   -2.6411   -0.2653 H   0  0  0  0  0  0  0  0  0  0  0  0
   -4.6287   -1.4365   -1.6006 H   0  0  0  0  0  0  0  0  0  0  0  0
    0.5810   -3.7583    0.0489 H   0  0  0  0  0  0  0  0  0  0  0  0
    1.5512   -2.5881   -0.8893 H   0  0  0  0  0  0  0  0  0  0  0  0
    1.0551   -0.6067    2.1346 H   0  0  0  0  0  0  0  0  0  0  0  0
    3.2519    0.2091    2.7200 H   0  0  0  0  0  0  0  0  0  0  0  0
    4.7647    1.2072    1.0601 H   0  0  0  0  0  0  0  0  0  0  0  0
    1.7045    0.5403   -1.9415 H   0  0  0  0  0  0  0  0  0  0  0  0
  1  2  1  0
  2  3  1  0
  3  4  2  0
  4  5  1  0
  5  6  1  0
  5  7  2  0
  7  8  1  0
  8  9  1  0
  8 10  2  0
 10 11  1  0
 11 12  2  0
 12 13  1  0
 13 14  2  0
 14 15  1  0
 15 16  1  0
 15 17  2  0
 10  3  1  0
 17 11  1  0
  1 18  1  0
  1 19  1  0
  1 20  1  0
  2 21  1  0
  2 22  1  0
  6 23  1  0
  6 24  1  0
  9 25  1  0
  9 26  1  0
 12 27  1  0
 13 28  1  0
 14 29  1  0
 17 30  1  0
M  END
$$$$
[H]c1nc(N([H])[C@@]([H])(c2c([H])c([H])c([H])c([H])c2[H])C([H])([H])[H])c2c([H])c(-c3c([H])c([H])nc([H])c3Br)c([H])c([H])c2n1
     RDKit          3D

 43 46  0  0  0  0  0  0  0  0999 V2000
   -3.0515   -1.9710    0.8351 C   0  0  0  0  0  0  0  0  0  0  0  0
   -2.5006   -0.6026    0.8365 C   0  0  1  0  0  0  0  0  0  0  0  0
   -1.0541   -0.5008    0.6172 N   0  0  0  0  0  0  0  0  0  0  0  0
   -0.4179   -1.3241   -0.3557 C   0  0  0  0  0  0  0  0  0  0  0  0
   -1.1477   -2.2579   -1.0344 N   0  0  0  0  0  0  0  0  0  0  0  0
   -0.5330   -3.0508   -1.9245 C   0  0  0  0  0  0  0  0  0  0  0  0
    0.7850   -2.9494   -2.1658 N   0  0  0  0  0  0  0  0  0  0  0  0
    1.5286   -2.0352   -1.5088 C   0  0  0  0  0  0  0  0  0  0  0  0
    2.8764   -1.9084   -1.7354 C   0  0  0  0  0  0  0  0  0  0  0  0
    3.6241   -0.9692   -1.0578 C   0  0  0  0  0  0  0  0  0  0  0  0
    3.0590   -0.1226   -0.1317 C   0  0  0  0  0  0  0  0  0  0  0  0
    1.6839   -0.2444    0.1068 C   0  0  0  0  0  0  0  0  0  0  0  0
    0.9364   -1.1817   -0.5685 C   0  0  0  0  0  0  0  0  0  0  0  0
    3.8544    0.8722    0.5697 C   0  0  0  0  0  0  0  0  0  0  0  0
    3.7657    0.9293    1.9508 C   0  0  0  0  0  0  0  0  0  0  0  0
    4.5149    1.8547    2.6828 C   0  0  0  0  0  0  0  0  0  0  0  0
    5.3370    2.7092    2.0668 N   0  0  0  0  0  0  0  0  0  0  0  0
    5.4310    2.6625    0.7211 C   0  0  0  0  0  0  0  0  0  0  0  0
    4.7093    1.7650   -0.0392 C   0  0  0  0  0  0  0  0  0  0  0  0
    4.8894    1.7803   -1.9380 Br  0  0  0  0  0  0  0  0  0  0  0  0
   -3.3073    0.3230    0.0277 C   0  0  0  0  0  0  0  0  0  0  0  0
   -4.5132    0.7489    0.5817 C   0  0  0  0  0  0  0  0  0  0  0  0
   -5.3295    1.6185   -0.0792 C   0  0  0  0  0  0  0  0  0  0  0  0
   -4.9575    2.0908   -1.3257 C   0  0  0  0  0  0  0  0  0  0  0  0
   -3.7655    1.6663   -1.8662 C   0  0  0  0  0  0  0  0  0  0  0  0
   -2.9272    0.7847   -1.2074 C   0  0  0  0  0  0  0  0  0  0  0  0
   -3.9251   -2.0124    1.5546 H   0  0  0  0  0  0  0  0  0  0  0  0
   -3.5582   -2.2252   -0.1451 H   0  0  0  0  0  0  0  0  0  0  0  0
   -2.3738   -2.7576    1.1830 H   0  0  0  0  0  0  0  0  0  0  0  0
   -2.6871   -0.2256    1.9272 H   0  0  0  0  0  0  0  0  0  0  0  0
   -0.5950    0.1849    1.2055 H   0  0  0  0  0  0  0  0  0  0  0  0
   -1.1595   -3.7841   -2.4439 H   0  0  0  0  0  0  0  0  0  0  0  0
    3.3614   -2.5499   -2.4520 H   0  0  0  0  0  0  0  0  0  0  0  0
    4.6949   -0.8771   -1.2340 H   0  0  0  0  0  0  0  0  0  0  0  0
    1.2385    0.4170    0.8298 H   0  0  0  0  0  0  0  0  0  0  0  0
    3.1248    0.2714    2.5037 H   0  0  0  0  0  0  0  0  0  0  0  0
    4.4554    1.9107    3.7652 H   0  0  0  0  0  0  0  0  0  0  0  0
    6.0867    3.3405    0.1988 H   0  0  0  0  0  0  0  0  0  0  0  0
   -4.8178    0.3806    1.5699 H   0  0  0  0  0  0  0  0  0  0  0  0
   -6.2722    1.9461    0.3634 H   0  0  0  0  0  0  0  0  0  0  0  0
   -5.5948    2.7842   -1.8682 H   0  0  0  0  0  0  0  0  0  0  0  0
   -3.4823    2.0348   -2.8311 H   0  0  0  0  0  0  0  0  0  0  0  0
   -1.9862    0.4746   -1.6500 H   0  0  0  0  0  0  0  0  0  0  0  0
  1  2  1  0
  2  3  1  0
  3  4  1  0
  4  5  2  0
  5  6  1  0
  6  7  2  0
  7  8  1  0
  8  9  2  0
  9 10  1  0
 10 11  2  0
 11 12  1  0
 12 13  2  0
 11 14  1  0
 14 15  2  0
 15 16  1  0
 16 17  2  0
 17 18  1  0
 18 19  2  0
 19 20  1  0
  2 21  1  0
 21 22  2  0
 22 23  1  0
 23 24  2  0
 24 25  1  0
 25 26  2  0
 13  4  1  0
 19 14  1  0
 26 21  1  0
 13  8  1  0
  1 27  1  0
  1 28  1  0
  1 29  1  0
  2 30  1  1
  3 31  1  0
  6 32  1  0
  9 33  1  0
 10 34  1  0
 12 35  1  0
 15 36  1  0
 16 37  1  0
 18 38  1  0
 22 39  1  0
 23 40  1  0
 24 41  1  0
 25 42  1  0
 26 43  1  0
M  END
$$$$
[H]c1c([H])c([H])c(C([H])([H])OC(=O)N([H])[C@]([H])(C(=O)N2C([H])([H])C([H])([H])C([H])([H])[C@@]2([H])C(=O)N([H])[C@]([H])(C(C([H])([H])[H])(C([H])([H])[H])C([H])([H])[H])[C@@]([H])(C([H])([H])[H])C([H])([H])C([H])([H])[H])c2c([H])c([H])c(C#N)c([H])c2[H])c([H])c1[H]
     RDKit          3D

 79 81  0  0  0  0  0  0  0  0999 V2000
   -4.6615    2.9709    1.3759 C   0  0  0  0  0  0  0  0  0  0  0  0
   -5.7821    2.3522    0.5416 C   0  0  0  0  0  0  0  0  0  0  0  0
   -5.8150    0.9028    0.4366 C   0  0  2  0  0  0  0  0  0  0  0  0
   -5.9541    0.2973    1.8451 C   0  0  0  0  0  0  0  0  0  0  0  0
   -4.8154    0.1106   -0.2997 C   0  0  2  0  0  0  0  0  0  0  0  0
   -3.4386    0.2864    0.1817 N   0  0  0  0  0  0  0  0  0  0  0  0
   -2.6505   -0.7730    0.7090 C   0  0  0  0  0  0  0  0  0  0  0  0
   -3.2683   -1.9207    0.6658 O   0  0  0  0  0  0  0  0  0  0  0  0
   -1.3568   -0.7072    1.2611 C   0  0  2  0  0  0  0  0  0  0  0  0
   -1.3003    0.3189    2.4403 C   0  0  0  0  0  0  0  0  0  0  0  0
   -0.7400    1.5418    1.7511 C   0  0  0  0  0  0  0  0  0  0  0  0
   -0.1720    1.0546    0.3977 C   0  0  0  0  0  0  0  0  0  0  0  0
   -0.1447   -0.3983    0.5433 N   0  0  0  0  0  0  0  0  0  0  0  0
    0.8121   -1.3817    0.2046 C   0  0  0  0  0  0  0  0  0  0  0  0
    0.4028   -2.5981    0.5283 O   0  0  0  0  0  0  0  0  0  0  0  0
    2.1414   -1.2775   -0.3857 C   0  0  1  0  0  0  0  0  0  0  0  0
    3.1148   -0.8386    0.5915 N   0  0  0  0  0  0  0  0  0  0  0  0
    4.4121   -0.4244    0.1215 C   0  0  0  0  0  0  0  0  0  0  0  0
    4.6863   -0.4719   -1.0948 O   0  0  0  0  0  0  0  0  0  0  0  0
    5.3936    0.0217    0.9559 O   0  0  0  0  0  0  0  0  0  0  0  0
    6.6554    0.4400    0.8315 C   0  0  0  0  0  0  0  0  0  0  0  0
    7.0428    1.5824    0.0218 C   0  0  0  0  0  0  0  0  0  0  0  0
    7.3089    1.4722   -1.3328 C   0  0  0  0  0  0  0  0  0  0  0  0
    7.7370    2.5340   -2.0914 C   0  0  0  0  0  0  0  0  0  0  0  0
    7.9160    3.7555   -1.5182 C   0  0  0  0  0  0  0  0  0  0  0  0
    7.6623    3.9088   -0.1653 C   0  0  0  0  0  0  0  0  0  0  0  0
    7.2319    2.8230    0.5694 C   0  0  0  0  0  0  0  0  0  0  0  0
    2.6347   -2.7716   -0.5113 C   0  0  0  0  0  0  0  0  0  0  0  0
    2.9230   -3.3711   -1.6442 C   0  0  0  0  0  0  0  0  0  0  0  0
    3.3110   -4.7246   -1.6438 C   0  0  0  0  0  0  0  0  0  0  0  0
    3.3842   -5.4247   -0.4223 C   0  0  0  0  0  0  0  0  0  0  0  0
    3.0711   -4.7425    0.7211 C   0  0  0  0  0  0  0  0  0  0  0  0
    2.6962   -3.4240    0.7453 C   0  0  0  0  0  0  0  0  0  0  0  0
    3.7931   -6.8084   -0.3757 C   0  0  0  0  0  0  0  0  0  0  0  0
    4.1533   -7.9264   -0.3024 N   0  0  0  0  0  0  0  0  0  0  0  0
   -4.8341    0.2572   -1.7918 C   0  0  0  0  0  0  0  0  0  0  0  0
   -4.5190    1.6234   -2.3209 C   0  0  0  0  0  0  0  0  0  0  0  0
   -6.2792   -0.1289   -2.2317 C   0  0  0  0  0  0  0  0  0  0  0  0
   -3.9479   -0.7609   -2.4417 C   0  0  0  0  0  0  0  0  0  0  0  0
   -3.7925    3.2909    0.7888 H   0  0  0  0  0  0  0  0  0  0  0  0
   -5.0753    3.9907    1.7441 H   0  0  0  0  0  0  0  0  0  0  0  0
   -4.4451    2.4159    2.3012 H   0  0  0  0  0  0  0  0  0  0  0  0
   -5.8400    2.9652   -0.3589 H   0  0  0  0  0  0  0  0  0  0  0  0
   -6.7269    2.6637    1.1246 H   0  0  0  0  0  0  0  0  0  0  0  0
   -6.8188    0.6036   -0.0403 H   0  0  0  0  0  0  0  0  0  0  0  0
   -6.0564   -0.8104    1.7171 H   0  0  0  0  0  0  0  0  0  0  0  0
   -6.8978    0.6651    2.3236 H   0  0  0  0  0  0  0  0  0  0  0  0
   -5.0752    0.4814    2.4649 H   0  0  0  0  0  0  0  0  0  0  0  0
   -5.0297   -0.9563   -0.1130 H   0  0  0  0  0  0  0  0  0  0  0  0
   -3.0376    1.2291    0.1252 H   0  0  0  0  0  0  0  0  0  0  0  0
   -1.1510   -1.6904    1.8350 H   0  0  0  0  0  0  0  0  0  0  0  0
   -0.5839   -0.0173    3.1968 H   0  0  0  0  0  0  0  0  0  0  0  0
   -2.2856    0.4619    2.8842 H   0  0  0  0  0  0  0  0  0  0  0  0
    0.0525    2.0305    2.3220 H   0  0  0  0  0  0  0  0  0  0  0  0
   -1.5566    2.2837    1.6002 H   0  0  0  0  0  0  0  0  0  0  0  0
    0.8648    1.4814    0.2940 H   0  0  0  0  0  0  0  0  0  0  0  0
   -0.7562    1.3976   -0.4640 H   0  0  0  0  0  0  0  0  0  0  0  0
    2.2542   -0.8542   -1.3398 H   0  0  0  0  0  0  0  0  0  0  0  0
    2.9155   -0.8034    1.5978 H   0  0  0  0  0  0  0  0  0  0  0  0
    6.9926    0.7321    1.9193 H   0  0  0  0  0  0  0  0  0  0  0  0
    7.3945   -0.3962    0.6327 H   0  0  0  0  0  0  0  0  0  0  0  0
    7.2008    0.5154   -1.8481 H   0  0  0  0  0  0  0  0  0  0  0  0
    7.9292    2.4554   -3.1577 H   0  0  0  0  0  0  0  0  0  0  0  0
    8.2466    4.6239   -2.1033 H   0  0  0  0  0  0  0  0  0  0  0  0
    7.8164    4.8706    0.2619 H   0  0  0  0  0  0  0  0  0  0  0  0
    7.0460    2.9983    1.6367 H   0  0  0  0  0  0  0  0  0  0  0  0
    2.8728   -2.8639   -2.6270 H   0  0  0  0  0  0  0  0  0  0  0  0
    3.5519   -5.2305   -2.5499 H   0  0  0  0  0  0  0  0  0  0  0  0
    3.1107   -5.3231    1.6869 H   0  0  0  0  0  0  0  0  0  0  0  0
    2.4674   -2.9174    1.6677 H   0  0  0  0  0  0  0  0  0  0  0  0
   -3.9685    1.6552   -3.2682 H   0  0  0  0  0  0  0  0  0  0  0  0
   -3.9829    2.2774   -1.6059 H   0  0  0  0  0  0  0  0  0  0  0  0
   -5.5016    2.1364   -2.5571 H   0  0  0  0  0  0  0  0  0  0  0  0
   -6.9319    0.7491   -2.1524 H   0  0  0  0  0  0  0  0  0  0  0  0
   -6.5596   -0.9844   -1.6059 H   0  0  0  0  0  0  0  0  0  0  0  0
   -6.2263   -0.4742   -3.2818 H   0  0  0  0  0  0  0  0  0  0  0  0
   -4.0417   -0.6937   -3.5693 H   0  0  0  0  0  0  0  0  0  0  0  0
   -4.2666   -1.7802   -2.1043 H   0  0  0  0  0  0  0  0  0  0  0  0
   -2.9129   -0.5583   -2.1315 H   0  0  0  0  0  0  0  0  0  0  0  0
  1  2  1  0
  2  3  1  0
  3  4  1  0
  3  5  1  0
  5  6  1  0
  6  7  1  0
  7  8  2  0
  7  9  1  0
  9 10  1  0
 10 11  1  0
 11 12  1  0
 12 13  1  0
 13 14  1  0
 14 15  2  0
 14 16  1  0
 16 17  1  0
 17 18  1  0
 18 19  2  0
 18 20  1  0
 20 21  1  0
 21 22  1  0
 22 23  2  0
 23 24  1  0
 24 25  2  0
 25 26  1  0
 26 27  2  0
 16 28  1  0
 28 29  2  0
 29 30  1  0
 30 31  2  0
 31 32  1  0
 32 33  2  0
 31 34  1  0
 34 35  3  0
  5 36  1  0
 36 37  1  0
 36 38  1  0
 36 39  1  0
 13  9  1  0
 27 22  1  0
 33 28  1  0
  1 40  1  0
  1 41  1  0
  1 42  1  0
  2 43  1  0
  2 44  1  0
  3 45  1  6
  4 46  1  0
  4 47  1  0
  4 48  1  0
  5 49  1  6
  6 50  1  0
  9 51  1  1
 10 52  1  0
 10 53  1  0
 11 54  1  0
 11 55  1  0
 12 56  1  0
 12 57  1  0
 16 58  1  6
 17 59  1  0
 21 60  1  0
 21 61  1  0
 23 62  1  0
 24 63  1  0
 25 64  1  0
 26 65  1  0
 27 66  1  0
 29 67  1  0
 30 68  1  0
 32 69  1  0
 33 70  1  0
 37 71  1  0
 37 72  1  0
 37 73  1  0
 38 74  1  0
 38 75  1  0
 38 76  1  0
 39 77  1  0
 39 78  1  0
 39 79  1  0
M  END
$$$$
[H]c1c([H])c([H])c(C([H])([H])C([H])([H])[C@@]([H])(C(=O)N([H])c2c([H])c([H])c([H])c(C(=O)N(C(=O)C([H])([H])[H])C([H])([H])C([H])([H])C([H])([H])C([H])([H])C([H])([H])[H])c2[H])N([H])C(=O)c2c([H])c([H])c([H])c(C(F)(F)F)c2[H])c(OC([H])([H])[H])c1[H]
     RDKit          3D

 80 82  0  0  0  0  0  0  0  0999 V2000
    8.5410    1.0140   -2.3447 C   0  0  0  0  0  0  0  0  0  0  0  0
    7.9187    0.6515   -0.9751 C   0  0  0  0  0  0  0  0  0  0  0  0
    8.3034   -0.7587   -0.7032 C   0  0  0  0  0  0  0  0  0  0  0  0
    7.9730   -1.4191    0.5284 C   0  0  0  0  0  0  0  0  0  0  0  0
    6.5414   -1.5065    1.0333 C   0  0  0  0  0  0  0  0  0  0  0  0
    5.9251   -0.2666    1.3681 N   0  0  0  0  0  0  0  0  0  0  0  0
    6.4727    0.3995    2.4775 C   0  0  0  0  0  0  0  0  0  0  0  0
    6.2204    1.7072    3.0055 C   0  0  0  0  0  0  0  0  0  0  0  0
    7.3960   -0.2933    3.1583 O   0  0  0  0  0  0  0  0  0  0  0  0
    4.6381    0.1987    1.0010 C   0  0  0  0  0  0  0  0  0  0  0  0
    4.4157    1.4472    1.1760 O   0  0  0  0  0  0  0  0  0  0  0  0
    3.5588   -0.5689    0.4623 C   0  0  0  0  0  0  0  0  0  0  0  0
    3.4995   -1.9290    0.3174 C   0  0  0  0  0  0  0  0  0  0  0  0
    2.4495   -2.5762   -0.2164 C   0  0  0  0  0  0  0  0  0  0  0  0
    1.3247   -1.8881   -0.6597 C   0  0  0  0  0  0  0  0  0  0  0  0
    1.3267   -0.4835   -0.5221 C   0  0  0  0  0  0  0  0  0  0  0  0
    0.0480    0.1381   -0.8770 N   0  0  0  0  0  0  0  0  0  0  0  0
   -1.1209   -0.4420   -0.3844 C   0  0  0  0  0  0  0  0  0  0  0  0
   -0.7859   -1.4742    0.4474 O   0  0  0  0  0  0  0  0  0  0  0  0
   -2.5085   -0.3275   -0.4865 C   0  0  2  0  0  0  0  0  0  0  0  0
   -3.3196    0.8672   -0.2113 C   0  0  0  0  0  0  0  0  0  0  0  0
   -3.3276    2.0746   -1.0838 C   0  0  0  0  0  0  0  0  0  0  0  0
   -4.2251    3.0940   -0.4168 C   0  0  0  0  0  0  0  0  0  0  0  0
   -4.7750    2.8531    0.8169 C   0  0  0  0  0  0  0  0  0  0  0  0
   -5.4558    3.7900    1.5689 C   0  0  0  0  0  0  0  0  0  0  0  0
   -5.5641    5.0360    1.0003 C   0  0  0  0  0  0  0  0  0  0  0  0
   -5.0119    5.3056   -0.2614 C   0  0  0  0  0  0  0  0  0  0  0  0
   -4.3469    4.3320   -0.9686 C   0  0  0  0  0  0  0  0  0  0  0  0
   -3.8299    4.5910   -2.2402 O   0  0  0  0  0  0  0  0  0  0  0  0
   -3.9682    5.9771   -2.7320 C   0  0  0  0  0  0  0  0  0  0  0  0
   -3.1974   -1.5088    0.1784 N   0  0  0  0  0  0  0  0  0  0  0  0
   -4.3724   -1.8444   -0.3636 C   0  0  0  0  0  0  0  0  0  0  0  0
   -4.7195   -1.0388   -1.4744 O   0  0  0  0  0  0  0  0  0  0  0  0
   -5.4375   -2.7536   -0.1943 C   0  0  0  0  0  0  0  0  0  0  0  0
   -6.7362   -2.4242   -0.6861 C   0  0  0  0  0  0  0  0  0  0  0  0
   -7.7830   -3.2895   -0.4403 C   0  0  0  0  0  0  0  0  0  0  0  0
   -7.6197   -4.4428    0.2545 C   0  0  0  0  0  0  0  0  0  0  0  0
   -6.3395   -4.7708    0.7398 C   0  0  0  0  0  0  0  0  0  0  0  0
   -5.2741   -3.9363    0.5140 C   0  0  0  0  0  0  0  0  0  0  0  0
   -6.1613   -6.0372    1.4724 C   0  0  0  0  0  0  0  0  0  0  0  0
   -6.8725   -7.0035    0.7818 F   0  0  0  0  0  0  0  0  0  0  0  0
   -4.8321   -6.4690    1.4761 F   0  0  0  0  0  0  0  0  0  0  0  0
   -6.6002   -5.8747    2.7504 F   0  0  0  0  0  0  0  0  0  0  0  0
    2.3712    0.1196   -0.0032 C   0  0  0  0  0  0  0  0  0  0  0  0
    9.6382    1.1943   -2.2042 H   0  0  0  0  0  0  0  0  0  0  0  0
    8.0383    1.9177   -2.6872 H   0  0  0  0  0  0  0  0  0  0  0  0
    8.3087    0.2113   -3.0514 H   0  0  0  0  0  0  0  0  0  0  0  0
    6.8428    0.8148   -1.1031 H   0  0  0  0  0  0  0  0  0  0  0  0
    8.4238    1.3171   -0.2495 H   0  0  0  0  0  0  0  0  0  0  0  0
    9.4672   -0.7413   -0.7576 H   0  0  0  0  0  0  0  0  0  0  0  0
    8.0636   -1.3739   -1.6323 H   0  0  0  0  0  0  0  0  0  0  0  0
    8.2191   -2.5473    0.3882 H   0  0  0  0  0  0  0  0  0  0  0  0
    8.6454   -1.1807    1.3922 H   0  0  0  0  0  0  0  0  0  0  0  0
    6.0067   -1.9638    0.1119 H   0  0  0  0  0  0  0  0  0  0  0  0
    6.4764   -2.2259    1.8096 H   0  0  0  0  0  0  0  0  0  0  0  0
    6.9264    1.9807    3.8357 H   0  0  0  0  0  0  0  0  0  0  0  0
    6.3627    2.5041    2.2194 H   0  0  0  0  0  0  0  0  0  0  0  0
    5.2052    1.8715    3.4059 H   0  0  0  0  0  0  0  0  0  0  0  0
    4.3055   -2.5718    0.7373 H   0  0  0  0  0  0  0  0  0  0  0  0
    2.4192   -3.7083   -0.3275 H   0  0  0  0  0  0  0  0  0  0  0  0
    0.4987   -2.3731   -1.1056 H   0  0  0  0  0  0  0  0  0  0  0  0
    0.0188    0.9938   -1.4534 H   0  0  0  0  0  0  0  0  0  0  0  0
   -2.8151   -0.5141   -1.6502 H   0  0  0  0  0  0  0  0  0  0  0  0
   -4.3760    0.5654    0.0234 H   0  0  0  0  0  0  0  0  0  0  0  0
   -2.9129    1.2982    0.8086 H   0  0  0  0  0  0  0  0  0  0  0  0
   -2.3558    2.5409   -1.2153 H   0  0  0  0  0  0  0  0  0  0  0  0
   -3.7479    1.7711   -2.0761 H   0  0  0  0  0  0  0  0  0  0  0  0
   -4.7366    1.8647    1.2847 H   0  0  0  0  0  0  0  0  0  0  0  0
   -5.8804    3.5701    2.5306 H   0  0  0  0  0  0  0  0  0  0  0  0
   -6.0924    5.8293    1.5378 H   0  0  0  0  0  0  0  0  0  0  0  0
   -5.1348    6.3332   -0.5786 H   0  0  0  0  0  0  0  0  0  0  0  0
   -3.1538    6.5648   -2.3027 H   0  0  0  0  0  0  0  0  0  0  0  0
   -4.9527    6.3725   -2.4480 H   0  0  0  0  0  0  0  0  0  0  0  0
   -3.8417    5.8742   -3.8043 H   0  0  0  0  0  0  0  0  0  0  0  0
   -2.6680   -1.8876    0.9651 H   0  0  0  0  0  0  0  0  0  0  0  0
   -6.8473   -1.5179   -1.2576 H   0  0  0  0  0  0  0  0  0  0  0  0
   -8.7634   -2.9705   -0.8592 H   0  0  0  0  0  0  0  0  0  0  0  0
   -8.4336   -5.1229    0.4511 H   0  0  0  0  0  0  0  0  0  0  0  0
   -4.2895   -4.1653    0.8672 H   0  0  0  0  0  0  0  0  0  0  0  0
    2.3960    1.2058    0.1118 H   0  0  0  0  0  0  0  0  0  0  0  0
  1  2  1  0
  2  3  1  0
  3  4  1  0
  4  5  1  0
  5  6  1  0
  6  7  1  0
  7  8  1  0
  7  9  2  0
  6 10  1  0
 10 11  2  0
 10 12  1  0
 12 13  2  0
 13 14  1  0
 14 15  2  0
 15 16  1  0
 16 17  1  0
 17 18  1  0
 18 19  2  0
 18 20  1  0
 20 21  1  0
 21 22  1  0
 22 23  1  0
 23 24  2  0
 24 25  1  0
 25 26  2  0
 26 27  1  0
 27 28  2  0
 28 29  1  0
 29 30  1  0
 20 31  1  0
 31 32  1  0
 32 33  2  0
 32 34  1  0
 34 35  2  0
 35 36  1  0
 36 37  2  0
 37 38  1  0
 38 39  2  0
 38 40  1  0
 40 41  1  0
 40 42  1  0
 40 43  1  0
 16 44  2  0
 44 12  1  0
 28 23  1  0
 39 34  1  0
  1 45  1  0
  1 46  1  0
  1 47  1  0
  2 48  1  0
  2 49  1  0
  3 50  1  0
  3 51  1  0
  4 52  1  0
  4 53  1  0
  5 54  1  0
  5 55  1  0
  8 56  1  0
  8 57  1  0
  8 58  1  0
 13 59  1  0
 14 60  1  0
 15 61  1  0
 17 62  1  0
 20 63  1  6
 21 64  1  0
 21 65  1  0
 22 66  1  0
 22 67  1  0
 24 68  1  0
 25 69  1  0
 26 70  1  0
 27 71  1  0
 30 72  1  0
 30 73  1  0
 30 74  1  0
 31 75  1  0
 35 76  1  0
 36 77  1  0
 37 78  1  0
 39 79  1  0
 44 80  1  0
M  END
$$$$
[H]OC(=O)c1oc2c([H])c([H])c(F)c([H])c2c1-c1c([H])c([H])c(C([H])([H])[C@@]2([H])O[C@]([H])(O[H])C2([H])[H])c([H])c1[H]
     RDKit          3D

 40 43  0  0  0  0  0  0  0  0999 V2000
    6.1016   -1.6238   -0.7026 O   0  0  0  0  0  0  0  0  0  0  0  0
    5.0436   -1.0865    0.0310 C   0  0  2  0  0  0  0  0  0  0  0  0
    4.1994   -0.0950   -0.7462 C   0  0  0  0  0  0  0  0  0  0  0  0
    4.1133    0.5204    0.6060 C   0  0  1  0  0  0  0  0  0  0  0  0
    3.0866    0.0379    1.5639 C   0  0  0  0  0  0  0  0  0  0  0  0
    1.7228    0.2197    1.0146 C   0  0  0  0  0  0  0  0  0  0  0  0
    0.9868    1.3834    1.2476 C   0  0  0  0  0  0  0  0  0  0  0  0
   -0.2892    1.5189    0.7409 C   0  0  0  0  0  0  0  0  0  0  0  0
   -0.8905    0.5409   -0.0022 C   0  0  0  0  0  0  0  0  0  0  0  0
   -0.1262   -0.6050   -0.2165 C   0  0  0  0  0  0  0  0  0  0  0  0
    1.1370   -0.7603    0.2758 C   0  0  0  0  0  0  0  0  0  0  0  0
   -2.2285    0.5915   -0.5273 C   0  0  0  0  0  0  0  0  0  0  0  0
   -2.8377    1.3678   -1.4760 C   0  0  0  0  0  0  0  0  0  0  0  0
   -2.1554    2.4182   -2.1981 C   0  0  0  0  0  0  0  0  0  0  0  0
   -0.8529    2.7743   -2.0611 O   0  0  0  0  0  0  0  0  0  0  0  0
   -2.8469    3.0769   -3.0497 O   0  0  0  0  0  0  0  0  0  0  0  0
   -4.0864    0.9970   -1.5982 O   0  0  0  0  0  0  0  0  0  0  0  0
   -4.3622   -0.0039   -0.7726 C   0  0  0  0  0  0  0  0  0  0  0  0
   -5.5307   -0.7046   -0.5605 C   0  0  0  0  0  0  0  0  0  0  0  0
   -5.5531   -1.7215    0.3720 C   0  0  0  0  0  0  0  0  0  0  0  0
   -4.3916   -2.0000    1.0639 C   0  0  0  0  0  0  0  0  0  0  0  0
   -4.3806   -2.9951    1.9854 F   0  0  0  0  0  0  0  0  0  0  0  0
   -3.2202   -1.3052    0.8588 C   0  0  0  0  0  0  0  0  0  0  0  0
   -3.2221   -0.2958   -0.0754 C   0  0  0  0  0  0  0  0  0  0  0  0
    5.3916   -0.0263    0.8710 O   0  0  0  0  0  0  0  0  0  0  0  0
    5.9311   -2.5881   -0.8473 H   0  0  0  0  0  0  0  0  0  0  0  0
    4.4762   -1.8588    0.5738 H   0  0  0  0  0  0  0  0  0  0  0  0
    4.8811    0.5115   -1.3911 H   0  0  0  0  0  0  0  0  0  0  0  0
    3.3079   -0.4787   -1.2297 H   0  0  0  0  0  0  0  0  0  0  0  0
    4.1969    1.6261    0.6333 H   0  0  0  0  0  0  0  0  0  0  0  0
    3.1937   -1.0172    1.8873 H   0  0  0  0  0  0  0  0  0  0  0  0
    3.1363    0.7254    2.4552 H   0  0  0  0  0  0  0  0  0  0  0  0
    1.4533    2.1636    1.8323 H   0  0  0  0  0  0  0  0  0  0  0  0
   -0.8174    2.4286    0.9443 H   0  0  0  0  0  0  0  0  0  0  0  0
   -0.5352   -1.4168   -0.7932 H   0  0  0  0  0  0  0  0  0  0  0  0
    1.7111   -1.6715    0.0920 H   0  0  0  0  0  0  0  0  0  0  0  0
   -0.5244    3.6324   -1.6374 H   0  0  0  0  0  0  0  0  0  0  0  0
   -6.4394   -0.4709   -1.1143 H   0  0  0  0  0  0  0  0  0  0  0  0
   -6.4708   -2.2975    0.5592 H   0  0  0  0  0  0  0  0  0  0  0  0
   -2.3087   -1.5119    1.3913 H   0  0  0  0  0  0  0  0  0  0  0  0
  1  2  1  0
  2  3  1  0
  3  4  1  0
  4  5  1  0
  5  6  1  0
  6  7  2  0
  7  8  1  0
  8  9  2  0
  9 10  1  0
 10 11  2  0
  9 12  1  0
 12 13  2  0
 13 14  1  0
 14 15  1  0
 14 16  2  0
 13 17  1  0
 17 18  1  0
 18 19  2  0
 19 20  1  0
 20 21  2  0
 21 22  1  0
 21 23  1  0
 23 24  2  0
  4 25  1  0
 25  2  1  0
 11  6  1  0
 24 12  1  0
 24 18  1  0
  1 26  1  0
  2 27  1  1
  3 28  1  0
  3 29  1  0
  4 30  1  6
  5 31  1  0
  5 32  1  0
  7 33  1  0
  8 34  1  0
 10 35  1  0
 11 36  1  0
 15 37  1  0
 19 38  1  0
 20 39  1  0
 23 40  1  0
M  END
$$$$
[H]c1nn(C(C(=O)OC([H])([H])[H])(C([H])([H])[H])C([H])([H])[H])c([H])c1N([H])C(=O)c1c([H])c(C#Cc2c([H])c([H])c([H])c([H])c2[H])c([H])c(O[C@@]([H])(C([H])([H])[H])C([H])([H])OC([H])([H])[H])c1[H]
     RDKit          3D

 64 66  0  0  0  0  0  0  0  0999 V2000
   -5.7867    4.7768   -1.2255 C   0  0  0  0  0  0  0  0  0  0  0  0
   -5.1594    3.6952   -0.5869 O   0  0  0  0  0  0  0  0  0  0  0  0
   -5.4042    3.8192    0.7592 C   0  0  0  0  0  0  0  0  0  0  0  0
   -4.7481    2.6716    1.5150 C   0  0  2  0  0  0  0  0  0  0  0  0
   -4.9924    2.9294    3.0160 C   0  0  0  0  0  0  0  0  0  0  0  0
   -3.3737    2.6376    1.3388 O   0  0  0  0  0  0  0  0  0  0  0  0
   -2.6556    1.5324    0.9327 C   0  0  0  0  0  0  0  0  0  0  0  0
   -1.2641    1.6265    0.7914 C   0  0  0  0  0  0  0  0  0  0  0  0
   -0.4525    0.5934    0.3949 C   0  0  0  0  0  0  0  0  0  0  0  0
   -1.0647   -0.6071    0.1226 C   0  0  0  0  0  0  0  0  0  0  0  0
   -2.4255   -0.7899    0.2344 C   0  0  0  0  0  0  0  0  0  0  0  0
   -3.1862    0.2960    0.6400 C   0  0  0  0  0  0  0  0  0  0  0  0
   -3.0165   -2.0630   -0.0616 C   0  0  0  0  0  0  0  0  0  0  0  0
   -3.5075   -3.1373   -0.3198 C   0  0  0  0  0  0  0  0  0  0  0  0
   -4.0752   -4.4192   -0.6324 C   0  0  0  0  0  0  0  0  0  0  0  0
   -4.5415   -4.7001   -1.8980 C   0  0  0  0  0  0  0  0  0  0  0  0
   -5.0952   -5.9440   -2.2116 C   0  0  0  0  0  0  0  0  0  0  0  0
   -5.1683   -6.8991   -1.2198 C   0  0  0  0  0  0  0  0  0  0  0  0
   -4.6965   -6.6074    0.0507 C   0  0  0  0  0  0  0  0  0  0  0  0
   -4.1487   -5.3835    0.3696 C   0  0  0  0  0  0  0  0  0  0  0  0
    0.9905    0.7528    0.2742 C   0  0  0  0  0  0  0  0  0  0  0  0
    1.4990    1.7489    0.8402 O   0  0  0  0  0  0  0  0  0  0  0  0
    1.7637   -0.1731   -0.4465 N   0  0  0  0  0  0  0  0  0  0  0  0
    3.1737   -0.1091   -0.6221 C   0  0  0  0  0  0  0  0  0  0  0  0
    3.9290   -1.0364   -1.3405 C   0  0  0  0  0  0  0  0  0  0  0  0
    5.1874   -0.6366   -1.2748 N   0  0  0  0  0  0  0  0  0  0  0  0
    5.3165    0.4712   -0.5755 N   0  0  0  0  0  0  0  0  0  0  0  0
    6.5597    1.2062   -0.2898 C   0  0  0  0  0  0  0  0  0  0  0  0
    6.5573    1.6836    1.1359 C   0  0  0  0  0  0  0  0  0  0  0  0
    6.6177    2.3461   -1.2516 C   0  0  0  0  0  0  0  0  0  0  0  0
    7.6724    0.2382   -0.4848 C   0  0  0  0  0  0  0  0  0  0  0  0
    8.5364    0.5144   -1.3543 O   0  0  0  0  0  0  0  0  0  0  0  0
    7.8009   -0.9246    0.2270 O   0  0  0  0  0  0  0  0  0  0  0  0
    8.8561   -1.8511    0.0481 C   0  0  0  0  0  0  0  0  0  0  0  0
    4.0781    0.8127   -0.1630 C   0  0  0  0  0  0  0  0  0  0  0  0
   -5.3363    5.7217   -0.8087 H   0  0  0  0  0  0  0  0  0  0  0  0
   -5.6126    4.7076   -2.3089 H   0  0  0  0  0  0  0  0  0  0  0  0
   -6.8783    4.7345   -1.0202 H   0  0  0  0  0  0  0  0  0  0  0  0
   -6.5045    3.7526    0.9463 H   0  0  0  0  0  0  0  0  0  0  0  0
   -5.0154    4.7477    1.2094 H   0  0  0  0  0  0  0  0  0  0  0  0
   -5.2034    1.7152    1.2939 H   0  0  0  0  0  0  0  0  0  0  0  0
   -5.1280    4.0266    3.1545 H   0  0  0  0  0  0  0  0  0  0  0  0
   -4.1505    2.5257    3.6151 H   0  0  0  0  0  0  0  0  0  0  0  0
   -5.9046    2.3712    3.3482 H   0  0  0  0  0  0  0  0  0  0  0  0
   -0.8273    2.5860    1.0156 H   0  0  0  0  0  0  0  0  0  0  0  0
   -0.4944   -1.4747   -0.1916 H   0  0  0  0  0  0  0  0  0  0  0  0
   -4.2586    0.1366    0.7236 H   0  0  0  0  0  0  0  0  0  0  0  0
   -4.5002   -3.9757   -2.6996 H   0  0  0  0  0  0  0  0  0  0  0  0
   -5.4530   -6.1351   -3.2143 H   0  0  0  0  0  0  0  0  0  0  0  0
   -5.5985   -7.8615   -1.4686 H   0  0  0  0  0  0  0  0  0  0  0  0
   -4.7817   -7.4080    0.7984 H   0  0  0  0  0  0  0  0  0  0  0  0
   -3.7865   -5.1628    1.3495 H   0  0  0  0  0  0  0  0  0  0  0  0
    1.2701   -0.9923   -0.9088 H   0  0  0  0  0  0  0  0  0  0  0  0
    3.5413   -1.9173   -1.8527 H   0  0  0  0  0  0  0  0  0  0  0  0
    6.4291    0.8307    1.8090 H   0  0  0  0  0  0  0  0  0  0  0  0
    5.7693    2.4651    1.2437 H   0  0  0  0  0  0  0  0  0  0  0  0
    7.5241    2.2135    1.3006 H   0  0  0  0  0  0  0  0  0  0  0  0
    7.6497    2.7148   -1.4421 H   0  0  0  0  0  0  0  0  0  0  0  0
    6.1317    2.0953   -2.2393 H   0  0  0  0  0  0  0  0  0  0  0  0
    6.0412    3.2082   -0.8537 H   0  0  0  0  0  0  0  0  0  0  0  0
    8.9530   -2.1974   -0.9991 H   0  0  0  0  0  0  0  0  0  0  0  0
    8.6516   -2.7468    0.6700 H   0  0  0  0  0  0  0  0  0  0  0  0
    9.8321   -1.4427    0.3579 H   0  0  0  0  0  0  0  0  0  0  0  0
    3.8647    1.6905    0.4397 H   0  0  0  0  0  0  0  0  0  0  0  0
  1  2  1  0
  2  3  1  0
  3  4  1  0
  4  5  1  0
  4  6  1  0
  6  7  1  0
  7  8  2  0
  8  9  1  0
  9 10  2  0
 10 11  1  0
 11 12  2  0
 11 13  1  0
 13 14  3  0
 14 15  1  0
 15 16  2  0
 16 17  1  0
 17 18  2  0
 18 19  1  0
 19 20  2  0
  9 21  1  0
 21 22  2  0
 21 23  1  0
 23 24  1  0
 24 25  1  0
 25 26  2  0
 26 27  1  0
 27 28  1  0
 28 29  1  0
 28 30  1  0
 28 31  1  0
 31 32  2  0
 31 33  1  0
 33 34  1  0
 27 35  1  0
 12  7  1  0
 20 15  1  0
 35 24  2  0
  1 36  1  0
  1 37  1  0
  1 38  1  0
  3 39  1  0
  3 40  1  0
  4 41  1  6
  5 42  1  0
  5 43  1  0
  5 44  1  0
  8 45  1  0
 10 46  1  0
 12 47  1  0
 16 48  1  0
 17 49  1  0
 18 50  1  0
 19 51  1  0
 20 52  1  0
 23 53  1  0
 25 54  1  0
 29 55  1  0
 29 56  1  0
 29 57  1  0
 30 58  1  0
 30 59  1  0
 30 60  1  0
 34 61  1  0
 34 62  1  0
 34 63  1  0
 35 64  1  0
M  END
$$$$
[H]c1nc(N2C([H])([H])C([H])([H])N([H])[C@]([H])(C([H])([H])[H])C2([H])[H])c2c(c1[H])c([H])c([H])n2[H]
     RDKit          3D

 32 34  0  0  0  0  0  0  0  0999 V2000
   -3.1732    1.6649    1.0761 C   0  0  0  0  0  0  0  0  0  0  0  0
   -2.4567    0.4461    0.5913 C   0  0  2  0  0  0  0  0  0  0  0  0
   -1.1252    0.7614   -0.0506 C   0  0  0  0  0  0  0  0  0  0  0  0
   -0.4436   -0.5006   -0.2470 N   0  0  0  0  0  0  0  0  0  0  0  0
   -1.1559   -1.5719   -0.8690 C   0  0  0  0  0  0  0  0  0  0  0  0
   -2.6061   -1.6116   -0.5091 C   0  0  0  0  0  0  0  0  0  0  0  0
   -3.2213   -0.3335   -0.3596 N   0  0  0  0  0  0  0  0  0  0  0  0
    0.8980   -0.6210    0.1844 C   0  0  0  0  0  0  0  0  0  0  0  0
    1.2599   -1.5335    1.1130 N   0  0  0  0  0  0  0  0  0  0  0  0
    2.5224   -1.6782    1.5486 C   0  0  0  0  0  0  0  0  0  0  0  0
    3.5263   -0.8870    1.0587 C   0  0  0  0  0  0  0  0  0  0  0  0
    3.2214    0.0628    0.1093 C   0  0  0  0  0  0  0  0  0  0  0  0
    4.0043    0.9830   -0.5528 C   0  0  0  0  0  0  0  0  0  0  0  0
    3.1471    1.6748   -1.3964 C   0  0  0  0  0  0  0  0  0  0  0  0
    1.9080    1.1756   -1.2321 N   0  0  0  0  0  0  0  0  0  0  0  0
    1.9126    0.1864   -0.3180 C   0  0  0  0  0  0  0  0  0  0  0  0
   -2.4104    2.3395    1.5381 H   0  0  0  0  0  0  0  0  0  0  0  0
   -3.7471    2.1930    0.3082 H   0  0  0  0  0  0  0  0  0  0  0  0
   -3.8662    1.3972    1.9180 H   0  0  0  0  0  0  0  0  0  0  0  0
   -2.2597   -0.2164    1.4612 H   0  0  0  0  0  0  0  0  0  0  0  0
   -1.2597    1.3279   -0.9965 H   0  0  0  0  0  0  0  0  0  0  0  0
   -0.5506    1.3831    0.6649 H   0  0  0  0  0  0  0  0  0  0  0  0
   -0.6936   -2.5314   -0.4963 H   0  0  0  0  0  0  0  0  0  0  0  0
   -0.9723   -1.5782   -1.9735 H   0  0  0  0  0  0  0  0  0  0  0  0
   -3.1603   -2.2147   -1.2594 H   0  0  0  0  0  0  0  0  0  0  0  0
   -2.7049   -2.1470    0.4755 H   0  0  0  0  0  0  0  0  0  0  0  0
   -3.3979    0.1670   -1.2550 H   0  0  0  0  0  0  0  0  0  0  0  0
    2.7593   -2.4309    2.2999 H   0  0  0  0  0  0  0  0  0  0  0  0
    4.5405   -1.0277    1.4312 H   0  0  0  0  0  0  0  0  0  0  0  0
    5.0693    1.1578   -0.4592 H   0  0  0  0  0  0  0  0  0  0  0  0
    3.4173    2.4831   -2.0778 H   0  0  0  0  0  0  0  0  0  0  0  0
    1.0184    1.4801   -1.7263 H   0  0  0  0  0  0  0  0  0  0  0  0
  1  2  1  0
  2  3  1  0
  3  4  1  0
  4  5  1  0
  5  6  1  0
  6  7  1  0
  4  8  1  0
  8  9  2  0
  9 10  1  0
 10 11  2  0
 11 12  1  0
 12 13  1  0
 13 14  2  0
 14 15  1  0
 15 16  1  0
  7  2  1  0
 16  8  1  0
 16 12  2  0
  1 17  1  0
  1 18  1  0
  1 19  1  0
  2 20  1  1
  3 21  1  0
  3 22  1  0
  5 23  1  0
  5 24  1  0
  6 25  1  0
  6 26  1  0
  7 27  1  0
 10 28  1  0
 11 29  1  0
 13 30  1  0
 14 31  1  0
 15 32  1  0
M  END
$$$$
[H]c1c([H])c([H])c2c(nc(C([H])([H])[H])n2C([H])([H])C([H])([H])Oc2c(OC([H])([H])[H])c([H])c3c(S(=O)(=O)N([H])[C@]4([H])C([H])([H])N(C(=O)C([H])([H])[H])C([H])([H])C4([H])[H])c([H])n(C([H])([H])[H])c3c2[H])c1[H]
     RDKit          3D

 68 72  0  0  0  0  0  0  0  0999 V2000
    0.5070   -2.2812   -3.9287 C   0  0  0  0  0  0  0  0  0  0  0  0
   -0.5375   -1.8306   -3.0882 O   0  0  0  0  0  0  0  0  0  0  0  0
   -0.3086   -0.7200   -2.2927 C   0  0  0  0  0  0  0  0  0  0  0  0
    0.9022   -0.0641   -2.3123 C   0  0  0  0  0  0  0  0  0  0  0  0
    1.0721    1.0518   -1.4857 C   0  0  0  0  0  0  0  0  0  0  0  0
    2.1321    1.9089   -1.2737 C   0  0  0  0  0  0  0  0  0  0  0  0
    1.7134    2.8206   -0.3447 C   0  0  0  0  0  0  0  0  0  0  0  0
    0.4459    2.5721    0.0308 N   0  0  0  0  0  0  0  0  0  0  0  0
   -0.3298    3.3422    1.0076 C   0  0  0  0  0  0  0  0  0  0  0  0
    0.0511    1.4854   -0.6698 C   0  0  0  0  0  0  0  0  0  0  0  0
   -1.1625    0.7817   -0.6878 C   0  0  0  0  0  0  0  0  0  0  0  0
   -1.3603   -0.3206   -1.4904 C   0  0  0  0  0  0  0  0  0  0  0  0
   -2.5083   -0.9868   -1.5060 O   0  0  0  0  0  0  0  0  0  0  0  0
   -3.7228   -0.9498   -0.9066 C   0  0  0  0  0  0  0  0  0  0  0  0
   -3.7790   -1.1278    0.5845 C   0  0  0  0  0  0  0  0  0  0  0  0
   -5.1561   -1.0628    1.0766 N   0  0  0  0  0  0  0  0  0  0  0  0
   -6.0358   -2.0684    1.2290 C   0  0  0  0  0  0  0  0  0  0  0  0
   -5.7182   -3.4771    0.9000 C   0  0  0  0  0  0  0  0  0  0  0  0
   -7.2115   -1.5749    1.7168 N   0  0  0  0  0  0  0  0  0  0  0  0
   -7.0784   -0.2462    1.8756 C   0  0  0  0  0  0  0  0  0  0  0  0
   -7.9140    0.7547    2.3229 C   0  0  0  0  0  0  0  0  0  0  0  0
   -7.4839    2.0631    2.3746 C   0  0  0  0  0  0  0  0  0  0  0  0
   -6.2068    2.3904    1.9783 C   0  0  0  0  0  0  0  0  0  0  0  0
   -5.3910    1.3734    1.5355 C   0  0  0  0  0  0  0  0  0  0  0  0
   -5.7849    0.0597    1.4702 C   0  0  0  0  0  0  0  0  0  0  0  0
    3.6601    1.7488   -2.0988 S   0  0  0  0  0  0  0  0  0  0  0  0
    3.4016    1.8050   -3.5843 O   0  0  0  0  0  0  0  0  0  0  0  0
    4.5895    2.8782   -1.7753 O   0  0  0  0  0  0  0  0  0  0  0  0
    4.3570    0.2141   -1.7420 N   0  0  0  0  0  0  0  0  0  0  0  0
    4.5923    0.1385   -0.3232 C   0  0  1  0  0  0  0  0  0  0  0  0
    3.9082   -1.0802    0.2874 C   0  0  0  0  0  0  0  0  0  0  0  0
    5.0262   -1.9186    0.8698 C   0  0  0  0  0  0  0  0  0  0  0  0
    6.0609   -0.9426    1.0845 N   0  0  0  0  0  0  0  0  0  0  0  0
    6.8943   -0.8521    2.2162 C   0  0  0  0  0  0  0  0  0  0  0  0
    7.9403    0.2086    2.3309 C   0  0  0  0  0  0  0  0  0  0  0  0
    6.7789   -1.6667    3.1653 O   0  0  0  0  0  0  0  0  0  0  0  0
    6.0875   -0.0787   -0.0663 C   0  0  0  0  0  0  0  0  0  0  0  0
    0.7068   -1.5060   -4.7133 H   0  0  0  0  0  0  0  0  0  0  0  0
    1.4709   -2.3948   -3.3791 H   0  0  0  0  0  0  0  0  0  0  0  0
    0.2721   -3.2698   -4.3586 H   0  0  0  0  0  0  0  0  0  0  0  0
    1.7246   -0.3760   -2.9394 H   0  0  0  0  0  0  0  0  0  0  0  0
    2.3318    3.6442    0.0410 H   0  0  0  0  0  0  0  0  0  0  0  0
   -1.2265    2.7618    1.3072 H   0  0  0  0  0  0  0  0  0  0  0  0
    0.3189    3.3830    1.9199 H   0  0  0  0  0  0  0  0  0  0  0  0
   -0.6079    4.3338    0.6301 H   0  0  0  0  0  0  0  0  0  0  0  0
   -1.9139    1.1865   -0.0282 H   0  0  0  0  0  0  0  0  0  0  0  0
   -4.1535    0.0852   -1.0952 H   0  0  0  0  0  0  0  0  0  0  0  0
   -4.5057   -1.6039   -1.3940 H   0  0  0  0  0  0  0  0  0  0  0  0
   -3.1456   -0.4272    1.1361 H   0  0  0  0  0  0  0  0  0  0  0  0
   -3.3837   -2.1489    0.8287 H   0  0  0  0  0  0  0  0  0  0  0  0
   -6.6294   -4.0463    0.6104 H   0  0  0  0  0  0  0  0  0  0  0  0
   -4.9475   -3.5189    0.1078 H   0  0  0  0  0  0  0  0  0  0  0  0
   -5.3062   -4.0220    1.7990 H   0  0  0  0  0  0  0  0  0  0  0  0
   -8.9250    0.5515    2.6453 H   0  0  0  0  0  0  0  0  0  0  0  0
   -8.1526    2.8627    2.7323 H   0  0  0  0  0  0  0  0  0  0  0  0
   -5.7950    3.3884    1.9885 H   0  0  0  0  0  0  0  0  0  0  0  0
   -4.3674    1.5805    1.2093 H   0  0  0  0  0  0  0  0  0  0  0  0
    5.1883    0.0200   -2.3234 H   0  0  0  0  0  0  0  0  0  0  0  0
    4.2909    1.0420    0.2266 H   0  0  0  0  0  0  0  0  0  0  0  0
    3.3613   -1.6309   -0.5160 H   0  0  0  0  0  0  0  0  0  0  0  0
    3.2386   -0.7778    1.1168 H   0  0  0  0  0  0  0  0  0  0  0  0
    5.3091   -2.6561    0.0654 H   0  0  0  0  0  0  0  0  0  0  0  0
    4.7225   -2.4409    1.7925 H   0  0  0  0  0  0  0  0  0  0  0  0
    8.8430   -0.2714    2.7808 H   0  0  0  0  0  0  0  0  0  0  0  0
    7.5439    0.9745    3.0100 H   0  0  0  0  0  0  0  0  0  0  0  0
    8.2014    0.5998    1.3313 H   0  0  0  0  0  0  0  0  0  0  0  0
    6.5558    0.9081    0.1365 H   0  0  0  0  0  0  0  0  0  0  0  0
    6.5487   -0.5791   -0.9490 H   0  0  0  0  0  0  0  0  0  0  0  0
  1  2  1  0
  2  3  1  0
  3  4  2  0
  4  5  1  0
  5  6  1  0
  6  7  2  0
  7  8  1  0
  8  9  1  0
  8 10  1  0
 10 11  1  0
 11 12  2  0
 12 13  1  0
 13 14  1  0
 14 15  1  0
 15 16  1  0
 16 17  1  0
 17 18  1  0
 17 19  2  0
 19 20  1  0
 20 21  2  0
 21 22  1  0
 22 23  2  0
 23 24  1  0
 24 25  2  0
  6 26  1  0
 26 27  2  0
 26 28  2  0
 26 29  1  0
 29 30  1  0
 30 31  1  0
 31 32  1  0
 32 33  1  0
 33 34  1  0
 34 35  1  0
 34 36  2  0
 33 37  1  0
 12  3  1  0
 25 16  1  0
 37 30  1  0
 10  5  2  0
 25 20  1  0
  1 38  1  0
  1 39  1  0
  1 40  1  0
  4 41  1  0
  7 42  1  0
  9 43  1  0
  9 44  1  0
  9 45  1  0
 11 46  1  0
 14 47  1  0
 14 48  1  0
 15 49  1  0
 15 50  1  0
 18 51  1  0
 18 52  1  0
 18 53  1  0
 21 54  1  0
 22 55  1  0
 23 56  1  0
 24 57  1  0
 29 58  1  0
 30 59  1  1
 31 60  1  0
 31 61  1  0
 32 62  1  0
 32 63  1  0
 35 64  1  0
 35 65  1  0
 35 66  1  0
 37 67  1  0
 37 68  1  0
M  END
$$$$
[H]c1c([H])c([H])c2c(c1[H])c1c3c(c4c5c([H])c([H])c([H])c([H])c5n5c4c1n2[C@@]1([H])O[C@]5(C([H])([H])[H])[C@@]([H])(OC([H])([H])[H])[C@@]([H])(N([H])C([H])([H])[H])C1([H])[H])C([H])([H])N([H])C3=O
     RDKit          3D

 61 68  0  0  0  0  0  0  0  0999 V2000
   -2.5900    1.1246    2.6909 C   0  0  0  0  0  0  0  0  0  0  0  0
   -2.2701    0.1494    1.6691 N   0  0  0  0  0  0  0  0  0  0  0  0
   -2.7037    0.7256    0.3894 C   0  0  1  0  0  0  0  0  0  0  0  0
   -1.9693    1.9591    0.0600 C   0  0  0  0  0  0  0  0  0  0  0  0
   -1.0374    1.8542   -1.1025 C   0  0  2  0  0  0  0  0  0  0  0  0
   -1.1108    0.8211   -1.8978 O   0  0  0  0  0  0  0  0  0  0  0  0
   -1.4719   -0.4453   -1.4993 C   0  0  2  0  0  0  0  0  0  0  0  0
   -1.8587   -1.0747   -2.8537 C   0  0  0  0  0  0  0  0  0  0  0  0
   -2.6627   -0.3659   -0.6565 C   0  0  1  0  0  0  0  0  0  0  0  0
   -3.0555   -1.5061    0.0270 O   0  0  0  0  0  0  0  0  0  0  0  0
   -4.3079   -1.9695   -0.2639 C   0  0  0  0  0  0  0  0  0  0  0  0
   -0.3020   -1.1026   -0.9411 N   0  0  0  0  0  0  0  0  0  0  0  0
   -0.0368   -2.4107   -0.8661 C   0  0  0  0  0  0  0  0  0  0  0  0
   -0.7505   -3.5118   -1.2342 C   0  0  0  0  0  0  0  0  0  0  0  0
   -0.2313   -4.7829   -1.0386 C   0  0  0  0  0  0  0  0  0  0  0  0
    1.0025   -5.0019   -0.4761 C   0  0  0  0  0  0  0  0  0  0  0  0
    1.7444   -3.8826   -0.0939 C   0  0  0  0  0  0  0  0  0  0  0  0
    1.2038   -2.6348   -0.3003 C   0  0  0  0  0  0  0  0  0  0  0  0
    1.7282   -1.3877   -0.0109 C   0  0  0  0  0  0  0  0  0  0  0  0
    2.9250   -0.9637    0.5498 C   0  0  0  0  0  0  0  0  0  0  0  0
    4.0703   -1.7821    1.0519 C   0  0  0  0  0  0  0  0  0  0  0  0
    5.0490   -0.8360    1.5052 N   0  0  0  0  0  0  0  0  0  0  0  0
    4.5511    0.4878    1.3292 C   0  0  0  0  0  0  0  0  0  0  0  0
    5.2116    1.4752    1.6612 O   0  0  0  0  0  0  0  0  0  0  0  0
    3.2325    0.3685    0.7340 C   0  0  0  0  0  0  0  0  0  0  0  0
    2.2736    1.2731    0.3281 C   0  0  0  0  0  0  0  0  0  0  0  0
    2.1943    2.6494    0.3519 C   0  0  0  0  0  0  0  0  0  0  0  0
    3.0346    3.6410    0.7719 C   0  0  0  0  0  0  0  0  0  0  0  0
    2.6237    4.9672    0.6424 C   0  0  0  0  0  0  0  0  0  0  0  0
    1.4040    5.3207    0.1079 C   0  0  0  0  0  0  0  0  0  0  0  0
    0.5569    4.3176   -0.3154 C   0  0  0  0  0  0  0  0  0  0  0  0
    0.9564    3.0255   -0.1896 C   0  0  0  0  0  0  0  0  0  0  0  0
    0.3179    1.9031   -0.5262 N   0  0  0  0  0  0  0  0  0  0  0  0
    1.0813    0.8475   -0.2300 C   0  0  0  0  0  0  0  0  0  0  0  0
    0.8029   -0.4946   -0.4048 C   0  0  0  0  0  0  0  0  0  0  0  0
   -1.7275    1.7656    2.9459 H   0  0  0  0  0  0  0  0  0  0  0  0
   -3.4000    1.7830    2.2910 H   0  0  0  0  0  0  0  0  0  0  0  0
   -3.0290    0.6437    3.5924 H   0  0  0  0  0  0  0  0  0  0  0  0
   -2.7602   -0.7186    1.9035 H   0  0  0  0  0  0  0  0  0  0  0  0
   -3.7998    0.9480    0.5957 H   0  0  0  0  0  0  0  0  0  0  0  0
   -1.4594    2.3204    1.0029 H   0  0  0  0  0  0  0  0  0  0  0  0
   -2.7065    2.7776   -0.1658 H   0  0  0  0  0  0  0  0  0  0  0  0
   -1.0912    2.7965   -1.7221 H   0  0  0  0  0  0  0  0  0  0  0  0
   -2.0056   -0.3257   -3.6573 H   0  0  0  0  0  0  0  0  0  0  0  0
   -1.0068   -1.6950   -3.1940 H   0  0  0  0  0  0  0  0  0  0  0  0
   -2.8277   -1.6039   -2.8044 H   0  0  0  0  0  0  0  0  0  0  0  0
   -3.5358   -0.1252   -1.3381 H   0  0  0  0  0  0  0  0  0  0  0  0
   -4.4650   -2.8889    0.3782 H   0  0  0  0  0  0  0  0  0  0  0  0
   -4.4865   -2.3125   -1.2897 H   0  0  0  0  0  0  0  0  0  0  0  0
   -5.1216   -1.2643    0.0633 H   0  0  0  0  0  0  0  0  0  0  0  0
   -1.7208   -3.3825   -1.6725 H   0  0  0  0  0  0  0  0  0  0  0  0
   -0.8491   -5.6109   -1.3524 H   0  0  0  0  0  0  0  0  0  0  0  0
    1.4213   -5.9802   -0.3168 H   0  0  0  0  0  0  0  0  0  0  0  0
    2.7206   -4.0420    0.3513 H   0  0  0  0  0  0  0  0  0  0  0  0
    3.7648   -2.4865    1.8473 H   0  0  0  0  0  0  0  0  0  0  0  0
    4.5351   -2.3717    0.2322 H   0  0  0  0  0  0  0  0  0  0  0  0
    5.9960   -1.0989    1.9084 H   0  0  0  0  0  0  0  0  0  0  0  0
    3.9823    3.4684    1.1903 H   0  0  0  0  0  0  0  0  0  0  0  0
    3.2909    5.7541    0.9750 H   0  0  0  0  0  0  0  0  0  0  0  0
    1.0902    6.3566    0.0099 H   0  0  0  0  0  0  0  0  0  0  0  0
   -0.4140    4.5350   -0.7434 H   0  0  0  0  0  0  0  0  0  0  0  0
  1  2  1  0
  2  3  1  0
  3  4  1  0
  4  5  1  0
  5  6  1  0
  6  7  1  0
  7  8  1  6
  7  9  1  0
  9 10  1  0
 10 11  1  0
  7 12  1  0
 12 13  1  0
 13 14  2  0
 14 15  1  0
 15 16  2  0
 16 17  1  0
 17 18  2  0
 18 19  1  0
 19 20  2  0
 20 21  1  0
 21 22  1  0
 22 23  1  0
 23 24  2  0
 23 25  1  0
 25 26  2  0
 26 27  1  0
 27 28  2  0
 28 29  1  0
 29 30  2  0
 30 31  1  0
 31 32  2  0
 32 33  1  0
 33 34  1  0
 34 35  2  0
  9  3  1  0
 35 12  1  0
 33  5  1  0
 18 13  1  0
 35 19  1  0
 25 20  1  0
 34 26  1  0
 32 27  1  0
  1 36  1  0
  1 37  1  0
  1 38  1  0
  2 39  1  0
  3 40  1  1
  4 41  1  0
  4 42  1  0
  5 43  1  6
  8 44  1  0
  8 45  1  0
  8 46  1  0
  9 47  1  6
 11 48  1  0
 11 49  1  0
 11 50  1  0
 14 51  1  0
 15 52  1  0
 16 53  1  0
 17 54  1  0
 21 55  1  0
 21 56  1  0
 22 57  1  0
 28 58  1  0
 29 59  1  0
 30 60  1  0
 31 61  1  0
M  END
$$$$
[H]OC([H])([H])[C@@]([H])(O[C@@]1([H])N([H])[C@@]([H])(n2c([H])c([H])c(=O)n([H])c2=O)[C@@]([H])(O[H])[C@@]1([H])O[H])[C@@]([H])(O[H])[C@@]1([H])O[C@]([H])(C(=O)N([H])[H])[C@]([H])(O[H])[C@]1([H])OC([H])([H])[H]
     RDKit          3D

 58 60  0  0  0  0  0  0  0  0999 V2000
   -4.0729    2.9890   -0.9386 C   0  0  0  0  0  0  0  0  0  0  0  0
   -3.9056    1.6936   -1.3978 O   0  0  0  0  0  0  0  0  0  0  0  0
   -3.8187    0.7856   -0.3219 C   0  0  1  0  0  0  0  0  0  0  0  0
   -5.1451   -0.0213   -0.3138 C   0  0  1  0  0  0  0  0  0  0  0  0
   -5.6073    0.0293   -1.6392 O   0  0  0  0  0  0  0  0  0  0  0  0
   -4.6302   -1.3889    0.0338 C   0  0  2  0  0  0  0  0  0  0  0  0
   -3.4856   -1.4745   -0.7576 O   0  0  0  0  0  0  0  0  0  0  0  0
   -2.8119   -0.2610   -0.5352 C   0  0  2  0  0  0  0  0  0  0  0  0
   -1.7031   -0.4230    0.4396 C   0  0  2  0  0  0  0  0  0  0  0  0
   -2.0180   -0.8390    1.7017 O   0  0  0  0  0  0  0  0  0  0  0  0
   -0.5870    0.5819    0.3395 C   0  0  1  0  0  0  0  0  0  0  0  0
   -0.7562    1.7910    1.2283 C   0  0  0  0  0  0  0  0  0  0  0  0
   -0.7823    1.3203    2.5628 O   0  0  0  0  0  0  0  0  0  0  0  0
    0.6361    0.0003    0.7930 O   0  0  0  0  0  0  0  0  0  0  0  0
    1.5884   -0.0307   -0.1941 C   0  0  1  0  0  0  0  0  0  0  0  0
    2.7999    0.6984    0.1411 N   0  0  0  0  0  0  0  0  0  0  0  0
    3.8605    0.0359   -0.5982 C   0  0  2  0  0  0  0  0  0  0  0  0
    3.5115   -1.4306   -0.5907 C   0  0  1  0  0  0  0  0  0  0  0  0
    4.0235   -2.0795    0.5329 O   0  0  0  0  0  0  0  0  0  0  0  0
    2.0045   -1.4229   -0.5517 C   0  0  1  0  0  0  0  0  0  0  0  0
    1.5379   -2.3719    0.3634 O   0  0  0  0  0  0  0  0  0  0  0  0
    5.1411    0.3291   -0.0083 N   0  0  0  0  0  0  0  0  0  0  0  0
    5.2442    0.4485    1.3296 C   0  0  0  0  0  0  0  0  0  0  0  0
    6.4908    0.7324    1.8459 C   0  0  0  0  0  0  0  0  0  0  0  0
    7.5721    0.8820    0.9926 C   0  0  0  0  0  0  0  0  0  0  0  0
    8.7223    1.1431    1.4422 O   0  0  0  0  0  0  0  0  0  0  0  0
    7.4386    0.7561   -0.3428 N   0  0  0  0  0  0  0  0  0  0  0  0
    6.2157    0.4792   -0.8297 C   0  0  0  0  0  0  0  0  0  0  0  0
    6.0994    0.3631   -2.0846 O   0  0  0  0  0  0  0  0  0  0  0  0
   -5.5905   -2.4695   -0.2795 C   0  0  0  0  0  0  0  0  0  0  0  0
   -6.8290   -2.6373    0.3605 N   0  0  0  0  0  0  0  0  0  0  0  0
   -5.2672   -3.2906   -1.1835 O   0  0  0  0  0  0  0  0  0  0  0  0
   -4.1536    3.7052   -1.7974 H   0  0  0  0  0  0  0  0  0  0  0  0
   -5.0135    3.0264   -0.3183 H   0  0  0  0  0  0  0  0  0  0  0  0
   -3.1763    3.3087   -0.3866 H   0  0  0  0  0  0  0  0  0  0  0  0
   -3.8442    1.3233    0.6199 H   0  0  0  0  0  0  0  0  0  0  0  0
   -5.8681    0.3946    0.3987 H   0  0  0  0  0  0  0  0  0  0  0  0
   -5.0169   -0.5918   -2.1725 H   0  0  0  0  0  0  0  0  0  0  0  0
   -4.3346   -1.3872    1.0916 H   0  0  0  0  0  0  0  0  0  0  0  0
   -2.3185   -0.0518   -1.5340 H   0  0  0  0  0  0  0  0  0  0  0  0
   -1.1689   -1.3935    0.0146 H   0  0  0  0  0  0  0  0  0  0  0  0
   -2.5918   -0.2787    2.2441 H   0  0  0  0  0  0  0  0  0  0  0  0
   -0.4105    0.8714   -0.7121 H   0  0  0  0  0  0  0  0  0  0  0  0
    0.1238    2.4402    1.0452 H   0  0  0  0  0  0  0  0  0  0  0  0
   -1.6516    2.3767    1.0701 H   0  0  0  0  0  0  0  0  0  0  0  0
    0.1336    0.9638    2.7410 H   0  0  0  0  0  0  0  0  0  0  0  0
    1.1386    0.4163   -1.1290 H   0  0  0  0  0  0  0  0  0  0  0  0
    2.6964    1.6669   -0.1736 H   0  0  0  0  0  0  0  0  0  0  0  0
    3.8378    0.3869   -1.6382 H   0  0  0  0  0  0  0  0  0  0  0  0
    3.9194   -1.9723   -1.4710 H   0  0  0  0  0  0  0  0  0  0  0  0
    3.8864   -3.0452    0.3967 H   0  0  0  0  0  0  0  0  0  0  0  0
    1.6601   -1.7295   -1.5686 H   0  0  0  0  0  0  0  0  0  0  0  0
    1.6082   -1.9945    1.2771 H   0  0  0  0  0  0  0  0  0  0  0  0
    4.3774    0.3257    1.9888 H   0  0  0  0  0  0  0  0  0  0  0  0
    6.6246    0.8365    2.9085 H   0  0  0  0  0  0  0  0  0  0  0  0
    8.2795    0.8744   -0.9571 H   0  0  0  0  0  0  0  0  0  0  0  0
   -7.2024   -3.5795    0.6025 H   0  0  0  0  0  0  0  0  0  0  0  0
   -7.4106   -1.8110    0.6120 H   0  0  0  0  0  0  0  0  0  0  0  0
  1  2  1  0
  2  3  1  0
  3  4  1  0
  4  5  1  0
  4  6  1  0
  6  7  1  0
  7  8  1  0
  8  9  1  0
  9 10  1  0
  9 11  1  0
 11 12  1  0
 12 13  1  0
 11 14  1  0
 14 15  1  0
 15 16  1  0
 16 17  1  0
 17 18  1  0
 18 19  1  0
 18 20  1  0
 20 21  1  0
 17 22  1  0
 22 23  1  0
 23 24  2  0
 24 25  1  0
 25 26  2  0
 25 27  1  0
 27 28  1  0
 28 29  2  0
  6 30  1  0
 30 31  1  0
 30 32  2  0
  8  3  1  0
 20 15  1  0
 28 22  1  0
  1 33  1  0
  1 34  1  0
  1 35  1  0
  3 36  1  1
  4 37  1  1
  5 38  1  0
  6 39  1  1
  8 40  1  6
  9 41  1  6
 10 42  1  0
 11 43  1  6
 12 44  1  0
 12 45  1  0
 13 46  1  0
 15 47  1  6
 16 48  1  0
 17 49  1  6
 18 50  1  6
 19 51  1  0
 20 52  1  6
 21 53  1  0
 23 54  1  0
 24 55  1  0
 27 56  1  0
 31 57  1  0
 31 58  1  0
M  END
$$$$
[H]OC(=O)[C@]1([H])C([H])([H])[C@]([H])(O[H])[C@]([H])(O[H])[C@]([H])(O[H])[C@]([H])(N([H])S(=O)(=O)c2c([H])c([H])c(-c3c([H])c(-c4c([H])c([H])c(C([H])([H])[H])c([H])c4[H])c(O[H])c(N([H])C(=O)N([H])S(=O)(=O)C4([H])C([H])([H])C([H])([H])C([H])([H])C4([H])[H])c3[H])c([H])c2[H])C1([H])[H]
     RDKit          3D

 88 92  0  0  0  0  0  0  0  0999 V2000
    3.3684   -7.9225    4.9046 C   0  0  0  0  0  0  0  0  0  0  0  0
    3.1646   -6.7731    3.9851 C   0  0  0  0  0  0  0  0  0  0  0  0
    3.5896   -5.5062    4.3679 C   0  0  0  0  0  0  0  0  0  0  0  0
    3.4148   -4.4053    3.5255 C   0  0  0  0  0  0  0  0  0  0  0  0
    2.8237   -4.5497    2.3097 C   0  0  0  0  0  0  0  0  0  0  0  0
    2.4105   -5.8191    1.9544 C   0  0  0  0  0  0  0  0  0  0  0  0
    2.5620   -6.9309    2.7510 C   0  0  0  0  0  0  0  0  0  0  0  0
    2.6030   -3.4479    1.3455 C   0  0  0  0  0  0  0  0  0  0  0  0
    1.3229   -3.2242    0.8622 C   0  0  0  0  0  0  0  0  0  0  0  0
    1.0194   -2.2167   -0.0090 C   0  0  0  0  0  0  0  0  0  0  0  0
    2.0551   -1.3848   -0.4219 C   0  0  0  0  0  0  0  0  0  0  0  0
    3.3468   -1.5599    0.0245 C   0  0  0  0  0  0  0  0  0  0  0  0
    4.4416   -0.7716   -0.3622 N   0  0  0  0  0  0  0  0  0  0  0  0
    4.4004    0.3318   -1.2099 C   0  0  0  0  0  0  0  0  0  0  0  0
    3.3761    0.7658   -1.7339 O   0  0  0  0  0  0  0  0  0  0  0  0
    5.6499    1.0113   -1.4932 N   0  0  0  0  0  0  0  0  0  0  0  0
    5.7324    2.3727   -2.5166 S   0  0  0  0  0  0  0  0  0  0  0  0
    7.1191    2.5650   -3.0377 O   0  0  0  0  0  0  0  0  0  0  0  0
    4.8463    2.0688   -3.7182 O   0  0  0  0  0  0  0  0  0  0  0  0
    5.1091    3.8519   -1.7636 C   0  0  0  0  0  0  0  0  0  0  0  0
    6.0066    4.1749   -0.5836 C   0  0  0  0  0  0  0  0  0  0  0  0
    6.5292    5.5593   -0.7901 C   0  0  0  0  0  0  0  0  0  0  0  0
    6.5715    5.7039   -2.2842 C   0  0  0  0  0  0  0  0  0  0  0  0
    5.3077    4.9930   -2.7282 C   0  0  0  0  0  0  0  0  0  0  0  0
    3.6043   -2.6223    0.9286 C   0  0  0  0  0  0  0  0  0  0  0  0
    4.8885   -2.8031    1.3731 O   0  0  0  0  0  0  0  0  0  0  0  0
   -0.3455   -1.9921   -0.5103 C   0  0  0  0  0  0  0  0  0  0  0  0
   -1.4488   -2.2830    0.2621 C   0  0  0  0  0  0  0  0  0  0  0  0
   -2.7415   -2.0749   -0.1894 C   0  0  0  0  0  0  0  0  0  0  0  0
   -2.9804   -1.5594   -1.4520 C   0  0  0  0  0  0  0  0  0  0  0  0
   -1.8651   -1.2737   -2.2126 C   0  0  0  0  0  0  0  0  0  0  0  0
   -0.5730   -1.4777   -1.7710 C   0  0  0  0  0  0  0  0  0  0  0  0
   -4.5989   -1.2834   -2.0472 S   0  0  0  0  0  0  0  0  0  0  0  0
   -4.6352   -1.4129   -3.5658 O   0  0  0  0  0  0  0  0  0  0  0  0
   -5.5810   -2.3144   -1.5486 O   0  0  0  0  0  0  0  0  0  0  0  0
   -5.1655    0.3184   -1.7123 N   0  0  0  0  0  0  0  0  0  0  0  0
   -5.2377    0.6144   -0.2998 C   0  0  2  0  0  0  0  0  0  0  0  0
   -6.5972    0.6827    0.2782 C   0  0  0  0  0  0  0  0  0  0  0  0
   -7.5722    1.6816   -0.1615 C   0  0  1  0  0  0  0  0  0  0  0  0
   -7.2328    3.1185    0.0580 C   0  0  0  0  0  0  0  0  0  0  0  0
   -5.8734    3.5631   -0.3616 C   0  0  2  0  0  0  0  0  0  0  0  0
   -5.6278    3.5247   -1.7115 O   0  0  0  0  0  0  0  0  0  0  0  0
   -4.8221    2.9753    0.5137 C   0  0  2  0  0  0  0  0  0  0  0  0
   -3.7360    3.8867    0.5398 O   0  0  0  0  0  0  0  0  0  0  0  0
   -4.2689    1.6619    0.1125 C   0  0  2  0  0  0  0  0  0  0  0  0
   -3.3139    1.8180   -0.9072 O   0  0  0  0  0  0  0  0  0  0  0  0
   -8.2646    1.4315   -1.4422 C   0  0  0  0  0  0  0  0  0  0  0  0
   -9.1093    2.3936   -1.9392 O   0  0  0  0  0  0  0  0  0  0  0  0
   -8.0925    0.3764   -2.0616 O   0  0  0  0  0  0  0  0  0  0  0  0
    4.0702   -8.6473    4.4558 H   0  0  0  0  0  0  0  0  0  0  0  0
    2.3952   -8.4358    5.0384 H   0  0  0  0  0  0  0  0  0  0  0  0
    3.7898   -7.5645    5.8555 H   0  0  0  0  0  0  0  0  0  0  0  0
    4.0629   -5.3375    5.3180 H   0  0  0  0  0  0  0  0  0  0  0  0
    3.7408   -3.4179    3.8178 H   0  0  0  0  0  0  0  0  0  0  0  0
    1.9334   -5.9867    0.9914 H   0  0  0  0  0  0  0  0  0  0  0  0
    2.2271   -7.9201    2.4458 H   0  0  0  0  0  0  0  0  0  0  0  0
    0.5249   -3.8808    1.1925 H   0  0  0  0  0  0  0  0  0  0  0  0
    1.7858   -0.6173   -1.0959 H   0  0  0  0  0  0  0  0  0  0  0  0
    5.4004   -1.0613    0.0415 H   0  0  0  0  0  0  0  0  0  0  0  0
    6.5421    0.6745   -1.0703 H   0  0  0  0  0  0  0  0  0  0  0  0
    4.0604    3.7848   -1.4900 H   0  0  0  0  0  0  0  0  0  0  0  0
    5.4531    4.1458    0.3739 H   0  0  0  0  0  0  0  0  0  0  0  0
    6.8679    3.4772   -0.5063 H   0  0  0  0  0  0  0  0  0  0  0  0
    7.4925    5.7503   -0.3061 H   0  0  0  0  0  0  0  0  0  0  0  0
    5.7925    6.2654   -0.3232 H   0  0  0  0  0  0  0  0  0  0  0  0
    7.4849    5.2528   -2.6878 H   0  0  0  0  0  0  0  0  0  0  0  0
    6.5149    6.7914   -2.5723 H   0  0  0  0  0  0  0  0  0  0  0  0
    5.5424    4.6038   -3.7627 H   0  0  0  0  0  0  0  0  0  0  0  0
    4.4580    5.6704   -2.8198 H   0  0  0  0  0  0  0  0  0  0  0  0
    5.2542   -3.4831    1.9699 H   0  0  0  0  0  0  0  0  0  0  0  0
   -1.2335   -2.6922    1.2616 H   0  0  0  0  0  0  0  0  0  0  0  0
   -3.5495   -2.3343    0.4794 H   0  0  0  0  0  0  0  0  0  0  0  0
   -2.0485   -0.8629   -3.2181 H   0  0  0  0  0  0  0  0  0  0  0  0
    0.2723   -1.2398   -2.4029 H   0  0  0  0  0  0  0  0  0  0  0  0
   -4.5275    0.9455   -2.2523 H   0  0  0  0  0  0  0  0  0  0  0  0
   -4.8213   -0.3552    0.1682 H   0  0  0  0  0  0  0  0  0  0  0  0
   -7.0686   -0.3379    0.1465 H   0  0  0  0  0  0  0  0  0  0  0  0
   -6.4866    0.7708    1.3817 H   0  0  0  0  0  0  0  0  0  0  0  0
   -8.4493    1.5363    0.5934 H   0  0  0  0  0  0  0  0  0  0  0  0
   -8.0168    3.7363   -0.3955 H   0  0  0  0  0  0  0  0  0  0  0  0
   -7.2849    3.3088    1.1718 H   0  0  0  0  0  0  0  0  0  0  0  0
   -5.8589    4.6774   -0.1128 H   0  0  0  0  0  0  0  0  0  0  0  0
   -6.3859    3.3212   -2.2833 H   0  0  0  0  0  0  0  0  0  0  0  0
   -5.2101    2.9726    1.5537 H   0  0  0  0  0  0  0  0  0  0  0  0
   -4.1526    4.7595    0.8057 H   0  0  0  0  0  0  0  0  0  0  0  0
   -3.6342    1.3219    0.9934 H   0  0  0  0  0  0  0  0  0  0  0  0
   -2.4261    2.1002   -0.5386 H   0  0  0  0  0  0  0  0  0  0  0  0
  -10.0920    2.4713   -1.7615 H   0  0  0  0  0  0  0  0  0  0  0  0
  1  2  1  0
  2  3  2  0
  3  4  1  0
  4  5  2  0
  5  6  1  0
  6  7  2  0
  5  8  1  0
  8  9  2  0
  9 10  1  0
 10 11  2  0
 11 12  1  0
 12 13  1  0
 13 14  1  0
 14 15  2  0
 14 16  1  0
 16 17  1  0
 17 18  2  0
 17 19  2  0
 17 20  1  0
 20 21  1  0
 21 22  1  0
 22 23  1  0
 23 24  1  0
 12 25  2  0
 25 26  1  0
 10 27  1  0
 27 28  2  0
 28 29  1  0
 29 30  2  0
 30 31  1  0
 31 32  2  0
 30 33  1  0
 33 34  2  0
 33 35  2  0
 33 36  1  0
 36 37  1  0
 37 38  1  0
 38 39  1  0
 39 40  1  0
 40 41  1  0
 41 42  1  0
 41 43  1  0
 43 44  1  0
 43 45  1  0
 45 46  1  0
 39 47  1  0
 47 48  1  0
 47 49  2  0
  7  2  1  0
 25  8  1  0
 32 27  1  0
 45 37  1  0
 24 20  1  0
  1 50  1  0
  1 51  1  0
  1 52  1  0
  3 53  1  0
  4 54  1  0
  6 55  1  0
  7 56  1  0
  9 57  1  0
 11 58  1  0
 13 59  1  0
 16 60  1  0
 20 61  1  0
 21 62  1  0
 21 63  1  0
 22 64  1  0
 22 65  1  0
 23 66  1  0
 23 67  1  0
 24 68  1  0
 24 69  1  0
 26 70  1  0
 28 71  1  0
 29 72  1  0
 31 73  1  0
 32 74  1  0
 36 75  1  0
 37 76  1  1
 38 77  1  0
 38 78  1  0
 39 79  1  1
 40 80  1  0
 40 81  1  0
 41 82  1  1
 42 83  1  0
 43 84  1  1
 44 85  1  0
 45 86  1  1
 46 87  1  0
 48 88  1  0
M  END
$$$$
[H]OC([H])([H])[C@@]1([H])OC([H])([H])[C@@]2([H])[C@]([H])(O[C@]([H])(OC([H])([H])c3c([H])c([H])c([H])c([H])c3[H])[C@@]1([H])O[H])[C@]([H])(O[H])[C@]([H])(O[H])[C@]2([H])O[H]
     RDKit          3D

 49 51  0  0  0  0  0  0  0  0999 V2000
   -0.6526    4.3504    1.5039 O   0  0  0  0  0  0  0  0  0  0  0  0
   -1.6392    3.8255    0.6787 C   0  0  0  0  0  0  0  0  0  0  0  0
   -1.3200    2.3728    0.3007 C   0  0  2  0  0  0  0  0  0  0  0  0
    0.0126    2.3755   -0.3647 C   0  0  2  0  0  0  0  0  0  0  0  0
    0.0749    3.4709   -1.2461 O   0  0  0  0  0  0  0  0  0  0  0  0
    0.3430    1.0877   -1.0770 C   0  0  1  0  0  0  0  0  0  0  0  0
    1.1970    0.3300   -0.2761 O   0  0  0  0  0  0  0  0  0  0  0  0
    2.3942    0.1752   -0.9433 C   0  0  0  0  0  0  0  0  0  0  0  0
    3.3896   -0.6085   -0.2059 C   0  0  0  0  0  0  0  0  0  0  0  0
    4.2843   -0.0058    0.6554 C   0  0  0  0  0  0  0  0  0  0  0  0
    5.2304   -0.7363    1.3584 C   0  0  0  0  0  0  0  0  0  0  0  0
    5.3029   -2.1021    1.2133 C   0  0  0  0  0  0  0  0  0  0  0  0
    4.4232   -2.7243    0.3619 C   0  0  0  0  0  0  0  0  0  0  0  0
    3.4762   -1.9808   -0.3399 C   0  0  0  0  0  0  0  0  0  0  0  0
   -0.7904    0.3571   -1.4215 O   0  0  0  0  0  0  0  0  0  0  0  0
   -1.2324   -0.4877   -0.4420 C   0  0  2  0  0  0  0  0  0  0  0  0
   -1.1725   -1.9484   -0.8109 C   0  0  2  0  0  0  0  0  0  0  0  0
   -1.7379   -2.1330   -2.0790 O   0  0  0  0  0  0  0  0  0  0  0  0
   -2.1294   -2.5688    0.1859 C   0  0  2  0  0  0  0  0  0  0  0  0
   -2.9800   -3.4967   -0.4531 O   0  0  0  0  0  0  0  0  0  0  0  0
   -3.0263   -1.4508    0.6730 C   0  0  2  0  0  0  0  0  0  0  0  0
   -4.3580   -1.8170    0.7374 O   0  0  0  0  0  0  0  0  0  0  0  0
   -2.7549   -0.3443   -0.2886 C   0  0  1  0  0  0  0  0  0  0  0  0
   -3.1280    1.0151    0.1995 C   0  0  0  0  0  0  0  0  0  0  0  0
   -2.3520    1.9453   -0.5142 O   0  0  0  0  0  0  0  0  0  0  0  0
   -0.2904    3.6904    2.1436 H   0  0  0  0  0  0  0  0  0  0  0  0
   -1.6977    4.4739   -0.2101 H   0  0  0  0  0  0  0  0  0  0  0  0
   -2.6040    3.8995    1.2126 H   0  0  0  0  0  0  0  0  0  0  0  0
   -1.3246    1.8218    1.2785 H   0  0  0  0  0  0  0  0  0  0  0  0
    0.7864    2.5598    0.4017 H   0  0  0  0  0  0  0  0  0  0  0  0
    0.9657    3.5079   -1.6490 H   0  0  0  0  0  0  0  0  0  0  0  0
    0.8377    1.3673   -2.0307 H   0  0  0  0  0  0  0  0  0  0  0  0
    2.1466   -0.2783   -1.9469 H   0  0  0  0  0  0  0  0  0  0  0  0
    2.7581    1.2129   -1.1929 H   0  0  0  0  0  0  0  0  0  0  0  0
    4.2465    1.0753    0.7872 H   0  0  0  0  0  0  0  0  0  0  0  0
    5.9111   -0.2121    2.0236 H   0  0  0  0  0  0  0  0  0  0  0  0
    6.0335   -2.6988    1.7511 H   0  0  0  0  0  0  0  0  0  0  0  0
    4.4984   -3.8021    0.2629 H   0  0  0  0  0  0  0  0  0  0  0  0
    2.8036   -2.5246   -1.0012 H   0  0  0  0  0  0  0  0  0  0  0  0
   -0.7203   -0.3791    0.5335 H   0  0  0  0  0  0  0  0  0  0  0  0
   -0.1565   -2.3770   -0.7404 H   0  0  0  0  0  0  0  0  0  0  0  0
   -1.8691   -3.0937   -2.2717 H   0  0  0  0  0  0  0  0  0  0  0  0
   -1.5714   -3.0510    1.0091 H   0  0  0  0  0  0  0  0  0  0  0  0
   -3.7195   -3.6632    0.1848 H   0  0  0  0  0  0  0  0  0  0  0  0
   -2.6333   -1.1283    1.6735 H   0  0  0  0  0  0  0  0  0  0  0  0
   -4.8967   -1.0238    0.4709 H   0  0  0  0  0  0  0  0  0  0  0  0
   -3.1827   -0.5981   -1.2641 H   0  0  0  0  0  0  0  0  0  0  0  0
   -2.9919    1.1032    1.2870 H   0  0  0  0  0  0  0  0  0  0  0  0
   -4.1841    1.2171   -0.1188 H   0  0  0  0  0  0  0  0  0  0  0  0
  1  2  1  0
  2  3  1  0
  3  4  1  0
  4  5  1  0
  4  6  1  0
  6  7  1  0
  7  8  1  0
  8  9  1  0
  9 10  2  0
 10 11  1  0
 11 12  2  0
 12 13  1  0
 13 14  2  0
  6 15  1  0
 15 16  1  0
 16 17  1  0
 17 18  1  0
 17 19  1  0
 19 20  1  0
 19 21  1  0
 21 22  1  0
 21 23  1  0
 23 24  1  0
 24 25  1  0
 25  3  1  0
 14  9  1  0
 23 16  1  0
  1 26  1  0
  2 27  1  0
  2 28  1  0
  3 29  1  1
  4 30  1  1
  5 31  1  0
  6 32  1  6
  8 33  1  0
  8 34  1  0
 10 35  1  0
 11 36  1  0
 12 37  1  0
 13 38  1  0
 14 39  1  0
 16 40  1  1
 17 41  1  6
 18 42  1  0
 19 43  1  1
 20 44  1  0
 21 45  1  1
 22 46  1  0
 23 47  1  6
 24 48  1  0
 24 49  1  0
M  END
$$$$
[H]c1c([H])c([H])c(C2(C([H])([H])OC([H])([H])c3c([H])c(C(F)(F)F)c([H])c(C(F)(F)F)c3[H])C([H])([H])C([H])([H])N([H])C([H])([H])C2([H])[H])c([H])c1[H]
     RDKit          3D

 50 52  0  0  0  0  0  0  0  0999 V2000
    5.9884   -2.9905    1.1605 F   0  0  0  0  0  0  0  0  0  0  0  0
    4.7614   -3.0370    0.5277 C   0  0  0  0  0  0  0  0  0  0  0  0
    3.8598   -3.7521    1.3216 F   0  0  0  0  0  0  0  0  0  0  0  0
    4.8863   -3.6203   -0.7103 F   0  0  0  0  0  0  0  0  0  0  0  0
    4.2735   -1.6405    0.3191 C   0  0  0  0  0  0  0  0  0  0  0  0
    3.0768   -1.3844   -0.3115 C   0  0  0  0  0  0  0  0  0  0  0  0
    2.6151   -0.0979   -0.5211 C   0  0  0  0  0  0  0  0  0  0  0  0
    1.3469    0.1277   -1.2000 C   0  0  0  0  0  0  0  0  0  0  0  0
    0.2457    0.1559   -0.3127 O   0  0  0  0  0  0  0  0  0  0  0  0
   -0.8584    0.3640   -1.0721 C   0  0  0  0  0  0  0  0  0  0  0  0
   -2.1676    0.4235   -0.3783 C   0  0  0  0  0  0  0  0  0  0  0  0
   -2.2109    1.5261    0.6679 C   0  0  0  0  0  0  0  0  0  0  0  0
   -1.9179    2.8650    0.0194 C   0  0  0  0  0  0  0  0  0  0  0  0
   -2.6124    3.0660   -1.2256 N   0  0  0  0  0  0  0  0  0  0  0  0
   -3.7616    2.1649   -1.2479 C   0  0  0  0  0  0  0  0  0  0  0  0
   -3.2068    0.7735   -1.4778 C   0  0  0  0  0  0  0  0  0  0  0  0
   -2.6628   -0.8135    0.2394 C   0  0  0  0  0  0  0  0  0  0  0  0
   -4.0474   -0.8905    0.5251 C   0  0  0  0  0  0  0  0  0  0  0  0
   -4.5780   -2.0268    1.0878 C   0  0  0  0  0  0  0  0  0  0  0  0
   -3.7513   -3.0901    1.3698 C   0  0  0  0  0  0  0  0  0  0  0  0
   -2.3811   -3.0610    1.1031 C   0  0  0  0  0  0  0  0  0  0  0  0
   -1.8803   -1.9074    0.5392 C   0  0  0  0  0  0  0  0  0  0  0  0
    3.4303    0.9543   -0.0489 C   0  0  0  0  0  0  0  0  0  0  0  0
    4.6308    0.6883    0.5855 C   0  0  0  0  0  0  0  0  0  0  0  0
    5.0625   -0.6082    0.7760 C   0  0  0  0  0  0  0  0  0  0  0  0
    5.4598    1.8307    1.0643 C   0  0  0  0  0  0  0  0  0  0  0  0
    6.8004    1.6320    0.8548 F   0  0  0  0  0  0  0  0  0  0  0  0
    5.2241    2.0604    2.4029 F   0  0  0  0  0  0  0  0  0  0  0  0
    5.1173    2.9940    0.3355 F   0  0  0  0  0  0  0  0  0  0  0  0
    2.4702   -2.1999   -0.6562 H   0  0  0  0  0  0  0  0  0  0  0  0
    1.1490   -0.6860   -1.9273 H   0  0  0  0  0  0  0  0  0  0  0  0
    1.4079    1.0938   -1.7446 H   0  0  0  0  0  0  0  0  0  0  0  0
   -0.7302    1.3456   -1.6248 H   0  0  0  0  0  0  0  0  0  0  0  0
   -0.9742   -0.3855   -1.9099 H   0  0  0  0  0  0  0  0  0  0  0  0
   -3.1966    1.5292    1.1626 H   0  0  0  0  0  0  0  0  0  0  0  0
   -1.4318    1.3192    1.4185 H   0  0  0  0  0  0  0  0  0  0  0  0
   -0.8170    2.9702   -0.1192 H   0  0  0  0  0  0  0  0  0  0  0  0
   -2.2091    3.6470    0.7379 H   0  0  0  0  0  0  0  0  0  0  0  0
   -2.9394    4.0086   -1.4103 H   0  0  0  0  0  0  0  0  0  0  0  0
   -4.3318    2.2678   -0.3317 H   0  0  0  0  0  0  0  0  0  0  0  0
   -4.4249    2.3512   -2.1330 H   0  0  0  0  0  0  0  0  0  0  0  0
   -4.0096    0.0165   -1.5598 H   0  0  0  0  0  0  0  0  0  0  0  0
   -2.7420    0.8303   -2.4951 H   0  0  0  0  0  0  0  0  0  0  0  0
   -4.7346   -0.0798    0.3269 H   0  0  0  0  0  0  0  0  0  0  0  0
   -5.6438   -2.1016    1.3337 H   0  0  0  0  0  0  0  0  0  0  0  0
   -4.1537   -3.9839    1.8315 H   0  0  0  0  0  0  0  0  0  0  0  0
   -1.7222   -3.8751    1.3292 H   0  0  0  0  0  0  0  0  0  0  0  0
   -0.7928   -1.9169    0.3333 H   0  0  0  0  0  0  0  0  0  0  0  0
    3.0530    1.9358   -0.2283 H   0  0  0  0  0  0  0  0  0  0  0  0
    6.0311   -0.7928    1.2732 H   0  0  0  0  0  0  0  0  0  0  0  0
  1  2  1  0
  2  3  1  0
  2  4  1  0
  2  5  1  0
  5  6  2  0
  6  7  1  0
  7  8  1  0
  8  9  1  0
  9 10  1  0
 10 11  1  0
 11 12  1  0
 12 13  1  0
 13 14  1  0
 14 15  1  0
 15 16  1  0
 11 17  1  0
 17 18  2  0
 18 19  1  0
 19 20  2  0
 20 21  1  0
 21 22  2  0
  7 23  2  0
 23 24  1  0
 24 25  2  0
 24 26  1  0
 26 27  1  0
 26 28  1  0
 26 29  1  0
 25  5  1  0
 16 11  1  0
 22 17  1  0
  6 30  1  0
  8 31  1  0
  8 32  1  0
 10 33  1  0
 10 34  1  0
 12 35  1  0
 12 36  1  0
 13 37  1  0
 13 38  1  0
 14 39  1  0
 15 40  1  0
 15 41  1  0
 16 42  1  0
 16 43  1  0
 18 44  1  0
 19 45  1  0
 20 46  1  0
 21 47  1  0
 22 48  1  0
 23 49  1  0
 25 50  1  0
M  END
$$$$
[H]c1c([H])c(S(=O)(=O)N2C([H])([H])C([H])([H])C(C(=O)C(=O)N([H])C([H])([H])[H])(C([H])([H])C(F)(F)F)C([H])([H])C2([H])[H])c(F)c(C(=O)N([H])C([H])([H])[H])c1F
     RDKit          3D

 52 53  0  0  0  0  0  0  0  0999 V2000
   -6.0178    2.3537    1.4714 C   0  0  0  0  0  0  0  0  0  0  0  0
   -5.3398    1.9463    0.2663 N   0  0  0  0  0  0  0  0  0  0  0  0
   -4.4209    0.8516    0.3466 C   0  0  0  0  0  0  0  0  0  0  0  0
   -4.2721    0.3247    1.4641 O   0  0  0  0  0  0  0  0  0  0  0  0
   -3.7239    0.4104   -0.8226 C   0  0  0  0  0  0  0  0  0  0  0  0
   -3.9159    1.1403   -1.8899 O   0  0  0  0  0  0  0  0  0  0  0  0
   -2.8321   -0.7295   -1.0319 C   0  0  0  0  0  0  0  0  0  0  0  0
   -3.5520   -1.9952   -1.2010 C   0  0  0  0  0  0  0  0  0  0  0  0
   -4.4442   -2.6275   -0.2709 C   0  0  0  0  0  0  0  0  0  0  0  0
   -4.0397   -2.9799    0.9711 F   0  0  0  0  0  0  0  0  0  0  0  0
   -5.7068   -2.0797   -0.2127 F   0  0  0  0  0  0  0  0  0  0  0  0
   -4.7296   -3.9193   -0.8694 F   0  0  0  0  0  0  0  0  0  0  0  0
   -1.7842   -0.7591    0.0534 C   0  0  0  0  0  0  0  0  0  0  0  0
   -0.7829    0.3828   -0.0885 C   0  0  0  0  0  0  0  0  0  0  0  0
   -0.1283    0.1628   -1.3344 N   0  0  0  0  0  0  0  0  0  0  0  0
   -1.0765    0.5028   -2.3553 C   0  0  0  0  0  0  0  0  0  0  0  0
   -2.1479   -0.5230   -2.4001 C   0  0  0  0  0  0  0  0  0  0  0  0
    1.4134    0.7752   -1.5422 S   0  0  0  0  0  0  0  0  0  0  0  0
    1.9693    0.5632   -2.9233 O   0  0  0  0  0  0  0  0  0  0  0  0
    1.3975    2.2517   -1.2528 O   0  0  0  0  0  0  0  0  0  0  0  0
    2.5351    0.0665   -0.4188 C   0  0  0  0  0  0  0  0  0  0  0  0
    2.1964   -0.9620    0.4228 C   0  0  0  0  0  0  0  0  0  0  0  0
    3.1507   -1.4803    1.2649 C   0  0  0  0  0  0  0  0  0  0  0  0
    4.4386   -0.9698    1.2622 C   0  0  0  0  0  0  0  0  0  0  0  0
    5.3285   -1.5115    2.1316 F   0  0  0  0  0  0  0  0  0  0  0  0
    4.7985    0.0498    0.4349 C   0  0  0  0  0  0  0  0  0  0  0  0
    6.1075    0.6341    0.3336 C   0  0  0  0  0  0  0  0  0  0  0  0
    6.2516    1.7166   -0.3470 O   0  0  0  0  0  0  0  0  0  0  0  0
    7.2639    0.1154    0.9217 N   0  0  0  0  0  0  0  0  0  0  0  0
    8.5701    0.7796    0.7728 C   0  0  0  0  0  0  0  0  0  0  0  0
    3.8136    0.5566   -0.4068 C   0  0  0  0  0  0  0  0  0  0  0  0
    4.1551    1.5844   -1.2509 F   0  0  0  0  0  0  0  0  0  0  0  0
   -5.3293    2.4458    2.3375 H   0  0  0  0  0  0  0  0  0  0  0  0
   -6.5570    3.2971    1.3686 H   0  0  0  0  0  0  0  0  0  0  0  0
   -6.7703    1.5700    1.7738 H   0  0  0  0  0  0  0  0  0  0  0  0
   -5.5234    2.4501   -0.6508 H   0  0  0  0  0  0  0  0  0  0  0  0
   -2.7546   -2.7531   -1.5562 H   0  0  0  0  0  0  0  0  0  0  0  0
   -4.1315   -1.8769   -2.1925 H   0  0  0  0  0  0  0  0  0  0  0  0
   -2.1696   -0.7108    1.0700 H   0  0  0  0  0  0  0  0  0  0  0  0
   -1.1577   -1.6823   -0.1269 H   0  0  0  0  0  0  0  0  0  0  0  0
   -1.3342    1.3680   -0.1142 H   0  0  0  0  0  0  0  0  0  0  0  0
   -0.1714    0.4247    0.8064 H   0  0  0  0  0  0  0  0  0  0  0  0
   -0.5492    0.5271   -3.3158 H   0  0  0  0  0  0  0  0  0  0  0  0
   -1.4885    1.5348   -2.2002 H   0  0  0  0  0  0  0  0  0  0  0  0
   -1.7030   -1.4685   -2.7715 H   0  0  0  0  0  0  0  0  0  0  0  0
   -2.8992   -0.2149   -3.1546 H   0  0  0  0  0  0  0  0  0  0  0  0
    1.2209   -1.4056    0.4580 H   0  0  0  0  0  0  0  0  0  0  0  0
    2.9353   -2.3006    1.9571 H   0  0  0  0  0  0  0  0  0  0  0  0
    7.2906   -0.7444    1.4730 H   0  0  0  0  0  0  0  0  0  0  0  0
    9.2136    0.1468    0.1532 H   0  0  0  0  0  0  0  0  0  0  0  0
    8.9999    1.0309    1.7603 H   0  0  0  0  0  0  0  0  0  0  0  0
    8.4036    1.7302    0.2300 H   0  0  0  0  0  0  0  0  0  0  0  0
  1  2  1  0
  2  3  1  0
  3  4  2  0
  3  5  1  0
  5  6  2  0
  5  7  1  0
  7  8  1  0
  8  9  1  0
  9 10  1  0
  9 11  1  0
  9 12  1  0
  7 13  1  0
 13 14  1  0
 14 15  1  0
 15 16  1  0
 16 17  1  0
 15 18  1  0
 18 19  2  0
 18 20  2  0
 18 21  1  0
 21 22  2  0
 22 23  1  0
 23 24  2  0
 24 25  1  0
 24 26  1  0
 26 27  1  0
 27 28  2  0
 27 29  1  0
 29 30  1  0
 26 31  2  0
 31 32  1  0
 17  7  1  0
 31 21  1  0
  1 33  1  0
  1 34  1  0
  1 35  1  0
  2 36  1  0
  8 37  1  0
  8 38  1  0
 13 39  1  0
 13 40  1  0
 14 41  1  0
 14 42  1  0
 16 43  1  0
 16 44  1  0
 17 45  1  0
 17 46  1  0
 22 47  1  0
 23 48  1  0
 29 49  1  0
 30 50  1  0
 30 51  1  0
 30 52  1  0
M  END
$$$$
[H]c1nc2c([H])c(N([H])C([H])([H])c3c([H])c([H])c4nc(N([H])[H])nc(N([H])[H])c4c3[H])c([H])c([H])c2c([H])c1[H]
     RDKit          3D

 40 43  0  0  0  0  0  0  0  0999 V2000
    7.6520   -0.4817   -0.5044 N   0  0  0  0  0  0  0  0  0  0  0  0
    6.2568   -0.2410   -0.5138 C   0  0  0  0  0  0  0  0  0  0  0  0
    5.8039    0.9554   -0.1048 N   0  0  0  0  0  0  0  0  0  0  0  0
    4.4762    1.2418   -0.0927 C   0  0  0  0  0  0  0  0  0  0  0  0
    3.9870    2.5019    0.3372 N   0  0  0  0  0  0  0  0  0  0  0  0
    3.5637    0.2877   -0.5085 C   0  0  0  0  0  0  0  0  0  0  0  0
    2.1973    0.5376   -0.5126 C   0  0  0  0  0  0  0  0  0  0  0  0
    1.2873   -0.4150   -0.9276 C   0  0  0  0  0  0  0  0  0  0  0  0
   -0.1710   -0.1670   -0.9389 C   0  0  0  0  0  0  0  0  0  0  0  0
   -0.8003   -0.5325    0.3013 N   0  0  0  0  0  0  0  0  0  0  0  0
   -2.2149   -0.3760    0.5112 C   0  0  0  0  0  0  0  0  0  0  0  0
   -2.7998   -0.7313    1.7054 C   0  0  0  0  0  0  0  0  0  0  0  0
   -4.1554   -0.5642    1.8614 C   0  0  0  0  0  0  0  0  0  0  0  0
   -4.9371   -0.0525    0.8563 C   0  0  0  0  0  0  0  0  0  0  0  0
   -6.3090    0.1174    1.0122 C   0  0  0  0  0  0  0  0  0  0  0  0
   -7.1105    0.6300    0.0134 C   0  0  0  0  0  0  0  0  0  0  0  0
   -6.4751    0.9735   -1.1716 C   0  0  0  0  0  0  0  0  0  0  0  0
   -5.1519    0.8175   -1.3428 N   0  0  0  0  0  0  0  0  0  0  0  0
   -4.3781    0.3133   -0.3541 C   0  0  0  0  0  0  0  0  0  0  0  0
   -3.0292    0.1363   -0.4810 C   0  0  0  0  0  0  0  0  0  0  0  0
    1.8142   -1.6296   -1.3382 C   0  0  0  0  0  0  0  0  0  0  0  0
    3.1673   -1.8948   -1.3407 C   0  0  0  0  0  0  0  0  0  0  0  0
    4.0449   -0.9358   -0.9255 C   0  0  0  0  0  0  0  0  0  0  0  0
    5.3828   -1.1718   -0.9184 N   0  0  0  0  0  0  0  0  0  0  0  0
    8.1304   -0.9082    0.3362 H   0  0  0  0  0  0  0  0  0  0  0  0
    8.2594   -0.2518   -1.3152 H   0  0  0  0  0  0  0  0  0  0  0  0
    3.8275    3.2390   -0.3581 H   0  0  0  0  0  0  0  0  0  0  0  0
    3.7911    2.6812    1.3412 H   0  0  0  0  0  0  0  0  0  0  0  0
    1.8467    1.4891   -0.1866 H   0  0  0  0  0  0  0  0  0  0  0  0
   -0.3302    0.9243   -1.0986 H   0  0  0  0  0  0  0  0  0  0  0  0
   -0.6836   -0.7257   -1.7490 H   0  0  0  0  0  0  0  0  0  0  0  0
   -0.2319   -0.9232    1.0808 H   0  0  0  0  0  0  0  0  0  0  0  0
   -2.1981   -1.1301    2.4920 H   0  0  0  0  0  0  0  0  0  0  0  0
   -4.6614   -0.8361    2.8010 H   0  0  0  0  0  0  0  0  0  0  0  0
   -6.7206   -0.1790    1.9747 H   0  0  0  0  0  0  0  0  0  0  0  0
   -8.1770    0.7551    0.1531 H   0  0  0  0  0  0  0  0  0  0  0  0
   -7.0611    1.3874   -2.0050 H   0  0  0  0  0  0  0  0  0  0  0  0
   -2.5736    0.4194   -1.4277 H   0  0  0  0  0  0  0  0  0  0  0  0
    1.1529   -2.4047   -1.6703 H   0  0  0  0  0  0  0  0  0  0  0  0
    3.5283   -2.8557   -1.6694 H   0  0  0  0  0  0  0  0  0  0  0  0
  1  2  1  0
  2  3  2  0
  3  4  1  0
  4  5  1  0
  4  6  2  0
  6  7  1  0
  7  8  2  0
  8  9  1  0
  9 10  1  0
 10 11  1  0
 11 12  2  0
 12 13  1  0
 13 14  2  0
 14 15  1  0
 15 16  2  0
 16 17  1  0
 17 18  2  0
 18 19  1  0
 19 20  2  0
  8 21  1  0
 21 22  2  0
 22 23  1  0
 23 24  2  0
 24  2  1  0
 23  6  1  0
 20 11  1  0
 19 14  1  0
  1 25  1  0
  1 26  1  0
  5 27  1  0
  5 28  1  0
  7 29  1  0
  9 30  1  0
  9 31  1  0
 10 32  1  0
 12 33  1  0
 13 34  1  0
 15 35  1  0
 16 36  1  0
 17 37  1  0
 20 38  1  0
 21 39  1  0
 22 40  1  0
M  END
$$$$
[H]N=C(N([H])[H])N([H])C([H])([H])C([H])([H])C([H])([H])[C@@]([H])(C(=O)c1nc([H])c([H])s1)N([H])C(=O)[C@@]([H])(N([H])C(=O)[C@@]([H])(N([H])C(=O)C([H])([H])C([H])([H])C(=O)O[H])C([H])([H])C(=O)N([H])[H])C([H])([H])C([H])([H])C([H])([H])N=C(N([H])[H])N([H])[H]
     RDKit          3D

 79 79  0  0  0  0  0  0  0  0999 V2000
   -2.0296    6.4380    2.8798 N   0  0  0  0  0  0  0  0  0  0  0  0
   -1.8788    5.2889    3.6920 C   0  0  0  0  0  0  0  0  0  0  0  0
   -1.6352    5.3755    5.0575 N   0  0  0  0  0  0  0  0  0  0  0  0
   -1.9726    4.1191    3.0947 N   0  0  0  0  0  0  0  0  0  0  0  0
   -2.2202    4.0745    1.6729 C   0  0  0  0  0  0  0  0  0  0  0  0
   -1.8714    2.7467    1.0640 C   0  0  0  0  0  0  0  0  0  0  0  0
   -0.4319    2.4129    1.3083 C   0  0  0  0  0  0  0  0  0  0  0  0
   -0.0341    1.1236    0.6164 C   0  0  2  0  0  0  0  0  0  0  0  0
   -0.8482    0.0457    1.1094 N   0  0  0  0  0  0  0  0  0  0  0  0
   -1.9597   -0.4477    0.3690 C   0  0  0  0  0  0  0  0  0  0  0  0
   -2.2238    0.1440   -0.7345 O   0  0  0  0  0  0  0  0  0  0  0  0
   -2.8230   -1.5596    0.7365 C   0  0  2  0  0  0  0  0  0  0  0  0
   -2.1774   -2.7804   -0.0074 C   0  0  0  0  0  0  0  0  0  0  0  0
   -2.1234   -2.5965   -1.4497 C   0  0  0  0  0  0  0  0  0  0  0  0
   -3.2210   -2.9832   -2.2911 N   0  0  0  0  0  0  0  0  0  0  0  0
   -1.1113   -2.0867   -1.9888 O   0  0  0  0  0  0  0  0  0  0  0  0
   -4.1940   -1.4038    0.4052 N   0  0  0  0  0  0  0  0  0  0  0  0
   -5.1761   -2.3943    0.5817 C   0  0  0  0  0  0  0  0  0  0  0  0
   -4.7335   -3.5234    1.0443 O   0  0  0  0  0  0  0  0  0  0  0  0
   -6.6135   -2.2869    0.2923 C   0  0  0  0  0  0  0  0  0  0  0  0
   -7.0111   -2.6890   -1.0971 C   0  0  0  0  0  0  0  0  0  0  0  0
   -8.4782   -2.6307   -1.3141 C   0  0  0  0  0  0  0  0  0  0  0  0
   -9.3750   -2.7479   -0.2545 O   0  0  0  0  0  0  0  0  0  0  0  0
   -8.9238   -2.4713   -2.4855 O   0  0  0  0  0  0  0  0  0  0  0  0
    1.4308    0.8250    1.0068 C   0  0  0  0  0  0  0  0  0  0  0  0
    1.4918    0.4424    2.2217 O   0  0  0  0  0  0  0  0  0  0  0  0
    2.4647    0.9601    0.1664 N   0  0  0  0  0  0  0  0  0  0  0  0
    3.5518    1.0999   -0.7087 C   0  0  1  0  0  0  0  0  0  0  0  0
    4.1994   -0.3684   -0.8233 C   0  0  0  0  0  0  0  0  0  0  0  0
    4.6301   -0.8172    0.5282 C   0  0  0  0  0  0  0  0  0  0  0  0
    5.2747   -2.1665    0.5126 C   0  0  0  0  0  0  0  0  0  0  0  0
    6.4608   -2.3080   -0.2705 N   0  0  0  0  0  0  0  0  0  0  0  0
    7.1920   -3.5425   -0.2247 C   0  0  0  0  0  0  0  0  0  0  0  0
    7.0327   -4.3852    0.8874 N   0  0  0  0  0  0  0  0  0  0  0  0
    7.9774   -3.8573   -1.1845 N   0  0  0  0  0  0  0  0  0  0  0  0
    3.1004    1.3052   -2.0995 C   0  0  0  0  0  0  0  0  0  0  0  0
    1.8594    1.1679   -2.3510 O   0  0  0  0  0  0  0  0  0  0  0  0
    3.9686    1.6576   -3.2097 C   0  0  0  0  0  0  0  0  0  0  0  0
    3.6309    1.8407   -4.4676 N   0  0  0  0  0  0  0  0  0  0  0  0
    4.4703    2.1769   -5.3617 C   0  0  0  0  0  0  0  0  0  0  0  0
    5.7988    2.3496   -4.9456 C   0  0  0  0  0  0  0  0  0  0  0  0
    5.6507    1.9932   -3.2778 S   0  0  0  0  0  0  0  0  0  0  0  0
   -2.7475    6.4652    2.1482 H   0  0  0  0  0  0  0  0  0  0  0  0
   -1.4113    7.2491    3.0373 H   0  0  0  0  0  0  0  0  0  0  0  0
   -2.4055    5.2100    5.7374 H   0  0  0  0  0  0  0  0  0  0  0  0
   -0.6821    5.6103    5.4028 H   0  0  0  0  0  0  0  0  0  0  0  0
   -1.6079    4.9106    1.2091 H   0  0  0  0  0  0  0  0  0  0  0  0
   -3.2905    4.3319    1.4939 H   0  0  0  0  0  0  0  0  0  0  0  0
   -1.9876    2.8497   -0.0724 H   0  0  0  0  0  0  0  0  0  0  0  0
   -2.5722    1.9796    1.4600 H   0  0  0  0  0  0  0  0  0  0  0  0
    0.1726    3.2686    0.9453 H   0  0  0  0  0  0  0  0  0  0  0  0
   -0.2233    2.2233    2.3941 H   0  0  0  0  0  0  0  0  0  0  0  0
   -0.1544    1.3045   -0.4407 H   0  0  0  0  0  0  0  0  0  0  0  0
   -0.6334   -0.3907    2.0205 H   0  0  0  0  0  0  0  0  0  0  0  0
   -2.7145   -1.8651    1.7871 H   0  0  0  0  0  0  0  0  0  0  0  0
   -2.5948   -3.7218    0.2980 H   0  0  0  0  0  0  0  0  0  0  0  0
   -1.1249   -2.7540    0.4345 H   0  0  0  0  0  0  0  0  0  0  0  0
   -3.2366   -2.5733   -3.2635 H   0  0  0  0  0  0  0  0  0  0  0  0
   -3.9757   -3.6330   -1.9992 H   0  0  0  0  0  0  0  0  0  0  0  0
   -4.5151   -0.4605   -0.0319 H   0  0  0  0  0  0  0  0  0  0  0  0
   -7.1684   -3.0698    0.9735 H   0  0  0  0  0  0  0  0  0  0  0  0
   -7.0460   -1.3530    0.5929 H   0  0  0  0  0  0  0  0  0  0  0  0
   -6.5622   -1.8757   -1.7835 H   0  0  0  0  0  0  0  0  0  0  0  0
   -6.6334   -3.6519   -1.4179 H   0  0  0  0  0  0  0  0  0  0  0  0
   -9.2216   -3.1679    0.6253 H   0  0  0  0  0  0  0  0  0  0  0  0
    3.3446    0.8523    1.1871 H   0  0  0  0  0  0  0  0  0  0  0  0
    4.4479    1.6531   -0.4081 H   0  0  0  0  0  0  0  0  0  0  0  0
    3.4707   -1.0238   -1.3113 H   0  0  0  0  0  0  0  0  0  0  0  0
    5.0765   -0.2531   -1.4772 H   0  0  0  0  0  0  0  0  0  0  0  0
    3.7569   -0.9445    1.2311 H   0  0  0  0  0  0  0  0  0  0  0  0
    5.3395   -0.0951    1.0203 H   0  0  0  0  0  0  0  0  0  0  0  0
    4.5443   -2.9452    0.1710 H   0  0  0  0  0  0  0  0  0  0  0  0
    5.5279   -2.4850    1.5740 H   0  0  0  0  0  0  0  0  0  0  0  0
    6.8255   -1.5535   -0.8904 H   0  0  0  0  0  0  0  0  0  0  0  0
    6.5427   -5.3172    0.8076 H   0  0  0  0  0  0  0  0  0  0  0  0
    7.4048   -4.0836    1.8306 H   0  0  0  0  0  0  0  0  0  0  0  0
    8.0628   -3.1997   -1.9803 H   0  0  0  0  0  0  0  0  0  0  0  0
    4.2257    2.3308   -6.4252 H   0  0  0  0  0  0  0  0  0  0  0  0
    6.6478    2.6379   -5.5794 H   0  0  0  0  0  0  0  0  0  0  0  0
  1  2  1  0
  2  3  1  0
  2  4  2  3
  4  5  1  0
  5  6  1  0
  6  7  1  0
  7  8  1  0
  8  9  1  0
  9 10  1  0
 10 11  2  0
 10 12  1  0
 12 13  1  0
 13 14  1  0
 14 15  1  0
 14 16  2  0
 12 17  1  0
 17 18  1  0
 18 19  2  0
 18 20  1  0
 20 21  1  0
 21 22  1  0
 22 23  1  0
 22 24  2  0
  8 25  1  0
 25 26  2  0
 25 27  1  0
 27 28  1  0
 28 29  1  0
 29 30  1  0
 30 31  1  0
 31 32  1  0
 32 33  1  0
 33 34  1  0
 33 35  2  3
 28 36  1  0
 36 37  2  0
 36 38  1  0
 38 39  2  0
 39 40  1  0
 40 41  2  0
 41 42  1  0
 42 38  1  0
  1 43  1  0
  1 44  1  0
  3 45  1  0
  3 46  1  0
  5 47  1  0
  5 48  1  0
  6 49  1  0
  6 50  1  0
  7 51  1  0
  7 52  1  0
  8 53  1  6
  9 54  1  0
 12 55  1  1
 13 56  1  0
 13 57  1  0
 15 58  1  0
 15 59  1  0
 17 60  1  0
 20 61  1  0
 20 62  1  0
 21 63  1  0
 21 64  1  0
 23 65  1  0
 27 66  1  0
 28 67  1  1
 29 68  1  0
 29 69  1  0
 30 70  1  0
 30 71  1  0
 31 72  1  0
 31 73  1  0
 32 74  1  0
 34 75  1  0
 34 76  1  0
 35 77  1  0
 40 78  1  0
 41 79  1  0
M  END
$$$$
[H]c1c([H])c([H])c(-c2nn([H])c3c([H])c([H])c([H])c(-c4c([H])c([H])c(N([H])C(=O)N([H])c5c([H])c([H])c([H])c(OC([H])([H])[H])c5[H])c([H])c4[H])c23)c([H])c1[H]
     RDKit          3D

 55 59  0  0  0  0  0  0  0  0999 V2000
    8.3137   -1.7824   -1.2886 C   0  0  0  0  0  0  0  0  0  0  0  0
    7.0121   -1.2946   -1.0583 O   0  0  0  0  0  0  0  0  0  0  0  0
    6.4915   -1.2589    0.2209 C   0  0  0  0  0  0  0  0  0  0  0  0
    7.2673   -1.7070    1.2631 C   0  0  0  0  0  0  0  0  0  0  0  0
    6.7425   -1.6677    2.5239 C   0  0  0  0  0  0  0  0  0  0  0  0
    5.4784   -1.1902    2.7060 C   0  0  0  0  0  0  0  0  0  0  0  0
    4.6652   -0.7281    1.6687 C   0  0  0  0  0  0  0  0  0  0  0  0
    3.3936   -0.2577    2.0163 N   0  0  0  0  0  0  0  0  0  0  0  0
    2.3217    0.0831    1.1602 C   0  0  0  0  0  0  0  0  0  0  0  0
    2.4658   -0.0309   -0.0673 O   0  0  0  0  0  0  0  0  0  0  0  0
    1.0860    0.5517    1.6686 N   0  0  0  0  0  0  0  0  0  0  0  0
   -0.0709    0.9253    0.9733 C   0  0  0  0  0  0  0  0  0  0  0  0
   -0.3162    0.7014   -0.3453 C   0  0  0  0  0  0  0  0  0  0  0  0
   -1.5116    1.1355   -0.9472 C   0  0  0  0  0  0  0  0  0  0  0  0
   -2.4713    1.7971   -0.2318 C   0  0  0  0  0  0  0  0  0  0  0  0
   -2.2154    2.0180    1.0971 C   0  0  0  0  0  0  0  0  0  0  0  0
   -1.0549    1.6025    1.7031 C   0  0  0  0  0  0  0  0  0  0  0  0
   -3.6669    2.2854   -0.8638 C   0  0  0  0  0  0  0  0  0  0  0  0
   -3.8153    3.6760   -1.0114 C   0  0  0  0  0  0  0  0  0  0  0  0
   -4.8344    4.2641   -1.6903 C   0  0  0  0  0  0  0  0  0  0  0  0
   -5.7764    3.4472   -2.2670 C   0  0  0  0  0  0  0  0  0  0  0  0
   -5.6730    2.0862   -2.1468 C   0  0  0  0  0  0  0  0  0  0  0  0
   -6.4356    1.0848   -2.5989 N   0  0  0  0  0  0  0  0  0  0  0  0
   -5.9465   -0.0574   -2.2313 N   0  0  0  0  0  0  0  0  0  0  0  0
   -4.7810    0.1316   -1.4808 C   0  0  0  0  0  0  0  0  0  0  0  0
   -4.0646   -1.0048   -0.9432 C   0  0  0  0  0  0  0  0  0  0  0  0
   -3.8561   -1.2346    0.3795 C   0  0  0  0  0  0  0  0  0  0  0  0
   -3.1892   -2.3413    0.8740 C   0  0  0  0  0  0  0  0  0  0  0  0
   -2.7041   -3.2721   -0.0299 C   0  0  0  0  0  0  0  0  0  0  0  0
   -2.8937   -3.0774   -1.3795 C   0  0  0  0  0  0  0  0  0  0  0  0
   -3.5706   -1.9512   -1.8502 C   0  0  0  0  0  0  0  0  0  0  0  0
   -4.6095    1.4852   -1.4357 C   0  0  0  0  0  0  0  0  0  0  0  0
    5.2146   -0.7785    0.4214 C   0  0  0  0  0  0  0  0  0  0  0  0
    8.5554   -1.5123   -2.3567 H   0  0  0  0  0  0  0  0  0  0  0  0
    9.0541   -1.3467   -0.6024 H   0  0  0  0  0  0  0  0  0  0  0  0
    8.3143   -2.9091   -1.2718 H   0  0  0  0  0  0  0  0  0  0  0  0
    8.2742   -2.0884    1.1262 H   0  0  0  0  0  0  0  0  0  0  0  0
    7.3643   -2.0235    3.3440 H   0  0  0  0  0  0  0  0  0  0  0  0
    5.1114   -1.1826    3.7272 H   0  0  0  0  0  0  0  0  0  0  0  0
    3.1595   -0.1181    3.0585 H   0  0  0  0  0  0  0  0  0  0  0  0
    1.0664    0.6118    2.7440 H   0  0  0  0  0  0  0  0  0  0  0  0
    0.4076    0.1698   -0.9665 H   0  0  0  0  0  0  0  0  0  0  0  0
   -1.6096    0.9093   -1.9972 H   0  0  0  0  0  0  0  0  0  0  0  0
   -2.9479    2.5356    1.6922 H   0  0  0  0  0  0  0  0  0  0  0  0
   -0.8873    1.7981    2.7654 H   0  0  0  0  0  0  0  0  0  0  0  0
   -3.0586    4.2978   -0.5469 H   0  0  0  0  0  0  0  0  0  0  0  0
   -4.9179    5.3638   -1.7845 H   0  0  0  0  0  0  0  0  0  0  0  0
   -6.6015    3.8963   -2.8180 H   0  0  0  0  0  0  0  0  0  0  0  0
   -7.3059    1.2149   -3.1701 H   0  0  0  0  0  0  0  0  0  0  0  0
   -4.2459   -0.4908    1.0757 H   0  0  0  0  0  0  0  0  0  0  0  0
   -3.0391   -2.4962    1.9332 H   0  0  0  0  0  0  0  0  0  0  0  0
   -2.1845   -4.1339    0.3699 H   0  0  0  0  0  0  0  0  0  0  0  0
   -2.4998   -3.8281   -2.0504 H   0  0  0  0  0  0  0  0  0  0  0  0
   -3.6810   -1.8669   -2.9093 H   0  0  0  0  0  0  0  0  0  0  0  0
    4.6765   -0.4411   -0.4385 H   0  0  0  0  0  0  0  0  0  0  0  0
  1  2  1  0
  2  3  1  0
  3  4  2  0
  4  5  1  0
  5  6  2  0
  6  7  1  0
  7  8  1  0
  8  9  1  0
  9 10  2  0
  9 11  1  0
 11 12  1  0
 12 13  2  0
 13 14  1  0
 14 15  2  0
 15 16  1  0
 16 17  2  0
 15 18  1  0
 18 19  2  0
 19 20  1  0
 20 21  2  0
 21 22  1  0
 22 23  1  0
 23 24  1  0
 24 25  2  0
 25 26  1  0
 26 27  2  0
 27 28  1  0
 28 29  2  0
 29 30  1  0
 30 31  2  0
 25 32  1  0
  7 33  2  0
 33  3  1  0
 17 12  1  0
 32 18  1  0
 32 22  2  0
 31 26  1  0
  1 34  1  0
  1 35  1  0
  1 36  1  0
  4 37  1  0
  5 38  1  0
  6 39  1  0
  8 40  1  0
 11 41  1  0
 13 42  1  0
 14 43  1  0
 16 44  1  0
 17 45  1  0
 19 46  1  0
 20 47  1  0
 21 48  1  0
 23 49  1  0
 27 50  1  0
 28 51  1  0
 29 52  1  0
 30 53  1  0
 31 54  1  0
 33 55  1  0
M  END
$$$$
[H]c1nc(N2C([H])([H])C([H])([H])C3(N(C(=O)C([H])([H])[C@@]([H])(OC([H])([H])[H])c4c([H])c([H])c(F)c([H])c4[H])C([H])([H])C([H])([H])C3([H])[H])C([H])([H])C2([H])[H])nc([H])c1[H]
     RDKit          3D

 56 59  0  0  0  0  0  0  0  0999 V2000
    2.9384   -2.3472    1.5265 C   0  0  0  0  0  0  0  0  0  0  0  0
    3.1981   -1.3551    0.5977 O   0  0  0  0  0  0  0  0  0  0  0  0
    3.4042   -0.1106    1.1838 C   0  0  2  0  0  0  0  0  0  0  0  0
    2.4460    0.9249    0.5805 C   0  0  0  0  0  0  0  0  0  0  0  0
    1.0442    0.5471    0.7934 C   0  0  0  0  0  0  0  0  0  0  0  0
    0.5889    0.6967    1.9760 O   0  0  0  0  0  0  0  0  0  0  0  0
    0.2356    0.0425   -0.2559 N   0  0  0  0  0  0  0  0  0  0  0  0
    0.7164   -0.1474   -1.6222 C   0  0  0  0  0  0  0  0  0  0  0  0
    0.1355   -1.4925   -1.9649 C   0  0  0  0  0  0  0  0  0  0  0  0
   -0.9764   -1.7637   -0.9568 C   0  0  0  0  0  0  0  0  0  0  0  0
   -1.1355   -0.3879   -0.3018 C   0  0  0  0  0  0  0  0  0  0  0  0
   -1.7862   -0.5991    1.0206 C   0  0  0  0  0  0  0  0  0  0  0  0
   -3.2614   -0.9487    0.7591 C   0  0  0  0  0  0  0  0  0  0  0  0
   -3.8650    0.2821    0.3002 N   0  0  0  0  0  0  0  0  0  0  0  0
   -2.9683    1.2652   -0.2716 C   0  0  0  0  0  0  0  0  0  0  0  0
   -1.9990    0.5062   -1.1509 C   0  0  0  0  0  0  0  0  0  0  0  0
   -5.2500    0.5803    0.3771 C   0  0  0  0  0  0  0  0  0  0  0  0
   -6.1254   -0.2873    0.9374 N   0  0  0  0  0  0  0  0  0  0  0  0
   -7.4410   -0.0126    1.0136 C   0  0  0  0  0  0  0  0  0  0  0  0
   -7.9482    1.1901    0.5108 C   0  0  0  0  0  0  0  0  0  0  0  0
   -7.0499    2.0485   -0.0487 C   0  0  0  0  0  0  0  0  0  0  0  0
   -5.7679    1.7264   -0.0965 N   0  0  0  0  0  0  0  0  0  0  0  0
    4.7705    0.3198    0.7349 C   0  0  0  0  0  0  0  0  0  0  0  0
    5.6959    0.8742    1.5596 C   0  0  0  0  0  0  0  0  0  0  0  0
    6.9214    1.2156    0.9794 C   0  0  0  0  0  0  0  0  0  0  0  0
    7.2008    1.0148   -0.3397 C   0  0  0  0  0  0  0  0  0  0  0  0
    8.3904    1.3445   -0.9107 F   0  0  0  0  0  0  0  0  0  0  0  0
    6.2508    0.4542   -1.1499 C   0  0  0  0  0  0  0  0  0  0  0  0
    5.0405    0.1082   -0.6143 C   0  0  0  0  0  0  0  0  0  0  0  0
    2.7885   -3.3001    0.9643 H   0  0  0  0  0  0  0  0  0  0  0  0
    1.9253   -2.1290    1.9754 H   0  0  0  0  0  0  0  0  0  0  0  0
    3.6975   -2.4461    2.3064 H   0  0  0  0  0  0  0  0  0  0  0  0
    3.3242   -0.1320    2.2908 H   0  0  0  0  0  0  0  0  0  0  0  0
    2.5913    1.9122    1.1066 H   0  0  0  0  0  0  0  0  0  0  0  0
    2.7361    1.1046   -0.4632 H   0  0  0  0  0  0  0  0  0  0  0  0
    0.4091    0.6568   -2.3067 H   0  0  0  0  0  0  0  0  0  0  0  0
    1.8136   -0.2260   -1.6861 H   0  0  0  0  0  0  0  0  0  0  0  0
    0.9153   -2.2725   -1.9318 H   0  0  0  0  0  0  0  0  0  0  0  0
   -0.2557   -1.4330   -2.9999 H   0  0  0  0  0  0  0  0  0  0  0  0
   -1.8936   -2.1092   -1.4450 H   0  0  0  0  0  0  0  0  0  0  0  0
   -0.5683   -2.4309   -0.1876 H   0  0  0  0  0  0  0  0  0  0  0  0
   -1.3499   -1.4792    1.5227 H   0  0  0  0  0  0  0  0  0  0  0  0
   -1.7893    0.2975    1.6792 H   0  0  0  0  0  0  0  0  0  0  0  0
   -3.7382   -1.3482    1.6695 H   0  0  0  0  0  0  0  0  0  0  0  0
   -3.3131   -1.6732   -0.0629 H   0  0  0  0  0  0  0  0  0  0  0  0
   -3.5049    1.9999   -0.9125 H   0  0  0  0  0  0  0  0  0  0  0  0
   -2.4479    1.8603    0.5076 H   0  0  0  0  0  0  0  0  0  0  0  0
   -1.4522    1.2490   -1.7425 H   0  0  0  0  0  0  0  0  0  0  0  0
   -2.6276   -0.1697   -1.7884 H   0  0  0  0  0  0  0  0  0  0  0  0
   -8.1612   -0.6817    1.4535 H   0  0  0  0  0  0  0  0  0  0  0  0
   -8.9986    1.4237    0.5644 H   0  0  0  0  0  0  0  0  0  0  0  0
   -7.3800    3.0062   -0.4609 H   0  0  0  0  0  0  0  0  0  0  0  0
    5.4714    1.0302    2.5975 H   0  0  0  0  0  0  0  0  0  0  0  0
    7.6743    1.6564    1.6057 H   0  0  0  0  0  0  0  0  0  0  0  0
    6.4296    0.2789   -2.1916 H   0  0  0  0  0  0  0  0  0  0  0  0
    4.3015   -0.3342   -1.2703 H   0  0  0  0  0  0  0  0  0  0  0  0
  1  2  1  0
  2  3  1  0
  3  4  1  0
  4  5  1  0
  5  6  2  0
  5  7  1  0
  7  8  1  0
  8  9  1  0
  9 10  1  0
 10 11  1  0
 11 12  1  0
 12 13  1  0
 13 14  1  0
 14 15  1  0
 15 16  1  0
 14 17  1  0
 17 18  2  0
 18 19  1  0
 19 20  2  0
 20 21  1  0
 21 22  2  0
  3 23  1  0
 23 24  2  0
 24 25  1  0
 25 26  2  0
 26 27  1  0
 26 28  1  0
 28 29  2  0
 11  7  1  0
 16 11  1  0
 22 17  1  0
 29 23  1  0
  1 30  1  0
  1 31  1  0
  1 32  1  0
  3 33  1  1
  4 34  1  0
  4 35  1  0
  8 36  1  0
  8 37  1  0
  9 38  1  0
  9 39  1  0
 10 40  1  0
 10 41  1  0
 12 42  1  0
 12 43  1  0
 13 44  1  0
 13 45  1  0
 15 46  1  0
 15 47  1  0
 16 48  1  0
 16 49  1  0
 19 50  1  0
 20 51  1  0
 21 52  1  0
 24 53  1  0
 25 54  1  0
 28 55  1  0
 29 56  1  0
M  END
$$$$
[H]N=C(N([H])[H])N([H])C([H])([H])C([H])([H])C([H])([H])[C@@]([H])(C(=O)N([H])[C@]([H])(C(=O)N([H])[H])C([H])([H])c1c([H])n([H])c2c([H])c([H])c([H])c([H])c12)N([H])C(=O)[C@@]([H])(N([H])C(=O)[C@@]([H])(N([H])C(=O)[C@@]([H])(N([H])C(=O)c1c([H])c([H])c([H])c(C([H])([H])[H])c1[H])C([H])([H])C([H])([H])C([H])([H])N=C(N([H])[H])N([H])[H])C([H])([H])c1c([H])c([H])c([H])c([H])c1[H])C([H])([H])C([H])(C([H])([H])[H])C([H])([H])[H]
     RDKit          3D

128131  0  0  0  0  0  0  0  0999 V2000
    0.8888    4.9211    0.3770 C   0  0  0  0  0  0  0  0  0  0  0  0
    0.5683    4.6393   -1.0784 C   0  0  0  0  0  0  0  0  0  0  0  0
    0.3377    5.9323   -1.8419 C   0  0  0  0  0  0  0  0  0  0  0  0
   -0.7436    3.8507   -1.1195 C   0  0  0  0  0  0  0  0  0  0  0  0
   -0.5942    2.5649   -0.3736 C   0  0  2  0  0  0  0  0  0  0  0  0
    0.3653    1.6560   -0.8396 N   0  0  0  0  0  0  0  0  0  0  0  0
    1.3664    1.0105   -0.1349 C   0  0  0  0  0  0  0  0  0  0  0  0
    1.4620    1.2223    1.1255 O   0  0  0  0  0  0  0  0  0  0  0  0
    2.3202    0.0905   -0.8140 C   0  0  2  0  0  0  0  0  0  0  0  0
    1.6728   -1.0298   -1.5842 C   0  0  0  0  0  0  0  0  0  0  0  0
    0.8863   -1.9933   -0.8383 C   0  0  0  0  0  0  0  0  0  0  0  0
   -0.4379   -1.8820   -0.5883 C   0  0  0  0  0  0  0  0  0  0  0  0
   -1.1798   -2.8190    0.1204 C   0  0  0  0  0  0  0  0  0  0  0  0
   -0.5058   -3.9387    0.5969 C   0  0  0  0  0  0  0  0  0  0  0  0
    0.8388   -4.1029    0.3705 C   0  0  0  0  0  0  0  0  0  0  0  0
    1.5182   -3.1329   -0.3419 C   0  0  0  0  0  0  0  0  0  0  0  0
    3.3009   -0.4391    0.1024 N   0  0  0  0  0  0  0  0  0  0  0  0
    4.6836   -0.3253   -0.1586 C   0  0  0  0  0  0  0  0  0  0  0  0
    5.0446    0.2557   -1.2081 O   0  0  0  0  0  0  0  0  0  0  0  0
    5.7342   -0.8592    0.7265 C   0  0  2  0  0  0  0  0  0  0  0  0
    6.0566    0.1829    1.7997 C   0  0  0  0  0  0  0  0  0  0  0  0
    6.5254    1.4569    1.1823 C   0  0  0  0  0  0  0  0  0  0  0  0
    6.8708    2.5182    2.1825 C   0  0  0  0  0  0  0  0  0  0  0  0
    7.9129    2.1579    3.0999 N   0  0  0  0  0  0  0  0  0  0  0  0
    9.1555    2.0260    2.8577 C   0  0  0  0  0  0  0  0  0  0  0  0
    9.6012    2.2508    1.5291 N   0  0  0  0  0  0  0  0  0  0  0  0
   10.0903    1.6856    3.8710 N   0  0  0  0  0  0  0  0  0  0  0  0
    6.9929   -1.0782    0.0241 N   0  0  0  0  0  0  0  0  0  0  0  0
    7.7005   -2.2866    0.1496 C   0  0  0  0  0  0  0  0  0  0  0  0
    7.2468   -3.2003    0.8878 O   0  0  0  0  0  0  0  0  0  0  0  0
    8.9564   -2.5324   -0.5468 C   0  0  0  0  0  0  0  0  0  0  0  0
    9.4940   -1.6465   -1.4534 C   0  0  0  0  0  0  0  0  0  0  0  0
   10.6899   -1.9255   -2.0875 C   0  0  0  0  0  0  0  0  0  0  0  0
   11.3773   -3.0964   -1.8281 C   0  0  0  0  0  0  0  0  0  0  0  0
   10.8425   -3.9789   -0.9261 C   0  0  0  0  0  0  0  0  0  0  0  0
   11.5412   -5.2541   -0.6110 C   0  0  0  0  0  0  0  0  0  0  0  0
    9.6700   -3.7030   -0.3077 C   0  0  0  0  0  0  0  0  0  0  0  0
   -1.9329    1.9866    0.0094 C   0  0  0  0  0  0  0  0  0  0  0  0
   -1.8904    1.0300    0.8335 O   0  0  0  0  0  0  0  0  0  0  0  0
   -3.1272    2.4499   -0.4987 N   0  0  0  0  0  0  0  0  0  0  0  0
   -4.4745    2.0808   -0.2716 C   0  0  1  0  0  0  0  0  0  0  0  0
   -5.4246    2.8865   -1.0878 C   0  0  0  0  0  0  0  0  0  0  0  0
   -5.4084    4.3411   -0.8218 C   0  0  0  0  0  0  0  0  0  0  0  0
   -5.8020    4.8459    0.5061 C   0  0  0  0  0  0  0  0  0  0  0  0
   -7.1336    4.6556    0.9416 N   0  0  0  0  0  0  0  0  0  0  0  0
   -7.7630    3.4654    1.3317 C   0  0  0  0  0  0  0  0  0  0  0  0
   -7.3936    2.7859    2.5390 N   0  0  0  0  0  0  0  0  0  0  0  0
   -8.6776    2.9679    0.6157 N   0  0  0  0  0  0  0  0  0  0  0  0
   -4.7177    0.6041   -0.5637 C   0  0  0  0  0  0  0  0  0  0  0  0
   -3.7979   -0.1060   -0.9184 O   0  0  0  0  0  0  0  0  0  0  0  0
   -6.0283    0.1151   -0.4033 N   0  0  0  0  0  0  0  0  0  0  0  0
   -6.3543   -1.3078   -0.6372 C   0  0  1  0  0  0  0  0  0  0  0  0
   -7.0740   -1.8062    0.5681 C   0  0  0  0  0  0  0  0  0  0  0  0
   -7.5382   -3.1946    0.4946 C   0  0  0  0  0  0  0  0  0  0  0  0
   -6.8671   -4.3513    0.8735 C   0  0  0  0  0  0  0  0  0  0  0  0
   -7.6302   -5.3901    0.6093 N   0  0  0  0  0  0  0  0  0  0  0  0
   -8.7936   -5.0095    0.0672 C   0  0  0  0  0  0  0  0  0  0  0  0
   -9.8934   -5.7760   -0.3454 C   0  0  0  0  0  0  0  0  0  0  0  0
  -10.9988   -5.1272   -0.8575 C   0  0  0  0  0  0  0  0  0  0  0  0
  -10.9589   -3.7561   -0.9332 C   0  0  0  0  0  0  0  0  0  0  0  0
   -9.8854   -3.0058   -0.5312 C   0  0  0  0  0  0  0  0  0  0  0  0
   -8.7671   -3.6420   -0.0166 C   0  0  0  0  0  0  0  0  0  0  0  0
   -6.9444   -1.5534   -1.9516 C   0  0  0  0  0  0  0  0  0  0  0  0
   -6.8951   -2.8867   -2.4883 N   0  0  0  0  0  0  0  0  0  0  0  0
   -7.4888   -0.6690   -2.6485 O   0  0  0  0  0  0  0  0  0  0  0  0
    1.4315    5.9036    0.4669 H   0  0  0  0  0  0  0  0  0  0  0  0
    1.5271    4.1014    0.7506 H   0  0  0  0  0  0  0  0  0  0  0  0
   -0.0777    4.9323    0.9377 H   0  0  0  0  0  0  0  0  0  0  0  0
    1.3363    4.0212   -1.5699 H   0  0  0  0  0  0  0  0  0  0  0  0
   -0.7397    6.1293   -1.8625 H   0  0  0  0  0  0  0  0  0  0  0  0
    0.8555    6.8101   -1.3648 H   0  0  0  0  0  0  0  0  0  0  0  0
    0.6906    5.7719   -2.8755 H   0  0  0  0  0  0  0  0  0  0  0  0
   -1.0071    3.7033   -2.1793 H   0  0  0  0  0  0  0  0  0  0  0  0
   -1.5572    4.4951   -0.6726 H   0  0  0  0  0  0  0  0  0  0  0  0
   -0.2409    2.9159    0.7052 H   0  0  0  0  0  0  0  0  0  0  0  0
    0.2999    1.4389   -1.9106 H   0  0  0  0  0  0  0  0  0  0  0  0
    2.8706    0.6964   -1.5766 H   0  0  0  0  0  0  0  0  0  0  0  0
    2.5206   -1.5552   -2.1088 H   0  0  0  0  0  0  0  0  0  0  0  0
    1.0839   -0.5917   -2.4506 H   0  0  0  0  0  0  0  0  0  0  0  0
   -1.0084   -1.0297   -0.9395 H   0  0  0  0  0  0  0  0  0  0  0  0
   -2.2488   -2.7209    0.3182 H   0  0  0  0  0  0  0  0  0  0  0  0
   -1.0496   -4.6864    1.1659 H   0  0  0  0  0  0  0  0  0  0  0  0
    1.3653   -4.9924    0.7474 H   0  0  0  0  0  0  0  0  0  0  0  0
    2.5624   -3.2974   -0.5045 H   0  0  0  0  0  0  0  0  0  0  0  0
    2.9852   -0.9137    0.9617 H   0  0  0  0  0  0  0  0  0  0  0  0
    5.4799   -1.7771    1.2653 H   0  0  0  0  0  0  0  0  0  0  0  0
    5.2412    0.3220    2.5127 H   0  0  0  0  0  0  0  0  0  0  0  0
    6.9153   -0.2299    2.4030 H   0  0  0  0  0  0  0  0  0  0  0  0
    5.7602    1.9084    0.5030 H   0  0  0  0  0  0  0  0  0  0  0  0
    7.4197    1.3051    0.5464 H   0  0  0  0  0  0  0  0  0  0  0  0
    5.9893    2.8894    2.7726 H   0  0  0  0  0  0  0  0  0  0  0  0
    7.2663    3.4380    1.6415 H   0  0  0  0  0  0  0  0  0  0  0  0
   10.3133    1.6214    1.1280 H   0  0  0  0  0  0  0  0  0  0  0  0
    9.2180    3.0319    0.9891 H   0  0  0  0  0  0  0  0  0  0  0  0
   11.0779    1.4850    3.6443 H   0  0  0  0  0  0  0  0  0  0  0  0
    9.8304    1.6216    4.8879 H   0  0  0  0  0  0  0  0  0  0  0  0
    7.3553   -0.3280   -0.5816 H   0  0  0  0  0  0  0  0  0  0  0  0
    8.9816   -0.7197   -1.6787 H   0  0  0  0  0  0  0  0  0  0  0  0
   11.1165   -1.2407   -2.7926 H   0  0  0  0  0  0  0  0  0  0  0  0
   12.3128   -3.3311   -2.3115 H   0  0  0  0  0  0  0  0  0  0  0  0
   11.8057   -5.7990   -1.5269 H   0  0  0  0  0  0  0  0  0  0  0  0
   10.9126   -5.9042    0.0226 H   0  0  0  0  0  0  0  0  0  0  0  0
   12.4596   -4.9760   -0.0765 H   0  0  0  0  0  0  0  0  0  0  0  0
    9.2492   -4.4231    0.4113 H   0  0  0  0  0  0  0  0  0  0  0  0
   -3.0086    3.2659   -1.2266 H   0  0  0  0  0  0  0  0  0  0  0  0
   -4.7605    2.1266    0.8142 H   0  0  0  0  0  0  0  0  0  0  0  0
   -5.0907    2.7839   -2.1968 H   0  0  0  0  0  0  0  0  0  0  0  0
   -6.4194    2.4754   -1.0824 H   0  0  0  0  0  0  0  0  0  0  0  0
   -6.1439    4.8023   -1.5644 H   0  0  0  0  0  0  0  0  0  0  0  0
   -4.4419    4.8248   -1.1334 H   0  0  0  0  0  0  0  0  0  0  0  0
   -5.1257    4.4473    1.3408 H   0  0  0  0  0  0  0  0  0  0  0  0
   -5.5469    5.9544    0.5264 H   0  0  0  0  0  0  0  0  0  0  0  0
   -7.7803    5.5205    0.9905 H   0  0  0  0  0  0  0  0  0  0  0  0
   -7.8874    1.9137    2.8291 H   0  0  0  0  0  0  0  0  0  0  0  0
   -6.6299    3.1591    3.1504 H   0  0  0  0  0  0  0  0  0  0  0  0
   -9.1928    2.1173    0.8182 H   0  0  0  0  0  0  0  0  0  0  0  0
   -6.7921    0.7281   -0.1221 H   0  0  0  0  0  0  0  0  0  0  0  0
   -5.3390   -1.8482   -0.6388 H   0  0  0  0  0  0  0  0  0  0  0  0
   -7.9388   -1.1482    0.8450 H   0  0  0  0  0  0  0  0  0  0  0  0
   -6.3228   -1.7779    1.4100 H   0  0  0  0  0  0  0  0  0  0  0  0
   -5.8607   -4.3335    1.3189 H   0  0  0  0  0  0  0  0  0  0  0  0
   -7.3480   -6.3937    0.8005 H   0  0  0  0  0  0  0  0  0  0  0  0
   -9.8953   -6.8440   -0.2716 H   0  0  0  0  0  0  0  0  0  0  0  0
  -11.8655   -5.7070   -1.1795 H   0  0  0  0  0  0  0  0  0  0  0  0
  -11.8367   -3.2237   -1.3454 H   0  0  0  0  0  0  0  0  0  0  0  0
   -9.8786   -1.9330   -0.6037 H   0  0  0  0  0  0  0  0  0  0  0  0
   -6.1767   -3.5851   -2.2089 H   0  0  0  0  0  0  0  0  0  0  0  0
   -7.6126   -3.1813   -3.1851 H   0  0  0  0  0  0  0  0  0  0  0  0
  1  2  1  0
  2  3  1  0
  2  4  1  0
  4  5  1  0
  5  6  1  0
  6  7  1  0
  7  8  2  0
  7  9  1  0
  9 10  1  0
 10 11  1  0
 11 12  2  0
 12 13  1  0
 13 14  2  0
 14 15  1  0
 15 16  2  0
  9 17  1  0
 17 18  1  0
 18 19  2  0
 18 20  1  0
 20 21  1  0
 21 22  1  0
 22 23  1  0
 23 24  1  0
 24 25  2  3
 25 26  1  0
 25 27  1  0
 20 28  1  0
 28 29  1  0
 29 30  2  0
 29 31  1  0
 31 32  2  0
 32 33  1  0
 33 34  2  0
 34 35  1  0
 35 36  1  0
 35 37  2  0
  5 38  1  0
 38 39  2  0
 38 40  1  0
 40 41  1  0
 41 42  1  0
 42 43  1  0
 43 44  1  0
 44 45  1  0
 45 46  1  0
 46 47  1  0
 46 48  2  3
 41 49  1  0
 49 50  2  0
 49 51  1  0
 51 52  1  0
 52 53  1  0
 53 54  1  0
 54 55  2  0
 55 56  1  0
 56 57  1  0
 57 58  2  0
 58 59  1  0
 59 60  2  0
 60 61  1  0
 61 62  2  0
 52 63  1  0
 63 64  1  0
 63 65  2  0
 16 11  1  0
 37 31  1  0
 62 54  1  0
 62 57  1  0
  1 66  1  0
  1 67  1  0
  1 68  1  0
  2 69  1  0
  3 70  1  0
  3 71  1  0
  3 72  1  0
  4 73  1  0
  4 74  1  0
  5 75  1  1
  6 76  1  0
  9 77  1  6
 10 78  1  0
 10 79  1  0
 12 80  1  0
 13 81  1  0
 14 82  1  0
 15 83  1  0
 16 84  1  0
 17 85  1  0
 20 86  1  1
 21 87  1  0
 21 88  1  0
 22 89  1  0
 22 90  1  0
 23 91  1  0
 23 92  1  0
 26 93  1  0
 26 94  1  0
 27 95  1  0
 27 96  1  0
 28 97  1  0
 32 98  1  0
 33 99  1  0
 34100  1  0
 36101  1  0
 36102  1  0
 36103  1  0
 37104  1  0
 40105  1  0
 41106  1  1
 42107  1  0
 42108  1  0
 43109  1  0
 43110  1  0
 44111  1  0
 44112  1  0
 45113  1  0
 47114  1  0
 47115  1  0
 48116  1  0
 51117  1  0
 52118  1  6
 53119  1  0
 53120  1  0
 55121  1  0
 56122  1  0
 58123  1  0
 59124  1  0
 60125  1  0
 61126  1  0
 64127  1  0
 64128  1  0
M  END
$$$$
[H]c1nc([H])c(-c2c([H])c([H])c([H])c3c2C([H])([H])C([H])([H])N3C(=O)N([H])c2c([H])c([H])c([H])c(C([H])([H])[H])c2[H])c([H])c1[H]
     RDKit          3D

 44 47  0  0  0  0  0  0  0  0999 V2000
    6.4746   -1.8029   -0.1182 C   0  0  0  0  0  0  0  0  0  0  0  0
    5.6716   -0.6190    0.2896 C   0  0  0  0  0  0  0  0  0  0  0  0
    6.2927    0.4309    0.9100 C   0  0  0  0  0  0  0  0  0  0  0  0
    5.5717    1.5151    1.2867 C   0  0  0  0  0  0  0  0  0  0  0  0
    4.1904    1.5587    1.0398 C   0  0  0  0  0  0  0  0  0  0  0  0
    3.5218    0.5314    0.4204 C   0  0  0  0  0  0  0  0  0  0  0  0
    2.1462    0.5007    0.1147 N   0  0  0  0  0  0  0  0  0  0  0  0
    1.2186    1.5354    0.0955 C   0  0  0  0  0  0  0  0  0  0  0  0
    1.6026    2.7152    0.3924 O   0  0  0  0  0  0  0  0  0  0  0  0
   -0.1508    1.4024   -0.2279 N   0  0  0  0  0  0  0  0  0  0  0  0
   -1.2113    2.4189   -0.0789 C   0  0  0  0  0  0  0  0  0  0  0  0
   -2.2566    1.5262    0.6255 C   0  0  0  0  0  0  0  0  0  0  0  0
   -2.1550    0.2938   -0.2252 C   0  0  0  0  0  0  0  0  0  0  0  0
   -0.8679    0.2723   -0.7295 C   0  0  0  0  0  0  0  0  0  0  0  0
   -0.4767   -0.7521   -1.5746 C   0  0  0  0  0  0  0  0  0  0  0  0
   -1.3364   -1.7702   -1.9373 C   0  0  0  0  0  0  0  0  0  0  0  0
   -2.6245   -1.7148   -1.4082 C   0  0  0  0  0  0  0  0  0  0  0  0
   -3.0425   -0.7038   -0.5632 C   0  0  0  0  0  0  0  0  0  0  0  0
   -4.4116   -0.7319   -0.0603 C   0  0  0  0  0  0  0  0  0  0  0  0
   -4.7389   -0.4942    1.2585 C   0  0  0  0  0  0  0  0  0  0  0  0
   -6.0729   -0.5440    1.6385 C   0  0  0  0  0  0  0  0  0  0  0  0
   -7.0860   -0.8228    0.7450 C   0  0  0  0  0  0  0  0  0  0  0  0
   -6.7336   -1.0498   -0.5333 N   0  0  0  0  0  0  0  0  0  0  0  0
   -5.4419   -1.0066   -0.9256 C   0  0  0  0  0  0  0  0  0  0  0  0
    4.3417   -0.5578    0.0608 C   0  0  0  0  0  0  0  0  0  0  0  0
    7.5555   -1.4908   -0.2081 H   0  0  0  0  0  0  0  0  0  0  0  0
    6.3991   -2.5974    0.6441 H   0  0  0  0  0  0  0  0  0  0  0  0
    6.1645   -2.1738   -1.1255 H   0  0  0  0  0  0  0  0  0  0  0  0
    7.3662    0.4000    1.1030 H   0  0  0  0  0  0  0  0  0  0  0  0
    5.9963    2.3754    1.7787 H   0  0  0  0  0  0  0  0  0  0  0  0
    3.6324    2.4367    1.3633 H   0  0  0  0  0  0  0  0  0  0  0  0
    1.7568   -0.4664   -0.1150 H   0  0  0  0  0  0  0  0  0  0  0  0
   -0.9040    3.2590    0.5374 H   0  0  0  0  0  0  0  0  0  0  0  0
   -1.6307    2.6532   -1.0630 H   0  0  0  0  0  0  0  0  0  0  0  0
   -3.2172    2.0295    0.5297 H   0  0  0  0  0  0  0  0  0  0  0  0
   -1.9150    1.3613    1.6474 H   0  0  0  0  0  0  0  0  0  0  0  0
    0.5041   -0.7681   -1.9771 H   0  0  0  0  0  0  0  0  0  0  0  0
   -1.0173   -2.5663   -2.5991 H   0  0  0  0  0  0  0  0  0  0  0  0
   -3.2975   -2.5038   -1.6863 H   0  0  0  0  0  0  0  0  0  0  0  0
   -3.9409   -0.2727    1.9716 H   0  0  0  0  0  0  0  0  0  0  0  0
   -6.3586   -0.3623    2.6632 H   0  0  0  0  0  0  0  0  0  0  0  0
   -8.1381   -0.8584    1.0630 H   0  0  0  0  0  0  0  0  0  0  0  0
   -5.2149   -1.1936   -1.9490 H   0  0  0  0  0  0  0  0  0  0  0  0
    3.8337   -1.3927   -0.4366 H   0  0  0  0  0  0  0  0  0  0  0  0
  1  2  1  0
  2  3  2  0
  3  4  1  0
  4  5  2  0
  5  6  1  0
  6  7  1  0
  7  8  1  0
  8  9  2  0
  8 10  1  0
 10 11  1  0
 11 12  1  0
 12 13  1  0
 13 14  2  0
 14 15  1  0
 15 16  2  0
 16 17  1  0
 17 18  2  0
 18 19  1  0
 19 20  2  0
 20 21  1  0
 21 22  2  0
 22 23  1  0
 23 24  2  0
  6 25  2  0
 25  2  1  0
 14 10  1  0
 24 19  1  0
 18 13  1  0
  1 26  1  0
  1 27  1  0
  1 28  1  0
  3 29  1  0
  4 30  1  0
  5 31  1  0
  7 32  1  0
 11 33  1  0
 11 34  1  0
 12 35  1  0
 12 36  1  0
 15 37  1  0
 16 38  1  0
 17 39  1  0
 20 40  1  0
 21 41  1  0
 22 42  1  0
 24 43  1  0
 25 44  1  0
M  END
$$$$
[H]N=C(N([H])[H])N([H])C([H])([H])C([H])([H])C([H])([H])[C@@]([H])(C(=O)N([H])[C@]([H])(C(=O)N([H])[H])C([H])([H])c1c([H])n([H])c2c([H])c([H])c([H])c([H])c12)N([H])C(=O)N([H])[C@@]1([H])C([H])([H])C([H])([H])C([H])([H])C([H])([H])C([H])([H])[C@@]1([H])N([H])C(=O)c1c([H])c([H])c(OC([H])([H])[H])c([H])c1[H]
     RDKit          3D

 92 95  0  0  0  0  0  0  0  0999 V2000
   11.9554   -2.4640   -1.7162 C   0  0  0  0  0  0  0  0  0  0  0  0
   10.7069   -3.1387   -1.8974 O   0  0  0  0  0  0  0  0  0  0  0  0
    9.5251   -2.6298   -1.4080 C   0  0  0  0  0  0  0  0  0  0  0  0
    8.3274   -3.3025   -1.6211 C   0  0  0  0  0  0  0  0  0  0  0  0
    7.1329   -2.8153   -1.1340 C   0  0  0  0  0  0  0  0  0  0  0  0
    7.0707   -1.6311   -0.4089 C   0  0  0  0  0  0  0  0  0  0  0  0
    8.2943   -0.9526   -0.1969 C   0  0  0  0  0  0  0  0  0  0  0  0
    9.4670   -1.4476   -0.6859 C   0  0  0  0  0  0  0  0  0  0  0  0
    5.9011   -1.1203    0.1982 C   0  0  0  0  0  0  0  0  0  0  0  0
    6.2094   -0.8301    1.5262 O   0  0  0  0  0  0  0  0  0  0  0  0
    4.6291   -0.8354   -0.0837 N   0  0  0  0  0  0  0  0  0  0  0  0
    3.6972   -0.2613    0.9432 C   0  0  2  0  0  0  0  0  0  0  0  0
    3.2596   -1.3285    1.8748 C   0  0  0  0  0  0  0  0  0  0  0  0
    2.8534   -0.7760    3.2159 C   0  0  0  0  0  0  0  0  0  0  0  0
    3.3917    0.6185    3.4845 C   0  0  0  0  0  0  0  0  0  0  0  0
    2.7006    1.7233    2.7842 C   0  0  0  0  0  0  0  0  0  0  0  0
    3.1196    2.0013    1.3563 C   0  0  0  0  0  0  0  0  0  0  0  0
    2.7419    0.7156    0.5151 C   0  0  2  0  0  0  0  0  0  0  0  0
    1.3367    0.6497    0.5721 N   0  0  0  0  0  0  0  0  0  0  0  0
    0.0052    0.5846    0.6276 C   0  0  0  0  0  0  0  0  0  0  0  0
   -0.7217   -0.2531    1.2339 O   0  0  0  0  0  0  0  0  0  0  0  0
   -0.8376    1.5909   -0.0796 N   0  0  0  0  0  0  0  0  0  0  0  0
   -2.2206    1.6792    0.0635 C   0  0  1  0  0  0  0  0  0  0  0  0
   -2.8700    2.9618   -0.1102 C   0  0  0  0  0  0  0  0  0  0  0  0
   -2.8749    3.7281   -1.3630 C   0  0  0  0  0  0  0  0  0  0  0  0
   -1.5898    4.2047   -1.9324 C   0  0  0  0  0  0  0  0  0  0  0  0
   -0.7505    5.0028   -1.1183 N   0  0  0  0  0  0  0  0  0  0  0  0
   -0.9272    6.3114   -0.6457 C   0  0  0  0  0  0  0  0  0  0  0  0
    0.2316    6.9837   -0.0972 N   0  0  0  0  0  0  0  0  0  0  0  0
   -2.0318    6.9413   -0.6598 N   0  0  0  0  0  0  0  0  0  0  0  0
   -2.9875    0.5167   -0.5216 C   0  0  0  0  0  0  0  0  0  0  0  0
   -2.3677   -0.4253   -1.0152 O   0  0  0  0  0  0  0  0  0  0  0  0
   -4.3778    0.5027   -0.4957 N   0  0  0  0  0  0  0  0  0  0  0  0
   -5.2569   -0.5960   -0.9562 C   0  0  1  0  0  0  0  0  0  0  0  0
   -6.3543   -0.7151    0.0335 C   0  0  0  0  0  0  0  0  0  0  0  0
   -7.3508   -1.7623   -0.1215 C   0  0  0  0  0  0  0  0  0  0  0  0
   -8.6256   -1.6920   -0.5908 C   0  0  0  0  0  0  0  0  0  0  0  0
   -9.2007   -2.8961   -0.5387 N   0  0  0  0  0  0  0  0  0  0  0  0
   -8.3348   -3.7909   -0.0366 C   0  0  0  0  0  0  0  0  0  0  0  0
   -8.4546   -5.1387    0.2234 C   0  0  0  0  0  0  0  0  0  0  0  0
   -7.3895   -5.8240    0.7672 C   0  0  0  0  0  0  0  0  0  0  0  0
   -6.2289   -5.1300    1.0332 C   0  0  0  0  0  0  0  0  0  0  0  0
   -6.1074   -3.7840    0.7725 C   0  0  0  0  0  0  0  0  0  0  0  0
   -7.1720   -3.1073    0.2313 C   0  0  0  0  0  0  0  0  0  0  0  0
   -5.6779   -0.3201   -2.3412 C   0  0  0  0  0  0  0  0  0  0  0  0
   -6.8280   -0.7209   -3.0145 N   0  0  0  0  0  0  0  0  0  0  0  0
   -4.8607    0.4077   -3.0531 O   0  0  0  0  0  0  0  0  0  0  0  0
   12.7759   -2.8932   -2.3021 H   0  0  0  0  0  0  0  0  0  0  0  0
   11.8413   -1.3862   -1.9933 H   0  0  0  0  0  0  0  0  0  0  0  0
   12.2604   -2.5101   -0.6578 H   0  0  0  0  0  0  0  0  0  0  0  0
    8.4232   -4.2397   -2.1843 H   0  0  0  0  0  0  0  0  0  0  0  0
    6.2140   -3.3644   -1.3185 H   0  0  0  0  0  0  0  0  0  0  0  0
    8.2563   -0.0549    0.3554 H   0  0  0  0  0  0  0  0  0  0  0  0
   10.4316   -0.9405   -0.5244 H   0  0  0  0  0  0  0  0  0  0  0  0
    4.2182   -0.9833   -1.0511 H   0  0  0  0  0  0  0  0  0  0  0  0
    4.5291    0.2949    1.5866 H   0  0  0  0  0  0  0  0  0  0  0  0
    4.1431   -2.0515    2.0268 H   0  0  0  0  0  0  0  0  0  0  0  0
    2.4933   -1.9639    1.4522 H   0  0  0  0  0  0  0  0  0  0  0  0
    3.2567   -1.4548    4.0085 H   0  0  0  0  0  0  0  0  0  0  0  0
    1.7639   -0.7038    3.3587 H   0  0  0  0  0  0  0  0  0  0  0  0
    3.1266    0.7660    4.5927 H   0  0  0  0  0  0  0  0  0  0  0  0
    4.5018    0.6734    3.5089 H   0  0  0  0  0  0  0  0  0  0  0  0
    2.9275    2.6586    3.3453 H   0  0  0  0  0  0  0  0  0  0  0  0
    1.6009    1.5507    2.8683 H   0  0  0  0  0  0  0  0  0  0  0  0
    2.5242    2.7931    0.9538 H   0  0  0  0  0  0  0  0  0  0  0  0
    4.1809    2.1151    1.2934 H   0  0  0  0  0  0  0  0  0  0  0  0
    2.9946    1.0036   -0.5636 H   0  0  0  0  0  0  0  0  0  0  0  0
    1.4248   -0.5963    1.0698 H   0  0  0  0  0  0  0  0  0  0  0  0
   -0.2330    2.1872   -0.6795 H   0  0  0  0  0  0  0  0  0  0  0  0
   -2.3657    1.4275    1.2294 H   0  0  0  0  0  0  0  0  0  0  0  0
   -2.4326    3.6959    0.6811 H   0  0  0  0  0  0  0  0  0  0  0  0
   -3.9503    2.9437    0.2754 H   0  0  0  0  0  0  0  0  0  0  0  0
   -3.3590    3.1236   -2.2226 H   0  0  0  0  0  0  0  0  0  0  0  0
   -3.5960    4.5882   -1.2817 H   0  0  0  0  0  0  0  0  0  0  0  0
   -0.9977    3.3983   -2.4589 H   0  0  0  0  0  0  0  0  0  0  0  0
   -1.9156    4.8763   -2.8313 H   0  0  0  0  0  0  0  0  0  0  0  0
    0.1725    4.5328   -0.8059 H   0  0  0  0  0  0  0  0  0  0  0  0
    0.8156    7.5424   -0.7555 H   0  0  0  0  0  0  0  0  0  0  0  0
    0.4228    6.8920    0.9022 H   0  0  0  0  0  0  0  0  0  0  0  0
   -2.9251    6.7123   -0.9597 H   0  0  0  0  0  0  0  0  0  0  0  0
   -4.9125    1.3188   -0.1296 H   0  0  0  0  0  0  0  0  0  0  0  0
   -4.6425   -1.4982   -0.9714 H   0  0  0  0  0  0  0  0  0  0  0  0
   -5.9285   -0.8616    1.0782 H   0  0  0  0  0  0  0  0  0  0  0  0
   -6.8599    0.2747    0.1190 H   0  0  0  0  0  0  0  0  0  0  0  0
   -9.1646   -0.8193   -0.9704 H   0  0  0  0  0  0  0  0  0  0  0  0
  -10.1615   -3.1613   -0.8232 H   0  0  0  0  0  0  0  0  0  0  0  0
   -9.3694   -5.6861    0.0199 H   0  0  0  0  0  0  0  0  0  0  0  0
   -7.4327   -6.8857    0.9915 H   0  0  0  0  0  0  0  0  0  0  0  0
   -5.3900   -5.7090    1.4723 H   0  0  0  0  0  0  0  0  0  0  0  0
   -5.1805   -3.2560    0.9935 H   0  0  0  0  0  0  0  0  0  0  0  0
   -7.6888   -0.0953   -3.1584 H   0  0  0  0  0  0  0  0  0  0  0  0
   -6.9509   -1.6893   -3.4219 H   0  0  0  0  0  0  0  0  0  0  0  0
  1  2  1  0
  2  3  1  0
  3  4  2  0
  4  5  1  0
  5  6  2  0
  6  7  1  0
  7  8  2  0
  6  9  1  0
  9 10  2  0
  9 11  1  0
 11 12  1  0
 12 13  1  0
 13 14  1  0
 14 15  1  0
 15 16  1  0
 16 17  1  0
 17 18  1  0
 18 19  1  0
 19 20  1  0
 20 21  2  0
 20 22  1  0
 22 23  1  0
 23 24  1  0
 24 25  1  0
 25 26  1  0
 26 27  1  0
 27 28  1  0
 28 29  1  0
 28 30  2  3
 23 31  1  0
 31 32  2  0
 31 33  1  0
 33 34  1  0
 34 35  1  0
 35 36  1  0
 36 37  2  0
 37 38  1  0
 38 39  1  0
 39 40  2  0
 40 41  1  0
 41 42  2  0
 42 43  1  0
 43 44  2  0
 34 45  1  0
 45 46  1  0
 45 47  2  0
  8  3  1  0
 18 12  1  0
 44 36  1  0
 44 39  1  0
  1 48  1  0
  1 49  1  0
  1 50  1  0
  4 51  1  0
  5 52  1  0
  7 53  1  0
  8 54  1  0
 11 55  1  0
 12 56  1  1
 13 57  1  0
 13 58  1  0
 14 59  1  0
 14 60  1  0
 15 61  1  0
 15 62  1  0
 16 63  1  0
 16 64  1  0
 17 65  1  0
 17 66  1  0
 18 67  1  6
 19 68  1  0
 22 69  1  0
 23 70  1  1
 24 71  1  0
 24 72  1  0
 25 73  1  0
 25 74  1  0
 26 75  1  0
 26 76  1  0
 27 77  1  0
 29 78  1  0
 29 79  1  0
 30 80  1  0
 33 81  1  0
 34 82  1  6
 35 83  1  0
 35 84  1  0
 37 85  1  0
 38 86  1  0
 40 87  1  0
 41 88  1  0
 42 89  1  0
 43 90  1  0
 46 91  1  0
 46 92  1  0
M  END
$$$$
[H]OC(=O)[C@@]([H])(N([H])C(=O)N1C([H])([H])C([H])([H])N(C([H])([H])[H])C([H])([H])C1([H])[H])C([H])([H])C(=O)N([H])C1([H])C([H])([H])C([H])([H])C([H])([H])C1([H])[H]
     RDKit          3D

 49 50  0  0  0  0  0  0  0  0999 V2000
    6.5406    0.8832    1.1319 C   0  0  0  0  0  0  0  0  0  0  0  0
    6.2982   -0.1069    0.1276 N   0  0  0  0  0  0  0  0  0  0  0  0
    5.4065    0.3372   -0.8916 C   0  0  0  0  0  0  0  0  0  0  0  0
    3.9928    0.6069   -0.4287 C   0  0  0  0  0  0  0  0  0  0  0  0
    3.5779   -0.4024    0.4970 N   0  0  0  0  0  0  0  0  0  0  0  0
    4.5191   -0.8914    1.4793 C   0  0  0  0  0  0  0  0  0  0  0  0
    5.7738   -1.3108    0.7455 C   0  0  0  0  0  0  0  0  0  0  0  0
    2.2640   -0.9333    0.4894 C   0  0  0  0  0  0  0  0  0  0  0  0
    1.9175   -1.8383    1.3126 O   0  0  0  0  0  0  0  0  0  0  0  0
    1.2826   -0.4876   -0.4239 N   0  0  0  0  0  0  0  0  0  0  0  0
   -0.0725   -1.0688   -0.3975 C   0  0  1  0  0  0  0  0  0  0  0  0
   -0.9865    0.0846   -0.1692 C   0  0  0  0  0  0  0  0  0  0  0  0
   -2.4097   -0.2233   -0.0620 C   0  0  0  0  0  0  0  0  0  0  0  0
   -2.8282   -1.4086   -0.0323 O   0  0  0  0  0  0  0  0  0  0  0  0
   -3.3972    0.7960    0.0142 N   0  0  0  0  0  0  0  0  0  0  0  0
   -4.7746    0.4733    0.1177 C   0  0  0  0  0  0  0  0  0  0  0  0
   -5.5958    1.0763   -1.0301 C   0  0  0  0  0  0  0  0  0  0  0  0
   -7.0040    0.8071   -0.5440 C   0  0  0  0  0  0  0  0  0  0  0  0
   -6.9241    0.9855    0.9396 C   0  0  0  0  0  0  0  0  0  0  0  0
   -5.4656    1.1000    1.3103 C   0  0  0  0  0  0  0  0  0  0  0  0
   -0.2166   -1.6953   -1.7477 C   0  0  0  0  0  0  0  0  0  0  0  0
   -1.3269   -2.3793   -2.1501 O   0  0  0  0  0  0  0  0  0  0  0  0
    0.7392   -1.6015   -2.5935 O   0  0  0  0  0  0  0  0  0  0  0  0
    6.8570    0.3852    2.0835 H   0  0  0  0  0  0  0  0  0  0  0  0
    7.4266    1.4954    0.8262 H   0  0  0  0  0  0  0  0  0  0  0  0
    5.7121    1.5853    1.2964 H   0  0  0  0  0  0  0  0  0  0  0  0
    5.7722    1.2654   -1.3766 H   0  0  0  0  0  0  0  0  0  0  0  0
    5.3488   -0.4694   -1.6757 H   0  0  0  0  0  0  0  0  0  0  0  0
    3.8744    1.6384   -0.0347 H   0  0  0  0  0  0  0  0  0  0  0  0
    3.3802    0.5940   -1.3683 H   0  0  0  0  0  0  0  0  0  0  0  0
    4.7122   -0.0467    2.1730 H   0  0  0  0  0  0  0  0  0  0  0  0
    4.0982   -1.7685    2.0035 H   0  0  0  0  0  0  0  0  0  0  0  0
    5.4698   -2.0024   -0.0771 H   0  0  0  0  0  0  0  0  0  0  0  0
    6.5215   -1.7882    1.4077 H   0  0  0  0  0  0  0  0  0  0  0  0
    1.4578    0.2378   -1.1225 H   0  0  0  0  0  0  0  0  0  0  0  0
   -0.0965   -1.8152    0.3950 H   0  0  0  0  0  0  0  0  0  0  0  0
   -0.7738    0.8769   -0.9302 H   0  0  0  0  0  0  0  0  0  0  0  0
   -0.6826    0.5689    0.8045 H   0  0  0  0  0  0  0  0  0  0  0  0
   -3.0793    1.7834   -0.0083 H   0  0  0  0  0  0  0  0  0  0  0  0
   -5.0003   -0.5989    0.1334 H   0  0  0  0  0  0  0  0  0  0  0  0
   -5.3611    0.5342   -1.9665 H   0  0  0  0  0  0  0  0  0  0  0  0
   -5.4422    2.1544   -1.0814 H   0  0  0  0  0  0  0  0  0  0  0  0
   -7.2038   -0.2726   -0.7598 H   0  0  0  0  0  0  0  0  0  0  0  0
   -7.7550    1.4627   -1.0307 H   0  0  0  0  0  0  0  0  0  0  0  0
   -7.3172    0.0746    1.4705 H   0  0  0  0  0  0  0  0  0  0  0  0
   -7.4634    1.9030    1.2882 H   0  0  0  0  0  0  0  0  0  0  0  0
   -5.1778    2.1754    1.3279 H   0  0  0  0  0  0  0  0  0  0  0  0
   -5.2161    0.5852    2.2482 H   0  0  0  0  0  0  0  0  0  0  0  0
   -1.3719   -3.3609   -2.3104 H   0  0  0  0  0  0  0  0  0  0  0  0
  1  2  1  0
  2  3  1  0
  3  4  1  0
  4  5  1  0
  5  6  1  0
  6  7  1  0
  5  8  1  0
  8  9  2  0
  8 10  1  0
 10 11  1  0
 11 12  1  0
 12 13  1  0
 13 14  2  0
 13 15  1  0
 15 16  1  0
 16 17  1  0
 17 18  1  0
 18 19  1  0
 19 20  1  0
 11 21  1  0
 21 22  1  0
 21 23  2  0
  7  2  1  0
 20 16  1  0
  1 24  1  0
  1 25  1  0
  1 26  1  0
  3 27  1  0
  3 28  1  0
  4 29  1  0
  4 30  1  0
  6 31  1  0
  6 32  1  0
  7 33  1  0
  7 34  1  0
 10 35  1  0
 11 36  1  1
 12 37  1  0
 12 38  1  0
 15 39  1  0
 16 40  1  0
 17 41  1  0
 17 42  1  0
 18 43  1  0
 18 44  1  0
 19 45  1  0
 19 46  1  0
 20 47  1  0
 20 48  1  0
 22 49  1  0
M  END
$$$$
[H]SC([H])([H])C([H])([H])[C@@]([H])(C(=O)N([H])C([H])([H])[H])N([H])C(=O)[C@]([H])(N([H])C(=O)[C@]([H])(C(=O)c1c([H])c([H])c([H])c([H])c1[H])C([H])([H])[C@]([H])(C(=O)N([H])[H])C([H])([H])C([H])([H])C([H])([H])C([H])([H])C([H])([H])C([H])([H])C([H])([H])C([H])([H])C([H])([H])C([H])([H])C([H])([H])C([H])([H])[H])C([H])([H])c1c([H])c([H])c(-c2c([H])c([H])c([H])c([H])c2[H])c([H])c1[H]
     RDKit          3D

114116  0  0  0  0  0  0  0  0999 V2000
   11.8691    0.3457    1.5720 C   0  0  0  0  0  0  0  0  0  0  0  0
   11.9280    1.7079    0.9053 C   0  0  0  0  0  0  0  0  0  0  0  0
   11.1524    1.5386   -0.4023 C   0  0  0  0  0  0  0  0  0  0  0  0
    9.7372    1.0355   -0.0359 C   0  0  0  0  0  0  0  0  0  0  0  0
    9.0264    0.8784   -1.3286 C   0  0  0  0  0  0  0  0  0  0  0  0
    7.6696    0.2094   -1.2479 C   0  0  0  0  0  0  0  0  0  0  0  0
    7.9337   -1.1883   -0.6808 C   0  0  0  0  0  0  0  0  0  0  0  0
    6.6579   -2.0062   -0.6757 C   0  0  0  0  0  0  0  0  0  0  0  0
    5.5938   -1.3823    0.1872 C   0  0  0  0  0  0  0  0  0  0  0  0
    4.3054   -2.1122    0.0304 C   0  0  0  0  0  0  0  0  0  0  0  0
    3.8578   -2.0870   -1.4496 C   0  0  0  0  0  0  0  0  0  0  0  0
    2.3666   -1.6906   -1.4410 C   0  0  0  0  0  0  0  0  0  0  0  0
    2.3185   -0.2974   -0.8605 C   0  0  2  0  0  0  0  0  0  0  0  0
    0.9555    0.2109   -0.6123 C   0  0  0  0  0  0  0  0  0  0  0  0
    0.0839   -0.5577    0.2463 C   0  0  2  0  0  0  0  0  0  0  0  0
   -1.2410    0.2164    0.4400 C   0  0  0  0  0  0  0  0  0  0  0  0
   -1.2359    0.8359    1.5459 O   0  0  0  0  0  0  0  0  0  0  0  0
   -2.2013    0.1864   -0.4828 N   0  0  0  0  0  0  0  0  0  0  0  0
   -3.2061    0.1658   -1.4297 C   0  0  2  0  0  0  0  0  0  0  0  0
   -3.8277    1.4212   -1.9185 C   0  0  0  0  0  0  0  0  0  0  0  0
   -4.4240    2.3626   -0.9861 C   0  0  0  0  0  0  0  0  0  0  0  0
   -3.9941    3.7248   -0.9646 C   0  0  0  0  0  0  0  0  0  0  0  0
   -4.5775    4.6331   -0.1344 C   0  0  0  0  0  0  0  0  0  0  0  0
   -5.5986    4.3101    0.7253 C   0  0  0  0  0  0  0  0  0  0  0  0
   -6.0013    2.9886    0.7132 C   0  0  0  0  0  0  0  0  0  0  0  0
   -5.4381    2.0163   -0.1175 C   0  0  0  0  0  0  0  0  0  0  0  0
   -6.3079    5.2752    1.5641 C   0  0  0  0  0  0  0  0  0  0  0  0
   -7.2046    4.8828    2.5238 C   0  0  0  0  0  0  0  0  0  0  0  0
   -7.9656    5.8352    3.2572 C   0  0  0  0  0  0  0  0  0  0  0  0
   -7.8154    7.1719    3.0179 C   0  0  0  0  0  0  0  0  0  0  0  0
   -6.9173    7.5886    2.0542 C   0  0  0  0  0  0  0  0  0  0  0  0
   -6.1727    6.6232    1.3377 C   0  0  0  0  0  0  0  0  0  0  0  0
   -4.2644   -0.8857   -1.0447 C   0  0  0  0  0  0  0  0  0  0  0  0
   -4.1896   -1.2408    0.1756 O   0  0  0  0  0  0  0  0  0  0  0  0
   -5.1733   -1.3861   -1.9251 N   0  0  0  0  0  0  0  0  0  0  0  0
   -6.2545   -2.3460   -1.8001 C   0  0  1  0  0  0  0  0  0  0  0  0
   -6.0737   -3.4571   -2.7192 C   0  0  0  0  0  0  0  0  0  0  0  0
   -7.2596   -4.3856   -2.7663 C   0  0  0  0  0  0  0  0  0  0  0  0
   -8.6963   -3.3747   -3.4139 S   0  0  0  0  0  0  0  0  0  0  0  0
   -6.4843   -2.6318   -0.3624 C   0  0  0  0  0  0  0  0  0  0  0  0
   -6.7354   -1.6325    0.3984 O   0  0  0  0  0  0  0  0  0  0  0  0
   -6.4516   -3.8908    0.2571 N   0  0  0  0  0  0  0  0  0  0  0  0
   -6.7323   -4.0225    1.7294 C   0  0  0  0  0  0  0  0  0  0  0  0
    0.4415   -0.9568    1.5861 C   0  0  0  0  0  0  0  0  0  0  0  0
    1.4012   -0.6519    2.3034 O   0  0  0  0  0  0  0  0  0  0  0  0
   -0.5366   -1.8888    2.2342 C   0  0  0  0  0  0  0  0  0  0  0  0
   -0.6083   -1.9611    3.5970 C   0  0  0  0  0  0  0  0  0  0  0  0
   -1.4718   -2.8271    4.2795 C   0  0  0  0  0  0  0  0  0  0  0  0
   -2.2787   -3.6510    3.4994 C   0  0  0  0  0  0  0  0  0  0  0  0
   -2.2068   -3.5940    2.1413 C   0  0  0  0  0  0  0  0  0  0  0  0
   -1.3390   -2.7113    1.5028 C   0  0  0  0  0  0  0  0  0  0  0  0
    2.7869    0.5964   -2.0176 C   0  0  0  0  0  0  0  0  0  0  0  0
    2.7507    1.9702   -1.8156 N   0  0  0  0  0  0  0  0  0  0  0  0
    3.1827    0.1301   -3.0796 O   0  0  0  0  0  0  0  0  0  0  0  0
   11.0702    0.4287    2.3560 H   0  0  0  0  0  0  0  0  0  0  0  0
   11.6648   -0.4710    0.8802 H   0  0  0  0  0  0  0  0  0  0  0  0
   12.8369    0.1862    2.1310 H   0  0  0  0  0  0  0  0  0  0  0  0
   12.9865    1.9857    0.6550 H   0  0  0  0  0  0  0  0  0  0  0  0
   11.4642    2.4443    1.5150 H   0  0  0  0  0  0  0  0  0  0  0  0
   11.6057    0.7087   -0.9983 H   0  0  0  0  0  0  0  0  0  0  0  0
   11.1154    2.4395   -1.0051 H   0  0  0  0  0  0  0  0  0  0  0  0
    9.8133    0.1925    0.6334 H   0  0  0  0  0  0  0  0  0  0  0  0
    9.3013    1.8799    0.5424 H   0  0  0  0  0  0  0  0  0  0  0  0
    8.9294    1.8946   -1.7896 H   0  0  0  0  0  0  0  0  0  0  0  0
    9.6100    0.2756   -2.0471 H   0  0  0  0  0  0  0  0  0  0  0  0
    7.0387    0.7693   -0.5116 H   0  0  0  0  0  0  0  0  0  0  0  0
    7.2356    0.1647   -2.2543 H   0  0  0  0  0  0  0  0  0  0  0  0
    8.3113   -1.0688    0.3622 H   0  0  0  0  0  0  0  0  0  0  0  0
    8.6669   -1.6826   -1.2773 H   0  0  0  0  0  0  0  0  0  0  0  0
    6.9119   -2.9840   -0.1681 H   0  0  0  0  0  0  0  0  0  0  0  0
    6.2839   -2.2926   -1.6535 H   0  0  0  0  0  0  0  0  0  0  0  0
    5.8753   -1.4327    1.2889 H   0  0  0  0  0  0  0  0  0  0  0  0
    5.4097   -0.3252   -0.1196 H   0  0  0  0  0  0  0  0  0  0  0  0
    3.4840   -1.8064    0.6462 H   0  0  0  0  0  0  0  0  0  0  0  0
    4.5406   -3.2016    0.2827 H   0  0  0  0  0  0  0  0  0  0  0  0
    4.5089   -1.4280   -1.9912 H   0  0  0  0  0  0  0  0  0  0  0  0
    3.9125   -3.1064   -1.8264 H   0  0  0  0  0  0  0  0  0  0  0  0
    2.1093   -1.6345   -2.5024 H   0  0  0  0  0  0  0  0  0  0  0  0
    1.8132   -2.4480   -0.9338 H   0  0  0  0  0  0  0  0  0  0  0  0
    3.0564   -0.0666   -0.1015 H   0  0  0  0  0  0  0  0  0  0  0  0
    0.4646    0.3763   -1.6539 H   0  0  0  0  0  0  0  0  0  0  0  0
    1.0546    1.2324   -0.2109 H   0  0  0  0  0  0  0  0  0  0  0  0
   -0.2520   -1.4575   -0.3167 H   0  0  0  0  0  0  0  0  0  0  0  0
   -3.0179    0.9950    0.3197 H   0  0  0  0  0  0  0  0  0  0  0  0
   -2.7537   -0.3046   -2.4351 H   0  0  0  0  0  0  0  0  0  0  0  0
   -3.0682    1.9916   -2.5519 H   0  0  0  0  0  0  0  0  0  0  0  0
   -4.6089    1.1841   -2.6947 H   0  0  0  0  0  0  0  0  0  0  0  0
   -3.2008    4.0208   -1.6608 H   0  0  0  0  0  0  0  0  0  0  0  0
   -4.1972    5.6737   -0.1990 H   0  0  0  0  0  0  0  0  0  0  0  0
   -6.7713    2.6121    1.3842 H   0  0  0  0  0  0  0  0  0  0  0  0
   -5.8005    1.0050   -0.0617 H   0  0  0  0  0  0  0  0  0  0  0  0
   -7.3524    3.8515    2.7590 H   0  0  0  0  0  0  0  0  0  0  0  0
   -8.6832    5.4108    4.0018 H   0  0  0  0  0  0  0  0  0  0  0  0
   -8.4027    7.8700    3.5732 H   0  0  0  0  0  0  0  0  0  0  0  0
   -6.8006    8.6334    1.8758 H   0  0  0  0  0  0  0  0  0  0  0  0
   -5.4518    6.9898    0.5895 H   0  0  0  0  0  0  0  0  0  0  0  0
   -5.0940   -0.9989   -2.9470 H   0  0  0  0  0  0  0  0  0  0  0  0
   -7.1803   -1.7529   -2.0715 H   0  0  0  0  0  0  0  0  0  0  0  0
   -5.1913   -4.1286   -2.4514 H   0  0  0  0  0  0  0  0  0  0  0  0
   -5.8999   -3.0640   -3.7502 H   0  0  0  0  0  0  0  0  0  0  0  0
   -7.5901   -4.8738   -1.8673 H   0  0  0  0  0  0  0  0  0  0  0  0
   -7.0667   -5.1478   -3.5635 H   0  0  0  0  0  0  0  0  0  0  0  0
   -8.1933   -2.3672   -4.2861 H   0  0  0  0  0  0  0  0  0  0  0  0
   -6.2246   -4.7821   -0.2499 H   0  0  0  0  0  0  0  0  0  0  0  0
   -5.7158   -4.0572    2.1757 H   0  0  0  0  0  0  0  0  0  0  0  0
   -7.1689   -3.0764    2.0634 H   0  0  0  0  0  0  0  0  0  0  0  0
   -7.3514   -4.8876    1.9167 H   0  0  0  0  0  0  0  0  0  0  0  0
    0.0143   -1.3282    4.2276 H   0  0  0  0  0  0  0  0  0  0  0  0
   -1.4902   -2.8373    5.3415 H   0  0  0  0  0  0  0  0  0  0  0  0
   -2.9351   -4.3102    4.0193 H   0  0  0  0  0  0  0  0  0  0  0  0
   -2.8605   -4.2408    1.5259 H   0  0  0  0  0  0  0  0  0  0  0  0
   -1.3358   -2.7222    0.4518 H   0  0  0  0  0  0  0  0  0  0  0  0
    2.1822    2.5945   -2.4474 H   0  0  0  0  0  0  0  0  0  0  0  0
    3.2537    2.4304   -1.0312 H   0  0  0  0  0  0  0  0  0  0  0  0
  1  2  1  0
  2  3  1  0
  3  4  1  0
  4  5  1  0
  5  6  1  0
  6  7  1  0
  7  8  1  0
  8  9  1  0
  9 10  1  0
 10 11  1  0
 11 12  1  0
 12 13  1  0
 13 14  1  0
 14 15  1  0
 15 16  1  0
 16 17  2  0
 16 18  1  0
 18 19  1  0
 19 20  1  0
 20 21  1  0
 21 22  2  0
 22 23  1  0
 23 24  2  0
 24 25  1  0
 25 26  2  0
 24 27  1  0
 27 28  2  0
 28 29  1  0
 29 30  2  0
 30 31  1  0
 31 32  2  0
 19 33  1  0
 33 34  2  0
 33 35  1  0
 35 36  1  0
 36 37  1  0
 37 38  1  0
 38 39  1  0
 36 40  1  0
 40 41  2  0
 40 42  1  0
 42 43  1  0
 15 44  1  0
 44 45  2  0
 44 46  1  0
 46 47  2  0
 47 48  1  0
 48 49  2  0
 49 50  1  0
 50 51  2  0
 13 52  1  0
 52 53  1  0
 52 54  2  0
 26 21  1  0
 32 27  1  0
 51 46  1  0
  1 55  1  0
  1 56  1  0
  1 57  1  0
  2 58  1  0
  2 59  1  0
  3 60  1  0
  3 61  1  0
  4 62  1  0
  4 63  1  0
  5 64  1  0
  5 65  1  0
  6 66  1  0
  6 67  1  0
  7 68  1  0
  7 69  1  0
  8 70  1  0
  8 71  1  0
  9 72  1  0
  9 73  1  0
 10 74  1  0
 10 75  1  0
 11 76  1  0
 11 77  1  0
 12 78  1  0
 12 79  1  0
 13 80  1  1
 14 81  1  0
 14 82  1  0
 15 83  1  6
 18 84  1  0
 19 85  1  6
 20 86  1  0
 20 87  1  0
 22 88  1  0
 23 89  1  0
 25 90  1  0
 26 91  1  0
 28 92  1  0
 29 93  1  0
 30 94  1  0
 31 95  1  0
 32 96  1  0
 35 97  1  0
 36 98  1  6
 37 99  1  0
 37100  1  0
 38101  1  0
 38102  1  0
 39103  1  0
 42104  1  0
 43105  1  0
 43106  1  0
 43107  1  0
 47108  1  0
 48109  1  0
 49110  1  0
 50111  1  0
 51112  1  0
 53113  1  0
 53114  1  0
M  END
$$$$
[H]c1c([H])c([H])c2c([H])c(C([H])([H])N3C([H])([H])C([H])([H])C([H])(C4=NC([H])([H])C([H])([H])N4[H])C([H])([H])C3([H])[H])oc2c1[H]
     RDKit          3D

 42 45  0  0  0  0  0  0  0  0999 V2000
   -5.7501    0.2368    1.0097 C   0  0  0  0  0  0  0  0  0  0  0  0
   -5.7570    1.5110    0.1907 C   0  0  0  0  0  0  0  0  0  0  0  0
   -4.3995    1.6265   -0.2245 N   0  0  0  0  0  0  0  0  0  0  0  0
   -3.7174    0.5662   -0.0475 C   0  0  0  0  0  0  0  0  0  0  0  0
   -4.5580   -0.4198    0.5247 N   0  0  0  0  0  0  0  0  0  0  0  0
   -2.2710    0.4425   -0.4047 C   0  0  0  0  0  0  0  0  0  0  0  0
   -2.0932   -0.6594   -1.4206 C   0  0  0  0  0  0  0  0  0  0  0  0
   -1.0655   -1.6796   -0.9540 C   0  0  0  0  0  0  0  0  0  0  0  0
    0.1634   -0.9620   -0.7009 N   0  0  0  0  0  0  0  0  0  0  0  0
    1.2789   -1.8472   -0.4572 C   0  0  0  0  0  0  0  0  0  0  0  0
    2.4811   -0.9906   -0.2247 C   0  0  0  0  0  0  0  0  0  0  0  0
    3.7664   -1.4460    0.0924 C   0  0  0  0  0  0  0  0  0  0  0  0
    4.6025   -0.3588    0.2294 C   0  0  0  0  0  0  0  0  0  0  0  0
    5.9329   -0.1709    0.5246 C   0  0  0  0  0  0  0  0  0  0  0  0
    6.4802    1.0887    0.5868 C   0  0  0  0  0  0  0  0  0  0  0  0
    5.6386    2.1560    0.3406 C   0  0  0  0  0  0  0  0  0  0  0  0
    4.3089    2.0314    0.0424 C   0  0  0  0  0  0  0  0  0  0  0  0
    3.7858    0.7364   -0.0125 C   0  0  0  0  0  0  0  0  0  0  0  0
    2.5922    0.3141   -0.2646 O   0  0  0  0  0  0  0  0  0  0  0  0
    0.0139    0.0316    0.3376 C   0  0  0  0  0  0  0  0  0  0  0  0
   -1.4432    0.1158    0.8106 C   0  0  0  0  0  0  0  0  0  0  0  0
   -6.6724   -0.3613    0.8364 H   0  0  0  0  0  0  0  0  0  0  0  0
   -5.6752    0.5177    2.0844 H   0  0  0  0  0  0  0  0  0  0  0  0
   -6.4849    1.4695   -0.6280 H   0  0  0  0  0  0  0  0  0  0  0  0
   -5.9957    2.4047    0.8325 H   0  0  0  0  0  0  0  0  0  0  0  0
   -4.3343   -1.4521    0.5781 H   0  0  0  0  0  0  0  0  0  0  0  0
   -1.9007    1.3974   -0.8228 H   0  0  0  0  0  0  0  0  0  0  0  0
   -1.7183   -0.2314   -2.3814 H   0  0  0  0  0  0  0  0  0  0  0  0
   -3.0505   -1.1791   -1.6259 H   0  0  0  0  0  0  0  0  0  0  0  0
   -0.8590   -2.3443   -1.8383 H   0  0  0  0  0  0  0  0  0  0  0  0
   -1.4275   -2.2708   -0.1164 H   0  0  0  0  0  0  0  0  0  0  0  0
    1.4493   -2.5666   -1.2552 H   0  0  0  0  0  0  0  0  0  0  0  0
    1.0445   -2.4301    0.4713 H   0  0  0  0  0  0  0  0  0  0  0  0
    4.0602   -2.4697    0.2110 H   0  0  0  0  0  0  0  0  0  0  0  0
    6.5714   -1.0151    0.7130 H   0  0  0  0  0  0  0  0  0  0  0  0
    7.5278    1.1806    0.8220 H   0  0  0  0  0  0  0  0  0  0  0  0
    6.0498    3.1507    0.3849 H   0  0  0  0  0  0  0  0  0  0  0  0
    3.6675    2.8756   -0.1467 H   0  0  0  0  0  0  0  0  0  0  0  0
    0.6727   -0.2284    1.1737 H   0  0  0  0  0  0  0  0  0  0  0  0
    0.2613    1.0527   -0.0052 H   0  0  0  0  0  0  0  0  0  0  0  0
   -1.7011   -0.8248    1.2953 H   0  0  0  0  0  0  0  0  0  0  0  0
   -1.4749    1.0024    1.4968 H   0  0  0  0  0  0  0  0  0  0  0  0
  1  2  1  0
  2  3  1  0
  3  4  2  0
  4  5  1  0
  4  6  1  0
  6  7  1  0
  7  8  1  0
  8  9  1  0
  9 10  1  0
 10 11  1  0
 11 12  2  0
 12 13  1  0
 13 14  2  0
 14 15  1  0
 15 16  2  0
 16 17  1  0
 17 18  2  0
 18 19  1  0
  9 20  1  0
 20 21  1  0
  5  1  1  0
 21  6  1  0
 19 11  1  0
 18 13  1  0
  1 22  1  0
  1 23  1  0
  2 24  1  0
  2 25  1  0
  5 26  1  0
  6 27  1  0
  7 28  1  0
  7 29  1  0
  8 30  1  0
  8 31  1  0
 10 32  1  0
 10 33  1  0
 12 34  1  0
 14 35  1  0
 15 36  1  0
 16 37  1  0
 17 38  1  0
 20 39  1  0
 20 40  1  0
 21 41  1  0
 21 42  1  0
M  END
$$$$
[H]c1c([H])c(Cl)c(F)c([C@@]2([H])N(c3nc(N4C(=O)C([H])([H])C([H])([H])C4([H])[H])nc(OC([H])([H])[H])c3N([H])c3c([H])c([H])c(C#N)c([H])c3[H])[C@]([H])(C([H])([H])[H])C([H])([H])[C@]2([H])c2c([H])c([H])c(Cl)c([H])c2[H])c1[H]
     RDKit          3D

 73 78  0  0  0  0  0  0  0  0999 V2000
   -5.1918    0.6983    2.0411 C   0  0  0  0  0  0  0  0  0  0  0  0
   -3.9089    0.9522    1.6648 O   0  0  0  0  0  0  0  0  0  0  0  0
   -2.9367    0.1448    1.1241 C   0  0  0  0  0  0  0  0  0  0  0  0
   -3.1380   -1.1337    0.8577 N   0  0  0  0  0  0  0  0  0  0  0  0
   -2.1433   -1.8627    0.3413 C   0  0  0  0  0  0  0  0  0  0  0  0
   -0.9534   -1.3268    0.0974 N   0  0  0  0  0  0  0  0  0  0  0  0
   -0.6560    0.0039    0.3444 C   0  0  0  0  0  0  0  0  0  0  0  0
   -1.6802    0.7212    0.8581 C   0  0  0  0  0  0  0  0  0  0  0  0
   -1.6424    2.1066    1.1397 N   0  0  0  0  0  0  0  0  0  0  0  0
   -2.1373    3.1301    0.2945 C   0  0  0  0  0  0  0  0  0  0  0  0
   -3.0067    2.8535   -0.7376 C   0  0  0  0  0  0  0  0  0  0  0  0
   -3.4321    3.9210   -1.5317 C   0  0  0  0  0  0  0  0  0  0  0  0
   -3.0132    5.2142   -1.3145 C   0  0  0  0  0  0  0  0  0  0  0  0
   -2.1322    5.4806   -0.2686 C   0  0  0  0  0  0  0  0  0  0  0  0
   -1.7216    4.4215    0.5052 C   0  0  0  0  0  0  0  0  0  0  0  0
   -3.4856    6.3099   -2.1546 C   0  0  0  0  0  0  0  0  0  0  0  0
   -3.8675    7.1842   -2.8059 N   0  0  0  0  0  0  0  0  0  0  0  0
    0.6789    0.4436    0.0665 N   0  0  0  0  0  0  0  0  0  0  0  0
    1.8696   -0.2403    0.4177 C   0  0  1  0  0  0  0  0  0  0  0  0
    3.0611    0.3897   -0.1434 C   0  0  2  0  0  0  0  0  0  0  0  0
    2.5694    1.7830   -0.5535 C   0  0  0  0  0  0  0  0  0  0  0  0
    1.0705    1.5748   -0.7090 C   0  0  1  0  0  0  0  0  0  0  0  0
    0.7636    1.2992   -2.1837 C   0  0  0  0  0  0  0  0  0  0  0  0
    3.9365   -0.1224   -1.1392 C   0  0  0  0  0  0  0  0  0  0  0  0
    4.0076   -1.3467   -1.7402 C   0  0  0  0  0  0  0  0  0  0  0  0
    4.9659   -1.6858   -2.6686 C   0  0  0  0  0  0  0  0  0  0  0  0
    5.9318   -0.7578   -3.0461 C   0  0  0  0  0  0  0  0  0  0  0  0
    7.1831   -1.1451   -4.2123 Cl  0  0  0  0  0  0  0  0  0  0  0  0
    5.8891    0.4868   -2.4680 C   0  0  0  0  0  0  0  0  0  0  0  0
    4.9404    0.7899   -1.5606 C   0  0  0  0  0  0  0  0  0  0  0  0
    2.1783   -0.6183    1.7994 C   0  0  0  0  0  0  0  0  0  0  0  0
    2.9977   -1.7670    1.9766 C   0  0  0  0  0  0  0  0  0  0  0  0
    3.2559   -2.3378    3.1772 C   0  0  0  0  0  0  0  0  0  0  0  0
    2.7061   -1.7998    4.3270 C   0  0  0  0  0  0  0  0  0  0  0  0
    1.9069   -0.6860    4.2090 C   0  0  0  0  0  0  0  0  0  0  0  0
    1.2134    0.0299    5.6473 Cl  0  0  0  0  0  0  0  0  0  0  0  0
    1.6623   -0.1193    2.9518 C   0  0  0  0  0  0  0  0  0  0  0  0
    0.9795    1.0440    3.0047 F   0  0  0  0  0  0  0  0  0  0  0  0
   -2.4909   -3.2293    0.0168 N   0  0  0  0  0  0  0  0  0  0  0  0
   -1.7089   -4.1345   -0.8330 C   0  0  0  0  0  0  0  0  0  0  0  0
   -2.7170   -5.1333   -1.3767 C   0  0  0  0  0  0  0  0  0  0  0  0
   -3.6394   -5.2971   -0.1948 C   0  0  0  0  0  0  0  0  0  0  0  0
   -3.6404   -3.9587    0.4102 C   0  0  0  0  0  0  0  0  0  0  0  0
   -4.5351   -3.5285    1.1667 O   0  0  0  0  0  0  0  0  0  0  0  0
   -5.5659   -0.3308    1.9099 H   0  0  0  0  0  0  0  0  0  0  0  0
   -5.9021    1.4000    1.5327 H   0  0  0  0  0  0  0  0  0  0  0  0
   -5.3494    0.8830    3.1695 H   0  0  0  0  0  0  0  0  0  0  0  0
   -1.2330    2.4058    2.0581 H   0  0  0  0  0  0  0  0  0  0  0  0
   -3.3732    1.8688   -0.9679 H   0  0  0  0  0  0  0  0  0  0  0  0
   -4.1205    3.6823   -2.3341 H   0  0  0  0  0  0  0  0  0  0  0  0
   -1.8139    6.5016   -0.1271 H   0  0  0  0  0  0  0  0  0  0  0  0
   -1.0274    4.6399    1.3293 H   0  0  0  0  0  0  0  0  0  0  0  0
    1.7020   -1.2780   -0.1261 H   0  0  0  0  0  0  0  0  0  0  0  0
    3.7845    0.6845    0.7438 H   0  0  0  0  0  0  0  0  0  0  0  0
    2.7901    2.5625    0.1951 H   0  0  0  0  0  0  0  0  0  0  0  0
    2.9632    2.1143   -1.5248 H   0  0  0  0  0  0  0  0  0  0  0  0
    0.6337    2.5357   -0.4844 H   0  0  0  0  0  0  0  0  0  0  0  0
    0.9927    2.2752   -2.7059 H   0  0  0  0  0  0  0  0  0  0  0  0
    1.3788    0.4797   -2.5868 H   0  0  0  0  0  0  0  0  0  0  0  0
   -0.3110    1.1145   -2.2662 H   0  0  0  0  0  0  0  0  0  0  0  0
    3.2530   -2.0582   -1.4298 H   0  0  0  0  0  0  0  0  0  0  0  0
    5.0072   -2.6633   -3.1247 H   0  0  0  0  0  0  0  0  0  0  0  0
    6.6530    1.2321   -2.7605 H   0  0  0  0  0  0  0  0  0  0  0  0
    4.9530    1.8062   -1.1346 H   0  0  0  0  0  0  0  0  0  0  0  0
    3.4356   -2.2245    1.1038 H   0  0  0  0  0  0  0  0  0  0  0  0
    3.8823   -3.2282    3.3099 H   0  0  0  0  0  0  0  0  0  0  0  0
    2.9174   -2.2627    5.2896 H   0  0  0  0  0  0  0  0  0  0  0  0
   -1.3212   -3.5914   -1.7262 H   0  0  0  0  0  0  0  0  0  0  0  0
   -0.9594   -4.6830   -0.2688 H   0  0  0  0  0  0  0  0  0  0  0  0
   -2.2452   -6.1318   -1.5580 H   0  0  0  0  0  0  0  0  0  0  0  0
   -3.2617   -4.7733   -2.2566 H   0  0  0  0  0  0  0  0  0  0  0  0
   -3.2424   -6.0719    0.5175 H   0  0  0  0  0  0  0  0  0  0  0  0
   -4.6093   -5.6405   -0.5734 H   0  0  0  0  0  0  0  0  0  0  0  0
  1  2  1  0
  2  3  1  0
  3  4  2  0
  4  5  1  0
  5  6  2  0
  6  7  1  0
  7  8  2  0
  8  9  1  0
  9 10  1  0
 10 11  2  0
 11 12  1  0
 12 13  2  0
 13 14  1  0
 14 15  2  0
 13 16  1  0
 16 17  3  0
  7 18  1  0
 18 19  1  0
 19 20  1  0
 20 21  1  0
 21 22  1  0
 22 23  1  0
 20 24  1  0
 24 25  2  0
 25 26  1  0
 26 27  2  0
 27 28  1  0
 27 29  1  0
 29 30  2  0
 19 31  1  0
 31 32  2  0
 32 33  1  0
 33 34  2  0
 34 35  1  0
 35 36  1  0
 35 37  2  0
 37 38  1  0
  5 39  1  0
 39 40  1  0
 40 41  1  0
 41 42  1  0
 42 43  1  0
 43 44  2  0
  8  3  1  0
 15 10  1  0
 22 18  1  0
 30 24  1  0
 37 31  1  0
 43 39  1  0
  1 45  1  0
  1 46  1  0
  1 47  1  0
  9 48  1  0
 11 49  1  0
 12 50  1  0
 14 51  1  0
 15 52  1  0
 19 53  1  6
 20 54  1  1
 21 55  1  0
 21 56  1  0
 22 57  1  1
 23 58  1  0
 23 59  1  0
 23 60  1  0
 25 61  1  0
 26 62  1  0
 29 63  1  0
 30 64  1  0
 32 65  1  0
 33 66  1  0
 34 67  1  0
 40 68  1  0
 40 69  1  0
 41 70  1  0
 41 71  1  0
 42 72  1  0
 42 73  1  0
M  END
$$$$
[H]O[C@]([H])(/C(=C([H])/C([H])=C(\[H])[C@@]1([H])C([H])([H])C([H])(N([H])C([H])([H])[C@@]([H])(O[H])C([H])([H])C([H])([H])C([H])([H])C([H])([H])C([H])([H])C([H])([H])C([H])([H])C([H])([H])[H])C([H])([H])[C@@]([H])(C([H])([H])[H])C1([H])[H])C([H])([H])[H])C([H])([H])[H]
     RDKit          3D

 72 72  0  0  0  0  0  0  0  0999 V2000
    9.2517    1.4012   -1.1543 C   0  0  0  0  0  0  0  0  0  0  0  0
    8.5232    0.1527   -1.6174 C   0  0  0  0  0  0  0  0  0  0  0  0
    7.5917   -0.3097   -0.5178 C   0  0  0  0  0  0  0  0  0  0  0  0
    6.5724    0.7578   -0.1861 C   0  0  0  0  0  0  0  0  0  0  0  0
    5.7226    1.1116   -1.3820 C   0  0  0  0  0  0  0  0  0  0  0  0
    4.9661   -0.0707   -1.8991 C   0  0  0  0  0  0  0  0  0  0  0  0
    4.0374   -0.6570   -0.8451 C   0  0  0  0  0  0  0  0  0  0  0  0
    3.0328    0.3503   -0.3895 C   0  0  0  0  0  0  0  0  0  0  0  0
    2.1164   -0.2667    0.6694 C   0  0  2  0  0  0  0  0  0  0  0  0
    2.8714   -0.6894    1.7585 O   0  0  0  0  0  0  0  0  0  0  0  0
    1.3025   -1.3932    0.1078 C   0  0  0  0  0  0  0  0  0  0  0  0
    0.3817   -1.9643    0.9820 N   0  0  0  0  0  0  0  0  0  0  0  0
   -0.7748   -1.3670    1.4315 C   0  0  0  0  0  0  0  0  0  0  0  0
   -0.7331   -0.1249    2.2469 C   0  0  0  0  0  0  0  0  0  0  0  0
   -2.0229    0.0734    3.0233 C   0  0  1  0  0  0  0  0  0  0  0  0
   -2.0435    1.3870    3.7684 C   0  0  0  0  0  0  0  0  0  0  0  0
   -3.2416   -0.0872    2.1702 C   0  0  0  0  0  0  0  0  0  0  0  0
   -3.1491   -1.0898    1.0870 C   0  0  2  0  0  0  0  0  0  0  0  0
   -1.8264   -1.1363    0.3548 C   0  0  0  0  0  0  0  0  0  0  0  0
   -4.2977   -1.0888    0.1566 C   0  0  0  0  0  0  0  0  0  0  0  0
   -5.2140   -0.1616    0.0525 C   0  0  0  0  0  0  0  0  0  0  0  0
   -6.2861   -0.3141   -0.9219 C   0  0  0  0  0  0  0  0  0  0  0  0
   -7.2283    0.6134   -1.0487 C   0  0  0  0  0  0  0  0  0  0  0  0
   -7.1045    1.7881   -0.1412 C   0  0  0  0  0  0  0  0  0  0  0  0
   -8.3398    0.5254   -2.0156 C   0  0  2  0  0  0  0  0  0  0  0  0
   -8.3157   -0.7217   -2.8340 C   0  0  0  0  0  0  0  0  0  0  0  0
   -8.3573    1.6076   -2.8934 O   0  0  0  0  0  0  0  0  0  0  0  0
    9.1575    1.5468   -0.0585 H   0  0  0  0  0  0  0  0  0  0  0  0
   10.3323    1.3277   -1.4468 H   0  0  0  0  0  0  0  0  0  0  0  0
    8.8077    2.2640   -1.6770 H   0  0  0  0  0  0  0  0  0  0  0  0
    9.2766   -0.6400   -1.7655 H   0  0  0  0  0  0  0  0  0  0  0  0
    8.0136    0.3057   -2.5829 H   0  0  0  0  0  0  0  0  0  0  0  0
    8.2156   -0.4806    0.3763 H   0  0  0  0  0  0  0  0  0  0  0  0
    7.1028   -1.2433   -0.8305 H   0  0  0  0  0  0  0  0  0  0  0  0
    7.0813    1.6705    0.1565 H   0  0  0  0  0  0  0  0  0  0  0  0
    5.9203    0.4158    0.6206 H   0  0  0  0  0  0  0  0  0  0  0  0
    6.3655    1.4694   -2.2228 H   0  0  0  0  0  0  0  0  0  0  0  0
    5.0593    1.9318   -1.1118 H   0  0  0  0  0  0  0  0  0  0  0  0
    4.3313    0.2434   -2.7467 H   0  0  0  0  0  0  0  0  0  0  0  0
    5.6343   -0.8957   -2.2090 H   0  0  0  0  0  0  0  0  0  0  0  0
    3.4863   -1.5152   -1.3105 H   0  0  0  0  0  0  0  0  0  0  0  0
    4.6177   -1.0556    0.0117 H   0  0  0  0  0  0  0  0  0  0  0  0
    2.4212    0.6641   -1.2663 H   0  0  0  0  0  0  0  0  0  0  0  0
    3.5196    1.2597    0.0033 H   0  0  0  0  0  0  0  0  0  0  0  0
    1.5233    0.5963    1.0403 H   0  0  0  0  0  0  0  0  0  0  0  0
    2.8828   -1.6712    1.8761 H   0  0  0  0  0  0  0  0  0  0  0  0
    2.0686   -2.2072   -0.1290 H   0  0  0  0  0  0  0  0  0  0  0  0
    0.9074   -1.1493   -0.9103 H   0  0  0  0  0  0  0  0  0  0  0  0
    0.2317   -3.0081    0.8534 H   0  0  0  0  0  0  0  0  0  0  0  0
   -1.2833   -2.1362    2.1251 H   0  0  0  0  0  0  0  0  0  0  0  0
    0.1584   -0.1348    2.8836 H   0  0  0  0  0  0  0  0  0  0  0  0
   -0.6728    0.8233    1.6316 H   0  0  0  0  0  0  0  0  0  0  0  0
   -2.0441   -0.7161    3.7971 H   0  0  0  0  0  0  0  0  0  0  0  0
   -2.0237    2.2610    3.0917 H   0  0  0  0  0  0  0  0  0  0  0  0
   -2.9601    1.3823    4.3988 H   0  0  0  0  0  0  0  0  0  0  0  0
   -1.1789    1.4098    4.4622 H   0  0  0  0  0  0  0  0  0  0  0  0
   -4.1290   -0.2452    2.8129 H   0  0  0  0  0  0  0  0  0  0  0  0
   -3.4016    0.9266    1.7012 H   0  0  0  0  0  0  0  0  0  0  0  0
   -3.2131   -2.1030    1.5968 H   0  0  0  0  0  0  0  0  0  0  0  0
   -1.6303   -0.2576   -0.2584 H   0  0  0  0  0  0  0  0  0  0  0  0
   -1.8320   -2.0645   -0.2651 H   0  0  0  0  0  0  0  0  0  0  0  0
   -4.3835   -1.9613   -0.5138 H   0  0  0  0  0  0  0  0  0  0  0  0
   -5.1340    0.6938    0.7086 H   0  0  0  0  0  0  0  0  0  0  0  0
   -6.3156   -1.1896   -1.5489 H   0  0  0  0  0  0  0  0  0  0  0  0
   -7.0245    1.4513    0.9247 H   0  0  0  0  0  0  0  0  0  0  0  0
   -6.1950    2.3940   -0.3646 H   0  0  0  0  0  0  0  0  0  0  0  0
   -7.9686    2.4949   -0.2614 H   0  0  0  0  0  0  0  0  0  0  0  0
   -9.2915    0.5656   -1.4510 H   0  0  0  0  0  0  0  0  0  0  0  0
   -8.3266   -1.5885   -2.1232 H   0  0  0  0  0  0  0  0  0  0  0  0
   -7.3423   -0.8227   -3.3865 H   0  0  0  0  0  0  0  0  0  0  0  0
   -9.1230   -0.7469   -3.5625 H   0  0  0  0  0  0  0  0  0  0  0  0
   -9.0765    1.4088   -3.5553 H   0  0  0  0  0  0  0  0  0  0  0  0
  1  2  1  0
  2  3  1  0
  3  4  1  0
  4  5  1  0
  5  6  1  0
  6  7  1  0
  7  8  1  0
  8  9  1  0
  9 10  1  0
  9 11  1  0
 11 12  1  0
 12 13  1  0
 13 14  1  0
 14 15  1  0
 15 16  1  0
 15 17  1  0
 17 18  1  0
 18 19  1  0
 18 20  1  0
 20 21  2  0
 21 22  1  0
 22 23  2  0
 23 24  1  0
 23 25  1  0
 25 26  1  0
 25 27  1  0
 19 13  1  0
  1 28  1  0
  1 29  1  0
  1 30  1  0
  2 31  1  0
  2 32  1  0
  3 33  1  0
  3 34  1  0
  4 35  1  0
  4 36  1  0
  5 37  1  0
  5 38  1  0
  6 39  1  0
  6 40  1  0
  7 41  1  0
  7 42  1  0
  8 43  1  0
  8 44  1  0
  9 45  1  1
 10 46  1  0
 11 47  1  0
 11 48  1  0
 12 49  1  0
 13 50  1  0
 14 51  1  0
 14 52  1  0
 15 53  1  1
 16 54  1  0
 16 55  1  0
 16 56  1  0
 17 57  1  0
 17 58  1  0
 18 59  1  1
 19 60  1  0
 19 61  1  0
 20 62  1  0
 21 63  1  0
 22 64  1  0
 24 65  1  0
 24 66  1  0
 24 67  1  0
 25 68  1  1
 26 69  1  0
 26 70  1  0
 26 71  1  0
 27 72  1  0
M  END
$$$$
[H]ON([H])C(=O)C([H])(N([H])[H])C([H])([H])C([H])([H])N([H])S(=O)(=O)c1c([H])c([H])c(OC([H])([H])[H])c([H])c1[H]
     RDKit          3D

 37 37  0  0  0  0  0  0  0  0999 V2000
    4.8238   -2.0375   -1.8120 C   0  0  0  0  0  0  0  0  0  0  0  0
    4.7344   -0.7304   -1.3320 O   0  0  0  0  0  0  0  0  0  0  0  0
    3.7327   -0.2776   -0.4860 C   0  0  0  0  0  0  0  0  0  0  0  0
    2.7087   -1.0780   -0.0246 C   0  0  0  0  0  0  0  0  0  0  0  0
    1.7390   -0.5614    0.8194 C   0  0  0  0  0  0  0  0  0  0  0  0
    1.7492    0.7523    1.2317 C   0  0  0  0  0  0  0  0  0  0  0  0
    2.7736    1.5536    0.7703 C   0  0  0  0  0  0  0  0  0  0  0  0
    3.7491    1.0378   -0.0774 C   0  0  0  0  0  0  0  0  0  0  0  0
    0.5144    1.3836    2.2979 S   0  0  0  0  0  0  0  0  0  0  0  0
    1.0653    2.5136    3.1299 O   0  0  0  0  0  0  0  0  0  0  0  0
    0.0204    0.3115    3.2147 O   0  0  0  0  0  0  0  0  0  0  0  0
   -0.8122    2.0111    1.3893 N   0  0  0  0  0  0  0  0  0  0  0  0
   -1.4443    0.9792    0.5889 C   0  0  0  0  0  0  0  0  0  0  0  0
   -2.5940    1.6218   -0.1714 C   0  0  0  0  0  0  0  0  0  0  0  0
   -3.3139    0.6155   -1.0362 C   0  0  0  0  0  0  0  0  0  0  0  0
   -2.4483    0.0144   -2.0159 N   0  0  0  0  0  0  0  0  0  0  0  0
   -3.9140   -0.3922   -0.1318 C   0  0  0  0  0  0  0  0  0  0  0  0
   -4.7100   -0.0467    0.8024 O   0  0  0  0  0  0  0  0  0  0  0  0
   -3.5876   -1.7603   -0.3210 N   0  0  0  0  0  0  0  0  0  0  0  0
   -4.1231   -2.7288    0.4970 O   0  0  0  0  0  0  0  0  0  0  0  0
    4.5185   -2.7729   -1.0346 H   0  0  0  0  0  0  0  0  0  0  0  0
    5.9068   -2.2454   -2.0167 H   0  0  0  0  0  0  0  0  0  0  0  0
    4.2107   -2.1985   -2.7270 H   0  0  0  0  0  0  0  0  0  0  0  0
    2.7084   -2.1138   -0.3551 H   0  0  0  0  0  0  0  0  0  0  0  0
    0.9341   -1.2033    1.1780 H   0  0  0  0  0  0  0  0  0  0  0  0
    2.7825    2.5899    1.0950 H   0  0  0  0  0  0  0  0  0  0  0  0
    4.5446    1.6888   -0.4266 H   0  0  0  0  0  0  0  0  0  0  0  0
   -1.4564    2.5640    1.9570 H   0  0  0  0  0  0  0  0  0  0  0  0
   -1.7730    0.1883    1.2677 H   0  0  0  0  0  0  0  0  0  0  0  0
   -0.7029    0.6040   -0.1403 H   0  0  0  0  0  0  0  0  0  0  0  0
   -2.1518    2.3942   -0.8405 H   0  0  0  0  0  0  0  0  0  0  0  0
   -3.3391    2.0610    0.5227 H   0  0  0  0  0  0  0  0  0  0  0  0
   -4.1244    1.1816   -1.5586 H   0  0  0  0  0  0  0  0  0  0  0  0
   -1.6644   -0.5099   -1.5762 H   0  0  0  0  0  0  0  0  0  0  0  0
   -2.9969   -0.6555   -2.5959 H   0  0  0  0  0  0  0  0  0  0  0  0
   -2.9378   -2.0172   -1.0878 H   0  0  0  0  0  0  0  0  0  0  0  0
   -5.1221   -2.7369    0.3674 H   0  0  0  0  0  0  0  0  0  0  0  0
  1  2  1  0
  2  3  1  0
  3  4  2  0
  4  5  1  0
  5  6  2  0
  6  7  1  0
  7  8  2  0
  6  9  1  0
  9 10  2  0
  9 11  2  0
  9 12  1  0
 12 13  1  0
 13 14  1  0
 14 15  1  0
 15 16  1  0
 15 17  1  0
 17 18  2  0
 17 19  1  0
 19 20  1  0
  8  3  1  0
  1 21  1  0
  1 22  1  0
  1 23  1  0
  4 24  1  0
  5 25  1  0
  7 26  1  0
  8 27  1  0
 12 28  1  0
 13 29  1  0
 13 30  1  0
 14 31  1  0
 14 32  1  0
 15 33  1  0
 16 34  1  0
 16 35  1  0
 19 36  1  0
 20 37  1  0
M  END
$$$$
[H]c1c([H])c([H])c(C([H])([H])[H])c(-c2c([H])c([H])c(OC([H])([H])C([H])([H])N([H])C([H])([H])C3([H])C([H])([H])C3([H])[H])c([H])c2[H])c1[H]
     RDKit          3D

 44 46  0  0  0  0  0  0  0  0999 V2000
   -5.3167   -1.0184   -0.9136 C   0  0  0  0  0  0  0  0  0  0  0  0
   -5.2611    0.2274   -0.1259 C   0  0  0  0  0  0  0  0  0  0  0  0
   -6.4224    0.9939    0.0325 C   0  0  0  0  0  0  0  0  0  0  0  0
   -6.4283    2.1580    0.7437 C   0  0  0  0  0  0  0  0  0  0  0  0
   -5.2443    2.5737    1.3155 C   0  0  0  0  0  0  0  0  0  0  0  0
   -4.0910    1.8199    1.1631 C   0  0  0  0  0  0  0  0  0  0  0  0
   -4.0758    0.6304    0.4389 C   0  0  0  0  0  0  0  0  0  0  0  0
   -2.8152   -0.1088    0.3352 C   0  0  0  0  0  0  0  0  0  0  0  0
   -1.7137    0.6458   -0.0305 C   0  0  0  0  0  0  0  0  0  0  0  0
   -0.5006    0.0170   -0.1376 C   0  0  0  0  0  0  0  0  0  0  0  0
   -0.3525   -1.3324    0.1071 C   0  0  0  0  0  0  0  0  0  0  0  0
    0.8839   -1.9702   -0.0030 O   0  0  0  0  0  0  0  0  0  0  0  0
    2.0030   -1.2073   -0.3740 C   0  0  0  0  0  0  0  0  0  0  0  0
    3.2621   -2.0248   -0.4545 C   0  0  0  0  0  0  0  0  0  0  0  0
    4.3473   -1.1481   -0.8423 N   0  0  0  0  0  0  0  0  0  0  0  0
    4.7076   -0.1853    0.1497 C   0  0  0  0  0  0  0  0  0  0  0  0
    5.8598    0.6280   -0.4310 C   0  0  0  0  0  0  0  0  0  0  0  0
    6.3637    1.6984    0.4997 C   0  0  0  0  0  0  0  0  0  0  0  0
    7.2120    0.5143    0.1654 C   0  0  0  0  0  0  0  0  0  0  0  0
   -1.4695   -2.0533    0.4693 C   0  0  0  0  0  0  0  0  0  0  0  0
   -2.7023   -1.4573    0.5868 C   0  0  0  0  0  0  0  0  0  0  0  0
   -6.1381   -0.8853   -1.6792 H   0  0  0  0  0  0  0  0  0  0  0  0
   -5.6106   -1.9149   -0.3400 H   0  0  0  0  0  0  0  0  0  0  0  0
   -4.3869   -1.2331   -1.4533 H   0  0  0  0  0  0  0  0  0  0  0  0
   -7.3449    0.6577   -0.4205 H   0  0  0  0  0  0  0  0  0  0  0  0
   -7.3303    2.7478    0.8632 H   0  0  0  0  0  0  0  0  0  0  0  0
   -5.2425    3.5053    1.8859 H   0  0  0  0  0  0  0  0  0  0  0  0
   -3.1555    2.1348    1.6064 H   0  0  0  0  0  0  0  0  0  0  0  0
   -1.7875    1.7082   -0.2316 H   0  0  0  0  0  0  0  0  0  0  0  0
    0.3938    0.5970   -0.4282 H   0  0  0  0  0  0  0  0  0  0  0  0
    2.1132   -0.3982    0.3514 H   0  0  0  0  0  0  0  0  0  0  0  0
    1.8035   -0.8261   -1.4166 H   0  0  0  0  0  0  0  0  0  0  0  0
    3.1702   -2.8306   -1.2053 H   0  0  0  0  0  0  0  0  0  0  0  0
    3.4826   -2.5167    0.5171 H   0  0  0  0  0  0  0  0  0  0  0  0
    4.1005   -0.6871   -1.7385 H   0  0  0  0  0  0  0  0  0  0  0  0
    3.9120    0.5574    0.3838 H   0  0  0  0  0  0  0  0  0  0  0  0
    4.9855   -0.6698    1.0880 H   0  0  0  0  0  0  0  0  0  0  0  0
    5.6899    0.9525   -1.4689 H   0  0  0  0  0  0  0  0  0  0  0  0
    6.6397    2.6927    0.1070 H   0  0  0  0  0  0  0  0  0  0  0  0
    6.0013    1.7271    1.5476 H   0  0  0  0  0  0  0  0  0  0  0  0
    8.0706    0.7147   -0.4874 H   0  0  0  0  0  0  0  0  0  0  0  0
    7.3621   -0.2845    0.9150 H   0  0  0  0  0  0  0  0  0  0  0  0
   -1.4023   -3.1292    0.6741 H   0  0  0  0  0  0  0  0  0  0  0  0
   -3.5719   -2.0205    0.8725 H   0  0  0  0  0  0  0  0  0  0  0  0
  1  2  1  0
  2  3  2  0
  3  4  1  0
  4  5  2  0
  5  6  1  0
  6  7  2  0
  7  8  1  0
  8  9  2  0
  9 10  1  0
 10 11  2  0
 11 12  1  0
 12 13  1  0
 13 14  1  0
 14 15  1  0
 15 16  1  0
 16 17  1  0
 17 18  1  0
 18 19  1  0
 11 20  1  0
 20 21  2  0
  7  2  1  0
 21  8  1  0
 19 17  1  0
  1 22  1  0
  1 23  1  0
  1 24  1  0
  3 25  1  0
  4 26  1  0
  5 27  1  0
  6 28  1  0
  9 29  1  0
 10 30  1  0
 13 31  1  0
 13 32  1  0
 14 33  1  0
 14 34  1  0
 15 35  1  0
 16 36  1  0
 16 37  1  0
 17 38  1  0
 18 39  1  0
 18 40  1  0
 19 41  1  0
 19 42  1  0
 20 43  1  0
 21 44  1  0
M  END
$$$$
[H]C1=C(c2c([H])c([H])c([H])c([H])c2Cl)C(=O)N([H])C(c2nc([H])c([H])s2)(c2c([H])c([H])c([H])c([H])c2[H])C(=O)N([H])C([H])([H])C1([H])[H]
     RDKit          3D

 47 50  0  0  0  0  0  0  0  0999 V2000
    2.3479    2.5719   -0.2201 Cl  0  0  0  0  0  0  0  0  0  0  0  0
    3.7062    1.4215   -0.2173 C   0  0  0  0  0  0  0  0  0  0  0  0
    4.9806    1.9300   -0.4669 C   0  0  0  0  0  0  0  0  0  0  0  0
    6.0675    1.0849   -0.5219 C   0  0  0  0  0  0  0  0  0  0  0  0
    5.9064   -0.2720   -0.3304 C   0  0  0  0  0  0  0  0  0  0  0  0
    4.6233   -0.7226   -0.0855 C   0  0  0  0  0  0  0  0  0  0  0  0
    3.5031    0.0770   -0.0200 C   0  0  0  0  0  0  0  0  0  0  0  0
    2.1725   -0.5061    0.3336 C   0  0  0  0  0  0  0  0  0  0  0  0
    2.1182   -1.8315    0.1813 C   0  0  0  0  0  0  0  0  0  0  0  0
    0.9452   -2.6796    0.4569 C   0  0  0  0  0  0  0  0  0  0  0  0
   -0.0520   -2.6569   -0.6960 C   0  0  0  0  0  0  0  0  0  0  0  0
   -1.3477   -2.6253   -0.0458 N   0  0  0  0  0  0  0  0  0  0  0  0
   -1.7458   -1.4993    0.6970 C   0  0  0  0  0  0  0  0  0  0  0  0
   -2.3814   -1.7504    1.7918 O   0  0  0  0  0  0  0  0  0  0  0  0
   -1.4916   -0.1518    0.3071 C   0  0  0  0  0  0  0  0  0  0  0  0
   -0.2548    0.5169    0.4741 N   0  0  0  0  0  0  0  0  0  0  0  0
    1.0627    0.2681    0.8623 C   0  0  0  0  0  0  0  0  0  0  0  0
    1.3562    0.9052    1.9980 O   0  0  0  0  0  0  0  0  0  0  0  0
   -2.6106    0.6954    0.9325 C   0  0  0  0  0  0  0  0  0  0  0  0
   -2.3408    1.7492    1.7569 C   0  0  0  0  0  0  0  0  0  0  0  0
   -3.4003    2.4889    2.2978 C   0  0  0  0  0  0  0  0  0  0  0  0
   -4.7112    2.1812    2.0198 C   0  0  0  0  0  0  0  0  0  0  0  0
   -4.9744    1.1183    1.1889 C   0  0  0  0  0  0  0  0  0  0  0  0
   -3.9255    0.3999    0.6643 C   0  0  0  0  0  0  0  0  0  0  0  0
   -1.8350    0.0298   -1.1712 C   0  0  0  0  0  0  0  0  0  0  0  0
   -1.5385    1.0345   -1.9567 N   0  0  0  0  0  0  0  0  0  0  0  0
   -1.9186    1.0287   -3.1946 C   0  0  0  0  0  0  0  0  0  0  0  0
   -2.6326   -0.0602   -3.6326 C   0  0  0  0  0  0  0  0  0  0  0  0
   -2.7083   -1.0125   -2.2138 S   0  0  0  0  0  0  0  0  0  0  0  0
    5.0816    3.0039   -0.6142 H   0  0  0  0  0  0  0  0  0  0  0  0
    7.0612    1.4653   -0.7146 H   0  0  0  0  0  0  0  0  0  0  0  0
    6.7616   -0.9303   -0.3755 H   0  0  0  0  0  0  0  0  0  0  0  0
    4.5744   -1.8057    0.0763 H   0  0  0  0  0  0  0  0  0  0  0  0
    2.9414   -2.4429   -0.1960 H   0  0  0  0  0  0  0  0  0  0  0  0
    1.1676   -3.7003    0.7325 H   0  0  0  0  0  0  0  0  0  0  0  0
    0.4867   -2.2343    1.3961 H   0  0  0  0  0  0  0  0  0  0  0  0
    0.2011   -1.7817   -1.2874 H   0  0  0  0  0  0  0  0  0  0  0  0
    0.0843   -3.5436   -1.3392 H   0  0  0  0  0  0  0  0  0  0  0  0
   -1.9401   -3.4839   -0.1708 H   0  0  0  0  0  0  0  0  0  0  0  0
   -0.5064    1.5797    0.2046 H   0  0  0  0  0  0  0  0  0  0  0  0
   -1.3220    1.9856    1.9772 H   0  0  0  0  0  0  0  0  0  0  0  0
   -3.1334    3.3163    2.9465 H   0  0  0  0  0  0  0  0  0  0  0  0
   -5.5117    2.7822    2.4609 H   0  0  0  0  0  0  0  0  0  0  0  0
   -6.0042    0.8908    0.9819 H   0  0  0  0  0  0  0  0  0  0  0  0
   -4.1368   -0.4544    0.0005 H   0  0  0  0  0  0  0  0  0  0  0  0
   -1.6898    1.8597   -3.8986 H   0  0  0  0  0  0  0  0  0  0  0  0
   -3.0364   -0.2398   -4.6441 H   0  0  0  0  0  0  0  0  0  0  0  0
  1  2  1  0
  2  3  2  0
  3  4  1  0
  4  5  2  0
  5  6  1  0
  6  7  2  0
  7  8  1  0
  8  9  2  0
  9 10  1  0
 10 11  1  0
 11 12  1  0
 12 13  1  0
 13 14  2  0
 13 15  1  0
 15 16  1  0
 16 17  1  0
 17 18  2  0
 15 19  1  0
 19 20  2  0
 20 21  1  0
 21 22  2  0
 22 23  1  0
 23 24  2  0
 15 25  1  0
 25 26  2  0
 26 27  1  0
 27 28  2  0
 28 29  1  0
  7  2  1  0
 17  8  1  0
 24 19  1  0
 29 25  1  0
  3 30  1  0
  4 31  1  0
  5 32  1  0
  6 33  1  0
  9 34  1  0
 10 35  1  0
 10 36  1  0
 11 37  1  0
 11 38  1  0
 12 39  1  0
 16 40  1  0
 20 41  1  0
 21 42  1  0
 22 43  1  0
 23 44  1  0
 24 45  1  0
 27 46  1  0
 28 47  1  0
M  END
$$$$
[H]c1c([H])c([H])c(C2(C([H])([H])OC([H])([H])c3c([H])c(C(F)(F)F)c([H])c(C(F)(F)F)c3[H])C([H])([H])C([H])([H])N(C(=O)C([H])([H])N3C([H])([H])C([H])([H])C([H])(n4c(=O)n([H])c5c([H])c([H])c([H])c([H])c54)C([H])([H])C3([H])[H])C([H])([H])C2([H])[H])c([H])c1[H]
     RDKit          3D

 84 89  0  0  0  0  0  0  0  0999 V2000
   -7.6722    4.6289    0.0985 F   0  0  0  0  0  0  0  0  0  0  0  0
   -7.2727    4.0323   -1.1037 C   0  0  0  0  0  0  0  0  0  0  0  0
   -5.9781    4.3863   -1.3886 F   0  0  0  0  0  0  0  0  0  0  0  0
   -8.0473    4.4252   -2.1516 F   0  0  0  0  0  0  0  0  0  0  0  0
   -7.4121    2.5663   -0.9123 C   0  0  0  0  0  0  0  0  0  0  0  0
   -6.4349    1.7153   -1.4546 C   0  0  0  0  0  0  0  0  0  0  0  0
   -6.5526    0.3736   -1.2934 C   0  0  0  0  0  0  0  0  0  0  0  0
   -5.5696   -0.6004   -1.8392 C   0  0  0  0  0  0  0  0  0  0  0  0
   -4.5500   -0.7398   -0.9405 O   0  0  0  0  0  0  0  0  0  0  0  0
   -3.6264   -1.6940   -1.3332 C   0  0  0  0  0  0  0  0  0  0  0  0
   -2.5289   -1.8440   -0.2655 C   0  0  0  0  0  0  0  0  0  0  0  0
   -1.8596   -0.5109   -0.1311 C   0  0  0  0  0  0  0  0  0  0  0  0
   -0.5405   -0.4272   -0.8931 C   0  0  0  0  0  0  0  0  0  0  0  0
    0.3302   -1.4572   -0.3577 N   0  0  0  0  0  0  0  0  0  0  0  0
   -0.2029   -2.7731   -0.1387 C   0  0  0  0  0  0  0  0  0  0  0  0
   -1.6072   -2.9073   -0.6999 C   0  0  0  0  0  0  0  0  0  0  0  0
    1.6777   -1.1618   -0.0382 C   0  0  0  0  0  0  0  0  0  0  0  0
    2.3648   -2.0989    0.4615 O   0  0  0  0  0  0  0  0  0  0  0  0
    2.3072    0.1165   -0.2399 C   0  0  0  0  0  0  0  0  0  0  0  0
    3.6977    0.1690    0.1675 N   0  0  0  0  0  0  0  0  0  0  0  0
    4.4805   -0.6360   -0.6696 C   0  0  0  0  0  0  0  0  0  0  0  0
    5.6296    0.0404   -1.2859 C   0  0  0  0  0  0  0  0  0  0  0  0
    6.4064    0.9551   -0.4543 C   0  0  0  0  0  0  0  0  0  0  0  0
    5.5536    1.7178    0.4933 C   0  0  0  0  0  0  0  0  0  0  0  0
    4.0774    1.5081    0.3361 C   0  0  0  0  0  0  0  0  0  0  0  0
    7.5763    0.4802    0.2236 N   0  0  0  0  0  0  0  0  0  0  0  0
    8.6947    1.2618    0.3593 C   0  0  0  0  0  0  0  0  0  0  0  0
    9.0067    2.5542   -0.0740 C   0  0  0  0  0  0  0  0  0  0  0  0
   10.2078    3.1572    0.1743 C   0  0  0  0  0  0  0  0  0  0  0  0
   11.1473    2.4446    0.8865 C   0  0  0  0  0  0  0  0  0  0  0  0
   10.8675    1.1673    1.3264 C   0  0  0  0  0  0  0  0  0  0  0  0
    9.6333    0.5656    1.0645 C   0  0  0  0  0  0  0  0  0  0  0  0
    9.1245   -0.6347    1.3716 N   0  0  0  0  0  0  0  0  0  0  0  0
    7.8785   -0.6519    0.8447 C   0  0  0  0  0  0  0  0  0  0  0  0
    7.1428   -1.6384    0.9528 O   0  0  0  0  0  0  0  0  0  0  0  0
   -3.2706   -2.0970    0.9966 C   0  0  0  0  0  0  0  0  0  0  0  0
   -3.7719   -0.9456    1.6345 C   0  0  0  0  0  0  0  0  0  0  0  0
   -4.5054   -1.0175    2.7864 C   0  0  0  0  0  0  0  0  0  0  0  0
   -4.7635   -2.2700    3.3472 C   0  0  0  0  0  0  0  0  0  0  0  0
   -4.2651   -3.4005    2.7139 C   0  0  0  0  0  0  0  0  0  0  0  0
   -3.5334   -3.2818    1.5554 C   0  0  0  0  0  0  0  0  0  0  0  0
   -7.6454   -0.1237   -0.5918 C   0  0  0  0  0  0  0  0  0  0  0  0
   -8.6088    0.7094   -0.0591 C   0  0  0  0  0  0  0  0  0  0  0  0
   -8.4741    2.0800   -0.2344 C   0  0  0  0  0  0  0  0  0  0  0  0
   -9.7543    0.0995    0.6780 C   0  0  0  0  0  0  0  0  0  0  0  0
  -10.7415    1.0420    0.7873 F   0  0  0  0  0  0  0  0  0  0  0  0
   -9.3399   -0.3281    1.9497 F   0  0  0  0  0  0  0  0  0  0  0  0
  -10.1599   -1.0027   -0.0525 F   0  0  0  0  0  0  0  0  0  0  0  0
   -5.6443    2.1734   -1.9866 H   0  0  0  0  0  0  0  0  0  0  0  0
   -5.1991   -0.2712   -2.8262 H   0  0  0  0  0  0  0  0  0  0  0  0
   -6.0369   -1.5838   -1.9650 H   0  0  0  0  0  0  0  0  0  0  0  0
   -4.1416   -2.6507   -1.4785 H   0  0  0  0  0  0  0  0  0  0  0  0
   -3.1313   -1.3268   -2.2668 H   0  0  0  0  0  0  0  0  0  0  0  0
   -2.4940    0.3398   -0.4683 H   0  0  0  0  0  0  0  0  0  0  0  0
   -1.5894   -0.2588    0.9203 H   0  0  0  0  0  0  0  0  0  0  0  0
   -0.1248    0.5600   -0.7017 H   0  0  0  0  0  0  0  0  0  0  0  0
   -0.6818   -0.5852   -1.9752 H   0  0  0  0  0  0  0  0  0  0  0  0
   -0.1335   -3.0382    0.9106 H   0  0  0  0  0  0  0  0  0  0  0  0
    0.4118   -3.4918   -0.7080 H   0  0  0  0  0  0  0  0  0  0  0  0
   -2.0392   -3.8926   -0.5642 H   0  0  0  0  0  0  0  0  0  0  0  0
   -1.4808   -2.7835   -1.8232 H   0  0  0  0  0  0  0  0  0  0  0  0
    2.1811    0.3963   -1.3386 H   0  0  0  0  0  0  0  0  0  0  0  0
    1.7079    0.8982    0.3129 H   0  0  0  0  0  0  0  0  0  0  0  0
    4.6673   -1.6369   -0.2160 H   0  0  0  0  0  0  0  0  0  0  0  0
    3.8066   -0.9279   -1.5774 H   0  0  0  0  0  0  0  0  0  0  0  0
    5.2190    0.6284   -2.1576 H   0  0  0  0  0  0  0  0  0  0  0  0
    6.2792   -0.6950   -1.8586 H   0  0  0  0  0  0  0  0  0  0  0  0
    6.8224    1.7305   -1.2126 H   0  0  0  0  0  0  0  0  0  0  0  0
    5.8571    1.5270    1.5265 H   0  0  0  0  0  0  0  0  0  0  0  0
    5.7040    2.8200    0.3441 H   0  0  0  0  0  0  0  0  0  0  0  0
    3.6115    1.8607    1.3096 H   0  0  0  0  0  0  0  0  0  0  0  0
    3.6974    2.1969   -0.4155 H   0  0  0  0  0  0  0  0  0  0  0  0
    8.2488    3.1059   -0.6365 H   0  0  0  0  0  0  0  0  0  0  0  0
   10.3926    4.1485   -0.1951 H   0  0  0  0  0  0  0  0  0  0  0  0
   12.1114    2.9456    1.0500 H   0  0  0  0  0  0  0  0  0  0  0  0
   11.6221    0.6466    1.8515 H   0  0  0  0  0  0  0  0  0  0  0  0
    9.6198   -1.3670    1.9190 H   0  0  0  0  0  0  0  0  0  0  0  0
   -3.5733    0.0418    1.2035 H   0  0  0  0  0  0  0  0  0  0  0  0
   -4.8938   -0.1300    3.2561 H   0  0  0  0  0  0  0  0  0  0  0  0
   -5.3294   -2.3097    4.2387 H   0  0  0  0  0  0  0  0  0  0  0  0
   -4.4710   -4.3690    3.1790 H   0  0  0  0  0  0  0  0  0  0  0  0
   -3.1409   -4.1736    1.0512 H   0  0  0  0  0  0  0  0  0  0  0  0
   -7.7425   -1.1938   -0.4771 H   0  0  0  0  0  0  0  0  0  0  0  0
   -9.2283    2.7119    0.1954 H   0  0  0  0  0  0  0  0  0  0  0  0
  1  2  1  0
  2  3  1  0
  2  4  1  0
  2  5  1  0
  5  6  2  0
  6  7  1  0
  7  8  1  0
  8  9  1  0
  9 10  1  0
 10 11  1  0
 11 12  1  0
 12 13  1  0
 13 14  1  0
 14 15  1  0
 15 16  1  0
 14 17  1  0
 17 18  2  0
 17 19  1  0
 19 20  1  0
 20 21  1  0
 21 22  1  0
 22 23  1  0
 23 24  1  0
 24 25  1  0
 23 26  1  0
 26 27  1  0
 27 28  2  0
 28 29  1  0
 29 30  2  0
 30 31  1  0
 31 32  2  0
 32 33  1  0
 33 34  1  0
 34 35  2  0
 11 36  1  0
 36 37  2  0
 37 38  1  0
 38 39  2  0
 39 40  1  0
 40 41  2  0
  7 42  2  0
 42 43  1  0
 43 44  2  0
 43 45  1  0
 45 46  1  0
 45 47  1  0
 45 48  1  0
 44  5  1  0
 16 11  1  0
 25 20  1  0
 34 26  1  0
 41 36  1  0
 32 27  1  0
  6 49  1  0
  8 50  1  0
  8 51  1  0
 10 52  1  0
 10 53  1  0
 12 54  1  0
 12 55  1  0
 13 56  1  0
 13 57  1  0
 15 58  1  0
 15 59  1  0
 16 60  1  0
 16 61  1  0
 19 62  1  0
 19 63  1  0
 21 64  1  0
 21 65  1  0
 22 66  1  0
 22 67  1  0
 23 68  1  0
 24 69  1  0
 24 70  1  0
 25 71  1  0
 25 72  1  0
 28 73  1  0
 29 74  1  0
 30 75  1  0
 31 76  1  0
 33 77  1  0
 37 78  1  0
 38 79  1  0
 39 80  1  0
 40 81  1  0
 41 82  1  0
 42 83  1  0
 44 84  1  0
M  END
$$$$
[H]c1nc(N([H])C([H])([H])C([H])([H])N(C([H])([H])C([H])([H])[H])C([H])([H])C([H])([H])[H])nc2c1C([H])([H])C([H])([H])c1c(C(=O)N([H])[H])nn(C#N)c1-2
     RDKit          3D

 48 50  0  0  0  0  0  0  0  0999 V2000
   -4.7204    1.9908    0.0604 C   0  0  0  0  0  0  0  0  0  0  0  0
   -4.7588    0.8678    1.0345 C   0  0  0  0  0  0  0  0  0  0  0  0
   -4.2977   -0.4147    0.4821 N   0  0  0  0  0  0  0  0  0  0  0  0
   -5.2723   -0.8884   -0.4925 C   0  0  0  0  0  0  0  0  0  0  0  0
   -6.5347   -1.2403    0.3143 C   0  0  0  0  0  0  0  0  0  0  0  0
   -2.9705   -0.2346   -0.0910 C   0  0  0  0  0  0  0  0  0  0  0  0
   -2.4024   -1.5754   -0.4584 C   0  0  0  0  0  0  0  0  0  0  0  0
   -1.0951   -1.4568   -1.0341 N   0  0  0  0  0  0  0  0  0  0  0  0
    0.0043   -0.9417   -0.3187 C   0  0  0  0  0  0  0  0  0  0  0  0
   -0.0959   -0.5322    0.9519 N   0  0  0  0  0  0  0  0  0  0  0  0
    0.9019   -0.0263    1.6753 C   0  0  0  0  0  0  0  0  0  0  0  0
    2.1588    0.0767    1.0244 C   0  0  0  0  0  0  0  0  0  0  0  0
    3.2828    0.6330    1.7727 C   0  0  0  0  0  0  0  0  0  0  0  0
    4.5915    0.7435    1.1171 C   0  0  0  0  0  0  0  0  0  0  0  0
    4.6735    0.3008   -0.2750 C   0  0  0  0  0  0  0  0  0  0  0  0
    5.7711    0.3022   -1.1347 C   0  0  0  0  0  0  0  0  0  0  0  0
    5.2903   -0.2212   -2.2901 N   0  0  0  0  0  0  0  0  0  0  0  0
    4.0062   -0.5213   -2.1595 N   0  0  0  0  0  0  0  0  0  0  0  0
    3.2192   -1.0863   -3.1839 C   0  0  0  0  0  0  0  0  0  0  0  0
    2.5890   -1.5642   -4.0340 N   0  0  0  0  0  0  0  0  0  0  0  0
    3.5809   -0.2155   -0.9280 C   0  0  0  0  0  0  0  0  0  0  0  0
    2.2866   -0.3351   -0.2720 C   0  0  0  0  0  0  0  0  0  0  0  0
    1.2154   -0.8383   -0.9301 N   0  0  0  0  0  0  0  0  0  0  0  0
    7.1266    0.7688   -0.8847 C   0  0  0  0  0  0  0  0  0  0  0  0
    7.4186    1.3446    0.3729 N   0  0  0  0  0  0  0  0  0  0  0  0
    8.0160    0.6725   -1.7460 O   0  0  0  0  0  0  0  0  0  0  0  0
   -3.6793    2.3306   -0.1987 H   0  0  0  0  0  0  0  0  0  0  0  0
   -5.2772    1.8304   -0.8787 H   0  0  0  0  0  0  0  0  0  0  0  0
   -5.1744    2.8805    0.5901 H   0  0  0  0  0  0  0  0  0  0  0  0
   -4.1135    1.0917    1.8881 H   0  0  0  0  0  0  0  0  0  0  0  0
   -5.7938    0.7247    1.3584 H   0  0  0  0  0  0  0  0  0  0  0  0
   -5.4826   -0.1461   -1.2888 H   0  0  0  0  0  0  0  0  0  0  0  0
   -4.9229   -1.8565   -0.8814 H   0  0  0  0  0  0  0  0  0  0  0  0
   -7.1786   -0.3647    0.3309 H   0  0  0  0  0  0  0  0  0  0  0  0
   -6.2189   -1.5195    1.3407 H   0  0  0  0  0  0  0  0  0  0  0  0
   -7.0164   -2.1532   -0.1064 H   0  0  0  0  0  0  0  0  0  0  0  0
   -2.4032    0.3182    0.6705 H   0  0  0  0  0  0  0  0  0  0  0  0
   -2.9928    0.4472   -0.9762 H   0  0  0  0  0  0  0  0  0  0  0  0
   -3.0515   -2.1640   -1.1530 H   0  0  0  0  0  0  0  0  0  0  0  0
   -2.3201   -2.2215    0.4641 H   0  0  0  0  0  0  0  0  0  0  0  0
   -0.9448   -1.7667   -2.0369 H   0  0  0  0  0  0  0  0  0  0  0  0
    0.8112    0.2986    2.6902 H   0  0  0  0  0  0  0  0  0  0  0  0
    3.3852   -0.0346    2.6898 H   0  0  0  0  0  0  0  0  0  0  0  0
    2.9875    1.6180    2.2377 H   0  0  0  0  0  0  0  0  0  0  0  0
    4.9690    1.7961    1.2505 H   0  0  0  0  0  0  0  0  0  0  0  0
    5.3607    0.1319    1.6850 H   0  0  0  0  0  0  0  0  0  0  0  0
    7.2278    2.3579    0.5902 H   0  0  0  0  0  0  0  0  0  0  0  0
    7.8436    0.7923    1.1608 H   0  0  0  0  0  0  0  0  0  0  0  0
  1  2  1  0
  2  3  1  0
  3  4  1  0
  4  5  1  0
  3  6  1  0
  6  7  1  0
  7  8  1  0
  8  9  1  0
  9 10  2  0
 10 11  1  0
 11 12  2  0
 12 13  1  0
 13 14  1  0
 14 15  1  0
 15 16  1  0
 16 17  2  0
 17 18  1  0
 18 19  1  0
 19 20  3  0
 18 21  1  0
 21 22  1  0
 22 23  2  0
 16 24  1  0
 24 25  1  0
 24 26  2  0
 23  9  1  0
 22 12  1  0
 21 15  2  0
  1 27  1  0
  1 28  1  0
  1 29  1  0
  2 30  1  0
  2 31  1  0
  4 32  1  0
  4 33  1  0
  5 34  1  0
  5 35  1  0
  5 36  1  0
  6 37  1  0
  6 38  1  0
  7 39  1  0
  7 40  1  0
  8 41  1  0
 11 42  1  0
 13 43  1  0
 13 44  1  0
 14 45  1  0
 14 46  1  0
 25 47  1  0
 25 48  1  0
M  END
$$$$
[H]c1nn2c([H])c(C(=O)N([H])C([H])([H])C([H])([H])N(C([H])([H])[H])C([H])([H])[H])c([H])c(Oc3c([H])c([H])c([H])c(N([H])C(=O)c4c([H])n(C([H])(C([H])([H])[H])C([H])([H])[H])c(=O)n(-c5c([H])c([H])c(F)c([H])c5[H])c4=O)c3[H])c2c1[H]
     RDKit          3D

 77 81  0  0  0  0  0  0  0  0999 V2000
   -6.6498    3.8898    0.9031 C   0  0  0  0  0  0  0  0  0  0  0  0
   -7.3966    2.7224    0.2997 C   0  0  0  0  0  0  0  0  0  0  0  0
   -7.8108    3.0555   -1.1154 C   0  0  0  0  0  0  0  0  0  0  0  0
   -6.6118    1.5097    0.2497 N   0  0  0  0  0  0  0  0  0  0  0  0
   -5.2758    1.5620    0.2037 C   0  0  0  0  0  0  0  0  0  0  0  0
   -4.5554    0.3867    0.1550 C   0  0  0  0  0  0  0  0  0  0  0  0
   -3.0820    0.4003    0.1081 C   0  0  0  0  0  0  0  0  0  0  0  0
   -2.5516   -0.3367   -0.7349 O   0  0  0  0  0  0  0  0  0  0  0  0
   -2.3578    1.2081    0.9773 N   0  0  0  0  0  0  0  0  0  0  0  0
   -0.9655    1.3193    1.0324 C   0  0  0  0  0  0  0  0  0  0  0  0
   -0.4353    1.8294    2.2251 C   0  0  0  0  0  0  0  0  0  0  0  0
    0.9052    1.9903    2.3417 C   0  0  0  0  0  0  0  0  0  0  0  0
    1.7428    1.6649    1.3196 C   0  0  0  0  0  0  0  0  0  0  0  0
    1.2577    1.1545    0.1137 C   0  0  0  0  0  0  0  0  0  0  0  0
    2.1391    0.8428   -0.9021 O   0  0  0  0  0  0  0  0  0  0  0  0
    3.0082   -0.1962   -0.9662 C   0  0  0  0  0  0  0  0  0  0  0  0
    4.3751    0.1054   -1.0200 C   0  0  0  0  0  0  0  0  0  0  0  0
    5.3144   -0.8936   -1.0872 C   0  0  0  0  0  0  0  0  0  0  0  0
    4.9270   -2.1956   -1.1030 C   0  0  0  0  0  0  0  0  0  0  0  0
    3.6128   -2.5035   -1.0517 N   0  0  0  0  0  0  0  0  0  0  0  0
    3.0468   -3.7056   -1.0626 N   0  0  0  0  0  0  0  0  0  0  0  0
    1.7134   -3.5596   -1.0040 C   0  0  0  0  0  0  0  0  0  0  0  0
    1.4797   -2.2094   -0.9565 C   0  0  0  0  0  0  0  0  0  0  0  0
    2.6827   -1.5280   -0.9856 C   0  0  0  0  0  0  0  0  0  0  0  0
    6.7509   -0.4968   -1.1396 C   0  0  0  0  0  0  0  0  0  0  0  0
    6.9463    0.6729   -1.5238 O   0  0  0  0  0  0  0  0  0  0  0  0
    7.7272   -1.4158   -0.7707 N   0  0  0  0  0  0  0  0  0  0  0  0
    9.1459   -1.3098   -0.7065 C   0  0  0  0  0  0  0  0  0  0  0  0
    9.6637   -0.3251    0.2841 C   0  0  0  0  0  0  0  0  0  0  0  0
    9.3444    1.0512    0.0123 N   0  0  0  0  0  0  0  0  0  0  0  0
    9.7365    1.8419    1.1940 C   0  0  0  0  0  0  0  0  0  0  0  0
   10.3116    1.4851   -1.0316 C   0  0  0  0  0  0  0  0  0  0  0  0
   -0.1174    0.9995    0.0215 C   0  0  0  0  0  0  0  0  0  0  0  0
   -5.2138   -0.8205    0.1542 C   0  0  0  0  0  0  0  0  0  0  0  0
   -4.5470   -1.9129    0.1090 O   0  0  0  0  0  0  0  0  0  0  0  0
   -6.5586   -0.8217    0.2016 N   0  0  0  0  0  0  0  0  0  0  0  0
   -7.2521   -2.0505    0.2056 C   0  0  0  0  0  0  0  0  0  0  0  0
   -7.9983   -2.3944   -0.9008 C   0  0  0  0  0  0  0  0  0  0  0  0
   -8.6907   -3.5877   -0.9298 C   0  0  0  0  0  0  0  0  0  0  0  0
   -8.6293   -4.4351    0.1602 C   0  0  0  0  0  0  0  0  0  0  0  0
   -9.3029   -5.6263    0.1661 F   0  0  0  0  0  0  0  0  0  0  0  0
   -7.8736   -4.0686    1.2599 C   0  0  0  0  0  0  0  0  0  0  0  0
   -7.1774   -2.8801    1.3021 C   0  0  0  0  0  0  0  0  0  0  0  0
   -7.2548    0.3273    0.2489 C   0  0  0  0  0  0  0  0  0  0  0  0
   -8.5320    0.3367    0.2938 O   0  0  0  0  0  0  0  0  0  0  0  0
   -6.1603    3.6528    1.8477 H   0  0  0  0  0  0  0  0  0  0  0  0
   -7.4248    4.6936    1.0585 H   0  0  0  0  0  0  0  0  0  0  0  0
   -5.9401    4.3418    0.1655 H   0  0  0  0  0  0  0  0  0  0  0  0
   -8.3059    2.5576    0.8826 H   0  0  0  0  0  0  0  0  0  0  0  0
   -7.8695    2.1084   -1.7278 H   0  0  0  0  0  0  0  0  0  0  0  0
   -8.7814    3.5817   -1.0691 H   0  0  0  0  0  0  0  0  0  0  0  0
   -7.0440    3.7117   -1.5355 H   0  0  0  0  0  0  0  0  0  0  0  0
   -4.7219    2.5137    0.2036 H   0  0  0  0  0  0  0  0  0  0  0  0
   -2.9291    1.8047    1.6634 H   0  0  0  0  0  0  0  0  0  0  0  0
   -1.0895    2.0993    3.0637 H   0  0  0  0  0  0  0  0  0  0  0  0
    1.2808    2.3921    3.2904 H   0  0  0  0  0  0  0  0  0  0  0  0
    2.8067    1.8097    1.4599 H   0  0  0  0  0  0  0  0  0  0  0  0
    4.6668    1.1410   -1.0067 H   0  0  0  0  0  0  0  0  0  0  0  0
    5.6350   -3.0135   -1.1606 H   0  0  0  0  0  0  0  0  0  0  0  0
    0.9650   -4.3595   -0.9958 H   0  0  0  0  0  0  0  0  0  0  0  0
    0.5172   -1.7806   -0.9110 H   0  0  0  0  0  0  0  0  0  0  0  0
    7.3734   -2.4120   -0.4619 H   0  0  0  0  0  0  0  0  0  0  0  0
    9.5750   -1.0509   -1.7197 H   0  0  0  0  0  0  0  0  0  0  0  0
    9.6261   -2.2908   -0.4569 H   0  0  0  0  0  0  0  0  0  0  0  0
   10.7748   -0.4383    0.4438 H   0  0  0  0  0  0  0  0  0  0  0  0
    9.2501   -0.5930    1.3070 H   0  0  0  0  0  0  0  0  0  0  0  0
    8.9404    1.7218    1.9497 H   0  0  0  0  0  0  0  0  0  0  0  0
    9.7758    2.8927    0.8770 H   0  0  0  0  0  0  0  0  0  0  0  0
   10.6970    1.4597    1.5553 H   0  0  0  0  0  0  0  0  0  0  0  0
   11.2635    0.9967   -0.7740 H   0  0  0  0  0  0  0  0  0  0  0  0
   10.4370    2.5846   -0.9766 H   0  0  0  0  0  0  0  0  0  0  0  0
    9.9222    1.2031   -2.0096 H   0  0  0  0  0  0  0  0  0  0  0  0
   -0.4661    0.6099   -0.9407 H   0  0  0  0  0  0  0  0  0  0  0  0
   -8.0843   -1.7709   -1.7808 H   0  0  0  0  0  0  0  0  0  0  0  0
   -9.2894   -3.9101   -1.7686 H   0  0  0  0  0  0  0  0  0  0  0  0
   -7.8068   -4.7230    2.1430 H   0  0  0  0  0  0  0  0  0  0  0  0
   -6.5848   -2.6162    2.1931 H   0  0  0  0  0  0  0  0  0  0  0  0
  1  2  1  0
  2  3  1  0
  2  4  1  0
  4  5  1  0
  5  6  2  0
  6  7  1  0
  7  8  2  0
  7  9  1  0
  9 10  1  0
 10 11  2  0
 11 12  1  0
 12 13  2  0
 13 14  1  0
 14 15  1  0
 15 16  1  0
 16 17  2  0
 17 18  1  0
 18 19  2  0
 19 20  1  0
 20 21  1  0
 21 22  2  0
 22 23  1  0
 23 24  2  0
 18 25  1  0
 25 26  2  0
 25 27  1  0
 27 28  1  0
 28 29  1  0
 29 30  1  0
 30 31  1  0
 30 32  1  0
 14 33  2  0
  6 34  1  0
 34 35  2  0
 34 36  1  0
 36 37  1  0
 37 38  2  0
 38 39  1  0
 39 40  2  0
 40 41  1  0
 40 42  1  0
 42 43  2  0
 36 44  1  0
 44 45  2  0
 44  4  1  0
 33 10  1  0
 43 37  1  0
 24 16  1  0
 24 20  1  0
  1 46  1  0
  1 47  1  0
  1 48  1  0
  2 49  1  0
  3 50  1  0
  3 51  1  0
  3 52  1  0
  5 53  1  0
  9 54  1  0
 11 55  1  0
 12 56  1  0
 13 57  1  0
 17 58  1  0
 19 59  1  0
 22 60  1  0
 23 61  1  0
 27 62  1  0
 28 63  1  0
 28 64  1  0
 29 65  1  0
 29 66  1  0
 31 67  1  0
 31 68  1  0
 31 69  1  0
 32 70  1  0
 32 71  1  0
 32 72  1  0
 33 73  1  0
 38 74  1  0
 39 75  1  0
 42 76  1  0
 43 77  1  0
M  END
$$$$
[H]OC([H])(c1c([H])c([H])c([H])c(C2=C([H])N3C(=O)C2([H])C([H])([H])C3([H])[H])c1[H])C([H])([H])[H]
     RDKit          2D

 32 34  0  0  0  0  0  0  0  0999 V2000
   -1.6897    7.4108    0.0000 C   0  0  0  0  0  0  0  0  0  0  0  0
   -0.6860    6.2961    0.0000 C   0  0  0  0  0  0  0  0  0  0  0  0
    0.4287    7.2998    0.0000 O   0  0  0  0  0  0  0  0  0  0  0  0
    0.3177    5.1814    0.0000 C   0  0  0  0  0  0  0  0  0  0  0  0
    1.7849    5.4933    0.0000 C   0  0  0  0  0  0  0  0  0  0  0  0
    2.7886    4.3786    0.0000 C   0  0  0  0  0  0  0  0  0  0  0  0
    2.3250    2.9520    0.0000 C   0  0  0  0  0  0  0  0  0  0  0  0
    0.8578    2.6401    0.0000 C   0  0  0  0  0  0  0  0  0  0  0  0
   -0.1459    3.7548    0.0000 C   0  0  0  0  0  0  0  0  0  0  0  0
    0.3943    1.2135    0.0000 C   0  0  0  0  0  0  0  0  0  0  0  0
    1.2760    0.0000    0.0000 C   0  0  0  0  0  0  0  0  0  0  0  0
    0.3943   -1.2135    0.0000 N   0  0  0  0  0  0  0  0  0  0  0  0
   -1.0323   -1.6771    0.0000 C   0  0  0  0  0  0  0  0  0  0  0  0
   -1.9140   -0.4635    0.0000 C   0  0  0  0  0  0  0  0  0  0  0  0
   -1.0323    0.7500    0.0000 C   0  0  0  0  0  0  0  0  0  0  0  0
   -1.0323   -0.7500    0.0000 C   0  0  0  0  0  0  0  0  0  0  0  0
   -2.2458   -1.6317    0.0000 O   0  0  0  0  0  0  0  0  0  0  0  0
   -2.6934    8.5256    0.0000 H   0  0  0  0  0  0  0  0  0  0  0  0
   -2.8045    6.4072    0.0000 H   0  0  0  0  0  0  0  0  0  0  0  0
   -0.7057    8.5429    0.0000 H   0  0  0  0  0  0  0  0  0  0  0  0
   -1.8008    5.2924    0.0000 H   0  0  0  0  0  0  0  0  0  0  0  0
    0.2980    8.7941    0.0000 H   0  0  0  0  0  0  0  0  0  0  0  0
    2.2484    6.9199    0.0000 H   0  0  0  0  0  0  0  0  0  0  0  0
    4.2558    4.6904    0.0000 H   0  0  0  0  0  0  0  0  0  0  0  0
    3.3287    1.8373    0.0000 H   0  0  0  0  0  0  0  0  0  0  0  0
   -1.6131    3.4430    0.0000 H   0  0  0  0  0  0  0  0  0  0  0  0
    2.7760    0.0000    0.0000 H   0  0  0  0  0  0  0  0  0  0  0  0
   -0.4222   -3.0474    0.0000 H   0  0  0  0  0  0  0  0  0  0  0  0
   -2.2302   -2.5798    0.0000 H   0  0  0  0  0  0  0  0  0  0  0  0
   -3.1427   -1.3239    0.0000 H   0  0  0  0  0  0  0  0  0  0  0  0
   -3.0287    0.5402    0.0000 H   0  0  0  0  0  0  0  0  0  0  0  0
   -2.2458    1.6317    0.0000 H   0  0  0  0  0  0  0  0  0  0  0  0
  1  2  1  0
  2  3  1  0
  2  4  1  0
  4  5  2  0
  5  6  1  0
  6  7  2  0
  7  8  1  0
  8  9  2  0
  8 10  1  0
 10 11  2  0
 11 12  1  0
 12 13  1  0
 13 14  1  0
 14 15  1  0
 15 16  1  0
 16 17  2  0
  9  4  1  0
 15 10  1  0
 16 12  1  0
  1 18  1  0
  1 19  1  0
  1 20  1  0
  2 21  1  0
  3 22  1  0
  5 23  1  0
  6 24  1  0
  7 25  1  0
  9 26  1  0
 11 27  1  0
 13 28  1  0
 13 29  1  0
 14 30  1  0
 14 31  1  0
 15 32  1  0
M  END
$$$$
[H]C1=C([H])[C@@]([H])(c2c([H])c([H])c(Br)c([H])c2[H])C([H])([H])C([H])([H])Oc2c([H])c([H])c(N([H])C(=O)C([H])([H])c3c([H])c([H])c(S(=O)(=O)N([H])[H])c([H])c3[H])c([H])c21
     RDKit          3D

 56 59  0  0  0  0  0  0  0  0999 V2000
   10.4082    0.4720   -0.3398 N   0  0  0  0  0  0  0  0  0  0  0  0
    9.1721   -0.6003   -0.8840 S   0  0  0  0  0  0  0  0  0  0  0  0
    9.1421   -0.6859   -2.3859 O   0  0  0  0  0  0  0  0  0  0  0  0
    9.3233   -1.9707   -0.2583 O   0  0  0  0  0  0  0  0  0  0  0  0
    7.6271    0.0682   -0.3662 C   0  0  0  0  0  0  0  0  0  0  0  0
    6.9425    0.9403   -1.1860 C   0  0  0  0  0  0  0  0  0  0  0  0
    5.7356    1.4778   -0.8094 C   0  0  0  0  0  0  0  0  0  0  0  0
    5.1567    1.1593    0.4210 C   0  0  0  0  0  0  0  0  0  0  0  0
    3.8526    1.7608    0.7902 C   0  0  0  0  0  0  0  0  0  0  0  0
    2.7492    0.8390    0.2947 C   0  0  0  0  0  0  0  0  0  0  0  0
    3.0636   -0.2035   -0.3004 O   0  0  0  0  0  0  0  0  0  0  0  0
    1.4462    1.2332    0.5461 N   0  0  0  0  0  0  0  0  0  0  0  0
    0.2983    0.4804    0.1356 C   0  0  0  0  0  0  0  0  0  0  0  0
    0.3135   -0.4431   -0.8613 C   0  0  0  0  0  0  0  0  0  0  0  0
   -0.8425   -1.1656   -1.1995 C   0  0  0  0  0  0  0  0  0  0  0  0
   -2.0031   -0.9358   -0.5152 C   0  0  0  0  0  0  0  0  0  0  0  0
   -2.9718   -1.7711   -1.0451 O   0  0  0  0  0  0  0  0  0  0  0  0
   -4.2159   -2.3582   -0.7292 C   0  0  0  0  0  0  0  0  0  0  0  0
   -4.6505   -2.2073    0.6789 C   0  0  0  0  0  0  0  0  0  0  0  0
   -5.3011   -0.9342    1.0744 C   0  0  1  0  0  0  0  0  0  0  0  0
   -4.3321    0.0823    1.5880 C   0  0  0  0  0  0  0  0  0  0  0  0
   -3.0907    0.4715    1.4017 C   0  0  0  0  0  0  0  0  0  0  0  0
   -2.0196    0.0011    0.4952 C   0  0  0  0  0  0  0  0  0  0  0  0
   -0.9053    0.7001    0.8247 C   0  0  0  0  0  0  0  0  0  0  0  0
   -6.2295   -0.3506    0.0791 C   0  0  0  0  0  0  0  0  0  0  0  0
   -5.7930    0.3328   -1.0370 C   0  0  0  0  0  0  0  0  0  0  0  0
   -6.6825    0.8751   -1.9686 C   0  0  0  0  0  0  0  0  0  0  0  0
   -8.0235    0.7397   -1.7937 C   0  0  0  0  0  0  0  0  0  0  0  0
   -9.2640    1.4714   -3.0519 Br  0  0  0  0  0  0  0  0  0  0  0  0
   -8.4971    0.0599   -0.6847 C   0  0  0  0  0  0  0  0  0  0  0  0
   -7.5989   -0.4657    0.2193 C   0  0  0  0  0  0  0  0  0  0  0  0
    5.8526    0.2877    1.2273 C   0  0  0  0  0  0  0  0  0  0  0  0
    7.0652   -0.2540    0.8520 C   0  0  0  0  0  0  0  0  0  0  0  0
   10.0669    1.0897    0.4033 H   0  0  0  0  0  0  0  0  0  0  0  0
   10.6443    1.0971   -1.1589 H   0  0  0  0  0  0  0  0  0  0  0  0
    7.3839    1.1846   -2.1271 H   0  0  0  0  0  0  0  0  0  0  0  0
    5.1832    2.1634   -1.4377 H   0  0  0  0  0  0  0  0  0  0  0  0
    3.7085    2.7382    0.2739 H   0  0  0  0  0  0  0  0  0  0  0  0
    3.8014    1.8644    1.8789 H   0  0  0  0  0  0  0  0  0  0  0  0
    1.2684    2.1469    1.0725 H   0  0  0  0  0  0  0  0  0  0  0  0
    1.1897   -0.6587   -1.4509 H   0  0  0  0  0  0  0  0  0  0  0  0
   -0.8083   -1.8858   -1.9845 H   0  0  0  0  0  0  0  0  0  0  0  0
   -4.9867   -2.1394   -1.4966 H   0  0  0  0  0  0  0  0  0  0  0  0
   -4.0300   -3.4725   -0.8777 H   0  0  0  0  0  0  0  0  0  0  0  0
   -5.3492   -3.0703    0.8973 H   0  0  0  0  0  0  0  0  0  0  0  0
   -3.7753   -2.4005    1.3354 H   0  0  0  0  0  0  0  0  0  0  0  0
   -5.9262   -1.2004    1.9915 H   0  0  0  0  0  0  0  0  0  0  0  0
   -4.7727    0.7203    2.3720 H   0  0  0  0  0  0  0  0  0  0  0  0
   -2.7583    1.3035    2.0248 H   0  0  0  0  0  0  0  0  0  0  0  0
   -0.9078    1.4299    1.6080 H   0  0  0  0  0  0  0  0  0  0  0  0
   -4.7571    0.4826   -1.2424 H   0  0  0  0  0  0  0  0  0  0  0  0
   -6.3231    1.4096   -2.8410 H   0  0  0  0  0  0  0  0  0  0  0  0
   -9.5689   -0.0281   -0.5784 H   0  0  0  0  0  0  0  0  0  0  0  0
   -7.9971   -0.9909    1.0747 H   0  0  0  0  0  0  0  0  0  0  0  0
    5.4187    0.0329    2.1789 H   0  0  0  0  0  0  0  0  0  0  0  0
    7.5678   -0.9231    1.5063 H   0  0  0  0  0  0  0  0  0  0  0  0
  1  2  1  0
  2  3  2  0
  2  4  2  0
  2  5  1  0
  5  6  2  0
  6  7  1  0
  7  8  2  0
  8  9  1  0
  9 10  1  0
 10 11  2  0
 10 12  1  0
 12 13  1  0
 13 14  2  0
 14 15  1  0
 15 16  2  0
 16 17  1  0
 17 18  1  0
 18 19  1  0
 19 20  1  0
 20 21  1  0
 21 22  2  0
 22 23  1  0
 23 24  2  0
 20 25  1  0
 25 26  2  0
 26 27  1  0
 27 28  2  0
 28 29  1  0
 28 30  1  0
 30 31  2  0
  8 32  1  0
 32 33  2  0
 33  5  1  0
 24 13  1  0
 31 25  1  0
 23 16  1  0
  1 34  1  0
  1 35  1  0
  6 36  1  0
  7 37  1  0
  9 38  1  0
  9 39  1  0
 12 40  1  0
 14 41  1  0
 15 42  1  0
 18 43  1  0
 18 44  1  0
 19 45  1  0
 19 46  1  0
 20 47  1  1
 21 48  1  0
 22 49  1  0
 24 50  1  0
 26 51  1  0
 27 52  1  0
 30 53  1  0
 31 54  1  0
 32 55  1  0
 33 56  1  0
M  END
$$$$
[H]c1c([H])c(N2C([H])([H])C([H])([H])C([H])([H])C3(C2([H])[H])C([H])([H])N(C(=O)c2c([H])c([H])c(C([H])([H])C([H])([H])C([H])([H])C([H])([H])[H])c([H])c2[H])C([H])([H])C3([H])[H])c([H])c([H])c1OC(F)(F)F
     RDKit          3D

 64 67  0  0  0  0  0  0  0  0999 V2000
    8.2497    1.0734    1.5261 C   0  0  0  0  0  0  0  0  0  0  0  0
    6.8021    1.5086    1.7736 C   0  0  0  0  0  0  0  0  0  0  0  0
    6.4233    2.5150    0.7113 C   0  0  0  0  0  0  0  0  0  0  0  0
    5.0106    3.0090    0.8670 C   0  0  0  0  0  0  0  0  0  0  0  0
    4.0289    1.9081    0.7776 C   0  0  0  0  0  0  0  0  0  0  0  0
    3.5236    1.5638   -0.4421 C   0  0  0  0  0  0  0  0  0  0  0  0
    2.5920    0.5174   -0.4966 C   0  0  0  0  0  0  0  0  0  0  0  0
    2.1600   -0.1786    0.6039 C   0  0  0  0  0  0  0  0  0  0  0  0
    2.7200    0.2254    1.8370 C   0  0  0  0  0  0  0  0  0  0  0  0
    3.6212    1.2343    1.9068 C   0  0  0  0  0  0  0  0  0  0  0  0
    1.2117   -1.2445    0.5709 C   0  0  0  0  0  0  0  0  0  0  0  0
    0.9544   -1.7803    1.7321 O   0  0  0  0  0  0  0  0  0  0  0  0
    0.5139   -1.8137   -0.4783 N   0  0  0  0  0  0  0  0  0  0  0  0
    0.5250   -1.4962   -1.8771 C   0  0  0  0  0  0  0  0  0  0  0  0
   -0.5261   -2.3655   -2.5609 C   0  0  0  0  0  0  0  0  0  0  0  0
   -1.4782   -2.5696   -1.3651 C   0  0  0  0  0  0  0  0  0  0  0  0
   -0.4469   -2.9598   -0.3356 C   0  0  0  0  0  0  0  0  0  0  0  0
   -2.3692   -3.7068   -1.7621 C   0  0  0  0  0  0  0  0  0  0  0  0
   -3.6051   -3.8458   -0.9589 C   0  0  0  0  0  0  0  0  0  0  0  0
   -4.1482   -2.6417   -0.3284 C   0  0  0  0  0  0  0  0  0  0  0  0
   -3.4212   -1.4069   -0.4880 N   0  0  0  0  0  0  0  0  0  0  0  0
   -2.1337   -1.2773   -1.1138 C   0  0  0  0  0  0  0  0  0  0  0  0
   -4.0214   -0.2294    0.0086 C   0  0  0  0  0  0  0  0  0  0  0  0
   -5.2521   -0.2930    0.6161 C   0  0  0  0  0  0  0  0  0  0  0  0
   -5.8333    0.8864    1.1014 C   0  0  0  0  0  0  0  0  0  0  0  0
   -5.2159    2.0927    0.9893 C   0  0  0  0  0  0  0  0  0  0  0  0
   -5.7395    3.2877    1.4479 O   0  0  0  0  0  0  0  0  0  0  0  0
   -6.5627    4.1118    0.6199 C   0  0  0  0  0  0  0  0  0  0  0  0
   -5.8962    4.5202   -0.5161 F   0  0  0  0  0  0  0  0  0  0  0  0
   -7.6602    3.3496    0.2565 F   0  0  0  0  0  0  0  0  0  0  0  0
   -7.0099    5.1828    1.3656 F   0  0  0  0  0  0  0  0  0  0  0  0
   -3.9772    2.1533    0.3772 C   0  0  0  0  0  0  0  0  0  0  0  0
   -3.3931    0.9774   -0.1090 C   0  0  0  0  0  0  0  0  0  0  0  0
    8.6114    0.6303    2.4665 H   0  0  0  0  0  0  0  0  0  0  0  0
    8.2125    0.3286    0.7073 H   0  0  0  0  0  0  0  0  0  0  0  0
    8.8702    1.9321    1.2288 H   0  0  0  0  0  0  0  0  0  0  0  0
    6.7730    1.9180    2.7979 H   0  0  0  0  0  0  0  0  0  0  0  0
    6.2046    0.5789    1.7149 H   0  0  0  0  0  0  0  0  0  0  0  0
    6.5520    2.0104   -0.2686 H   0  0  0  0  0  0  0  0  0  0  0  0
    7.1382    3.3470    0.7453 H   0  0  0  0  0  0  0  0  0  0  0  0
    4.8563    3.5917    1.7820 H   0  0  0  0  0  0  0  0  0  0  0  0
    4.8270    3.7040    0.0056 H   0  0  0  0  0  0  0  0  0  0  0  0
    3.8319    2.0858   -1.3597 H   0  0  0  0  0  0  0  0  0  0  0  0
    2.2406    0.2981   -1.4840 H   0  0  0  0  0  0  0  0  0  0  0  0
    2.3943   -0.3086    2.7197 H   0  0  0  0  0  0  0  0  0  0  0  0
    4.0491    1.5363    2.8849 H   0  0  0  0  0  0  0  0  0  0  0  0
    0.1784   -0.4435   -2.0933 H   0  0  0  0  0  0  0  0  0  0  0  0
    1.5229   -1.6921   -2.3691 H   0  0  0  0  0  0  0  0  0  0  0  0
   -0.1056   -3.3299   -2.8956 H   0  0  0  0  0  0  0  0  0  0  0  0
   -1.0776   -1.8085   -3.3135 H   0  0  0  0  0  0  0  0  0  0  0  0
   -0.8900   -2.8516    0.6612 H   0  0  0  0  0  0  0  0  0  0  0  0
    0.0436   -3.9024   -0.5546 H   0  0  0  0  0  0  0  0  0  0  0  0
   -1.7679   -4.6372   -1.6838 H   0  0  0  0  0  0  0  0  0  0  0  0
   -2.5948   -3.5927   -2.8518 H   0  0  0  0  0  0  0  0  0  0  0  0
   -3.4367   -4.6253   -0.1546 H   0  0  0  0  0  0  0  0  0  0  0  0
   -4.3839   -4.3312   -1.6202 H   0  0  0  0  0  0  0  0  0  0  0  0
   -4.3152   -2.7540    0.7844 H   0  0  0  0  0  0  0  0  0  0  0  0
   -5.1854   -2.4288   -0.7293 H   0  0  0  0  0  0  0  0  0  0  0  0
   -1.4732   -0.6944   -0.4069 H   0  0  0  0  0  0  0  0  0  0  0  0
   -2.2359   -0.6599   -2.0290 H   0  0  0  0  0  0  0  0  0  0  0  0
   -5.8215   -1.1996    0.7544 H   0  0  0  0  0  0  0  0  0  0  0  0
   -6.7981    0.8147    1.5734 H   0  0  0  0  0  0  0  0  0  0  0  0
   -3.4603    3.0780    0.2696 H   0  0  0  0  0  0  0  0  0  0  0  0
   -2.4060    1.0983   -0.5857 H   0  0  0  0  0  0  0  0  0  0  0  0
  1  2  1  0
  2  3  1  0
  3  4  1  0
  4  5  1  0
  5  6  2  0
  6  7  1  0
  7  8  2  0
  8  9  1  0
  9 10  2  0
  8 11  1  0
 11 12  2  0
 11 13  1  0
 13 14  1  0
 14 15  1  0
 15 16  1  0
 16 17  1  0
 16 18  1  0
 18 19  1  0
 19 20  1  0
 20 21  1  0
 21 22  1  0
 21 23  1  0
 23 24  2  0
 24 25  1  0
 25 26  2  0
 26 27  1  0
 27 28  1  0
 28 29  1  0
 28 30  1  0
 28 31  1  0
 26 32  1  0
 32 33  2  0
 10  5  1  0
 17 13  1  0
 33 23  1  0
 22 16  1  0
  1 34  1  0
  1 35  1  0
  1 36  1  0
  2 37  1  0
  2 38  1  0
  3 39  1  0
  3 40  1  0
  4 41  1  0
  4 42  1  0
  6 43  1  0
  7 44  1  0
  9 45  1  0
 10 46  1  0
 14 47  1  0
 14 48  1  0
 15 49  1  0
 15 50  1  0
 17 51  1  0
 17 52  1  0
 18 53  1  0
 18 54  1  0
 19 55  1  0
 19 56  1  0
 20 57  1  0
 20 58  1  0
 22 59  1  0
 22 60  1  0
 24 61  1  0
 25 62  1  0
 32 63  1  0
 33 64  1  0
M  END
$$$$
[H]OC(=O)[C@@]([H])(N([H])C(=O)[C@@]1([H])N(C(=O)[C@@]([H])(N([H])C(=O)[C@@]([H])(N([H])C(=O)[C@@]2([H])N(C(=O)[C@@]([H])(N([H])C(=O)[C@@]3([H])C(=O)c4c([H])c([H])c([H])c([H])c4C([H])([H])C3([H])[H])C([H])([H])C(=O)N([H])[H])C([H])([H])C([H])([H])C2([H])[H])C([H])(C([H])([H])[H])C([H])([H])[H])C([H])([H])C([H])([H])C(=O)N([H])[H])C([H])([H])C([H])([H])C1([H])[H])C([H])([H])N([H])C(=O)C([H])([H])[H]
     RDKit          3D

116119  0  0  0  0  0  0  0  0999 V2000
   11.8063    0.2849   -0.3536 C   0  0  0  0  0  0  0  0  0  0  0  0
   10.6529   -0.6766   -0.2778 C   0  0  0  0  0  0  0  0  0  0  0  0
   10.6096   -1.6740   -1.0495 O   0  0  0  0  0  0  0  0  0  0  0  0
    9.6236   -0.4583    0.6564 N   0  0  0  0  0  0  0  0  0  0  0  0
    8.5148   -1.3952    0.7230 C   0  0  0  0  0  0  0  0  0  0  0  0
    7.5251   -0.9580    1.8037 C   0  0  2  0  0  0  0  0  0  0  0  0
    7.0078    0.3576    1.5183 N   0  0  0  0  0  0  0  0  0  0  0  0
    5.6327    0.6910    1.4236 C   0  0  0  0  0  0  0  0  0  0  0  0
    4.7270   -0.1366    1.5941 O   0  0  0  0  0  0  0  0  0  0  0  0
    5.3122    2.1298    1.0991 C   0  0  2  0  0  0  0  0  0  0  0  0
    5.9072    2.9474    2.2410 C   0  0  0  0  0  0  0  0  0  0  0  0
    4.7383    3.0089    3.1966 C   0  0  0  0  0  0  0  0  0  0  0  0
    3.5168    3.0234    2.3389 C   0  0  0  0  0  0  0  0  0  0  0  0
    3.9135    2.3914    1.0460 N   0  0  0  0  0  0  0  0  0  0  0  0
    2.9209    2.1711    0.0666 C   0  0  0  0  0  0  0  0  0  0  0  0
    1.7129    2.4662    0.2443 O   0  0  0  0  0  0  0  0  0  0  0  0
    3.3440    1.5436   -1.2533 C   0  0  2  0  0  0  0  0  0  0  0  0
    3.9453    2.6097   -2.1083 C   0  0  0  0  0  0  0  0  0  0  0  0
    4.4333    2.1542   -3.4524 C   0  0  0  0  0  0  0  0  0  0  0  0
    5.4850    1.1364   -3.4208 C   0  0  0  0  0  0  0  0  0  0  0  0
    6.1055    0.7809   -4.6640 N   0  0  0  0  0  0  0  0  0  0  0  0
    5.9051    0.5336   -2.4030 O   0  0  0  0  0  0  0  0  0  0  0  0
    2.0889    1.1070   -1.9267 N   0  0  0  0  0  0  0  0  0  0  0  0
    1.4493   -0.0544   -1.5198 C   0  0  0  0  0  0  0  0  0  0  0  0
    2.0147   -0.6825   -0.5297 O   0  0  0  0  0  0  0  0  0  0  0  0
    0.2308   -0.7016   -2.0111 C   0  0  1  0  0  0  0  0  0  0  0  0
   -0.6311   -1.1094   -0.9242 N   0  0  0  0  0  0  0  0  0  0  0  0
   -0.7063   -2.3543   -0.3041 C   0  0  0  0  0  0  0  0  0  0  0  0
    0.0500   -3.2696   -0.7050 O   0  0  0  0  0  0  0  0  0  0  0  0
   -1.6324   -2.6590    0.8181 C   0  0  2  0  0  0  0  0  0  0  0  0
   -1.4262   -3.9739    1.4536 C   0  0  0  0  0  0  0  0  0  0  0  0
   -2.5892   -4.8215    1.0033 C   0  0  0  0  0  0  0  0  0  0  0  0
   -3.3367   -3.9659   -0.0085 C   0  0  0  0  0  0  0  0  0  0  0  0
   -3.0301   -2.6165    0.4699 N   0  0  0  0  0  0  0  0  0  0  0  0
   -3.9396   -1.5436    0.5719 C   0  0  0  0  0  0  0  0  0  0  0  0
   -3.5102   -0.4583    1.0915 O   0  0  0  0  0  0  0  0  0  0  0  0
   -5.3485   -1.5284    0.1392 C   0  0  2  0  0  0  0  0  0  0  0  0
   -5.5907   -1.9825   -1.2559 C   0  0  0  0  0  0  0  0  0  0  0  0
   -4.8838   -1.1826   -2.2958 C   0  0  0  0  0  0  0  0  0  0  0  0
   -4.9359   -1.6022   -3.6503 N   0  0  0  0  0  0  0  0  0  0  0  0
   -4.2561   -0.1685   -1.9813 O   0  0  0  0  0  0  0  0  0  0  0  0
   -5.9683   -0.2283    0.3913 N   0  0  0  0  0  0  0  0  0  0  0  0
   -6.8522    0.0272    1.4642 C   0  0  0  0  0  0  0  0  0  0  0  0
   -7.1298   -0.8922    2.2598 O   0  0  0  0  0  0  0  0  0  0  0  0
   -7.4683    1.3679    1.6756 C   0  0  2  0  0  0  0  0  0  0  0  0
   -8.1365    1.5015    3.0173 C   0  0  0  0  0  0  0  0  0  0  0  0
   -9.3820    0.7091    3.1864 C   0  0  0  0  0  0  0  0  0  0  0  0
  -10.2456    0.6702    1.9990 C   0  0  0  0  0  0  0  0  0  0  0  0
  -11.5226    0.1417    2.1448 C   0  0  0  0  0  0  0  0  0  0  0  0
  -12.3732    0.0610    1.0733 C   0  0  0  0  0  0  0  0  0  0  0  0
  -11.9245    0.5180   -0.1480 C   0  0  0  0  0  0  0  0  0  0  0  0
  -10.6682    1.0456   -0.3220 C   0  0  0  0  0  0  0  0  0  0  0  0
   -9.8127    1.1219    0.7791 C   0  0  0  0  0  0  0  0  0  0  0  0
   -8.4706    1.6737    0.6483 C   0  0  0  0  0  0  0  0  0  0  0  0
   -8.2307    2.3957   -0.3469 O   0  0  0  0  0  0  0  0  0  0  0  0
   -0.4565    0.0411   -3.0757 C   0  0  0  0  0  0  0  0  0  0  0  0
   -0.9044    1.4242   -2.7387 C   0  0  0  0  0  0  0  0  0  0  0  0
    0.2660   -0.0737   -4.4023 C   0  0  0  0  0  0  0  0  0  0  0  0
    8.1546   -1.0368    3.1401 C   0  0  0  0  0  0  0  0  0  0  0  0
    8.7055   -2.2444    3.5386 O   0  0  0  0  0  0  0  0  0  0  0  0
    8.2214   -0.0702    3.9419 O   0  0  0  0  0  0  0  0  0  0  0  0
   12.2127    0.3739    0.6964 H   0  0  0  0  0  0  0  0  0  0  0  0
   12.6025   -0.1403   -0.9709 H   0  0  0  0  0  0  0  0  0  0  0  0
   11.5238    1.2549   -0.7587 H   0  0  0  0  0  0  0  0  0  0  0  0
    9.6668    0.3606    1.2798 H   0  0  0  0  0  0  0  0  0  0  0  0
    8.8412   -2.4089    0.9797 H   0  0  0  0  0  0  0  0  0  0  0  0
    7.9961   -1.4418   -0.2470 H   0  0  0  0  0  0  0  0  0  0  0  0
    6.6923   -1.6795    1.7963 H   0  0  0  0  0  0  0  0  0  0  0  0
    7.7469    1.1028    1.3794 H   0  0  0  0  0  0  0  0  0  0  0  0
    5.8849    2.3861    0.1854 H   0  0  0  0  0  0  0  0  0  0  0  0
    6.2661    3.9286    1.9441 H   0  0  0  0  0  0  0  0  0  0  0  0
    6.7074    2.3669    2.7451 H   0  0  0  0  0  0  0  0  0  0  0  0
    4.8128    3.9403    3.8221 H   0  0  0  0  0  0  0  0  0  0  0  0
    4.7490    2.1629    3.9096 H   0  0  0  0  0  0  0  0  0  0  0  0
    2.7196    2.4355    2.8047 H   0  0  0  0  0  0  0  0  0  0  0  0
    3.2582    4.0818    2.1479 H   0  0  0  0  0  0  0  0  0  0  0  0
    3.9492    0.7079   -0.9694 H   0  0  0  0  0  0  0  0  0  0  0  0
    3.1188    3.3709   -2.3465 H   0  0  0  0  0  0  0  0  0  0  0  0
    4.6996    3.2488   -1.5940 H   0  0  0  0  0  0  0  0  0  0  0  0
    4.8902    3.0706   -3.9342 H   0  0  0  0  0  0  0  0  0  0  0  0
    3.5696    1.8470   -4.1094 H   0  0  0  0  0  0  0  0  0  0  0  0
    6.7881    1.5002   -5.0426 H   0  0  0  0  0  0  0  0  0  0  0  0
    5.9258   -0.0975   -5.1767 H   0  0  0  0  0  0  0  0  0  0  0  0
    1.7398    1.7032   -2.6750 H   0  0  0  0  0  0  0  0  0  0  0  0
    0.5683   -1.6982   -2.4754 H   0  0  0  0  0  0  0  0  0  0  0  0
   -1.2820   -0.3433   -0.5636 H   0  0  0  0  0  0  0  0  0  0  0  0
   -1.4431   -1.8710    1.6207 H   0  0  0  0  0  0  0  0  0  0  0  0
   -0.4461   -4.4364    1.1948 H   0  0  0  0  0  0  0  0  0  0  0  0
   -1.5181   -3.8781    2.5774 H   0  0  0  0  0  0  0  0  0  0  0  0
   -3.2927   -5.0363    1.8523 H   0  0  0  0  0  0  0  0  0  0  0  0
   -2.2975   -5.8139    0.6043 H   0  0  0  0  0  0  0  0  0  0  0  0
   -3.0495   -4.1250   -1.0415 H   0  0  0  0  0  0  0  0  0  0  0  0
   -4.4162   -4.1321    0.2257 H   0  0  0  0  0  0  0  0  0  0  0  0
   -5.8899   -2.2309    0.8345 H   0  0  0  0  0  0  0  0  0  0  0  0
   -6.7042   -1.8083   -1.4462 H   0  0  0  0  0  0  0  0  0  0  0  0
   -5.4775   -3.0639   -1.4477 H   0  0  0  0  0  0  0  0  0  0  0  0
   -5.1534   -1.0055   -4.4460 H   0  0  0  0  0  0  0  0  0  0  0  0
   -4.7360   -2.6162   -3.8756 H   0  0  0  0  0  0  0  0  0  0  0  0
   -5.7643    0.5757   -0.2379 H   0  0  0  0  0  0  0  0  0  0  0  0
   -6.6292    2.0919    1.6421 H   0  0  0  0  0  0  0  0  0  0  0  0
   -8.4249    2.5825    3.1103 H   0  0  0  0  0  0  0  0  0  0  0  0
   -7.4426    1.3109    3.8608 H   0  0  0  0  0  0  0  0  0  0  0  0
   -9.1884   -0.3234    3.5932 H   0  0  0  0  0  0  0  0  0  0  0  0
   -9.9940    1.2165    3.9917 H   0  0  0  0  0  0  0  0  0  0  0  0
  -11.8646   -0.2126    3.0989 H   0  0  0  0  0  0  0  0  0  0  0  0
  -13.3775   -0.3419    1.1261 H   0  0  0  0  0  0  0  0  0  0  0  0
  -12.5590    0.4747   -1.0279 H   0  0  0  0  0  0  0  0  0  0  0  0
  -10.2864    1.4081   -1.2658 H   0  0  0  0  0  0  0  0  0  0  0  0
   -1.4392   -0.5345   -3.2636 H   0  0  0  0  0  0  0  0  0  0  0  0
   -2.0059    1.5433   -2.6770 H   0  0  0  0  0  0  0  0  0  0  0  0
   -0.4741    2.1497   -3.4614 H   0  0  0  0  0  0  0  0  0  0  0  0
   -0.5116    1.7103   -1.7368 H   0  0  0  0  0  0  0  0  0  0  0  0
   -0.2008    0.5606   -5.1711 H   0  0  0  0  0  0  0  0  0  0  0  0
    1.3434    0.0985   -4.3514 H   0  0  0  0  0  0  0  0  0  0  0  0
    0.1073   -1.1361   -4.7606 H   0  0  0  0  0  0  0  0  0  0  0  0
    8.3300   -2.7071    4.3740 H   0  0  0  0  0  0  0  0  0  0  0  0
  1  2  1  0
  2  3  2  0
  2  4  1  0
  4  5  1  0
  5  6  1  0
  6  7  1  0
  7  8  1  0
  8  9  2  0
  8 10  1  0
 10 11  1  0
 11 12  1  0
 12 13  1  0
 13 14  1  0
 14 15  1  0
 15 16  2  0
 15 17  1  0
 17 18  1  0
 18 19  1  0
 19 20  1  0
 20 21  1  0
 20 22  2  0
 17 23  1  0
 23 24  1  0
 24 25  2  0
 24 26  1  0
 26 27  1  0
 27 28  1  0
 28 29  2  0
 28 30  1  0
 30 31  1  0
 31 32  1  0
 32 33  1  0
 33 34  1  0
 34 35  1  0
 35 36  2  0
 35 37  1  0
 37 38  1  0
 38 39  1  0
 39 40  1  0
 39 41  2  0
 37 42  1  0
 42 43  1  0
 43 44  2  0
 43 45  1  0
 45 46  1  0
 46 47  1  0
 47 48  1  0
 48 49  2  0
 49 50  1  0
 50 51  2  0
 51 52  1  0
 52 53  2  0
 53 54  1  0
 54 55  2  0
 26 56  1  0
 56 57  1  0
 56 58  1  0
  6 59  1  0
 59 60  1  0
 59 61  2  0
 14 10  1  0
 34 30  1  0
 54 45  1  0
 53 48  1  0
  1 62  1  0
  1 63  1  0
  1 64  1  0
  4 65  1  0
  5 66  1  0
  5 67  1  0
  6 68  1  1
  7 69  1  0
 10 70  1  6
 11 71  1  0
 11 72  1  0
 12 73  1  0
 12 74  1  0
 13 75  1  0
 13 76  1  0
 17 77  1  1
 18 78  1  0
 18 79  1  0
 19 80  1  0
 19 81  1  0
 21 82  1  0
 21 83  1  0
 23 84  1  0
 26 85  1  6
 27 86  1  0
 30 87  1  1
 31 88  1  0
 31 89  1  0
 32 90  1  0
 32 91  1  0
 33 92  1  0
 33 93  1  0
 37 94  1  1
 38 95  1  0
 38 96  1  0
 40 97  1  0
 40 98  1  0
 42 99  1  0
 45100  1  1
 46101  1  0
 46102  1  0
 47103  1  0
 47104  1  0
 49105  1  0
 50106  1  0
 51107  1  0
 52108  1  0
 56109  1  0
 57110  1  0
 57111  1  0
 57112  1  0
 58113  1  0
 58114  1  0
 58115  1  0
 60116  1  0
M  END
$$$$
[H]OC([H])(C(=O)N([H])C([H])([H])C([H])([H])N(N([H])C(=O)C([H])(C([H])([H])[H])C([H])([H])[H])S(=O)(=O)c1c([H])c([H])c(C#N)c([H])c1[H])c1c([H])c([H])c(C(C([H])([H])[H])(C([H])([H])[H])C([H])([H])[H])c([H])c1[H]
     RDKit          3D

 67 68  0  0  0  0  0  0  0  0999 V2000
   -4.9219   -4.1962   -1.0088 C   0  0  0  0  0  0  0  0  0  0  0  0
   -5.4344   -3.2127    0.0161 C   0  0  0  0  0  0  0  0  0  0  0  0
   -5.3903   -3.9218    1.3585 C   0  0  0  0  0  0  0  0  0  0  0  0
   -4.5112   -2.0326    0.0239 C   0  0  0  0  0  0  0  0  0  0  0  0
   -3.5768   -1.9865   -0.8155 O   0  0  0  0  0  0  0  0  0  0  0  0
   -4.6541   -0.9701    0.9431 N   0  0  0  0  0  0  0  0  0  0  0  0
   -3.7416    0.0957    0.8999 N   0  0  0  0  0  0  0  0  0  0  0  0
   -2.4174   -0.2900    1.0384 C   0  0  0  0  0  0  0  0  0  0  0  0
   -1.3714    0.0239    0.0540 C   0  0  0  0  0  0  0  0  0  0  0  0
   -0.1192   -0.6472    0.4506 N   0  0  0  0  0  0  0  0  0  0  0  0
    1.0681   -0.6311   -0.3170 C   0  0  0  0  0  0  0  0  0  0  0  0
    1.0282    0.0092   -1.3958 O   0  0  0  0  0  0  0  0  0  0  0  0
    2.2080   -1.3673    0.2218 C   0  0  0  0  0  0  0  0  0  0  0  0
    2.0073   -1.6080    1.5872 O   0  0  0  0  0  0  0  0  0  0  0  0
    3.5471   -0.8794    0.0019 C   0  0  0  0  0  0  0  0  0  0  0  0
    4.1147    0.0891    0.7982 C   0  0  0  0  0  0  0  0  0  0  0  0
    5.4173    0.5553    0.6394 C   0  0  0  0  0  0  0  0  0  0  0  0
    6.2013    0.0353   -0.3616 C   0  0  0  0  0  0  0  0  0  0  0  0
    5.6571   -0.9466   -1.1895 C   0  0  0  0  0  0  0  0  0  0  0  0
    4.3730   -1.3823   -1.0059 C   0  0  0  0  0  0  0  0  0  0  0  0
    7.5818    0.5114   -0.5328 C   0  0  0  0  0  0  0  0  0  0  0  0
    8.0035    0.6068   -1.9935 C   0  0  0  0  0  0  0  0  0  0  0  0
    7.8220    1.8467    0.1295 C   0  0  0  0  0  0  0  0  0  0  0  0
    8.5624   -0.4738    0.1166 C   0  0  0  0  0  0  0  0  0  0  0  0
   -4.2945    1.5141    1.6020 S   0  0  0  0  0  0  0  0  0  0  0  0
   -5.5022    1.1649    2.4613 O   0  0  0  0  0  0  0  0  0  0  0  0
   -3.3055    2.1439    2.5082 O   0  0  0  0  0  0  0  0  0  0  0  0
   -4.8434    2.6496    0.4022 C   0  0  0  0  0  0  0  0  0  0  0  0
   -4.0482    3.6125   -0.1718 C   0  0  0  0  0  0  0  0  0  0  0  0
   -4.5236    4.5039   -1.1079 C   0  0  0  0  0  0  0  0  0  0  0  0
   -5.8457    4.4738   -1.5234 C   0  0  0  0  0  0  0  0  0  0  0  0
   -6.6540    3.5066   -0.9510 C   0  0  0  0  0  0  0  0  0  0  0  0
   -6.1776    2.6244   -0.0224 C   0  0  0  0  0  0  0  0  0  0  0  0
   -6.3653    5.3950   -2.5023 C   0  0  0  0  0  0  0  0  0  0  0  0
   -6.8039    6.1257   -3.2914 N   0  0  0  0  0  0  0  0  0  0  0  0
   -5.4467   -4.0707   -1.9765 H   0  0  0  0  0  0  0  0  0  0  0  0
   -4.9602   -5.2387   -0.6179 H   0  0  0  0  0  0  0  0  0  0  0  0
   -3.8156   -3.9945   -1.1334 H   0  0  0  0  0  0  0  0  0  0  0  0
   -6.4732   -2.9410   -0.1906 H   0  0  0  0  0  0  0  0  0  0  0  0
   -4.4601   -4.5016    1.4627 H   0  0  0  0  0  0  0  0  0  0  0  0
   -6.2110   -4.6675    1.3566 H   0  0  0  0  0  0  0  0  0  0  0  0
   -5.5765   -3.2435    2.2141 H   0  0  0  0  0  0  0  0  0  0  0  0
   -5.4035   -0.9360    1.6529 H   0  0  0  0  0  0  0  0  0  0  0  0
   -2.3814   -1.4037    1.2274 H   0  0  0  0  0  0  0  0  0  0  0  0
   -2.0788    0.1087    2.0640 H   0  0  0  0  0  0  0  0  0  0  0  0
   -1.5225   -0.1445   -0.9916 H   0  0  0  0  0  0  0  0  0  0  0  0
   -1.1208    1.1300    0.2164 H   0  0  0  0  0  0  0  0  0  0  0  0
   -0.1757   -1.1600    1.3806 H   0  0  0  0  0  0  0  0  0  0  0  0
    2.1606   -2.4124   -0.2858 H   0  0  0  0  0  0  0  0  0  0  0  0
    1.6434   -2.5179    1.6943 H   0  0  0  0  0  0  0  0  0  0  0  0
    3.5213    0.5215    1.6020 H   0  0  0  0  0  0  0  0  0  0  0  0
    5.8165    1.3285    1.3071 H   0  0  0  0  0  0  0  0  0  0  0  0
    6.2749   -1.3655   -1.9861 H   0  0  0  0  0  0  0  0  0  0  0  0
    3.9236   -2.1429   -1.6300 H   0  0  0  0  0  0  0  0  0  0  0  0
    8.7788    1.3791   -2.1448 H   0  0  0  0  0  0  0  0  0  0  0  0
    8.3586   -0.3785   -2.3749 H   0  0  0  0  0  0  0  0  0  0  0  0
    7.1161    0.8741   -2.6211 H   0  0  0  0  0  0  0  0  0  0  0  0
    7.7818    1.7587    1.2378 H   0  0  0  0  0  0  0  0  0  0  0  0
    8.8755    2.2092   -0.0885 H   0  0  0  0  0  0  0  0  0  0  0  0
    7.1665    2.6537   -0.2582 H   0  0  0  0  0  0  0  0  0  0  0  0
    8.4488   -1.4833   -0.2781 H   0  0  0  0  0  0  0  0  0  0  0  0
    9.5792   -0.1075   -0.1423 H   0  0  0  0  0  0  0  0  0  0  0  0
    8.4735   -0.4751    1.2172 H   0  0  0  0  0  0  0  0  0  0  0  0
   -3.0129    3.6665    0.1278 H   0  0  0  0  0  0  0  0  0  0  0  0
   -3.8862    5.2645   -1.5538 H   0  0  0  0  0  0  0  0  0  0  0  0
   -7.6855    3.4866   -1.2758 H   0  0  0  0  0  0  0  0  0  0  0  0
   -6.7978    1.8618    0.4382 H   0  0  0  0  0  0  0  0  0  0  0  0
  1  2  1  0
  2  3  1  0
  2  4  1  0
  4  5  2  0
  4  6  1  0
  6  7  1  0
  7  8  1  0
  8  9  1  0
  9 10  1  0
 10 11  1  0
 11 12  2  0
 11 13  1  0
 13 14  1  0
 13 15  1  0
 15 16  2  0
 16 17  1  0
 17 18  2  0
 18 19  1  0
 19 20  2  0
 18 21  1  0
 21 22  1  0
 21 23  1  0
 21 24  1  0
  7 25  1  0
 25 26  2  0
 25 27  2  0
 25 28  1  0
 28 29  2  0
 29 30  1  0
 30 31  2  0
 31 32  1  0
 32 33  2  0
 31 34  1  0
 34 35  3  0
 20 15  1  0
 33 28  1  0
  1 36  1  0
  1 37  1  0
  1 38  1  0
  2 39  1  0
  3 40  1  0
  3 41  1  0
  3 42  1  0
  6 43  1  0
  8 44  1  0
  8 45  1  0
  9 46  1  0
  9 47  1  0
 10 48  1  0
 13 49  1  0
 14 50  1  0
 16 51  1  0
 17 52  1  0
 19 53  1  0
 20 54  1  0
 22 55  1  0
 22 56  1  0
 22 57  1  0
 23 58  1  0
 23 59  1  0
 23 60  1  0
 24 61  1  0
 24 62  1  0
 24 63  1  0
 29 64  1  0
 30 65  1  0
 32 66  1  0
 33 67  1  0
M  END
$$$$
[H]OC(=O)[C@@]([H])(N([H])S(=O)(=O)c1c([H])c([H])c(-c2noc(C([H])(C([H])([H])[H])C([H])([H])[H])n2)c([H])c1[H])C([H])(C([H])([H])[H])C([H])([H])[H]
     RDKit          3D

 46 47  0  0  0  0  0  0  0  0999 V2000
    5.6302    4.3320    1.6041 C   0  0  0  0  0  0  0  0  0  0  0  0
    5.5264    3.1020    0.7616 C   0  0  0  0  0  0  0  0  0  0  0  0
    6.5154    3.1068   -0.3929 C   0  0  0  0  0  0  0  0  0  0  0  0
    4.1376    2.9555    0.2468 C   0  0  0  0  0  0  0  0  0  0  0  0
    3.5146    1.7655    0.0772 N   0  0  0  0  0  0  0  0  0  0  0  0
    2.2581    1.9908   -0.4081 C   0  0  0  0  0  0  0  0  0  0  0  0
    2.1537    3.3120   -0.5182 N   0  0  0  0  0  0  0  0  0  0  0  0
    3.2779    3.8537   -0.1252 O   0  0  0  0  0  0  0  0  0  0  0  0
    1.3103    0.9343   -0.7374 C   0  0  0  0  0  0  0  0  0  0  0  0
    1.6471   -0.3926   -0.6265 C   0  0  0  0  0  0  0  0  0  0  0  0
    0.7807   -1.4113   -0.9369 C   0  0  0  0  0  0  0  0  0  0  0  0
   -0.4916   -1.0894   -1.3816 C   0  0  0  0  0  0  0  0  0  0  0  0
   -0.8658    0.2313   -1.5036 C   0  0  0  0  0  0  0  0  0  0  0  0
    0.0450    1.2468   -1.1785 C   0  0  0  0  0  0  0  0  0  0  0  0
   -1.6166   -2.3839   -1.8371 S   0  0  0  0  0  0  0  0  0  0  0  0
   -2.4809   -1.8140   -2.9044 O   0  0  0  0  0  0  0  0  0  0  0  0
   -0.7126   -3.4145   -2.5192 O   0  0  0  0  0  0  0  0  0  0  0  0
   -2.3582   -2.9935   -0.4781 N   0  0  0  0  0  0  0  0  0  0  0  0
   -3.1661   -2.1488    0.3282 C   0  0  1  0  0  0  0  0  0  0  0  0
   -4.5832   -2.6442    0.4746 C   0  0  0  0  0  0  0  0  0  0  0  0
   -5.2978   -2.7630   -0.8554 C   0  0  0  0  0  0  0  0  0  0  0  0
   -5.4470   -1.8751    1.4027 C   0  0  0  0  0  0  0  0  0  0  0  0
   -2.5175   -1.9216    1.6428 C   0  0  0  0  0  0  0  0  0  0  0  0
   -3.1091   -1.1437    2.5883 O   0  0  0  0  0  0  0  0  0  0  0  0
   -1.4170   -2.4562    1.8698 O   0  0  0  0  0  0  0  0  0  0  0  0
    5.1614    5.1864    1.0639 H   0  0  0  0  0  0  0  0  0  0  0  0
    6.6917    4.5377    1.8846 H   0  0  0  0  0  0  0  0  0  0  0  0
    4.9995    4.1587    2.5192 H   0  0  0  0  0  0  0  0  0  0  0  0
    5.7581    2.2066    1.3734 H   0  0  0  0  0  0  0  0  0  0  0  0
    5.9540    3.1722   -1.3421 H   0  0  0  0  0  0  0  0  0  0  0  0
    7.1166    4.0314   -0.2979 H   0  0  0  0  0  0  0  0  0  0  0  0
    7.1699    2.2086   -0.3779 H   0  0  0  0  0  0  0  0  0  0  0  0
    2.6260   -0.6373   -0.2823 H   0  0  0  0  0  0  0  0  0  0  0  0
    1.0202   -2.4632   -0.8574 H   0  0  0  0  0  0  0  0  0  0  0  0
   -1.8710    0.4375   -1.8546 H   0  0  0  0  0  0  0  0  0  0  0  0
   -0.3038    2.2531   -1.2940 H   0  0  0  0  0  0  0  0  0  0  0  0
   -2.0676   -3.8731   -0.0714 H   0  0  0  0  0  0  0  0  0  0  0  0
   -3.2024   -1.1447   -0.1428 H   0  0  0  0  0  0  0  0  0  0  0  0
   -4.4825   -3.7149    0.8310 H   0  0  0  0  0  0  0  0  0  0  0  0
   -6.2269   -3.3705   -0.7502 H   0  0  0  0  0  0  0  0  0  0  0  0
   -4.6211   -3.1937   -1.6226 H   0  0  0  0  0  0  0  0  0  0  0  0
   -5.5912   -1.7457   -1.1821 H   0  0  0  0  0  0  0  0  0  0  0  0
   -5.2128   -0.8153    1.5183 H   0  0  0  0  0  0  0  0  0  0  0  0
   -6.5038   -1.8813    0.9902 H   0  0  0  0  0  0  0  0  0  0  0  0
   -5.5574   -2.3276    2.4085 H   0  0  0  0  0  0  0  0  0  0  0  0
   -3.5903   -1.4039    3.4153 H   0  0  0  0  0  0  0  0  0  0  0  0
  1  2  1  0
  2  3  1  0
  2  4  1  0
  4  5  2  0
  5  6  1  0
  6  7  2  0
  7  8  1  0
  6  9  1  0
  9 10  2  0
 10 11  1  0
 11 12  2  0
 12 13  1  0
 13 14  2  0
 12 15  1  0
 15 16  2  0
 15 17  2  0
 15 18  1  0
 18 19  1  0
 19 20  1  0
 20 21  1  0
 20 22  1  0
 19 23  1  0
 23 24  1  0
 23 25  2  0
  8  4  1  0
 14  9  1  0
  1 26  1  0
  1 27  1  0
  1 28  1  0
  2 29  1  0
  3 30  1  0
  3 31  1  0
  3 32  1  0
 10 33  1  0
 11 34  1  0
 13 35  1  0
 14 36  1  0
 18 37  1  0
 19 38  1  6
 20 39  1  0
 21 40  1  0
 21 41  1  0
 21 42  1  0
 22 43  1  0
 22 44  1  0
 22 45  1  0
 24 46  1  0
M  END
$$$$
[H]c1nc(N([H])C(=O)c2c([H])nc(-c3c([H])c([H])c([H])c(F)c3C([H])([H])[H])c([H])c2[H])c([H])c(C([H])([H])[H])n1
     RDKit          3D

 39 41  0  0  0  0  0  0  0  0999 V2000
   -4.0936    2.2700    0.9057 C   0  0  0  0  0  0  0  0  0  0  0  0
   -4.7187    0.9863    0.4919 C   0  0  0  0  0  0  0  0  0  0  0  0
   -6.1258    0.9592    0.5136 C   0  0  0  0  0  0  0  0  0  0  0  0
   -6.8282    2.0687    0.8304 F   0  0  0  0  0  0  0  0  0  0  0  0
   -6.7908   -0.1872    0.2149 C   0  0  0  0  0  0  0  0  0  0  0  0
   -6.0445   -1.3162   -0.1080 C   0  0  0  0  0  0  0  0  0  0  0  0
   -4.6954   -1.2645   -0.1229 C   0  0  0  0  0  0  0  0  0  0  0  0
   -3.9621   -0.0916    0.1801 C   0  0  0  0  0  0  0  0  0  0  0  0
   -2.5110   -0.2009    0.1664 C   0  0  0  0  0  0  0  0  0  0  0  0
   -1.6046    0.7664   -0.1153 C   0  0  0  0  0  0  0  0  0  0  0  0
   -0.2128    0.5175   -0.1611 C   0  0  0  0  0  0  0  0  0  0  0  0
    0.2770   -0.7359    0.0810 C   0  0  0  0  0  0  0  0  0  0  0  0
   -0.6627   -1.7047    0.3637 C   0  0  0  0  0  0  0  0  0  0  0  0
   -1.9720   -1.4474    0.4025 N   0  0  0  0  0  0  0  0  0  0  0  0
    1.6970   -1.0900    0.0569 C   0  0  0  0  0  0  0  0  0  0  0  0
    2.0753   -2.2745    0.2919 O   0  0  0  0  0  0  0  0  0  0  0  0
    2.6942   -0.1242   -0.2290 N   0  0  0  0  0  0  0  0  0  0  0  0
    4.0528   -0.5152   -0.2405 C   0  0  0  0  0  0  0  0  0  0  0  0
    5.0078    0.4366   -0.5202 C   0  0  0  0  0  0  0  0  0  0  0  0
    6.3323    0.0714   -0.5351 C   0  0  0  0  0  0  0  0  0  0  0  0
    7.3710    1.1101   -0.8401 C   0  0  0  0  0  0  0  0  0  0  0  0
    6.6909   -1.1989   -0.2798 N   0  0  0  0  0  0  0  0  0  0  0  0
    5.7496   -2.1168   -0.0086 C   0  0  0  0  0  0  0  0  0  0  0  0
    4.4734   -1.7597    0.0045 N   0  0  0  0  0  0  0  0  0  0  0  0
   -3.8612    2.8420   -0.0012 H   0  0  0  0  0  0  0  0  0  0  0  0
   -4.8542    2.8497    1.5242 H   0  0  0  0  0  0  0  0  0  0  0  0
   -3.2065    2.0658    1.4972 H   0  0  0  0  0  0  0  0  0  0  0  0
   -7.8628   -0.1977    0.2341 H   0  0  0  0  0  0  0  0  0  0  0  0
   -6.6179   -2.2051   -0.3374 H   0  0  0  0  0  0  0  0  0  0  0  0
   -4.1138   -2.1282   -0.3714 H   0  0  0  0  0  0  0  0  0  0  0  0
   -1.9053    1.7656   -0.3523 H   0  0  0  0  0  0  0  0  0  0  0  0
    0.4659    1.3174   -0.3876 H   0  0  0  0  0  0  0  0  0  0  0  0
   -0.2699   -2.7156    0.5589 H   0  0  0  0  0  0  0  0  0  0  0  0
    2.4333    0.8665   -0.4295 H   0  0  0  0  0  0  0  0  0  0  0  0
    4.7247    1.4737   -0.7294 H   0  0  0  0  0  0  0  0  0  0  0  0
    8.2431    0.5973   -1.3078 H   0  0  0  0  0  0  0  0  0  0  0  0
    7.6452    1.6206    0.1134 H   0  0  0  0  0  0  0  0  0  0  0  0
    6.9578    1.8356   -1.5787 H   0  0  0  0  0  0  0  0  0  0  0  0
    6.0225   -3.1460    0.1995 H   0  0  0  0  0  0  0  0  0  0  0  0
  1  2  1  0
  2  3  2  0
  3  4  1  0
  3  5  1  0
  5  6  2  0
  6  7  1  0
  7  8  2  0
  8  9  1  0
  9 10  2  0
 10 11  1  0
 11 12  2  0
 12 13  1  0
 13 14  2  0
 12 15  1  0
 15 16  2  0
 15 17  1  0
 17 18  1  0
 18 19  2  0
 19 20  1  0
 20 21  1  0
 20 22  2  0
 22 23  1  0
 23 24  2  0
  8  2  1  0
 14  9  1  0
 24 18  1  0
  1 25  1  0
  1 26  1  0
  1 27  1  0
  5 28  1  0
  6 29  1  0
  7 30  1  0
 10 31  1  0
 11 32  1  0
 13 33  1  0
 17 34  1  0
 19 35  1  0
 21 36  1  0
 21 37  1  0
 21 38  1  0
 23 39  1  0
M  END
$$$$
[H]c1nc([H])c(-c2c(OC([H])([H])[H])c([H])c3c(c(C([H])([H])c4c([H])c([H])c([H])c([H])c4F)nn3C([H])([H])[H])c2[H])o1
     RDKit          3D

 41 44  0  0  0  0  0  0  0  0999 V2000
   -4.4441   -1.5481    1.8752 C   0  0  0  0  0  0  0  0  0  0  0  0
   -3.9761   -0.4457    1.1246 O   0  0  0  0  0  0  0  0  0  0  0  0
   -2.6964   -0.4980    0.6026 C   0  0  0  0  0  0  0  0  0  0  0  0
   -1.8480   -1.5664    0.7743 C   0  0  0  0  0  0  0  0  0  0  0  0
   -0.5812   -1.6207    0.2571 C   0  0  0  0  0  0  0  0  0  0  0  0
    0.4033   -2.5229    0.2259 N   0  0  0  0  0  0  0  0  0  0  0  0
    0.2773   -3.8236    0.8993 C   0  0  0  0  0  0  0  0  0  0  0  0
    1.4234   -2.0782   -0.4650 N   0  0  0  0  0  0  0  0  0  0  0  0
    1.1639   -0.8186   -0.9461 C   0  0  0  0  0  0  0  0  0  0  0  0
    2.1216   -0.0140   -1.7059 C   0  0  0  0  0  0  0  0  0  0  0  0
    3.2107    0.6087   -0.9153 C   0  0  0  0  0  0  0  0  0  0  0  0
    4.4748   -0.0221   -0.9981 C   0  0  0  0  0  0  0  0  0  0  0  0
    5.5504    0.4694   -0.3295 C   0  0  0  0  0  0  0  0  0  0  0  0
    5.3945    1.6113    0.4499 C   0  0  0  0  0  0  0  0  0  0  0  0
    4.1909    2.2458    0.5528 C   0  0  0  0  0  0  0  0  0  0  0  0
    3.0928    1.7141   -0.1543 C   0  0  0  0  0  0  0  0  0  0  0  0
    1.9377    2.4007   -0.0147 F   0  0  0  0  0  0  0  0  0  0  0  0
   -0.1012   -0.5423   -0.4854 C   0  0  0  0  0  0  0  0  0  0  0  0
   -0.9506    0.5279   -0.6545 C   0  0  0  0  0  0  0  0  0  0  0  0
   -2.2122    0.5698   -0.1370 C   0  0  0  0  0  0  0  0  0  0  0  0
   -3.1135    1.7027   -0.3591 C   0  0  0  0  0  0  0  0  0  0  0  0
   -2.7560    2.8033   -1.1298 C   0  0  0  0  0  0  0  0  0  0  0  0
   -3.7890    3.6740   -1.1570 N   0  0  0  0  0  0  0  0  0  0  0  0
   -4.7547    3.0915   -0.4035 C   0  0  0  0  0  0  0  0  0  0  0  0
   -4.3226    1.9219    0.0564 O   0  0  0  0  0  0  0  0  0  0  0  0
   -4.4510   -2.4186    1.2011 H   0  0  0  0  0  0  0  0  0  0  0  0
   -3.6801   -1.7178    2.6926 H   0  0  0  0  0  0  0  0  0  0  0  0
   -5.4390   -1.3593    2.3276 H   0  0  0  0  0  0  0  0  0  0  0  0
   -2.2366   -2.4044    1.3593 H   0  0  0  0  0  0  0  0  0  0  0  0
   -0.1559   -4.5069    0.1644 H   0  0  0  0  0  0  0  0  0  0  0  0
   -0.4119   -3.7576    1.7491 H   0  0  0  0  0  0  0  0  0  0  0  0
    1.2936   -4.1149    1.2534 H   0  0  0  0  0  0  0  0  0  0  0  0
    2.5595   -0.5783   -2.5660 H   0  0  0  0  0  0  0  0  0  0  0  0
    1.5758    0.8583   -2.1713 H   0  0  0  0  0  0  0  0  0  0  0  0
    4.5391   -0.9013   -1.6193 H   0  0  0  0  0  0  0  0  0  0  0  0
    6.5265   -0.0221   -0.4052 H   0  0  0  0  0  0  0  0  0  0  0  0
    6.2398    2.0399    1.0065 H   0  0  0  0  0  0  0  0  0  0  0  0
    4.0672    3.1378    1.1584 H   0  0  0  0  0  0  0  0  0  0  0  0
   -0.5855    1.3673   -1.2300 H   0  0  0  0  0  0  0  0  0  0  0  0
   -1.8266    2.9751   -1.6411 H   0  0  0  0  0  0  0  0  0  0  0  0
   -5.7104    3.5624   -0.2425 H   0  0  0  0  0  0  0  0  0  0  0  0
  1  2  1  0
  2  3  1  0
  3  4  2  0
  4  5  1  0
  5  6  1  0
  6  7  1  0
  6  8  1  0
  8  9  2  0
  9 10  1  0
 10 11  1  0
 11 12  2  0
 12 13  1  0
 13 14  2  0
 14 15  1  0
 15 16  2  0
 16 17  1  0
  9 18  1  0
 18 19  1  0
 19 20  2  0
 20 21  1  0
 21 22  2  0
 22 23  1  0
 23 24  2  0
 24 25  1  0
 20  3  1  0
 25 21  1  0
 18  5  2  0
 16 11  1  0
  1 26  1  0
  1 27  1  0
  1 28  1  0
  4 29  1  0
  7 30  1  0
  7 31  1  0
  7 32  1  0
 10 33  1  0
 10 34  1  0
 12 35  1  0
 13 36  1  0
 14 37  1  0
 15 38  1  0
 19 39  1  0
 22 40  1  0
 24 41  1  0
M  END
$$$$
[H]OC(=O)C([H])([H])c1c([H])c2c(N([H])[C@]([H])(C([H])([H])[H])[C@]3(O[H])c4c([H])c([H])c([H])c([H])c4C([H])([H])C([H])([H])C3([H])[H])nnc(C([H])([H])C([H])([H])C([H])([H])C([H])([H])C([H])([H])C([H])([H])C([H])([H])C([H])([H])c3c([H])c([H])c([H])c([H])c3[H])n2c1C([H])([H])[H]
     RDKit          3D

 86 90  0  0  0  0  0  0  0  0999 V2000
   -2.0917    2.3329    1.9507 C   0  0  0  0  0  0  0  0  0  0  0  0
   -2.7707    1.8081    0.7338 C   0  0  1  0  0  0  0  0  0  0  0  0
   -2.7163    0.3916    0.5441 N   0  0  0  0  0  0  0  0  0  0  0  0
   -1.4545   -0.2334    0.3553 C   0  0  0  0  0  0  0  0  0  0  0  0
   -0.3345    0.4941    0.3220 N   0  0  0  0  0  0  0  0  0  0  0  0
    0.8106   -0.0981    0.1349 N   0  0  0  0  0  0  0  0  0  0  0  0
    0.9797   -1.4437   -0.0374 C   0  0  0  0  0  0  0  0  0  0  0  0
    2.3123   -2.0156   -0.2541 C   0  0  0  0  0  0  0  0  0  0  0  0
    2.7118   -1.9876   -1.7316 C   0  0  0  0  0  0  0  0  0  0  0  0
    2.7926   -0.6397   -2.2921 C   0  0  0  0  0  0  0  0  0  0  0  0
    3.7644    0.3611   -1.8433 C   0  0  0  0  0  0  0  0  0  0  0  0
    5.2123    0.1884   -2.0821 C   0  0  0  0  0  0  0  0  0  0  0  0
    6.0144   -0.8752   -1.5283 C   0  0  0  0  0  0  0  0  0  0  0  0
    6.1811   -1.1343   -0.0945 C   0  0  0  0  0  0  0  0  0  0  0  0
    6.7785   -0.1708    0.8262 C   0  0  0  0  0  0  0  0  0  0  0  0
    6.2179    1.1394    1.0537 C   0  0  0  0  0  0  0  0  0  0  0  0
    6.7889    2.2367    0.3893 C   0  0  0  0  0  0  0  0  0  0  0  0
    6.3178    3.5100    0.5510 C   0  0  0  0  0  0  0  0  0  0  0  0
    5.2459    3.7617    1.3875 C   0  0  0  0  0  0  0  0  0  0  0  0
    4.6846    2.6610    2.0445 C   0  0  0  0  0  0  0  0  0  0  0  0
    5.1440    1.3982    1.8905 C   0  0  0  0  0  0  0  0  0  0  0  0
   -0.1167   -2.2116   -0.0093 N   0  0  0  0  0  0  0  0  0  0  0  0
   -0.2962   -3.5398   -0.1281 C   0  0  0  0  0  0  0  0  0  0  0  0
    0.7191   -4.5898   -0.3211 C   0  0  0  0  0  0  0  0  0  0  0  0
   -1.6806   -3.7633   -0.0035 C   0  0  0  0  0  0  0  0  0  0  0  0
   -2.3431   -5.0901   -0.0727 C   0  0  0  0  0  0  0  0  0  0  0  0
   -2.4331   -5.5728   -1.4790 C   0  0  0  0  0  0  0  0  0  0  0  0
   -3.0326   -6.8077   -1.6834 O   0  0  0  0  0  0  0  0  0  0  0  0
   -1.9776   -4.8730   -2.4202 O   0  0  0  0  0  0  0  0  0  0  0  0
   -2.3188   -2.5736    0.1900 C   0  0  0  0  0  0  0  0  0  0  0  0
   -1.3368   -1.6072    0.1868 C   0  0  0  0  0  0  0  0  0  0  0  0
   -4.1105    2.4345    0.6057 C   0  0  1  0  0  0  0  0  0  0  0  0
   -3.9164    3.8227    0.8330 O   0  0  0  0  0  0  0  0  0  0  0  0
   -4.6835    2.3509   -0.7947 C   0  0  0  0  0  0  0  0  0  0  0  0
   -5.7362    3.3939   -0.9632 C   0  0  0  0  0  0  0  0  0  0  0  0
   -6.6117    3.6038    0.2192 C   0  0  0  0  0  0  0  0  0  0  0  0
   -6.3962    2.5886    1.3181 C   0  0  0  0  0  0  0  0  0  0  0  0
   -7.4709    2.2446    2.1350 C   0  0  0  0  0  0  0  0  0  0  0  0
   -7.3443    1.3347    3.1539 C   0  0  0  0  0  0  0  0  0  0  0  0
   -6.1064    0.7581    3.3543 C   0  0  0  0  0  0  0  0  0  0  0  0
   -5.0486    1.1003    2.5451 C   0  0  0  0  0  0  0  0  0  0  0  0
   -5.1599    2.0064    1.5244 C   0  0  0  0  0  0  0  0  0  0  0  0
   -1.3659    1.6390    2.3753 H   0  0  0  0  0  0  0  0  0  0  0  0
   -2.7937    2.6563    2.7489 H   0  0  0  0  0  0  0  0  0  0  0  0
   -1.5313    3.2684    1.6734 H   0  0  0  0  0  0  0  0  0  0  0  0
   -2.1800    2.2167   -0.1520 H   0  0  0  0  0  0  0  0  0  0  0  0
   -3.6088   -0.1858    0.5409 H   0  0  0  0  0  0  0  0  0  0  0  0
    3.0165   -1.2088    0.1741 H   0  0  0  0  0  0  0  0  0  0  0  0
    2.6127   -2.8864    0.2878 H   0  0  0  0  0  0  0  0  0  0  0  0
    1.9599   -2.5752   -2.3316 H   0  0  0  0  0  0  0  0  0  0  0  0
    3.6523   -2.5389   -1.8186 H   0  0  0  0  0  0  0  0  0  0  0  0
    1.7211   -0.2156   -2.2735 H   0  0  0  0  0  0  0  0  0  0  0  0
    2.9680   -0.7697   -3.4118 H   0  0  0  0  0  0  0  0  0  0  0  0
    3.4441    1.3485   -2.3471 H   0  0  0  0  0  0  0  0  0  0  0  0
    3.6135    0.6470   -0.7484 H   0  0  0  0  0  0  0  0  0  0  0  0
    5.7083    1.2027   -2.1324 H   0  0  0  0  0  0  0  0  0  0  0  0
    5.2345   -0.0228   -3.2648 H   0  0  0  0  0  0  0  0  0  0  0  0
    5.7704   -1.8675   -2.0227 H   0  0  0  0  0  0  0  0  0  0  0  0
    7.1180   -0.7080   -1.9271 H   0  0  0  0  0  0  0  0  0  0  0  0
    5.2899   -1.6822    0.3639 H   0  0  0  0  0  0  0  0  0  0  0  0
    6.9310   -2.0372   -0.0760 H   0  0  0  0  0  0  0  0  0  0  0  0
    7.8896   -0.0952    0.5369 H   0  0  0  0  0  0  0  0  0  0  0  0
    6.8924   -0.6312    1.8713 H   0  0  0  0  0  0  0  0  0  0  0  0
    7.6310    2.0878   -0.2762 H   0  0  0  0  0  0  0  0  0  0  0  0
    6.7749    4.3555    0.0223 H   0  0  0  0  0  0  0  0  0  0  0  0
    4.8555    4.7621    1.5304 H   0  0  0  0  0  0  0  0  0  0  0  0
    3.8505    2.8832    2.6934 H   0  0  0  0  0  0  0  0  0  0  0  0
    4.7033    0.5697    2.3968 H   0  0  0  0  0  0  0  0  0  0  0  0
    1.3532   -4.7779    0.5944 H   0  0  0  0  0  0  0  0  0  0  0  0
    1.2567   -4.5943   -1.2594 H   0  0  0  0  0  0  0  0  0  0  0  0
    0.1400   -5.5764   -0.3594 H   0  0  0  0  0  0  0  0  0  0  0  0
   -1.8471   -5.8159    0.5994 H   0  0  0  0  0  0  0  0  0  0  0  0
   -3.3995   -5.0216    0.2814 H   0  0  0  0  0  0  0  0  0  0  0  0
   -3.8433   -6.9689   -2.2377 H   0  0  0  0  0  0  0  0  0  0  0  0
   -3.3736   -2.3585    0.3245 H   0  0  0  0  0  0  0  0  0  0  0  0
   -4.1146    4.0258    1.7772 H   0  0  0  0  0  0  0  0  0  0  0  0
   -3.8478    2.6251   -1.5034 H   0  0  0  0  0  0  0  0  0  0  0  0
   -5.0865    1.3721   -1.0615 H   0  0  0  0  0  0  0  0  0  0  0  0
   -6.3218    3.1850   -1.9069 H   0  0  0  0  0  0  0  0  0  0  0  0
   -5.2444    4.3887   -1.1873 H   0  0  0  0  0  0  0  0  0  0  0  0
   -7.6787    3.4561   -0.0984 H   0  0  0  0  0  0  0  0  0  0  0  0
   -6.5676    4.6346    0.6414 H   0  0  0  0  0  0  0  0  0  0  0  0
   -8.4361    2.7293    1.9403 H   0  0  0  0  0  0  0  0  0  0  0  0
   -8.2120    1.1035    3.7578 H   0  0  0  0  0  0  0  0  0  0  0  0
   -6.0354    0.0440    4.1643 H   0  0  0  0  0  0  0  0  0  0  0  0
   -4.0875    0.6426    2.7172 H   0  0  0  0  0  0  0  0  0  0  0  0
  1  2  1  0
  2  3  1  0
  3  4  1  0
  4  5  2  0
  5  6  1  0
  6  7  2  0
  7  8  1  0
  8  9  1  0
  9 10  1  0
 10 11  1  0
 11 12  1  0
 12 13  1  0
 13 14  1  0
 14 15  1  0
 15 16  1  0
 16 17  2  0
 17 18  1  0
 18 19  2  0
 19 20  1  0
 20 21  2  0
  7 22  1  0
 22 23  1  0
 23 24  1  0
 23 25  2  0
 25 26  1  0
 26 27  1  0
 27 28  1  0
 27 29  2  0
 25 30  1  0
 30 31  2  0
  2 32  1  0
 32 33  1  1
 32 34  1  0
 34 35  1  0
 35 36  1  0
 36 37  1  0
 37 38  2  0
 38 39  1  0
 39 40  2  0
 40 41  1  0
 41 42  2  0
 31  4  1  0
 42 32  1  0
 21 16  1  0
 31 22  1  0
 42 37  1  0
  1 43  1  0
  1 44  1  0
  1 45  1  0
  2 46  1  6
  3 47  1  0
  8 48  1  0
  8 49  1  0
  9 50  1  0
  9 51  1  0
 10 52  1  0
 10 53  1  0
 11 54  1  0
 11 55  1  0
 12 56  1  0
 12 57  1  0
 13 58  1  0
 13 59  1  0
 14 60  1  0
 14 61  1  0
 15 62  1  0
 15 63  1  0
 17 64  1  0
 18 65  1  0
 19 66  1  0
 20 67  1  0
 21 68  1  0
 24 69  1  0
 24 70  1  0
 24 71  1  0
 26 72  1  0
 26 73  1  0
 28 74  1  0
 30 75  1  0
 33 76  1  0
 34 77  1  0
 34 78  1  0
 35 79  1  0
 35 80  1  0
 36 81  1  0
 36 82  1  0
 38 83  1  0
 39 84  1  0
 40 85  1  0
 41 86  1  0
M  END
$$$$
[H]ON([H])C(=O)C1([H])C([H])([H])O[C@@]([H])(N([H])C([H])([H])P(=O)(O[H])S[H])[C@@]([H])(O[H])[C@@]([H])(O[H])[C@]1([H])O[H]
     RDKit          3D

 37 37  0  0  0  0  0  0  0  0999 V2000
    5.6109   -0.8400    0.8632 O   0  0  0  0  0  0  0  0  0  0  0  0
    4.5551   -0.0094    0.7231 N   0  0  0  0  0  0  0  0  0  0  0  0
    3.5524   -0.1886   -0.2365 C   0  0  0  0  0  0  0  0  0  0  0  0
    3.6800   -1.2071   -1.0045 O   0  0  0  0  0  0  0  0  0  0  0  0
    2.3823    0.7251   -0.3964 C   0  0  0  0  0  0  0  0  0  0  0  0
    1.5192    0.2714   -1.5252 C   0  0  0  0  0  0  0  0  0  0  0  0
    0.4380   -0.5023   -1.1629 O   0  0  0  0  0  0  0  0  0  0  0  0
   -0.5970    0.2151   -0.5987 C   0  0  1  0  0  0  0  0  0  0  0  0
   -1.8437   -0.3035   -1.0978 N   0  0  0  0  0  0  0  0  0  0  0  0
   -2.9904    0.3918   -0.5616 C   0  0  0  0  0  0  0  0  0  0  0  0
   -4.5432   -0.2560   -1.1839 P   0  0  0  0  0  0  0  0  0  0  0  0
   -4.4852   -1.9139   -1.4955 O   0  0  0  0  0  0  0  0  0  0  0  0
   -6.1179    0.1073    0.1982 S   0  0  0  0  0  0  0  0  0  0  0  0
   -4.9545    0.4177   -2.4836 O   0  0  0  0  0  0  0  0  0  0  0  0
   -0.5395    0.0125    0.8802 C   0  0  1  0  0  0  0  0  0  0  0  0
   -1.2620   -1.1025    1.3041 O   0  0  0  0  0  0  0  0  0  0  0  0
    0.8351   -0.0517    1.4630 C   0  0  1  0  0  0  0  0  0  0  0  0
    1.3745   -1.3175    1.5102 O   0  0  0  0  0  0  0  0  0  0  0  0
    1.7041    0.9939    0.8912 C   0  0  2  0  0  0  0  0  0  0  0  0
    0.9619    2.1835    0.8379 O   0  0  0  0  0  0  0  0  0  0  0  0
    5.2425   -1.7691    0.9311 H   0  0  0  0  0  0  0  0  0  0  0  0
    4.4813    0.8263    1.3755 H   0  0  0  0  0  0  0  0  0  0  0  0
    2.8289    1.6933   -0.7194 H   0  0  0  0  0  0  0  0  0  0  0  0
    1.1297    1.1082   -2.1473 H   0  0  0  0  0  0  0  0  0  0  0  0
    2.1389   -0.3439   -2.2133 H   0  0  0  0  0  0  0  0  0  0  0  0
   -0.5240    1.2827   -0.8968 H   0  0  0  0  0  0  0  0  0  0  0  0
   -1.9267   -1.3374   -0.9401 H   0  0  0  0  0  0  0  0  0  0  0  0
   -2.9066    1.4636   -0.8931 H   0  0  0  0  0  0  0  0  0  0  0  0
   -3.0309    0.4159    0.5315 H   0  0  0  0  0  0  0  0  0  0  0  0
   -5.2119   -2.4069   -1.0507 H   0  0  0  0  0  0  0  0  0  0  0  0
   -5.6401    0.0706    1.5166 H   0  0  0  0  0  0  0  0  0  0  0  0
   -1.0733    0.8948    1.3420 H   0  0  0  0  0  0  0  0  0  0  0  0
   -0.6486   -1.8803    1.2442 H   0  0  0  0  0  0  0  0  0  0  0  0
    0.6977    0.2259    2.5569 H   0  0  0  0  0  0  0  0  0  0  0  0
    1.3649   -1.8290    0.6943 H   0  0  0  0  0  0  0  0  0  0  0  0
    2.5082    1.2122    1.6480 H   0  0  0  0  0  0  0  0  0  0  0  0
    1.2901    2.7474    0.0959 H   0  0  0  0  0  0  0  0  0  0  0  0
  1  2  1  0
  2  3  1  0
  3  4  2  0
  3  5  1  0
  5  6  1  0
  6  7  1  0
  7  8  1  0
  8  9  1  0
  9 10  1  0
 10 11  1  0
 11 12  1  0
 11 13  1  0
 11 14  2  0
  8 15  1  0
 15 16  1  0
 15 17  1  0
 17 18  1  0
 17 19  1  0
 19 20  1  0
 19  5  1  0
  1 21  1  0
  2 22  1  0
  5 23  1  0
  6 24  1  0
  6 25  1  0
  8 26  1  1
  9 27  1  0
 10 28  1  0
 10 29  1  0
 12 30  1  0
 13 31  1  0
 15 32  1  1
 16 33  1  0
 17 34  1  1
 18 35  1  0
 19 36  1  1
 20 37  1  0
M  END
$$$$
[H]c1nc(-c2c([H])c([H])nc([H])c2[H])oc1C([H])([H])N([H])c1c([H])c([H])c(-c2c([H])c([H])c(F)c([H])c2F)c([H])c1[H]
     RDKit          3D

 42 45  0  0  0  0  0  0  0  0999 V2000
   -7.0871    1.2142   -3.4320 F   0  0  0  0  0  0  0  0  0  0  0  0
   -6.0932    0.9429   -2.5452 C   0  0  0  0  0  0  0  0  0  0  0  0
   -5.6879   -0.3702   -2.4327 C   0  0  0  0  0  0  0  0  0  0  0  0
   -4.6810   -0.6707   -1.5397 C   0  0  0  0  0  0  0  0  0  0  0  0
   -4.0734    0.3030   -0.7614 C   0  0  0  0  0  0  0  0  0  0  0  0
   -4.4955    1.6061   -0.8918 C   0  0  0  0  0  0  0  0  0  0  0  0
   -3.9696    2.6298   -0.1782 F   0  0  0  0  0  0  0  0  0  0  0  0
   -5.5107    1.9532   -1.7832 C   0  0  0  0  0  0  0  0  0  0  0  0
   -3.0102   -0.0365    0.1745 C   0  0  0  0  0  0  0  0  0  0  0  0
   -3.1665   -1.1210    0.9970 C   0  0  0  0  0  0  0  0  0  0  0  0
   -2.1617   -1.4447    1.8810 C   0  0  0  0  0  0  0  0  0  0  0  0
   -0.9999   -0.7061    1.9618 C   0  0  0  0  0  0  0  0  0  0  0  0
    0.0186   -1.0426    2.8805 N   0  0  0  0  0  0  0  0  0  0  0  0
    1.2795   -0.3608    2.8681 C   0  0  0  0  0  0  0  0  0  0  0  0
    2.0615   -0.5776    1.6462 C   0  0  0  0  0  0  0  0  0  0  0  0
    1.8191   -1.4792    0.6325 C   0  0  0  0  0  0  0  0  0  0  0  0
    2.7870   -1.3210   -0.2668 N   0  0  0  0  0  0  0  0  0  0  0  0
    3.6205   -0.3457    0.1649 C   0  0  0  0  0  0  0  0  0  0  0  0
    3.1448    0.0689    1.3144 O   0  0  0  0  0  0  0  0  0  0  0  0
    4.8062    0.1724   -0.4707 C   0  0  0  0  0  0  0  0  0  0  0  0
    5.5303    1.1745    0.1270 C   0  0  0  0  0  0  0  0  0  0  0  0
    6.6667    1.6720   -0.4809 C   0  0  0  0  0  0  0  0  0  0  0  0
    7.0712    1.1788   -1.6609 N   0  0  0  0  0  0  0  0  0  0  0  0
    6.4024    0.2028   -2.2854 C   0  0  0  0  0  0  0  0  0  0  0  0
    5.2723   -0.3017   -1.6949 C   0  0  0  0  0  0  0  0  0  0  0  0
   -0.8750    0.3760    1.1226 C   0  0  0  0  0  0  0  0  0  0  0  0
   -1.8703    0.7245    0.2232 C   0  0  0  0  0  0  0  0  0  0  0  0
   -6.1591   -1.1309   -3.0374 H   0  0  0  0  0  0  0  0  0  0  0  0
   -4.3787   -1.7218   -1.4706 H   0  0  0  0  0  0  0  0  0  0  0  0
   -5.8616    2.9652   -1.9065 H   0  0  0  0  0  0  0  0  0  0  0  0
   -4.0862   -1.7334    0.9564 H   0  0  0  0  0  0  0  0  0  0  0  0
   -2.3069   -2.3078    2.5229 H   0  0  0  0  0  0  0  0  0  0  0  0
   -0.1564   -1.7988    3.5739 H   0  0  0  0  0  0  0  0  0  0  0  0
    1.8454   -0.6550    3.7938 H   0  0  0  0  0  0  0  0  0  0  0  0
    1.1462    0.7556    3.0010 H   0  0  0  0  0  0  0  0  0  0  0  0
    0.9661   -2.1556    0.6532 H   0  0  0  0  0  0  0  0  0  0  0  0
    5.2130    1.5907    1.0947 H   0  0  0  0  0  0  0  0  0  0  0  0
    7.2325    2.4572   -0.0108 H   0  0  0  0  0  0  0  0  0  0  0  0
    6.7425   -0.1775   -3.2279 H   0  0  0  0  0  0  0  0  0  0  0  0
    4.7346   -1.0877   -2.1990 H   0  0  0  0  0  0  0  0  0  0  0  0
   -0.0036    1.0167    1.1180 H   0  0  0  0  0  0  0  0  0  0  0  0
   -1.7260    1.6000   -0.4316 H   0  0  0  0  0  0  0  0  0  0  0  0
  1  2  1  0
  2  3  2  0
  3  4  1  0
  4  5  2  0
  5  6  1  0
  6  7  1  0
  6  8  2  0
  5  9  1  0
  9 10  2  0
 10 11  1  0
 11 12  2  0
 12 13  1  0
 13 14  1  0
 14 15  1  0
 15 16  2  0
 16 17  1  0
 17 18  2  0
 18 19  1  0
 18 20  1  0
 20 21  2  0
 21 22  1  0
 22 23  2  0
 23 24  1  0
 24 25  2  0
 12 26  1  0
 26 27  2  0
  8  2  1  0
 27  9  1  0
 19 15  1  0
 25 20  1  0
  3 28  1  0
  4 29  1  0
  8 30  1  0
 10 31  1  0
 11 32  1  0
 13 33  1  0
 14 34  1  0
 14 35  1  0
 16 36  1  0
 21 37  1  0
 22 38  1  0
 24 39  1  0
 25 40  1  0
 26 41  1  0
 27 42  1  0
M  END
$$$$
[H]c1c([H])c(C([H])([H])C([H])([H])[H])c([H])c(N([H])c2nc(-c3c([H])c([H])c4c(c3[H])OC([H])([H])C([H])([H])O4)nc3c2C(=O)N([H])C([H])([H])C3([H])[H])c1F
     RDKit          3D

 52 56  0  0  0  0  0  0  0  0999 V2000
    1.9470    3.6448    0.8439 C   0  0  0  0  0  0  0  0  0  0  0  0
    2.7908    2.8798   -0.1521 C   0  0  0  0  0  0  0  0  0  0  0  0
    3.2801    1.6005    0.3936 C   0  0  0  0  0  0  0  0  0  0  0  0
    4.4795    1.5429    1.0545 C   0  0  0  0  0  0  0  0  0  0  0  0
    4.9128    0.3398    1.5528 C   0  0  0  0  0  0  0  0  0  0  0  0
    4.1397   -0.7863    1.3828 C   0  0  0  0  0  0  0  0  0  0  0  0
    4.5468   -1.9991    1.8729 F   0  0  0  0  0  0  0  0  0  0  0  0
    2.9090   -0.7792    0.7164 C   0  0  0  0  0  0  0  0  0  0  0  0
    2.1886   -1.9939    0.5446 N   0  0  0  0  0  0  0  0  0  0  0  0
    0.8792   -2.1687    0.0994 C   0  0  0  0  0  0  0  0  0  0  0  0
    0.0484   -1.1198   -0.0400 N   0  0  0  0  0  0  0  0  0  0  0  0
   -1.2387   -1.1637   -0.3682 C   0  0  0  0  0  0  0  0  0  0  0  0
   -1.7377   -2.3894   -0.5763 N   0  0  0  0  0  0  0  0  0  0  0  0
   -0.9824   -3.5068   -0.4613 C   0  0  0  0  0  0  0  0  0  0  0  0
   -1.6091   -4.8379   -0.6809 C   0  0  0  0  0  0  0  0  0  0  0  0
   -0.5965   -5.7517   -1.3148 C   0  0  0  0  0  0  0  0  0  0  0  0
    0.5114   -5.8928   -0.3709 N   0  0  0  0  0  0  0  0  0  0  0  0
    1.1714   -4.6493   -0.0610 C   0  0  0  0  0  0  0  0  0  0  0  0
    2.3746   -4.6365    0.2366 O   0  0  0  0  0  0  0  0  0  0  0  0
    0.3540   -3.4361   -0.1211 C   0  0  0  0  0  0  0  0  0  0  0  0
   -2.0770    0.0355   -0.4954 C   0  0  0  0  0  0  0  0  0  0  0  0
   -3.4170   -0.0950   -0.8544 C   0  0  0  0  0  0  0  0  0  0  0  0
   -4.2607    0.9844   -0.9901 C   0  0  0  0  0  0  0  0  0  0  0  0
   -3.7571    2.2691   -0.7590 C   0  0  0  0  0  0  0  0  0  0  0  0
   -4.5725    3.3733   -0.8854 O   0  0  0  0  0  0  0  0  0  0  0  0
   -4.1298    4.6118   -0.4083 C   0  0  0  0  0  0  0  0  0  0  0  0
   -2.6483    4.7641   -0.7767 C   0  0  0  0  0  0  0  0  0  0  0  0
   -1.9409    3.6960   -0.1751 O   0  0  0  0  0  0  0  0  0  0  0  0
   -2.4331    2.4110   -0.4032 C   0  0  0  0  0  0  0  0  0  0  0  0
   -1.6142    1.3083   -0.2758 C   0  0  0  0  0  0  0  0  0  0  0  0
    2.5075    0.4328    0.2323 C   0  0  0  0  0  0  0  0  0  0  0  0
    2.5634    4.2249    1.5558 H   0  0  0  0  0  0  0  0  0  0  0  0
    1.3501    2.9143    1.4221 H   0  0  0  0  0  0  0  0  0  0  0  0
    1.2882    4.3704    0.3010 H   0  0  0  0  0  0  0  0  0  0  0  0
    2.2522    2.7108   -1.1051 H   0  0  0  0  0  0  0  0  0  0  0  0
    3.6546    3.5477   -0.4031 H   0  0  0  0  0  0  0  0  0  0  0  0
    5.1083    2.4232    1.2012 H   0  0  0  0  0  0  0  0  0  0  0  0
    5.8679    0.2406    2.0905 H   0  0  0  0  0  0  0  0  0  0  0  0
    2.7313   -2.8409    0.8193 H   0  0  0  0  0  0  0  0  0  0  0  0
   -2.4778   -4.7199   -1.3609 H   0  0  0  0  0  0  0  0  0  0  0  0
   -1.9383   -5.2362    0.3179 H   0  0  0  0  0  0  0  0  0  0  0  0
   -1.0218   -6.7409   -1.5803 H   0  0  0  0  0  0  0  0  0  0  0  0
   -0.2842   -5.2867   -2.2674 H   0  0  0  0  0  0  0  0  0  0  0  0
    0.8105   -6.7899    0.0461 H   0  0  0  0  0  0  0  0  0  0  0  0
   -3.8317   -1.0865   -1.0396 H   0  0  0  0  0  0  0  0  0  0  0  0
   -5.2969    0.9178   -1.2651 H   0  0  0  0  0  0  0  0  0  0  0  0
   -4.6716    5.4710   -0.8489 H   0  0  0  0  0  0  0  0  0  0  0  0
   -4.2419    4.7120    0.6993 H   0  0  0  0  0  0  0  0  0  0  0  0
   -2.6031    4.7154   -1.8835 H   0  0  0  0  0  0  0  0  0  0  0  0
   -2.2730    5.7504   -0.4359 H   0  0  0  0  0  0  0  0  0  0  0  0
   -0.6000    1.4483    0.0005 H   0  0  0  0  0  0  0  0  0  0  0  0
    1.5882    0.5660   -0.3189 H   0  0  0  0  0  0  0  0  0  0  0  0
  1  2  1  0
  2  3  1  0
  3  4  2  0
  4  5  1  0
  5  6  2  0
  6  7  1  0
  6  8  1  0
  8  9  1  0
  9 10  1  0
 10 11  2  0
 11 12  1  0
 12 13  2  0
 13 14  1  0
 14 15  1  0
 15 16  1  0
 16 17  1  0
 17 18  1  0
 18 19  2  0
 18 20  1  0
 12 21  1  0
 21 22  2  0
 22 23  1  0
 23 24  2  0
 24 25  1  0
 25 26  1  0
 26 27  1  0
 27 28  1  0
 28 29  1  0
 29 30  2  0
  8 31  2  0
 31  3  1  0
 20 10  1  0
 30 21  1  0
 20 14  2  0
 29 24  1  0
  1 32  1  0
  1 33  1  0
  1 34  1  0
  2 35  1  0
  2 36  1  0
  4 37  1  0
  5 38  1  0
  9 39  1  0
 15 40  1  0
 15 41  1  0
 16 42  1  0
 16 43  1  0
 17 44  1  0
 22 45  1  0
 23 46  1  0
 26 47  1  0
 26 48  1  0
 27 49  1  0
 27 50  1  0
 30 51  1  0
 31 52  1  0
M  END
$$$$
[H]c1nc(N([H])[H])c2c(-c3c([H])c([H])c(Oc4c([H])c([H])c([H])c(F)c4C([H])([H])[H])c(OC([H])([H])[H])c3[H])nn([C@@]3([H])C([H])([H])C([H])([H])[C@@](N([H])[H])(C([H])([H])[H])C3([H])[H])c2n1
     RDKit          3D

 61 65  0  0  0  0  0  0  0  0999 V2000
    3.6499   -0.6439   -2.7742 C   0  0  0  0  0  0  0  0  0  0  0  0
    3.9638   -0.5186   -1.3912 O   0  0  0  0  0  0  0  0  0  0  0  0
    2.9048   -0.4952   -0.4513 C   0  0  0  0  0  0  0  0  0  0  0  0
    1.6053   -0.5934   -0.8975 C   0  0  0  0  0  0  0  0  0  0  0  0
    0.5695   -0.5784   -0.0210 C   0  0  0  0  0  0  0  0  0  0  0  0
    0.8418   -0.4616    1.3252 C   0  0  0  0  0  0  0  0  0  0  0  0
    2.1356   -0.3616    1.7869 C   0  0  0  0  0  0  0  0  0  0  0  0
    3.2020   -0.3777    0.8821 C   0  0  0  0  0  0  0  0  0  0  0  0
    4.5103   -0.2802    1.3315 O   0  0  0  0  0  0  0  0  0  0  0  0
    5.3295    0.7715    1.0135 C   0  0  0  0  0  0  0  0  0  0  0  0
    4.9874    1.8811    0.2783 C   0  0  0  0  0  0  0  0  0  0  0  0
    5.8984    2.9027    0.0042 C   0  0  0  0  0  0  0  0  0  0  0  0
    7.1840    2.8278    0.4694 C   0  0  0  0  0  0  0  0  0  0  0  0
    7.5434    1.7342    1.2019 C   0  0  0  0  0  0  0  0  0  0  0  0
    8.8266    1.6465    1.6738 F   0  0  0  0  0  0  0  0  0  0  0  0
    6.6391    0.7308    1.4677 C   0  0  0  0  0  0  0  0  0  0  0  0
    7.1014   -0.4189    2.2657 C   0  0  0  0  0  0  0  0  0  0  0  0
   -0.8066   -0.7054   -0.4481 C   0  0  0  0  0  0  0  0  0  0  0  0
   -1.7936    0.2107   -0.2269 N   0  0  0  0  0  0  0  0  0  0  0  0
   -2.9387   -0.2004   -0.7060 N   0  0  0  0  0  0  0  0  0  0  0  0
   -4.2395    0.4484   -0.6946 C   0  0  1  0  0  0  0  0  0  0  0  0
   -5.3727   -0.5384   -0.5716 C   0  0  0  0  0  0  0  0  0  0  0  0
   -6.4773    0.1642    0.1729 C   0  0  0  0  0  0  0  0  0  0  0  0
   -5.9167    1.4644    0.6817 C   0  0  2  0  0  0  0  0  0  0  0  0
   -6.2838    1.6483    2.1421 C   0  0  0  0  0  0  0  0  0  0  0  0
   -6.4695    2.5348   -0.1263 N   0  0  0  0  0  0  0  0  0  0  0  0
   -4.4200    1.3400    0.4998 C   0  0  0  0  0  0  0  0  0  0  0  0
   -2.7612   -1.4187   -1.2701 C   0  0  0  0  0  0  0  0  0  0  0  0
   -3.5839   -2.2790   -1.8817 N   0  0  0  0  0  0  0  0  0  0  0  0
   -3.1350   -3.4580   -2.3441 C   0  0  0  0  0  0  0  0  0  0  0  0
   -1.8419   -3.7824   -2.1916 N   0  0  0  0  0  0  0  0  0  0  0  0
   -0.9552   -2.9490   -1.5781 C   0  0  0  0  0  0  0  0  0  0  0  0
    0.3945   -3.3591   -1.4069 N   0  0  0  0  0  0  0  0  0  0  0  0
   -1.4092   -1.7446   -1.1078 C   0  0  0  0  0  0  0  0  0  0  0  0
    4.5504   -0.7868   -3.3832 H   0  0  0  0  0  0  0  0  0  0  0  0
    2.9915    0.1769   -3.1294 H   0  0  0  0  0  0  0  0  0  0  0  0
    3.0338   -1.5874   -2.8536 H   0  0  0  0  0  0  0  0  0  0  0  0
    1.4331   -0.6650   -1.9915 H   0  0  0  0  0  0  0  0  0  0  0  0
    0.0538   -0.4425    2.0888 H   0  0  0  0  0  0  0  0  0  0  0  0
    2.3465   -0.2700    2.8450 H   0  0  0  0  0  0  0  0  0  0  0  0
    3.9946    1.9834   -0.0902 H   0  0  0  0  0  0  0  0  0  0  0  0
    5.6081    3.7526   -0.5687 H   0  0  0  0  0  0  0  0  0  0  0  0
    7.9313    3.5891    0.2876 H   0  0  0  0  0  0  0  0  0  0  0  0
    7.7133   -0.0536    3.1368 H   0  0  0  0  0  0  0  0  0  0  0  0
    7.8103   -1.0018    1.6397 H   0  0  0  0  0  0  0  0  0  0  0  0
    6.2951   -1.1014    2.5791 H   0  0  0  0  0  0  0  0  0  0  0  0
   -4.4104    1.0595   -1.6051 H   0  0  0  0  0  0  0  0  0  0  0  0
   -5.7384   -0.8672   -1.5572 H   0  0  0  0  0  0  0  0  0  0  0  0
   -5.0297   -1.3773    0.0723 H   0  0  0  0  0  0  0  0  0  0  0  0
   -7.3703    0.3323   -0.4787 H   0  0  0  0  0  0  0  0  0  0  0  0
   -6.8588   -0.4274    1.0388 H   0  0  0  0  0  0  0  0  0  0  0  0
   -5.3777    1.7804    2.7829 H   0  0  0  0  0  0  0  0  0  0  0  0
   -7.0128    2.4735    2.2575 H   0  0  0  0  0  0  0  0  0  0  0  0
   -6.7965    0.7282    2.5452 H   0  0  0  0  0  0  0  0  0  0  0  0
   -7.0988    2.1818   -0.8853 H   0  0  0  0  0  0  0  0  0  0  0  0
   -7.0024    3.2344    0.4680 H   0  0  0  0  0  0  0  0  0  0  0  0
   -4.0403    2.3800    0.2958 H   0  0  0  0  0  0  0  0  0  0  0  0
   -3.9374    0.9590    1.4185 H   0  0  0  0  0  0  0  0  0  0  0  0
   -3.7903   -4.1697   -2.8447 H   0  0  0  0  0  0  0  0  0  0  0  0
    0.8108   -3.6340   -0.4939 H   0  0  0  0  0  0  0  0  0  0  0  0
    1.0089   -3.3876   -2.2460 H   0  0  0  0  0  0  0  0  0  0  0  0
  1  2  1  0
  2  3  1  0
  3  4  2  0
  4  5  1  0
  5  6  2  0
  6  7  1  0
  7  8  2  0
  8  9  1  0
  9 10  1  0
 10 11  2  0
 11 12  1  0
 12 13  2  0
 13 14  1  0
 14 15  1  0
 14 16  2  0
 16 17  1  0
  5 18  1  0
 18 19  2  0
 19 20  1  0
 20 21  1  0
 21 22  1  0
 22 23  1  0
 23 24  1  0
 24 25  1  0
 24 26  1  6
 24 27  1  0
 20 28  1  0
 28 29  2  0
 29 30  1  0
 30 31  2  0
 31 32  1  0
 32 33  1  0
 32 34  2  0
  8  3  1  0
 16 10  1  0
 34 18  1  0
 27 21  1  0
 34 28  1  0
  1 35  1  0
  1 36  1  0
  1 37  1  0
  4 38  1  0
  6 39  1  0
  7 40  1  0
 11 41  1  0
 12 42  1  0
 13 43  1  0
 17 44  1  0
 17 45  1  0
 17 46  1  0
 21 47  1  6
 22 48  1  0
 22 49  1  0
 23 50  1  0
 23 51  1  0
 25 52  1  0
 25 53  1  0
 25 54  1  0
 26 55  1  0
 26 56  1  0
 27 57  1  0
 27 58  1  0
 30 59  1  0
 33 60  1  0
 33 61  1  0
M  END
$$$$
[H]OC(=O)[C@@]([H])(N([H])C(=O)[C@@]([H])(N([H])C(=O)C([H])([H])c1c([H])c([H])c([H])c(O[H])c1[H])C([H])([H])O[H])C([H])([H])C([H])([H])C([H])([H])N=C(N([H])[H])N([H])[H]
     RDKit          3D

 53 53  0  0  0  0  0  0  0  0999 V2000
   -6.8506   -2.1994   -1.6530 N   0  0  0  0  0  0  0  0  0  0  0  0
   -7.0517   -0.8315   -1.9658 C   0  0  0  0  0  0  0  0  0  0  0  0
   -8.3128   -0.3678   -2.4404 N   0  0  0  0  0  0  0  0  0  0  0  0
   -6.0616   -0.0052   -1.8115 N   0  0  0  0  0  0  0  0  0  0  0  0
   -4.8083   -0.4956   -1.3346 C   0  0  0  0  0  0  0  0  0  0  0  0
   -4.2545    0.3786   -0.1960 C   0  0  0  0  0  0  0  0  0  0  0  0
   -2.9563   -0.2326    0.2096 C   0  0  0  0  0  0  0  0  0  0  0  0
   -2.2247    0.4702    1.3097 C   0  0  2  0  0  0  0  0  0  0  0  0
   -1.0065   -0.2744    1.5444 N   0  0  0  0  0  0  0  0  0  0  0  0
    0.2378    0.3667    1.3567 C   0  0  0  0  0  0  0  0  0  0  0  0
    0.2621    1.5710    0.9901 O   0  0  0  0  0  0  0  0  0  0  0  0
    1.5370   -0.3214    1.5742 C   0  0  2  0  0  0  0  0  0  0  0  0
    1.6852   -0.8383    2.9863 C   0  0  0  0  0  0  0  0  0  0  0  0
    1.6599    0.1869    3.9130 O   0  0  0  0  0  0  0  0  0  0  0  0
    2.6335    0.5818    1.3065 N   0  0  0  0  0  0  0  0  0  0  0  0
    3.5570    0.3372    0.2444 C   0  0  0  0  0  0  0  0  0  0  0  0
    3.3901   -0.6894   -0.4558 O   0  0  0  0  0  0  0  0  0  0  0  0
    4.6789    1.2334   -0.0517 C   0  0  0  0  0  0  0  0  0  0  0  0
    5.4553    0.7184   -1.2066 C   0  0  0  0  0  0  0  0  0  0  0  0
    6.4945   -0.1500   -0.9674 C   0  0  0  0  0  0  0  0  0  0  0  0
    7.2473   -0.6559   -2.0172 C   0  0  0  0  0  0  0  0  0  0  0  0
    6.9347   -0.2715   -3.3129 C   0  0  0  0  0  0  0  0  0  0  0  0
    5.8920    0.5994   -3.5491 C   0  0  0  0  0  0  0  0  0  0  0  0
    5.5871    0.9798   -4.8670 O   0  0  0  0  0  0  0  0  0  0  0  0
    5.1612    1.0865   -2.4898 C   0  0  0  0  0  0  0  0  0  0  0  0
   -2.9517    0.5191    2.5970 C   0  0  0  0  0  0  0  0  0  0  0  0
   -4.1483    1.1888    2.6888 O   0  0  0  0  0  0  0  0  0  0  0  0
   -2.5244   -0.0330    3.6440 O   0  0  0  0  0  0  0  0  0  0  0  0
   -6.8373   -2.5280   -0.6767 H   0  0  0  0  0  0  0  0  0  0  0  0
   -6.7158   -2.8751   -2.4248 H   0  0  0  0  0  0  0  0  0  0  0  0
   -9.1684   -0.8068   -2.0617 H   0  0  0  0  0  0  0  0  0  0  0  0
   -8.3992    0.3840   -3.1427 H   0  0  0  0  0  0  0  0  0  0  0  0
   -4.0367   -0.5244   -2.1192 H   0  0  0  0  0  0  0  0  0  0  0  0
   -4.9342   -1.5145   -0.8794 H   0  0  0  0  0  0  0  0  0  0  0  0
   -5.0037    0.2202    0.6329 H   0  0  0  0  0  0  0  0  0  0  0  0
   -4.1684    1.4307   -0.4916 H   0  0  0  0  0  0  0  0  0  0  0  0
   -2.2443   -0.3079   -0.6481 H   0  0  0  0  0  0  0  0  0  0  0  0
   -3.1076   -1.3027    0.5298 H   0  0  0  0  0  0  0  0  0  0  0  0
   -1.9892    1.5238    0.9890 H   0  0  0  0  0  0  0  0  0  0  0  0
   -1.0795   -1.2602    1.8445 H   0  0  0  0  0  0  0  0  0  0  0  0
    1.5931   -1.1539    0.8478 H   0  0  0  0  0  0  0  0  0  0  0  0
    0.8676   -1.5418    3.2591 H   0  0  0  0  0  0  0  0  0  0  0  0
    2.6222   -1.4288    3.0264 H   0  0  0  0  0  0  0  0  0  0  0  0
    2.4795    0.7342    3.8752 H   0  0  0  0  0  0  0  0  0  0  0  0
    2.7874    1.4406    1.8778 H   0  0  0  0  0  0  0  0  0  0  0  0
    5.3540    1.3823    0.8196 H   0  0  0  0  0  0  0  0  0  0  0  0
    4.3408    2.2630   -0.3368 H   0  0  0  0  0  0  0  0  0  0  0  0
    6.7544   -0.4631    0.0450 H   0  0  0  0  0  0  0  0  0  0  0  0
    8.0659   -1.3400   -1.8296 H   0  0  0  0  0  0  0  0  0  0  0  0
    7.5307   -0.6723   -4.1429 H   0  0  0  0  0  0  0  0  0  0  0  0
    6.0696    1.8175   -5.2208 H   0  0  0  0  0  0  0  0  0  0  0  0
    4.3394    1.7757   -2.7007 H   0  0  0  0  0  0  0  0  0  0  0  0
   -4.3827    1.8957    3.3525 H   0  0  0  0  0  0  0  0  0  0  0  0
  1  2  1  0
  2  3  1  0
  2  4  2  3
  4  5  1  0
  5  6  1  0
  6  7  1  0
  7  8  1  0
  8  9  1  0
  9 10  1  0
 10 11  2  0
 10 12  1  0
 12 13  1  0
 13 14  1  0
 12 15  1  0
 15 16  1  0
 16 17  2  0
 16 18  1  0
 18 19  1  0
 19 20  2  0
 20 21  1  0
 21 22  2  0
 22 23  1  0
 23 24  1  0
 23 25  2  0
  8 26  1  0
 26 27  1  0
 26 28  2  0
 25 19  1  0
  1 29  1  0
  1 30  1  0
  3 31  1  0
  3 32  1  0
  5 33  1  0
  5 34  1  0
  6 35  1  0
  6 36  1  0
  7 37  1  0
  7 38  1  0
  8 39  1  6
  9 40  1  0
 12 41  1  6
 13 42  1  0
 13 43  1  0
 14 44  1  0
 15 45  1  0
 18 46  1  0
 18 47  1  0
 20 48  1  0
 21 49  1  0
 22 50  1  0
 24 51  1  0
 25 52  1  0
 27 53  1  0
M  END
$$$$
[H]O[C@]1([H])C([H])([H])C([H])([H])[C@@]([H])(N([H])c2nc([H])c([H])c(-c3c([H])nc(-c4c([H])c([H])c(F)c([H])c4[H])n3[H])n2)C([H])([H])C1([H])[H]
     RDKit          3D

 46 49  0  0  0  0  0  0  0  0999 V2000
   -6.7858   -0.6243   -0.1513 O   0  0  0  0  0  0  0  0  0  0  0  0
   -6.3517    0.6794   -0.4036 C   0  0  1  0  0  0  0  0  0  0  0  0
   -5.2938    1.0454    0.6158 C   0  0  0  0  0  0  0  0  0  0  0  0
   -4.4269   -0.1747    0.8005 C   0  0  0  0  0  0  0  0  0  0  0  0
   -3.9369   -0.6135   -0.5486 C   0  0  1  0  0  0  0  0  0  0  0  0
   -4.2171    0.4397   -1.5891 C   0  0  0  0  0  0  0  0  0  0  0  0
   -5.6970    0.6629   -1.7651 C   0  0  0  0  0  0  0  0  0  0  0  0
   -2.5655   -1.0107   -0.4893 N   0  0  0  0  0  0  0  0  0  0  0  0
   -1.5463   -0.0987   -0.1431 C   0  0  0  0  0  0  0  0  0  0  0  0
   -1.7251    1.1822    0.1526 N   0  0  0  0  0  0  0  0  0  0  0  0
   -0.6967    1.9669    0.4684 C   0  0  0  0  0  0  0  0  0  0  0  0
    0.5897    1.4389    0.4900 C   0  0  0  0  0  0  0  0  0  0  0  0
    0.7924    0.1167    0.1869 C   0  0  0  0  0  0  0  0  0  0  0  0
   -0.2788   -0.6123   -0.1202 N   0  0  0  0  0  0  0  0  0  0  0  0
    2.1347   -0.4876    0.1964 C   0  0  0  0  0  0  0  0  0  0  0  0
    2.4057   -1.8072   -0.0977 C   0  0  0  0  0  0  0  0  0  0  0  0
    3.7297   -2.0293    0.0043 N   0  0  0  0  0  0  0  0  0  0  0  0
    4.2645   -0.8570    0.3574 C   0  0  0  0  0  0  0  0  0  0  0  0
    3.3005    0.0748    0.4735 N   0  0  0  0  0  0  0  0  0  0  0  0
    5.7115   -0.6730    0.5742 C   0  0  0  0  0  0  0  0  0  0  0  0
    6.6033   -1.7090    0.4239 C   0  0  0  0  0  0  0  0  0  0  0  0
    7.9545   -1.5347    0.6269 C   0  0  0  0  0  0  0  0  0  0  0  0
    8.4207   -0.2854    0.9908 C   0  0  0  0  0  0  0  0  0  0  0  0
    9.7496   -0.1159    1.1901 F   0  0  0  0  0  0  0  0  0  0  0  0
    7.5505    0.7732    1.1493 C   0  0  0  0  0  0  0  0  0  0  0  0
    6.2046    0.5615    0.9376 C   0  0  0  0  0  0  0  0  0  0  0  0
   -7.1525   -1.0065   -0.9910 H   0  0  0  0  0  0  0  0  0  0  0  0
   -7.1824    1.3978   -0.4073 H   0  0  0  0  0  0  0  0  0  0  0  0
   -4.6751    1.8899    0.2761 H   0  0  0  0  0  0  0  0  0  0  0  0
   -5.8039    1.3337    1.5665 H   0  0  0  0  0  0  0  0  0  0  0  0
   -5.0782   -0.9648    1.2623 H   0  0  0  0  0  0  0  0  0  0  0  0
   -3.5656    0.0520    1.4451 H   0  0  0  0  0  0  0  0  0  0  0  0
   -4.5346   -1.5137   -0.8978 H   0  0  0  0  0  0  0  0  0  0  0  0
   -3.6941    1.3728   -1.4227 H   0  0  0  0  0  0  0  0  0  0  0  0
   -3.8458    0.0268   -2.5599 H   0  0  0  0  0  0  0  0  0  0  0  0
   -5.9285    1.6166   -2.2618 H   0  0  0  0  0  0  0  0  0  0  0  0
   -6.0876   -0.1551   -2.4071 H   0  0  0  0  0  0  0  0  0  0  0  0
   -2.3129   -1.9959   -0.7063 H   0  0  0  0  0  0  0  0  0  0  0  0
   -0.8196    3.0310    0.7171 H   0  0  0  0  0  0  0  0  0  0  0  0
    1.4611    2.0351    0.7406 H   0  0  0  0  0  0  0  0  0  0  0  0
    1.6577   -2.5493   -0.3697 H   0  0  0  0  0  0  0  0  0  0  0  0
    3.4512    1.0616    0.7353 H   0  0  0  0  0  0  0  0  0  0  0  0
    6.1872   -2.6843    0.1336 H   0  0  0  0  0  0  0  0  0  0  0  0
    8.5998   -2.3892    0.4922 H   0  0  0  0  0  0  0  0  0  0  0  0
    7.9273    1.7477    1.4347 H   0  0  0  0  0  0  0  0  0  0  0  0
    5.5063    1.3858    1.0586 H   0  0  0  0  0  0  0  0  0  0  0  0
  1  2  1  0
  2  3  1  0
  3  4  1  0
  4  5  1  0
  5  6  1  0
  6  7  1  0
  5  8  1  0
  8  9  1  0
  9 10  2  0
 10 11  1  0
 11 12  2  0
 12 13  1  0
 13 14  2  0
 13 15  1  0
 15 16  2  0
 16 17  1  0
 17 18  2  0
 18 19  1  0
 18 20  1  0
 20 21  2  0
 21 22  1  0
 22 23  2  0
 23 24  1  0
 23 25  1  0
 25 26  2  0
  7  2  1  0
 14  9  1  0
 19 15  1  0
 26 20  1  0
  1 27  1  0
  2 28  1  6
  3 29  1  0
  3 30  1  0
  4 31  1  0
  4 32  1  0
  5 33  1  6
  6 34  1  0
  6 35  1  0
  7 36  1  0
  7 37  1  0
  8 38  1  0
 11 39  1  0
 12 40  1  0
 16 41  1  0
 19 42  1  0
 21 43  1  0
 22 44  1  0
 25 45  1  0
 26 46  1  0
M  END
$$$$
[H]c1c([H])c(Cl)c(Cl)c(C(=O)N([H])C2([H])C([H])([H])N3C([H])([H])C([H])([H])C2([H])C([H])([H])C3([H])[H])c1[H]
     RDKit          3D

 35 37  0  0  0  0  0  0  0  0999 V2000
    5.9038    1.8052   -1.2277 Cl  0  0  0  0  0  0  0  0  0  0  0  0
    4.9101    0.5929   -0.4466 C   0  0  0  0  0  0  0  0  0  0  0  0
    5.3711   -0.6730   -0.1939 C   0  0  0  0  0  0  0  0  0  0  0  0
    4.5467   -1.5851    0.4227 C   0  0  0  0  0  0  0  0  0  0  0  0
    3.2753   -1.2582    0.7902 C   0  0  0  0  0  0  0  0  0  0  0  0
    2.7999    0.0240    0.5374 C   0  0  0  0  0  0  0  0  0  0  0  0
    1.4502    0.3249    0.9430 C   0  0  0  0  0  0  0  0  0  0  0  0
    1.2475    0.7768    2.0811 O   0  0  0  0  0  0  0  0  0  0  0  0
    0.3678    0.1147    0.0729 N   0  0  0  0  0  0  0  0  0  0  0  0
   -1.0091    0.3893    0.4012 C   0  0  0  0  0  0  0  0  0  0  0  0
   -1.5663    1.4664   -0.4731 C   0  0  0  0  0  0  0  0  0  0  0  0
   -2.9594    1.1674   -0.7361 N   0  0  0  0  0  0  0  0  0  0  0  0
   -3.6334    0.8874    0.5178 C   0  0  0  0  0  0  0  0  0  0  0  0
   -3.1806   -0.4237    1.1227 C   0  0  0  0  0  0  0  0  0  0  0  0
   -1.8914   -0.8030    0.3807 C   0  0  0  0  0  0  0  0  0  0  0  0
   -2.3315   -1.1963   -1.0150 C   0  0  0  0  0  0  0  0  0  0  0  0
   -3.0584    0.0080   -1.6063 C   0  0  0  0  0  0  0  0  0  0  0  0
    3.6342    0.9369   -0.0831 C   0  0  0  0  0  0  0  0  0  0  0  0
    2.9902    2.5321   -0.3778 Cl  0  0  0  0  0  0  0  0  0  0  0  0
    6.3801   -0.9268   -0.4875 H   0  0  0  0  0  0  0  0  0  0  0  0
    4.9146   -2.5927    0.6235 H   0  0  0  0  0  0  0  0  0  0  0  0
    2.6509   -1.9958    1.2730 H   0  0  0  0  0  0  0  0  0  0  0  0
    0.5301   -0.2722   -0.9044 H   0  0  0  0  0  0  0  0  0  0  0  0
   -0.9994    0.7878    1.4579 H   0  0  0  0  0  0  0  0  0  0  0  0
   -0.9799    1.4736   -1.4204 H   0  0  0  0  0  0  0  0  0  0  0  0
   -1.4890    2.4625    0.0252 H   0  0  0  0  0  0  0  0  0  0  0  0
   -4.7316    0.8718    0.2813 H   0  0  0  0  0  0  0  0  0  0  0  0
   -3.4652    1.7502    1.2099 H   0  0  0  0  0  0  0  0  0  0  0  0
   -2.9871   -0.3358    2.2149 H   0  0  0  0  0  0  0  0  0  0  0  0
   -3.9717   -1.1741    0.8970 H   0  0  0  0  0  0  0  0  0  0  0  0
   -1.4507   -1.6798    0.9029 H   0  0  0  0  0  0  0  0  0  0  0  0
   -1.4967   -1.4469   -1.6798 H   0  0  0  0  0  0  0  0  0  0  0  0
   -3.0437   -2.0511   -0.8922 H   0  0  0  0  0  0  0  0  0  0  0  0
   -4.1202   -0.2586   -1.7355 H   0  0  0  0  0  0  0  0  0  0  0  0
   -2.6073    0.3012   -2.5772 H   0  0  0  0  0  0  0  0  0  0  0  0
  1  2  1  0
  2  3  2  0
  3  4  1  0
  4  5  2  0
  5  6  1  0
  6  7  1  0
  7  8  2  0
  7  9  1  0
  9 10  1  0
 10 11  1  0
 11 12  1  0
 12 13  1  0
 13 14  1  0
 14 15  1  0
 15 16  1  0
 16 17  1  0
  6 18  2  0
 18 19  1  0
 18  2  1  0
 15 10  1  0
 17 12  1  0
  3 20  1  0
  4 21  1  0
  5 22  1  0
  9 23  1  0
 10 24  1  0
 11 25  1  0
 11 26  1  0
 13 27  1  0
 13 28  1  0
 14 29  1  0
 14 30  1  0
 15 31  1  0
 16 32  1  0
 16 33  1  0
 17 34  1  0
 17 35  1  0
M  END
$$$$
[H]c1nc2c([H])c(OC([H])([H])C([H])([H])C([H])([H])N3C([H])([H])C([H])([H])N(C([H])([H])[H])C([H])([H])C3([H])[H])c(OC([H])([H])[H])c([H])c2c(N([H])c2c([H])c(OC([H])([H])[H])c(OC([H])([H])[H])c(OC([H])([H])[H])c2[H])c1C#N
     RDKit          3D

 73 76  0  0  0  0  0  0  0  0999 V2000
   -4.5732    0.7761   -2.9596 C   0  0  0  0  0  0  0  0  0  0  0  0
   -5.3704   -0.2440   -2.3936 O   0  0  0  0  0  0  0  0  0  0  0  0
   -5.2482   -0.4642   -1.0219 C   0  0  0  0  0  0  0  0  0  0  0  0
   -4.3924    0.2707   -0.2334 C   0  0  0  0  0  0  0  0  0  0  0  0
   -4.3138    0.0091    1.1105 C   0  0  0  0  0  0  0  0  0  0  0  0
   -3.4555    0.7343    1.9599 N   0  0  0  0  0  0  0  0  0  0  0  0
   -2.6482    1.8014    1.4447 C   0  0  0  0  0  0  0  0  0  0  0  0
   -3.1768    3.0875    1.4532 C   0  0  0  0  0  0  0  0  0  0  0  0
   -2.3896    4.1053    0.9529 C   0  0  0  0  0  0  0  0  0  0  0  0
   -1.1490    3.8517    0.4732 N   0  0  0  0  0  0  0  0  0  0  0  0
   -0.6380    2.5986    0.4665 C   0  0  0  0  0  0  0  0  0  0  0  0
    0.6361    2.3428   -0.0289 C   0  0  0  0  0  0  0  0  0  0  0  0
    1.1657    1.0702   -0.0423 C   0  0  0  0  0  0  0  0  0  0  0  0
    2.4383    0.8889   -0.5493 O   0  0  0  0  0  0  0  0  0  0  0  0
    3.1809    1.9683   -1.0415 C   0  0  0  0  0  0  0  0  0  0  0  0
    4.5590    1.5683   -1.5566 C   0  0  0  0  0  0  0  0  0  0  0  0
    5.3756    0.9339   -0.4614 C   0  0  0  0  0  0  0  0  0  0  0  0
    4.6969   -0.2708   -0.0171 N   0  0  0  0  0  0  0  0  0  0  0  0
    5.3961   -0.8234    1.1580 C   0  0  0  0  0  0  0  0  0  0  0  0
    6.7957   -1.2063    0.8368 C   0  0  0  0  0  0  0  0  0  0  0  0
    7.0420   -1.8070   -0.4152 N   0  0  0  0  0  0  0  0  0  0  0  0
    8.4034   -1.6879   -0.8772 C   0  0  0  0  0  0  0  0  0  0  0  0
    6.0706   -1.7332   -1.4323 C   0  0  0  0  0  0  0  0  0  0  0  0
    4.7041   -1.2871   -1.0638 C   0  0  0  0  0  0  0  0  0  0  0  0
    0.3997    0.0197    0.4544 C   0  0  0  0  0  0  0  0  0  0  0  0
    0.9681   -1.2462    0.4228 O   0  0  0  0  0  0  0  0  0  0  0  0
    0.2510   -2.3576    0.9081 C   0  0  0  0  0  0  0  0  0  0  0  0
   -0.8628    0.2651    0.9469 C   0  0  0  0  0  0  0  0  0  0  0  0
   -1.3853    1.5385    0.9570 C   0  0  0  0  0  0  0  0  0  0  0  0
   -4.4996    3.3532    1.9655 C   0  0  0  0  0  0  0  0  0  0  0  0
   -5.5517    3.5647    2.3705 N   0  0  0  0  0  0  0  0  0  0  0  0
   -5.1014   -0.9901    1.6328 C   0  0  0  0  0  0  0  0  0  0  0  0
   -5.9687   -1.7443    0.8715 C   0  0  0  0  0  0  0  0  0  0  0  0
   -6.7686   -2.7538    1.3855 O   0  0  0  0  0  0  0  0  0  0  0  0
   -6.8240   -3.1564    2.7210 C   0  0  0  0  0  0  0  0  0  0  0  0
   -6.0349   -1.4646   -0.4913 C   0  0  0  0  0  0  0  0  0  0  0  0
   -6.8998   -2.2118   -1.2725 O   0  0  0  0  0  0  0  0  0  0  0  0
   -6.4114   -3.4049   -1.8650 C   0  0  0  0  0  0  0  0  0  0  0  0
   -4.8277    0.9484   -4.0321 H   0  0  0  0  0  0  0  0  0  0  0  0
   -4.7643    1.7144   -2.3630 H   0  0  0  0  0  0  0  0  0  0  0  0
   -3.5132    0.4474   -2.8614 H   0  0  0  0  0  0  0  0  0  0  0  0
   -3.8016    1.0357   -0.6894 H   0  0  0  0  0  0  0  0  0  0  0  0
   -3.4168    0.4828    2.9669 H   0  0  0  0  0  0  0  0  0  0  0  0
   -2.8030    5.1080    0.9603 H   0  0  0  0  0  0  0  0  0  0  0  0
    1.2088    3.1712   -0.4073 H   0  0  0  0  0  0  0  0  0  0  0  0
    3.3476    2.7093   -0.2083 H   0  0  0  0  0  0  0  0  0  0  0  0
    2.6375    2.5387   -1.8230 H   0  0  0  0  0  0  0  0  0  0  0  0
    5.0782    2.4750   -1.9625 H   0  0  0  0  0  0  0  0  0  0  0  0
    4.4016    0.9201   -2.4371 H   0  0  0  0  0  0  0  0  0  0  0  0
    6.3823    0.7306   -0.8885 H   0  0  0  0  0  0  0  0  0  0  0  0
    5.5078    1.5844    0.4017 H   0  0  0  0  0  0  0  0  0  0  0  0
    5.4185    0.0087    1.8906 H   0  0  0  0  0  0  0  0  0  0  0  0
    4.8091   -1.6900    1.4843 H   0  0  0  0  0  0  0  0  0  0  0  0
    7.4903   -0.3172    0.9266 H   0  0  0  0  0  0  0  0  0  0  0  0
    7.1454   -1.8752    1.6801 H   0  0  0  0  0  0  0  0  0  0  0  0
    8.8602   -2.7068   -0.7747 H   0  0  0  0  0  0  0  0  0  0  0  0
    8.3716   -1.4624   -1.9654 H   0  0  0  0  0  0  0  0  0  0  0  0
    9.0051   -0.9503   -0.3354 H   0  0  0  0  0  0  0  0  0  0  0  0
    6.4504   -0.9877   -2.1970 H   0  0  0  0  0  0  0  0  0  0  0  0
    6.0002   -2.6825   -2.0402 H   0  0  0  0  0  0  0  0  0  0  0  0
    4.0831   -0.9762   -1.9008 H   0  0  0  0  0  0  0  0  0  0  0  0
    4.1770   -2.1715   -0.6003 H   0  0  0  0  0  0  0  0  0  0  0  0
    0.2084   -2.3327    2.0286 H   0  0  0  0  0  0  0  0  0  0  0  0
   -0.8178   -2.3482    0.5697 H   0  0  0  0  0  0  0  0  0  0  0  0
    0.7432   -3.3131    0.6510 H   0  0  0  0  0  0  0  0  0  0  0  0
   -1.4290   -0.5672    1.3251 H   0  0  0  0  0  0  0  0  0  0  0  0
   -5.0471   -1.2116    2.7107 H   0  0  0  0  0  0  0  0  0  0  0  0
   -7.8326   -3.5967    2.8902 H   0  0  0  0  0  0  0  0  0  0  0  0
   -6.6524   -2.2658    3.3638 H   0  0  0  0  0  0  0  0  0  0  0  0
   -6.0327   -3.9222    2.8855 H   0  0  0  0  0  0  0  0  0  0  0  0
   -6.0979   -4.1465   -1.1022 H   0  0  0  0  0  0  0  0  0  0  0  0
   -7.2035   -3.8916   -2.4728 H   0  0  0  0  0  0  0  0  0  0  0  0
   -5.5067   -3.1541   -2.4423 H   0  0  0  0  0  0  0  0  0  0  0  0
  1  2  1  0
  2  3  1  0
  3  4  2  0
  4  5  1  0
  5  6  1  0
  6  7  1  0
  7  8  2  0
  8  9  1  0
  9 10  2  0
 10 11  1  0
 11 12  2  0
 12 13  1  0
 13 14  1  0
 14 15  1  0
 15 16  1  0
 16 17  1  0
 17 18  1  0
 18 19  1  0
 19 20  1  0
 20 21  1  0
 21 22  1  0
 21 23  1  0
 23 24  1  0
 13 25  2  0
 25 26  1  0
 26 27  1  0
 25 28  1  0
 28 29  2  0
  8 30  1  0
 30 31  3  0
  5 32  2  0
 32 33  1  0
 33 34  1  0
 34 35  1  0
 33 36  2  0
 36 37  1  0
 37 38  1  0
 36  3  1  0
 29  7  1  0
 29 11  1  0
 24 18  1  0
  1 39  1  0
  1 40  1  0
  1 41  1  0
  4 42  1  0
  6 43  1  0
  9 44  1  0
 12 45  1  0
 15 46  1  0
 15 47  1  0
 16 48  1  0
 16 49  1  0
 17 50  1  0
 17 51  1  0
 19 52  1  0
 19 53  1  0
 20 54  1  0
 20 55  1  0
 22 56  1  0
 22 57  1  0
 22 58  1  0
 23 59  1  0
 23 60  1  0
 24 61  1  0
 24 62  1  0
 27 63  1  0
 27 64  1  0
 27 65  1  0
 28 66  1  0
 32 67  1  0
 35 68  1  0
 35 69  1  0
 35 70  1  0
 38 71  1  0
 38 72  1  0
 38 73  1  0
M  END
$$$$
[H]c1nc(N([H])c2c([H])c([H])c(N3C([H])([H])C([H])([H])C([H])(N4C([H])([H])C([H])([H])N(C([H])([H])[H])C([H])([H])C([H])([H])C4([H])[H])C([H])([H])C3([H])[H])c([H])c2OC([H])([H])[H])nc(N([H])c2c([H])c([H])c([H])c([H])c2S(=O)(=O)C([H])(C([H])([H])[H])C([H])([H])[H])c1Cl
     RDKit          3D

 85 89  0  0  0  0  0  0  0  0999 V2000
   -0.0606   -0.9681    3.3932 C   0  0  0  0  0  0  0  0  0  0  0  0
    0.7152   -0.6915    2.2205 O   0  0  0  0  0  0  0  0  0  0  0  0
    0.0983   -0.1007    1.1505 C   0  0  0  0  0  0  0  0  0  0  0  0
   -1.2147    0.2307    1.1617 C   0  0  0  0  0  0  0  0  0  0  0  0
   -1.8650    0.8303    0.0907 C   0  0  0  0  0  0  0  0  0  0  0  0
   -1.0982    1.0825   -1.0178 C   0  0  0  0  0  0  0  0  0  0  0  0
    0.2736    0.7575   -1.0823 C   0  0  0  0  0  0  0  0  0  0  0  0
    0.8670    0.1668    0.0030 C   0  0  0  0  0  0  0  0  0  0  0  0
    2.2408   -0.1819    0.0167 N   0  0  0  0  0  0  0  0  0  0  0  0
    3.1753   -0.0377   -1.0172 C   0  0  0  0  0  0  0  0  0  0  0  0
    3.0055    0.4455   -2.2340 N   0  0  0  0  0  0  0  0  0  0  0  0
    3.9542    0.5492   -3.1663 C   0  0  0  0  0  0  0  0  0  0  0  0
    5.2121    0.1216   -2.8443 C   0  0  0  0  0  0  0  0  0  0  0  0
    6.5347    0.2024   -3.9688 Cl  0  0  0  0  0  0  0  0  0  0  0  0
    5.4785   -0.4090   -1.5619 C   0  0  0  0  0  0  0  0  0  0  0  0
    6.7659   -0.8215   -1.2452 N   0  0  0  0  0  0  0  0  0  0  0  0
    7.2264   -1.3812   -0.0512 C   0  0  0  0  0  0  0  0  0  0  0  0
    6.4018   -1.8353    0.9645 C   0  0  0  0  0  0  0  0  0  0  0  0
    6.8846   -2.4384    2.1338 C   0  0  0  0  0  0  0  0  0  0  0  0
    8.2416   -2.5764    2.2580 C   0  0  0  0  0  0  0  0  0  0  0  0
    9.0770   -2.1355    1.2677 C   0  0  0  0  0  0  0  0  0  0  0  0
    8.6142   -1.5427    0.1194 C   0  0  0  0  0  0  0  0  0  0  0  0
    9.7499   -0.9731   -1.0729 S   0  0  0  0  0  0  0  0  0  0  0  0
   11.1611   -1.3689   -0.5745 O   0  0  0  0  0  0  0  0  0  0  0  0
    9.5664   -1.6791   -2.3850 O   0  0  0  0  0  0  0  0  0  0  0  0
    9.7208    0.7699   -1.3105 C   0  0  0  0  0  0  0  0  0  0  0  0
   10.7993    1.0977   -2.3372 C   0  0  0  0  0  0  0  0  0  0  0  0
   10.1532    1.4682   -0.0125 C   0  0  0  0  0  0  0  0  0  0  0  0
    4.4524   -0.4589   -0.7256 N   0  0  0  0  0  0  0  0  0  0  0  0
   -3.2421    1.1656    0.1295 N   0  0  0  0  0  0  0  0  0  0  0  0
   -3.9880    1.8505   -0.8686 C   0  0  0  0  0  0  0  0  0  0  0  0
   -5.1781    1.0316   -1.3838 C   0  0  0  0  0  0  0  0  0  0  0  0
   -5.7764    0.3342   -0.2123 C   0  0  0  0  0  0  0  0  0  0  0  0
   -5.4261    1.0256    1.0899 C   0  0  0  0  0  0  0  0  0  0  0  0
   -3.9597    0.7464    1.3479 C   0  0  0  0  0  0  0  0  0  0  0  0
   -7.2001    0.1149   -0.3356 N   0  0  0  0  0  0  0  0  0  0  0  0
   -7.5267   -0.7331   -1.4430 C   0  0  0  0  0  0  0  0  0  0  0  0
   -8.6246   -1.6664   -1.0388 C   0  0  0  0  0  0  0  0  0  0  0  0
   -9.2742   -1.3046    0.2719 C   0  0  0  0  0  0  0  0  0  0  0  0
   -9.9415   -0.0528    0.2813 N   0  0  0  0  0  0  0  0  0  0  0  0
  -10.9177    0.1514   -0.7316 C   0  0  0  0  0  0  0  0  0  0  0  0
   -9.1573    1.0772    0.6363 C   0  0  0  0  0  0  0  0  0  0  0  0
   -7.9820    1.3154   -0.2805 C   0  0  0  0  0  0  0  0  0  0  0  0
   -0.6289   -0.0818    3.7289 H   0  0  0  0  0  0  0  0  0  0  0  0
   -0.8389   -1.7459    3.1545 H   0  0  0  0  0  0  0  0  0  0  0  0
    0.5704   -1.3395    4.2148 H   0  0  0  0  0  0  0  0  0  0  0  0
   -1.8336    0.0301    2.0476 H   0  0  0  0  0  0  0  0  0  0  0  0
   -1.4896    1.5436   -1.9130 H   0  0  0  0  0  0  0  0  0  0  0  0
    0.7868    0.9989   -1.9991 H   0  0  0  0  0  0  0  0  0  0  0  0
    2.6245   -0.6145    0.9402 H   0  0  0  0  0  0  0  0  0  0  0  0
    3.7619    0.9570   -4.1594 H   0  0  0  0  0  0  0  0  0  0  0  0
    7.4893   -0.7123   -2.0271 H   0  0  0  0  0  0  0  0  0  0  0  0
    5.3477   -1.7530    0.8902 H   0  0  0  0  0  0  0  0  0  0  0  0
    6.1838   -2.7626    2.8737 H   0  0  0  0  0  0  0  0  0  0  0  0
    8.6542   -3.0404    3.1522 H   0  0  0  0  0  0  0  0  0  0  0  0
   10.1512   -2.2793    1.4353 H   0  0  0  0  0  0  0  0  0  0  0  0
    8.7460    1.1238   -1.6239 H   0  0  0  0  0  0  0  0  0  0  0  0
   10.4327    1.9541   -2.9737 H   0  0  0  0  0  0  0  0  0  0  0  0
   11.7253    1.4695   -1.8518 H   0  0  0  0  0  0  0  0  0  0  0  0
   10.9801    0.2329   -3.0079 H   0  0  0  0  0  0  0  0  0  0  0  0
   10.0159    2.5654   -0.2127 H   0  0  0  0  0  0  0  0  0  0  0  0
    9.4983    1.2019    0.8339 H   0  0  0  0  0  0  0  0  0  0  0  0
   11.2026    1.2514    0.2206 H   0  0  0  0  0  0  0  0  0  0  0  0
   -3.3618    2.1187   -1.7310 H   0  0  0  0  0  0  0  0  0  0  0  0
   -4.4063    2.8073   -0.4870 H   0  0  0  0  0  0  0  0  0  0  0  0
   -4.7509    0.2797   -2.0752 H   0  0  0  0  0  0  0  0  0  0  0  0
   -5.8859    1.7005   -1.9145 H   0  0  0  0  0  0  0  0  0  0  0  0
   -5.3152   -0.6833   -0.1389 H   0  0  0  0  0  0  0  0  0  0  0  0
   -6.0585    0.5867    1.8974 H   0  0  0  0  0  0  0  0  0  0  0  0
   -5.5411    2.1151    1.0568 H   0  0  0  0  0  0  0  0  0  0  0  0
   -3.8155   -0.3306    1.4498 H   0  0  0  0  0  0  0  0  0  0  0  0
   -3.6562    1.3445    2.2202 H   0  0  0  0  0  0  0  0  0  0  0  0
   -6.5858   -1.2789   -1.7397 H   0  0  0  0  0  0  0  0  0  0  0  0
   -7.7864   -0.1195   -2.3353 H   0  0  0  0  0  0  0  0  0  0  0  0
   -9.3677   -1.8349   -1.8318 H   0  0  0  0  0  0  0  0  0  0  0  0
   -8.1391   -2.6731   -0.8711 H   0  0  0  0  0  0  0  0  0  0  0  0
  -10.0584   -2.1001    0.4452 H   0  0  0  0  0  0  0  0  0  0  0  0
   -8.5904   -1.3720    1.1173 H   0  0  0  0  0  0  0  0  0  0  0  0
  -11.0317   -0.7162   -1.4286 H   0  0  0  0  0  0  0  0  0  0  0  0
  -11.9203    0.2242   -0.2176 H   0  0  0  0  0  0  0  0  0  0  0  0
  -10.8204    1.1184   -1.2802 H   0  0  0  0  0  0  0  0  0  0  0  0
   -8.7467    0.9257    1.6552 H   0  0  0  0  0  0  0  0  0  0  0  0
   -9.8267    1.9617    0.6929 H   0  0  0  0  0  0  0  0  0  0  0  0
   -8.2795    1.6256   -1.2974 H   0  0  0  0  0  0  0  0  0  0  0  0
   -7.3718    2.1225    0.1718 H   0  0  0  0  0  0  0  0  0  0  0  0
  1  2  1  0
  2  3  1  0
  3  4  2  0
  4  5  1  0
  5  6  2  0
  6  7  1  0
  7  8  2  0
  8  9  1  0
  9 10  1  0
 10 11  2  0
 11 12  1  0
 12 13  2  0
 13 14  1  0
 13 15  1  0
 15 16  1  0
 16 17  1  0
 17 18  2  0
 18 19  1  0
 19 20  2  0
 20 21  1  0
 21 22  2  0
 22 23  1  0
 23 24  2  0
 23 25  2  0
 23 26  1  0
 26 27  1  0
 26 28  1  0
 15 29  2  0
  5 30  1  0
 30 31  1  0
 31 32  1  0
 32 33  1  0
 33 34  1  0
 34 35  1  0
 33 36  1  0
 36 37  1  0
 37 38  1  0
 38 39  1  0
 39 40  1  0
 40 41  1  0
 40 42  1  0
 42 43  1  0
  8  3  1  0
 29 10  1  0
 35 30  1  0
 43 36  1  0
 22 17  1  0
  1 44  1  0
  1 45  1  0
  1 46  1  0
  4 47  1  0
  6 48  1  0
  7 49  1  0
  9 50  1  0
 12 51  1  0
 16 52  1  0
 18 53  1  0
 19 54  1  0
 20 55  1  0
 21 56  1  0
 26 57  1  0
 27 58  1  0
 27 59  1  0
 27 60  1  0
 28 61  1  0
 28 62  1  0
 28 63  1  0
 31 64  1  0
 31 65  1  0
 32 66  1  0
 32 67  1  0
 33 68  1  0
 34 69  1  0
 34 70  1  0
 35 71  1  0
 35 72  1  0
 37 73  1  0
 37 74  1  0
 38 75  1  0
 38 76  1  0
 39 77  1  0
 39 78  1  0
 41 79  1  0
 41 80  1  0
 41 81  1  0
 42 82  1  0
 42 83  1  0
 43 84  1  0
 43 85  1  0
M  END
$$$$
[H]O[C@]12n3c4c([H])c([H])c([H])c([H])c4c4c5c(c6c7c([H])c([H])c([H])c([H])c7n(c6c43)[C@@](C([H])([H])[H])(C([H])([H])[C@@]([H])(N([H])C([H])([H])[H])C1([H])[H])C2([H])[H])C([H])([H])N([H])C5=O
     RDKit          3D

 60 67  0  0  0  0  0  0  0  0999 V2000
    4.3847   -1.4039    1.8503 C   0  0  0  0  0  0  0  0  0  0  0  0
    4.5489   -1.0859    0.4876 N   0  0  0  0  0  0  0  0  0  0  0  0
    3.4295   -0.7719   -0.2998 C   0  0  1  0  0  0  0  0  0  0  0  0
    2.4186   -1.9444   -0.4318 C   0  0  0  0  0  0  0  0  0  0  0  0
    1.1985   -1.3417   -0.4125 C   0  0  1  0  0  0  0  0  0  0  0  0
    1.3213   -0.8227    0.9618 O   0  0  0  0  0  0  0  0  0  0  0  0
    1.3016   -0.3034   -1.4951 C   0  0  0  0  0  0  0  0  0  0  0  0
    1.6661    0.9875   -0.7554 C   0  0  2  0  0  0  0  0  0  0  0  0
    2.0808    1.8959   -1.9696 C   0  0  0  0  0  0  0  0  0  0  0  0
    2.8193    0.6109   -0.0041 C   0  0  0  0  0  0  0  0  0  0  0  0
    0.3860    1.4272   -0.2629 N   0  0  0  0  0  0  0  0  0  0  0  0
    0.0782    2.7357   -0.0812 C   0  0  0  0  0  0  0  0  0  0  0  0
    0.8021    3.9209   -0.1214 C   0  0  0  0  0  0  0  0  0  0  0  0
    0.1916    5.1520    0.1315 C   0  0  0  0  0  0  0  0  0  0  0  0
   -1.1494    5.2459    0.4322 C   0  0  0  0  0  0  0  0  0  0  0  0
   -1.8883    4.0889    0.4804 C   0  0  0  0  0  0  0  0  0  0  0  0
   -1.2645    2.8692    0.2251 C   0  0  0  0  0  0  0  0  0  0  0  0
   -1.8045    1.6255    0.2421 C   0  0  0  0  0  0  0  0  0  0  0  0
   -3.0584    1.0889    0.4378 C   0  0  0  0  0  0  0  0  0  0  0  0
   -4.3091    1.8055    0.7613 C   0  0  0  0  0  0  0  0  0  0  0  0
   -5.3162    0.7988    0.8231 N   0  0  0  0  0  0  0  0  0  0  0  0
   -4.7269   -0.5114    0.5922 C   0  0  0  0  0  0  0  0  0  0  0  0
   -5.3897   -1.5660    0.6153 O   0  0  0  0  0  0  0  0  0  0  0  0
   -3.3383   -0.2883    0.3583 C   0  0  0  0  0  0  0  0  0  0  0  0
   -2.3090   -1.1661    0.0749 C   0  0  0  0  0  0  0  0  0  0  0  0
   -2.1817   -2.5241   -0.0147 C   0  0  0  0  0  0  0  0  0  0  0  0
   -3.0304   -3.5948    0.0765 C   0  0  0  0  0  0  0  0  0  0  0  0
   -2.5670   -4.8854   -0.0644 C   0  0  0  0  0  0  0  0  0  0  0  0
   -1.2224   -5.1371   -0.3047 C   0  0  0  0  0  0  0  0  0  0  0  0
   -0.3529   -4.0800   -0.4008 C   0  0  0  0  0  0  0  0  0  0  0  0
   -0.8437   -2.7831   -0.2541 C   0  0  0  0  0  0  0  0  0  0  0  0
   -0.1588   -1.6505   -0.3145 N   0  0  0  0  0  0  0  0  0  0  0  0
   -1.0598   -0.6259   -0.1193 C   0  0  0  0  0  0  0  0  0  0  0  0
   -0.7990    0.7513   -0.0477 C   0  0  0  0  0  0  0  0  0  0  0  0
    4.0962   -0.5293    2.4716 H   0  0  0  0  0  0  0  0  0  0  0  0
    3.7697   -2.2934    2.0428 H   0  0  0  0  0  0  0  0  0  0  0  0
    5.4133   -1.6847    2.2335 H   0  0  0  0  0  0  0  0  0  0  0  0
    5.3995   -0.5892    0.2296 H   0  0  0  0  0  0  0  0  0  0  0  0
    3.8231   -0.6793   -1.3624 H   0  0  0  0  0  0  0  0  0  0  0  0
    2.6347   -2.5453   -1.3647 H   0  0  0  0  0  0  0  0  0  0  0  0
    2.6606   -2.6690    0.3796 H   0  0  0  0  0  0  0  0  0  0  0  0
    1.2207   -1.6405    1.4783 H   0  0  0  0  0  0  0  0  0  0  0  0
    2.0235   -0.5242   -2.2982 H   0  0  0  0  0  0  0  0  0  0  0  0
    0.3590   -0.0772   -2.0228 H   0  0  0  0  0  0  0  0  0  0  0  0
    3.0237    2.3964   -1.6926 H   0  0  0  0  0  0  0  0  0  0  0  0
    1.2558    2.5164   -2.2826 H   0  0  0  0  0  0  0  0  0  0  0  0
    2.3600    1.2472   -2.8437 H   0  0  0  0  0  0  0  0  0  0  0  0
    2.9055    0.8823    1.0884 H   0  0  0  0  0  0  0  0  0  0  0  0
    3.6922    1.2745   -0.3645 H   0  0  0  0  0  0  0  0  0  0  0  0
    1.8664    3.8874   -0.3403 H   0  0  0  0  0  0  0  0  0  0  0  0
    0.7889    6.0669    0.0920 H   0  0  0  0  0  0  0  0  0  0  0  0
   -1.6379    6.1932    0.6292 H   0  0  0  0  0  0  0  0  0  0  0  0
   -2.9397    4.1488    0.7181 H   0  0  0  0  0  0  0  0  0  0  0  0
   -4.5589    2.5380   -0.0293 H   0  0  0  0  0  0  0  0  0  0  0  0
   -4.2288    2.2728    1.7757 H   0  0  0  0  0  0  0  0  0  0  0  0
   -6.3391    0.9109    1.0044 H   0  0  0  0  0  0  0  0  0  0  0  0
   -4.0684   -3.4786    0.2595 H   0  0  0  0  0  0  0  0  0  0  0  0
   -3.2302   -5.7319    0.0097 H   0  0  0  0  0  0  0  0  0  0  0  0
   -0.8588   -6.1632   -0.4154 H   0  0  0  0  0  0  0  0  0  0  0  0
    0.7116   -4.2464   -0.5926 H   0  0  0  0  0  0  0  0  0  0  0  0
  1  2  1  0
  2  3  1  0
  3  4  1  0
  4  5  1  0
  5  6  1  1
  5  7  1  0
  7  8  1  0
  8  9  1  6
  8 10  1  0
  8 11  1  0
 11 12  1  0
 12 13  2  0
 13 14  1  0
 14 15  2  0
 15 16  1  0
 16 17  2  0
 17 18  1  0
 18 19  2  0
 19 20  1  0
 20 21  1  0
 21 22  1  0
 22 23  2  0
 22 24  1  0
 24 25  2  0
 25 26  1  0
 26 27  2  0
 27 28  1  0
 28 29  2  0
 29 30  1  0
 30 31  2  0
 31 32  1  0
 32 33  1  0
 33 34  2  0
 10  3  1  0
 34 11  1  0
 32  5  1  0
 17 12  1  0
 34 18  1  0
 24 19  1  0
 33 25  1  0
 31 26  1  0
  1 35  1  0
  1 36  1  0
  1 37  1  0
  2 38  1  0
  3 39  1  6
  4 40  1  0
  4 41  1  0
  6 42  1  0
  7 43  1  0
  7 44  1  0
  9 45  1  0
  9 46  1  0
  9 47  1  0
 10 48  1  0
 10 49  1  0
 13 50  1  0
 14 51  1  0
 15 52  1  0
 16 53  1  0
 20 54  1  0
 20 55  1  0
 21 56  1  0
 27 57  1  0
 28 58  1  0
 29 59  1  0
 30 60  1  0
M  END
$$$$
[H]c1nc(N2C([H])([H])C([H])([H])N(S(=O)(=O)c3c([H])c(C#N)c([H])c([H])c3C(F)(F)F)C([H])([H])C2([H])[H])c2c([H])c(C(F)(F)F)c([H])c([H])c2n1
     RDKit          3D

 50 53  0  0  0  0  0  0  0  0999 V2000
   -5.4082    2.8227   -0.4970 F   0  0  0  0  0  0  0  0  0  0  0  0
   -5.7946    1.5919   -1.0086 C   0  0  0  0  0  0  0  0  0  0  0  0
   -7.1940    1.6714   -0.9959 F   0  0  0  0  0  0  0  0  0  0  0  0
   -5.4635    1.4868   -2.3431 F   0  0  0  0  0  0  0  0  0  0  0  0
   -5.4140    0.4320   -0.1919 C   0  0  0  0  0  0  0  0  0  0  0  0
   -6.4175   -0.3494    0.4409 C   0  0  0  0  0  0  0  0  0  0  0  0
   -6.1201   -1.3979    1.2589 C   0  0  0  0  0  0  0  0  0  0  0  0
   -4.7950   -1.6891    1.4601 C   0  0  0  0  0  0  0  0  0  0  0  0
   -3.8280   -0.9443    0.8555 C   0  0  0  0  0  0  0  0  0  0  0  0
   -4.0810    0.1475    0.0065 C   0  0  0  0  0  0  0  0  0  0  0  0
   -2.7877    0.9765   -0.7437 S   0  0  0  0  0  0  0  0  0  0  0  0
   -2.7330    0.6106   -2.2427 O   0  0  0  0  0  0  0  0  0  0  0  0
   -2.6828    2.4325   -0.5305 O   0  0  0  0  0  0  0  0  0  0  0  0
   -1.2800    0.3417   -0.0862 N   0  0  0  0  0  0  0  0  0  0  0  0
   -0.5691   -0.4944   -0.9455 C   0  0  0  0  0  0  0  0  0  0  0  0
    0.7792   -0.7883   -0.2435 C   0  0  0  0  0  0  0  0  0  0  0  0
    1.4280    0.5229   -0.3129 N   0  0  0  0  0  0  0  0  0  0  0  0
    0.8078    1.5595    0.4255 C   0  0  0  0  0  0  0  0  0  0  0  0
   -0.6433    1.2411    0.7538 C   0  0  0  0  0  0  0  0  0  0  0  0
    2.5654    0.6356   -1.0899 C   0  0  0  0  0  0  0  0  0  0  0  0
    2.5213    1.1449   -2.3716 N   0  0  0  0  0  0  0  0  0  0  0  0
    3.6194    1.1568   -3.1455 C   0  0  0  0  0  0  0  0  0  0  0  0
    4.7941    0.6940   -2.7355 N   0  0  0  0  0  0  0  0  0  0  0  0
    4.9248    0.1872   -1.4983 C   0  0  0  0  0  0  0  0  0  0  0  0
    6.1616   -0.2450   -1.1223 C   0  0  0  0  0  0  0  0  0  0  0  0
    6.2939   -0.7329    0.1578 C   0  0  0  0  0  0  0  0  0  0  0  0
    5.2186   -0.7786    1.0069 C   0  0  0  0  0  0  0  0  0  0  0  0
    3.9875   -0.3425    0.6034 C   0  0  0  0  0  0  0  0  0  0  0  0
    3.7856    0.1671   -0.6834 C   0  0  0  0  0  0  0  0  0  0  0  0
    5.4278   -1.2558    2.4162 C   0  0  0  0  0  0  0  0  0  0  0  0
    6.7791   -1.3568    2.6929 F   0  0  0  0  0  0  0  0  0  0  0  0
    4.8482   -0.3651    3.2964 F   0  0  0  0  0  0  0  0  0  0  0  0
    4.9114   -2.5186    2.4942 F   0  0  0  0  0  0  0  0  0  0  0  0
   -4.3860   -2.7862    2.3062 C   0  0  0  0  0  0  0  0  0  0  0  0
   -4.0506   -3.6685    2.9513 N   0  0  0  0  0  0  0  0  0  0  0  0
   -7.4218   -0.0441    0.2320 H   0  0  0  0  0  0  0  0  0  0  0  0
   -6.8658   -2.0026    1.7290 H   0  0  0  0  0  0  0  0  0  0  0  0
   -2.7879   -1.1905    1.0198 H   0  0  0  0  0  0  0  0  0  0  0  0
   -1.0430   -1.4479   -1.1671 H   0  0  0  0  0  0  0  0  0  0  0  0
   -0.2755    0.0008   -1.9151 H   0  0  0  0  0  0  0  0  0  0  0  0
    0.4962   -0.9725    0.7945 H   0  0  0  0  0  0  0  0  0  0  0  0
    1.3277   -1.5914   -0.7533 H   0  0  0  0  0  0  0  0  0  0  0  0
    0.9746    2.5554   -0.0138 H   0  0  0  0  0  0  0  0  0  0  0  0
    1.3436    1.6013    1.4076 H   0  0  0  0  0  0  0  0  0  0  0  0
   -1.1813    2.1935    0.7730 H   0  0  0  0  0  0  0  0  0  0  0  0
   -0.6906    0.8255    1.8087 H   0  0  0  0  0  0  0  0  0  0  0  0
    3.5275    1.5574   -4.1403 H   0  0  0  0  0  0  0  0  0  0  0  0
    7.0183   -0.1963   -1.8131 H   0  0  0  0  0  0  0  0  0  0  0  0
    7.2682   -1.0777    0.4782 H   0  0  0  0  0  0  0  0  0  0  0  0
    3.1044   -0.3201    1.2216 H   0  0  0  0  0  0  0  0  0  0  0  0
  1  2  1  0
  2  3  1  0
  2  4  1  0
  2  5  1  0
  5  6  2  0
  6  7  1  0
  7  8  2  0
  8  9  1  0
  9 10  2  0
 10 11  1  0
 11 12  2  0
 11 13  2  0
 11 14  1  0
 14 15  1  0
 15 16  1  0
 16 17  1  0
 17 18  1  0
 18 19  1  0
 17 20  1  0
 20 21  2  0
 21 22  1  0
 22 23  2  0
 23 24  1  0
 24 25  2  0
 25 26  1  0
 26 27  2  0
 27 28  1  0
 28 29  2  0
 27 30  1  0
 30 31  1  0
 30 32  1  0
 30 33  1  0
  8 34  1  0
 34 35  3  0
 10  5  1  0
 19 14  1  0
 29 20  1  0
 29 24  1  0
  6 36  1  0
  7 37  1  0
  9 38  1  0
 15 39  1  0
 15 40  1  0
 16 41  1  0
 16 42  1  0
 18 43  1  0
 18 44  1  0
 19 45  1  0
 19 46  1  0
 22 47  1  0
 25 48  1  0
 26 49  1  0
 28 50  1  0
M  END
$$$$
[H]O[C@]1([H])C([H])([H])C([H])([H])C([H])([H])C([H])([H])[C@]1([H])C(=O)N(C([H])([H])[H])C([H])([H])[C@@]1([H])C(=O)O[C@]([H])(C([H])([H])[H])C([H])([H])C([H])([H])N(c2nc(C([H])([H])[H])c([H])c(-c3c([H])c([H])c([H])c([H])c3[H])c2[H])C([H])([H])[C@]1([H])C([H])([H])[H]
     RDKit          3D

 78 81  0  0  0  0  0  0  0  0999 V2000
   -0.4354    2.3213   -0.3345 C   0  0  0  0  0  0  0  0  0  0  0  0
   -0.4129    0.9292    0.1995 C   0  0  1  0  0  0  0  0  0  0  0  0
   -1.4851    0.0514   -0.4614 C   0  0  0  0  0  0  0  0  0  0  0  0
   -2.2442   -0.7139    0.4845 N   0  0  0  0  0  0  0  0  0  0  0  0
   -1.5505   -1.5512    1.4937 C   0  0  0  0  0  0  0  0  0  0  0  0
   -0.6818   -2.5995    0.8951 C   0  0  0  0  0  0  0  0  0  0  0  0
    0.6523   -2.7913    1.5847 C   0  0  1  0  0  0  0  0  0  0  0  0
    1.3485   -3.9850    0.9125 C   0  0  0  0  0  0  0  0  0  0  0  0
    1.5113   -1.7136    1.4807 O   0  0  0  0  0  0  0  0  0  0  0  0
    1.3067   -0.3856    1.3491 C   0  0  0  0  0  0  0  0  0  0  0  0
    1.4154    0.3896    2.3667 O   0  0  0  0  0  0  0  0  0  0  0  0
    0.9508    0.2702    0.0765 C   0  0  2  0  0  0  0  0  0  0  0  0
    1.9658    1.1508   -0.5483 C   0  0  0  0  0  0  0  0  0  0  0  0
    3.2632    0.5631   -0.7100 N   0  0  0  0  0  0  0  0  0  0  0  0
    3.5046   -0.2504   -1.9116 C   0  0  0  0  0  0  0  0  0  0  0  0
    4.3276    0.7108    0.2077 C   0  0  0  0  0  0  0  0  0  0  0  0
    4.2742    1.4038    1.2555 O   0  0  0  0  0  0  0  0  0  0  0  0
    5.6324    0.0153   -0.0378 C   0  0  1  0  0  0  0  0  0  0  0  0
    6.3026    0.4961   -1.2946 C   0  0  0  0  0  0  0  0  0  0  0  0
    7.6904    1.0586   -0.9815 C   0  0  0  0  0  0  0  0  0  0  0  0
    7.4558    2.1582    0.0623 C   0  0  0  0  0  0  0  0  0  0  0  0
    7.0989    1.5002    1.3746 C   0  0  0  0  0  0  0  0  0  0  0  0
    6.4910    0.1335    1.1748 C   0  0  1  0  0  0  0  0  0  0  0  0
    5.7207   -0.1530    2.3006 O   0  0  0  0  0  0  0  0  0  0  0  0
   -3.6573   -0.6825    0.4807 C   0  0  0  0  0  0  0  0  0  0  0  0
   -4.4202    0.1076   -0.2988 C   0  0  0  0  0  0  0  0  0  0  0  0
   -5.8296    0.0859   -0.2517 C   0  0  0  0  0  0  0  0  0  0  0  0
   -6.4226   -0.7834    0.6313 C   0  0  0  0  0  0  0  0  0  0  0  0
   -5.6432   -1.5906    1.4275 C   0  0  0  0  0  0  0  0  0  0  0  0
   -6.2980   -2.5238    2.3768 C   0  0  0  0  0  0  0  0  0  0  0  0
   -4.3084   -1.5260    1.3390 N   0  0  0  0  0  0  0  0  0  0  0  0
   -6.5969    0.9574   -1.1075 C   0  0  0  0  0  0  0  0  0  0  0  0
   -6.1013    1.3057   -2.3671 C   0  0  0  0  0  0  0  0  0  0  0  0
   -6.8723    2.1478   -3.1579 C   0  0  0  0  0  0  0  0  0  0  0  0
   -8.0911    2.6294   -2.7199 C   0  0  0  0  0  0  0  0  0  0  0  0
   -8.5849    2.2894   -1.4794 C   0  0  0  0  0  0  0  0  0  0  0  0
   -7.8188    1.4592   -0.7066 C   0  0  0  0  0  0  0  0  0  0  0  0
   -1.4874    2.6878   -0.2480 H   0  0  0  0  0  0  0  0  0  0  0  0
   -0.1590    2.4097   -1.3932 H   0  0  0  0  0  0  0  0  0  0  0  0
    0.1580    2.9625    0.3489 H   0  0  0  0  0  0  0  0  0  0  0  0
   -0.6632    0.9679    1.2775 H   0  0  0  0  0  0  0  0  0  0  0  0
   -0.9181   -0.6602   -1.1246 H   0  0  0  0  0  0  0  0  0  0  0  0
   -2.0721    0.7184   -1.0765 H   0  0  0  0  0  0  0  0  0  0  0  0
   -1.1055   -0.9361    2.2854 H   0  0  0  0  0  0  0  0  0  0  0  0
   -2.3814   -2.1113    2.0327 H   0  0  0  0  0  0  0  0  0  0  0  0
   -0.5668   -2.4038   -0.1874 H   0  0  0  0  0  0  0  0  0  0  0  0
   -1.2143   -3.6177    0.8993 H   0  0  0  0  0  0  0  0  0  0  0  0
    0.4780   -3.1344    2.6293 H   0  0  0  0  0  0  0  0  0  0  0  0
    1.8931   -4.6047    1.6277 H   0  0  0  0  0  0  0  0  0  0  0  0
    0.6200   -4.6251    0.3792 H   0  0  0  0  0  0  0  0  0  0  0  0
    2.0841   -3.6302    0.1530 H   0  0  0  0  0  0  0  0  0  0  0  0
    0.8045   -0.5796   -0.6664 H   0  0  0  0  0  0  0  0  0  0  0  0
    1.6079    1.4075   -1.5703 H   0  0  0  0  0  0  0  0  0  0  0  0
    2.0438    2.1062    0.0310 H   0  0  0  0  0  0  0  0  0  0  0  0
    4.1895   -1.0788   -1.7471 H   0  0  0  0  0  0  0  0  0  0  0  0
    2.4928   -0.6546   -2.2063 H   0  0  0  0  0  0  0  0  0  0  0  0
    3.8462    0.3427   -2.7662 H   0  0  0  0  0  0  0  0  0  0  0  0
    5.4453   -1.0928   -0.1727 H   0  0  0  0  0  0  0  0  0  0  0  0
    6.4176   -0.2813   -2.0731 H   0  0  0  0  0  0  0  0  0  0  0  0
    5.7176    1.3674   -1.6959 H   0  0  0  0  0  0  0  0  0  0  0  0
    8.1140    1.5177   -1.8854 H   0  0  0  0  0  0  0  0  0  0  0  0
    8.3100    0.2997   -0.5055 H   0  0  0  0  0  0  0  0  0  0  0  0
    6.5819    2.7724   -0.2553 H   0  0  0  0  0  0  0  0  0  0  0  0
    8.3269    2.8279    0.1424 H   0  0  0  0  0  0  0  0  0  0  0  0
    6.4887    2.1275    2.0408 H   0  0  0  0  0  0  0  0  0  0  0  0
    8.0814    1.3382    1.9076 H   0  0  0  0  0  0  0  0  0  0  0  0
    7.2897   -0.6604    1.1651 H   0  0  0  0  0  0  0  0  0  0  0  0
    5.0777   -0.8848    2.1417 H   0  0  0  0  0  0  0  0  0  0  0  0
   -3.9582    0.7955   -0.9953 H   0  0  0  0  0  0  0  0  0  0  0  0
   -7.5194   -0.8515    0.7190 H   0  0  0  0  0  0  0  0  0  0  0  0
   -6.6014   -1.9446    3.2891 H   0  0  0  0  0  0  0  0  0  0  0  0
   -7.2028   -2.9204    1.8822 H   0  0  0  0  0  0  0  0  0  0  0  0
   -5.6129   -3.3521    2.6656 H   0  0  0  0  0  0  0  0  0  0  0  0
   -5.1459    0.9220   -2.6984 H   0  0  0  0  0  0  0  0  0  0  0  0
   -6.5068    2.4273   -4.1313 H   0  0  0  0  0  0  0  0  0  0  0  0
   -8.6893    3.2876   -3.3436 H   0  0  0  0  0  0  0  0  0  0  0  0
   -9.5456    2.6875   -1.1700 H   0  0  0  0  0  0  0  0  0  0  0  0
   -8.1764    1.1659    0.2857 H   0  0  0  0  0  0  0  0  0  0  0  0
  1  2  1  0
  2  3  1  0
  3  4  1  0
  4  5  1  0
  5  6  1  0
  6  7  1  0
  7  8  1  0
  7  9  1  0
  9 10  1  0
 10 11  2  0
 10 12  1  0
 12 13  1  0
 13 14  1  0
 14 15  1  0
 14 16  1  0
 16 17  2  0
 16 18  1  0
 18 19  1  0
 19 20  1  0
 20 21  1  0
 21 22  1  0
 22 23  1  0
 23 24  1  0
  4 25  1  0
 25 26  2  0
 26 27  1  0
 27 28  2  0
 28 29  1  0
 29 30  1  0
 29 31  2  0
 27 32  1  0
 32 33  2  0
 33 34  1  0
 34 35  2  0
 35 36  1  0
 36 37  2  0
 12  2  1  0
 23 18  1  0
 31 25  1  0
 37 32  1  0
  1 38  1  0
  1 39  1  0
  1 40  1  0
  2 41  1  1
  3 42  1  0
  3 43  1  0
  5 44  1  0
  5 45  1  0
  6 46  1  0
  6 47  1  0
  7 48  1  1
  8 49  1  0
  8 50  1  0
  8 51  1  0
 12 52  1  6
 13 53  1  0
 13 54  1  0
 15 55  1  0
 15 56  1  0
 15 57  1  0
 18 58  1  6
 19 59  1  0
 19 60  1  0
 20 61  1  0
 20 62  1  0
 21 63  1  0
 21 64  1  0
 22 65  1  0
 22 66  1  0
 23 67  1  6
 24 68  1  0
 26 69  1  0
 28 70  1  0
 30 71  1  0
 30 72  1  0
 30 73  1  0
 33 74  1  0
 34 75  1  0
 35 76  1  0
 36 77  1  0
 37 78  1  0
M  END
$$$$
[H]OC([H])([H])[C@@]1([H])C([H])([H])C([H])([H])O[C@@]1([H])N([H])S(=O)(=O)c1c([H])c([H])c(-c2onc([H])c2[N+](=O)[O-])c([H])c1[H]
     RDKit          3D

 40 42  0  0  0  0  0  0  0  0999 V2000
    6.4785   -1.4281   -1.8784 O   0  0  0  0  0  0  0  0  0  0  0  0
    5.6470   -1.1515   -0.7818 N   0  0  0  0  0  0  0  0  0  0  0  0
    5.1637   -2.1399   -0.2103 O   0  0  0  0  0  0  0  0  0  0  0  0
    5.5049    0.1945   -0.3917 C   0  0  0  0  0  0  0  0  0  0  0  0
    6.5774    1.0960   -0.4855 C   0  0  0  0  0  0  0  0  0  0  0  0
    6.1334    2.2542   -0.0048 N   0  0  0  0  0  0  0  0  0  0  0  0
    4.9079    2.1310    0.3622 O   0  0  0  0  0  0  0  0  0  0  0  0
    4.4749    0.8765    0.1398 C   0  0  0  0  0  0  0  0  0  0  0  0
    3.1145    0.4619    0.4664 C   0  0  0  0  0  0  0  0  0  0  0  0
    2.4504   -0.5977   -0.0497 C   0  0  0  0  0  0  0  0  0  0  0  0
    1.1660   -0.9624    0.3877 C   0  0  0  0  0  0  0  0  0  0  0  0
    0.5179   -0.2507    1.3686 C   0  0  0  0  0  0  0  0  0  0  0  0
    1.1785    0.8289    1.8991 C   0  0  0  0  0  0  0  0  0  0  0  0
    2.4266    1.1722    1.4660 C   0  0  0  0  0  0  0  0  0  0  0  0
   -1.0662   -0.6558    1.9404 S   0  0  0  0  0  0  0  0  0  0  0  0
   -1.2596   -2.1582    1.8014 O   0  0  0  0  0  0  0  0  0  0  0  0
   -1.1539   -0.3762    3.4283 O   0  0  0  0  0  0  0  0  0  0  0  0
   -2.3067    0.1721    1.0924 N   0  0  0  0  0  0  0  0  0  0  0  0
   -2.2689   -0.1893   -0.2854 C   0  0  2  0  0  0  0  0  0  0  0  0
   -1.9825    0.9752   -1.0059 O   0  0  0  0  0  0  0  0  0  0  0  0
   -3.2575    1.5095   -1.3147 C   0  0  0  0  0  0  0  0  0  0  0  0
   -3.9456    0.2817   -1.8596 C   0  0  0  0  0  0  0  0  0  0  0  0
   -3.5225   -0.7596   -0.8526 C   0  0  2  0  0  0  0  0  0  0  0  0
   -4.6584   -0.8506    0.1790 C   0  0  0  0  0  0  0  0  0  0  0  0
   -5.8008   -1.3996   -0.4398 O   0  0  0  0  0  0  0  0  0  0  0  0
    7.5425    0.8245   -0.8842 H   0  0  0  0  0  0  0  0  0  0  0  0
    2.8938   -1.1657   -0.8652 H   0  0  0  0  0  0  0  0  0  0  0  0
    0.7223   -1.8214   -0.0859 H   0  0  0  0  0  0  0  0  0  0  0  0
    0.6664    1.4054    2.6829 H   0  0  0  0  0  0  0  0  0  0  0  0
    2.9446    2.0320    1.8977 H   0  0  0  0  0  0  0  0  0  0  0  0
   -3.1925    0.0148    1.5848 H   0  0  0  0  0  0  0  0  0  0  0  0
   -1.4586   -0.9194   -0.4722 H   0  0  0  0  0  0  0  0  0  0  0  0
   -3.1494    2.3227   -2.0406 H   0  0  0  0  0  0  0  0  0  0  0  0
   -3.7047    1.8194   -0.3560 H   0  0  0  0  0  0  0  0  0  0  0  0
   -5.0468    0.4061   -1.9114 H   0  0  0  0  0  0  0  0  0  0  0  0
   -3.5017    0.0402   -2.8471 H   0  0  0  0  0  0  0  0  0  0  0  0
   -3.3763   -1.7558   -1.3308 H   0  0  0  0  0  0  0  0  0  0  0  0
   -4.3501   -1.5853    0.9509 H   0  0  0  0  0  0  0  0  0  0  0  0
   -4.9364    0.1326    0.5615 H   0  0  0  0  0  0  0  0  0  0  0  0
   -6.5719   -0.7842   -0.4129 H   0  0  0  0  0  0  0  0  0  0  0  0
  1  2  1  0
  2  3  2  0
  2  4  1  0
  4  5  1  0
  5  6  2  0
  6  7  1  0
  7  8  1  0
  8  9  1  0
  9 10  2  0
 10 11  1  0
 11 12  2  0
 12 13  1  0
 13 14  2  0
 12 15  1  0
 15 16  2  0
 15 17  2  0
 15 18  1  0
 18 19  1  0
 19 20  1  0
 20 21  1  0
 21 22  1  0
 22 23  1  0
 23 24  1  0
 24 25  1  0
  8  4  2  0
 14  9  1  0
 23 19  1  0
  5 26  1  0
 10 27  1  0
 11 28  1  0
 13 29  1  0
 14 30  1  0
 18 31  1  0
 19 32  1  1
 21 33  1  0
 21 34  1  0
 22 35  1  0
 22 36  1  0
 23 37  1  6
 24 38  1  0
 24 39  1  0
 25 40  1  0
M  CHG  2   1  -1   2   1
M  END
$$$$
[H]c1nc(N([H])c2c([H])c([H])c3c([H])c([H])c([H])c([H])c3c2[H])nc(N2C(=O)N([H])C([H])(c3c([H])c([H])c([H])c([H])c3[H])C([H])([H])C2([H])[H])c1Cl
     RDKit          3D

 51 55  0  0  0  0  0  0  0  0999 V2000
    2.1498    1.3417   -1.8670 O   0  0  0  0  0  0  0  0  0  0  0  0
    2.6157    0.6675   -0.9074 C   0  0  0  0  0  0  0  0  0  0  0  0
    1.7810   -0.0207    0.0131 N   0  0  0  0  0  0  0  0  0  0  0  0
    2.2589   -1.1808    0.7360 C   0  0  0  0  0  0  0  0  0  0  0  0
    3.6866   -1.5209    0.3584 C   0  0  0  0  0  0  0  0  0  0  0  0
    4.4779   -0.2552    0.3654 C   0  0  0  0  0  0  0  0  0  0  0  0
    4.0215    0.5806   -0.7238 N   0  0  0  0  0  0  0  0  0  0  0  0
    5.9318   -0.4355    0.2028 C   0  0  0  0  0  0  0  0  0  0  0  0
    6.6738    0.7060   -0.0757 C   0  0  0  0  0  0  0  0  0  0  0  0
    8.0399    0.6770   -0.2526 C   0  0  0  0  0  0  0  0  0  0  0  0
    8.7023   -0.5264   -0.1508 C   0  0  0  0  0  0  0  0  0  0  0  0
    7.9646   -1.6528    0.1247 C   0  0  0  0  0  0  0  0  0  0  0  0
    6.5932   -1.6320    0.3037 C   0  0  0  0  0  0  0  0  0  0  0  0
    0.4650    0.4369    0.2185 C   0  0  0  0  0  0  0  0  0  0  0  0
   -0.5343   -0.3915    0.0066 N   0  0  0  0  0  0  0  0  0  0  0  0
   -1.8318   -0.0162    0.1849 C   0  0  0  0  0  0  0  0  0  0  0  0
   -2.8312   -0.9814   -0.0428 N   0  0  0  0  0  0  0  0  0  0  0  0
   -4.2119   -0.7402    0.0822 C   0  0  0  0  0  0  0  0  0  0  0  0
   -5.0506   -1.8364    0.4088 C   0  0  0  0  0  0  0  0  0  0  0  0
   -6.3834   -1.6094    0.5021 C   0  0  0  0  0  0  0  0  0  0  0  0
   -6.9803   -0.3867    0.3016 C   0  0  0  0  0  0  0  0  0  0  0  0
   -8.3429   -0.2306    0.4144 C   0  0  0  0  0  0  0  0  0  0  0  0
   -8.8987    1.0195    0.2038 C   0  0  0  0  0  0  0  0  0  0  0  0
   -8.0449    2.0799   -0.1176 C   0  0  0  0  0  0  0  0  0  0  0  0
   -6.6775    1.9089   -0.2277 C   0  0  0  0  0  0  0  0  0  0  0  0
   -6.1454    0.6711   -0.0170 C   0  0  0  0  0  0  0  0  0  0  0  0
   -4.7657    0.4937   -0.1264 C   0  0  0  0  0  0  0  0  0  0  0  0
   -2.0162    1.2401    0.5862 N   0  0  0  0  0  0  0  0  0  0  0  0
   -1.0362    2.1287    0.8179 C   0  0  0  0  0  0  0  0  0  0  0  0
    0.2678    1.7241    0.6301 C   0  0  0  0  0  0  0  0  0  0  0  0
    1.6349    2.7801    0.8966 Cl  0  0  0  0  0  0  0  0  0  0  0  0
    1.5767   -2.0223    0.4822 H   0  0  0  0  0  0  0  0  0  0  0  0
    2.2123   -0.9998    1.8317 H   0  0  0  0  0  0  0  0  0  0  0  0
    3.6325   -1.9875   -0.6547 H   0  0  0  0  0  0  0  0  0  0  0  0
    4.0635   -2.2428    1.1116 H   0  0  0  0  0  0  0  0  0  0  0  0
    4.2303    0.2738    1.3287 H   0  0  0  0  0  0  0  0  0  0  0  0
    4.6541    1.1088   -1.3645 H   0  0  0  0  0  0  0  0  0  0  0  0
    6.2034    1.6803   -0.1671 H   0  0  0  0  0  0  0  0  0  0  0  0
    8.5895    1.6025   -0.4712 H   0  0  0  0  0  0  0  0  0  0  0  0
    9.7826   -0.5349   -0.2923 H   0  0  0  0  0  0  0  0  0  0  0  0
    8.5315   -2.5844    0.1966 H   0  0  0  0  0  0  0  0  0  0  0  0
    6.0316   -2.5238    0.5188 H   0  0  0  0  0  0  0  0  0  0  0  0
   -2.5666   -1.9746   -0.3351 H   0  0  0  0  0  0  0  0  0  0  0  0
   -4.5776   -2.8076    0.5679 H   0  0  0  0  0  0  0  0  0  0  0  0
   -7.0505   -2.4489    0.7544 H   0  0  0  0  0  0  0  0  0  0  0  0
   -8.9460   -1.0803    0.6635 H   0  0  0  0  0  0  0  0  0  0  0  0
   -9.9564    1.1836    0.2824 H   0  0  0  0  0  0  0  0  0  0  0  0
   -8.4657    3.0830   -0.2896 H   0  0  0  0  0  0  0  0  0  0  0  0
   -6.0447    2.7465   -0.4771 H   0  0  0  0  0  0  0  0  0  0  0  0
   -4.2081    1.3533   -0.3913 H   0  0  0  0  0  0  0  0  0  0  0  0
   -1.2062    3.1366    1.1416 H   0  0  0  0  0  0  0  0  0  0  0  0
  1  2  2  0
  2  3  1  0
  3  4  1  0
  4  5  1  0
  5  6  1  0
  6  7  1  0
  6  8  1  0
  8  9  2  0
  9 10  1  0
 10 11  2  0
 11 12  1  0
 12 13  2  0
  3 14  1  0
 14 15  2  0
 15 16  1  0
 16 17  1  0
 17 18  1  0
 18 19  2  0
 19 20  1  0
 20 21  2  0
 21 22  1  0
 22 23  2  0
 23 24  1  0
 24 25  2  0
 25 26  1  0
 26 27  2  0
 16 28  2  0
 28 29  1  0
 29 30  2  0
 30 31  1  0
  7  2  1  0
 13  8  1  0
 30 14  1  0
 27 18  1  0
 26 21  1  0
  4 32  1  0
  4 33  1  0
  5 34  1  0
  5 35  1  0
  6 36  1  0
  7 37  1  0
  9 38  1  0
 10 39  1  0
 11 40  1  0
 12 41  1  0
 13 42  1  0
 17 43  1  0
 19 44  1  0
 20 45  1  0
 22 46  1  0
 23 47  1  0
 24 48  1  0
 25 49  1  0
 27 50  1  0
 29 51  1  0
M  END
$$$$
[H]c1oc([C@]2([H])N(C(=O)c3c([H])c([H])c([Se]C([H])(C([H])([H])[H])C([H])([H])[H])c([H])c3[H])C([H])([H])C([H])([H])C2([H])[H])nc1-c1c([H])c([H])c([H])c([H])c1[H]
     RDKit          3D

 52 55  0  0  0  0  0  0  0  0999 V2000
    7.9375    2.4776   -1.2255 C   0  0  0  0  0  0  0  0  0  0  0  0
    6.7976    1.4863   -1.1954 C   0  0  0  0  0  0  0  0  0  0  0  0
    7.1522    0.1921   -0.5367 C   0  0  0  0  0  0  0  0  0  0  0  0
    5.3265    2.2917   -0.2136 Se  0  0  0  0  0  2  0  0  0  0  0  0
    3.8066    1.1637   -0.4096 C   0  0  0  0  0  0  0  0  0  0  0  0
    2.7962    1.1645    0.5062 C   0  0  0  0  0  0  0  0  0  0  0  0
    1.7066    0.3062    0.2965 C   0  0  0  0  0  0  0  0  0  0  0  0
    1.5948   -0.5375   -0.7751 C   0  0  0  0  0  0  0  0  0  0  0  0
    2.6631   -0.5146   -1.7116 C   0  0  0  0  0  0  0  0  0  0  0  0
    3.7080    0.3218   -1.4932 C   0  0  0  0  0  0  0  0  0  0  0  0
    0.5119   -1.4699   -1.0054 C   0  0  0  0  0  0  0  0  0  0  0  0
    0.5082   -2.0406   -2.1738 O   0  0  0  0  0  0  0  0  0  0  0  0
   -0.5168   -1.8268   -0.1304 N   0  0  0  0  0  0  0  0  0  0  0  0
   -1.5607   -2.7996   -0.6432 C   0  0  0  0  0  0  0  0  0  0  0  0
   -2.2027   -3.3970    0.5456 C   0  0  0  0  0  0  0  0  0  0  0  0
   -1.5271   -2.8636    1.7556 C   0  0  0  0  0  0  0  0  0  0  0  0
   -0.8988   -1.5551    1.2223 C   0  0  2  0  0  0  0  0  0  0  0  0
   -1.9981   -0.5455    1.2980 C   0  0  0  0  0  0  0  0  0  0  0  0
   -3.0956   -0.5293    0.5404 N   0  0  0  0  0  0  0  0  0  0  0  0
   -3.8367    0.5296    0.9092 C   0  0  0  0  0  0  0  0  0  0  0  0
   -3.1495    1.1524    1.9154 C   0  0  0  0  0  0  0  0  0  0  0  0
   -2.0318    0.4672    2.1250 O   0  0  0  0  0  0  0  0  0  0  0  0
   -5.1082    0.9536    0.3720 C   0  0  0  0  0  0  0  0  0  0  0  0
   -5.6898    0.2165   -0.6562 C   0  0  0  0  0  0  0  0  0  0  0  0
   -6.9036    0.5784   -1.2051 C   0  0  0  0  0  0  0  0  0  0  0  0
   -7.5534    1.6857   -0.7313 C   0  0  0  0  0  0  0  0  0  0  0  0
   -7.0014    2.4342    0.2857 C   0  0  0  0  0  0  0  0  0  0  0  0
   -5.7925    2.0609    0.8215 C   0  0  0  0  0  0  0  0  0  0  0  0
    7.4824    3.4936   -1.1916 H   0  0  0  0  0  0  0  0  0  0  0  0
    8.5843    2.2829   -0.3592 H   0  0  0  0  0  0  0  0  0  0  0  0
    8.4777    2.3264   -2.1961 H   0  0  0  0  0  0  0  0  0  0  0  0
    6.4464    1.2866   -2.2448 H   0  0  0  0  0  0  0  0  0  0  0  0
    7.1126    0.2707    0.5509 H   0  0  0  0  0  0  0  0  0  0  0  0
    8.1361   -0.1855   -0.9168 H   0  0  0  0  0  0  0  0  0  0  0  0
    6.3619   -0.5540   -0.8370 H   0  0  0  0  0  0  0  0  0  0  0  0
    2.7946    1.7928    1.3830 H   0  0  0  0  0  0  0  0  0  0  0  0
    0.9068    0.3557    1.0273 H   0  0  0  0  0  0  0  0  0  0  0  0
    2.5940   -1.1784   -2.5716 H   0  0  0  0  0  0  0  0  0  0  0  0
    4.5198    0.3224   -2.2281 H   0  0  0  0  0  0  0  0  0  0  0  0
   -2.2169   -2.1943   -1.2843 H   0  0  0  0  0  0  0  0  0  0  0  0
   -1.0722   -3.5853   -1.2284 H   0  0  0  0  0  0  0  0  0  0  0  0
   -3.2988   -3.1793    0.5165 H   0  0  0  0  0  0  0  0  0  0  0  0
   -2.1168   -4.5186    0.5647 H   0  0  0  0  0  0  0  0  0  0  0  0
   -0.7601   -3.5205    2.1845 H   0  0  0  0  0  0  0  0  0  0  0  0
   -2.2371   -2.6005    2.5623 H   0  0  0  0  0  0  0  0  0  0  0  0
   -0.0764   -1.3281    1.8994 H   0  0  0  0  0  0  0  0  0  0  0  0
   -3.4271    2.0394    2.4655 H   0  0  0  0  0  0  0  0  0  0  0  0
   -5.1801   -0.6541   -1.0296 H   0  0  0  0  0  0  0  0  0  0  0  0
   -7.3354   -0.0084   -2.0016 H   0  0  0  0  0  0  0  0  0  0  0  0
   -8.5089    1.9705   -1.1634 H   0  0  0  0  0  0  0  0  0  0  0  0
   -7.4941    3.3184    0.6824 H   0  0  0  0  0  0  0  0  0  0  0  0
   -5.3353    2.6450    1.6337 H   0  0  0  0  0  0  0  0  0  0  0  0
  1  2  1  0
  2  3  1  0
  2  4  1  0
  4  5  1  0
  5  6  2  0
  6  7  1  0
  7  8  2  0
  8  9  1  0
  9 10  2  0
  8 11  1  0
 11 12  2  0
 11 13  1  0
 13 14  1  0
 14 15  1  0
 15 16  1  0
 16 17  1  0
 17 18  1  0
 18 19  2  0
 19 20  1  0
 20 21  2  0
 21 22  1  0
 20 23  1  0
 23 24  2  0
 24 25  1  0
 25 26  2  0
 26 27  1  0
 27 28  2  0
 10  5  1  0
 17 13  1  0
 22 18  1  0
 28 23  1  0
  1 29  1  0
  1 30  1  0
  1 31  1  0
  2 32  1  0
  3 33  1  0
  3 34  1  0
  3 35  1  0
  6 36  1  0
  7 37  1  0
  9 38  1  0
 10 39  1  0
 14 40  1  0
 14 41  1  0
 15 42  1  0
 15 43  1  0
 16 44  1  0
 16 45  1  0
 17 46  1  1
 21 47  1  0
 24 48  1  0
 25 49  1  0
 26 50  1  0
 27 51  1  0
 28 52  1  0
M  END
$$$$
[H]c1nc(N([H])C([H])([H])c2c([H])c(C([H])([H])[H])c(C([H])([H])[H])c(C([H])([H])[H])c2[H])nc(-c2nc3c([H])c([H])c([H])c([H])c3nc2N2C([H])([H])C([H])([H])C([H])([H])C([H])([H])C2([H])[H])c1[H]
     RDKit          3D

 63 67  0  0  0  0  0  0  0  0999 V2000
   -7.4132    1.6914    0.0280 C   0  0  0  0  0  0  0  0  0  0  0  0
   -6.4129    0.6138    0.0513 C   0  0  0  0  0  0  0  0  0  0  0  0
   -5.0584    0.9467   -0.0232 C   0  0  0  0  0  0  0  0  0  0  0  0
   -4.1097   -0.0291   -0.0040 C   0  0  0  0  0  0  0  0  0  0  0  0
   -2.6726    0.2256   -0.0828 C   0  0  0  0  0  0  0  0  0  0  0  0
   -2.2648    1.4947   -0.5629 N   0  0  0  0  0  0  0  0  0  0  0  0
   -0.8666    1.8212   -0.6482 C   0  0  0  0  0  0  0  0  0  0  0  0
   -0.4888    3.0274   -1.1047 N   0  0  0  0  0  0  0  0  0  0  0  0
    0.7887    3.3706   -1.2015 C   0  0  0  0  0  0  0  0  0  0  0  0
    1.7542    2.4275   -0.8092 C   0  0  0  0  0  0  0  0  0  0  0  0
    1.4064    1.2156   -0.3516 C   0  0  0  0  0  0  0  0  0  0  0  0
    0.0623    0.9653   -0.2914 N   0  0  0  0  0  0  0  0  0  0  0  0
    2.2991    0.1778    0.1431 C   0  0  0  0  0  0  0  0  0  0  0  0
    1.6575   -0.9493    0.6533 N   0  0  0  0  0  0  0  0  0  0  0  0
    2.3242   -1.9807    1.1487 C   0  0  0  0  0  0  0  0  0  0  0  0
    1.6515   -3.0936    1.6546 C   0  0  0  0  0  0  0  0  0  0  0  0
    2.3420   -4.1636    2.1710 C   0  0  0  0  0  0  0  0  0  0  0  0
    3.7195   -4.1965    2.2173 C   0  0  0  0  0  0  0  0  0  0  0  0
    4.3874   -3.1072    1.7223 C   0  0  0  0  0  0  0  0  0  0  0  0
    3.7008   -2.0227    1.1992 C   0  0  0  0  0  0  0  0  0  0  0  0
    4.3344   -0.9642    0.7179 N   0  0  0  0  0  0  0  0  0  0  0  0
    3.6313    0.1279    0.1912 C   0  0  0  0  0  0  0  0  0  0  0  0
    4.4723    1.1079   -0.3917 N   0  0  0  0  0  0  0  0  0  0  0  0
    4.7442    1.1169   -1.8264 C   0  0  0  0  0  0  0  0  0  0  0  0
    6.2687    0.9953   -2.0289 C   0  0  0  0  0  0  0  0  0  0  0  0
    6.9376    2.1066   -1.2481 C   0  0  0  0  0  0  0  0  0  0  0  0
    6.6671    1.8653    0.2181 C   0  0  0  0  0  0  0  0  0  0  0  0
    5.1728    2.0791    0.4723 C   0  0  0  0  0  0  0  0  0  0  0  0
   -4.4815   -1.3825    0.0913 C   0  0  0  0  0  0  0  0  0  0  0  0
   -5.8196   -1.7053    0.1645 C   0  0  0  0  0  0  0  0  0  0  0  0
   -6.2873   -3.1231    0.2673 C   0  0  0  0  0  0  0  0  0  0  0  0
   -6.7756   -0.7072    0.1441 C   0  0  0  0  0  0  0  0  0  0  0  0
   -8.2143   -1.0524    0.2218 C   0  0  0  0  0  0  0  0  0  0  0  0
   -6.9080    2.6706    0.1206 H   0  0  0  0  0  0  0  0  0  0  0  0
   -7.9994    1.7327   -0.9161 H   0  0  0  0  0  0  0  0  0  0  0  0
   -8.0987    1.5942    0.8968 H   0  0  0  0  0  0  0  0  0  0  0  0
   -4.7423    1.9775   -0.0934 H   0  0  0  0  0  0  0  0  0  0  0  0
   -2.1703   -0.0522    0.8939 H   0  0  0  0  0  0  0  0  0  0  0  0
   -2.2484   -0.5437   -0.7962 H   0  0  0  0  0  0  0  0  0  0  0  0
   -2.9273    2.2232   -0.8686 H   0  0  0  0  0  0  0  0  0  0  0  0
    1.1107    4.3581   -1.5749 H   0  0  0  0  0  0  0  0  0  0  0  0
    2.7551    2.7786   -0.8745 H   0  0  0  0  0  0  0  0  0  0  0  0
    0.5699   -3.0676    1.6182 H   0  0  0  0  0  0  0  0  0  0  0  0
    1.7446   -5.0034    2.5509 H   0  0  0  0  0  0  0  0  0  0  0  0
    4.1915   -5.0641    2.6339 H   0  0  0  0  0  0  0  0  0  0  0  0
    5.4904   -3.0964    1.7420 H   0  0  0  0  0  0  0  0  0  0  0  0
    4.4617    2.0517   -2.3237 H   0  0  0  0  0  0  0  0  0  0  0  0
    4.3132    0.1989   -2.2513 H   0  0  0  0  0  0  0  0  0  0  0  0
    6.4925    1.1097   -3.0892 H   0  0  0  0  0  0  0  0  0  0  0  0
    6.5770    0.0033   -1.6740 H   0  0  0  0  0  0  0  0  0  0  0  0
    8.0316    2.0029   -1.4088 H   0  0  0  0  0  0  0  0  0  0  0  0
    6.5513    3.0638   -1.6088 H   0  0  0  0  0  0  0  0  0  0  0  0
    7.2081    2.5556    0.8738 H   0  0  0  0  0  0  0  0  0  0  0  0
    6.9401    0.8000    0.4179 H   0  0  0  0  0  0  0  0  0  0  0  0
    4.9409    3.1186    0.1751 H   0  0  0  0  0  0  0  0  0  0  0  0
    4.9181    1.8919    1.5136 H   0  0  0  0  0  0  0  0  0  0  0  0
   -3.7362   -2.1663    0.1075 H   0  0  0  0  0  0  0  0  0  0  0  0
   -5.3914   -3.7733    0.3373 H   0  0  0  0  0  0  0  0  0  0  0  0
   -6.9303   -3.4053   -0.5966 H   0  0  0  0  0  0  0  0  0  0  0  0
   -6.8727   -3.2963    1.1923 H   0  0  0  0  0  0  0  0  0  0  0  0
   -8.4148   -1.7264   -0.6623 H   0  0  0  0  0  0  0  0  0  0  0  0
   -8.4527   -1.6618    1.1346 H   0  0  0  0  0  0  0  0  0  0  0  0
   -8.8612   -0.1734    0.2310 H   0  0  0  0  0  0  0  0  0  0  0  0
  1  2  1  0
  2  3  2  0
  3  4  1  0
  4  5  1  0
  5  6  1  0
  6  7  1  0
  7  8  2  0
  8  9  1  0
  9 10  2  0
 10 11  1  0
 11 12  2  0
 11 13  1  0
 13 14  2  0
 14 15  1  0
 15 16  2  0
 16 17  1  0
 17 18  2  0
 18 19  1  0
 19 20  2  0
 20 21  1  0
 21 22  2  0
 22 23  1  0
 23 24  1  0
 24 25  1  0
 25 26  1  0
 26 27  1  0
 27 28  1  0
  4 29  2  0
 29 30  1  0
 30 31  1  0
 30 32  2  0
 32 33  1  0
 32  2  1  0
 12  7  1  0
 22 13  1  0
 28 23  1  0
 20 15  1  0
  1 34  1  0
  1 35  1  0
  1 36  1  0
  3 37  1  0
  5 38  1  0
  5 39  1  0
  6 40  1  0
  9 41  1  0
 10 42  1  0
 16 43  1  0
 17 44  1  0
 18 45  1  0
 19 46  1  0
 24 47  1  0
 24 48  1  0
 25 49  1  0
 25 50  1  0
 26 51  1  0
 26 52  1  0
 27 53  1  0
 27 54  1  0
 28 55  1  0
 28 56  1  0
 29 57  1  0
 31 58  1  0
 31 59  1  0
 31 60  1  0
 33 61  1  0
 33 62  1  0
 33 63  1  0
M  END
$$$$
