[H]c1oc(C([H])([H])N([H])C(=O)c2c([H])c([H])c(C(=O)N([H])[H])c([H])c2[H])nc1C([H])(C([H])([H])[H])C([H])([H])[H]
     RDKit          3D

 38 39  0  0  0  0  0  0  0  0999 V2000
   -4.9160    2.1022    1.0981 C   0  0  0  0  0  0  0  0  0  0  0  0
   -4.8640    0.5906    1.1011 C   0  0  0  0  0  0  0  0  0  0  0  0
   -6.2560    0.1074    0.6795 C   0  0  0  0  0  0  0  0  0  0  0  0
   -3.8473    0.1056    0.1359 C   0  0  0  0  0  0  0  0  0  0  0  0
   -3.7142    0.4018   -1.2060 C   0  0  0  0  0  0  0  0  0  0  0  0
   -2.6681   -0.2599   -1.6494 O   0  0  0  0  0  0  0  0  0  0  0  0
   -2.1170   -0.9615   -0.6895 C   0  0  0  0  0  0  0  0  0  0  0  0
   -0.9247   -1.8476   -0.7486 C   0  0  0  0  0  0  0  0  0  0  0  0
    0.2883   -1.1013   -0.4567 N   0  0  0  0  0  0  0  0  0  0  0  0
    1.5263   -1.7789   -0.4662 C   0  0  0  0  0  0  0  0  0  0  0  0
    1.5254   -3.0159   -0.7307 O   0  0  0  0  0  0  0  0  0  0  0  0
    2.7717   -1.1037   -0.1859 C   0  0  0  0  0  0  0  0  0  0  0  0
    3.9458   -1.8443   -0.2264 C   0  0  0  0  0  0  0  0  0  0  0  0
    5.1648   -1.2622    0.0307 C   0  0  0  0  0  0  0  0  0  0  0  0
    5.2655    0.0759    0.3376 C   0  0  0  0  0  0  0  0  0  0  0  0
    4.1078    0.8097    0.3782 C   0  0  0  0  0  0  0  0  0  0  0  0
    2.8748    0.2155    0.1170 C   0  0  0  0  0  0  0  0  0  0  0  0
    6.5531    0.7049    0.6122 C   0  0  0  0  0  0  0  0  0  0  0  0
    6.6022    2.0870    0.9239 N   0  0  0  0  0  0  0  0  0  0  0  0
    7.6308    0.0708    0.5848 O   0  0  0  0  0  0  0  0  0  0  0  0
   -2.8430   -0.7379    0.4142 N   0  0  0  0  0  0  0  0  0  0  0  0
   -5.6181    2.4644    0.2987 H   0  0  0  0  0  0  0  0  0  0  0  0
   -3.9389    2.5676    0.8823 H   0  0  0  0  0  0  0  0  0  0  0  0
   -5.3374    2.4122    2.0771 H   0  0  0  0  0  0  0  0  0  0  0  0
   -4.6710    0.1548    2.0793 H   0  0  0  0  0  0  0  0  0  0  0  0
   -6.1659   -0.9319    0.3178 H   0  0  0  0  0  0  0  0  0  0  0  0
   -6.9321    0.0818    1.5726 H   0  0  0  0  0  0  0  0  0  0  0  0
   -6.6647    0.7697   -0.1259 H   0  0  0  0  0  0  0  0  0  0  0  0
   -4.3850    1.0665   -1.7343 H   0  0  0  0  0  0  0  0  0  0  0  0
   -1.0938   -2.6774   -0.0335 H   0  0  0  0  0  0  0  0  0  0  0  0
   -0.8176   -2.3179   -1.7566 H   0  0  0  0  0  0  0  0  0  0  0  0
    0.2751   -0.0875   -0.2416 H   0  0  0  0  0  0  0  0  0  0  0  0
    3.8759   -2.9067   -0.4690 H   0  0  0  0  0  0  0  0  0  0  0  0
    6.0575   -1.8845   -0.0132 H   0  0  0  0  0  0  0  0  0  0  0  0
    4.1036    1.8516    0.6085 H   0  0  0  0  0  0  0  0  0  0  0  0
    1.9713    0.8400    0.1603 H   0  0  0  0  0  0  0  0  0  0  0  0
    6.4164    2.4212    1.9161 H   0  0  0  0  0  0  0  0  0  0  0  0
    6.8185    2.8183    0.2060 H   0  0  0  0  0  0  0  0  0  0  0  0
  1  2  1  0
  2  3  1  0
  2  4  1  0
  4  5  2  0
  5  6  1  0
  6  7  1  0
  7  8  1  0
  8  9  1  0
  9 10  1  0
 10 11  2  0
 10 12  1  0
 12 13  2  0
 13 14  1  0
 14 15  2  0
 15 16  1  0
 16 17  2  0
 15 18  1  0
 18 19  1  0
 18 20  2  0
  7 21  2  0
 21  4  1  0
 17 12  1  0
  1 22  1  0
  1 23  1  0
  1 24  1  0
  2 25  1  0
  3 26  1  0
  3 27  1  0
  3 28  1  0
  5 29  1  0
  8 30  1  0
  8 31  1  0
  9 32  1  0
 13 33  1  0
 14 34  1  0
 16 35  1  0
 17 36  1  0
 19 37  1  0
 19 38  1  0
M  END
$$$$
[H]OC(=O)c1c([H])c(C([H])([H])C([H])([H])[H])c(-c2nc(-c3c([H])c([H])c([H])c([H])c3Cl)c(Cl)c([H])c2[H])c([H])c1C([H])([H])[H]
     RDKit          3D

 43 45  0  0  0  0  0  0  0  0999 V2000
   -1.9890   -2.8428    1.3878 C   0  0  0  0  0  0  0  0  0  0  0  0
   -2.6001   -1.5244    1.8560 C   0  0  0  0  0  0  0  0  0  0  0  0
   -2.4876   -0.4765    0.8233 C   0  0  0  0  0  0  0  0  0  0  0  0
   -3.6472   -0.0766    0.1295 C   0  0  0  0  0  0  0  0  0  0  0  0
   -3.6413    0.8629   -0.8653 C   0  0  0  0  0  0  0  0  0  0  0  0
   -2.4233    1.4201   -1.1727 C   0  0  0  0  0  0  0  0  0  0  0  0
   -2.3605    2.4529   -2.2533 C   0  0  0  0  0  0  0  0  0  0  0  0
   -1.2845    1.0450   -0.5092 C   0  0  0  0  0  0  0  0  0  0  0  0
   -1.2755    0.0749    0.5227 C   0  0  0  0  0  0  0  0  0  0  0  0
    0.0251   -0.2679    1.0722 C   0  0  0  0  0  0  0  0  0  0  0  0
    0.3324   -0.6755    2.3192 C   0  0  0  0  0  0  0  0  0  0  0  0
    1.6410   -0.9252    2.7521 C   0  0  0  0  0  0  0  0  0  0  0  0
    2.6930   -0.7551    1.8897 C   0  0  0  0  0  0  0  0  0  0  0  0
    4.3354   -1.0591    2.4024 Cl  0  0  0  0  0  0  0  0  0  0  0  0
    2.3778   -0.3315    0.6006 C   0  0  0  0  0  0  0  0  0  0  0  0
    1.1215   -0.1098    0.2413 N   0  0  0  0  0  0  0  0  0  0  0  0
    3.5203   -0.1613   -0.2879 C   0  0  0  0  0  0  0  0  0  0  0  0
    4.4204   -1.1642   -0.5578 C   0  0  0  0  0  0  0  0  0  0  0  0
    5.4984   -0.9619   -1.4232 C   0  0  0  0  0  0  0  0  0  0  0  0
    5.6726    0.2618   -2.0230 C   0  0  0  0  0  0  0  0  0  0  0  0
    4.7899    1.2653   -1.7660 C   0  0  0  0  0  0  0  0  0  0  0  0
    3.7141    1.0524   -0.8978 C   0  0  0  0  0  0  0  0  0  0  0  0
    2.6620    2.4241   -0.6455 Cl  0  0  0  0  0  0  0  0  0  0  0  0
   -4.8664    1.2520   -1.5635 C   0  0  0  0  0  0  0  0  0  0  0  0
   -4.9095    2.1761   -2.5665 O   0  0  0  0  0  0  0  0  0  0  0  0
   -5.9878    0.7224   -1.2504 O   0  0  0  0  0  0  0  0  0  0  0  0
   -1.4007   -3.3208    2.1981 H   0  0  0  0  0  0  0  0  0  0  0  0
   -2.7501   -3.5867    1.0818 H   0  0  0  0  0  0  0  0  0  0  0  0
   -1.3015   -2.6612    0.5091 H   0  0  0  0  0  0  0  0  0  0  0  0
   -3.7341   -1.7668    1.8855 H   0  0  0  0  0  0  0  0  0  0  0  0
   -2.4052   -1.2656    2.8755 H   0  0  0  0  0  0  0  0  0  0  0  0
   -4.6004   -0.5241    0.3827 H   0  0  0  0  0  0  0  0  0  0  0  0
   -1.2686    2.7480   -2.3238 H   0  0  0  0  0  0  0  0  0  0  0  0
   -2.8743    3.3850   -1.9998 H   0  0  0  0  0  0  0  0  0  0  0  0
   -2.5794    2.0400   -3.2568 H   0  0  0  0  0  0  0  0  0  0  0  0
   -0.3349    1.4909   -0.7599 H   0  0  0  0  0  0  0  0  0  0  0  0
   -0.4021   -0.7961    3.0752 H   0  0  0  0  0  0  0  0  0  0  0  0
    1.8018   -1.2561    3.7854 H   0  0  0  0  0  0  0  0  0  0  0  0
    4.2983   -2.1460   -0.0900 H   0  0  0  0  0  0  0  0  0  0  0  0
    6.2007   -1.7424   -1.6347 H   0  0  0  0  0  0  0  0  0  0  0  0
    6.5178    0.4452   -2.7111 H   0  0  0  0  0  0  0  0  0  0  0  0
    4.9271    2.2402   -2.2433 H   0  0  0  0  0  0  0  0  0  0  0  0
   -5.4255    3.0386   -2.4541 H   0  0  0  0  0  0  0  0  0  0  0  0
  1  2  1  0
  2  3  1  0
  3  4  2  0
  4  5  1  0
  5  6  2  0
  6  7  1  0
  6  8  1  0
  8  9  2  0
  9 10  1  0
 10 11  2  0
 11 12  1  0
 12 13  2  0
 13 14  1  0
 13 15  1  0
 15 16  2  0
 15 17  1  0
 17 18  2  0
 18 19  1  0
 19 20  2  0
 20 21  1  0
 21 22  2  0
 22 23  1  0
  5 24  1  0
 24 25  1  0
 24 26  2  0
  9  3  1  0
 16 10  1  0
 22 17  1  0
  1 27  1  0
  1 28  1  0
  1 29  1  0
  2 30  1  0
  2 31  1  0
  4 32  1  0
  7 33  1  0
  7 34  1  0
  7 35  1  0
  8 36  1  0
 11 37  1  0
 12 38  1  0
 18 39  1  0
 19 40  1  0
 20 41  1  0
 21 42  1  0
 25 43  1  0
M  END
$$$$
[H]c1nc(N([H])c2c([H])c([H])c(OS(=O)(=O)N([H])C([H])([H])[H])c(Cl)c2[H])nc([H])c1-c1nn(C([H])([H])c2c([H])c([H])c([H])c([H])c2[H])c([H])c1[H]
     RDKit          3D

 51 54  0  0  0  0  0  0  0  0999 V2000
    9.2495   -1.6709   -0.5495 C   0  0  0  0  0  0  0  0  0  0  0  0
    9.4051   -1.1084    0.7676 N   0  0  0  0  0  0  0  0  0  0  0  0
    8.2477    0.1176    1.0568 S   0  0  0  0  0  0  0  0  0  0  0  0
    8.7652    1.1579    2.0251 O   0  0  0  0  0  0  0  0  0  0  0  0
    7.9590    0.8362   -0.2316 O   0  0  0  0  0  0  0  0  0  0  0  0
    6.8444   -0.5538    1.7401 O   0  0  0  0  0  0  0  0  0  0  0  0
    5.6548    0.1479    1.5959 C   0  0  0  0  0  0  0  0  0  0  0  0
    5.2343    1.0956    2.5242 C   0  0  0  0  0  0  0  0  0  0  0  0
    4.0537    1.7644    2.3435 C   0  0  0  0  0  0  0  0  0  0  0  0
    3.2513    1.5084    1.2263 C   0  0  0  0  0  0  0  0  0  0  0  0
    2.0646    2.2635    1.0870 N   0  0  0  0  0  0  0  0  0  0  0  0
    0.8940    1.7446    0.5092 C   0  0  0  0  0  0  0  0  0  0  0  0
   -0.2150    2.5460    0.3842 N   0  0  0  0  0  0  0  0  0  0  0  0
   -1.3455    2.0543   -0.1353 C   0  0  0  0  0  0  0  0  0  0  0  0
   -1.4107    0.7577   -0.5452 C   0  0  0  0  0  0  0  0  0  0  0  0
   -0.3153   -0.0513   -0.4270 C   0  0  0  0  0  0  0  0  0  0  0  0
    0.7922    0.4883    0.0993 N   0  0  0  0  0  0  0  0  0  0  0  0
   -2.6585    0.2301   -1.1141 C   0  0  0  0  0  0  0  0  0  0  0  0
   -2.8480   -1.0731   -1.5670 C   0  0  0  0  0  0  0  0  0  0  0  0
   -4.1427   -1.1783   -2.0247 C   0  0  0  0  0  0  0  0  0  0  0  0
   -4.7166    0.0416   -1.8482 N   0  0  0  0  0  0  0  0  0  0  0  0
   -6.0896    0.3012   -2.2224 C   0  0  0  0  0  0  0  0  0  0  0  0
   -7.0341    0.0265   -1.1149 C   0  0  0  0  0  0  0  0  0  0  0  0
   -7.5910   -1.2373   -0.9699 C   0  0  0  0  0  0  0  0  0  0  0  0
   -8.4814   -1.5144    0.0658 C   0  0  0  0  0  0  0  0  0  0  0  0
   -8.8283   -0.5296    0.9729 C   0  0  0  0  0  0  0  0  0  0  0  0
   -8.2788    0.7308    0.8359 C   0  0  0  0  0  0  0  0  0  0  0  0
   -7.3974    0.9897   -0.1964 C   0  0  0  0  0  0  0  0  0  0  0  0
   -3.8156    0.8486   -1.3098 N   0  0  0  0  0  0  0  0  0  0  0  0
    3.6385    0.5845    0.2977 C   0  0  0  0  0  0  0  0  0  0  0  0
    4.8557   -0.0878    0.5092 C   0  0  0  0  0  0  0  0  0  0  0  0
    5.3318   -1.2762   -0.7035 Cl  0  0  0  0  0  0  0  0  0  0  0  0
    8.4720   -1.1339   -1.1226 H   0  0  0  0  0  0  0  0  0  0  0  0
    9.0533   -2.7533   -0.5456 H   0  0  0  0  0  0  0  0  0  0  0  0
   10.2045   -1.5127   -1.1265 H   0  0  0  0  0  0  0  0  0  0  0  0
    9.4096   -1.8178    1.5215 H   0  0  0  0  0  0  0  0  0  0  0  0
    5.8795    1.2703    3.3790 H   0  0  0  0  0  0  0  0  0  0  0  0
    3.7407    2.5008    3.0780 H   0  0  0  0  0  0  0  0  0  0  0  0
    2.0751    3.2748    1.4429 H   0  0  0  0  0  0  0  0  0  0  0  0
   -2.2410    2.6888   -0.2400 H   0  0  0  0  0  0  0  0  0  0  0  0
   -0.3291   -1.1013   -0.7462 H   0  0  0  0  0  0  0  0  0  0  0  0
   -2.0858   -1.8494   -1.5486 H   0  0  0  0  0  0  0  0  0  0  0  0
   -4.5716   -2.0788   -2.4357 H   0  0  0  0  0  0  0  0  0  0  0  0
   -6.3829   -0.2263   -3.1616 H   0  0  0  0  0  0  0  0  0  0  0  0
   -6.1468    1.3958   -2.4797 H   0  0  0  0  0  0  0  0  0  0  0  0
   -7.3108   -1.9979   -1.6865 H   0  0  0  0  0  0  0  0  0  0  0  0
   -8.9198   -2.5131    0.1782 H   0  0  0  0  0  0  0  0  0  0  0  0
   -9.5109   -0.6916    1.7901 H   0  0  0  0  0  0  0  0  0  0  0  0
   -8.5332    1.5358    1.5393 H   0  0  0  0  0  0  0  0  0  0  0  0
   -6.9514    1.9815   -0.3219 H   0  0  0  0  0  0  0  0  0  0  0  0
    3.0752    0.3589   -0.5957 H   0  0  0  0  0  0  0  0  0  0  0  0
  1  2  1  0
  2  3  1  0
  3  4  2  0
  3  5  2  0
  3  6  1  0
  6  7  1  0
  7  8  2  0
  8  9  1  0
  9 10  2  0
 10 11  1  0
 11 12  1  0
 12 13  2  0
 13 14  1  0
 14 15  2  0
 15 16  1  0
 16 17  2  0
 15 18  1  0
 18 19  1  0
 19 20  2  0
 20 21  1  0
 21 22  1  0
 22 23  1  0
 23 24  2  0
 24 25  1  0
 25 26  2  0
 26 27  1  0
 27 28  2  0
 21 29  1  0
 10 30  1  0
 30 31  2  0
 31 32  1  0
 31  7  1  0
 17 12  1  0
 29 18  2  0
 28 23  1  0
  1 33  1  0
  1 34  1  0
  1 35  1  0
  2 36  1  0
  8 37  1  0
  9 38  1  0
 11 39  1  0
 14 40  1  0
 16 41  1  0
 19 42  1  0
 20 43  1  0
 22 44  1  0
 22 45  1  0
 24 46  1  0
 25 47  1  0
 26 48  1  0
 27 49  1  0
 28 50  1  0
 30 51  1  0
M  END
$$$$
[H]c1nn([H])c([H])c1-c1c([H])c(F)c([H])c(N2C([H])([H])C([H])([H])N(C(=O)c3c([H])c(C([H])([H])N([H])C(=O)N([H])c4c([H])c([H])c([H])c([H])c4[H])c([H])c([H])c3F)C([H])([H])C2([H])[H])c1[H]
     RDKit          3D

 64 68  0  0  0  0  0  0  0  0999 V2000
    0.4286    2.3033    0.1908 F   0  0  0  0  0  0  0  0  0  0  0  0
    1.2926    1.2761   -0.0521 C   0  0  0  0  0  0  0  0  0  0  0  0
    2.3531    1.4017   -0.9278 C   0  0  0  0  0  0  0  0  0  0  0  0
    3.2166    0.3531   -1.1615 C   0  0  0  0  0  0  0  0  0  0  0  0
    2.9866   -0.8286   -0.4909 C   0  0  0  0  0  0  0  0  0  0  0  0
    3.8965   -1.9849   -0.7120 C   0  0  0  0  0  0  0  0  0  0  0  0
    5.0524   -1.6340   -1.4809 N   0  0  0  0  0  0  0  0  0  0  0  0
    6.1598   -0.8996   -0.8800 C   0  0  0  0  0  0  0  0  0  0  0  0
    6.0601   -0.5883    0.3330 O   0  0  0  0  0  0  0  0  0  0  0  0
    7.2846   -0.5589   -1.6291 N   0  0  0  0  0  0  0  0  0  0  0  0
    8.4347    0.1287   -1.2108 C   0  0  0  0  0  0  0  0  0  0  0  0
    9.3384    0.6201   -2.1779 C   0  0  0  0  0  0  0  0  0  0  0  0
   10.4899    1.2896   -1.8370 C   0  0  0  0  0  0  0  0  0  0  0  0
   10.8071    1.5076   -0.5228 C   0  0  0  0  0  0  0  0  0  0  0  0
    9.9637    1.0505    0.4481 C   0  0  0  0  0  0  0  0  0  0  0  0
    8.7949    0.3705    0.0906 C   0  0  0  0  0  0  0  0  0  0  0  0
    1.9231   -0.9490    0.3851 C   0  0  0  0  0  0  0  0  0  0  0  0
    1.0469    0.0991    0.6290 C   0  0  0  0  0  0  0  0  0  0  0  0
   -0.0665   -0.0435    1.5581 C   0  0  0  0  0  0  0  0  0  0  0  0
    0.1626    0.2595    2.7726 O   0  0  0  0  0  0  0  0  0  0  0  0
   -1.3514   -0.4937    1.1656 N   0  0  0  0  0  0  0  0  0  0  0  0
   -2.4167   -0.6165    2.1307 C   0  0  0  0  0  0  0  0  0  0  0  0
   -3.5207    0.3608    1.7151 C   0  0  0  0  0  0  0  0  0  0  0  0
   -3.8094    0.1579    0.2877 N   0  0  0  0  0  0  0  0  0  0  0  0
   -2.7295    0.1329   -0.6524 C   0  0  0  0  0  0  0  0  0  0  0  0
   -1.6442   -0.8472   -0.2042 C   0  0  0  0  0  0  0  0  0  0  0  0
   -5.1655    0.0148   -0.0758 C   0  0  0  0  0  0  0  0  0  0  0  0
   -5.5228   -0.6051   -1.2391 C   0  0  0  0  0  0  0  0  0  0  0  0
   -6.8615   -0.7493   -1.6352 C   0  0  0  0  0  0  0  0  0  0  0  0
   -7.1559   -1.3778   -2.8086 F   0  0  0  0  0  0  0  0  0  0  0  0
   -7.8483   -0.2444   -0.8146 C   0  0  0  0  0  0  0  0  0  0  0  0
   -7.5288    0.3818    0.3564 C   0  0  0  0  0  0  0  0  0  0  0  0
   -6.1856    0.5123    0.7277 C   0  0  0  0  0  0  0  0  0  0  0  0
   -8.5708    0.9152    1.2258 C   0  0  0  0  0  0  0  0  0  0  0  0
   -8.4249    2.0231    2.0357 C   0  0  0  0  0  0  0  0  0  0  0  0
   -9.6135    2.1617    2.6576 N   0  0  0  0  0  0  0  0  0  0  0  0
  -10.4405    1.2209    2.2734 N   0  0  0  0  0  0  0  0  0  0  0  0
   -9.8479    0.4161    1.3838 C   0  0  0  0  0  0  0  0  0  0  0  0
    2.5248    2.3377   -1.4506 H   0  0  0  0  0  0  0  0  0  0  0  0
    4.0610    0.4432   -1.8538 H   0  0  0  0  0  0  0  0  0  0  0  0
    4.1599   -2.4001    0.2970 H   0  0  0  0  0  0  0  0  0  0  0  0
    3.3287   -2.7866   -1.2180 H   0  0  0  0  0  0  0  0  0  0  0  0
    5.1684   -1.8737   -2.4824 H   0  0  0  0  0  0  0  0  0  0  0  0
    7.2624   -0.8679   -2.6540 H   0  0  0  0  0  0  0  0  0  0  0  0
    9.0690    0.4398   -3.2051 H   0  0  0  0  0  0  0  0  0  0  0  0
   11.1643    1.6554   -2.6001 H   0  0  0  0  0  0  0  0  0  0  0  0
   11.7009    2.0279   -0.2585 H   0  0  0  0  0  0  0  0  0  0  0  0
   10.1628    1.1952    1.5214 H   0  0  0  0  0  0  0  0  0  0  0  0
    8.1657    0.0194    0.8881 H   0  0  0  0  0  0  0  0  0  0  0  0
    1.7423   -1.8903    0.9174 H   0  0  0  0  0  0  0  0  0  0  0  0
   -2.0659   -0.3216    3.1387 H   0  0  0  0  0  0  0  0  0  0  0  0
   -2.8424   -1.6277    2.0959 H   0  0  0  0  0  0  0  0  0  0  0  0
   -3.2636    1.4032    1.8994 H   0  0  0  0  0  0  0  0  0  0  0  0
   -4.3846    0.0923    2.3461 H   0  0  0  0  0  0  0  0  0  0  0  0
   -2.1938    1.1305   -0.6723 H   0  0  0  0  0  0  0  0  0  0  0  0
   -3.0622   -0.0333   -1.6797 H   0  0  0  0  0  0  0  0  0  0  0  0
   -2.0897   -1.8701   -0.2305 H   0  0  0  0  0  0  0  0  0  0  0  0
   -0.7792   -0.7376   -0.8829 H   0  0  0  0  0  0  0  0  0  0  0  0
   -4.7592   -1.0078   -1.8821 H   0  0  0  0  0  0  0  0  0  0  0  0
   -8.8818   -0.3676   -1.1406 H   0  0  0  0  0  0  0  0  0  0  0  0
   -6.0019    1.0197    1.6573 H   0  0  0  0  0  0  0  0  0  0  0  0
   -7.5369    2.6181    2.1216 H   0  0  0  0  0  0  0  0  0  0  0  0
  -11.4262    1.1122    2.6134 H   0  0  0  0  0  0  0  0  0  0  0  0
  -10.2107   -0.4484    0.8602 H   0  0  0  0  0  0  0  0  0  0  0  0
  1  2  1  0
  2  3  2  0
  3  4  1  0
  4  5  2  0
  5  6  1  0
  6  7  1  0
  7  8  1  0
  8  9  2  0
  8 10  1  0
 10 11  1  0
 11 12  2  0
 12 13  1  0
 13 14  2  0
 14 15  1  0
 15 16  2  0
  5 17  1  0
 17 18  2  0
 18 19  1  0
 19 20  2  0
 19 21  1  0
 21 22  1  0
 22 23  1  0
 23 24  1  0
 24 25  1  0
 25 26  1  0
 24 27  1  0
 27 28  2  0
 28 29  1  0
 29 30  1  0
 29 31  2  0
 31 32  1  0
 32 33  2  0
 32 34  1  0
 34 35  1  0
 35 36  2  0
 36 37  1  0
 37 38  1  0
 18  2  1  0
 26 21  1  0
 33 27  1  0
 38 34  2  0
 16 11  1  0
  3 39  1  0
  4 40  1  0
  6 41  1  0
  6 42  1  0
  7 43  1  0
 10 44  1  0
 12 45  1  0
 13 46  1  0
 14 47  1  0
 15 48  1  0
 16 49  1  0
 17 50  1  0
 22 51  1  0
 22 52  1  0
 23 53  1  0
 23 54  1  0
 25 55  1  0
 25 56  1  0
 26 57  1  0
 26 58  1  0
 28 59  1  0
 31 60  1  0
 33 61  1  0
 35 62  1  0
 37 63  1  0
 38 64  1  0
M  END
$$$$
[H]c1nc(-c2c([H])c([H])c(OC([H])([H])[H])c([H])c2[H])c([H])c([H])c1C([H])([H])c1c([H])nn([H])c1[H]
     RDKit          3D

 35 37  0  0  0  0  0  0  0  0999 V2000
    6.3291   -0.8504    2.0448 C   0  0  0  0  0  0  0  0  0  0  0  0
    5.7885    0.2906    1.4210 O   0  0  0  0  0  0  0  0  0  0  0  0
    4.4851    0.2354    0.9599 C   0  0  0  0  0  0  0  0  0  0  0  0
    3.8927    1.3198    0.3381 C   0  0  0  0  0  0  0  0  0  0  0  0
    2.5895    1.2608   -0.1215 C   0  0  0  0  0  0  0  0  0  0  0  0
    1.8224    0.1277    0.0162 C   0  0  0  0  0  0  0  0  0  0  0  0
    2.4368   -0.9491    0.6434 C   0  0  0  0  0  0  0  0  0  0  0  0
    3.7293   -0.9060    1.1049 C   0  0  0  0  0  0  0  0  0  0  0  0
    0.4440    0.0254   -0.4550 C   0  0  0  0  0  0  0  0  0  0  0  0
   -0.2207    1.0513   -1.0820 C   0  0  0  0  0  0  0  0  0  0  0  0
   -1.5423    0.9313   -1.5257 C   0  0  0  0  0  0  0  0  0  0  0  0
   -2.1767   -0.2628   -1.3163 C   0  0  0  0  0  0  0  0  0  0  0  0
   -3.5841   -0.4420   -1.7696 C   0  0  0  0  0  0  0  0  0  0  0  0
   -4.5614   -0.0575   -0.7241 C   0  0  0  0  0  0  0  0  0  0  0  0
   -5.1012   -0.8788    0.2487 C   0  0  0  0  0  0  0  0  0  0  0  0
   -5.9311   -0.0978    0.9625 N   0  0  0  0  0  0  0  0  0  0  0  0
   -5.9433    1.1275    0.5087 N   0  0  0  0  0  0  0  0  0  0  0  0
   -5.0981    1.2001   -0.5503 C   0  0  0  0  0  0  0  0  0  0  0  0
   -1.5230   -1.2816   -0.6960 C   0  0  0  0  0  0  0  0  0  0  0  0
   -0.2601   -1.1224   -0.2885 N   0  0  0  0  0  0  0  0  0  0  0  0
    5.6658   -1.0810    2.9253 H   0  0  0  0  0  0  0  0  0  0  0  0
    6.2543   -1.7093    1.3423 H   0  0  0  0  0  0  0  0  0  0  0  0
    7.3603   -0.6659    2.3677 H   0  0  0  0  0  0  0  0  0  0  0  0
    4.5037    2.2087    0.2335 H   0  0  0  0  0  0  0  0  0  0  0  0
    2.1883    2.1420   -0.5972 H   0  0  0  0  0  0  0  0  0  0  0  0
    1.8507   -1.8497    0.7615 H   0  0  0  0  0  0  0  0  0  0  0  0
    4.1970   -1.7534    1.5926 H   0  0  0  0  0  0  0  0  0  0  0  0
    0.2881    1.9917   -1.2436 H   0  0  0  0  0  0  0  0  0  0  0  0
   -2.0631    1.7398   -2.0186 H   0  0  0  0  0  0  0  0  0  0  0  0
   -3.7599   -1.4925   -2.0337 H   0  0  0  0  0  0  0  0  0  0  0  0
   -3.7389    0.1991   -2.6597 H   0  0  0  0  0  0  0  0  0  0  0  0
   -4.8855   -1.9402    0.3915 H   0  0  0  0  0  0  0  0  0  0  0  0
   -6.5022    1.9315    0.8831 H   0  0  0  0  0  0  0  0  0  0  0  0
   -4.8998    2.0965   -1.1353 H   0  0  0  0  0  0  0  0  0  0  0  0
   -2.0342   -2.2398   -0.5287 H   0  0  0  0  0  0  0  0  0  0  0  0
  1  2  1  0
  2  3  1  0
  3  4  2  0
  4  5  1  0
  5  6  2  0
  6  7  1  0
  7  8  2  0
  6  9  1  0
  9 10  2  0
 10 11  1  0
 11 12  2  0
 12 13  1  0
 13 14  1  0
 14 15  1  0
 15 16  2  0
 16 17  1  0
 17 18  1  0
 12 19  1  0
 19 20  2  0
  8  3  1  0
 20  9  1  0
 18 14  2  0
  1 21  1  0
  1 22  1  0
  1 23  1  0
  4 24  1  0
  5 25  1  0
  7 26  1  0
  8 27  1  0
 10 28  1  0
 11 29  1  0
 13 30  1  0
 13 31  1  0
 15 32  1  0
 17 33  1  0
 18 34  1  0
 19 35  1  0
M  END
$$$$
[H]c1nc(N2C([H])([H])C([H])([H])N(C(=O)c3c([H])c([H])c([H])c4c3nc(C([H])([H])[H])n4C([H])([H])c3c([H])c([H])c(Cl)c([H])c3[H])C([H])([H])C2([H])[H])n([H])c1-c1c([H])c([H])c([H])c([H])c1[H]
     RDKit          3D

 64 69  0  0  0  0  0  0  0  0999 V2000
   -4.0347   -2.8716   -0.9735 C   0  0  0  0  0  0  0  0  0  0  0  0
   -3.7248   -1.4866   -0.4945 C   0  0  0  0  0  0  0  0  0  0  0  0
   -2.7410   -0.7228   -1.0352 N   0  0  0  0  0  0  0  0  0  0  0  0
   -2.6953    0.4435   -0.4000 C   0  0  0  0  0  0  0  0  0  0  0  0
   -1.8864    1.5692   -0.5426 C   0  0  0  0  0  0  0  0  0  0  0  0
   -2.0910    2.6355    0.2973 C   0  0  0  0  0  0  0  0  0  0  0  0
   -3.0588    2.6450    1.2748 C   0  0  0  0  0  0  0  0  0  0  0  0
   -3.8453    1.5319    1.4019 C   0  0  0  0  0  0  0  0  0  0  0  0
   -3.6710    0.4284    0.5695 C   0  0  0  0  0  0  0  0  0  0  0  0
   -4.2920   -0.7768    0.4874 N   0  0  0  0  0  0  0  0  0  0  0  0
   -5.3628   -1.2048    1.3302 C   0  0  0  0  0  0  0  0  0  0  0  0
   -6.7255   -0.9409    0.8402 C   0  0  0  0  0  0  0  0  0  0  0  0
   -7.3602    0.2648    1.0304 C   0  0  0  0  0  0  0  0  0  0  0  0
   -8.6307    0.4612    0.5646 C   0  0  0  0  0  0  0  0  0  0  0  0
   -9.3217   -0.5424   -0.1122 C   0  0  0  0  0  0  0  0  0  0  0  0
  -10.9589   -0.2535   -0.6993 Cl  0  0  0  0  0  0  0  0  0  0  0  0
   -8.7161   -1.7525   -0.3156 C   0  0  0  0  0  0  0  0  0  0  0  0
   -7.4413   -1.9359    0.1571 C   0  0  0  0  0  0  0  0  0  0  0  0
   -0.8582    1.5892   -1.5650 C   0  0  0  0  0  0  0  0  0  0  0  0
   -1.1723    2.0304   -2.7048 O   0  0  0  0  0  0  0  0  0  0  0  0
    0.4519    1.1265   -1.2826 N   0  0  0  0  0  0  0  0  0  0  0  0
    0.7326    0.6353    0.0491 C   0  0  0  0  0  0  0  0  0  0  0  0
    2.0603    1.1833    0.5048 C   0  0  0  0  0  0  0  0  0  0  0  0
    3.0196    0.9637   -0.5505 N   0  0  0  0  0  0  0  0  0  0  0  0
    2.7987    1.5949   -1.8266 C   0  0  0  0  0  0  0  0  0  0  0  0
    1.4409    1.1670   -2.3340 C   0  0  0  0  0  0  0  0  0  0  0  0
    4.1621    0.1475   -0.3524 C   0  0  0  0  0  0  0  0  0  0  0  0
    4.2399   -1.1841   -0.5663 N   0  0  0  0  0  0  0  0  0  0  0  0
    5.4695   -1.6361   -0.2773 C   0  0  0  0  0  0  0  0  0  0  0  0
    6.2202   -0.5463    0.1425 C   0  0  0  0  0  0  0  0  0  0  0  0
    5.3836    0.5062    0.0787 N   0  0  0  0  0  0  0  0  0  0  0  0
    7.6231   -0.5533    0.5625 C   0  0  0  0  0  0  0  0  0  0  0  0
    8.2728    0.5923    0.9605 C   0  0  0  0  0  0  0  0  0  0  0  0
    9.5980    0.5878    1.3580 C   0  0  0  0  0  0  0  0  0  0  0  0
   10.3051   -0.5811    1.3637 C   0  0  0  0  0  0  0  0  0  0  0  0
    9.6675   -1.7557    0.9643 C   0  0  0  0  0  0  0  0  0  0  0  0
    8.3328   -1.7249    0.5685 C   0  0  0  0  0  0  0  0  0  0  0  0
   -3.0913   -3.3644   -1.3139 H   0  0  0  0  0  0  0  0  0  0  0  0
   -4.4436   -3.4670   -0.1252 H   0  0  0  0  0  0  0  0  0  0  0  0
   -4.7340   -2.8592   -1.8285 H   0  0  0  0  0  0  0  0  0  0  0  0
   -1.4357    3.4991    0.1530 H   0  0  0  0  0  0  0  0  0  0  0  0
   -3.1865    3.5181    1.9231 H   0  0  0  0  0  0  0  0  0  0  0  0
   -4.6185    1.4868    2.1574 H   0  0  0  0  0  0  0  0  0  0  0  0
   -5.2691   -2.3225    1.4558 H   0  0  0  0  0  0  0  0  0  0  0  0
   -5.2886   -0.8000    2.3597 H   0  0  0  0  0  0  0  0  0  0  0  0
   -6.8779    1.0766    1.5549 H   0  0  0  0  0  0  0  0  0  0  0  0
   -9.1416    1.4054    0.7071 H   0  0  0  0  0  0  0  0  0  0  0  0
   -9.2227   -2.5451   -0.8331 H   0  0  0  0  0  0  0  0  0  0  0  0
   -6.9148   -2.8822    0.0364 H   0  0  0  0  0  0  0  0  0  0  0  0
   -0.0309    0.9967    0.7674 H   0  0  0  0  0  0  0  0  0  0  0  0
    0.7763   -0.4734    0.0737 H   0  0  0  0  0  0  0  0  0  0  0  0
    1.9311    2.2923    0.5894 H   0  0  0  0  0  0  0  0  0  0  0  0
    2.3781    0.7503    1.4715 H   0  0  0  0  0  0  0  0  0  0  0  0
    3.5863    1.2805   -2.5387 H   0  0  0  0  0  0  0  0  0  0  0  0
    2.8851    2.6976   -1.7422 H   0  0  0  0  0  0  0  0  0  0  0  0
    1.5623    0.2184   -2.8667 H   0  0  0  0  0  0  0  0  0  0  0  0
    1.1286    1.9422   -3.0624 H   0  0  0  0  0  0  0  0  0  0  0  0
    5.8204   -2.6593   -0.3542 H   0  0  0  0  0  0  0  0  0  0  0  0
    5.6747    1.4732    0.3385 H   0  0  0  0  0  0  0  0  0  0  0  0
    7.7288    1.5265    0.9622 H   0  0  0  0  0  0  0  0  0  0  0  0
   10.1089    1.4941    1.6719 H   0  0  0  0  0  0  0  0  0  0  0  0
   11.3406   -0.5857    1.6740 H   0  0  0  0  0  0  0  0  0  0  0  0
   10.2437   -2.6653    0.9766 H   0  0  0  0  0  0  0  0  0  0  0  0
    7.8993   -2.6677    0.2715 H   0  0  0  0  0  0  0  0  0  0  0  0
  1  2  1  0
  2  3  2  0
  3  4  1  0
  4  5  2  0
  5  6  1  0
  6  7  2  0
  7  8  1  0
  8  9  2  0
  9 10  1  0
 10 11  1  0
 11 12  1  0
 12 13  2  0
 13 14  1  0
 14 15  2  0
 15 16  1  0
 15 17  1  0
 17 18  2  0
  5 19  1  0
 19 20  2  0
 19 21  1  0
 21 22  1  0
 22 23  1  0
 23 24  1  0
 24 25  1  0
 25 26  1  0
 24 27  1  0
 27 28  2  0
 28 29  1  0
 29 30  2  0
 30 31  1  0
 30 32  1  0
 32 33  2  0
 33 34  1  0
 34 35  2  0
 35 36  1  0
 36 37  2  0
 10  2  1  0
 18 12  1  0
 26 21  1  0
 31 27  1  0
 37 32  1  0
  9  4  1  0
  1 38  1  0
  1 39  1  0
  1 40  1  0
  6 41  1  0
  7 42  1  0
  8 43  1  0
 11 44  1  0
 11 45  1  0
 13 46  1  0
 14 47  1  0
 17 48  1  0
 18 49  1  0
 22 50  1  0
 22 51  1  0
 23 52  1  0
 23 53  1  0
 25 54  1  0
 25 55  1  0
 26 56  1  0
 26 57  1  0
 29 58  1  0
 31 59  1  0
 33 60  1  0
 34 61  1  0
 35 62  1  0
 36 63  1  0
 37 64  1  0
M  END
$$$$
[H]c1nc(N([H])[H])c([H])c(C([H])([H])N([H])C(=O)C([H])([H])N2C([H])([H])c3c([H])c(-c4nnnn4[H])c(F)c([H])c3C([H])([H])C2([H])[H])c1[H]
     RDKit          3D

 47 50  0  0  0  0  0  0  0  0999 V2000
   -7.1107    1.6338   -2.0882 N   0  0  0  0  0  0  0  0  0  0  0  0
   -6.7444    0.5053   -1.3133 C   0  0  0  0  0  0  0  0  0  0  0  0
   -5.4050    0.2967   -1.0061 C   0  0  0  0  0  0  0  0  0  0  0  0
   -5.0151   -0.7811   -0.2597 C   0  0  0  0  0  0  0  0  0  0  0  0
   -3.6373   -1.0742    0.1152 C   0  0  0  0  0  0  0  0  0  0  0  0
   -2.7247    0.0299    0.0861 N   0  0  0  0  0  0  0  0  0  0  0  0
   -1.3494   -0.1029    0.4067 C   0  0  0  0  0  0  0  0  0  0  0  0
   -0.9361   -1.2380    0.7267 O   0  0  0  0  0  0  0  0  0  0  0  0
   -0.4674    1.0504    0.3594 C   0  0  0  0  0  0  0  0  0  0  0  0
    0.8898    0.8029    0.7048 N   0  0  0  0  0  0  0  0  0  0  0  0
    1.1358    0.4743    2.0613 C   0  0  0  0  0  0  0  0  0  0  0  0
    2.0748   -0.6878    2.2908 C   0  0  0  0  0  0  0  0  0  0  0  0
    3.2713   -0.4395    1.4420 C   0  0  0  0  0  0  0  0  0  0  0  0
    4.5655   -0.5740    1.8642 C   0  0  0  0  0  0  0  0  0  0  0  0
    5.6164   -0.3194    0.9950 C   0  0  0  0  0  0  0  0  0  0  0  0
    6.9043   -0.4474    1.3973 F   0  0  0  0  0  0  0  0  0  0  0  0
    5.4137    0.0738   -0.3108 C   0  0  0  0  0  0  0  0  0  0  0  0
    4.1076    0.2079   -0.7315 C   0  0  0  0  0  0  0  0  0  0  0  0
    3.0548   -0.0458    0.1350 C   0  0  0  0  0  0  0  0  0  0  0  0
    1.6393    0.0879   -0.2791 C   0  0  0  0  0  0  0  0  0  0  0  0
    6.5387    0.3342   -1.2026 C   0  0  0  0  0  0  0  0  0  0  0  0
    7.8483    0.2391   -0.9131 N   0  0  0  0  0  0  0  0  0  0  0  0
    8.5761    0.5566   -1.9862 N   0  0  0  0  0  0  0  0  0  0  0  0
    7.7169    0.8575   -2.9713 N   0  0  0  0  0  0  0  0  0  0  0  0
    6.4907    0.7205   -2.4889 N   0  0  0  0  0  0  0  0  0  0  0  0
   -6.0383   -1.6382    0.1617 C   0  0  0  0  0  0  0  0  0  0  0  0
   -7.3546   -1.4282   -0.1436 C   0  0  0  0  0  0  0  0  0  0  0  0
   -7.6752   -0.3591   -0.8752 N   0  0  0  0  0  0  0  0  0  0  0  0
   -8.0632    2.0247   -2.0326 H   0  0  0  0  0  0  0  0  0  0  0  0
   -6.4204    2.0738   -2.7169 H   0  0  0  0  0  0  0  0  0  0  0  0
   -4.6905    1.0131   -1.3821 H   0  0  0  0  0  0  0  0  0  0  0  0
   -3.2187   -1.8824   -0.5341 H   0  0  0  0  0  0  0  0  0  0  0  0
   -3.6487   -1.5057    1.1381 H   0  0  0  0  0  0  0  0  0  0  0  0
   -3.1078    0.9825   -0.1843 H   0  0  0  0  0  0  0  0  0  0  0  0
   -0.4686    1.5352   -0.6559 H   0  0  0  0  0  0  0  0  0  0  0  0
   -0.8471    1.8585    1.0445 H   0  0  0  0  0  0  0  0  0  0  0  0
    0.1801    0.3738    2.6121 H   0  0  0  0  0  0  0  0  0  0  0  0
    1.6447    1.3658    2.5346 H   0  0  0  0  0  0  0  0  0  0  0  0
    1.6039   -1.6605    2.0735 H   0  0  0  0  0  0  0  0  0  0  0  0
    2.3491   -0.6428    3.3858 H   0  0  0  0  0  0  0  0  0  0  0  0
    4.7494   -0.8805    2.8814 H   0  0  0  0  0  0  0  0  0  0  0  0
    3.9180    0.5156   -1.7527 H   0  0  0  0  0  0  0  0  0  0  0  0
    1.2247   -0.8964   -0.5561 H   0  0  0  0  0  0  0  0  0  0  0  0
    1.6412    0.7097   -1.2198 H   0  0  0  0  0  0  0  0  0  0  0  0
    5.6321    0.8913   -3.0402 H   0  0  0  0  0  0  0  0  0  0  0  0
   -5.7338   -2.4987    0.7564 H   0  0  0  0  0  0  0  0  0  0  0  0
   -8.1301   -2.1119    0.1975 H   0  0  0  0  0  0  0  0  0  0  0  0
  1  2  1  0
  2  3  2  0
  3  4  1  0
  4  5  1  0
  5  6  1  0
  6  7  1  0
  7  8  2  0
  7  9  1  0
  9 10  1  0
 10 11  1  0
 11 12  1  0
 12 13  1  0
 13 14  2  0
 14 15  1  0
 15 16  1  0
 15 17  2  0
 17 18  1  0
 18 19  2  0
 19 20  1  0
 17 21  1  0
 21 22  2  0
 22 23  1  0
 23 24  2  0
 24 25  1  0
  4 26  2  0
 26 27  1  0
 27 28  2  0
 28  2  1  0
 20 10  1  0
 25 21  1  0
 19 13  1  0
  1 29  1  0
  1 30  1  0
  3 31  1  0
  5 32  1  0
  5 33  1  0
  6 34  1  0
  9 35  1  0
  9 36  1  0
 11 37  1  0
 11 38  1  0
 12 39  1  0
 12 40  1  0
 14 41  1  0
 18 42  1  0
 20 43  1  0
 20 44  1  0
 25 45  1  0
 26 46  1  0
 27 47  1  0
M  END
$$$$
[H]c1nc([H])c(N([H])c2nc([H])c(C([H])([H])C([H])([H])[H])c([H])c2[H])nc1[H]
     RDKit          3D

 27 28  0  0  0  0  0  0  0  0999 V2000
   -4.2108    1.1535   -0.1292 C   0  0  0  0  0  0  0  0  0  0  0  0
   -3.4928    0.8526    1.1610 C   0  0  0  0  0  0  0  0  0  0  0  0
   -2.1836    0.2084    0.8289 C   0  0  0  0  0  0  0  0  0  0  0  0
   -2.0617   -1.1615    0.7060 C   0  0  0  0  0  0  0  0  0  0  0  0
   -0.8597   -1.7551    0.4010 C   0  0  0  0  0  0  0  0  0  0  0  0
    0.2824   -0.9765    0.2055 C   0  0  0  0  0  0  0  0  0  0  0  0
    1.5276   -1.5739   -0.1092 N   0  0  0  0  0  0  0  0  0  0  0  0
    2.6597   -0.7587   -0.2998 C   0  0  0  0  0  0  0  0  0  0  0  0
    3.8780   -1.3227   -0.6063 C   0  0  0  0  0  0  0  0  0  0  0  0
    4.9743   -0.5263   -0.7905 N   0  0  0  0  0  0  0  0  0  0  0  0
    4.8940    0.8092   -0.6790 C   0  0  0  0  0  0  0  0  0  0  0  0
    3.6788    1.3601   -0.3741 C   0  0  0  0  0  0  0  0  0  0  0  0
    2.6134    0.5709   -0.1962 N   0  0  0  0  0  0  0  0  0  0  0  0
    0.1174    0.3497    0.3348 N   0  0  0  0  0  0  0  0  0  0  0  0
   -1.0442    0.9559    0.6319 C   0  0  0  0  0  0  0  0  0  0  0  0
   -5.0477    1.8490    0.0608 H   0  0  0  0  0  0  0  0  0  0  0  0
   -4.6604    0.2000   -0.4791 H   0  0  0  0  0  0  0  0  0  0  0  0
   -3.5553    1.5800   -0.8999 H   0  0  0  0  0  0  0  0  0  0  0  0
   -4.1346    0.1446    1.7292 H   0  0  0  0  0  0  0  0  0  0  0  0
   -3.3631    1.7713    1.7577 H   0  0  0  0  0  0  0  0  0  0  0  0
   -2.9727   -1.7318    0.8655 H   0  0  0  0  0  0  0  0  0  0  0  0
   -0.7866   -2.8205    0.3102 H   0  0  0  0  0  0  0  0  0  0  0  0
    1.5634   -2.6218   -0.1907 H   0  0  0  0  0  0  0  0  0  0  0  0
    3.9677   -2.4014   -0.7018 H   0  0  0  0  0  0  0  0  0  0  0  0
    5.7851    1.3837   -0.8337 H   0  0  0  0  0  0  0  0  0  0  0  0
    3.5622    2.4231   -0.2738 H   0  0  0  0  0  0  0  0  0  0  0  0
   -1.1310    2.0383    0.7269 H   0  0  0  0  0  0  0  0  0  0  0  0
  1  2  1  0
  2  3  1  0
  3  4  2  0
  4  5  1  0
  5  6  2  0
  6  7  1  0
  7  8  1  0
  8  9  2  0
  9 10  1  0
 10 11  2  0
 11 12  1  0
 12 13  2  0
  6 14  1  0
 14 15  2  0
 15  3  1  0
 13  8  1  0
  1 16  1  0
  1 17  1  0
  1 18  1  0
  2 19  1  0
  2 20  1  0
  4 21  1  0
  5 22  1  0
  7 23  1  0
  9 24  1  0
 11 25  1  0
 12 26  1  0
 15 27  1  0
M  END
$$$$
[H]c1c(C(=O)N2C([H])([H])C([H])([H])C([H])(N([H])C(=O)C3([H])C([H])([H])C3([H])[H])C([H])([H])C2([H])[H])c([H])c(C2([H])C([H])([H])C([H])([H])C2([H])[H])c([H])c1C([H])([H])[H]
     RDKit          3D

 53 56  0  0  0  0  0  0  0  0999 V2000
   -2.5300   -3.9548   -0.8649 C   0  0  0  0  0  0  0  0  0  0  0  0
   -2.7685   -2.4928   -0.6686 C   0  0  0  0  0  0  0  0  0  0  0  0
   -3.9866   -1.9094   -0.8267 C   0  0  0  0  0  0  0  0  0  0  0  0
   -4.1974   -0.5587   -0.6431 C   0  0  0  0  0  0  0  0  0  0  0  0
   -3.1123    0.1949   -0.2865 C   0  0  0  0  0  0  0  0  0  0  0  0
   -1.8179   -0.3259   -0.1009 C   0  0  0  0  0  0  0  0  0  0  0  0
   -1.6918   -1.6701   -0.3029 C   0  0  0  0  0  0  0  0  0  0  0  0
   -0.7460    0.5644    0.2215 C   0  0  0  0  0  0  0  0  0  0  0  0
   -1.0684    1.8330    0.0540 O   0  0  0  0  0  0  0  0  0  0  0  0
    0.5697    0.3140    0.6812 N   0  0  0  0  0  0  0  0  0  0  0  0
    1.4070    1.5042    0.8373 C   0  0  0  0  0  0  0  0  0  0  0  0
    2.4228    1.4428    1.9096 C   0  0  0  0  0  0  0  0  0  0  0  0
    3.2525    0.1747    1.7639 C   0  0  0  0  0  0  0  0  0  0  0  0
    2.3010   -0.9623    1.9294 C   0  0  0  0  0  0  0  0  0  0  0  0
    1.1079   -0.9591    1.0292 C   0  0  0  0  0  0  0  0  0  0  0  0
    3.9584    0.1254    0.5178 N   0  0  0  0  0  0  0  0  0  0  0  0
    5.3814    0.0540    0.4498 C   0  0  0  0  0  0  0  0  0  0  0  0
    6.0174    0.0350    1.5386 O   0  0  0  0  0  0  0  0  0  0  0  0
    6.1196    0.0029   -0.8157 C   0  0  0  0  0  0  0  0  0  0  0  0
    7.4250    0.7321   -0.9620 C   0  0  0  0  0  0  0  0  0  0  0  0
    7.3526   -0.7987   -0.9265 C   0  0  0  0  0  0  0  0  0  0  0  0
   -5.5392   -0.0251   -0.8358 C   0  0  0  0  0  0  0  0  0  0  0  0
   -5.6311    1.1735   -1.7824 C   0  0  0  0  0  0  0  0  0  0  0  0
   -6.7147    1.7107   -0.8515 C   0  0  0  0  0  0  0  0  0  0  0  0
   -6.0724    0.8765    0.2488 C   0  0  0  0  0  0  0  0  0  0  0  0
   -1.4734   -4.0721   -1.1920 H   0  0  0  0  0  0  0  0  0  0  0  0
   -3.2604   -4.4158   -1.5268 H   0  0  0  0  0  0  0  0  0  0  0  0
   -2.5971   -4.4062    0.1571 H   0  0  0  0  0  0  0  0  0  0  0  0
   -4.8189   -2.5661   -1.1128 H   0  0  0  0  0  0  0  0  0  0  0  0
   -3.2947    1.2489   -0.1445 H   0  0  0  0  0  0  0  0  0  0  0  0
   -0.7403   -2.1973   -0.2280 H   0  0  0  0  0  0  0  0  0  0  0  0
    0.7448    2.3821    0.9931 H   0  0  0  0  0  0  0  0  0  0  0  0
    1.9636    1.5970   -0.1416 H   0  0  0  0  0  0  0  0  0  0  0  0
    1.9644    1.4175    2.9154 H   0  0  0  0  0  0  0  0  0  0  0  0
    3.1105    2.2837    1.8080 H   0  0  0  0  0  0  0  0  0  0  0  0
    3.9770    0.1481    2.5768 H   0  0  0  0  0  0  0  0  0  0  0  0
    2.8239   -1.9505    1.7684 H   0  0  0  0  0  0  0  0  0  0  0  0
    1.9777   -1.0227    2.9995 H   0  0  0  0  0  0  0  0  0  0  0  0
    0.3436   -1.5891    1.5861 H   0  0  0  0  0  0  0  0  0  0  0  0
    1.4370   -1.4499    0.0796 H   0  0  0  0  0  0  0  0  0  0  0  0
    3.4427    0.1405   -0.3945 H   0  0  0  0  0  0  0  0  0  0  0  0
    5.4862    0.0236   -1.7467 H   0  0  0  0  0  0  0  0  0  0  0  0
    7.6879    1.2008   -1.9193 H   0  0  0  0  0  0  0  0  0  0  0  0
    7.8613    1.2448   -0.0729 H   0  0  0  0  0  0  0  0  0  0  0  0
    7.8362   -1.2581   -0.0359 H   0  0  0  0  0  0  0  0  0  0  0  0
    7.6340   -1.2867   -1.8940 H   0  0  0  0  0  0  0  0  0  0  0  0
   -6.3092   -0.7611   -1.1197 H   0  0  0  0  0  0  0  0  0  0  0  0
   -5.9608    0.9378   -2.7962 H   0  0  0  0  0  0  0  0  0  0  0  0
   -4.7509    1.8467   -1.7215 H   0  0  0  0  0  0  0  0  0  0  0  0
   -7.6849    1.2729   -1.1631 H   0  0  0  0  0  0  0  0  0  0  0  0
   -6.6887    2.7918   -0.6802 H   0  0  0  0  0  0  0  0  0  0  0  0
   -5.3474    1.4805    0.7929 H   0  0  0  0  0  0  0  0  0  0  0  0
   -6.8032    0.3482    0.8988 H   0  0  0  0  0  0  0  0  0  0  0  0
  1  2  1  0
  2  3  2  0
  3  4  1  0
  4  5  2  0
  5  6  1  0
  6  7  2  0
  6  8  1  0
  8  9  2  0
  8 10  1  0
 10 11  1  0
 11 12  1  0
 12 13  1  0
 13 14  1  0
 14 15  1  0
 13 16  1  0
 16 17  1  0
 17 18  2  0
 17 19  1  0
 19 20  1  0
 20 21  1  0
  4 22  1  0
 22 23  1  0
 23 24  1  0
 24 25  1  0
  7  2  1  0
 15 10  1  0
 21 19  1  0
 25 22  1  0
  1 26  1  0
  1 27  1  0
  1 28  1  0
  3 29  1  0
  5 30  1  0
  7 31  1  0
 11 32  1  0
 11 33  1  0
 12 34  1  0
 12 35  1  0
 13 36  1  0
 14 37  1  0
 14 38  1  0
 15 39  1  0
 15 40  1  0
 16 41  1  0
 19 42  1  0
 20 43  1  0
 20 44  1  0
 21 45  1  0
 21 46  1  0
 22 47  1  0
 23 48  1  0
 23 49  1  0
 24 50  1  0
 24 51  1  0
 25 52  1  0
 25 53  1  0
M  END
$$$$
[H]c1c([H])c([H])c(N2C([H])([H])[C@@]([H])(N(C([H])([H])[H])C([H])([H])[H])[C@]2([H])C([H])([H])[H])c(N([H])C(=O)C2([H])C([H])([H])C([H])([H])C2([H])[H])c1[H]
     RDKit          3D

 46 48  0  0  0  0  0  0  0  0999 V2000
   -4.4515    0.5538   -2.0430 C   0  0  0  0  0  0  0  0  0  0  0  0
   -3.1721    1.0174   -1.6271 N   0  0  0  0  0  0  0  0  0  0  0  0
   -3.1879    2.4520   -1.4255 C   0  0  0  0  0  0  0  0  0  0  0  0
   -2.6050    0.4166   -0.4742 C   0  0  1  0  0  0  0  0  0  0  0  0
   -2.2943   -1.0709   -0.5290 C   0  0  2  0  0  0  0  0  0  0  0  0
   -3.3927   -1.8191    0.1522 C   0  0  0  0  0  0  0  0  0  0  0  0
   -1.0683   -0.7875    0.1735 N   0  0  0  0  0  0  0  0  0  0  0  0
   -1.0947    0.4942   -0.5380 C   0  0  0  0  0  0  0  0  0  0  0  0
   -0.2604   -1.4429    1.1375 C   0  0  0  0  0  0  0  0  0  0  0  0
   -0.7399   -2.4537    1.9422 C   0  0  0  0  0  0  0  0  0  0  0  0
    0.0190   -3.0437    2.9470 C   0  0  0  0  0  0  0  0  0  0  0  0
    1.2958   -2.6306    3.1740 C   0  0  0  0  0  0  0  0  0  0  0  0
    1.8162   -1.6269    2.3943 C   0  0  0  0  0  0  0  0  0  0  0  0
    1.0547   -1.0270    1.3768 C   0  0  0  0  0  0  0  0  0  0  0  0
    1.6328   -0.0944    0.5156 N   0  0  0  0  0  0  0  0  0  0  0  0
    2.7598    0.6835    0.8059 C   0  0  0  0  0  0  0  0  0  0  0  0
    3.3862    0.6464    1.8874 O   0  0  0  0  0  0  0  0  0  0  0  0
    3.3143    1.6572   -0.2110 C   0  0  0  0  0  0  0  0  0  0  0  0
    3.7159    0.9761   -1.5028 C   0  0  0  0  0  0  0  0  0  0  0  0
    5.1853    1.0349   -1.1258 C   0  0  0  0  0  0  0  0  0  0  0  0
    4.7780    1.9374    0.0307 C   0  0  0  0  0  0  0  0  0  0  0  0
   -4.8553    1.3290   -2.7612 H   0  0  0  0  0  0  0  0  0  0  0  0
   -4.4335   -0.3781   -2.6283 H   0  0  0  0  0  0  0  0  0  0  0  0
   -5.2099    0.5192   -1.2342 H   0  0  0  0  0  0  0  0  0  0  0  0
   -4.1621    2.9019   -1.6349 H   0  0  0  0  0  0  0  0  0  0  0  0
   -2.9453    2.7254   -0.3613 H   0  0  0  0  0  0  0  0  0  0  0  0
   -2.3609    2.9347   -2.0228 H   0  0  0  0  0  0  0  0  0  0  0  0
   -3.0361    0.6581    0.5103 H   0  0  0  0  0  0  0  0  0  0  0  0
   -2.1495   -1.4563   -1.5645 H   0  0  0  0  0  0  0  0  0  0  0  0
   -4.3402   -1.5605   -0.4227 H   0  0  0  0  0  0  0  0  0  0  0  0
   -3.6178   -1.4818    1.1760 H   0  0  0  0  0  0  0  0  0  0  0  0
   -3.3340   -2.9249    0.0321 H   0  0  0  0  0  0  0  0  0  0  0  0
   -0.7382    1.3658   -0.0042 H   0  0  0  0  0  0  0  0  0  0  0  0
   -0.7425    0.4513   -1.5901 H   0  0  0  0  0  0  0  0  0  0  0  0
   -1.7657   -2.8163    1.7868 H   0  0  0  0  0  0  0  0  0  0  0  0
   -0.3862   -3.8249    3.5516 H   0  0  0  0  0  0  0  0  0  0  0  0
    1.9350   -3.0568    3.9482 H   0  0  0  0  0  0  0  0  0  0  0  0
    2.8394   -1.3406    2.5917 H   0  0  0  0  0  0  0  0  0  0  0  0
    1.2474    0.0257   -0.4421 H   0  0  0  0  0  0  0  0  0  0  0  0
    2.7438    2.5900   -0.3161 H   0  0  0  0  0  0  0  0  0  0  0  0
    3.3906   -0.1064   -1.5208 H   0  0  0  0  0  0  0  0  0  0  0  0
    3.5453    1.5357   -2.4266 H   0  0  0  0  0  0  0  0  0  0  0  0
    5.6229    0.0538   -0.8080 H   0  0  0  0  0  0  0  0  0  0  0  0
    5.8401    1.5183   -1.8489 H   0  0  0  0  0  0  0  0  0  0  0  0
    5.1385    1.4740    0.9959 H   0  0  0  0  0  0  0  0  0  0  0  0
    5.0830    2.9906   -0.0667 H   0  0  0  0  0  0  0  0  0  0  0  0
  1  2  1  0
  2  3  1  0
  2  4  1  0
  4  5  1  0
  5  6  1  0
  5  7  1  0
  7  8  1  0
  7  9  1  0
  9 10  2  0
 10 11  1  0
 11 12  2  0
 12 13  1  0
 13 14  2  0
 14 15  1  0
 15 16  1  0
 16 17  2  0
 16 18  1  0
 18 19  1  0
 19 20  1  0
 20 21  1  0
  8  4  1  0
 14  9  1  0
 21 18  1  0
  1 22  1  0
  1 23  1  0
  1 24  1  0
  3 25  1  0
  3 26  1  0
  3 27  1  0
  4 28  1  1
  5 29  1  6
  6 30  1  0
  6 31  1  0
  6 32  1  0
  8 33  1  0
  8 34  1  0
 10 35  1  0
 11 36  1  0
 12 37  1  0
 13 38  1  0
 15 39  1  0
 18 40  1  0
 19 41  1  0
 19 42  1  0
 20 43  1  0
 20 44  1  0
 21 45  1  0
 21 46  1  0
M  END
$$$$
[H]c1c([H])c([H])c(C([H])([H])N([H])C(=O)Oc2c([H])c([H])c(C(F)(F)F)c([H])c2-c2c([H])c([H])c(N([H])S(=O)(=O)C([H])([H])C([H])([H])[H])c([H])c2[H])c(Cl)c1[H]
     RDKit          3D

 54 56  0  0  0  0  0  0  0  0999 V2000
    6.2332    2.0022    0.7964 C   0  0  0  0  0  0  0  0  0  0  0  0
    4.9333    2.5657    1.3529 C   0  0  0  0  0  0  0  0  0  0  0  0
    3.8807    3.0517    0.0221 S   0  0  0  0  0  0  0  0  0  0  0  0
    4.5788    4.1882   -0.7069 O   0  0  0  0  0  0  0  0  0  0  0  0
    2.6361    3.6620    0.6380 O   0  0  0  0  0  0  0  0  0  0  0  0
    3.4591    1.8046   -1.0483 N   0  0  0  0  0  0  0  0  0  0  0  0
    2.7254    0.6282   -0.7522 C   0  0  0  0  0  0  0  0  0  0  0  0
    1.7478    0.3195   -1.7160 C   0  0  0  0  0  0  0  0  0  0  0  0
    0.9902   -0.8046   -1.4988 C   0  0  0  0  0  0  0  0  0  0  0  0
    1.1234   -1.6361   -0.4132 C   0  0  0  0  0  0  0  0  0  0  0  0
    2.0932   -1.3198    0.5310 C   0  0  0  0  0  0  0  0  0  0  0  0
    2.8677   -0.1797    0.3161 C   0  0  0  0  0  0  0  0  0  0  0  0
    0.2936   -2.8143   -0.2567 C   0  0  0  0  0  0  0  0  0  0  0  0
    0.8467   -4.0060    0.1400 C   0  0  0  0  0  0  0  0  0  0  0  0
    0.0861   -5.1617    0.2752 C   0  0  0  0  0  0  0  0  0  0  0  0
   -1.2481   -5.0575   -0.0058 C   0  0  0  0  0  0  0  0  0  0  0  0
   -1.8685   -3.8796   -0.4124 C   0  0  0  0  0  0  0  0  0  0  0  0
   -1.0563   -2.7524   -0.5300 C   0  0  0  0  0  0  0  0  0  0  0  0
   -1.6252   -1.5913   -0.9193 O   0  0  0  0  0  0  0  0  0  0  0  0
   -2.8597   -1.0177   -0.5236 C   0  0  0  0  0  0  0  0  0  0  0  0
   -3.4697   -1.7553    0.3205 O   0  0  0  0  0  0  0  0  0  0  0  0
   -3.2442    0.1648   -1.0455 N   0  0  0  0  0  0  0  0  0  0  0  0
   -3.6424    1.3815   -1.5809 C   0  0  0  0  0  0  0  0  0  0  0  0
   -3.9932    2.3974   -0.5411 C   0  0  0  0  0  0  0  0  0  0  0  0
   -4.0358    2.1364    0.8066 C   0  0  0  0  0  0  0  0  0  0  0  0
   -4.4201    3.0945    1.7436 C   0  0  0  0  0  0  0  0  0  0  0  0
   -4.7710    4.3560    1.3013 C   0  0  0  0  0  0  0  0  0  0  0  0
   -4.7438    4.6753   -0.0575 C   0  0  0  0  0  0  0  0  0  0  0  0
   -4.3536    3.6767   -0.9115 C   0  0  0  0  0  0  0  0  0  0  0  0
   -4.2646    4.0197   -2.6408 Cl  0  0  0  0  0  0  0  0  0  0  0  0
    0.6855   -6.4575    0.7013 C   0  0  0  0  0  0  0  0  0  0  0  0
    0.4540   -7.4337   -0.2634 F   0  0  0  0  0  0  0  0  0  0  0  0
    2.0457   -6.3145    0.8640 F   0  0  0  0  0  0  0  0  0  0  0  0
    0.1746   -6.8685    1.9167 F   0  0  0  0  0  0  0  0  0  0  0  0
    7.1099    2.3721    1.3471 H   0  0  0  0  0  0  0  0  0  0  0  0
    6.1597    0.9182    0.7946 H   0  0  0  0  0  0  0  0  0  0  0  0
    6.3303    2.3794   -0.2627 H   0  0  0  0  0  0  0  0  0  0  0  0
    5.1686    3.5299    1.9094 H   0  0  0  0  0  0  0  0  0  0  0  0
    4.4340    1.9004    2.0500 H   0  0  0  0  0  0  0  0  0  0  0  0
    3.7950    1.9305   -2.0631 H   0  0  0  0  0  0  0  0  0  0  0  0
    1.5948    0.9343   -2.5902 H   0  0  0  0  0  0  0  0  0  0  0  0
    0.2251   -1.0785   -2.2536 H   0  0  0  0  0  0  0  0  0  0  0  0
    2.2002   -1.9624    1.3832 H   0  0  0  0  0  0  0  0  0  0  0  0
    3.6090    0.0215    1.0599 H   0  0  0  0  0  0  0  0  0  0  0  0
    1.9157   -4.0946    0.3631 H   0  0  0  0  0  0  0  0  0  0  0  0
   -1.8839   -5.9438    0.0892 H   0  0  0  0  0  0  0  0  0  0  0  0
   -2.9260   -3.8777   -0.6278 H   0  0  0  0  0  0  0  0  0  0  0  0
   -4.4366    0.0890   -0.3976 H   0  0  0  0  0  0  0  0  0  0  0  0
   -4.5000    1.2602   -2.2983 H   0  0  0  0  0  0  0  0  0  0  0  0
   -2.7654    1.7934   -2.1922 H   0  0  0  0  0  0  0  0  0  0  0  0
   -3.7607    1.1485    1.1710 H   0  0  0  0  0  0  0  0  0  0  0  0
   -4.4451    2.8550    2.8016 H   0  0  0  0  0  0  0  0  0  0  0  0
   -5.0662    5.0908    2.0197 H   0  0  0  0  0  0  0  0  0  0  0  0
   -5.0173    5.6597   -0.3793 H   0  0  0  0  0  0  0  0  0  0  0  0
  1  2  1  0
  2  3  1  0
  3  4  2  0
  3  5  2  0
  3  6  1  0
  6  7  1  0
  7  8  2  0
  8  9  1  0
  9 10  2  0
 10 11  1  0
 11 12  2  0
 10 13  1  0
 13 14  2  0
 14 15  1  0
 15 16  2  0
 16 17  1  0
 17 18  2  0
 18 19  1  0
 19 20  1  0
 20 21  2  0
 20 22  1  0
 22 23  1  0
 23 24  1  0
 24 25  2  0
 25 26  1  0
 26 27  2  0
 27 28  1  0
 28 29  2  0
 29 30  1  0
 15 31  1  0
 31 32  1  0
 31 33  1  0
 31 34  1  0
 12  7  1  0
 18 13  1  0
 29 24  1  0
  1 35  1  0
  1 36  1  0
  1 37  1  0
  2 38  1  0
  2 39  1  0
  6 40  1  0
  8 41  1  0
  9 42  1  0
 11 43  1  0
 12 44  1  0
 14 45  1  0
 16 46  1  0
 17 47  1  0
 22 48  1  0
 23 49  1  0
 23 50  1  0
 25 51  1  0
 26 52  1  0
 27 53  1  0
 28 54  1  0
M  END
$$$$
[H]c1c([H])c(-c2nc([C@]([H])(N([H])C(=O)N([H])c3nc4c([H])c([H])c([H])c([H])c4c(F)c3[H])C([H])([H])[H])no2)c([H])c(C([H])([H])[H])c1Cl
     RDKit          3D

 47 50  0  0  0  0  0  0  0  0999 V2000
   -6.2379    2.6542    4.6475 C   0  0  0  0  0  0  0  0  0  0  0  0
   -6.0890    2.3761    3.1960 C   0  0  0  0  0  0  0  0  0  0  0  0
   -4.9376    1.7889    2.6830 C   0  0  0  0  0  0  0  0  0  0  0  0
   -4.7767    1.5216    1.3461 C   0  0  0  0  0  0  0  0  0  0  0  0
   -5.8089    1.8558    0.4996 C   0  0  0  0  0  0  0  0  0  0  0  0
   -6.9764    2.4458    0.9800 C   0  0  0  0  0  0  0  0  0  0  0  0
   -7.0937    2.6961    2.3282 C   0  0  0  0  0  0  0  0  0  0  0  0
   -8.5867    3.4497    2.9149 Cl  0  0  0  0  0  0  0  0  0  0  0  0
   -3.5628    0.9108    0.8197 C   0  0  0  0  0  0  0  0  0  0  0  0
   -3.2351    0.5760   -0.4324 N   0  0  0  0  0  0  0  0  0  0  0  0
   -2.0177    0.0391   -0.4655 C   0  0  0  0  0  0  0  0  0  0  0  0
   -1.5842    0.0479    0.8281 N   0  0  0  0  0  0  0  0  0  0  0  0
   -2.5130    0.5672    1.5690 O   0  0  0  0  0  0  0  0  0  0  0  0
   -1.2433   -0.4820   -1.6477 C   0  0  1  0  0  0  0  0  0  0  0  0
   -1.9720   -0.0353   -2.8783 C   0  0  0  0  0  0  0  0  0  0  0  0
    0.1043   -0.0148   -1.5739 N   0  0  0  0  0  0  0  0  0  0  0  0
    1.1853   -0.9472   -1.3432 C   0  0  0  0  0  0  0  0  0  0  0  0
    0.9076   -2.1733   -1.2145 O   0  0  0  0  0  0  0  0  0  0  0  0
    2.4868   -0.4649   -1.2708 N   0  0  0  0  0  0  0  0  0  0  0  0
    3.6948   -1.1830   -1.0527 C   0  0  0  0  0  0  0  0  0  0  0  0
    3.7947   -2.5337   -0.8706 C   0  0  0  0  0  0  0  0  0  0  0  0
    5.0425   -3.1422   -0.6557 C   0  0  0  0  0  0  0  0  0  0  0  0
    5.1225   -4.4818   -0.4752 F   0  0  0  0  0  0  0  0  0  0  0  0
    6.2020   -2.4037   -0.6220 C   0  0  0  0  0  0  0  0  0  0  0  0
    7.4433   -2.9822   -0.4103 C   0  0  0  0  0  0  0  0  0  0  0  0
    8.6005   -2.2324   -0.3766 C   0  0  0  0  0  0  0  0  0  0  0  0
    8.4732   -0.8720   -0.5631 C   0  0  0  0  0  0  0  0  0  0  0  0
    7.2405   -0.2904   -0.7744 C   0  0  0  0  0  0  0  0  0  0  0  0
    6.0671   -1.0489   -0.8091 C   0  0  0  0  0  0  0  0  0  0  0  0
    4.8772   -0.4884   -1.0110 N   0  0  0  0  0  0  0  0  0  0  0  0
   -5.2300    2.5012    5.1185 H   0  0  0  0  0  0  0  0  0  0  0  0
   -6.9911    1.9641    5.0833 H   0  0  0  0  0  0  0  0  0  0  0  0
   -6.4819    3.7239    4.7819 H   0  0  0  0  0  0  0  0  0  0  0  0
   -4.1541    1.5424    3.3767 H   0  0  0  0  0  0  0  0  0  0  0  0
   -5.7620    1.6768   -0.5727 H   0  0  0  0  0  0  0  0  0  0  0  0
   -7.7908    2.7145    0.3342 H   0  0  0  0  0  0  0  0  0  0  0  0
   -1.2423   -1.5884   -1.5792 H   0  0  0  0  0  0  0  0  0  0  0  0
   -3.0677   -0.0551   -2.7206 H   0  0  0  0  0  0  0  0  0  0  0  0
   -1.6093    0.9434   -3.2613 H   0  0  0  0  0  0  0  0  0  0  0  0
   -1.7790   -0.7556   -3.7150 H   0  0  0  0  0  0  0  0  0  0  0  0
    0.3776    0.9859   -1.6774 H   0  0  0  0  0  0  0  0  0  0  0  0
    2.5684    0.6113   -1.4023 H   0  0  0  0  0  0  0  0  0  0  0  0
    2.9179   -3.1584   -0.8895 H   0  0  0  0  0  0  0  0  0  0  0  0
    7.5144   -4.0618   -0.2659 H   0  0  0  0  0  0  0  0  0  0  0  0
    9.5701   -2.6861   -0.2101 H   0  0  0  0  0  0  0  0  0  0  0  0
    9.3932   -0.2806   -0.5347 H   0  0  0  0  0  0  0  0  0  0  0  0
    7.1591    0.7698   -0.9185 H   0  0  0  0  0  0  0  0  0  0  0  0
  1  2  1  0
  2  3  2  0
  3  4  1  0
  4  5  2  0
  5  6  1  0
  6  7  2  0
  7  8  1  0
  4  9  1  0
  9 10  2  0
 10 11  1  0
 11 12  2  0
 12 13  1  0
 11 14  1  0
 14 15  1  0
 14 16  1  0
 16 17  1  0
 17 18  2  0
 17 19  1  0
 19 20  1  0
 20 21  2  0
 21 22  1  0
 22 23  1  0
 22 24  2  0
 24 25  1  0
 25 26  2  0
 26 27  1  0
 27 28  2  0
 28 29  1  0
 29 30  2  0
  7  2  1  0
 13  9  1  0
 30 20  1  0
 29 24  1  0
  1 31  1  0
  1 32  1  0
  1 33  1  0
  3 34  1  0
  5 35  1  0
  6 36  1  0
 14 37  1  1
 15 38  1  0
 15 39  1  0
 15 40  1  0
 16 41  1  0
 19 42  1  0
 21 43  1  0
 25 44  1  0
 26 45  1  0
 27 46  1  0
 28 47  1  0
M  END
$$$$
[H]c1c([H])c(N([H])C(=O)N([H])c2nnc(-c3c([H])c([H])c(C([H])([H])[H])c([H])c3F)o2)c([H])c(C(F)(F)F)c1Cl
     RDKit          3D

 39 41  0  0  0  0  0  0  0  0999 V2000
   -6.3062   -1.3909   -1.9657 C   0  0  0  0  0  0  0  0  0  0  0  0
   -5.2496   -0.7286   -1.1594 C   0  0  0  0  0  0  0  0  0  0  0  0
   -5.6250    0.1281   -0.1576 C   0  0  0  0  0  0  0  0  0  0  0  0
   -4.6628    0.7609    0.6116 C   0  0  0  0  0  0  0  0  0  0  0  0
   -3.3379    0.5526    0.3970 C   0  0  0  0  0  0  0  0  0  0  0  0
   -2.3354    1.2468    1.2399 C   0  0  0  0  0  0  0  0  0  0  0  0
   -2.6232    2.0862    2.2244 N   0  0  0  0  0  0  0  0  0  0  0  0
   -1.5012    2.5077    2.7480 N   0  0  0  0  0  0  0  0  0  0  0  0
   -0.4836    1.8941    2.0467 C   0  0  0  0  0  0  0  0  0  0  0  0
    0.8817    2.1193    2.3441 N   0  0  0  0  0  0  0  0  0  0  0  0
    1.9870    1.5394    1.6830 C   0  0  0  0  0  0  0  0  0  0  0  0
    3.1653    1.8849    2.1202 O   0  0  0  0  0  0  0  0  0  0  0  0
    1.8525    0.6477    0.6232 N   0  0  0  0  0  0  0  0  0  0  0  0
    2.9490    0.0545   -0.0329 C   0  0  0  0  0  0  0  0  0  0  0  0
    2.7773   -0.3113   -1.3768 C   0  0  0  0  0  0  0  0  0  0  0  0
    3.7800   -0.9215   -2.0800 C   0  0  0  0  0  0  0  0  0  0  0  0
    4.9872   -1.1833   -1.4538 C   0  0  0  0  0  0  0  0  0  0  0  0
    6.2928   -1.9591   -2.3130 Cl  0  0  0  0  0  0  0  0  0  0  0  0
    5.1602   -0.8305   -0.1470 C   0  0  0  0  0  0  0  0  0  0  0  0
    4.1357   -0.2049    0.5795 C   0  0  0  0  0  0  0  0  0  0  0  0
    6.4386   -1.0995    0.5394 C   0  0  0  0  0  0  0  0  0  0  0  0
    7.4951   -0.4580   -0.0802 F   0  0  0  0  0  0  0  0  0  0  0  0
    6.3557   -0.7105    1.8539 F   0  0  0  0  0  0  0  0  0  0  0  0
    6.6510   -2.4851    0.5459 F   0  0  0  0  0  0  0  0  0  0  0  0
   -1.0548    1.1492    1.1540 O   0  0  0  0  0  0  0  0  0  0  0  0
   -2.9446   -0.2945   -0.5930 C   0  0  0  0  0  0  0  0  0  0  0  0
   -1.6495   -0.5482   -0.8617 F   0  0  0  0  0  0  0  0  0  0  0  0
   -3.9058   -0.9389   -1.3758 C   0  0  0  0  0  0  0  0  0  0  0  0
   -7.2656   -1.4118   -1.4157 H   0  0  0  0  0  0  0  0  0  0  0  0
   -6.0074   -2.4108   -2.2842 H   0  0  0  0  0  0  0  0  0  0  0  0
   -6.4684   -0.7927   -2.8883 H   0  0  0  0  0  0  0  0  0  0  0  0
   -6.6739    0.3282    0.0536 H   0  0  0  0  0  0  0  0  0  0  0  0
   -4.9603    1.4476    1.4146 H   0  0  0  0  0  0  0  0  0  0  0  0
    1.0806    2.7979    3.1526 H   0  0  0  0  0  0  0  0  0  0  0  0
    0.8693    0.4016    0.2916 H   0  0  0  0  0  0  0  0  0  0  0  0
    1.8216   -0.0883   -1.8238 H   0  0  0  0  0  0  0  0  0  0  0  0
    3.6417   -1.1996   -3.1113 H   0  0  0  0  0  0  0  0  0  0  0  0
    4.3478    0.0262    1.6261 H   0  0  0  0  0  0  0  0  0  0  0  0
   -3.6148   -1.6050   -2.1548 H   0  0  0  0  0  0  0  0  0  0  0  0
  1  2  1  0
  2  3  2  0
  3  4  1  0
  4  5  2  0
  5  6  1  0
  6  7  2  0
  7  8  1  0
  8  9  2  0
  9 10  1  0
 10 11  1  0
 11 12  2  0
 11 13  1  0
 13 14  1  0
 14 15  2  0
 15 16  1  0
 16 17  2  0
 17 18  1  0
 17 19  1  0
 19 20  2  0
 19 21  1  0
 21 22  1  0
 21 23  1  0
 21 24  1  0
  9 25  1  0
  5 26  1  0
 26 27  1  0
 26 28  2  0
 28  2  1  0
 25  6  1  0
 20 14  1  0
  1 29  1  0
  1 30  1  0
  1 31  1  0
  3 32  1  0
  4 33  1  0
 10 34  1  0
 13 35  1  0
 15 36  1  0
 16 37  1  0
 20 38  1  0
 28 39  1  0
M  END
$$$$
[H]c1c([H])c(C([H])([H])[H])c([H])c(C([H])([H])C([H])([H])C(=O)N([H])c2c([H])c(F)c([H])c([N+](=O)[O-])c2[H])c1[H]
     RDKit          3D

 37 38  0  0  0  0  0  0  0  0999 V2000
   -5.7629    1.6903   -0.6534 C   0  0  0  0  0  0  0  0  0  0  0  0
   -4.9928    0.4908   -0.2046 C   0  0  0  0  0  0  0  0  0  0  0  0
   -5.5693   -0.4888    0.5797 C   0  0  0  0  0  0  0  0  0  0  0  0
   -4.8433   -1.6040    0.9936 C   0  0  0  0  0  0  0  0  0  0  0  0
   -3.5279   -1.7571    0.6290 C   0  0  0  0  0  0  0  0  0  0  0  0
   -2.9313   -0.7905   -0.1546 C   0  0  0  0  0  0  0  0  0  0  0  0
   -1.5429   -0.8921   -0.5754 C   0  0  0  0  0  0  0  0  0  0  0  0
   -0.5558   -0.2721    0.3557 C   0  0  0  0  0  0  0  0  0  0  0  0
    0.8638   -0.4165   -0.1464 C   0  0  0  0  0  0  0  0  0  0  0  0
    0.9707   -1.0122   -1.2234 O   0  0  0  0  0  0  0  0  0  0  0  0
    1.9428    0.0912    0.5693 N   0  0  0  0  0  0  0  0  0  0  0  0
    3.2944   -0.0089    0.1735 C   0  0  0  0  0  0  0  0  0  0  0  0
    3.8044   -0.8852   -0.7485 C   0  0  0  0  0  0  0  0  0  0  0  0
    5.1636   -0.8859   -1.0882 C   0  0  0  0  0  0  0  0  0  0  0  0
    5.5846   -1.7967   -2.0203 F   0  0  0  0  0  0  0  0  0  0  0  0
    6.0516   -0.0161   -0.5199 C   0  0  0  0  0  0  0  0  0  0  0  0
    5.5600    0.8802    0.4168 C   0  0  0  0  0  0  0  0  0  0  0  0
    4.2350    0.8731    0.7403 C   0  0  0  0  0  0  0  0  0  0  0  0
    6.4245    1.8155    1.0510 N   0  0  0  0  0  0  0  0  0  0  0  0
    5.9205    2.6873    1.9686 O   0  0  0  0  0  0  0  0  0  0  0  0
    7.6326    1.8476    0.7793 O   0  0  0  0  0  0  0  0  0  0  0  0
   -3.6695    0.3140   -0.5578 C   0  0  0  0  0  0  0  0  0  0  0  0
   -5.3816    1.9689   -1.6603 H   0  0  0  0  0  0  0  0  0  0  0  0
   -5.5310    2.5725   -0.0001 H   0  0  0  0  0  0  0  0  0  0  0  0
   -6.8373    1.4660   -0.6393 H   0  0  0  0  0  0  0  0  0  0  0  0
   -6.6201   -0.3584    0.8661 H   0  0  0  0  0  0  0  0  0  0  0  0
   -5.3166   -2.3550    1.6058 H   0  0  0  0  0  0  0  0  0  0  0  0
   -2.9065   -2.5939    0.9129 H   0  0  0  0  0  0  0  0  0  0  0  0
   -1.4324   -0.4802   -1.5990 H   0  0  0  0  0  0  0  0  0  0  0  0
   -1.2911   -1.9865   -0.6727 H   0  0  0  0  0  0  0  0  0  0  0  0
   -0.6220   -0.5992    1.3868 H   0  0  0  0  0  0  0  0  0  0  0  0
   -0.7213    0.8461    0.3620 H   0  0  0  0  0  0  0  0  0  0  0  0
    1.7446    0.5924    1.4883 H   0  0  0  0  0  0  0  0  0  0  0  0
    3.1443   -1.6052   -1.2161 H   0  0  0  0  0  0  0  0  0  0  0  0
    7.1025    0.0028   -0.7651 H   0  0  0  0  0  0  0  0  0  0  0  0
    3.8378    1.5730    1.4738 H   0  0  0  0  0  0  0  0  0  0  0  0
   -3.2222    1.0928   -1.1776 H   0  0  0  0  0  0  0  0  0  0  0  0
  1  2  1  0
  2  3  2  0
  3  4  1  0
  4  5  2  0
  5  6  1  0
  6  7  1  0
  7  8  1  0
  8  9  1  0
  9 10  2  0
  9 11  1  0
 11 12  1  0
 12 13  2  0
 13 14  1  0
 14 15  1  0
 14 16  2  0
 16 17  1  0
 17 18  2  0
 17 19  1  0
 19 20  1  0
 19 21  2  0
  6 22  2  0
 22  2  1  0
 18 12  1  0
  1 23  1  0
  1 24  1  0
  1 25  1  0
  3 26  1  0
  4 27  1  0
  5 28  1  0
  7 29  1  0
  7 30  1  0
  8 31  1  0
  8 32  1  0
 11 33  1  0
 13 34  1  0
 16 35  1  0
 18 36  1  0
 22 37  1  0
M  CHG  2  19   1  20  -1
M  END
$$$$
[H]c1nc2c(C([H])([H])C([H])([H])N([H])C([H])([H])C([H])([H])c3nc(OC([H])([H])[H])c([H])c([H])c3[H])c(C([H])([H])[H])nn([H])c-2c1C([H])([H])C([H])([H])N1C([H])([H])C([H])([H])OC([H])([H])C1([H])[H]
     RDKit          3D

 63 66  0  0  0  0  0  0  0  0999 V2000
    8.0688    2.3222    1.7899 C   0  0  0  0  0  0  0  0  0  0  0  0
    7.5009    1.1585    1.8535 O   0  0  0  0  0  0  0  0  0  0  0  0
    6.9203    0.0091    1.8599 C   0  0  0  0  0  0  0  0  0  0  0  0
    6.9113   -0.7932    3.0025 C   0  0  0  0  0  0  0  0  0  0  0  0
    6.2912   -1.9970    2.9729 C   0  0  0  0  0  0  0  0  0  0  0  0
    5.6790   -2.4294    1.8414 C   0  0  0  0  0  0  0  0  0  0  0  0
    5.6810   -1.6468    0.7075 C   0  0  0  0  0  0  0  0  0  0  0  0
    5.0041   -2.1406   -0.5375 C   0  0  0  0  0  0  0  0  0  0  0  0
    3.5598   -1.7161   -0.5685 C   0  0  0  0  0  0  0  0  0  0  0  0
    3.4512   -0.2926   -0.5495 N   0  0  0  0  0  0  0  0  0  0  0  0
    2.0874    0.1381   -0.5710 C   0  0  0  0  0  0  0  0  0  0  0  0
    1.3637   -0.1442   -1.8539 C   0  0  0  0  0  0  0  0  0  0  0  0
   -0.0262    0.3464   -1.7804 C   0  0  0  0  0  0  0  0  0  0  0  0
   -0.3003    1.6963   -1.9122 C   0  0  0  0  0  0  0  0  0  0  0  0
    0.7672    2.7174   -2.1340 C   0  0  0  0  0  0  0  0  0  0  0  0
   -1.5739    2.0687   -1.8362 N   0  0  0  0  0  0  0  0  0  0  0  0
   -2.6099    1.2707   -1.6456 N   0  0  0  0  0  0  0  0  0  0  0  0
   -2.4494   -0.0437   -1.5060 C   0  0  0  0  0  0  0  0  0  0  0  0
   -3.3064   -1.0998   -1.3063 C   0  0  0  0  0  0  0  0  0  0  0  0
   -4.7804   -1.1435   -1.1334 C   0  0  0  0  0  0  0  0  0  0  0  0
   -5.2873   -0.8348    0.2115 C   0  0  0  0  0  0  0  0  0  0  0  0
   -5.1116    0.4226    0.7999 N   0  0  0  0  0  0  0  0  0  0  0  0
   -5.5361    0.2852    2.2169 C   0  0  0  0  0  0  0  0  0  0  0  0
   -6.9430    0.6985    2.4534 C   0  0  0  0  0  0  0  0  0  0  0  0
   -7.8360    0.3969    1.4378 O   0  0  0  0  0  0  0  0  0  0  0  0
   -7.4486    1.0490    0.2738 C   0  0  0  0  0  0  0  0  0  0  0  0
   -5.9914    1.4718    0.3096 C   0  0  0  0  0  0  0  0  0  0  0  0
   -2.4487   -2.2208   -1.2603 C   0  0  0  0  0  0  0  0  0  0  0  0
   -1.1788   -1.8641   -1.4192 N   0  0  0  0  0  0  0  0  0  0  0  0
   -1.0654   -0.5357   -1.5795 C   0  0  0  0  0  0  0  0  0  0  0  0
    6.2925   -0.4718    0.7548 N   0  0  0  0  0  0  0  0  0  0  0  0
    9.1058    2.3791    2.2334 H   0  0  0  0  0  0  0  0  0  0  0  0
    8.2354    2.6907    0.7223 H   0  0  0  0  0  0  0  0  0  0  0  0
    7.4576    3.1687    2.2233 H   0  0  0  0  0  0  0  0  0  0  0  0
    7.4012   -0.4518    3.9115 H   0  0  0  0  0  0  0  0  0  0  0  0
    6.2834   -2.6287    3.8654 H   0  0  0  0  0  0  0  0  0  0  0  0
    5.1730   -3.3942    1.7879 H   0  0  0  0  0  0  0  0  0  0  0  0
    5.5073   -1.6541   -1.4042 H   0  0  0  0  0  0  0  0  0  0  0  0
    5.0544   -3.2370   -0.5958 H   0  0  0  0  0  0  0  0  0  0  0  0
    3.0797   -2.1355   -1.4709 H   0  0  0  0  0  0  0  0  0  0  0  0
    3.0836   -2.1171    0.3585 H   0  0  0  0  0  0  0  0  0  0  0  0
    4.0429    0.1264   -1.2842 H   0  0  0  0  0  0  0  0  0  0  0  0
    2.0118    1.2008   -0.2545 H   0  0  0  0  0  0  0  0  0  0  0  0
    1.5507   -0.4306    0.2441 H   0  0  0  0  0  0  0  0  0  0  0  0
    1.3410   -1.2540   -1.9896 H   0  0  0  0  0  0  0  0  0  0  0  0
    1.8650    0.2887   -2.7291 H   0  0  0  0  0  0  0  0  0  0  0  0
    1.7391    2.2857   -2.3702 H   0  0  0  0  0  0  0  0  0  0  0  0
    0.4328    3.2871   -3.0520 H   0  0  0  0  0  0  0  0  0  0  0  0
    0.7604    3.4395   -1.3172 H   0  0  0  0  0  0  0  0  0  0  0  0
   -3.5881    1.6238   -1.6068 H   0  0  0  0  0  0  0  0  0  0  0  0
   -5.2305   -0.5380   -1.9521 H   0  0  0  0  0  0  0  0  0  0  0  0
   -5.0910   -2.1986   -1.3980 H   0  0  0  0  0  0  0  0  0  0  0  0
   -6.3665   -1.1754    0.3039 H   0  0  0  0  0  0  0  0  0  0  0  0
   -4.7735   -1.5826    0.9062 H   0  0  0  0  0  0  0  0  0  0  0  0
   -4.8749    1.0051    2.7592 H   0  0  0  0  0  0  0  0  0  0  0  0
   -5.2951   -0.7285    2.5567 H   0  0  0  0  0  0  0  0  0  0  0  0
   -7.0634    1.8050    2.6474 H   0  0  0  0  0  0  0  0  0  0  0  0
   -7.2811    0.1734    3.3801 H   0  0  0  0  0  0  0  0  0  0  0  0
   -8.1203    1.9398    0.1996 H   0  0  0  0  0  0  0  0  0  0  0  0
   -7.6930    0.4288   -0.6224 H   0  0  0  0  0  0  0  0  0  0  0  0
   -5.9220    2.2889    1.0614 H   0  0  0  0  0  0  0  0  0  0  0  0
   -5.6738    1.9330   -0.6331 H   0  0  0  0  0  0  0  0  0  0  0  0
   -2.8371   -3.2158   -1.1120 H   0  0  0  0  0  0  0  0  0  0  0  0
  1  2  1  0
  2  3  1  0
  3  4  2  0
  4  5  1  0
  5  6  2  0
  6  7  1  0
  7  8  1  0
  8  9  1  0
  9 10  1  0
 10 11  1  0
 11 12  1  0
 12 13  1  0
 13 14  1  0
 14 15  1  0
 14 16  2  0
 16 17  1  0
 17 18  1  0
 18 19  2  0
 19 20  1  0
 20 21  1  0
 21 22  1  0
 22 23  1  0
 23 24  1  0
 24 25  1  0
 25 26  1  0
 26 27  1  0
 19 28  1  0
 28 29  2  0
 29 30  1  0
  7 31  2  0
 31  3  1  0
 30 13  2  0
 30 18  1  0
 27 22  1  0
  1 32  1  0
  1 33  1  0
  1 34  1  0
  4 35  1  0
  5 36  1  0
  6 37  1  0
  8 38  1  0
  8 39  1  0
  9 40  1  0
  9 41  1  0
 10 42  1  0
 11 43  1  0
 11 44  1  0
 12 45  1  0
 12 46  1  0
 15 47  1  0
 15 48  1  0
 15 49  1  0
 17 50  1  0
 20 51  1  0
 20 52  1  0
 21 53  1  0
 21 54  1  0
 23 55  1  0
 23 56  1  0
 24 57  1  0
 24 58  1  0
 26 59  1  0
 26 60  1  0
 27 61  1  0
 27 62  1  0
 28 63  1  0
M  END
$$$$
[H]c1c([H])c([H])c(C([H])([H])c2c(C([H])([H])C([H])([H])[H])nn(C([H])([H])[H])c2C([H])([H])[H])c([H])c1[H]
     RDKit          3D

 34 35  0  0  0  0  0  0  0  0999 V2000
    1.3985    2.9542   -1.2218 C   0  0  0  0  0  0  0  0  0  0  0  0
    1.0338    2.3573    0.1266 C   0  0  0  0  0  0  0  0  0  0  0  0
    1.3737    0.9411    0.2325 C   0  0  0  0  0  0  0  0  0  0  0  0
    2.4516    0.4995    0.9321 N   0  0  0  0  0  0  0  0  0  0  0  0
    2.5063   -0.8119    0.8348 N   0  0  0  0  0  0  0  0  0  0  0  0
    3.5246   -1.6715    1.4504 C   0  0  0  0  0  0  0  0  0  0  0  0
    1.4988   -1.2809    0.0902 C   0  0  0  0  0  0  0  0  0  0  0  0
    1.2124   -2.7045   -0.2568 C   0  0  0  0  0  0  0  0  0  0  0  0
    0.7645   -0.1449   -0.2999 C   0  0  0  0  0  0  0  0  0  0  0  0
   -0.4343   -0.2063   -1.1226 C   0  0  0  0  0  0  0  0  0  0  0  0
   -1.7266   -0.1109   -0.4710 C   0  0  0  0  0  0  0  0  0  0  0  0
   -2.3321   -1.1704    0.2060 C   0  0  0  0  0  0  0  0  0  0  0  0
   -3.5685   -1.0587    0.7924 C   0  0  0  0  0  0  0  0  0  0  0  0
   -4.2615    0.1543    0.7186 C   0  0  0  0  0  0  0  0  0  0  0  0
   -3.6813    1.2147    0.0542 C   0  0  0  0  0  0  0  0  0  0  0  0
   -2.4514    1.0497   -0.5103 C   0  0  0  0  0  0  0  0  0  0  0  0
    1.3390    2.2483   -2.0537 H   0  0  0  0  0  0  0  0  0  0  0  0
    2.4209    3.4148   -1.1873 H   0  0  0  0  0  0  0  0  0  0  0  0
    0.6929    3.7891   -1.4147 H   0  0  0  0  0  0  0  0  0  0  0  0
    1.6618    2.9598    0.8663 H   0  0  0  0  0  0  0  0  0  0  0  0
   -0.0099    2.6202    0.3638 H   0  0  0  0  0  0  0  0  0  0  0  0
    3.0842   -2.2277    2.3079 H   0  0  0  0  0  0  0  0  0  0  0  0
    3.9093   -2.3920    0.7083 H   0  0  0  0  0  0  0  0  0  0  0  0
    4.3723   -1.0298    1.7610 H   0  0  0  0  0  0  0  0  0  0  0  0
    0.5946   -3.1366    0.5733 H   0  0  0  0  0  0  0  0  0  0  0  0
    0.6946   -2.7701   -1.2318 H   0  0  0  0  0  0  0  0  0  0  0  0
    2.1445   -3.2916   -0.3489 H   0  0  0  0  0  0  0  0  0  0  0  0
   -0.3888    0.6152   -1.9012 H   0  0  0  0  0  0  0  0  0  0  0  0
   -0.4538   -1.1608   -1.7439 H   0  0  0  0  0  0  0  0  0  0  0  0
   -1.8278   -2.1216    0.2821 H   0  0  0  0  0  0  0  0  0  0  0  0
   -4.0655   -1.8541    1.3220 H   0  0  0  0  0  0  0  0  0  0  0  0
   -5.2346    0.2376    1.1817 H   0  0  0  0  0  0  0  0  0  0  0  0
   -4.2039    2.1592   -0.0121 H   0  0  0  0  0  0  0  0  0  0  0  0
   -2.0381    1.9295   -1.0280 H   0  0  0  0  0  0  0  0  0  0  0  0
  1  2  1  0
  2  3  1  0
  3  4  2  0
  4  5  1  0
  5  6  1  0
  5  7  1  0
  7  8  1  0
  7  9  2  0
  9 10  1  0
 10 11  1  0
 11 12  2  0
 12 13  1  0
 13 14  2  0
 14 15  1  0
 15 16  2  0
  9  3  1  0
 16 11  1  0
  1 17  1  0
  1 18  1  0
  1 19  1  0
  2 20  1  0
  2 21  1  0
  6 22  1  0
  6 23  1  0
  6 24  1  0
  8 25  1  0
  8 26  1  0
  8 27  1  0
 10 28  1  0
 10 29  1  0
 12 30  1  0
 13 31  1  0
 14 32  1  0
 15 33  1  0
 16 34  1  0
M  END
$$$$
[H]OC([H])(c1c([H])nc(C2([H])C([H])([H])C([H])([H])C([H])([H])C2([H])[H])n1C([H])([H])c1c([H])c([H])c(OC([H])([H])c2c([H])c([H])c([H])c([H])c2[H])c(C([H])([H])[H])c1[H])C([H])([H])C1([H])C([H])([H])C([H])([H])C1([H])[H]
     RDKit          3D

 69 73  0  0  0  0  0  0  0  0999 V2000
    1.9434   -2.8314    0.3600 C   0  0  0  0  0  0  0  0  0  0  0  0
    1.6024   -1.4298    0.7172 C   0  0  0  0  0  0  0  0  0  0  0  0
    0.3776   -1.1004    1.2583 C   0  0  0  0  0  0  0  0  0  0  0  0
    0.0133    0.1986    1.6081 C   0  0  0  0  0  0  0  0  0  0  0  0
   -1.2868    0.5124    2.1941 C   0  0  0  0  0  0  0  0  0  0  0  0
   -2.3362    0.9899    1.3242 N   0  0  0  0  0  0  0  0  0  0  0  0
   -3.2092    0.2413    0.6721 C   0  0  0  0  0  0  0  0  0  0  0  0
   -4.0557    1.1220   -0.0214 C   0  0  0  0  0  0  0  0  0  0  0  0
   -3.6551    2.3518    0.2454 N   0  0  0  0  0  0  0  0  0  0  0  0
   -2.6039    2.2824    1.0694 C   0  0  0  0  0  0  0  0  0  0  0  0
   -1.9137    3.4919    1.6216 C   0  0  0  0  0  0  0  0  0  0  0  0
   -2.9141    4.4731    2.1914 C   0  0  0  0  0  0  0  0  0  0  0  0
   -3.1336    5.5378    1.1602 C   0  0  0  0  0  0  0  0  0  0  0  0
   -1.9440    5.5102    0.2607 C   0  0  0  0  0  0  0  0  0  0  0  0
   -1.2513    4.2043    0.4646 C   0  0  0  0  0  0  0  0  0  0  0  0
   -3.4300   -1.2310    0.5536 C   0  0  0  0  0  0  0  0  0  0  0  0
   -3.1365   -1.9498    1.6979 O   0  0  0  0  0  0  0  0  0  0  0  0
   -2.8742   -1.7334   -0.7162 C   0  0  0  0  0  0  0  0  0  0  0  0
   -2.9920   -3.1774   -1.0009 C   0  0  0  0  0  0  0  0  0  0  0  0
   -4.2786   -3.8544   -1.0929 C   0  0  0  0  0  0  0  0  0  0  0  0
   -4.1423   -4.0588   -2.6062 C   0  0  0  0  0  0  0  0  0  0  0  0
   -2.7496   -3.4767   -2.4747 C   0  0  0  0  0  0  0  0  0  0  0  0
    0.9860    1.1437    1.3693 C   0  0  0  0  0  0  0  0  0  0  0  0
    2.2340    0.8231    0.8203 C   0  0  0  0  0  0  0  0  0  0  0  0
    2.5473   -0.4592    0.4928 C   0  0  0  0  0  0  0  0  0  0  0  0
    3.8038   -0.7825   -0.0603 O   0  0  0  0  0  0  0  0  0  0  0  0
    4.7833    0.1786   -0.3001 C   0  0  0  0  0  0  0  0  0  0  0  0
    5.9685   -0.4666   -0.8752 C   0  0  0  0  0  0  0  0  0  0  0  0
    6.0073   -1.8200   -1.1059 C   0  0  0  0  0  0  0  0  0  0  0  0
    7.1375   -2.4303   -1.6534 C   0  0  0  0  0  0  0  0  0  0  0  0
    8.2290   -1.6597   -1.9658 C   0  0  0  0  0  0  0  0  0  0  0  0
    8.2146   -0.3177   -1.7466 C   0  0  0  0  0  0  0  0  0  0  0  0
    7.0819    0.2683   -1.2020 C   0  0  0  0  0  0  0  0  0  0  0  0
    1.0796   -3.5139    0.4509 H   0  0  0  0  0  0  0  0  0  0  0  0
    2.7345   -3.1977    1.0771 H   0  0  0  0  0  0  0  0  0  0  0  0
    2.4174   -2.8222   -0.6257 H   0  0  0  0  0  0  0  0  0  0  0  0
   -0.3549   -1.8774    1.4352 H   0  0  0  0  0  0  0  0  0  0  0  0
   -1.1816    1.2606    3.0490 H   0  0  0  0  0  0  0  0  0  0  0  0
   -1.6172   -0.4149    2.7293 H   0  0  0  0  0  0  0  0  0  0  0  0
   -4.8995    0.8519   -0.6700 H   0  0  0  0  0  0  0  0  0  0  0  0
   -1.1802    3.1616    2.3474 H   0  0  0  0  0  0  0  0  0  0  0  0
   -2.4419    4.9434    3.0781 H   0  0  0  0  0  0  0  0  0  0  0  0
   -3.8898    4.0043    2.4052 H   0  0  0  0  0  0  0  0  0  0  0  0
   -3.1699    6.5624    1.6252 H   0  0  0  0  0  0  0  0  0  0  0  0
   -4.1053    5.4262    0.6265 H   0  0  0  0  0  0  0  0  0  0  0  0
   -1.2540    6.3714    0.4114 H   0  0  0  0  0  0  0  0  0  0  0  0
   -2.3274    5.6390   -0.7932 H   0  0  0  0  0  0  0  0  0  0  0  0
   -1.3625    3.6228   -0.4971 H   0  0  0  0  0  0  0  0  0  0  0  0
   -0.1565    4.3049    0.6071 H   0  0  0  0  0  0  0  0  0  0  0  0
   -4.5824   -1.3094    0.5486 H   0  0  0  0  0  0  0  0  0  0  0  0
   -2.8697   -2.8674    1.4478 H   0  0  0  0  0  0  0  0  0  0  0  0
   -1.8361   -1.3904   -0.8218 H   0  0  0  0  0  0  0  0  0  0  0  0
   -3.3936   -1.1819   -1.5700 H   0  0  0  0  0  0  0  0  0  0  0  0
   -2.2540   -3.7735   -0.4007 H   0  0  0  0  0  0  0  0  0  0  0  0
   -4.3256   -4.8648   -0.6108 H   0  0  0  0  0  0  0  0  0  0  0  0
   -5.2156   -3.3284   -0.8939 H   0  0  0  0  0  0  0  0  0  0  0  0
   -4.8447   -3.4410   -3.2065 H   0  0  0  0  0  0  0  0  0  0  0  0
   -4.1907   -5.0957   -2.9401 H   0  0  0  0  0  0  0  0  0  0  0  0
   -2.6753   -2.5584   -3.0939 H   0  0  0  0  0  0  0  0  0  0  0  0
   -1.9359   -4.1715   -2.6898 H   0  0  0  0  0  0  0  0  0  0  0  0
    0.8264    2.1749    1.6109 H   0  0  0  0  0  0  0  0  0  0  0  0
    2.9490    1.6063    0.6582 H   0  0  0  0  0  0  0  0  0  0  0  0
    4.3674    0.9294   -1.0315 H   0  0  0  0  0  0  0  0  0  0  0  0
    5.0166    0.7964    0.6117 H   0  0  0  0  0  0  0  0  0  0  0  0
    5.1623   -2.4317   -0.8665 H   0  0  0  0  0  0  0  0  0  0  0  0
    7.1829   -3.4843   -1.8392 H   0  0  0  0  0  0  0  0  0  0  0  0
    9.1384   -2.0960   -2.3976 H   0  0  0  0  0  0  0  0  0  0  0  0
    9.0683    0.2900   -1.9901 H   0  0  0  0  0  0  0  0  0  0  0  0
    7.0984    1.3250   -1.0405 H   0  0  0  0  0  0  0  0  0  0  0  0
  1  2  1  0
  2  3  2  0
  3  4  1  0
  4  5  1  0
  5  6  1  0
  6  7  1  0
  7  8  2  0
  8  9  1  0
  9 10  2  0
 10 11  1  0
 11 12  1  0
 12 13  1  0
 13 14  1  0
 14 15  1  0
  7 16  1  0
 16 17  1  0
 16 18  1  0
 18 19  1  0
 19 20  1  0
 20 21  1  0
 21 22  1  0
  4 23  2  0
 23 24  1  0
 24 25  2  0
 25 26  1  0
 26 27  1  0
 27 28  1  0
 28 29  2  0
 29 30  1  0
 30 31  2  0
 31 32  1  0
 32 33  2  0
 25  2  1  0
 33 28  1  0
 10  6  1  0
 15 11  1  0
 22 19  1  0
  1 34  1  0
  1 35  1  0
  1 36  1  0
  3 37  1  0
  5 38  1  0
  5 39  1  0
  8 40  1  0
 11 41  1  0
 12 42  1  0
 12 43  1  0
 13 44  1  0
 13 45  1  0
 14 46  1  0
 14 47  1  0
 15 48  1  0
 15 49  1  0
 16 50  1  0
 17 51  1  0
 18 52  1  0
 18 53  1  0
 19 54  1  0
 20 55  1  0
 20 56  1  0
 21 57  1  0
 21 58  1  0
 22 59  1  0
 22 60  1  0
 23 61  1  0
 24 62  1  0
 27 63  1  0
 27 64  1  0
 29 65  1  0
 30 66  1  0
 31 67  1  0
 32 68  1  0
 33 69  1  0
M  END
$$$$
