[H]c1nc([H])n(-c2c([H])c([H])c([H])c(C3=Nc4c([H])c([H])c(-c5c([H])c([H])c([H])c([H])c5F)c([H])c4N([H])C(=O)C3([H])[H])c2[H])c1[H]
     RDKit          3D

 47 51  0  0  0  0  0  0  0  0999 V2000
    5.4031    1.0134    1.9241 F   0  0  0  0  0  0  0  0  0  0  0  0
    6.0263    0.6613    0.7730 C   0  0  0  0  0  0  0  0  0  0  0  0
    7.4159    0.6913    0.8024 C   0  0  0  0  0  0  0  0  0  0  0  0
    8.1322    0.3492   -0.3226 C   0  0  0  0  0  0  0  0  0  0  0  0
    7.4514   -0.0174   -1.4593 C   0  0  0  0  0  0  0  0  0  0  0  0
    6.0865   -0.0464   -1.4866 C   0  0  0  0  0  0  0  0  0  0  0  0
    5.3442    0.2936   -0.3669 C   0  0  0  0  0  0  0  0  0  0  0  0
    3.8868    0.2703   -0.3702 C   0  0  0  0  0  0  0  0  0  0  0  0
    3.1599    0.8147   -1.4252 C   0  0  0  0  0  0  0  0  0  0  0  0
    1.7683    0.7956   -1.4355 C   0  0  0  0  0  0  0  0  0  0  0  0
    1.0803    0.2279   -0.3839 C   0  0  0  0  0  0  0  0  0  0  0  0
   -0.3137    0.2642   -0.5023 N   0  0  0  0  0  0  0  0  0  0  0  0
   -1.2962   -0.1938    0.1779 C   0  0  0  0  0  0  0  0  0  0  0  0
   -1.3044   -0.9691    1.4031 C   0  0  0  0  0  0  0  0  0  0  0  0
   -0.1179   -0.9426    2.2462 C   0  0  0  0  0  0  0  0  0  0  0  0
   -0.2693   -0.9138    3.5240 O   0  0  0  0  0  0  0  0  0  0  0  0
    1.2438   -0.9447    1.8444 N   0  0  0  0  0  0  0  0  0  0  0  0
    1.7846   -0.3219    0.6806 C   0  0  0  0  0  0  0  0  0  0  0  0
    3.1571   -0.2870    0.6604 C   0  0  0  0  0  0  0  0  0  0  0  0
   -2.5903    0.1402   -0.4136 C   0  0  0  0  0  0  0  0  0  0  0  0
   -2.6759    0.9056   -1.5842 C   0  0  0  0  0  0  0  0  0  0  0  0
   -3.8809    1.2281   -2.1637 C   0  0  0  0  0  0  0  0  0  0  0  0
   -5.0703    0.7986   -1.5982 C   0  0  0  0  0  0  0  0  0  0  0  0
   -5.0233    0.0459   -0.4498 C   0  0  0  0  0  0  0  0  0  0  0  0
   -3.7814   -0.2660    0.1161 C   0  0  0  0  0  0  0  0  0  0  0  0
   -6.2114   -0.4296    0.1858 N   0  0  0  0  0  0  0  0  0  0  0  0
   -6.6182   -0.2616    1.4445 C   0  0  0  0  0  0  0  0  0  0  0  0
   -7.8462   -0.9066    1.6181 C   0  0  0  0  0  0  0  0  0  0  0  0
   -8.1500   -1.4539    0.4408 N   0  0  0  0  0  0  0  0  0  0  0  0
   -7.1604   -1.1638   -0.4216 C   0  0  0  0  0  0  0  0  0  0  0  0
    7.9718    0.9771    1.6875 H   0  0  0  0  0  0  0  0  0  0  0  0
    9.2261    0.3609   -0.3376 H   0  0  0  0  0  0  0  0  0  0  0  0
    8.0134   -0.2861   -2.3432 H   0  0  0  0  0  0  0  0  0  0  0  0
    5.5659   -0.3376   -2.3906 H   0  0  0  0  0  0  0  0  0  0  0  0
    3.7171    1.2542   -2.2386 H   0  0  0  0  0  0  0  0  0  0  0  0
    1.2063    1.2149   -2.2482 H   0  0  0  0  0  0  0  0  0  0  0  0
   -1.5513   -2.0532    1.1829 H   0  0  0  0  0  0  0  0  0  0  0  0
   -2.1572   -0.6789    2.0978 H   0  0  0  0  0  0  0  0  0  0  0  0
    1.9377   -1.4446    2.4464 H   0  0  0  0  0  0  0  0  0  0  0  0
    3.6769   -0.7320    1.5195 H   0  0  0  0  0  0  0  0  0  0  0  0
   -1.7589    1.2533   -2.0455 H   0  0  0  0  0  0  0  0  0  0  0  0
   -3.9295    1.8200   -3.0678 H   0  0  0  0  0  0  0  0  0  0  0  0
   -6.0386    1.0312   -2.0233 H   0  0  0  0  0  0  0  0  0  0  0  0
   -3.8096   -0.8653    1.0177 H   0  0  0  0  0  0  0  0  0  0  0  0
   -6.0989    0.2800    2.2169 H   0  0  0  0  0  0  0  0  0  0  0  0
   -8.4402   -0.9612    2.5122 H   0  0  0  0  0  0  0  0  0  0  0  0
   -7.1615   -1.4893   -1.4439 H   0  0  0  0  0  0  0  0  0  0  0  0
  1  2  1  0
  2  3  2  0
  3  4  1  0
  4  5  2  0
  5  6  1  0
  6  7  2  0
  7  8  1  0
  8  9  2  0
  9 10  1  0
 10 11  2  0
 11 12  1  0
 12 13  2  0
 13 14  1  0
 14 15  1  0
 15 16  2  0
 15 17  1  0
 17 18  1  0
 18 19  2  0
 13 20  1  0
 20 21  2  0
 21 22  1  0
 22 23  2  0
 23 24  1  0
 24 25  2  0
 24 26  1  0
 26 27  1  0
 27 28  2  0
 28 29  1  0
 29 30  2  0
  7  2  1  0
 19  8  1  0
 25 20  1  0
 30 26  1  0
 18 11  1  0
  3 31  1  0
  4 32  1  0
  5 33  1  0
  6 34  1  0
  9 35  1  0
 10 36  1  0
 14 37  1  0
 14 38  1  0
 17 39  1  0
 19 40  1  0
 21 41  1  0
 22 42  1  0
 23 43  1  0
 25 44  1  0
 27 45  1  0
 28 46  1  0
 30 47  1  0
M  END
$$$$
[H]c1nc([H])c([H])c(-c2c([H])c([H])c([H])c(C3=Nc4c([H])c([H])c(C(F)(F)F)c([H])c4N([H])C(=O)C3([H])[H])c2[H])c1[H]
     RDKit          3D

 42 45  0  0  0  0  0  0  0  0999 V2000
    7.6567    1.2604   -0.1056 F   0  0  0  0  0  0  0  0  0  0  0  0
    7.0622    0.0065   -0.1988 C   0  0  0  0  0  0  0  0  0  0  0  0
    7.4676   -0.4867   -1.4542 F   0  0  0  0  0  0  0  0  0  0  0  0
    7.5567   -0.8873    0.7338 F   0  0  0  0  0  0  0  0  0  0  0  0
    5.5872    0.0758   -0.1928 C   0  0  0  0  0  0  0  0  0  0  0  0
    4.9356    0.3252   -1.3717 C   0  0  0  0  0  0  0  0  0  0  0  0
    3.5738    0.4026   -1.4901 C   0  0  0  0  0  0  0  0  0  0  0  0
    2.8279    0.2136   -0.3328 C   0  0  0  0  0  0  0  0  0  0  0  0
    1.4338    0.2887   -0.5486 N   0  0  0  0  0  0  0  0  0  0  0  0
    0.3839    0.1473    0.1946 C   0  0  0  0  0  0  0  0  0  0  0  0
    0.2491   -0.1578    1.6153 C   0  0  0  0  0  0  0  0  0  0  0  0
    1.4445   -0.6149    2.3223 C   0  0  0  0  0  0  0  0  0  0  0  0
    1.2662   -1.4746    3.2537 O   0  0  0  0  0  0  0  0  0  0  0  0
    2.7956   -0.2642    2.1484 N   0  0  0  0  0  0  0  0  0  0  0  0
    3.4392   -0.0411    0.8851 C   0  0  0  0  0  0  0  0  0  0  0  0
    4.8219   -0.1065    0.9383 C   0  0  0  0  0  0  0  0  0  0  0  0
   -0.8957    0.2821   -0.5409 C   0  0  0  0  0  0  0  0  0  0  0  0
   -0.8351    0.5537   -1.9101 C   0  0  0  0  0  0  0  0  0  0  0  0
   -2.0185    0.6251   -2.6000 C   0  0  0  0  0  0  0  0  0  0  0  0
   -3.2305    0.4377   -1.9771 C   0  0  0  0  0  0  0  0  0  0  0  0
   -3.3258    0.1677   -0.6218 C   0  0  0  0  0  0  0  0  0  0  0  0
   -2.1129    0.0999    0.0617 C   0  0  0  0  0  0  0  0  0  0  0  0
   -4.6031   -0.0735    0.0220 C   0  0  0  0  0  0  0  0  0  0  0  0
   -5.6561   -0.6949   -0.6206 C   0  0  0  0  0  0  0  0  0  0  0  0
   -6.8848   -0.9523   -0.0096 C   0  0  0  0  0  0  0  0  0  0  0  0
   -7.0188   -0.5610    1.2741 N   0  0  0  0  0  0  0  0  0  0  0  0
   -6.0324    0.0491    1.9477 C   0  0  0  0  0  0  0  0  0  0  0  0
   -4.8078    0.3013    1.3276 C   0  0  0  0  0  0  0  0  0  0  0  0
    5.5278    0.4602   -2.2638 H   0  0  0  0  0  0  0  0  0  0  0  0
    3.0588    0.5965   -2.4065 H   0  0  0  0  0  0  0  0  0  0  0  0
   -0.5380   -0.9345    1.8053 H   0  0  0  0  0  0  0  0  0  0  0  0
   -0.1828    0.7719    2.1067 H   0  0  0  0  0  0  0  0  0  0  0  0
    3.4200   -0.1486    2.9745 H   0  0  0  0  0  0  0  0  0  0  0  0
    5.2867   -0.2963    1.8704 H   0  0  0  0  0  0  0  0  0  0  0  0
    0.1357    0.6955   -2.3729 H   0  0  0  0  0  0  0  0  0  0  0  0
   -1.9565    0.8372   -3.6766 H   0  0  0  0  0  0  0  0  0  0  0  0
   -4.1787    0.4937   -2.5306 H   0  0  0  0  0  0  0  0  0  0  0  0
   -2.2000   -0.1046    1.1231 H   0  0  0  0  0  0  0  0  0  0  0  0
   -5.5140   -0.9915   -1.6397 H   0  0  0  0  0  0  0  0  0  0  0  0
   -7.6934   -1.4436   -0.5409 H   0  0  0  0  0  0  0  0  0  0  0  0
   -6.2049    0.3430    2.9639 H   0  0  0  0  0  0  0  0  0  0  0  0
   -4.0412    0.7992    1.8954 H   0  0  0  0  0  0  0  0  0  0  0  0
  1  2  1  0
  2  3  1  0
  2  4  1  0
  2  5  1  0
  5  6  2  0
  6  7  1  0
  7  8  2  0
  8  9  1  0
  9 10  2  0
 10 11  1  0
 11 12  1  0
 12 13  2  0
 12 14  1  0
 14 15  1  0
 15 16  2  0
 10 17  1  0
 17 18  2  0
 18 19  1  0
 19 20  2  0
 20 21  1  0
 21 22  2  0
 21 23  1  0
 23 24  2  0
 24 25  1  0
 25 26  2  0
 26 27  1  0
 27 28  2  0
 16  5  1  0
 22 17  1  0
 28 23  1  0
 15  8  1  0
  6 29  1  0
  7 30  1  0
 11 31  1  0
 11 32  1  0
 14 33  1  0
 16 34  1  0
 18 35  1  0
 19 36  1  0
 20 37  1  0
 22 38  1  0
 24 39  1  0
 25 40  1  0
 27 41  1  0
 28 42  1  0
M  END
$$$$
[H]OC(=O)C([H])(N([H])[H])[C@]1([H])[C@@]([H])(C(=O)O[H])[C@]1([H])C([H])([H])C([H])([H])C1([H])c2c([H])c([H])c([H])c([H])c2Oc2c([H])c([H])c([H])c([H])c21
     RDKit          3D

 48 51  0  0  0  0  0  0  0  0999 V2000
    4.0611    1.1937    0.0474 N   0  0  0  0  0  0  0  0  0  0  0  0
    3.9921   -0.2100    0.4048 C   0  0  0  0  0  0  0  0  0  0  0  0
    3.1236   -0.3366    1.6031 C   0  0  1  0  0  0  0  0  0  0  0  0
    1.7020    0.0938    1.5997 C   0  0  1  0  0  0  0  0  0  0  0  0
    0.9613    0.3805    0.2953 C   0  0  0  0  0  0  0  0  0  0  0  0
   -0.4034    0.7759    0.5917 C   0  0  0  0  0  0  0  0  0  0  0  0
   -1.2420    1.1381   -0.6228 C   0  0  0  0  0  0  0  0  0  0  0  0
   -2.5910    1.5169   -0.0799 C   0  0  0  0  0  0  0  0  0  0  0  0
   -2.6270    2.6017    0.8321 C   0  0  0  0  0  0  0  0  0  0  0  0
   -3.8049    2.9140    1.4576 C   0  0  0  0  0  0  0  0  0  0  0  0
   -4.9333    2.1725    1.1924 C   0  0  0  0  0  0  0  0  0  0  0  0
   -4.8985    1.1238    0.3072 C   0  0  0  0  0  0  0  0  0  0  0  0
   -3.6896    0.7907   -0.3485 C   0  0  0  0  0  0  0  0  0  0  0  0
   -3.6982   -0.2612   -1.2517 O   0  0  0  0  0  0  0  0  0  0  0  0
   -2.4876   -0.5483   -1.9029 C   0  0  0  0  0  0  0  0  0  0  0  0
   -2.5044   -1.5847   -2.8471 C   0  0  0  0  0  0  0  0  0  0  0  0
   -1.4013   -1.9463   -3.5781 C   0  0  0  0  0  0  0  0  0  0  0  0
   -0.2429   -1.2456   -3.3566 C   0  0  0  0  0  0  0  0  0  0  0  0
   -0.2314   -0.2424   -2.4363 C   0  0  0  0  0  0  0  0  0  0  0  0
   -1.3296    0.1494   -1.6707 C   0  0  0  0  0  0  0  0  0  0  0  0
    2.1330   -1.3618    1.8555 C   0  0  2  0  0  0  0  0  0  0  0  0
    1.9106   -1.8461    3.2515 C   0  0  0  0  0  0  0  0  0  0  0  0
    1.2608   -3.0339    3.5535 O   0  0  0  0  0  0  0  0  0  0  0  0
    2.3474   -1.1157    4.1779 O   0  0  0  0  0  0  0  0  0  0  0  0
    3.6700   -1.0094   -0.7505 C   0  0  0  0  0  0  0  0  0  0  0  0
    3.5199   -2.3849   -0.7964 O   0  0  0  0  0  0  0  0  0  0  0  0
    3.5017   -0.4182   -1.8490 O   0  0  0  0  0  0  0  0  0  0  0  0
    3.7699    1.3712   -0.9259 H   0  0  0  0  0  0  0  0  0  0  0  0
    3.5270    1.8176    0.6836 H   0  0  0  0  0  0  0  0  0  0  0  0
    5.0548   -0.4780    0.6935 H   0  0  0  0  0  0  0  0  0  0  0  0
    3.6710    0.0262    2.5305 H   0  0  0  0  0  0  0  0  0  0  0  0
    1.2714    0.6598    2.4485 H   0  0  0  0  0  0  0  0  0  0  0  0
    0.9778   -0.6121   -0.2364 H   0  0  0  0  0  0  0  0  0  0  0  0
    1.4681    1.1124   -0.3166 H   0  0  0  0  0  0  0  0  0  0  0  0
   -0.9673    0.0851    1.2689 H   0  0  0  0  0  0  0  0  0  0  0  0
   -0.3543    1.7304    1.2050 H   0  0  0  0  0  0  0  0  0  0  0  0
   -0.8106    2.0745   -1.0383 H   0  0  0  0  0  0  0  0  0  0  0  0
   -1.7052    3.1677    1.0049 H   0  0  0  0  0  0  0  0  0  0  0  0
   -3.8021    3.7581    2.1580 H   0  0  0  0  0  0  0  0  0  0  0  0
   -5.8468    2.4226    1.6867 H   0  0  0  0  0  0  0  0  0  0  0  0
   -5.7546    0.5144    0.0667 H   0  0  0  0  0  0  0  0  0  0  0  0
   -3.4434   -2.1284   -3.0057 H   0  0  0  0  0  0  0  0  0  0  0  0
   -1.3851   -2.7327   -4.3039 H   0  0  0  0  0  0  0  0  0  0  0  0
    0.6701   -1.4938   -3.9196 H   0  0  0  0  0  0  0  0  0  0  0  0
    0.6791    0.3194   -2.3124 H   0  0  0  0  0  0  0  0  0  0  0  0
    1.7192   -2.0617    1.1123 H   0  0  0  0  0  0  0  0  0  0  0  0
    1.5020   -3.9056    3.1164 H   0  0  0  0  0  0  0  0  0  0  0  0
    3.6609   -2.9532   -1.5952 H   0  0  0  0  0  0  0  0  0  0  0  0
  1  2  1  0
  2  3  1  0
  3  4  1  0
  4  5  1  0
  5  6  1  0
  6  7  1  0
  7  8  1  0
  8  9  2  0
  9 10  1  0
 10 11  2  0
 11 12  1  0
 12 13  2  0
 13 14  1  0
 14 15  1  0
 15 16  2  0
 16 17  1  0
 17 18  2  0
 18 19  1  0
 19 20  2  0
  4 21  1  0
 21 22  1  0
 22 23  1  0
 22 24  2  0
  2 25  1  0
 25 26  1  0
 25 27  2  0
 21  3  1  0
 20  7  1  0
 13  8  1  0
 20 15  1  0
  1 28  1  0
  1 29  1  0
  2 30  1  0
  3 31  1  1
  4 32  1  1
  5 33  1  0
  5 34  1  0
  6 35  1  0
  6 36  1  0
  7 37  1  0
  9 38  1  0
 10 39  1  0
 11 40  1  0
 12 41  1  0
 16 42  1  0
 17 43  1  0
 18 44  1  0
 19 45  1  0
 21 46  1  6
 23 47  1  0
 26 48  1  0
M  END
$$$$
[H]OC(=O)[C@]1(N([H])[H])[C@@]([H])(F)C([H])([H])[C@@]2([H])[C@]([H])(C(=O)O[H])[C@@]12[H]
     RDKit          3D

 24 25  0  0  0  0  0  0  0  0999 V2000
   -1.7396    0.6936    1.2603 N   0  0  0  0  0  0  0  0  0  0  0  0
   -1.0616    0.0758    0.1242 C   0  0  2  0  0  0  0  0  0  0  0  0
    0.3172   -0.3842    0.4729 C   0  0  1  0  0  0  0  0  0  0  0  0
    1.1269   -0.1096   -0.7292 C   0  0  1  0  0  0  0  0  0  0  0  0
    0.3192    0.7282   -1.6722 C   0  0  0  0  0  0  0  0  0  0  0  0
   -0.9523    1.0909   -0.9756 C   0  0  2  0  0  0  0  0  0  0  0  0
   -0.9871    2.3765   -0.5088 F   0  0  0  0  0  0  0  0  0  0  0  0
    1.4658    0.5313    0.5736 C   0  0  2  0  0  0  0  0  0  0  0  0
    2.6768   -0.0430    1.2394 C   0  0  0  0  0  0  0  0  0  0  0  0
    2.9346   -1.4133    1.1244 O   0  0  0  0  0  0  0  0  0  0  0  0
    3.4559    0.6763    1.8917 O   0  0  0  0  0  0  0  0  0  0  0  0
   -1.8300   -1.0988   -0.3513 C   0  0  0  0  0  0  0  0  0  0  0  0
   -3.0006   -1.4586    0.2690 O   0  0  0  0  0  0  0  0  0  0  0  0
   -1.4045   -1.7602   -1.3217 O   0  0  0  0  0  0  0  0  0  0  0  0
   -1.1429    0.6446    2.1333 H   0  0  0  0  0  0  0  0  0  0  0  0
   -2.6561    0.2096    1.4561 H   0  0  0  0  0  0  0  0  0  0  0  0
    0.3636   -1.3772    0.9518 H   0  0  0  0  0  0  0  0  0  0  0  0
    1.7492   -0.9409   -1.1286 H   0  0  0  0  0  0  0  0  0  0  0  0
    0.8885    1.6723   -1.8449 H   0  0  0  0  0  0  0  0  0  0  0  0
    0.1354    0.2418   -2.6417 H   0  0  0  0  0  0  0  0  0  0  0  0
   -1.7948    0.9102   -1.6866 H   0  0  0  0  0  0  0  0  0  0  0  0
    1.3365    1.6233    0.7145 H   0  0  0  0  0  0  0  0  0  0  0  0
    3.6315   -1.7541    0.4806 H   0  0  0  0  0  0  0  0  0  0  0  0
   -3.8316   -0.8910    0.1688 H   0  0  0  0  0  0  0  0  0  0  0  0
  1  2  1  0
  2  3  1  0
  3  4  1  0
  4  5  1  0
  5  6  1  0
  6  7  1  0
  4  8  1  0
  8  9  1  0
  9 10  1  0
  9 11  2  0
  2 12  1  6
 12 13  1  0
 12 14  2  0
  6  2  1  0
  8  3  1  0
  1 15  1  0
  1 16  1  0
  3 17  1  1
  4 18  1  6
  5 19  1  0
  5 20  1  0
  6 21  1  6
  8 22  1  6
 10 23  1  0
 13 24  1  0
M  END
$$$$
[H]OC(=O)[C@@]1(F)[C@]2([H])C([H])([H])[C@@]([H])(OC([H])([H])c3c([H])c([H])c(Cl)c(Cl)c3[H])[C@](C(=O)O[H])(N([H])[H])[C@]12[H]
     RDKit          3D

 38 40  0  0  0  0  0  0  0  0999 V2000
   -2.0434   -0.3592   -1.5770 N   0  0  0  0  0  0  0  0  0  0  0  0
   -1.6382   -0.7176   -0.2308 C   0  0  2  0  0  0  0  0  0  0  0  0
   -2.4189    0.1661    0.7163 C   0  0  1  0  0  0  0  0  0  0  0  0
   -1.5135    1.2725    1.1410 C   0  0  1  0  0  0  0  0  0  0  0  0
   -0.2532    1.0810    0.3242 C   0  0  0  0  0  0  0  0  0  0  0  0
   -0.1811   -0.3750   -0.0286 C   0  0  1  0  0  0  0  0  0  0  0  0
    0.4893   -1.1656    0.8153 O   0  0  0  0  0  0  0  0  0  0  0  0
    1.5590   -1.8818    0.4381 C   0  0  0  0  0  0  0  0  0  0  0  0
    2.6382   -0.9743   -0.0424 C   0  0  0  0  0  0  0  0  0  0  0  0
    2.8896   -0.7513   -1.3747 C   0  0  0  0  0  0  0  0  0  0  0  0
    3.8938    0.0927   -1.7734 C   0  0  0  0  0  0  0  0  0  0  0  0
    4.6765    0.7386   -0.8426 C   0  0  0  0  0  0  0  0  0  0  0  0
    5.9680    1.8243   -1.3762 Cl  0  0  0  0  0  0  0  0  0  0  0  0
    4.4385    0.5269    0.4927 C   0  0  0  0  0  0  0  0  0  0  0  0
    5.4560    1.3672    1.6402 Cl  0  0  0  0  0  0  0  0  0  0  0  0
    3.4276   -0.3226    0.8795 C   0  0  0  0  0  0  0  0  0  0  0  0
   -2.7888    1.5377    0.3673 C   0  0  1  0  0  0  0  0  0  0  0  0
   -2.5669    2.0233   -0.9086 F   0  0  0  0  0  0  0  0  0  0  0  0
   -3.8417    2.1984    1.1499 C   0  0  0  0  0  0  0  0  0  0  0  0
   -4.5794    3.2575    0.6382 O   0  0  0  0  0  0  0  0  0  0  0  0
   -4.1087    1.8202    2.3190 O   0  0  0  0  0  0  0  0  0  0  0  0
   -1.9467   -2.1171    0.0367 C   0  0  0  0  0  0  0  0  0  0  0  0
   -2.5415   -2.8993   -0.9287 O   0  0  0  0  0  0  0  0  0  0  0  0
   -1.6684   -2.6108    1.1526 O   0  0  0  0  0  0  0  0  0  0  0  0
   -3.0845   -0.4166   -1.6553 H   0  0  0  0  0  0  0  0  0  0  0  0
   -1.6817   -1.0644   -2.2810 H   0  0  0  0  0  0  0  0  0  0  0  0
   -3.0056   -0.3547    1.5099 H   0  0  0  0  0  0  0  0  0  0  0  0
   -1.4345    1.5931    2.1871 H   0  0  0  0  0  0  0  0  0  0  0  0
    0.6395    1.4763    0.8099 H   0  0  0  0  0  0  0  0  0  0  0  0
   -0.4047    1.6710   -0.6146 H   0  0  0  0  0  0  0  0  0  0  0  0
    0.2867   -0.4338   -1.0332 H   0  0  0  0  0  0  0  0  0  0  0  0
    1.9312   -2.6292    1.1517 H   0  0  0  0  0  0  0  0  0  0  0  0
    1.2638   -2.4883   -0.4713 H   0  0  0  0  0  0  0  0  0  0  0  0
    2.2991   -1.2382   -2.1320 H   0  0  0  0  0  0  0  0  0  0  0  0
    4.1058    0.2802   -2.8373 H   0  0  0  0  0  0  0  0  0  0  0  0
    3.2823   -0.4544    1.9603 H   0  0  0  0  0  0  0  0  0  0  0  0
   -4.6452    4.1589    1.0965 H   0  0  0  0  0  0  0  0  0  0  0  0
   -2.8983   -3.8315   -0.7185 H   0  0  0  0  0  0  0  0  0  0  0  0
  1  2  1  0
  2  3  1  0
  3  4  1  0
  4  5  1  0
  5  6  1  0
  6  7  1  0
  7  8  1  0
  8  9  1  0
  9 10  2  0
 10 11  1  0
 11 12  2  0
 12 13  1  0
 12 14  1  0
 14 15  1  0
 14 16  2  0
  4 17  1  0
 17 18  1  6
 17 19  1  0
 19 20  1  0
 19 21  2  0
  2 22  1  1
 22 23  1  0
 22 24  2  0
  6  2  1  0
 16  9  1  0
 17  3  1  0
  1 25  1  0
  1 26  1  0
  3 27  1  1
  4 28  1  1
  5 29  1  0
  5 30  1  0
  6 31  1  6
  8 32  1  0
  8 33  1  0
 10 34  1  0
 11 35  1  0
 16 36  1  0
 20 37  1  0
 23 38  1  0
M  END
$$$$
[H]OC(=O)[C@@]1(F)[C@]2([H])C([H])([H])[C@@]([H])(OC([H])(c3c([H])c([H])c([H])c([H])c3[H])c3c([H])c([H])c([H])c([H])c3[H])[C@](C(=O)O[H])(N([H])[H])[C@]12[H]
     RDKit          3D

 48 51  0  0  0  0  0  0  0  0999 V2000
    1.8084    2.2589   -0.1735 N   0  0  0  0  0  0  0  0  0  0  0  0
    1.9723    0.9461    0.4235 C   0  0  2  0  0  0  0  0  0  0  0  0
    3.3899    0.4702    0.3949 C   0  0  1  0  0  0  0  0  0  0  0  0
    3.2871   -0.9954    0.3191 C   0  0  1  0  0  0  0  0  0  0  0  0
    1.8824   -1.3826    0.0000 C   0  0  0  0  0  0  0  0  0  0  0  0
    1.1295   -0.1024   -0.2515 C   0  0  1  0  0  0  0  0  0  0  0  0
   -0.1163   -0.1730    0.4035 O   0  0  0  0  0  0  0  0  0  0  0  0
   -1.1655   -0.0014   -0.4934 C   0  0  0  0  0  0  0  0  0  0  0  0
   -2.0682    1.1171   -0.1565 C   0  0  0  0  0  0  0  0  0  0  0  0
   -2.5115    1.9654   -1.1487 C   0  0  0  0  0  0  0  0  0  0  0  0
   -3.3614    3.0278   -0.8421 C   0  0  0  0  0  0  0  0  0  0  0  0
   -3.7737    3.2478    0.4639 C   0  0  0  0  0  0  0  0  0  0  0  0
   -3.3380    2.4130    1.4434 C   0  0  0  0  0  0  0  0  0  0  0  0
   -2.4982    1.3677    1.1233 C   0  0  0  0  0  0  0  0  0  0  0  0
   -1.9556   -1.2542   -0.5490 C   0  0  0  0  0  0  0  0  0  0  0  0
   -2.4147   -1.7659   -1.7680 C   0  0  0  0  0  0  0  0  0  0  0  0
   -3.1401   -2.9263   -1.8116 C   0  0  0  0  0  0  0  0  0  0  0  0
   -3.4250   -3.6029   -0.6467 C   0  0  0  0  0  0  0  0  0  0  0  0
   -2.9984   -3.1430    0.5692 C   0  0  0  0  0  0  0  0  0  0  0  0
   -2.2613   -1.9583    0.5832 C   0  0  0  0  0  0  0  0  0  0  0  0
    3.9767   -0.2063   -0.7803 C   0  0  1  0  0  0  0  0  0  0  0  0
    3.3559   -0.1377   -2.0132 F   0  0  0  0  0  0  0  0  0  0  0  0
    5.4446   -0.3511   -0.7774 C   0  0  0  0  0  0  0  0  0  0  0  0
    6.1277   -0.4112   -1.9731 O   0  0  0  0  0  0  0  0  0  0  0  0
    6.0831   -0.4204    0.2937 O   0  0  0  0  0  0  0  0  0  0  0  0
    1.5480    1.0178    1.8417 C   0  0  0  0  0  0  0  0  0  0  0  0
    1.6240   -0.1350    2.6028 O   0  0  0  0  0  0  0  0  0  0  0  0
    1.1339    2.0751    2.3463 O   0  0  0  0  0  0  0  0  0  0  0  0
    1.5459    2.2063   -1.1860 H   0  0  0  0  0  0  0  0  0  0  0  0
    1.0689    2.7867    0.3743 H   0  0  0  0  0  0  0  0  0  0  0  0
    4.0679    0.9557    1.1290 H   0  0  0  0  0  0  0  0  0  0  0  0
    3.8977   -1.5682    1.0313 H   0  0  0  0  0  0  0  0  0  0  0  0
    1.4058   -2.0038    0.7831 H   0  0  0  0  0  0  0  0  0  0  0  0
    1.8927   -1.9964   -0.9246 H   0  0  0  0  0  0  0  0  0  0  0  0
    0.9714    0.0728   -1.3235 H   0  0  0  0  0  0  0  0  0  0  0  0
   -0.7752    0.1531   -1.5292 H   0  0  0  0  0  0  0  0  0  0  0  0
   -2.2233    1.8416   -2.1790 H   0  0  0  0  0  0  0  0  0  0  0  0
   -3.7294    3.7134   -1.5925 H   0  0  0  0  0  0  0  0  0  0  0  0
   -4.4380    4.0746    0.7178 H   0  0  0  0  0  0  0  0  0  0  0  0
   -3.6312    2.5436    2.4733 H   0  0  0  0  0  0  0  0  0  0  0  0
   -2.1704    0.7299    1.9163 H   0  0  0  0  0  0  0  0  0  0  0  0
   -2.1703   -1.2036   -2.6706 H   0  0  0  0  0  0  0  0  0  0  0  0
   -3.4978   -3.3251   -2.7610 H   0  0  0  0  0  0  0  0  0  0  0  0
   -4.0089   -4.5254   -0.7436 H   0  0  0  0  0  0  0  0  0  0  0  0
   -3.2210   -3.6727    1.4847 H   0  0  0  0  0  0  0  0  0  0  0  0
   -1.9255   -1.6031    1.5430 H   0  0  0  0  0  0  0  0  0  0  0  0
    6.7234    0.3779   -2.2605 H   0  0  0  0  0  0  0  0  0  0  0  0
    2.4820   -0.4972    2.9749 H   0  0  0  0  0  0  0  0  0  0  0  0
  1  2  1  0
  2  3  1  0
  3  4  1  0
  4  5  1  0
  5  6  1  0
  6  7  1  0
  7  8  1  0
  8  9  1  0
  9 10  2  0
 10 11  1  0
 11 12  2  0
 12 13  1  0
 13 14  2  0
  8 15  1  0
 15 16  2  0
 16 17  1  0
 17 18  2  0
 18 19  1  0
 19 20  2  0
  4 21  1  0
 21 22  1  6
 21 23  1  0
 23 24  1  0
 23 25  2  0
  2 26  1  1
 26 27  1  0
 26 28  2  0
  6  2  1  0
 14  9  1  0
 20 15  1  0
 21  3  1  0
  1 29  1  0
  1 30  1  0
  3 31  1  1
  4 32  1  1
  5 33  1  0
  5 34  1  0
  6 35  1  6
  8 36  1  0
 10 37  1  0
 11 38  1  0
 12 39  1  0
 13 40  1  0
 14 41  1  0
 16 42  1  0
 17 43  1  0
 18 44  1  0
 19 45  1  0
 20 46  1  0
 24 47  1  0
 27 48  1  0
M  END
$$$$
[H]OC(=O)C(N([H])[H])(C([H])([H])C1([H])c2c([H])c([H])c([H])c([H])c2Oc2c([H])c([H])c([H])c([H])c21)[C@]1([H])[C@@]([H])(C(=O)O[H])[C@@]1([H])C([H])([H])C([H])([H])[H]
     RDKit          3D

 51 54  0  0  0  0  0  0  0  0999 V2000
    5.1028   -1.5567   -0.1685 C   0  0  0  0  0  0  0  0  0  0  0  0
    3.9460   -1.0595   -0.9647 C   0  0  0  0  0  0  0  0  0  0  0  0
    3.0452   -0.0990   -0.3003 C   0  0  2  0  0  0  0  0  0  0  0  0
    2.2653   -0.3429    0.9269 C   0  0  1  0  0  0  0  0  0  0  0  0
    1.5354   -0.5065   -0.3162 C   0  0  1  0  0  0  0  0  0  0  0  0
    0.7478    0.4428   -1.0888 C   0  0  0  0  0  0  0  0  0  0  0  0
    0.9481    1.8067   -0.4666 N   0  0  0  0  0  0  0  0  0  0  0  0
   -0.7022    0.2918   -1.3882 C   0  0  0  0  0  0  0  0  0  0  0  0
   -1.7308    0.2426   -0.3779 C   0  0  0  0  0  0  0  0  0  0  0  0
   -1.9605   -0.7758    0.6186 C   0  0  0  0  0  0  0  0  0  0  0  0
   -1.2710   -1.9803    0.6565 C   0  0  0  0  0  0  0  0  0  0  0  0
   -1.3758   -2.8442    1.7097 C   0  0  0  0  0  0  0  0  0  0  0  0
   -2.1717   -2.5724    2.7894 C   0  0  0  0  0  0  0  0  0  0  0  0
   -2.8615   -1.3973    2.7595 C   0  0  0  0  0  0  0  0  0  0  0  0
   -2.7812   -0.4831    1.6873 C   0  0  0  0  0  0  0  0  0  0  0  0
   -3.5911    0.6445    1.7921 O   0  0  0  0  0  0  0  0  0  0  0  0
   -3.5726    1.5268    0.7186 C   0  0  0  0  0  0  0  0  0  0  0  0
   -4.4042    2.6491    0.7591 C   0  0  0  0  0  0  0  0  0  0  0  0
   -4.4832    3.5510   -0.2580 C   0  0  0  0  0  0  0  0  0  0  0  0
   -3.7087    3.3319   -1.3580 C   0  0  0  0  0  0  0  0  0  0  0  0
   -2.8805    2.2314   -1.4109 C   0  0  0  0  0  0  0  0  0  0  0  0
   -2.7835    1.3115   -0.3892 C   0  0  0  0  0  0  0  0  0  0  0  0
    1.4697    0.5974   -2.4175 C   0  0  0  0  0  0  0  0  0  0  0  0
    2.0979    1.7308   -2.8244 O   0  0  0  0  0  0  0  0  0  0  0  0
    1.4658   -0.4117   -3.1667 O   0  0  0  0  0  0  0  0  0  0  0  0
    2.4461   -1.5757    1.7517 C   0  0  0  0  0  0  0  0  0  0  0  0
    2.5881   -2.7928    1.0799 O   0  0  0  0  0  0  0  0  0  0  0  0
    2.4691   -1.5262    2.9983 O   0  0  0  0  0  0  0  0  0  0  0  0
    5.0505   -1.2766    0.9036 H   0  0  0  0  0  0  0  0  0  0  0  0
    6.0290   -1.0838   -0.5558 H   0  0  0  0  0  0  0  0  0  0  0  0
    5.2758   -2.6632   -0.2787 H   0  0  0  0  0  0  0  0  0  0  0  0
    4.3254   -0.6105   -1.9283 H   0  0  0  0  0  0  0  0  0  0  0  0
    3.4021   -1.9836   -1.3301 H   0  0  0  0  0  0  0  0  0  0  0  0
    3.2747    0.9743   -0.5145 H   0  0  0  0  0  0  0  0  0  0  0  0
    2.1256    0.5590    1.5981 H   0  0  0  0  0  0  0  0  0  0  0  0
    1.4148   -1.5811   -0.6993 H   0  0  0  0  0  0  0  0  0  0  0  0
    0.1766    2.3726   -0.8563 H   0  0  0  0  0  0  0  0  0  0  0  0
    0.8354    1.7064    0.5436 H   0  0  0  0  0  0  0  0  0  0  0  0
   -0.7734   -0.5640   -2.1501 H   0  0  0  0  0  0  0  0  0  0  0  0
   -0.9202    1.1594   -2.0844 H   0  0  0  0  0  0  0  0  0  0  0  0
   -1.0126    0.9631    0.4640 H   0  0  0  0  0  0  0  0  0  0  0  0
   -0.6952   -2.2664   -0.2054 H   0  0  0  0  0  0  0  0  0  0  0  0
   -0.8161   -3.7716    1.6962 H   0  0  0  0  0  0  0  0  0  0  0  0
   -2.2274   -3.2662    3.5976 H   0  0  0  0  0  0  0  0  0  0  0  0
   -3.5173   -1.1339    3.6051 H   0  0  0  0  0  0  0  0  0  0  0  0
   -4.9989    2.7756    1.6560 H   0  0  0  0  0  0  0  0  0  0  0  0
   -5.1512    4.4340   -0.2002 H   0  0  0  0  0  0  0  0  0  0  0  0
   -3.7671    4.0489   -2.1833 H   0  0  0  0  0  0  0  0  0  0  0  0
   -2.3202    2.1487   -2.3611 H   0  0  0  0  0  0  0  0  0  0  0  0
    1.7866    2.3032   -3.5882 H   0  0  0  0  0  0  0  0  0  0  0  0
    2.6543   -3.6791    1.5199 H   0  0  0  0  0  0  0  0  0  0  0  0
  1  2  1  0
  2  3  1  0
  3  4  1  0
  4  5  1  0
  5  6  1  0
  6  7  1  0
  6  8  1  0
  8  9  1  0
  9 10  1  0
 10 11  2  0
 11 12  1  0
 12 13  2  0
 13 14  1  0
 14 15  2  0
 15 16  1  0
 16 17  1  0
 17 18  2  0
 18 19  1  0
 19 20  2  0
 20 21  1  0
 21 22  2  0
  6 23  1  0
 23 24  1  0
 23 25  2  0
  4 26  1  0
 26 27  1  0
 26 28  2  0
  5  3  1  0
 22  9  1  0
 15 10  1  0
 22 17  1  0
  1 29  1  0
  1 30  1  0
  1 31  1  0
  2 32  1  0
  2 33  1  0
  3 34  1  1
  4 35  1  1
  5 36  1  6
  7 37  1  0
  7 38  1  0
  8 39  1  0
  8 40  1  0
  9 41  1  0
 11 42  1  0
 12 43  1  0
 13 44  1  0
 14 45  1  0
 18 46  1  0
 19 47  1  0
 20 48  1  0
 21 49  1  0
 24 50  1  0
 27 51  1  0
M  END
$$$$
[H]c1nc(C#N)c([H])c(C2=Nc3c([H])c([H])c(Br)c([H])c3N([H])C(=O)C2([H])[H])c1[H]
     RDKit          3D

 30 32  0  0  0  0  0  0  0  0999 V2000
   -5.8641    2.2596   -0.6361 Br  0  0  0  0  0  0  0  0  0  0  0  0
   -4.0618    1.6649   -0.4686 C   0  0  0  0  0  0  0  0  0  0  0  0
   -3.0088    2.4570   -0.8797 C   0  0  0  0  0  0  0  0  0  0  0  0
   -1.7321    1.9729   -0.7330 C   0  0  0  0  0  0  0  0  0  0  0  0
   -1.5049    0.7054   -0.1794 C   0  0  0  0  0  0  0  0  0  0  0  0
   -0.1340    0.3972   -0.1157 N   0  0  0  0  0  0  0  0  0  0  0  0
    0.5071   -0.6573    0.1538 C   0  0  0  0  0  0  0  0  0  0  0  0
    0.0722   -1.9913    0.5108 C   0  0  0  0  0  0  0  0  0  0  0  0
   -1.3320   -2.1905    0.8549 C   0  0  0  0  0  0  0  0  0  0  0  0
   -1.5355   -3.3782    1.3030 O   0  0  0  0  0  0  0  0  0  0  0  0
   -2.4829   -1.3593    0.7950 N   0  0  0  0  0  0  0  0  0  0  0  0
   -2.5956   -0.0543    0.2192 C   0  0  0  0  0  0  0  0  0  0  0  0
   -3.8632    0.4101    0.0809 C   0  0  0  0  0  0  0  0  0  0  0  0
    1.9693   -0.4710    0.0850 C   0  0  0  0  0  0  0  0  0  0  0  0
    2.8058   -1.5286    0.3353 C   0  0  0  0  0  0  0  0  0  0  0  0
    4.1759   -1.3146    0.2645 C   0  0  0  0  0  0  0  0  0  0  0  0
    4.6905   -0.1048   -0.0410 N   0  0  0  0  0  0  0  0  0  0  0  0
    3.8916    0.9491   -0.2910 C   0  0  0  0  0  0  0  0  0  0  0  0
    2.5358    0.7507   -0.2242 C   0  0  0  0  0  0  0  0  0  0  0  0
    4.4420    2.2416   -0.6175 C   0  0  0  0  0  0  0  0  0  0  0  0
    4.8842    3.2927   -0.8794 N   0  0  0  0  0  0  0  0  0  0  0  0
   -3.1740    3.4369   -1.3083 H   0  0  0  0  0  0  0  0  0  0  0  0
   -0.9116    2.5922   -1.0542 H   0  0  0  0  0  0  0  0  0  0  0  0
    0.6518   -2.4110    1.3932 H   0  0  0  0  0  0  0  0  0  0  0  0
    0.3968   -2.6752   -0.3360 H   0  0  0  0  0  0  0  0  0  0  0  0
   -3.3645   -1.7133    1.2101 H   0  0  0  0  0  0  0  0  0  0  0  0
   -4.6849   -0.2229    0.4083 H   0  0  0  0  0  0  0  0  0  0  0  0
    2.4860   -2.5291    0.5841 H   0  0  0  0  0  0  0  0  0  0  0  0
    4.8919   -2.1139    0.4527 H   0  0  0  0  0  0  0  0  0  0  0  0
    1.8491    1.5850   -0.4213 H   0  0  0  0  0  0  0  0  0  0  0  0
  1  2  1  0
  2  3  2  0
  3  4  1  0
  4  5  2  0
  5  6  1  0
  6  7  2  0
  7  8  1  0
  8  9  1  0
  9 10  2  0
  9 11  1  0
 11 12  1  0
 12 13  2  0
  7 14  1  0
 14 15  2  0
 15 16  1  0
 16 17  2  0
 17 18  1  0
 18 19  2  0
 18 20  1  0
 20 21  3  0
 13  2  1  0
 19 14  1  0
 12  5  1  0
  3 22  1  0
  4 23  1  0
  8 24  1  0
  8 25  1  0
 11 26  1  0
 13 27  1  0
 15 28  1  0
 16 29  1  0
 19 30  1  0
M  END
$$$$
[H]c1nc([H])c([H])c(-c2c([H])c([H])c([H])c(C3=Nc4c([H])c(OC([H])([H])C([H])([H])[H])c(C(F)(F)F)c([H])c4N([H])C(=O)C3([H])[H])c2[H])c1[H]
     RDKit          3D

 49 52  0  0  0  0  0  0  0  0999 V2000
    3.6737    4.2668    0.1938 C   0  0  0  0  0  0  0  0  0  0  0  0
    2.9053    2.9680    0.1735 C   0  0  0  0  0  0  0  0  0  0  0  0
    3.7612    1.8726    0.4750 O   0  0  0  0  0  0  0  0  0  0  0  0
    3.3012    0.5672    0.5207 C   0  0  0  0  0  0  0  0  0  0  0  0
    1.9757    0.2643    0.2728 C   0  0  0  0  0  0  0  0  0  0  0  0
    1.5209   -1.0500    0.3205 C   0  0  0  0  0  0  0  0  0  0  0  0
    0.1542   -1.1285    0.0389 N   0  0  0  0  0  0  0  0  0  0  0  0
   -0.5695   -2.1894   -0.0778 C   0  0  0  0  0  0  0  0  0  0  0  0
   -0.3335   -3.6150    0.0168 C   0  0  0  0  0  0  0  0  0  0  0  0
    0.9971   -4.0861    0.3302 C   0  0  0  0  0  0  0  0  0  0  0  0
    1.1368   -5.3383    0.2416 O   0  0  0  0  0  0  0  0  0  0  0  0
    2.2035   -3.4203    0.7248 N   0  0  0  0  0  0  0  0  0  0  0  0
    2.4561   -2.0275    0.6259 C   0  0  0  0  0  0  0  0  0  0  0  0
    3.7737   -1.7205    0.8717 C   0  0  0  0  0  0  0  0  0  0  0  0
    4.2291   -0.4061    0.8241 C   0  0  0  0  0  0  0  0  0  0  0  0
    5.6552   -0.0549    1.0874 C   0  0  0  0  0  0  0  0  0  0  0  0
    6.3804   -1.1963    1.3659 F   0  0  0  0  0  0  0  0  0  0  0  0
    5.7871    0.8126    2.1451 F   0  0  0  0  0  0  0  0  0  0  0  0
    6.1807    0.4685   -0.0832 F   0  0  0  0  0  0  0  0  0  0  0  0
   -1.9726   -1.8594   -0.3797 C   0  0  0  0  0  0  0  0  0  0  0  0
   -2.9427   -2.8402   -0.5502 C   0  0  0  0  0  0  0  0  0  0  0  0
   -4.2477   -2.4995   -0.8320 C   0  0  0  0  0  0  0  0  0  0  0  0
   -4.6386   -1.1648   -0.9555 C   0  0  0  0  0  0  0  0  0  0  0  0
   -3.6837   -0.1821   -0.7883 C   0  0  0  0  0  0  0  0  0  0  0  0
   -2.3822   -0.5396   -0.5066 C   0  0  0  0  0  0  0  0  0  0  0  0
   -4.0296    1.2358   -0.9048 C   0  0  0  0  0  0  0  0  0  0  0  0
   -3.1419    2.1868   -1.3630 C   0  0  0  0  0  0  0  0  0  0  0  0
   -3.4620    3.5239   -1.4747 C   0  0  0  0  0  0  0  0  0  0  0  0
   -4.7033    3.8970   -1.1146 N   0  0  0  0  0  0  0  0  0  0  0  0
   -5.6055    3.0086   -0.6618 C   0  0  0  0  0  0  0  0  0  0  0  0
   -5.2917    1.6707   -0.5479 C   0  0  0  0  0  0  0  0  0  0  0  0
    3.0241    5.1391    0.3294 H   0  0  0  0  0  0  0  0  0  0  0  0
    4.4596    4.2505    0.9635 H   0  0  0  0  0  0  0  0  0  0  0  0
    4.2079    4.3659   -0.7968 H   0  0  0  0  0  0  0  0  0  0  0  0
    2.4336    2.7963   -0.8101 H   0  0  0  0  0  0  0  0  0  0  0  0
    2.1630    3.0132    1.0028 H   0  0  0  0  0  0  0  0  0  0  0  0
    1.2809    1.0530    0.0391 H   0  0  0  0  0  0  0  0  0  0  0  0
   -1.0340   -4.0284    0.8010 H   0  0  0  0  0  0  0  0  0  0  0  0
   -0.6665   -4.0989   -0.9331 H   0  0  0  0  0  0  0  0  0  0  0  0
    2.9784   -4.0016    1.1244 H   0  0  0  0  0  0  0  0  0  0  0  0
    4.5124   -2.4848    1.1122 H   0  0  0  0  0  0  0  0  0  0  0  0
   -2.6319   -3.8707   -0.4530 H   0  0  0  0  0  0  0  0  0  0  0  0
   -4.9858   -3.2819   -0.9606 H   0  0  0  0  0  0  0  0  0  0  0  0
   -5.6741   -0.9091   -1.1787 H   0  0  0  0  0  0  0  0  0  0  0  0
   -1.6565    0.2522   -0.3808 H   0  0  0  0  0  0  0  0  0  0  0  0
   -2.1519    1.8156   -1.6381 H   0  0  0  0  0  0  0  0  0  0  0  0
   -2.7114    4.2002   -1.8410 H   0  0  0  0  0  0  0  0  0  0  0  0
   -6.6011    3.3865   -0.3856 H   0  0  0  0  0  0  0  0  0  0  0  0
   -6.0345    0.9783   -0.1816 H   0  0  0  0  0  0  0  0  0  0  0  0
  1  2  1  0
  2  3  1  0
  3  4  1  0
  4  5  2  0
  5  6  1  0
  6  7  1  0
  7  8  2  0
  8  9  1  0
  9 10  1  0
 10 11  2  0
 10 12  1  0
 12 13  1  0
 13 14  1  0
 14 15  2  0
 15 16  1  0
 16 17  1  0
 16 18  1  0
 16 19  1  0
  8 20  1  0
 20 21  2  0
 21 22  1  0
 22 23  2  0
 23 24  1  0
 24 25  2  0
 24 26  1  0
 26 27  2  0
 27 28  1  0
 28 29  2  0
 29 30  1  0
 30 31  2  0
 15  4  1  0
 25 20  1  0
 31 26  1  0
 13  6  2  0
  1 32  1  0
  1 33  1  0
  1 34  1  0
  2 35  1  0
  2 36  1  0
  5 37  1  0
  9 38  1  0
  9 39  1  0
 12 40  1  0
 14 41  1  0
 21 42  1  0
 22 43  1  0
 23 44  1  0
 25 45  1  0
 27 46  1  0
 28 47  1  0
 30 48  1  0
 31 49  1  0
M  END
$$$$
[H]c1nc([H])c(-c2c([H])c([H])c3c(=O)n(C([H])([H])[H])c4c([H])c(-c5c([H])c([H])c([H])c([H])c5[H])nn4c3c2[H])c([H])n1
     RDKit          3D

 42 46  0  0  0  0  0  0  0  0999 V2000
   -1.2695    4.2438    0.0174 C   0  0  0  0  0  0  0  0  0  0  0  0
   -0.4533    3.0457    0.0160 N   0  0  0  0  0  0  0  0  0  0  0  0
   -0.9857    1.8003    0.0592 C   0  0  0  0  0  0  0  0  0  0  0  0
   -2.3005    1.3989    0.1115 C   0  0  0  0  0  0  0  0  0  0  0  0
   -2.3737    0.0142    0.1398 C   0  0  0  0  0  0  0  0  0  0  0  0
   -1.0928   -0.3852    0.1037 N   0  0  0  0  0  0  0  0  0  0  0  0
   -0.2726    0.6761    0.0561 N   0  0  0  0  0  0  0  0  0  0  0  0
    1.0812    0.7726    0.0067 C   0  0  0  0  0  0  0  0  0  0  0  0
    1.8672   -0.3678   -0.0032 C   0  0  0  0  0  0  0  0  0  0  0  0
    3.2454   -0.3076   -0.0579 C   0  0  0  0  0  0  0  0  0  0  0  0
    3.7950    0.9720   -0.1021 C   0  0  0  0  0  0  0  0  0  0  0  0
    3.0699    2.1189   -0.0945 C   0  0  0  0  0  0  0  0  0  0  0  0
    1.6798    1.9963   -0.0385 C   0  0  0  0  0  0  0  0  0  0  0  0
    0.8776    3.1305   -0.0326 C   0  0  0  0  0  0  0  0  0  0  0  0
    1.4711    4.2570   -0.0758 O   0  0  0  0  0  0  0  0  0  0  0  0
    4.0888   -1.4823   -0.0778 C   0  0  0  0  0  0  0  0  0  0  0  0
    3.7785   -2.6628    0.5543 C   0  0  0  0  0  0  0  0  0  0  0  0
    4.5994   -3.7278    0.5014 N   0  0  0  0  0  0  0  0  0  0  0  0
    5.7496   -3.6979   -0.1610 C   0  0  0  0  0  0  0  0  0  0  0  0
    6.0964   -2.5617   -0.7970 N   0  0  0  0  0  0  0  0  0  0  0  0
    5.3059   -1.4829   -0.7668 C   0  0  0  0  0  0  0  0  0  0  0  0
   -3.5999   -0.7942    0.1995 C   0  0  0  0  0  0  0  0  0  0  0  0
   -3.5623   -2.1654    0.2346 C   0  0  0  0  0  0  0  0  0  0  0  0
   -4.7416   -2.9131    0.2892 C   0  0  0  0  0  0  0  0  0  0  0  0
   -5.9851   -2.3051    0.3099 C   0  0  0  0  0  0  0  0  0  0  0  0
   -6.0155   -0.9260    0.2738 C   0  0  0  0  0  0  0  0  0  0  0  0
   -4.8466   -0.1876    0.2201 C   0  0  0  0  0  0  0  0  0  0  0  0
   -2.2953    4.0095    0.3937 H   0  0  0  0  0  0  0  0  0  0  0  0
   -0.8522    5.0039    0.7043 H   0  0  0  0  0  0  0  0  0  0  0  0
   -1.4190    4.6347   -1.0297 H   0  0  0  0  0  0  0  0  0  0  0  0
   -3.1730    2.0296    0.1303 H   0  0  0  0  0  0  0  0  0  0  0  0
    1.3770   -1.3221    0.0337 H   0  0  0  0  0  0  0  0  0  0  0  0
    4.8657    1.0323   -0.1456 H   0  0  0  0  0  0  0  0  0  0  0  0
    3.4864    3.1153   -0.1280 H   0  0  0  0  0  0  0  0  0  0  0  0
    2.8576   -2.7506    1.1095 H   0  0  0  0  0  0  0  0  0  0  0  0
    6.4139   -4.5503   -0.2087 H   0  0  0  0  0  0  0  0  0  0  0  0
    5.6074   -0.5847   -1.2831 H   0  0  0  0  0  0  0  0  0  0  0  0
   -2.5977   -2.6566    0.2180 H   0  0  0  0  0  0  0  0  0  0  0  0
   -4.7173   -4.0001    0.3186 H   0  0  0  0  0  0  0  0  0  0  0  0
   -6.9040   -2.8801    0.3540 H   0  0  0  0  0  0  0  0  0  0  0  0
   -6.9829   -0.4400    0.2895 H   0  0  0  0  0  0  0  0  0  0  0  0
   -4.8732    0.9003    0.1898 H   0  0  0  0  0  0  0  0  0  0  0  0
  1  2  1  0
  2  3  1  0
  3  4  2  0
  4  5  1  0
  5  6  2  0
  6  7  1  0
  7  8  1  0
  8  9  2  0
  9 10  1  0
 10 11  2  0
 11 12  1  0
 12 13  2  0
 13 14  1  0
 14 15  2  0
 10 16  1  0
 16 17  2  0
 17 18  1  0
 18 19  2  0
 19 20  1  0
 20 21  2  0
  5 22  1  0
 22 23  2  0
 23 24  1  0
 24 25  2  0
 25 26  1  0
 26 27  2  0
 14  2  1  0
 21 16  1  0
 27 22  1  0
  7  3  1  0
 13  8  1  0
  1 28  1  0
  1 29  1  0
  1 30  1  0
  4 31  1  0
  9 32  1  0
 11 33  1  0
 12 34  1  0
 17 35  1  0
 19 36  1  0
 21 37  1  0
 23 38  1  0
 24 39  1  0
 25 40  1  0
 26 41  1  0
 27 42  1  0
M  END
$$$$
[H]c1nc([H])n(-c2c([H])c([H])c([H])c(C3=Nc4c([H])c([H])c(-c5c([H])c([H])c(F)c([H])c5[H])c([H])c4N([H])C(=O)C3([H])[H])c2[H])c1[H]
     RDKit          3D

 47 51  0  0  0  0  0  0  0  0999 V2000
    8.5451   -0.2868   -3.0829 F   0  0  0  0  0  0  0  0  0  0  0  0
    7.2986   -0.2276   -2.5386 C   0  0  0  0  0  0  0  0  0  0  0  0
    6.9883   -0.8108   -1.3373 C   0  0  0  0  0  0  0  0  0  0  0  0
    5.7035   -0.7299   -0.8122 C   0  0  0  0  0  0  0  0  0  0  0  0
    4.6904   -0.0654   -1.4691 C   0  0  0  0  0  0  0  0  0  0  0  0
    5.0063    0.5199   -2.6769 C   0  0  0  0  0  0  0  0  0  0  0  0
    6.2895    0.4438   -3.2096 C   0  0  0  0  0  0  0  0  0  0  0  0
    3.3497    0.0044   -0.8982 C   0  0  0  0  0  0  0  0  0  0  0  0
    2.2388    0.0617   -1.7149 C   0  0  0  0  0  0  0  0  0  0  0  0
    0.9498    0.1271   -1.2299 C   0  0  0  0  0  0  0  0  0  0  0  0
    0.7283    0.1373    0.1159 C   0  0  0  0  0  0  0  0  0  0  0  0
   -0.6359    0.2019    0.4986 N   0  0  0  0  0  0  0  0  0  0  0  0
   -1.2302    0.6632    1.5765 C   0  0  0  0  0  0  0  0  0  0  0  0
   -0.5476    1.2645    2.7175 C   0  0  0  0  0  0  0  0  0  0  0  0
    0.6501    0.4600    3.1837 C   0  0  0  0  0  0  0  0  0  0  0  0
    0.6657    0.0834    4.3912 O   0  0  0  0  0  0  0  0  0  0  0  0
    1.7688    0.0827    2.3925 N   0  0  0  0  0  0  0  0  0  0  0  0
    1.8424    0.0798    0.9632 C   0  0  0  0  0  0  0  0  0  0  0  0
    3.1038    0.0159    0.4603 C   0  0  0  0  0  0  0  0  0  0  0  0
   -2.6815    0.5450    1.5876 C   0  0  0  0  0  0  0  0  0  0  0  0
   -3.4096    0.9978    2.6411 C   0  0  0  0  0  0  0  0  0  0  0  0
   -4.8165    0.8687    2.6286 C   0  0  0  0  0  0  0  0  0  0  0  0
   -5.4113    0.2801    1.5334 C   0  0  0  0  0  0  0  0  0  0  0  0
   -4.6859   -0.1823    0.4605 C   0  0  0  0  0  0  0  0  0  0  0  0
   -3.3292   -0.0451    0.4990 C   0  0  0  0  0  0  0  0  0  0  0  0
   -5.3403   -0.7876   -0.6586 N   0  0  0  0  0  0  0  0  0  0  0  0
   -5.8917   -2.0152   -0.6917 C   0  0  0  0  0  0  0  0  0  0  0  0
   -6.4179   -2.2318   -1.9355 C   0  0  0  0  0  0  0  0  0  0  0  0
   -6.1662   -1.1026   -2.6426 N   0  0  0  0  0  0  0  0  0  0  0  0
   -5.5128   -0.2188   -1.8784 C   0  0  0  0  0  0  0  0  0  0  0  0
    7.7666   -1.3319   -0.8136 H   0  0  0  0  0  0  0  0  0  0  0  0
    5.4603   -1.1913    0.1375 H   0  0  0  0  0  0  0  0  0  0  0  0
    4.2390    1.0565   -3.2339 H   0  0  0  0  0  0  0  0  0  0  0  0
    6.5547    0.8967   -4.1550 H   0  0  0  0  0  0  0  0  0  0  0  0
    2.4132    0.0537   -2.8025 H   0  0  0  0  0  0  0  0  0  0  0  0
    0.0942    0.1714   -1.9026 H   0  0  0  0  0  0  0  0  0  0  0  0
   -0.1398    2.2587    2.3264 H   0  0  0  0  0  0  0  0  0  0  0  0
   -1.1367    1.5208    3.5861 H   0  0  0  0  0  0  0  0  0  0  0  0
    2.6403   -0.2275    2.8731 H   0  0  0  0  0  0  0  0  0  0  0  0
    3.9284   -0.0268    1.1474 H   0  0  0  0  0  0  0  0  0  0  0  0
   -2.9809    1.4628    3.5079 H   0  0  0  0  0  0  0  0  0  0  0  0
   -5.3846    1.2275    3.4625 H   0  0  0  0  0  0  0  0  0  0  0  0
   -6.4951    0.1755    1.5134 H   0  0  0  0  0  0  0  0  0  0  0  0
   -2.7194   -0.3893   -0.3118 H   0  0  0  0  0  0  0  0  0  0  0  0
   -5.9064   -2.7052    0.1412 H   0  0  0  0  0  0  0  0  0  0  0  0
   -6.9208   -3.1324   -2.2443 H   0  0  0  0  0  0  0  0  0  0  0  0
   -5.1553    0.7730   -2.1049 H   0  0  0  0  0  0  0  0  0  0  0  0
  1  2  1  0
  2  3  2  0
  3  4  1  0
  4  5  2  0
  5  6  1  0
  6  7  2  0
  5  8  1  0
  8  9  2  0
  9 10  1  0
 10 11  2  0
 11 12  1  0
 12 13  2  0
 13 14  1  0
 14 15  1  0
 15 16  2  0
 15 17  1  0
 17 18  1  0
 18 19  2  0
 13 20  1  0
 20 21  2  0
 21 22  1  0
 22 23  2  0
 23 24  1  0
 24 25  2  0
 24 26  1  0
 26 27  1  0
 27 28  2  0
 28 29  1  0
 29 30  2  0
  7  2  1  0
 19  8  1  0
 25 20  1  0
 30 26  1  0
 18 11  1  0
  3 31  1  0
  4 32  1  0
  6 33  1  0
  7 34  1  0
  9 35  1  0
 10 36  1  0
 14 37  1  0
 14 38  1  0
 17 39  1  0
 19 40  1  0
 21 41  1  0
 22 42  1  0
 23 43  1  0
 25 44  1  0
 27 45  1  0
 28 46  1  0
 30 47  1  0
M  END
$$$$
[H]OC(=O)[C@]1(N([H])[H])C([H])([H])C([H])([H])[C@@]2([H])[C@]([H])(C(=O)O[H])[C@@]12[H]
     RDKit          3D

 24 25  0  0  0  0  0  0  0  0999 V2000
   -1.2866    1.1899   -0.6057 N   0  0  0  0  0  0  0  0  0  0  0  0
   -1.0848    0.1481    0.3356 C   0  0  1  0  0  0  0  0  0  0  0  0
   -1.3297   -1.1770   -0.3589 C   0  0  0  0  0  0  0  0  0  0  0  0
   -0.0792   -1.2979   -1.2084 C   0  0  0  0  0  0  0  0  0  0  0  0
    1.0275   -0.8625   -0.3059 C   0  0  1  0  0  0  0  0  0  0  0  0
    1.3856    0.5608   -0.1110 C   0  0  1  0  0  0  0  0  0  0  0  0
    0.3568   -0.0112    0.7705 C   0  0  1  0  0  0  0  0  0  0  0  0
    2.7187    0.8048    0.5000 C   0  0  0  0  0  0  0  0  0  0  0  0
    3.2410   -0.0847    1.4460 O   0  0  0  0  0  0  0  0  0  0  0  0
    3.4281    1.8090    0.1978 O   0  0  0  0  0  0  0  0  0  0  0  0
   -1.9576    0.3403    1.5005 C   0  0  0  0  0  0  0  0  0  0  0  0
   -2.8038    1.4282    1.5360 O   0  0  0  0  0  0  0  0  0  0  0  0
   -1.9509   -0.4606    2.4617 O   0  0  0  0  0  0  0  0  0  0  0  0
   -1.0478    2.1385   -0.2868 H   0  0  0  0  0  0  0  0  0  0  0  0
   -1.0782    0.9807   -1.5834 H   0  0  0  0  0  0  0  0  0  0  0  0
   -1.3555   -1.9752    0.3899 H   0  0  0  0  0  0  0  0  0  0  0  0
   -2.2354   -1.1435   -0.9939 H   0  0  0  0  0  0  0  0  0  0  0  0
   -0.1444   -0.7411   -2.1529 H   0  0  0  0  0  0  0  0  0  0  0  0
    0.0245   -2.3675   -1.4708 H   0  0  0  0  0  0  0  0  0  0  0  0
    1.7338   -1.6525    0.0181 H   0  0  0  0  0  0  0  0  0  0  0  0
    1.0809    1.3361   -0.8470 H   0  0  0  0  0  0  0  0  0  0  0  0
    0.5569   -0.3488    1.7994 H   0  0  0  0  0  0  0  0  0  0  0  0
    4.2244   -0.2512    1.4525 H   0  0  0  0  0  0  0  0  0  0  0  0
   -3.4243    1.6371    0.7578 H   0  0  0  0  0  0  0  0  0  0  0  0
  1  2  1  0
  2  3  1  0
  3  4  1  0
  4  5  1  0
  5  6  1  0
  6  7  1  0
  6  8  1  0
  8  9  1  0
  8 10  2  0
  2 11  1  1
 11 12  1  0
 11 13  2  0
  7  2  1  0
  7  5  1  0
  1 14  1  0
  1 15  1  0
  3 16  1  0
  3 17  1  0
  4 18  1  0
  4 19  1  0
  5 20  1  1
  6 21  1  6
  7 22  1  1
  9 23  1  0
 12 24  1  0
M  END
$$$$
[H]OC(=O)[C@@]1(F)[C@]2([H])C([H])([H])[C@@]([H])(OC([H])([H])c3c([H])c([H])c(Cl)c([H])c3[H])[C@](C(=O)O[H])(N([H])[H])[C@]12[H]
     RDKit          3D

 38 40  0  0  0  0  0  0  0  0999 V2000
   -0.5843   -0.1992    1.3783 N   0  0  0  0  0  0  0  0  0  0  0  0
   -1.1385    0.4060    0.1920 C   0  0  2  0  0  0  0  0  0  0  0  0
   -2.4806   -0.1971   -0.1449 C   0  0  1  0  0  0  0  0  0  0  0  0
   -2.5166   -0.4181   -1.5873 C   0  0  1  0  0  0  0  0  0  0  0  0
   -1.1774   -0.0236   -2.1713 C   0  0  0  0  0  0  0  0  0  0  0  0
   -0.2462    0.2478   -1.0227 C   0  0  1  0  0  0  0  0  0  0  0  0
    0.5118    1.3571   -1.1398 O   0  0  0  0  0  0  0  0  0  0  0  0
    1.8540    1.2957   -1.1339 C   0  0  0  0  0  0  0  0  0  0  0  0
    2.5360    0.7511    0.0307 C   0  0  0  0  0  0  0  0  0  0  0  0
    2.9422   -0.5604    0.0273 C   0  0  0  0  0  0  0  0  0  0  0  0
    3.5899   -1.1195    1.1035 C   0  0  0  0  0  0  0  0  0  0  0  0
    3.8479   -0.3605    2.2253 C   0  0  0  0  0  0  0  0  0  0  0  0
    4.6706   -1.1151    3.5611 Cl  0  0  0  0  0  0  0  0  0  0  0  0
    3.4448    0.9699    2.2491 C   0  0  0  0  0  0  0  0  0  0  0  0
    2.7971    1.5019    1.1537 C   0  0  0  0  0  0  0  0  0  0  0  0
   -2.5661   -1.5903   -0.6413 C   0  0  1  0  0  0  0  0  0  0  0  0
   -1.4524   -2.3642   -0.4657 F   0  0  0  0  0  0  0  0  0  0  0  0
   -3.8530   -2.2809   -0.5345 C   0  0  0  0  0  0  0  0  0  0  0  0
   -3.9015   -3.6410   -0.2696 O   0  0  0  0  0  0  0  0  0  0  0  0
   -4.9665   -1.6934   -0.6737 O   0  0  0  0  0  0  0  0  0  0  0  0
   -1.3739    1.8701    0.4014 C   0  0  0  0  0  0  0  0  0  0  0  0
   -1.0645    2.4585    1.6107 O   0  0  0  0  0  0  0  0  0  0  0  0
   -1.8524    2.6007   -0.5002 O   0  0  0  0  0  0  0  0  0  0  0  0
   -0.5071    0.5419    2.1096 H   0  0  0  0  0  0  0  0  0  0  0  0
   -1.1926   -0.9830    1.6581 H   0  0  0  0  0  0  0  0  0  0  0  0
   -3.3414    0.2828    0.3404 H   0  0  0  0  0  0  0  0  0  0  0  0
   -3.4360   -0.2041   -2.1601 H   0  0  0  0  0  0  0  0  0  0  0  0
   -0.8159   -0.8983   -2.7479 H   0  0  0  0  0  0  0  0  0  0  0  0
   -1.3442    0.8648   -2.8111 H   0  0  0  0  0  0  0  0  0  0  0  0
    0.4412   -0.6381   -0.9187 H   0  0  0  0  0  0  0  0  0  0  0  0
    2.1849    0.8220   -2.0993 H   0  0  0  0  0  0  0  0  0  0  0  0
    2.2249    2.3608   -1.2458 H   0  0  0  0  0  0  0  0  0  0  0  0
    2.7628   -1.1910   -0.8303 H   0  0  0  0  0  0  0  0  0  0  0  0
    3.8970   -2.1629    1.0643 H   0  0  0  0  0  0  0  0  0  0  0  0
    3.6613    1.5282    3.1348 H   0  0  0  0  0  0  0  0  0  0  0  0
    2.5039    2.5548    1.2312 H   0  0  0  0  0  0  0  0  0  0  0  0
   -3.1684   -4.2012   -0.7234 H   0  0  0  0  0  0  0  0  0  0  0  0
   -0.8907    3.4276    1.7557 H   0  0  0  0  0  0  0  0  0  0  0  0
  1  2  1  0
  2  3  1  0
  3  4  1  0
  4  5  1  0
  5  6  1  0
  6  7  1  0
  7  8  1  0
  8  9  1  0
  9 10  2  0
 10 11  1  0
 11 12  2  0
 12 13  1  0
 12 14  1  0
 14 15  2  0
  4 16  1  0
 16 17  1  6
 16 18  1  0
 18 19  1  0
 18 20  2  0
  2 21  1  1
 21 22  1  0
 21 23  2  0
  6  2  1  0
 15  9  1  0
 16  3  1  0
  1 24  1  0
  1 25  1  0
  3 26  1  1
  4 27  1  6
  5 28  1  0
  5 29  1  0
  6 30  1  1
  8 31  1  0
  8 32  1  0
 10 33  1  0
 11 34  1  0
 14 35  1  0
 15 36  1  0
 19 37  1  0
 22 38  1  0
M  END
$$$$
[H]OC(=O)[C@@]([H])(N([H])[H])[C@@]1([H])[C@@]([H])(O[H])[C@]1([H])C(=O)O[H]
     RDKit          3D

 21 21  0  0  0  0  0  0  0  0999 V2000
    1.6163   -1.7015    0.5934 N   0  0  0  0  0  0  0  0  0  0  0  0
    1.2074   -0.3697    0.1040 C   0  0  1  0  0  0  0  0  0  0  0  0
   -0.1439   -0.0924    0.6721 C   0  0  1  0  0  0  0  0  0  0  0  0
   -0.9394    1.1066    0.4409 C   0  0  1  0  0  0  0  0  0  0  0  0
   -0.5779    2.1957   -0.3041 O   0  0  0  0  0  0  0  0  0  0  0  0
   -1.2764   -0.1096   -0.3499 C   0  0  2  0  0  0  0  0  0  0  0  0
   -2.4762   -0.8953   -0.0201 C   0  0  0  0  0  0  0  0  0  0  0  0
   -3.1528   -1.5685   -1.0030 O   0  0  0  0  0  0  0  0  0  0  0  0
   -2.8763   -0.9462    1.1619 O   0  0  0  0  0  0  0  0  0  0  0  0
    2.2636    0.5746    0.5158 C   0  0  0  0  0  0  0  0  0  0  0  0
    2.2141    1.9274    0.1709 O   0  0  0  0  0  0  0  0  0  0  0  0
    3.2387    0.1598    1.1949 O   0  0  0  0  0  0  0  0  0  0  0  0
    1.3232   -1.7822    1.6076 H   0  0  0  0  0  0  0  0  0  0  0  0
    2.6569   -1.7779    0.6011 H   0  0  0  0  0  0  0  0  0  0  0  0
    1.1867   -0.4609   -1.0091 H   0  0  0  0  0  0  0  0  0  0  0  0
   -0.3649   -0.6718    1.6052 H   0  0  0  0  0  0  0  0  0  0  0  0
   -1.6897    1.3764    1.2442 H   0  0  0  0  0  0  0  0  0  0  0  0
   -1.4223    2.7008   -0.5304 H   0  0  0  0  0  0  0  0  0  0  0  0
   -0.9970   -0.1236   -1.4265 H   0  0  0  0  0  0  0  0  0  0  0  0
   -2.7276   -1.8959   -1.8600 H   0  0  0  0  0  0  0  0  0  0  0  0
    2.9374    2.3542   -0.4154 H   0  0  0  0  0  0  0  0  0  0  0  0
  1  2  1  0
  2  3  1  0
  3  4  1  0
  4  5  1  0
  4  6  1  0
  6  7  1  0
  7  8  1  0
  7  9  2  0
  2 10  1  0
 10 11  1  0
 10 12  2  0
  6  3  1  0
  1 13  1  0
  1 14  1  0
  2 15  1  6
  3 16  1  1
  4 17  1  1
  5 18  1  0
  6 19  1  6
  8 20  1  0
 11 21  1  0
M  END
$$$$
[H]c1nc(C([H])([H])[H])c([H])c(-c2c([H])c([H])c([H])c(C3=Nc4c([H])c(OC([H])([H])C([H])([H])[H])c(C(F)(F)F)c([H])c4N([H])C(=O)C3([H])[H])c2[H])c1[H]
     RDKit          3D

 52 55  0  0  0  0  0  0  0  0999 V2000
   -6.5768    3.2606    0.7333 C   0  0  0  0  0  0  0  0  0  0  0  0
   -5.3067    2.4573    0.5567 C   0  0  0  0  0  0  0  0  0  0  0  0
   -5.6321    1.2330   -0.0215 O   0  0  0  0  0  0  0  0  0  0  0  0
   -4.6999    0.2429   -0.3257 C   0  0  0  0  0  0  0  0  0  0  0  0
   -3.3492    0.3803   -0.0811 C   0  0  0  0  0  0  0  0  0  0  0  0
   -2.4473   -0.6186   -0.3933 C   0  0  0  0  0  0  0  0  0  0  0  0
   -1.1236   -0.3095   -0.0721 N   0  0  0  0  0  0  0  0  0  0  0  0
    0.0290   -0.7357   -0.5205 C   0  0  0  0  0  0  0  0  0  0  0  0
    0.2197   -1.7362   -1.5687 C   0  0  0  0  0  0  0  0  0  0  0  0
   -0.6667   -2.9439   -1.4031 C   0  0  0  0  0  0  0  0  0  0  0  0
   -0.1069   -4.0782   -1.3063 O   0  0  0  0  0  0  0  0  0  0  0  0
   -2.0826   -2.9161   -1.3471 N   0  0  0  0  0  0  0  0  0  0  0  0
   -2.8928   -1.8052   -0.9717 C   0  0  0  0  0  0  0  0  0  0  0  0
   -4.2238   -1.9541   -1.2185 C   0  0  0  0  0  0  0  0  0  0  0  0
   -5.1135   -0.9414   -0.8986 C   0  0  0  0  0  0  0  0  0  0  0  0
   -6.5609   -1.1120   -1.1708 C   0  0  0  0  0  0  0  0  0  0  0  0
   -6.7880   -2.3603   -1.7462 F   0  0  0  0  0  0  0  0  0  0  0  0
   -7.0150   -0.1088   -2.0151 F   0  0  0  0  0  0  0  0  0  0  0  0
   -7.2387   -1.0958    0.0438 F   0  0  0  0  0  0  0  0  0  0  0  0
    1.2012   -0.1417    0.0957 C   0  0  0  0  0  0  0  0  0  0  0  0
    1.0042    0.8047    1.1126 C   0  0  0  0  0  0  0  0  0  0  0  0
    2.0602    1.4219    1.7487 C   0  0  0  0  0  0  0  0  0  0  0  0
    3.3648    1.1273    1.4037 C   0  0  0  0  0  0  0  0  0  0  0  0
    3.5551    0.1987    0.4060 C   0  0  0  0  0  0  0  0  0  0  0  0
    2.4829   -0.4349   -0.2474 C   0  0  0  0  0  0  0  0  0  0  0  0
    4.9346   -0.1338    0.0177 C   0  0  0  0  0  0  0  0  0  0  0  0
    5.2730   -1.3831   -0.4419 C   0  0  0  0  0  0  0  0  0  0  0  0
    6.5825   -1.6299   -0.7889 C   0  0  0  0  0  0  0  0  0  0  0  0
    7.5342   -0.6805   -0.6890 N   0  0  0  0  0  0  0  0  0  0  0  0
    7.2075    0.5360   -0.2420 C   0  0  0  0  0  0  0  0  0  0  0  0
    8.2702    1.6018   -0.1285 C   0  0  0  0  0  0  0  0  0  0  0  0
    5.9143    0.8208    0.1135 C   0  0  0  0  0  0  0  0  0  0  0  0
   -7.1666    2.7519    1.5245 H   0  0  0  0  0  0  0  0  0  0  0  0
   -6.3637    4.3119    1.0153 H   0  0  0  0  0  0  0  0  0  0  0  0
   -7.1556    3.1794   -0.2033 H   0  0  0  0  0  0  0  0  0  0  0  0
   -4.5208    3.0166    0.0115 H   0  0  0  0  0  0  0  0  0  0  0  0
   -4.8962    2.2863    1.5882 H   0  0  0  0  0  0  0  0  0  0  0  0
   -3.0092    1.3080    0.3699 H   0  0  0  0  0  0  0  0  0  0  0  0
    1.2325   -2.0858   -1.7201 H   0  0  0  0  0  0  0  0  0  0  0  0
   -0.0898   -1.2409   -2.5414 H   0  0  0  0  0  0  0  0  0  0  0  0
   -2.5914   -3.7853   -1.6026 H   0  0  0  0  0  0  0  0  0  0  0  0
   -4.5485   -2.8890   -1.6706 H   0  0  0  0  0  0  0  0  0  0  0  0
   -0.0154    1.0536    1.4020 H   0  0  0  0  0  0  0  0  0  0  0  0
    1.9144    2.1579    2.5395 H   0  0  0  0  0  0  0  0  0  0  0  0
    4.2081    1.5980    1.8883 H   0  0  0  0  0  0  0  0  0  0  0  0
    2.7221   -1.1479   -1.0199 H   0  0  0  0  0  0  0  0  0  0  0  0
    4.4925   -2.1458   -0.5188 H   0  0  0  0  0  0  0  0  0  0  0  0
    6.8171   -2.6283   -1.1487 H   0  0  0  0  0  0  0  0  0  0  0  0
    8.8086    1.6110   -1.0827 H   0  0  0  0  0  0  0  0  0  0  0  0
    8.8973    1.3099    0.7393 H   0  0  0  0  0  0  0  0  0  0  0  0
    7.7888    2.5644    0.1274 H   0  0  0  0  0  0  0  0  0  0  0  0
    5.6668    1.8085    0.4729 H   0  0  0  0  0  0  0  0  0  0  0  0
  1  2  1  0
  2  3  1  0
  3  4  1  0
  4  5  2  0
  5  6  1  0
  6  7  1  0
  7  8  2  0
  8  9  1  0
  9 10  1  0
 10 11  2  0
 10 12  1  0
 12 13  1  0
 13 14  1  0
 14 15  2  0
 15 16  1  0
 16 17  1  0
 16 18  1  0
 16 19  1  0
  8 20  1  0
 20 21  2  0
 21 22  1  0
 22 23  2  0
 23 24  1  0
 24 25  2  0
 24 26  1  0
 26 27  2  0
 27 28  1  0
 28 29  2  0
 29 30  1  0
 30 31  1  0
 30 32  2  0
 15  4  1  0
 25 20  1  0
 32 26  1  0
 13  6  2  0
  1 33  1  0
  1 34  1  0
  1 35  1  0
  2 36  1  0
  2 37  1  0
  5 38  1  0
  9 39  1  0
  9 40  1  0
 12 41  1  0
 14 42  1  0
 21 43  1  0
 22 44  1  0
 23 45  1  0
 25 46  1  0
 27 47  1  0
 28 48  1  0
 31 49  1  0
 31 50  1  0
 31 51  1  0
 32 52  1  0
M  END
$$$$
[H]OC(=O)[C@@]1(F)[C@]2([H])C([H])([H])[C@@]([H])(OC([H])([H])c3c([H])c([H])c([H])c([H])c3[H])[C@](C(=O)O[H])(N([H])[H])[C@]12[H]
     RDKit          3D

 38 40  0  0  0  0  0  0  0  0999 V2000
   -1.1531   -2.1393   -0.1065 N   0  0  0  0  0  0  0  0  0  0  0  0
   -1.3409   -0.8574    0.5462 C   0  0  2  0  0  0  0  0  0  0  0  0
   -2.7866   -0.4945    0.6745 C   0  0  1  0  0  0  0  0  0  0  0  0
   -2.8635    0.9463    0.4075 C   0  0  1  0  0  0  0  0  0  0  0  0
   -1.4978    1.4387    0.0482 C   0  0  0  0  0  0  0  0  0  0  0  0
   -0.6699    0.2319   -0.2629 C   0  0  1  0  0  0  0  0  0  0  0  0
    0.6371    0.3304    0.1323 O   0  0  0  0  0  0  0  0  0  0  0  0
    1.5457    0.0520   -0.8865 C   0  0  0  0  0  0  0  0  0  0  0  0
    2.9401    0.1794   -0.3818 C   0  0  0  0  0  0  0  0  0  0  0  0
    3.6362    1.3679   -0.4343 C   0  0  0  0  0  0  0  0  0  0  0  0
    4.9269    1.4870    0.0324 C   0  0  0  0  0  0  0  0  0  0  0  0
    5.5792    0.4182    0.5739 C   0  0  0  0  0  0  0  0  0  0  0  0
    4.9012   -0.7955    0.6402 C   0  0  0  0  0  0  0  0  0  0  0  0
    3.6099   -0.9115    0.1723 C   0  0  0  0  0  0  0  0  0  0  0  0
   -3.5937   -0.0154   -0.4553 C   0  0  1  0  0  0  0  0  0  0  0  0
   -3.2001   -0.2099   -1.7698 F   0  0  0  0  0  0  0  0  0  0  0  0
   -5.0688   -0.0696   -0.2647 C   0  0  0  0  0  0  0  0  0  0  0  0
   -5.9583   -0.2918   -1.2959 O   0  0  0  0  0  0  0  0  0  0  0  0
   -5.5363    0.0975    0.9102 O   0  0  0  0  0  0  0  0  0  0  0  0
   -0.7469   -0.8911    1.8985 C   0  0  0  0  0  0  0  0  0  0  0  0
   -0.8187    0.2361    2.6895 O   0  0  0  0  0  0  0  0  0  0  0  0
   -0.1828   -1.9126    2.3420 O   0  0  0  0  0  0  0  0  0  0  0  0
   -1.7968   -2.2387   -0.9016 H   0  0  0  0  0  0  0  0  0  0  0  0
   -1.1456   -2.9311    0.5486 H   0  0  0  0  0  0  0  0  0  0  0  0
   -3.2884   -0.9462    1.5598 H   0  0  0  0  0  0  0  0  0  0  0  0
   -3.4611    1.5553    1.1234 H   0  0  0  0  0  0  0  0  0  0  0  0
   -1.6017    2.0383   -0.8928 H   0  0  0  0  0  0  0  0  0  0  0  0
   -1.0967    2.0537    0.8685 H   0  0  0  0  0  0  0  0  0  0  0  0
   -0.7122   -0.0550   -1.3336 H   0  0  0  0  0  0  0  0  0  0  0  0
    1.4257    0.8723   -1.6486 H   0  0  0  0  0  0  0  0  0  0  0  0
    1.4253   -0.9397   -1.3260 H   0  0  0  0  0  0  0  0  0  0  0  0
    3.1668    2.2447   -0.8531 H   0  0  0  0  0  0  0  0  0  0  0  0
    5.4826    2.4316   -0.0083 H   0  0  0  0  0  0  0  0  0  0  0  0
    6.6030    0.4882    0.9508 H   0  0  0  0  0  0  0  0  0  0  0  0
    5.4471   -1.6404    1.0798 H   0  0  0  0  0  0  0  0  0  0  0  0
    3.0933   -1.8681    0.2314 H   0  0  0  0  0  0  0  0  0  0  0  0
   -5.8393    0.2846   -2.1397 H   0  0  0  0  0  0  0  0  0  0  0  0
   -0.0608    0.4540    3.3301 H   0  0  0  0  0  0  0  0  0  0  0  0
  1  2  1  0
  2  3  1  0
  3  4  1  0
  4  5  1  0
  5  6  1  0
  6  7  1  0
  7  8  1  0
  8  9  1  0
  9 10  2  0
 10 11  1  0
 11 12  2  0
 12 13  1  0
 13 14  2  0
  4 15  1  0
 15 16  1  6
 15 17  1  0
 17 18  1  0
 17 19  2  0
  2 20  1  1
 20 21  1  0
 20 22  2  0
  6  2  1  0
 14  9  1  0
 15  3  1  0
  1 23  1  0
  1 24  1  0
  3 25  1  1
  4 26  1  1
  5 27  1  0
  5 28  1  0
  6 29  1  6
  8 30  1  0
  8 31  1  0
 10 32  1  0
 11 33  1  0
 12 34  1  0
 13 35  1  0
 14 36  1  0
 18 37  1  0
 21 38  1  0
M  END
$$$$
[H]OC(=O)[C@]1(N([H])[H])C([H])([H])C(=O)[C@@]2([H])[C@](F)(C(=O)O[H])[C@@]12[H]
     RDKit          3D

 23 24  0  0  0  0  0  0  0  0999 V2000
   -1.2405   -0.9388   -1.4666 N   0  0  0  0  0  0  0  0  0  0  0  0
   -1.0063   -0.0544   -0.3539 C   0  0  1  0  0  0  0  0  0  0  0  0
   -1.2277   -0.8318    0.9260 C   0  0  0  0  0  0  0  0  0  0  0  0
    0.0231   -0.7563    1.6905 C   0  0  0  0  0  0  0  0  0  0  0  0
    0.2598   -1.3586    2.7166 O   0  0  0  0  0  0  0  0  0  0  0  0
    0.9339    0.1640    1.0103 C   0  0  2  0  0  0  0  0  0  0  0  0
    0.3847    0.4892   -0.3254 C   0  0  1  0  0  0  0  0  0  0  0  0
    1.5717   -0.3954   -0.2616 C   0  0  2  0  0  0  0  0  0  0  0  0
    1.4761   -1.7398   -0.5119 F   0  0  0  0  0  0  0  0  0  0  0  0
    2.8712    0.2413   -0.6189 C   0  0  0  0  0  0  0  0  0  0  0  0
    3.9272   -0.4572   -1.1686 O   0  0  0  0  0  0  0  0  0  0  0  0
    3.0181    1.4911   -0.4080 O   0  0  0  0  0  0  0  0  0  0  0  0
   -1.9500    1.0932   -0.3653 C   0  0  0  0  0  0  0  0  0  0  0  0
   -2.9176    1.2505   -1.3447 O   0  0  0  0  0  0  0  0  0  0  0  0
   -1.8870    1.9658    0.5369 O   0  0  0  0  0  0  0  0  0  0  0  0
   -2.0908   -1.5052   -1.2689 H   0  0  0  0  0  0  0  0  0  0  0  0
   -1.2873   -0.4436   -2.3836 H   0  0  0  0  0  0  0  0  0  0  0  0
   -1.5677   -1.8659    0.7122 H   0  0  0  0  0  0  0  0  0  0  0  0
   -2.0342   -0.3667    1.5475 H   0  0  0  0  0  0  0  0  0  0  0  0
    1.4814    0.9457    1.5688 H   0  0  0  0  0  0  0  0  0  0  0  0
    0.5301    1.5444   -0.6495 H   0  0  0  0  0  0  0  0  0  0  0  0
    4.5909    0.0203   -1.7733 H   0  0  0  0  0  0  0  0  0  0  0  0
   -3.8591    1.5083   -1.0776 H   0  0  0  0  0  0  0  0  0  0  0  0
  1  2  1  0
  2  3  1  0
  3  4  1  0
  4  5  2  0
  4  6  1  0
  6  7  1  0
  7  8  1  0
  8  9  1  1
  8 10  1  0
 10 11  1  0
 10 12  2  0
  2 13  1  6
 13 14  1  0
 13 15  2  0
  7  2  1  0
  8  6  1  0
  1 16  1  0
  1 17  1  0
  3 18  1  0
  3 19  1  0
  6 20  1  1
  7 21  1  6
 11 22  1  0
 14 23  1  0
M  END
$$$$
[H]c1nc(C([H])([H])[H])c([H])c(-c2c([H])c([H])c([H])c(C3=Nc4c([H])c(C([H])([H])[H])c(C(F)(F)F)c([H])c4N([H])C(=O)C3([H])[H])c2[H])c1[H]
     RDKit          3D

 48 51  0  0  0  0  0  0  0  0999 V2000
   -7.9375    0.1808    0.4311 C   0  0  0  0  0  0  0  0  0  0  0  0
   -6.6571    0.9280    0.3509 C   0  0  0  0  0  0  0  0  0  0  0  0
   -5.5365    0.2138   -0.0568 C   0  0  0  0  0  0  0  0  0  0  0  0
   -4.3324    0.8743   -0.1428 C   0  0  0  0  0  0  0  0  0  0  0  0
   -4.2902    2.1979    0.1748 C   0  0  0  0  0  0  0  0  0  0  0  0
   -5.4162    2.8851    0.5769 C   0  0  0  0  0  0  0  0  0  0  0  0
   -6.5880    2.2274    0.6570 N   0  0  0  0  0  0  0  0  0  0  0  0
   -3.1452    0.1226   -0.5736 C   0  0  0  0  0  0  0  0  0  0  0  0
   -3.2367   -0.9228   -1.4619 C   0  0  0  0  0  0  0  0  0  0  0  0
   -2.0803   -1.5768   -1.8156 C   0  0  0  0  0  0  0  0  0  0  0  0
   -0.8492   -1.2258   -1.3176 C   0  0  0  0  0  0  0  0  0  0  0  0
   -0.7354   -0.1778   -0.4236 C   0  0  0  0  0  0  0  0  0  0  0  0
   -1.9013    0.4697   -0.0768 C   0  0  0  0  0  0  0  0  0  0  0  0
    0.5840    0.2111    0.1270 C   0  0  0  0  0  0  0  0  0  0  0  0
    1.5225   -0.5290   -0.3049 N   0  0  0  0  0  0  0  0  0  0  0  0
    2.8953   -0.5151   -0.0479 C   0  0  0  0  0  0  0  0  0  0  0  0
    3.6134   -1.4730   -0.7689 C   0  0  0  0  0  0  0  0  0  0  0  0
    4.9774   -1.6264   -0.6588 C   0  0  0  0  0  0  0  0  0  0  0  0
    5.6927   -2.6681   -1.4540 C   0  0  0  0  0  0  0  0  0  0  0  0
    5.6506   -0.7909    0.2049 C   0  0  0  0  0  0  0  0  0  0  0  0
    4.9470    0.1712    0.9322 C   0  0  0  0  0  0  0  0  0  0  0  0
    3.5918    0.3094    0.8100 C   0  0  0  0  0  0  0  0  0  0  0  0
    3.0387    1.3422    1.6230 N   0  0  0  0  0  0  0  0  0  0  0  0
    1.7566    1.9447    1.4854 C   0  0  0  0  0  0  0  0  0  0  0  0
    1.7355    3.1841    1.8217 O   0  0  0  0  0  0  0  0  0  0  0  0
    0.5141    1.3394    1.0247 C   0  0  0  0  0  0  0  0  0  0  0  0
    7.1269   -0.9066    0.3683 C   0  0  0  0  0  0  0  0  0  0  0  0
    7.4260   -2.1670    0.8183 F   0  0  0  0  0  0  0  0  0  0  0  0
    7.8152   -0.5719   -0.7759 F   0  0  0  0  0  0  0  0  0  0  0  0
    7.5375   -0.0075    1.3560 F   0  0  0  0  0  0  0  0  0  0  0  0
   -7.9342   -0.6644   -0.2902 H   0  0  0  0  0  0  0  0  0  0  0  0
   -8.0233   -0.2524    1.4374 H   0  0  0  0  0  0  0  0  0  0  0  0
   -8.8196    0.8051    0.1777 H   0  0  0  0  0  0  0  0  0  0  0  0
   -5.6117   -0.8364   -0.3003 H   0  0  0  0  0  0  0  0  0  0  0  0
   -3.3643    2.7316    0.1152 H   0  0  0  0  0  0  0  0  0  0  0  0
   -5.4020    3.9311    0.8318 H   0  0  0  0  0  0  0  0  0  0  0  0
   -4.1669   -1.2255   -1.8696 H   0  0  0  0  0  0  0  0  0  0  0  0
   -2.1467   -2.4000   -2.5141 H   0  0  0  0  0  0  0  0  0  0  0  0
    0.0667   -1.7402   -1.5946 H   0  0  0  0  0  0  0  0  0  0  0  0
   -1.8341    1.3085    0.6392 H   0  0  0  0  0  0  0  0  0  0  0  0
    3.0743   -2.1207   -1.4417 H   0  0  0  0  0  0  0  0  0  0  0  0
    6.5112   -2.2443   -2.0703 H   0  0  0  0  0  0  0  0  0  0  0  0
    4.9666   -3.0964   -2.1836 H   0  0  0  0  0  0  0  0  0  0  0  0
    6.0217   -3.4646   -0.7734 H   0  0  0  0  0  0  0  0  0  0  0  0
    5.4841    0.8217    1.6072 H   0  0  0  0  0  0  0  0  0  0  0  0
    3.6551    1.6812    2.3954 H   0  0  0  0  0  0  0  0  0  0  0  0
   -0.0278    2.1669    0.4577 H   0  0  0  0  0  0  0  0  0  0  0  0
   -0.1681    1.1559    1.9056 H   0  0  0  0  0  0  0  0  0  0  0  0
  1  2  1  0
  2  3  2  0
  3  4  1  0
  4  5  2  0
  5  6  1  0
  6  7  2  0
  4  8  1  0
  8  9  2  0
  9 10  1  0
 10 11  2  0
 11 12  1  0
 12 13  2  0
 12 14  1  0
 14 15  2  0
 15 16  1  0
 16 17  2  0
 17 18  1  0
 18 19  1  0
 18 20  2  0
 20 21  1  0
 21 22  2  0
 22 23  1  0
 23 24  1  0
 24 25  2  0
 24 26  1  0
 20 27  1  0
 27 28  1  0
 27 29  1  0
 27 30  1  0
  7  2  1  0
 13  8  1  0
 26 14  1  0
 22 16  1  0
  1 31  1  0
  1 32  1  0
  1 33  1  0
  3 34  1  0
  5 35  1  0
  6 36  1  0
  9 37  1  0
 10 38  1  0
 11 39  1  0
 13 40  1  0
 17 41  1  0
 19 42  1  0
 19 43  1  0
 19 44  1  0
 21 45  1  0
 23 46  1  0
 26 47  1  0
 26 48  1  0
M  END
$$$$
[H]OC(=O)[C@@]1(F)[C@]2([H])C([H])([H])[C@@]([H])(OC([H])([H])c3c([H])c([H])c(F)c(F)c3[H])[C@](C(=O)O[H])(N([H])[H])[C@]12[H]
     RDKit          3D

 38 40  0  0  0  0  0  0  0  0999 V2000
   -2.0528   -0.3044   -1.5562 N   0  0  0  0  0  0  0  0  0  0  0  0
   -1.6129   -0.7472   -0.2416 C   0  0  2  0  0  0  0  0  0  0  0  0
   -2.3992    0.0368    0.7875 C   0  0  1  0  0  0  0  0  0  0  0  0
   -1.5636    1.2045    1.1911 C   0  0  1  0  0  0  0  0  0  0  0  0
   -0.3038    1.1024    0.3261 C   0  0  0  0  0  0  0  0  0  0  0  0
   -0.1711   -0.3457   -0.0393 C   0  0  1  0  0  0  0  0  0  0  0  0
    0.5311   -1.1200    0.7944 O   0  0  0  0  0  0  0  0  0  0  0  0
    1.6263   -1.7921    0.4065 C   0  0  0  0  0  0  0  0  0  0  0  0
    2.6707   -0.8446   -0.0679 C   0  0  0  0  0  0  0  0  0  0  0  0
    2.9118   -0.5847   -1.3880 C   0  0  0  0  0  0  0  0  0  0  0  0
    3.8924    0.3018   -1.7427 C   0  0  0  0  0  0  0  0  0  0  0  0
    4.6476    0.9427   -0.7836 C   0  0  0  0  0  0  0  0  0  0  0  0
    5.6194    1.8229   -1.1850 F   0  0  0  0  0  0  0  0  0  0  0  0
    4.4065    0.6825    0.5466 C   0  0  0  0  0  0  0  0  0  0  0  0
    5.1643    1.3269    1.4697 F   0  0  0  0  0  0  0  0  0  0  0  0
    3.4194   -0.2096    0.8919 C   0  0  0  0  0  0  0  0  0  0  0  0
   -2.8537    1.4105    0.5141 C   0  0  1  0  0  0  0  0  0  0  0  0
   -2.7769    1.9616   -0.7572 F   0  0  0  0  0  0  0  0  0  0  0  0
   -3.9492    1.9550    1.3406 C   0  0  0  0  0  0  0  0  0  0  0  0
   -4.8240    2.9316    0.8855 O   0  0  0  0  0  0  0  0  0  0  0  0
   -4.1200    1.5335    2.5122 O   0  0  0  0  0  0  0  0  0  0  0  0
   -1.8536   -2.1808   -0.0991 C   0  0  0  0  0  0  0  0  0  0  0  0
   -2.4198   -2.9352   -1.1094 O   0  0  0  0  0  0  0  0  0  0  0  0
   -1.5344   -2.7447    0.9789 O   0  0  0  0  0  0  0  0  0  0  0  0
   -1.4065   -0.7410   -2.2802 H   0  0  0  0  0  0  0  0  0  0  0  0
   -2.9960   -0.6891   -1.7830 H   0  0  0  0  0  0  0  0  0  0  0  0
   -2.9321   -0.5250    1.5821 H   0  0  0  0  0  0  0  0  0  0  0  0
   -1.4337    1.4621    2.2596 H   0  0  0  0  0  0  0  0  0  0  0  0
    0.5678    1.5467    0.7924 H   0  0  0  0  0  0  0  0  0  0  0  0
   -0.5365    1.6820   -0.5924 H   0  0  0  0  0  0  0  0  0  0  0  0
    0.2967   -0.3766   -1.0455 H   0  0  0  0  0  0  0  0  0  0  0  0
    2.0221   -2.5374    1.1096 H   0  0  0  0  0  0  0  0  0  0  0  0
    1.3496   -2.3961   -0.5113 H   0  0  0  0  0  0  0  0  0  0  0  0
    2.3430   -1.0657   -2.1572 H   0  0  0  0  0  0  0  0  0  0  0  0
    4.1106    0.5325   -2.8018 H   0  0  0  0  0  0  0  0  0  0  0  0
    3.2581   -0.3900    1.9676 H   0  0  0  0  0  0  0  0  0  0  0  0
   -5.1801    3.6315    1.5197 H   0  0  0  0  0  0  0  0  0  0  0  0
   -1.9175   -3.5378   -1.7347 H   0  0  0  0  0  0  0  0  0  0  0  0
  1  2  1  0
  2  3  1  0
  3  4  1  0
  4  5  1  0
  5  6  1  0
  6  7  1  0
  7  8  1  0
  8  9  1  0
  9 10  2  0
 10 11  1  0
 11 12  2  0
 12 13  1  0
 12 14  1  0
 14 15  1  0
 14 16  2  0
  4 17  1  0
 17 18  1  6
 17 19  1  0
 19 20  1  0
 19 21  2  0
  2 22  1  6
 22 23  1  0
 22 24  2  0
  6  2  1  0
 16  9  1  0
 17  3  1  0
  1 25  1  0
  1 26  1  0
  3 27  1  1
  4 28  1  1
  5 29  1  0
  5 30  1  0
  6 31  1  6
  8 32  1  0
  8 33  1  0
 10 34  1  0
 11 35  1  0
 16 36  1  0
 20 37  1  0
 23 38  1  0
M  END
$$$$
[H]OC(=O)C(N([H])[H])(C([H])([H])C1([H])c2c([H])c([H])c([H])c([H])c2Oc2c([H])c([H])c([H])c([H])c21)[C@]1([H])[C@@]([H])(C(=O)O[H])[C@@]1([H])C([H])([H])C([H])([H])C([H])([H])C([H])([H])[H]
     RDKit          3D

 57 60  0  0  0  0  0  0  0  0999 V2000
    5.9569    1.7812    0.8643 C   0  0  0  0  0  0  0  0  0  0  0  0
    6.1196    0.3157    0.5605 C   0  0  0  0  0  0  0  0  0  0  0  0
    4.8561   -0.2892   -0.0278 C   0  0  0  0  0  0  0  0  0  0  0  0
    3.6917   -0.1591    0.9204 C   0  0  0  0  0  0  0  0  0  0  0  0
    2.4346   -0.7434    0.3734 C   0  0  2  0  0  0  0  0  0  0  0  0
    1.8320   -0.2126   -0.8898 C   0  0  1  0  0  0  0  0  0  0  0  0
    1.1196   -0.0880    0.4279 C   0  0  1  0  0  0  0  0  0  0  0  0
   -0.1610   -0.9738    0.6050 C   0  0  0  0  0  0  0  0  0  0  0  0
    0.0250   -1.6972    1.8366 N   0  0  0  0  0  0  0  0  0  0  0  0
   -1.2547   -0.0140    0.6831 C   0  0  0  0  0  0  0  0  0  0  0  0
   -2.6874   -0.2290    0.9701 C   0  0  0  0  0  0  0  0  0  0  0  0
   -3.2409    1.1891    0.8458 C   0  0  0  0  0  0  0  0  0  0  0  0
   -2.7707    2.1198    1.7735 C   0  0  0  0  0  0  0  0  0  0  0  0
   -3.0821    3.4595    1.6690 C   0  0  0  0  0  0  0  0  0  0  0  0
   -3.8728    3.8695    0.6236 C   0  0  0  0  0  0  0  0  0  0  0  0
   -4.3356    2.9488   -0.2858 C   0  0  0  0  0  0  0  0  0  0  0  0
   -4.0213    1.5803   -0.1793 C   0  0  0  0  0  0  0  0  0  0  0  0
   -4.5245    0.6775   -1.1009 O   0  0  0  0  0  0  0  0  0  0  0  0
   -4.2030   -0.6671   -0.9313 C   0  0  0  0  0  0  0  0  0  0  0  0
   -4.7475   -1.6064   -1.8178 C   0  0  0  0  0  0  0  0  0  0  0  0
   -4.5320   -2.9537   -1.7129 C   0  0  0  0  0  0  0  0  0  0  0  0
   -3.7399   -3.3915   -0.6801 C   0  0  0  0  0  0  0  0  0  0  0  0
   -3.1807   -2.5280    0.2076 C   0  0  0  0  0  0  0  0  0  0  0  0
   -3.4054   -1.1298    0.0847 C   0  0  0  0  0  0  0  0  0  0  0  0
   -0.1496   -1.9153   -0.5414 C   0  0  0  0  0  0  0  0  0  0  0  0
    0.2494   -3.2513   -0.4416 O   0  0  0  0  0  0  0  0  0  0  0  0
   -0.5102   -1.5479   -1.7141 O   0  0  0  0  0  0  0  0  0  0  0  0
    2.2877    1.1182   -1.4329 C   0  0  0  0  0  0  0  0  0  0  0  0
    2.4410    1.2888   -2.7958 O   0  0  0  0  0  0  0  0  0  0  0  0
    2.5374    2.0933   -0.6858 O   0  0  0  0  0  0  0  0  0  0  0  0
    6.9829    2.2315    0.8892 H   0  0  0  0  0  0  0  0  0  0  0  0
    5.4956    1.9869    1.8396 H   0  0  0  0  0  0  0  0  0  0  0  0
    5.4319    2.2508    0.0203 H   0  0  0  0  0  0  0  0  0  0  0  0
    6.4012   -0.2821    1.4542 H   0  0  0  0  0  0  0  0  0  0  0  0
    6.9051    0.2060   -0.2067 H   0  0  0  0  0  0  0  0  0  0  0  0
    5.0780   -1.3763   -0.1471 H   0  0  0  0  0  0  0  0  0  0  0  0
    4.6715    0.1067   -1.0277 H   0  0  0  0  0  0  0  0  0  0  0  0
    3.5370    0.9083    1.2331 H   0  0  0  0  0  0  0  0  0  0  0  0
    4.0187   -0.6689    1.8698 H   0  0  0  0  0  0  0  0  0  0  0  0
    2.3935   -1.8609    0.5126 H   0  0  0  0  0  0  0  0  0  0  0  0
    1.6515   -0.9677   -1.6434 H   0  0  0  0  0  0  0  0  0  0  0  0
    1.0561    0.8736    0.9335 H   0  0  0  0  0  0  0  0  0  0  0  0
   -0.2885   -1.1980    2.6772 H   0  0  0  0  0  0  0  0  0  0  0  0
   -0.2921   -2.6884    1.7818 H   0  0  0  0  0  0  0  0  0  0  0  0
   -1.2519    0.5262   -0.3618 H   0  0  0  0  0  0  0  0  0  0  0  0
   -0.9070    0.9202    1.3065 H   0  0  0  0  0  0  0  0  0  0  0  0
   -2.8500   -0.5138    2.0598 H   0  0  0  0  0  0  0  0  0  0  0  0
   -2.1457    1.8361    2.6157 H   0  0  0  0  0  0  0  0  0  0  0  0
   -2.7067    4.1857    2.4051 H   0  0  0  0  0  0  0  0  0  0  0  0
   -4.1183    4.9134    0.5338 H   0  0  0  0  0  0  0  0  0  0  0  0
   -4.9603    3.2264   -1.1235 H   0  0  0  0  0  0  0  0  0  0  0  0
   -5.3675   -1.1831   -2.6139 H   0  0  0  0  0  0  0  0  0  0  0  0
   -4.9495   -3.6617   -2.3919 H   0  0  0  0  0  0  0  0  0  0  0  0
   -3.5412   -4.4640   -0.5511 H   0  0  0  0  0  0  0  0  0  0  0  0
   -2.5713   -2.8865    1.0504 H   0  0  0  0  0  0  0  0  0  0  0  0
    0.7755   -3.6245    0.3155 H   0  0  0  0  0  0  0  0  0  0  0  0
    2.4196    2.1596   -3.2692 H   0  0  0  0  0  0  0  0  0  0  0  0
  1  2  1  0
  2  3  1  0
  3  4  1  0
  4  5  1  0
  5  6  1  0
  6  7  1  0
  7  8  1  0
  8  9  1  0
  8 10  1  0
 10 11  1  0
 11 12  1  0
 12 13  2  0
 13 14  1  0
 14 15  2  0
 15 16  1  0
 16 17  2  0
 17 18  1  0
 18 19  1  0
 19 20  2  0
 20 21  1  0
 21 22  2  0
 22 23  1  0
 23 24  2  0
  8 25  1  0
 25 26  1  0
 25 27  2  0
  6 28  1  0
 28 29  1  0
 28 30  2  0
  7  5  1  0
 24 11  1  0
 17 12  1  0
 24 19  1  0
  1 31  1  0
  1 32  1  0
  1 33  1  0
  2 34  1  0
  2 35  1  0
  3 36  1  0
  3 37  1  0
  4 38  1  0
  4 39  1  0
  5 40  1  6
  6 41  1  6
  7 42  1  1
  9 43  1  0
  9 44  1  0
 10 45  1  0
 10 46  1  0
 11 47  1  0
 13 48  1  0
 14 49  1  0
 15 50  1  0
 16 51  1  0
 20 52  1  0
 21 53  1  0
 22 54  1  0
 23 55  1  0
 26 56  1  0
 29 57  1  0
M  END
$$$$
[H]c1nc([H])c(-c2c([H])c([H])c3c(=O)n(C([H])([H])[H])c4c([H])c(-c5c([H])c([H])c(F)c([H])c5[H])nn4c3c2[H])c([H])c1[H]
     RDKit          3D

 43 47  0  0  0  0  0  0  0  0999 V2000
    2.0802   -4.0462   -0.1451 C   0  0  0  0  0  0  0  0  0  0  0  0
    1.0349   -3.0412   -0.1012 N   0  0  0  0  0  0  0  0  0  0  0  0
    1.3706   -1.7333   -0.1226 C   0  0  0  0  0  0  0  0  0  0  0  0
    2.6141   -1.1023   -0.1788 C   0  0  0  0  0  0  0  0  0  0  0  0
    2.4096    0.2607   -0.1759 C   0  0  0  0  0  0  0  0  0  0  0  0
    1.0942    0.4418   -0.1200 N   0  0  0  0  0  0  0  0  0  0  0  0
    0.4707   -0.7389   -0.0880 N   0  0  0  0  0  0  0  0  0  0  0  0
   -0.8316   -1.0870   -0.0284 C   0  0  0  0  0  0  0  0  0  0  0  0
   -1.7944   -0.1358    0.0110 C   0  0  0  0  0  0  0  0  0  0  0  0
   -3.1647   -0.4178    0.0749 C   0  0  0  0  0  0  0  0  0  0  0  0
   -3.5112   -1.7524    0.0973 C   0  0  0  0  0  0  0  0  0  0  0  0
   -2.5512   -2.7571    0.0580 C   0  0  0  0  0  0  0  0  0  0  0  0
   -1.2153   -2.4163   -0.0048 C   0  0  0  0  0  0  0  0  0  0  0  0
   -0.2733   -3.3987   -0.0415 C   0  0  0  0  0  0  0  0  0  0  0  0
   -0.5252   -4.6233   -0.0241 O   0  0  0  0  0  0  0  0  0  0  0  0
   -4.1449    0.6653    0.1148 C   0  0  0  0  0  0  0  0  0  0  0  0
   -3.9085    1.8730   -0.5327 C   0  0  0  0  0  0  0  0  0  0  0  0
   -4.8334    2.8971   -0.4913 C   0  0  0  0  0  0  0  0  0  0  0  0
   -6.0203    2.7484    0.1956 C   0  0  0  0  0  0  0  0  0  0  0  0
   -6.2401    1.5794    0.8177 N   0  0  0  0  0  0  0  0  0  0  0  0
   -5.3419    0.5542    0.7910 C   0  0  0  0  0  0  0  0  0  0  0  0
    3.4790    1.2718   -0.2264 C   0  0  0  0  0  0  0  0  0  0  0  0
    3.1882    2.6188   -0.2243 C   0  0  0  0  0  0  0  0  0  0  0  0
    4.1857    3.5851   -0.2693 C   0  0  0  0  0  0  0  0  0  0  0  0
    5.5220    3.2058   -0.3187 C   0  0  0  0  0  0  0  0  0  0  0  0
    6.4773    4.1806   -0.3604 F   0  0  0  0  0  0  0  0  0  0  0  0
    5.8197    1.8664   -0.3215 C   0  0  0  0  0  0  0  0  0  0  0  0
    4.8152    0.9287   -0.2762 C   0  0  0  0  0  0  0  0  0  0  0  0
    2.6772   -4.0445    0.8083 H   0  0  0  0  0  0  0  0  0  0  0  0
    2.7264   -3.7896   -1.0150 H   0  0  0  0  0  0  0  0  0  0  0  0
    1.6581   -5.0492   -0.2449 H   0  0  0  0  0  0  0  0  0  0  0  0
    3.5602   -1.6029   -0.2171 H   0  0  0  0  0  0  0  0  0  0  0  0
   -1.5123    0.9060   -0.0073 H   0  0  0  0  0  0  0  0  0  0  0  0
   -4.5563   -2.0216    0.1455 H   0  0  0  0  0  0  0  0  0  0  0  0
   -2.8497   -3.7788    0.0762 H   0  0  0  0  0  0  0  0  0  0  0  0
   -2.9581    1.9577   -1.0686 H   0  0  0  0  0  0  0  0  0  0  0  0
   -4.6320    3.8304   -1.0009 H   0  0  0  0  0  0  0  0  0  0  0  0
   -6.7430    3.5652    0.2204 H   0  0  0  0  0  0  0  0  0  0  0  0
   -5.5647   -0.3740    1.3107 H   0  0  0  0  0  0  0  0  0  0  0  0
    2.1590    2.9426   -0.1860 H   0  0  0  0  0  0  0  0  0  0  0  0
    3.9671    4.6429   -0.2678 H   0  0  0  0  0  0  0  0  0  0  0  0
    6.8366    1.5343   -0.3585 H   0  0  0  0  0  0  0  0  0  0  0  0
    5.0258   -0.1454   -0.2765 H   0  0  0  0  0  0  0  0  0  0  0  0
  1  2  1  0
  2  3  1  0
  3  4  2  0
  4  5  1  0
  5  6  2  0
  6  7  1  0
  7  8  1  0
  8  9  2  0
  9 10  1  0
 10 11  2  0
 11 12  1  0
 12 13  2  0
 13 14  1  0
 14 15  2  0
 10 16  1  0
 16 17  2  0
 17 18  1  0
 18 19  2  0
 19 20  1  0
 20 21  2  0
  5 22  1  0
 22 23  2  0
 23 24  1  0
 24 25  2  0
 25 26  1  0
 25 27  1  0
 27 28  2  0
 14  2  1  0
 21 16  1  0
 28 22  1  0
  7  3  1  0
 13  8  1  0
  1 29  1  0
  1 30  1  0
  1 31  1  0
  4 32  1  0
  9 33  1  0
 11 34  1  0
 12 35  1  0
 17 36  1  0
 18 37  1  0
 19 38  1  0
 21 39  1  0
 23 40  1  0
 24 41  1  0
 27 42  1  0
 28 43  1  0
M  END
$$$$
[H]OC(=O)[C@@]1([H])C([H])([H])[C@]1([H])[C@@](C(=O)O[H])(N([H])[H])C([H])([H])C1([H])c2c([H])c([H])c([H])c([H])c2Oc2c([H])c([H])c([H])c([H])c21
     RDKit          3D

 45 48  0  0  0  0  0  0  0  0999 V2000
    1.5350   -1.1801    1.6184 N   0  0  0  0  0  0  0  0  0  0  0  0
    1.2357   -0.8030    0.2494 C   0  0  1  0  0  0  0  0  0  0  0  0
    0.1699    0.1678    0.1635 C   0  0  0  0  0  0  0  0  0  0  0  0
   -1.2295    0.0090    0.6901 C   0  0  0  0  0  0  0  0  0  0  0  0
   -1.8234    1.3542    0.3185 C   0  0  0  0  0  0  0  0  0  0  0  0
   -1.2844    2.4728    0.9785 C   0  0  0  0  0  0  0  0  0  0  0  0
   -1.6679    3.7266    0.5877 C   0  0  0  0  0  0  0  0  0  0  0  0
   -2.5735    3.8804   -0.4424 C   0  0  0  0  0  0  0  0  0  0  0  0
   -3.0930    2.7772   -1.0746 C   0  0  0  0  0  0  0  0  0  0  0  0
   -2.7109    1.4899   -0.6826 C   0  0  0  0  0  0  0  0  0  0  0  0
   -3.2656    0.3964   -1.3173 O   0  0  0  0  0  0  0  0  0  0  0  0
   -2.8994   -0.8884   -0.9008 C   0  0  0  0  0  0  0  0  0  0  0  0
   -3.5096   -1.9772   -1.5263 C   0  0  0  0  0  0  0  0  0  0  0  0
   -3.2297   -3.2507   -1.1444 C   0  0  0  0  0  0  0  0  0  0  0  0
   -2.3277   -3.4491   -0.1216 C   0  0  0  0  0  0  0  0  0  0  0  0
   -1.7085   -2.4151    0.5113 C   0  0  0  0  0  0  0  0  0  0  0  0
   -1.9987   -1.0894    0.1051 C   0  0  0  0  0  0  0  0  0  0  0  0
    2.5155    0.0102   -0.2369 C   0  0  1  0  0  0  0  0  0  0  0  0
    2.7617    1.2006    0.6283 C   0  0  0  0  0  0  0  0  0  0  0  0
    3.7050    0.0246    0.5953 C   0  0  2  0  0  0  0  0  0  0  0  0
    5.0234    0.2742   -0.0194 C   0  0  0  0  0  0  0  0  0  0  0  0
    5.1424    1.0536   -1.1610 O   0  0  0  0  0  0  0  0  0  0  0  0
    6.0724   -0.2124    0.4749 O   0  0  0  0  0  0  0  0  0  0  0  0
    1.2562   -1.9690   -0.6483 C   0  0  0  0  0  0  0  0  0  0  0  0
    0.8471   -1.8974   -1.9699 O   0  0  0  0  0  0  0  0  0  0  0  0
    1.6604   -3.1127   -0.2378 O   0  0  0  0  0  0  0  0  0  0  0  0
    1.6269   -0.3933    2.2657 H   0  0  0  0  0  0  0  0  0  0  0  0
    2.1987   -1.9507    1.7171 H   0  0  0  0  0  0  0  0  0  0  0  0
   -0.0010    0.4859   -0.9335 H   0  0  0  0  0  0  0  0  0  0  0  0
    0.5630    1.1432    0.6298 H   0  0  0  0  0  0  0  0  0  0  0  0
   -1.2580   -0.1036    1.7974 H   0  0  0  0  0  0  0  0  0  0  0  0
   -0.5929    2.2790    1.7759 H   0  0  0  0  0  0  0  0  0  0  0  0
   -1.2432    4.5951    1.1068 H   0  0  0  0  0  0  0  0  0  0  0  0
   -2.8885    4.8598   -0.7688 H   0  0  0  0  0  0  0  0  0  0  0  0
   -3.7975    2.8441   -1.8776 H   0  0  0  0  0  0  0  0  0  0  0  0
   -4.2023   -1.7748   -2.3135 H   0  0  0  0  0  0  0  0  0  0  0  0
   -3.6789   -4.1059   -1.6030 H   0  0  0  0  0  0  0  0  0  0  0  0
   -2.0847   -4.4569    0.2104 H   0  0  0  0  0  0  0  0  0  0  0  0
   -1.0179   -2.5644    1.3384 H   0  0  0  0  0  0  0  0  0  0  0  0
    2.5556    0.0538   -1.3127 H   0  0  0  0  0  0  0  0  0  0  0  0
    2.2652    1.4050    1.5709 H   0  0  0  0  0  0  0  0  0  0  0  0
    3.0593    2.1122    0.0715 H   0  0  0  0  0  0  0  0  0  0  0  0
    3.7267   -0.6188    1.5145 H   0  0  0  0  0  0  0  0  0  0  0  0
    4.7995    2.0058   -1.1528 H   0  0  0  0  0  0  0  0  0  0  0  0
    1.3667   -2.4083   -2.6720 H   0  0  0  0  0  0  0  0  0  0  0  0
  1  2  1  0
  2  3  1  0
  3  4  1  0
  4  5  1  0
  5  6  2  0
  6  7  1  0
  7  8  2  0
  8  9  1  0
  9 10  2  0
 10 11  1  0
 11 12  1  0
 12 13  2  0
 13 14  1  0
 14 15  2  0
 15 16  1  0
 16 17  2  0
  2 18  1  0
 18 19  1  0
 19 20  1  0
 20 21  1  0
 21 22  1  0
 21 23  2  0
  2 24  1  6
 24 25  1  0
 24 26  2  0
 17  4  1  0
 20 18  1  0
 10  5  1  0
 17 12  1  0
  1 27  1  0
  1 28  1  0
  3 29  1  0
  3 30  1  0
  4 31  1  0
  6 32  1  0
  7 33  1  0
  8 34  1  0
  9 35  1  0
 13 36  1  0
 14 37  1  0
 15 38  1  0
 16 39  1  0
 18 40  1  6
 19 41  1  0
 19 42  1  0
 20 43  1  1
 22 44  1  0
 25 45  1  0
M  END
$$$$
[H]c1nc(C([H])([H])[H])c([H])c(-c2c([H])c([H])c([H])c(C3=Nc4c([H])c([H])c(C(F)(F)F)c([H])c4N([H])C(=O)C3([H])[H])c2[H])c1[H]
     RDKit          3D

 45 48  0  0  0  0  0  0  0  0999 V2000
   -7.4771    0.0275    1.3516 C   0  0  0  0  0  0  0  0  0  0  0  0
   -6.2681    0.6352    0.7360 C   0  0  0  0  0  0  0  0  0  0  0  0
   -5.1361   -0.1316    0.5160 C   0  0  0  0  0  0  0  0  0  0  0  0
   -4.0095    0.4246   -0.0513 C   0  0  0  0  0  0  0  0  0  0  0  0
   -4.0144    1.7638   -0.4057 C   0  0  0  0  0  0  0  0  0  0  0  0
   -5.1592    2.4809   -0.1686 C   0  0  0  0  0  0  0  0  0  0  0  0
   -6.2432    1.9466    0.3794 N   0  0  0  0  0  0  0  0  0  0  0  0
   -2.8312   -0.4164   -0.2450 C   0  0  0  0  0  0  0  0  0  0  0  0
   -2.9514   -1.7461   -0.5124 C   0  0  0  0  0  0  0  0  0  0  0  0
   -1.7907   -2.4770   -0.6807 C   0  0  0  0  0  0  0  0  0  0  0  0
   -0.5699   -1.8760   -0.5840 C   0  0  0  0  0  0  0  0  0  0  0  0
   -0.4191   -0.5122   -0.3090 C   0  0  0  0  0  0  0  0  0  0  0  0
   -1.5688    0.1977   -0.1431 C   0  0  0  0  0  0  0  0  0  0  0  0
    0.9324    0.0250   -0.2001 C   0  0  0  0  0  0  0  0  0  0  0  0
    1.8929   -0.8721   -0.2983 N   0  0  0  0  0  0  0  0  0  0  0  0
    3.2958   -0.7106   -0.2448 C   0  0  0  0  0  0  0  0  0  0  0  0
    3.9704   -1.8120    0.2646 C   0  0  0  0  0  0  0  0  0  0  0  0
    5.3445   -1.7615    0.3666 C   0  0  0  0  0  0  0  0  0  0  0  0
    6.0808   -0.6516   -0.0210 C   0  0  0  0  0  0  0  0  0  0  0  0
    5.4269    0.4469   -0.5273 C   0  0  0  0  0  0  0  0  0  0  0  0
    4.0634    0.3976   -0.6282 C   0  0  0  0  0  0  0  0  0  0  0  0
    3.4655    1.5949   -1.1637 N   0  0  0  0  0  0  0  0  0  0  0  0
    2.1146    2.0220   -1.0278 C   0  0  0  0  0  0  0  0  0  0  0  0
    1.7238    2.9109   -1.8122 O   0  0  0  0  0  0  0  0  0  0  0  0
    1.1389    1.4759   -0.0208 C   0  0  0  0  0  0  0  0  0  0  0  0
    7.5850   -0.6734    0.1197 C   0  0  0  0  0  0  0  0  0  0  0  0
    7.8584    0.2044    1.1794 F   0  0  0  0  0  0  0  0  0  0  0  0
    8.1095   -0.0755   -1.0008 F   0  0  0  0  0  0  0  0  0  0  0  0
    8.0417   -1.9358    0.3464 F   0  0  0  0  0  0  0  0  0  0  0  0
   -8.3558    0.2509    0.7019 H   0  0  0  0  0  0  0  0  0  0  0  0
   -7.6696    0.4032    2.3722 H   0  0  0  0  0  0  0  0  0  0  0  0
   -7.3539   -1.0673    1.4063 H   0  0  0  0  0  0  0  0  0  0  0  0
   -5.1776   -1.1603    0.8107 H   0  0  0  0  0  0  0  0  0  0  0  0
   -3.1587    2.2368   -0.8478 H   0  0  0  0  0  0  0  0  0  0  0  0
   -5.1559    3.5477   -0.4387 H   0  0  0  0  0  0  0  0  0  0  0  0
   -3.9395   -2.2162   -0.5888 H   0  0  0  0  0  0  0  0  0  0  0  0
   -1.9243   -3.5375   -0.8851 H   0  0  0  0  0  0  0  0  0  0  0  0
    0.3363   -2.4794   -0.7314 H   0  0  0  0  0  0  0  0  0  0  0  0
   -1.5126    1.2610    0.0622 H   0  0  0  0  0  0  0  0  0  0  0  0
    3.4185   -2.6863    0.5716 H   0  0  0  0  0  0  0  0  0  0  0  0
    5.9101   -2.5845    0.7684 H   0  0  0  0  0  0  0  0  0  0  0  0
    5.9468    1.3392   -0.8377 H   0  0  0  0  0  0  0  0  0  0  0  0
    4.1402    2.1894   -1.7076 H   0  0  0  0  0  0  0  0  0  0  0  0
    1.6745    1.5844    0.9767 H   0  0  0  0  0  0  0  0  0  0  0  0
    0.2157    2.0169   -0.0451 H   0  0  0  0  0  0  0  0  0  0  0  0
  1  2  1  0
  2  3  2  0
  3  4  1  0
  4  5  2  0
  5  6  1  0
  6  7  2  0
  4  8  1  0
  8  9  2  0
  9 10  1  0
 10 11  2  0
 11 12  1  0
 12 13  2  0
 12 14  1  0
 14 15  2  0
 15 16  1  0
 16 17  2  0
 17 18  1  0
 18 19  2  0
 19 20  1  0
 20 21  2  0
 21 22  1  0
 22 23  1  0
 23 24  2  0
 23 25  1  0
 19 26  1  0
 26 27  1  0
 26 28  1  0
 26 29  1  0
  7  2  1  0
 13  8  1  0
 25 14  1  0
 21 16  1  0
  1 30  1  0
  1 31  1  0
  1 32  1  0
  3 33  1  0
  5 34  1  0
  6 35  1  0
  9 36  1  0
 10 37  1  0
 11 38  1  0
 13 39  1  0
 17 40  1  0
 18 41  1  0
 20 42  1  0
 22 43  1  0
 25 44  1  0
 25 45  1  0
M  END
$$$$
[H]OC(=O)[C@]1(N([H])[H])C([H])([H])C([H])([H])[C@@]2([H])[C@](F)(C(=O)O[H])[C@@]12[H]
     RDKit          3D

 24 25  0  0  0  0  0  0  0  0999 V2000
   -1.6261    1.5254   -0.1851 N   0  0  0  0  0  0  0  0  0  0  0  0
   -1.0602    0.2708    0.1756 C   0  0  1  0  0  0  0  0  0  0  0  0
   -0.8519   -0.6078   -1.0914 C   0  0  0  0  0  0  0  0  0  0  0  0
    0.2834   -1.4642   -0.6635 C   0  0  0  0  0  0  0  0  0  0  0  0
    1.1950   -0.6457    0.1953 C   0  0  2  0  0  0  0  0  0  0  0  0
    0.3317    0.4217    0.7486 C   0  0  1  0  0  0  0  0  0  0  0  0
    1.4219    0.8314   -0.1129 C   0  0  2  0  0  0  0  0  0  0  0  0
    1.2847    1.0715   -1.4899 F   0  0  0  0  0  0  0  0  0  0  0  0
    2.7637    1.2245    0.3559 C   0  0  0  0  0  0  0  0  0  0  0  0
    3.9066    0.6173   -0.0776 O   0  0  0  0  0  0  0  0  0  0  0  0
    2.8705    2.1890    1.2382 O   0  0  0  0  0  0  0  0  0  0  0  0
   -1.9636   -0.5343    1.0117 C   0  0  0  0  0  0  0  0  0  0  0  0
   -3.3203   -0.5687    0.6975 O   0  0  0  0  0  0  0  0  0  0  0  0
   -1.5643   -1.2176    2.0259 O   0  0  0  0  0  0  0  0  0  0  0  0
   -1.7807    2.0623    0.6821 H   0  0  0  0  0  0  0  0  0  0  0  0
   -2.4978    1.4382   -0.7164 H   0  0  0  0  0  0  0  0  0  0  0  0
   -0.7501   -0.0299   -2.0025 H   0  0  0  0  0  0  0  0  0  0  0  0
   -1.7901   -1.2257   -1.2638 H   0  0  0  0  0  0  0  0  0  0  0  0
   -0.1630   -2.2453    0.0373 H   0  0  0  0  0  0  0  0  0  0  0  0
    0.7493   -2.0430   -1.4619 H   0  0  0  0  0  0  0  0  0  0  0  0
    1.9372   -1.2174    0.7375 H   0  0  0  0  0  0  0  0  0  0  0  0
    0.3630    0.5850    1.8594 H   0  0  0  0  0  0  0  0  0  0  0  0
    3.9252   -0.3649   -0.3689 H   0  0  0  0  0  0  0  0  0  0  0  0
   -3.6638   -0.0723   -0.0875 H   0  0  0  0  0  0  0  0  0  0  0  0
  1  2  1  0
  2  3  1  0
  3  4  1  0
  4  5  1  0
  5  6  1  0
  6  7  1  0
  7  8  1  6
  7  9  1  0
  9 10  1  0
  9 11  2  0
  2 12  1  1
 12 13  1  0
 12 14  2  0
  6  2  1  0
  7  5  1  0
  1 15  1  0
  1 16  1  0
  3 17  1  0
  3 18  1  0
  4 19  1  0
  4 20  1  0
  5 21  1  1
  6 22  1  1
 10 23  1  0
 13 24  1  0
M  END
$$$$
[H]c1nnn(-c2c([H])c([H])c([H])c(C3=Nc4c([H])c([H])c(-c5c([H])c([H])c([H])c([H])c5F)c([H])c4N([H])C(=O)C3([H])[H])c2[H])c1[H]
     RDKit          3D

 46 50  0  0  0  0  0  0  0  0999 V2000
   -5.0635   -0.4608    2.2394 F   0  0  0  0  0  0  0  0  0  0  0  0
   -5.8477   -0.0075    1.2310 C   0  0  0  0  0  0  0  0  0  0  0  0
   -7.2061   -0.0617    1.3771 C   0  0  0  0  0  0  0  0  0  0  0  0
   -7.9842    0.4096    0.3414 C   0  0  0  0  0  0  0  0  0  0  0  0
   -7.3791    0.9157   -0.7979 C   0  0  0  0  0  0  0  0  0  0  0  0
   -6.0157    0.9687   -0.9418 C   0  0  0  0  0  0  0  0  0  0  0  0
   -5.2245    0.4916    0.1066 C   0  0  0  0  0  0  0  0  0  0  0  0
   -3.7687    0.5200    0.0032 C   0  0  0  0  0  0  0  0  0  0  0  0
   -3.0763    1.6327   -0.4170 C   0  0  0  0  0  0  0  0  0  0  0  0
   -1.6980    1.6549   -0.5192 C   0  0  0  0  0  0  0  0  0  0  0  0
   -0.9596    0.5467   -0.1989 C   0  0  0  0  0  0  0  0  0  0  0  0
    0.4396    0.7080   -0.3496 N   0  0  0  0  0  0  0  0  0  0  0  0
    1.4143   -0.0947   -0.1263 C   0  0  0  0  0  0  0  0  0  0  0  0
    1.4929   -1.4799    0.3657 C   0  0  0  0  0  0  0  0  0  0  0  0
    0.2816   -2.0913    0.8586 C   0  0  0  0  0  0  0  0  0  0  0  0
    0.4665   -3.0488    1.6748 O   0  0  0  0  0  0  0  0  0  0  0  0
   -1.0820   -1.8272    0.6051 N   0  0  0  0  0  0  0  0  0  0  0  0
   -1.6336   -0.5803    0.2247 C   0  0  0  0  0  0  0  0  0  0  0  0
   -3.0269   -0.5915    0.3242 C   0  0  0  0  0  0  0  0  0  0  0  0
    2.7527    0.4643   -0.4177 C   0  0  0  0  0  0  0  0  0  0  0  0
    2.8481    1.7684   -0.8839 C   0  0  0  0  0  0  0  0  0  0  0  0
    4.0713    2.3324   -1.1710 C   0  0  0  0  0  0  0  0  0  0  0  0
    5.2287    1.5767   -0.9888 C   0  0  0  0  0  0  0  0  0  0  0  0
    5.1682    0.2778   -0.5270 C   0  0  0  0  0  0  0  0  0  0  0  0
    3.9094   -0.2258   -0.2585 C   0  0  0  0  0  0  0  0  0  0  0  0
    6.3581   -0.4578   -0.3541 N   0  0  0  0  0  0  0  0  0  0  0  0
    6.8832   -0.8799    0.8053 C   0  0  0  0  0  0  0  0  0  0  0  0
    8.0539   -1.5659    0.5547 C   0  0  0  0  0  0  0  0  0  0  0  0
    8.1961   -1.5318   -0.7806 N   0  0  0  0  0  0  0  0  0  0  0  0
    7.1685   -0.8639   -1.2922 N   0  0  0  0  0  0  0  0  0  0  0  0
   -7.6919   -0.4615    2.2775 H   0  0  0  0  0  0  0  0  0  0  0  0
   -9.0583    0.3713    0.4466 H   0  0  0  0  0  0  0  0  0  0  0  0
   -8.0157    1.2816   -1.6014 H   0  0  0  0  0  0  0  0  0  0  0  0
   -5.5098    1.3563   -1.8150 H   0  0  0  0  0  0  0  0  0  0  0  0
   -3.6760    2.5007   -0.6663 H   0  0  0  0  0  0  0  0  0  0  0  0
   -1.1997    2.5433   -0.8509 H   0  0  0  0  0  0  0  0  0  0  0  0
    2.0188   -2.0615   -0.4244 H   0  0  0  0  0  0  0  0  0  0  0  0
    2.2238   -1.4519    1.2369 H   0  0  0  0  0  0  0  0  0  0  0  0
   -1.7437   -2.6402    0.7115 H   0  0  0  0  0  0  0  0  0  0  0  0
   -3.4844   -1.5048    0.6578 H   0  0  0  0  0  0  0  0  0  0  0  0
    1.9331    2.3565   -1.0247 H   0  0  0  0  0  0  0  0  0  0  0  0
    4.1556    3.3576   -1.5382 H   0  0  0  0  0  0  0  0  0  0  0  0
    6.1874    2.0244   -1.2158 H   0  0  0  0  0  0  0  0  0  0  0  0
    3.8847   -1.2421    0.0995 H   0  0  0  0  0  0  0  0  0  0  0  0
    6.4703   -0.7185    1.7894 H   0  0  0  0  0  0  0  0  0  0  0  0
    8.7385   -2.0409    1.2302 H   0  0  0  0  0  0  0  0  0  0  0  0
  1  2  1  0
  2  3  2  0
  3  4  1  0
  4  5  2  0
  5  6  1  0
  6  7  2  0
  7  8  1  0
  8  9  2  0
  9 10  1  0
 10 11  2  0
 11 12  1  0
 12 13  2  0
 13 14  1  0
 14 15  1  0
 15 16  2  0
 15 17  1  0
 17 18  1  0
 18 19  2  0
 13 20  1  0
 20 21  2  0
 21 22  1  0
 22 23  2  0
 23 24  1  0
 24 25  2  0
 24 26  1  0
 26 27  1  0
 27 28  2  0
 28 29  1  0
 29 30  2  0
  7  2  1  0
 19  8  1  0
 25 20  1  0
 30 26  1  0
 18 11  1  0
  3 31  1  0
  4 32  1  0
  5 33  1  0
  6 34  1  0
  9 35  1  0
 10 36  1  0
 14 37  1  0
 14 38  1  0
 17 39  1  0
 19 40  1  0
 21 41  1  0
 22 42  1  0
 23 43  1  0
 25 44  1  0
 27 45  1  0
 28 46  1  0
M  END
$$$$
[H]OC(=O)C(N([H])[H])(C([H])([H])C1([H])c2c([H])c([H])c([H])c([H])c2Oc2c([H])c([H])c([H])c([H])c21)[C@]1([H])[C@@]([H])(C(=O)O[H])[C@@]1([H])C([H])([H])C([H])(C([H])([H])[H])C([H])([H])[H]
     RDKit          3D

 57 60  0  0  0  0  0  0  0  0999 V2000
   -3.6267   -0.8756   -2.9871 C   0  0  0  0  0  0  0  0  0  0  0  0
   -4.2037   -0.2380   -1.7361 C   0  0  0  0  0  0  0  0  0  0  0  0
   -5.5018    0.4455   -2.1911 C   0  0  0  0  0  0  0  0  0  0  0  0
   -3.3286    0.8374   -1.1901 C   0  0  0  0  0  0  0  0  0  0  0  0
   -1.9537    0.4181   -0.7906 C   0  0  2  0  0  0  0  0  0  0  0  0
   -1.7064   -0.5924    0.2688 C   0  0  1  0  0  0  0  0  0  0  0  0
   -1.3991    0.8807    0.4740 C   0  0  1  0  0  0  0  0  0  0  0  0
    0.1149    1.2647    0.5655 C   0  0  0  0  0  0  0  0  0  0  0  0
    0.2011    1.6543    1.9865 N   0  0  0  0  0  0  0  0  0  0  0  0
    0.9423    0.1706    0.1580 C   0  0  0  0  0  0  0  0  0  0  0  0
    2.4433    0.2436    0.0662 C   0  0  0  0  0  0  0  0  0  0  0  0
    3.2010    0.5331    1.2816 C   0  0  0  0  0  0  0  0  0  0  0  0
    3.1931    1.8505    1.8013 C   0  0  0  0  0  0  0  0  0  0  0  0
    3.7727    2.0935    3.0136 C   0  0  0  0  0  0  0  0  0  0  0  0
    4.3752    1.1171    3.7700 C   0  0  0  0  0  0  0  0  0  0  0  0
    4.3763   -0.1465    3.2401 C   0  0  0  0  0  0  0  0  0  0  0  0
    3.8049   -0.4680    2.0006 C   0  0  0  0  0  0  0  0  0  0  0  0
    3.9184   -1.7811    1.5537 O   0  0  0  0  0  0  0  0  0  0  0  0
    3.4102   -2.0920    0.3075 C   0  0  0  0  0  0  0  0  0  0  0  0
    3.5263   -3.3989   -0.2065 C   0  0  0  0  0  0  0  0  0  0  0  0
    3.0520   -3.7298   -1.4558 C   0  0  0  0  0  0  0  0  0  0  0  0
    2.4493   -2.7565   -2.2202 C   0  0  0  0  0  0  0  0  0  0  0  0
    2.3319   -1.4677   -1.7118 C   0  0  0  0  0  0  0  0  0  0  0  0
    2.8126   -1.1516   -0.4486 C   0  0  0  0  0  0  0  0  0  0  0  0
    0.2043    2.4642   -0.2977 C   0  0  0  0  0  0  0  0  0  0  0  0
    0.2731    3.7483    0.2763 O   0  0  0  0  0  0  0  0  0  0  0  0
    0.2202    2.3715   -1.5458 O   0  0  0  0  0  0  0  0  0  0  0  0
   -2.8082   -1.1058    1.1389 C   0  0  0  0  0  0  0  0  0  0  0  0
   -3.8420   -0.3071    1.5995 O   0  0  0  0  0  0  0  0  0  0  0  0
   -2.8035   -2.3139    1.4748 O   0  0  0  0  0  0  0  0  0  0  0  0
   -2.5953   -1.2099   -2.8676 H   0  0  0  0  0  0  0  0  0  0  0  0
   -3.8102   -0.1960   -3.8252 H   0  0  0  0  0  0  0  0  0  0  0  0
   -4.2525   -1.7969   -3.1670 H   0  0  0  0  0  0  0  0  0  0  0  0
   -4.5085   -1.0266   -1.0531 H   0  0  0  0  0  0  0  0  0  0  0  0
   -6.3437   -0.2551   -2.2209 H   0  0  0  0  0  0  0  0  0  0  0  0
   -5.7078    1.3162   -1.5102 H   0  0  0  0  0  0  0  0  0  0  0  0
   -5.2707    0.9078   -3.1815 H   0  0  0  0  0  0  0  0  0  0  0  0
   -3.3069    1.6628   -1.9312 H   0  0  0  0  0  0  0  0  0  0  0  0
   -3.8693    1.2607   -0.2926 H   0  0  0  0  0  0  0  0  0  0  0  0
   -1.2476    0.4089   -1.6616 H   0  0  0  0  0  0  0  0  0  0  0  0
   -0.9129   -1.3199    0.0364 H   0  0  0  0  0  0  0  0  0  0  0  0
   -2.0127    1.4829    1.1611 H   0  0  0  0  0  0  0  0  0  0  0  0
   -0.4760    2.4489    2.1024 H   0  0  0  0  0  0  0  0  0  0  0  0
   -0.2275    0.8363    2.5130 H   0  0  0  0  0  0  0  0  0  0  0  0
    0.5980   -0.2833   -0.8287 H   0  0  0  0  0  0  0  0  0  0  0  0
    0.7626   -0.7401    0.8547 H   0  0  0  0  0  0  0  0  0  0  0  0
    2.7664    0.9691   -0.7330 H   0  0  0  0  0  0  0  0  0  0  0  0
    2.7720    2.6717    1.2041 H   0  0  0  0  0  0  0  0  0  0  0  0
    3.7335    3.1279    3.3624 H   0  0  0  0  0  0  0  0  0  0  0  0
    4.8031    1.3792    4.7092 H   0  0  0  0  0  0  0  0  0  0  0  0
    4.8393   -0.9674    3.7895 H   0  0  0  0  0  0  0  0  0  0  0  0
    3.9971   -4.1577    0.3911 H   0  0  0  0  0  0  0  0  0  0  0  0
    3.1339   -4.7255   -1.8618 H   0  0  0  0  0  0  0  0  0  0  0  0
    2.0659   -2.9992   -3.2218 H   0  0  0  0  0  0  0  0  0  0  0  0
    1.8607   -0.7352   -2.3354 H   0  0  0  0  0  0  0  0  0  0  0  0
   -0.1843    4.4943   -0.2261 H   0  0  0  0  0  0  0  0  0  0  0  0
   -4.0559   -0.2218    2.5981 H   0  0  0  0  0  0  0  0  0  0  0  0
  1  2  1  0
  2  3  1  0
  2  4  1  0
  4  5  1  0
  5  6  1  0
  6  7  1  0
  7  8  1  0
  8  9  1  0
  8 10  1  0
 10 11  1  0
 11 12  1  0
 12 13  2  0
 13 14  1  0
 14 15  2  0
 15 16  1  0
 16 17  2  0
 17 18  1  0
 18 19  1  0
 19 20  2  0
 20 21  1  0
 21 22  2  0
 22 23  1  0
 23 24  2  0
  8 25  1  0
 25 26  1  0
 25 27  2  0
  6 28  1  0
 28 29  1  0
 28 30  2  0
  7  5  1  0
 24 11  1  0
 17 12  1  0
 24 19  1  0
  1 31  1  0
  1 32  1  0
  1 33  1  0
  2 34  1  0
  3 35  1  0
  3 36  1  0
  3 37  1  0
  4 38  1  0
  4 39  1  0
  5 40  1  6
  6 41  1  6
  7 42  1  1
  9 43  1  0
  9 44  1  0
 10 45  1  0
 10 46  1  0
 11 47  1  0
 13 48  1  0
 14 49  1  0
 15 50  1  0
 16 51  1  0
 20 52  1  0
 21 53  1  0
 22 54  1  0
 23 55  1  0
 26 56  1  0
 29 57  1  0
M  END
$$$$
[H]c1nc(C([H])([H])[H])c([H])c(-c2c([H])c([H])c([H])c(C3=Nc4c([H])c(Cl)c(Cl)c([H])c4N([H])C(=O)C3([H])[H])c2[H])c1[H]
     RDKit          3D

 42 45  0  0  0  0  0  0  0  0999 V2000
    6.4304    1.9111    0.2670 C   0  0  0  0  0  0  0  0  0  0  0  0
    5.1070    1.5323   -0.2987 C   0  0  0  0  0  0  0  0  0  0  0  0
    4.2506    0.6641    0.3468 C   0  0  0  0  0  0  0  0  0  0  0  0
    3.0147    0.3177   -0.1939 C   0  0  0  0  0  0  0  0  0  0  0  0
    2.7084    0.8973   -1.4083 C   0  0  0  0  0  0  0  0  0  0  0  0
    3.5763    1.7702   -2.0510 C   0  0  0  0  0  0  0  0  0  0  0  0
    4.7688    2.0760   -1.4832 N   0  0  0  0  0  0  0  0  0  0  0  0
    2.1077   -0.5993    0.4857 C   0  0  0  0  0  0  0  0  0  0  0  0
    2.5904   -1.6291    1.2728 C   0  0  0  0  0  0  0  0  0  0  0  0
    1.7169   -2.4853    1.9070 C   0  0  0  0  0  0  0  0  0  0  0  0
    0.3340   -2.3739    1.8009 C   0  0  0  0  0  0  0  0  0  0  0  0
   -0.1579   -1.3549    1.0216 C   0  0  0  0  0  0  0  0  0  0  0  0
    0.7499   -0.4937    0.3842 C   0  0  0  0  0  0  0  0  0  0  0  0
   -1.5731   -1.1459    0.8367 C   0  0  0  0  0  0  0  0  0  0  0  0
   -1.8564   -0.1234    0.0774 N   0  0  0  0  0  0  0  0  0  0  0  0
   -3.0466    0.4674   -0.3838 C   0  0  0  0  0  0  0  0  0  0  0  0
   -2.9779    1.7999   -0.7144 C   0  0  0  0  0  0  0  0  0  0  0  0
   -4.1001    2.4639   -1.1791 C   0  0  0  0  0  0  0  0  0  0  0  0
   -3.9899    4.1616   -1.5948 Cl  0  0  0  0  0  0  0  0  0  0  0  0
   -5.3054    1.7923   -1.3163 C   0  0  0  0  0  0  0  0  0  0  0  0
   -6.7409    2.6339   -1.9089 Cl  0  0  0  0  0  0  0  0  0  0  0  0
   -5.3772    0.4603   -0.9866 C   0  0  0  0  0  0  0  0  0  0  0  0
   -4.2600   -0.2013   -0.5237 C   0  0  0  0  0  0  0  0  0  0  0  0
   -4.5345   -1.5882   -0.2320 N   0  0  0  0  0  0  0  0  0  0  0  0
   -3.6828   -2.4127    0.5483 C   0  0  0  0  0  0  0  0  0  0  0  0
   -3.9344   -3.6377    0.4368 O   0  0  0  0  0  0  0  0  0  0  0  0
   -2.5562   -2.0208    1.4609 C   0  0  0  0  0  0  0  0  0  0  0  0
    6.3902    1.7805    1.3629 H   0  0  0  0  0  0  0  0  0  0  0  0
    7.1990    1.2113   -0.1153 H   0  0  0  0  0  0  0  0  0  0  0  0
    6.7109    2.9478   -0.0149 H   0  0  0  0  0  0  0  0  0  0  0  0
    4.5179    0.2302    1.2902 H   0  0  0  0  0  0  0  0  0  0  0  0
    1.7828    0.6825   -1.8860 H   0  0  0  0  0  0  0  0  0  0  0  0
    3.3232    2.2174   -3.0029 H   0  0  0  0  0  0  0  0  0  0  0  0
    3.6706   -1.7377    1.3721 H   0  0  0  0  0  0  0  0  0  0  0  0
    2.1040   -3.2939    2.5250 H   0  0  0  0  0  0  0  0  0  0  0  0
   -0.3159   -3.0660    2.3177 H   0  0  0  0  0  0  0  0  0  0  0  0
    0.3690    0.3132   -0.2326 H   0  0  0  0  0  0  0  0  0  0  0  0
   -2.0110    2.3147   -0.5981 H   0  0  0  0  0  0  0  0  0  0  0  0
   -6.2915   -0.1049   -1.0760 H   0  0  0  0  0  0  0  0  0  0  0  0
   -5.4234   -1.9850   -0.6323 H   0  0  0  0  0  0  0  0  0  0  0  0
   -2.2044   -2.9515    1.8922 H   0  0  0  0  0  0  0  0  0  0  0  0
   -3.0833   -1.4404    2.2846 H   0  0  0  0  0  0  0  0  0  0  0  0
  1  2  1  0
  2  3  2  0
  3  4  1  0
  4  5  2  0
  5  6  1  0
  6  7  2  0
  4  8  1  0
  8  9  2  0
  9 10  1  0
 10 11  2  0
 11 12  1  0
 12 13  2  0
 12 14  1  0
 14 15  2  0
 15 16  1  0
 16 17  2  0
 17 18  1  0
 18 19  1  0
 18 20  2  0
 20 21  1  0
 20 22  1  0
 22 23  2  0
 23 24  1  0
 24 25  1  0
 25 26  2  0
 25 27  1  0
  7  2  1  0
 13  8  1  0
 27 14  1  0
 23 16  1  0
  1 28  1  0
  1 29  1  0
  1 30  1  0
  3 31  1  0
  5 32  1  0
  6 33  1  0
  9 34  1  0
 10 35  1  0
 11 36  1  0
 13 37  1  0
 17 38  1  0
 22 39  1  0
 24 40  1  0
 27 41  1  0
 27 42  1  0
M  END
$$$$
[H]OC(=O)[C@@]([H])(N([H])[H])[C@]1([H])[C@@]([H])(C(=O)O[H])[C@]1([H])C([H])([H])[H]
     RDKit          3D

 23 23  0  0  0  0  0  0  0  0999 V2000
   -0.7290   -2.1130    0.2715 C   0  0  0  0  0  0  0  0  0  0  0  0
   -0.9386   -0.8280   -0.4500 C   0  0  2  0  0  0  0  0  0  0  0  0
   -0.0598    0.3232   -0.4919 C   0  0  2  0  0  0  0  0  0  0  0  0
    1.2872    0.4575    0.1189 C   0  0  2  0  0  0  0  0  0  0  0  0
    1.7261    1.8468   -0.1941 N   0  0  0  0  0  0  0  0  0  0  0  0
    2.3236   -0.4392   -0.4300 C   0  0  0  0  0  0  0  0  0  0  0  0
    2.2950   -1.8032   -0.2640 O   0  0  0  0  0  0  0  0  0  0  0  0
    3.2849    0.0353   -1.0799 O   0  0  0  0  0  0  0  0  0  0  0  0
   -1.2334    0.3946    0.4268 C   0  0  1  0  0  0  0  0  0  0  0  0
   -2.3772    1.2598    0.0937 C   0  0  0  0  0  0  0  0  0  0  0  0
   -2.7249    1.5746   -1.2149 O   0  0  0  0  0  0  0  0  0  0  0  0
   -3.0762    1.7408    1.0068 O   0  0  0  0  0  0  0  0  0  0  0  0
   -0.1507   -2.0315    1.1997 H   0  0  0  0  0  0  0  0  0  0  0  0
   -0.3515   -2.8777   -0.4263 H   0  0  0  0  0  0  0  0  0  0  0  0
   -1.7337   -2.5110    0.6035 H   0  0  0  0  0  0  0  0  0  0  0  0
   -1.7012   -0.9126   -1.2836 H   0  0  0  0  0  0  0  0  0  0  0  0
   -0.1848    0.9947   -1.4100 H   0  0  0  0  0  0  0  0  0  0  0  0
    1.2579    0.4314    1.2341 H   0  0  0  0  0  0  0  0  0  0  0  0
    2.7503    1.8855   -0.2157 H   0  0  0  0  0  0  0  0  0  0  0  0
    1.2554    2.5243    0.4163 H   0  0  0  0  0  0  0  0  0  0  0  0
    2.4112   -2.4936   -0.9740 H   0  0  0  0  0  0  0  0  0  0  0  0
   -1.0581    0.2181    1.5037 H   0  0  0  0  0  0  0  0  0  0  0  0
   -2.2723    2.3234   -1.7094 H   0  0  0  0  0  0  0  0  0  0  0  0
  1  2  1  0
  2  3  1  0
  3  4  1  0
  4  5  1  0
  4  6  1  0
  6  7  1  0
  6  8  2  0
  3  9  1  0
  9 10  1  0
 10 11  1  0
 10 12  2  0
  9  2  1  0
  1 13  1  0
  1 14  1  0
  1 15  1  0
  2 16  1  6
  3 17  1  6
  4 18  1  1
  5 19  1  0
  5 20  1  0
  7 21  1  0
  9 22  1  1
 11 23  1  0
M  END
$$$$
[H]OC(=O)[C@@]1([H])C([H])([H])[C@]1([H])[C@](C(=O)O[H])(N([H])[H])C([H])([H])C1([H])c2c([H])c([H])c([H])c([H])c2Oc2c([H])c([H])c([H])c([H])c21
     RDKit          3D

 45 48  0  0  0  0  0  0  0  0999 V2000
    1.1337   -1.8331   -0.9661 N   0  0  0  0  0  0  0  0  0  0  0  0
    1.2299   -0.7987    0.0167 C   0  0  2  0  0  0  0  0  0  0  0  0
    0.1481    0.1391    0.1987 C   0  0  0  0  0  0  0  0  0  0  0  0
   -1.2405   -0.1301    0.6301 C   0  0  0  0  0  0  0  0  0  0  0  0
   -1.8513    1.2647    0.5782 C   0  0  0  0  0  0  0  0  0  0  0  0
   -1.3028    2.2731    1.3605 C   0  0  0  0  0  0  0  0  0  0  0  0
   -1.7449    3.5823    1.2529 C   0  0  0  0  0  0  0  0  0  0  0  0
   -2.7424    3.9153    0.3651 C   0  0  0  0  0  0  0  0  0  0  0  0
   -3.2855    2.9324   -0.4008 C   0  0  0  0  0  0  0  0  0  0  0  0
   -2.8403    1.5961   -0.2935 C   0  0  0  0  0  0  0  0  0  0  0  0
   -3.4565    0.6476   -1.0882 O   0  0  0  0  0  0  0  0  0  0  0  0
   -3.0592   -0.6753   -0.9862 C   0  0  0  0  0  0  0  0  0  0  0  0
   -3.7159   -1.6311   -1.7649 C   0  0  0  0  0  0  0  0  0  0  0  0
   -3.3893   -2.9581   -1.6811 C   0  0  0  0  0  0  0  0  0  0  0  0
   -2.4086   -3.3634   -0.8256 C   0  0  0  0  0  0  0  0  0  0  0  0
   -1.7752   -2.4064   -0.0732 C   0  0  0  0  0  0  0  0  0  0  0  0
   -2.0611   -1.0469   -0.1217 C   0  0  0  0  0  0  0  0  0  0  0  0
    2.4329    0.0582   -0.4586 C   0  0  1  0  0  0  0  0  0  0  0  0
    2.8382    1.2187    0.3330 C   0  0  0  0  0  0  0  0  0  0  0  0
    3.7285   -0.0186    0.2839 C   0  0  2  0  0  0  0  0  0  0  0  0
    5.0001    0.1832   -0.4591 C   0  0  0  0  0  0  0  0  0  0  0  0
    5.0234    0.9677   -1.5935 O   0  0  0  0  0  0  0  0  0  0  0  0
    6.0587   -0.3509   -0.0699 O   0  0  0  0  0  0  0  0  0  0  0  0
    1.7019   -1.4339    1.2944 C   0  0  0  0  0  0  0  0  0  0  0  0
    2.0962   -2.7565    1.2535 O   0  0  0  0  0  0  0  0  0  0  0  0
    1.7372   -0.7801    2.3708 O   0  0  0  0  0  0  0  0  0  0  0  0
    1.3420   -1.4991   -1.9332 H   0  0  0  0  0  0  0  0  0  0  0  0
    1.8254   -2.5845   -0.7509 H   0  0  0  0  0  0  0  0  0  0  0  0
    0.0968    0.7710   -0.7663 H   0  0  0  0  0  0  0  0  0  0  0  0
    0.5388    0.9361    0.9209 H   0  0  0  0  0  0  0  0  0  0  0  0
   -1.2323   -0.3448    1.7422 H   0  0  0  0  0  0  0  0  0  0  0  0
   -0.5427    2.0469    2.0663 H   0  0  0  0  0  0  0  0  0  0  0  0
   -1.3294    4.3829    1.8539 H   0  0  0  0  0  0  0  0  0  0  0  0
   -3.0797    4.9369    0.2854 H   0  0  0  0  0  0  0  0  0  0  0  0
   -4.0646    3.1512   -1.1037 H   0  0  0  0  0  0  0  0  0  0  0  0
   -4.4923   -1.3043   -2.4399 H   0  0  0  0  0  0  0  0  0  0  0  0
   -3.8849   -3.7281   -2.2780 H   0  0  0  0  0  0  0  0  0  0  0  0
   -2.1204   -4.4235   -0.7286 H   0  0  0  0  0  0  0  0  0  0  0  0
   -1.0231   -2.8121    0.6307 H   0  0  0  0  0  0  0  0  0  0  0  0
    2.5465    0.1560   -1.5660 H   0  0  0  0  0  0  0  0  0  0  0  0
    2.4706    1.4235    1.3577 H   0  0  0  0  0  0  0  0  0  0  0  0
    3.2136    2.1317   -0.1703 H   0  0  0  0  0  0  0  0  0  0  0  0
    3.8147   -0.6650    1.1810 H   0  0  0  0  0  0  0  0  0  0  0  0
    4.6869    1.9248   -1.5823 H   0  0  0  0  0  0  0  0  0  0  0  0
    2.9792   -3.0949    0.9282 H   0  0  0  0  0  0  0  0  0  0  0  0
  1  2  1  0
  2  3  1  0
  3  4  1  0
  4  5  1  0
  5  6  2  0
  6  7  1  0
  7  8  2  0
  8  9  1  0
  9 10  2  0
 10 11  1  0
 11 12  1  0
 12 13  2  0
 13 14  1  0
 14 15  2  0
 15 16  1  0
 16 17  2  0
  2 18  1  0
 18 19  1  0
 19 20  1  0
 20 21  1  0
 21 22  1  0
 21 23  2  0
  2 24  1  1
 24 25  1  0
 24 26  2  0
 17  4  1  0
 20 18  1  0
 10  5  1  0
 17 12  1  0
  1 27  1  0
  1 28  1  0
  3 29  1  0
  3 30  1  0
  4 31  1  0
  6 32  1  0
  7 33  1  0
  8 34  1  0
  9 35  1  0
 13 36  1  0
 14 37  1  0
 15 38  1  0
 16 39  1  0
 18 40  1  6
 19 41  1  0
 19 42  1  0
 20 43  1  1
 22 44  1  0
 25 45  1  0
M  END
$$$$
[H]OC(=O)[C@@]1(F)[C@]2([H])C([H])([H])[C@@]([H])(OC([H])([H])c3c([H])c([H])c4c([H])c([H])c([H])c([H])c4c3[H])[C@](C(=O)O[H])(N([H])[H])[C@]12[H]
     RDKit          3D

 44 47  0  0  0  0  0  0  0  0999 V2000
   -2.4565   -0.9756   -1.6681 N   0  0  0  0  0  0  0  0  0  0  0  0
   -2.4915   -0.8956   -0.2594 C   0  0  2  0  0  0  0  0  0  0  0  0
   -3.4045    0.1509    0.2953 C   0  0  1  0  0  0  0  0  0  0  0  0
   -2.5888    1.2687    0.8084 C   0  0  1  0  0  0  0  0  0  0  0  0
   -1.1350    0.8936    0.6449 C   0  0  0  0  0  0  0  0  0  0  0  0
   -1.1036   -0.5758    0.2612 C   0  0  1  0  0  0  0  0  0  0  0  0
   -0.7450   -1.3641    1.3231 O   0  0  0  0  0  0  0  0  0  0  0  0
    0.4384   -2.0605    1.1634 C   0  0  0  0  0  0  0  0  0  0  0  0
    1.6100   -1.1713    0.9734 C   0  0  0  0  0  0  0  0  0  0  0  0
    2.0804   -0.4762    2.0926 C   0  0  0  0  0  0  0  0  0  0  0  0
    3.1695    0.3418    1.9353 C   0  0  0  0  0  0  0  0  0  0  0  0
    3.8055    0.4976    0.7250 C   0  0  0  0  0  0  0  0  0  0  0  0
    4.8851    1.3287    0.6394 C   0  0  0  0  0  0  0  0  0  0  0  0
    5.5121    1.4731   -0.5853 C   0  0  0  0  0  0  0  0  0  0  0  0
    5.0278    0.7709   -1.6905 C   0  0  0  0  0  0  0  0  0  0  0  0
    3.9442   -0.0624   -1.6016 C   0  0  0  0  0  0  0  0  0  0  0  0
    3.3235   -0.2012   -0.3748 C   0  0  0  0  0  0  0  0  0  0  0  0
    2.2325   -1.0271   -0.2395 C   0  0  0  0  0  0  0  0  0  0  0  0
   -3.4373    1.4661   -0.4064 C   0  0  1  0  0  0  0  0  0  0  0  0
   -2.7172    1.5619   -1.5805 F   0  0  0  0  0  0  0  0  0  0  0  0
   -4.6015    2.3500   -0.2890 C   0  0  0  0  0  0  0  0  0  0  0  0
   -4.9167    3.2110   -1.3230 O   0  0  0  0  0  0  0  0  0  0  0  0
   -5.3059    2.3164    0.7563 O   0  0  0  0  0  0  0  0  0  0  0  0
   -2.8507   -2.2545    0.2726 C   0  0  0  0  0  0  0  0  0  0  0  0
   -3.0853   -3.3292   -0.5765 O   0  0  0  0  0  0  0  0  0  0  0  0
   -2.9528   -2.4704    1.5104 O   0  0  0  0  0  0  0  0  0  0  0  0
   -3.1431   -1.5558   -2.1335 H   0  0  0  0  0  0  0  0  0  0  0  0
   -1.5898   -0.7597   -2.1415 H   0  0  0  0  0  0  0  0  0  0  0  0
   -4.2836   -0.1427    0.9185 H   0  0  0  0  0  0  0  0  0  0  0  0
   -2.8814    1.8472    1.7028 H   0  0  0  0  0  0  0  0  0  0  0  0
   -0.6230    1.0574    1.6018 H   0  0  0  0  0  0  0  0  0  0  0  0
   -0.6829    1.5371   -0.1542 H   0  0  0  0  0  0  0  0  0  0  0  0
   -0.3534   -0.6611   -0.5460 H   0  0  0  0  0  0  0  0  0  0  0  0
    0.6141   -2.6971    2.0605 H   0  0  0  0  0  0  0  0  0  0  0  0
    0.3599   -2.7223    0.2631 H   0  0  0  0  0  0  0  0  0  0  0  0
    1.5900   -0.5864    3.0601 H   0  0  0  0  0  0  0  0  0  0  0  0
    3.5564    0.8986    2.8037 H   0  0  0  0  0  0  0  0  0  0  0  0
    5.2229    1.8497    1.5192 H   0  0  0  0  0  0  0  0  0  0  0  0
    6.3685    2.1318   -0.6549 H   0  0  0  0  0  0  0  0  0  0  0  0
    5.5115    0.8789   -2.6471 H   0  0  0  0  0  0  0  0  0  0  0  0
    3.5681   -0.6063   -2.4551 H   0  0  0  0  0  0  0  0  0  0  0  0
    1.8771   -1.5631   -1.1229 H   0  0  0  0  0  0  0  0  0  0  0  0
   -5.0713    4.2002   -1.2134 H   0  0  0  0  0  0  0  0  0  0  0  0
   -2.2769   -3.8734   -0.8984 H   0  0  0  0  0  0  0  0  0  0  0  0
  1  2  1  0
  2  3  1  0
  3  4  1  0
  4  5  1  0
  5  6  1  0
  6  7  1  0
  7  8  1  0
  8  9  1  0
  9 10  2  0
 10 11  1  0
 11 12  2  0
 12 13  1  0
 13 14  2  0
 14 15  1  0
 15 16  2  0
 16 17  1  0
 17 18  2  0
  4 19  1  0
 19 20  1  6
 19 21  1  0
 21 22  1  0
 21 23  2  0
  2 24  1  1
 24 25  1  0
 24 26  2  0
  6  2  1  0
 18  9  1  0
 19  3  1  0
 17 12  1  0
  1 27  1  0
  1 28  1  0
  3 29  1  1
  4 30  1  1
  5 31  1  0
  5 32  1  0
  6 33  1  6
  8 34  1  0
  8 35  1  0
 10 36  1  0
 11 37  1  0
 13 38  1  0
 14 39  1  0
 15 40  1  0
 16 41  1  0
 18 42  1  0
 22 43  1  0
 25 44  1  0
M  END
$$$$
