[H]c1nc(C([H])([H])[H])c([H])c(-c2nc(-c3c([H])c([H])c(OC(F)(F)F)c(C([H])([H])[H])c3[H])n3c2C([H])([H])C([H])([H])O[C@]([H])(C([H])([H])[H])C3([H])[H])c1[H]
     RDKit          3D

 52 55  0  0  0  0  0  0  0  0999 V2000
    0.5023   -4.4653   -0.3708 C   0  0  0  0  0  0  0  0  0  0  0  0
    0.2334   -3.5036    0.7621 C   0  0  2  0  0  0  0  0  0  0  0  0
   -0.5904   -2.3644    0.1647 C   0  0  0  0  0  0  0  0  0  0  0  0
    0.1572   -1.1549   -0.0352 N   0  0  0  0  0  0  0  0  0  0  0  0
    1.5143   -1.0280   -0.1441 C   0  0  0  0  0  0  0  0  0  0  0  0
    2.6350   -1.9845   -0.1422 C   0  0  0  0  0  0  0  0  0  0  0  0
    2.4782   -3.1774    0.7315 C   0  0  0  0  0  0  0  0  0  0  0  0
    1.3217   -3.0785    1.4534 O   0  0  0  0  0  0  0  0  0  0  0  0
    1.8046    0.3209   -0.2892 C   0  0  0  0  0  0  0  0  0  0  0  0
    0.6278    0.9373   -0.2621 N   0  0  0  0  0  0  0  0  0  0  0  0
   -0.3980    0.0468   -0.1083 C   0  0  0  0  0  0  0  0  0  0  0  0
   -1.7694    0.5261   -0.0280 C   0  0  0  0  0  0  0  0  0  0  0  0
   -2.0055    1.8929    0.2004 C   0  0  0  0  0  0  0  0  0  0  0  0
   -3.2273    2.4754    0.2525 C   0  0  0  0  0  0  0  0  0  0  0  0
   -4.3398    1.6861    0.0704 C   0  0  0  0  0  0  0  0  0  0  0  0
   -5.5919    2.3063    0.1289 O   0  0  0  0  0  0  0  0  0  0  0  0
   -6.2049    2.8545   -0.9939 C   0  0  0  0  0  0  0  0  0  0  0  0
   -7.4328    3.3941   -0.6276 F   0  0  0  0  0  0  0  0  0  0  0  0
   -5.4817    3.9002   -1.5433 F   0  0  0  0  0  0  0  0  0  0  0  0
   -6.3800    1.9321   -1.9961 F   0  0  0  0  0  0  0  0  0  0  0  0
   -4.1625    0.3452   -0.1560 C   0  0  0  0  0  0  0  0  0  0  0  0
   -5.3813   -0.5263   -0.3479 C   0  0  0  0  0  0  0  0  0  0  0  0
   -2.8965   -0.2236   -0.2049 C   0  0  0  0  0  0  0  0  0  0  0  0
    3.0815    1.0132   -0.4439 C   0  0  0  0  0  0  0  0  0  0  0  0
    4.0460    0.5976   -1.3157 C   0  0  0  0  0  0  0  0  0  0  0  0
    5.2270    1.2989   -1.4097 C   0  0  0  0  0  0  0  0  0  0  0  0
    5.4483    2.3880   -0.6570 N   0  0  0  0  0  0  0  0  0  0  0  0
    4.5457    2.8515    0.2188 C   0  0  0  0  0  0  0  0  0  0  0  0
    4.8212    4.0687    1.0444 C   0  0  0  0  0  0  0  0  0  0  0  0
    3.3652    2.1544    0.3160 C   0  0  0  0  0  0  0  0  0  0  0  0
    1.0695   -3.9773   -1.1868 H   0  0  0  0  0  0  0  0  0  0  0  0
    1.0165   -5.3735   -0.0178 H   0  0  0  0  0  0  0  0  0  0  0  0
   -0.4843   -4.7511   -0.8318 H   0  0  0  0  0  0  0  0  0  0  0  0
   -0.3886   -4.1061    1.4976 H   0  0  0  0  0  0  0  0  0  0  0  0
   -1.1028   -2.7019   -0.7506 H   0  0  0  0  0  0  0  0  0  0  0  0
   -1.3707   -2.1949    0.9473 H   0  0  0  0  0  0  0  0  0  0  0  0
    3.5922   -1.4853    0.2079 H   0  0  0  0  0  0  0  0  0  0  0  0
    2.8049   -2.3496   -1.1991 H   0  0  0  0  0  0  0  0  0  0  0  0
    2.5973   -4.1181    0.1519 H   0  0  0  0  0  0  0  0  0  0  0  0
    3.3091   -3.2326    1.5044 H   0  0  0  0  0  0  0  0  0  0  0  0
   -1.0989    2.5070    0.3485 H   0  0  0  0  0  0  0  0  0  0  0  0
   -3.2782    3.5393    0.4356 H   0  0  0  0  0  0  0  0  0  0  0  0
   -5.5222   -0.7912   -1.3958 H   0  0  0  0  0  0  0  0  0  0  0  0
   -5.1692   -1.4349    0.2924 H   0  0  0  0  0  0  0  0  0  0  0  0
   -6.2378   -0.0397    0.1503 H   0  0  0  0  0  0  0  0  0  0  0  0
   -2.8609   -1.2777   -0.4173 H   0  0  0  0  0  0  0  0  0  0  0  0
    3.8839   -0.2807   -1.9319 H   0  0  0  0  0  0  0  0  0  0  0  0
    5.9821    0.9336   -2.1244 H   0  0  0  0  0  0  0  0  0  0  0  0
    5.0472    3.7772    2.0976 H   0  0  0  0  0  0  0  0  0  0  0  0
    5.6814    4.6019    0.5758 H   0  0  0  0  0  0  0  0  0  0  0  0
    3.9704    4.7529    1.0548 H   0  0  0  0  0  0  0  0  0  0  0  0
    2.6117    2.5188    1.0290 H   0  0  0  0  0  0  0  0  0  0  0  0
  1  2  1  0
  2  3  1  0
  3  4  1  0
  4  5  1  0
  5  6  1  0
  6  7  1  0
  7  8  1  0
  5  9  2  0
  9 10  1  0
 10 11  2  0
 11 12  1  0
 12 13  2  0
 13 14  1  0
 14 15  2  0
 15 16  1  0
 16 17  1  0
 17 18  1  0
 17 19  1  0
 17 20  1  0
 15 21  1  0
 21 22  1  0
 21 23  2  0
  9 24  1  0
 24 25  2  0
 25 26  1  0
 26 27  2  0
 27 28  1  0
 28 29  1  0
 28 30  2  0
  8  2  1  0
 23 12  1  0
 30 24  1  0
 11  4  1  0
  1 31  1  0
  1 32  1  0
  1 33  1  0
  2 34  1  1
  3 35  1  0
  3 36  1  0
  6 37  1  0
  6 38  1  0
  7 39  1  0
  7 40  1  0
 13 41  1  0
 14 42  1  0
 22 43  1  0
 22 44  1  0
 22 45  1  0
 23 46  1  0
 25 47  1  0
 26 48  1  0
 29 49  1  0
 29 50  1  0
 29 51  1  0
 30 52  1  0
M  END
$$$$
[H]c1nc(C([H])([H])[H])c([H])c(-c2nc(-c3c([H])c([H])c(F)c(C([H])([H])[H])c3[H])n3c2C([H])([H])C([H])([H])O[C@]([H])(C([H])([H])[H])C3([H])[H])c1[H]
     RDKit          3D

 48 51  0  0  0  0  0  0  0  0999 V2000
   -1.0094   -4.3679    1.2760 C   0  0  0  0  0  0  0  0  0  0  0  0
   -0.3484   -3.2555    0.5102 C   0  0  2  0  0  0  0  0  0  0  0  0
   -1.3368   -2.1314    0.1785 C   0  0  0  0  0  0  0  0  0  0  0  0
   -0.6202   -0.9308   -0.0968 N   0  0  0  0  0  0  0  0  0  0  0  0
    0.7280   -0.8967   -0.3216 C   0  0  0  0  0  0  0  0  0  0  0  0
    1.7703   -1.9118   -0.3976 C   0  0  0  0  0  0  0  0  0  0  0  0
    1.4056   -3.2639   -0.8610 C   0  0  0  0  0  0  0  0  0  0  0  0
    0.1136   -3.6669   -0.7356 O   0  0  0  0  0  0  0  0  0  0  0  0
    1.0218    0.4415   -0.5063 C   0  0  0  0  0  0  0  0  0  0  0  0
   -0.1264    1.1228   -0.3888 N   0  0  0  0  0  0  0  0  0  0  0  0
   -1.1528    0.2781   -0.1351 C   0  0  0  0  0  0  0  0  0  0  0  0
   -2.5111    0.7711    0.0648 C   0  0  0  0  0  0  0  0  0  0  0  0
   -3.6471    0.0176    0.1188 C   0  0  0  0  0  0  0  0  0  0  0  0
   -4.8849    0.6324    0.3648 C   0  0  0  0  0  0  0  0  0  0  0  0
   -5.0076    1.9888    0.5568 C   0  0  0  0  0  0  0  0  0  0  0  0
   -6.2097    2.5566    0.7919 F   0  0  0  0  0  0  0  0  0  0  0  0
   -3.8823    2.7555    0.5047 C   0  0  0  0  0  0  0  0  0  0  0  0
   -3.9424    4.2251    0.7028 C   0  0  0  0  0  0  0  0  0  0  0  0
   -2.6954    2.1533    0.2677 C   0  0  0  0  0  0  0  0  0  0  0  0
    2.2783    1.0886   -0.7827 C   0  0  0  0  0  0  0  0  0  0  0  0
    2.3746    2.0285   -1.7820 C   0  0  0  0  0  0  0  0  0  0  0  0
    3.5949    2.6706   -2.0426 C   0  0  0  0  0  0  0  0  0  0  0  0
    4.6653    2.3468   -1.2952 N   0  0  0  0  0  0  0  0  0  0  0  0
    4.6168    1.4264   -0.2999 C   0  0  0  0  0  0  0  0  0  0  0  0
    5.8173    1.0958    0.5031 C   0  0  0  0  0  0  0  0  0  0  0  0
    3.3974    0.7956   -0.0511 C   0  0  0  0  0  0  0  0  0  0  0  0
   -1.0682   -5.2644    0.6105 H   0  0  0  0  0  0  0  0  0  0  0  0
   -1.9832   -4.0834    1.7052 H   0  0  0  0  0  0  0  0  0  0  0  0
   -0.3840   -4.7089    2.1498 H   0  0  0  0  0  0  0  0  0  0  0  0
    0.4278   -2.7983    1.1526 H   0  0  0  0  0  0  0  0  0  0  0  0
   -2.0107   -2.0749    1.0768 H   0  0  0  0  0  0  0  0  0  0  0  0
   -1.9551   -2.4128   -0.6841 H   0  0  0  0  0  0  0  0  0  0  0  0
    2.6403   -1.5316   -1.0190 H   0  0  0  0  0  0  0  0  0  0  0  0
    2.2199   -2.0140    0.6289 H   0  0  0  0  0  0  0  0  0  0  0  0
    1.6640   -3.3298   -1.9605 H   0  0  0  0  0  0  0  0  0  0  0  0
    2.0462   -4.0565   -0.3860 H   0  0  0  0  0  0  0  0  0  0  0  0
   -3.6479   -1.0402   -0.0433 H   0  0  0  0  0  0  0  0  0  0  0  0
   -5.7613   -0.0124    0.3992 H   0  0  0  0  0  0  0  0  0  0  0  0
   -4.7922    4.6648    0.1782 H   0  0  0  0  0  0  0  0  0  0  0  0
   -3.9773    4.4172    1.7968 H   0  0  0  0  0  0  0  0  0  0  0  0
   -3.0022    4.6906    0.3340 H   0  0  0  0  0  0  0  0  0  0  0  0
   -1.8063    2.7740    0.2301 H   0  0  0  0  0  0  0  0  0  0  0  0
    1.5546    2.3210   -2.4036 H   0  0  0  0  0  0  0  0  0  0  0  0
    3.7234    3.4112   -2.8108 H   0  0  0  0  0  0  0  0  0  0  0  0
    6.0481    1.9037    1.2360 H   0  0  0  0  0  0  0  0  0  0  0  0
    5.5849    0.1818    1.0861 H   0  0  0  0  0  0  0  0  0  0  0  0
    6.6982    0.9215   -0.1600 H   0  0  0  0  0  0  0  0  0  0  0  0
    3.3714    0.0712    0.7394 H   0  0  0  0  0  0  0  0  0  0  0  0
  1  2  1  0
  2  3  1  0
  3  4  1  0
  4  5  1  0
  5  6  1  0
  6  7  1  0
  7  8  1  0
  5  9  2  0
  9 10  1  0
 10 11  2  0
 11 12  1  0
 12 13  2  0
 13 14  1  0
 14 15  2  0
 15 16  1  0
 15 17  1  0
 17 18  1  0
 17 19  2  0
  9 20  1  0
 20 21  2  0
 21 22  1  0
 22 23  2  0
 23 24  1  0
 24 25  1  0
 24 26  2  0
  8  2  1  0
 19 12  1  0
 26 20  1  0
 11  4  1  0
  1 27  1  0
  1 28  1  0
  1 29  1  0
  2 30  1  1
  3 31  1  0
  3 32  1  0
  6 33  1  0
  6 34  1  0
  7 35  1  0
  7 36  1  0
 13 37  1  0
 14 38  1  0
 18 39  1  0
 18 40  1  0
 18 41  1  0
 19 42  1  0
 21 43  1  0
 22 44  1  0
 25 45  1  0
 25 46  1  0
 25 47  1  0
 26 48  1  0
M  END
$$$$
[H]c1nc(C([H])([H])[H])c([H])c(-c2nc(-c3c([H])c([H])c(OC(F)(F)F)c(Cl)c3[H])n3c2C([H])([H])C([H])([H])O[C@]([H])(C([H])([H])[H])C3([H])[H])c1[H]
     RDKit          3D

 49 52  0  0  0  0  0  0  0  0999 V2000
    0.4939   -4.6846   -0.1988 C   0  0  0  0  0  0  0  0  0  0  0  0
    0.4918   -3.2431   -0.5872 C   0  0  2  0  0  0  0  0  0  0  0  0
    0.6344   -2.3030    0.6246 C   0  0  0  0  0  0  0  0  0  0  0  0
    0.0556   -1.0315    0.3043 N   0  0  0  0  0  0  0  0  0  0  0  0
   -1.3164   -0.9026    0.1476 C   0  0  0  0  0  0  0  0  0  0  0  0
   -2.3213   -1.9950    0.2431 C   0  0  0  0  0  0  0  0  0  0  0  0
   -1.7531   -3.3000   -0.3247 C   0  0  0  0  0  0  0  0  0  0  0  0
   -0.7407   -2.9669   -1.2061 O   0  0  0  0  0  0  0  0  0  0  0  0
   -1.5623    0.4234   -0.1024 C   0  0  0  0  0  0  0  0  0  0  0  0
   -0.3820    1.0216   -0.0889 N   0  0  0  0  0  0  0  0  0  0  0  0
    0.6407    0.1548    0.1564 C   0  0  0  0  0  0  0  0  0  0  0  0
    2.0375    0.5334    0.2546 C   0  0  0  0  0  0  0  0  0  0  0  0
    3.1191   -0.2789    0.1693 C   0  0  0  0  0  0  0  0  0  0  0  0
    4.3893    0.2217    0.3555 C   0  0  0  0  0  0  0  0  0  0  0  0
    4.6289    1.5411    0.6300 C   0  0  0  0  0  0  0  0  0  0  0  0
    5.9303    2.0325    0.8170 O   0  0  0  0  0  0  0  0  0  0  0  0
    6.7277    2.5167   -0.2361 C   0  0  0  0  0  0  0  0  0  0  0  0
    6.1556    3.5875   -0.8871 F   0  0  0  0  0  0  0  0  0  0  0  0
    8.0030    2.7830    0.1921 F   0  0  0  0  0  0  0  0  0  0  0  0
    6.8368    1.4952   -1.1876 F   0  0  0  0  0  0  0  0  0  0  0  0
    3.5410    2.3923    0.7206 C   0  0  0  0  0  0  0  0  0  0  0  0
    3.7754    4.0977    1.0765 Cl  0  0  0  0  0  0  0  0  0  0  0  0
    2.2758    1.8858    0.5343 C   0  0  0  0  0  0  0  0  0  0  0  0
   -2.8668    1.0804   -0.3179 C   0  0  0  0  0  0  0  0  0  0  0  0
   -3.7925    0.6566   -1.2370 C   0  0  0  0  0  0  0  0  0  0  0  0
   -5.0082    1.2913   -1.3847 C   0  0  0  0  0  0  0  0  0  0  0  0
   -5.2968    2.3497   -0.6138 N   0  0  0  0  0  0  0  0  0  0  0  0
   -4.4194    2.7978    0.2974 C   0  0  0  0  0  0  0  0  0  0  0  0
   -4.7711    3.9910    1.1504 C   0  0  0  0  0  0  0  0  0  0  0  0
   -3.2028    2.1838    0.4646 C   0  0  0  0  0  0  0  0  0  0  0  0
   -0.3475   -5.2645   -0.6583 H   0  0  0  0  0  0  0  0  0  0  0  0
    0.4204   -4.8631    0.8918 H   0  0  0  0  0  0  0  0  0  0  0  0
    1.4197   -5.2134   -0.5392 H   0  0  0  0  0  0  0  0  0  0  0  0
    1.2734   -3.0592   -1.3341 H   0  0  0  0  0  0  0  0  0  0  0  0
    1.5755   -2.3512    1.1128 H   0  0  0  0  0  0  0  0  0  0  0  0
   -0.0784   -2.8113    1.3840 H   0  0  0  0  0  0  0  0  0  0  0  0
   -2.6123   -2.1715    1.3095 H   0  0  0  0  0  0  0  0  0  0  0  0
   -3.2561   -1.8069   -0.2864 H   0  0  0  0  0  0  0  0  0  0  0  0
   -1.4668   -3.9781    0.4873 H   0  0  0  0  0  0  0  0  0  0  0  0
   -2.5358   -3.8208   -0.9566 H   0  0  0  0  0  0  0  0  0  0  0  0
    3.0084   -1.3438   -0.0900 H   0  0  0  0  0  0  0  0  0  0  0  0
    5.2635   -0.4262    0.2897 H   0  0  0  0  0  0  0  0  0  0  0  0
    1.4611    2.6032    0.6176 H   0  0  0  0  0  0  0  0  0  0  0  0
   -3.5705   -0.1852   -1.8815 H   0  0  0  0  0  0  0  0  0  0  0  0
   -5.7477    0.9494   -2.1210 H   0  0  0  0  0  0  0  0  0  0  0  0
   -3.9187    4.7027    1.1510 H   0  0  0  0  0  0  0  0  0  0  0  0
   -5.0830    3.6837    2.1646 H   0  0  0  0  0  0  0  0  0  0  0  0
   -5.6304    4.5047    0.6723 H   0  0  0  0  0  0  0  0  0  0  0  0
   -2.4783    2.5199    1.1869 H   0  0  0  0  0  0  0  0  0  0  0  0
  1  2  1  0
  2  3  1  0
  3  4  1  0
  4  5  1  0
  5  6  1  0
  6  7  1  0
  7  8  1  0
  5  9  2  0
  9 10  1  0
 10 11  2  0
 11 12  1  0
 12 13  2  0
 13 14  1  0
 14 15  2  0
 15 16  1  0
 16 17  1  0
 17 18  1  0
 17 19  1  0
 17 20  1  0
 15 21  1  0
 21 22  1  0
 21 23  2  0
  9 24  1  0
 24 25  2  0
 25 26  1  0
 26 27  2  0
 27 28  1  0
 28 29  1  0
 28 30  2  0
  8  2  1  0
 23 12  1  0
 30 24  1  0
 11  4  1  0
  1 31  1  0
  1 32  1  0
  1 33  1  0
  2 34  1  6
  3 35  1  0
  3 36  1  0
  6 37  1  0
  6 38  1  0
  7 39  1  0
  7 40  1  0
 13 41  1  0
 14 42  1  0
 23 43  1  0
 25 44  1  0
 26 45  1  0
 29 46  1  0
 29 47  1  0
 29 48  1  0
 30 49  1  0
M  END
$$$$
[H]c1nc(C([H])([H])[H])c([H])c(-c2nc(-c3c([H])c([H])c(OC([H])(F)F)c(C([H])([H])[H])c3[H])n3c2C([H])([H])C([H])([H])O[C@]([H])(C([H])([H])[H])C3([H])[H])c1[H]
     RDKit          3D

 52 55  0  0  0  0  0  0  0  0999 V2000
    0.7998   -3.9947   -1.5076 C   0  0  0  0  0  0  0  0  0  0  0  0
    0.2844   -3.4161   -0.2326 C   0  0  2  0  0  0  0  0  0  0  0  0
   -0.5623   -2.1945   -0.5507 C   0  0  0  0  0  0  0  0  0  0  0  0
    0.0722   -0.9450   -0.2879 N   0  0  0  0  0  0  0  0  0  0  0  0
    1.4301   -0.7164   -0.2467 C   0  0  0  0  0  0  0  0  0  0  0  0
    2.4882   -1.7039   -0.5029 C   0  0  0  0  0  0  0  0  0  0  0  0
    2.4534   -2.8690    0.4324 C   0  0  0  0  0  0  0  0  0  0  0  0
    1.1810   -3.1974    0.7627 O   0  0  0  0  0  0  0  0  0  0  0  0
    1.6580    0.5919    0.0766 C   0  0  0  0  0  0  0  0  0  0  0  0
    0.4449    1.1343    0.2264 N   0  0  0  0  0  0  0  0  0  0  0  0
   -0.5408    0.2008    0.0029 C   0  0  0  0  0  0  0  0  0  0  0  0
   -1.9516    0.5223    0.1283 C   0  0  0  0  0  0  0  0  0  0  0  0
   -2.2767    1.7068    0.8180 C   0  0  0  0  0  0  0  0  0  0  0  0
   -3.5738    2.1526    0.9634 C   0  0  0  0  0  0  0  0  0  0  0  0
   -4.6116    1.4286    0.4213 C   0  0  0  0  0  0  0  0  0  0  0  0
   -5.9358    1.7663    0.4986 O   0  0  0  0  0  0  0  0  0  0  0  0
   -6.4020    2.9067    1.1398 C   0  0  0  0  0  0  0  0  0  0  0  0
   -7.2326    2.5746    2.2291 F   0  0  0  0  0  0  0  0  0  0  0  0
   -7.1671    3.7037    0.2929 F   0  0  0  0  0  0  0  0  0  0  0  0
   -4.3288    0.2552   -0.2671 C   0  0  0  0  0  0  0  0  0  0  0  0
   -5.4270   -0.5398   -0.8611 C   0  0  0  0  0  0  0  0  0  0  0  0
   -3.0012   -0.1735   -0.3997 C   0  0  0  0  0  0  0  0  0  0  0  0
    2.9471    1.2844    0.2472 C   0  0  0  0  0  0  0  0  0  0  0  0
    3.1996    2.0152    1.3978 C   0  0  0  0  0  0  0  0  0  0  0  0
    4.3529    2.6978    1.5793 C   0  0  0  0  0  0  0  0  0  0  0  0
    5.2938    2.6727    0.6149 N   0  0  0  0  0  0  0  0  0  0  0  0
    5.1004    1.9798   -0.5210 C   0  0  0  0  0  0  0  0  0  0  0  0
    6.1778    1.9811   -1.5641 C   0  0  0  0  0  0  0  0  0  0  0  0
    3.9346    1.2847   -0.7145 C   0  0  0  0  0  0  0  0  0  0  0  0
    1.8296   -4.3642   -1.4536 H   0  0  0  0  0  0  0  0  0  0  0  0
    0.6411   -3.2640   -2.3575 H   0  0  0  0  0  0  0  0  0  0  0  0
    0.1839   -4.8922   -1.8315 H   0  0  0  0  0  0  0  0  0  0  0  0
   -0.4468   -4.1923    0.1761 H   0  0  0  0  0  0  0  0  0  0  0  0
   -1.4358   -2.2945    0.1656 H   0  0  0  0  0  0  0  0  0  0  0  0
   -0.9469   -2.2230   -1.5670 H   0  0  0  0  0  0  0  0  0  0  0  0
    2.5138   -2.0161   -1.5827 H   0  0  0  0  0  0  0  0  0  0  0  0
    3.4866   -1.1943   -0.3234 H   0  0  0  0  0  0  0  0  0  0  0  0
    3.0418   -3.7309    0.0213 H   0  0  0  0  0  0  0  0  0  0  0  0
    3.0569   -2.5737    1.3457 H   0  0  0  0  0  0  0  0  0  0  0  0
   -1.4852    2.3032    1.2606 H   0  0  0  0  0  0  0  0  0  0  0  0
   -3.7832    3.0794    1.5083 H   0  0  0  0  0  0  0  0  0  0  0  0
   -5.6446    3.5658    1.5664 H   0  0  0  0  0  0  0  0  0  0  0  0
   -5.5387   -0.3762   -1.9494 H   0  0  0  0  0  0  0  0  0  0  0  0
   -5.2597   -1.6424   -0.7363 H   0  0  0  0  0  0  0  0  0  0  0  0
   -6.3655   -0.2939   -0.3617 H   0  0  0  0  0  0  0  0  0  0  0  0
   -2.8554   -1.0735   -0.9772 H   0  0  0  0  0  0  0  0  0  0  0  0
    2.4254    2.0151    2.1515 H   0  0  0  0  0  0  0  0  0  0  0  0
    4.5594    3.2749    2.4831 H   0  0  0  0  0  0  0  0  0  0  0  0
    6.6330    3.0134   -1.5870 H   0  0  0  0  0  0  0  0  0  0  0  0
    5.7669    1.7162   -2.5362 H   0  0  0  0  0  0  0  0  0  0  0  0
    7.0189    1.3134   -1.2478 H   0  0  0  0  0  0  0  0  0  0  0  0
    3.7978    0.7407   -1.6383 H   0  0  0  0  0  0  0  0  0  0  0  0
  1  2  1  0
  2  3  1  0
  3  4  1  0
  4  5  1  0
  5  6  1  0
  6  7  1  0
  7  8  1  0
  5  9  2  0
  9 10  1  0
 10 11  2  0
 11 12  1  0
 12 13  2  0
 13 14  1  0
 14 15  2  0
 15 16  1  0
 16 17  1  0
 17 18  1  0
 17 19  1  0
 15 20  1  0
 20 21  1  0
 20 22  2  0
  9 23  1  0
 23 24  2  0
 24 25  1  0
 25 26  2  0
 26 27  1  0
 27 28  1  0
 27 29  2  0
  8  2  1  0
 22 12  1  0
 29 23  1  0
 11  4  1  0
  1 30  1  0
  1 31  1  0
  1 32  1  0
  2 33  1  1
  3 34  1  0
  3 35  1  0
  6 36  1  0
  6 37  1  0
  7 38  1  0
  7 39  1  0
 13 40  1  0
 14 41  1  0
 17 42  1  0
 21 43  1  0
 21 44  1  0
 21 45  1  0
 22 46  1  0
 24 47  1  0
 25 48  1  0
 28 49  1  0
 28 50  1  0
 28 51  1  0
 29 52  1  0
M  END
$$$$
[H]c1nc(C([H])([H])[H])c([H])c(-c2nc(-c3c([H])c([H])c(F)c(OC([H])(F)F)c3[H])n3c2C([H])([H])C([H])([H])O[C@]([H])(C([H])([H])[H])C3([H])[H])c1[H]
     RDKit          3D

 49 52  0  0  0  0  0  0  0  0999 V2000
    1.3431   -4.1928   -0.5819 C   0  0  0  0  0  0  0  0  0  0  0  0
    0.8999   -2.7938   -0.8431 C   0  0  2  0  0  0  0  0  0  0  0  0
    0.8256   -2.0063    0.4501 C   0  0  0  0  0  0  0  0  0  0  0  0
    0.0782   -0.7951    0.1762 N   0  0  0  0  0  0  0  0  0  0  0  0
   -1.2906   -0.7550   -0.0645 C   0  0  0  0  0  0  0  0  0  0  0  0
   -2.1504   -1.9701   -0.1063 C   0  0  0  0  0  0  0  0  0  0  0  0
   -1.4055   -3.1131   -0.7835 C   0  0  0  0  0  0  0  0  0  0  0  0
   -0.3212   -2.7066   -1.5291 O   0  0  0  0  0  0  0  0  0  0  0  0
   -1.6990    0.5197   -0.2334 C   0  0  0  0  0  0  0  0  0  0  0  0
   -0.5967    1.2737   -0.1003 N   0  0  0  0  0  0  0  0  0  0  0  0
    0.5004    0.4715    0.1490 C   0  0  0  0  0  0  0  0  0  0  0  0
    1.8096    1.0391    0.3681 C   0  0  0  0  0  0  0  0  0  0  0  0
    1.8769    2.3835    0.7568 C   0  0  0  0  0  0  0  0  0  0  0  0
    3.0693    3.0284    0.9340 C   0  0  0  0  0  0  0  0  0  0  0  0
    4.2380    2.3386    0.7249 C   0  0  0  0  0  0  0  0  0  0  0  0
    5.3923    3.0425    0.9205 F   0  0  0  0  0  0  0  0  0  0  0  0
    4.2425    1.0314    0.3453 C   0  0  0  0  0  0  0  0  0  0  0  0
    5.3314    0.3032    0.1256 O   0  0  0  0  0  0  0  0  0  0  0  0
    6.6826    0.4350    0.1534 C   0  0  0  0  0  0  0  0  0  0  0  0
    7.3044   -0.4636    1.0378 F   0  0  0  0  0  0  0  0  0  0  0  0
    7.2448    0.1837   -1.1180 F   0  0  0  0  0  0  0  0  0  0  0  0
    2.9781    0.3904    0.1689 C   0  0  0  0  0  0  0  0  0  0  0  0
   -3.0633    0.9988   -0.4805 C   0  0  0  0  0  0  0  0  0  0  0  0
   -3.8700    0.5500   -1.4778 C   0  0  0  0  0  0  0  0  0  0  0  0
   -5.1487    1.0716   -1.5851 C   0  0  0  0  0  0  0  0  0  0  0  0
   -5.6182    2.0081   -0.7356 N   0  0  0  0  0  0  0  0  0  0  0  0
   -4.8454    2.4762    0.2640 C   0  0  0  0  0  0  0  0  0  0  0  0
   -5.2936    3.4980    1.2267 C   0  0  0  0  0  0  0  0  0  0  0  0
   -3.5804    1.9703    0.3829 C   0  0  0  0  0  0  0  0  0  0  0  0
    0.8426   -4.9362   -1.2502 H   0  0  0  0  0  0  0  0  0  0  0  0
    1.1419   -4.4625    0.4952 H   0  0  0  0  0  0  0  0  0  0  0  0
    2.4336   -4.3445   -0.7353 H   0  0  0  0  0  0  0  0  0  0  0  0
    1.6541   -2.2931   -1.4817 H   0  0  0  0  0  0  0  0  0  0  0  0
    1.7267   -1.8372    0.9858 H   0  0  0  0  0  0  0  0  0  0  0  0
    0.0990   -2.6346    1.0983 H   0  0  0  0  0  0  0  0  0  0  0  0
   -3.1043   -1.8399   -0.6294 H   0  0  0  0  0  0  0  0  0  0  0  0
   -2.3843   -2.3084    0.9368 H   0  0  0  0  0  0  0  0  0  0  0  0
   -2.1080   -3.6144   -1.4638 H   0  0  0  0  0  0  0  0  0  0  0  0
   -1.0812   -3.8670   -0.0140 H   0  0  0  0  0  0  0  0  0  0  0  0
    0.9530    2.9458    0.9284 H   0  0  0  0  0  0  0  0  0  0  0  0
    3.1140    4.0534    1.2315 H   0  0  0  0  0  0  0  0  0  0  0  0
    7.0651    1.4254    0.4379 H   0  0  0  0  0  0  0  0  0  0  0  0
    3.0094   -0.6208   -0.1691 H   0  0  0  0  0  0  0  0  0  0  0  0
   -3.5014   -0.1911   -2.1806 H   0  0  0  0  0  0  0  0  0  0  0  0
   -5.8084    0.7179   -2.3837 H   0  0  0  0  0  0  0  0  0  0  0  0
   -5.0998    3.1095    2.2630 H   0  0  0  0  0  0  0  0  0  0  0  0
   -6.3440    3.7889    1.1062 H   0  0  0  0  0  0  0  0  0  0  0  0
   -4.6146    4.3759    1.1123 H   0  0  0  0  0  0  0  0  0  0  0  0
   -2.9273    2.3154    1.1675 H   0  0  0  0  0  0  0  0  0  0  0  0
  1  2  1  0
  2  3  1  0
  3  4  1  0
  4  5  1  0
  5  6  1  0
  6  7  1  0
  7  8  1  0
  5  9  2  0
  9 10  1  0
 10 11  2  0
 11 12  1  0
 12 13  2  0
 13 14  1  0
 14 15  2  0
 15 16  1  0
 15 17  1  0
 17 18  1  0
 18 19  1  0
 19 20  1  0
 19 21  1  0
 17 22  2  0
  9 23  1  0
 23 24  2  0
 24 25  1  0
 25 26  2  0
 26 27  1  0
 27 28  1  0
 27 29  2  0
  8  2  1  0
 22 12  1  0
 29 23  1  0
 11  4  1  0
  1 30  1  0
  1 31  1  0
  1 32  1  0
  2 33  1  6
  3 34  1  0
  3 35  1  0
  6 36  1  0
  6 37  1  0
  7 38  1  0
  7 39  1  0
 13 40  1  0
 14 41  1  0
 19 42  1  0
 22 43  1  0
 24 44  1  0
 25 45  1  0
 28 46  1  0
 28 47  1  0
 28 48  1  0
 29 49  1  0
M  END
$$$$
[H]c1nc(C([H])([H])[H])c([H])c(-c2nc(-c3c([H])c([H])c(Cl)c(Cl)c3[H])n3c2C([H])([H])C([H])([H])O[C@]([H])(C([H])([H])[H])C3([H])[H])c1[H]
     RDKit          3D

 45 48  0  0  0  0  0  0  0  0999 V2000
   -2.0473    3.9232   -0.6646 C   0  0  0  0  0  0  0  0  0  0  0  0
   -1.0160    2.8973   -0.2281 C   0  0  2  0  0  0  0  0  0  0  0  0
   -1.7919    1.5757   -0.1107 C   0  0  0  0  0  0  0  0  0  0  0  0
   -0.9168    0.4457    0.0308 N   0  0  0  0  0  0  0  0  0  0  0  0
    0.4146    0.5897    0.2895 C   0  0  0  0  0  0  0  0  0  0  0  0
    1.2570    1.7378    0.5354 C   0  0  0  0  0  0  0  0  0  0  0  0
    0.6830    2.8719    1.3171 C   0  0  0  0  0  0  0  0  0  0  0  0
   -0.6152    3.1895    1.0714 O   0  0  0  0  0  0  0  0  0  0  0  0
    0.9074   -0.6962    0.2967 C   0  0  0  0  0  0  0  0  0  0  0  0
   -0.0883   -1.5222    0.0578 N   0  0  0  0  0  0  0  0  0  0  0  0
   -1.2421   -0.8205   -0.1104 C   0  0  0  0  0  0  0  0  0  0  0  0
   -2.5087   -1.4641   -0.4220 C   0  0  0  0  0  0  0  0  0  0  0  0
   -2.4523   -2.8012   -0.8410 C   0  0  0  0  0  0  0  0  0  0  0  0
   -3.6163   -3.4681   -1.1029 C   0  0  0  0  0  0  0  0  0  0  0  0
   -4.8411   -2.8622   -0.9662 C   0  0  0  0  0  0  0  0  0  0  0  0
   -6.2764   -3.7753   -1.3186 Cl  0  0  0  0  0  0  0  0  0  0  0  0
   -4.9296   -1.5722   -0.5628 C   0  0  0  0  0  0  0  0  0  0  0  0
   -6.4600   -0.7383   -0.3680 Cl  0  0  0  0  0  0  0  0  0  0  0  0
   -3.7355   -0.8808   -0.2911 C   0  0  0  0  0  0  0  0  0  0  0  0
    2.2775   -1.1774    0.5201 C   0  0  0  0  0  0  0  0  0  0  0  0
    2.4913   -2.2298    1.3791 C   0  0  0  0  0  0  0  0  0  0  0  0
    3.7851   -2.7218    1.6040 C   0  0  0  0  0  0  0  0  0  0  0  0
    4.7995   -2.1298    0.9529 N   0  0  0  0  0  0  0  0  0  0  0  0
    4.6516   -1.1029    0.1056 C   0  0  0  0  0  0  0  0  0  0  0  0
    5.8036   -0.4678   -0.6024 C   0  0  0  0  0  0  0  0  0  0  0  0
    3.3569   -0.6196   -0.1118 C   0  0  0  0  0  0  0  0  0  0  0  0
   -3.0796    3.5907   -0.4804 H   0  0  0  0  0  0  0  0  0  0  0  0
   -1.9323    4.1406   -1.7370 H   0  0  0  0  0  0  0  0  0  0  0  0
   -1.8656    4.8786   -0.1119 H   0  0  0  0  0  0  0  0  0  0  0  0
   -0.2083    2.8084   -0.9557 H   0  0  0  0  0  0  0  0  0  0  0  0
   -2.4746    1.4977   -0.9864 H   0  0  0  0  0  0  0  0  0  0  0  0
   -2.3991    1.6913    0.7969 H   0  0  0  0  0  0  0  0  0  0  0  0
    1.6213    2.1375   -0.4331 H   0  0  0  0  0  0  0  0  0  0  0  0
    2.2157    1.4297    1.0630 H   0  0  0  0  0  0  0  0  0  0  0  0
    1.2872    3.7966    1.2263 H   0  0  0  0  0  0  0  0  0  0  0  0
    0.7603    2.5861    2.4080 H   0  0  0  0  0  0  0  0  0  0  0  0
   -1.4754   -3.2721   -0.9489 H   0  0  0  0  0  0  0  0  0  0  0  0
   -3.5270   -4.5109   -1.4277 H   0  0  0  0  0  0  0  0  0  0  0  0
   -3.8890    0.1249    0.0517 H   0  0  0  0  0  0  0  0  0  0  0  0
    1.6973   -2.7334    1.9229 H   0  0  0  0  0  0  0  0  0  0  0  0
    3.9410   -3.5492    2.2812 H   0  0  0  0  0  0  0  0  0  0  0  0
    6.1973    0.4015   -0.0294 H   0  0  0  0  0  0  0  0  0  0  0  0
    5.4629   -0.1513   -1.5955 H   0  0  0  0  0  0  0  0  0  0  0  0
    6.5793   -1.2500   -0.7193 H   0  0  0  0  0  0  0  0  0  0  0  0
    3.1988    0.2028   -0.7844 H   0  0  0  0  0  0  0  0  0  0  0  0
  1  2  1  0
  2  3  1  0
  3  4  1  0
  4  5  1  0
  5  6  1  0
  6  7  1  0
  7  8  1  0
  5  9  2  0
  9 10  1  0
 10 11  2  0
 11 12  1  0
 12 13  2  0
 13 14  1  0
 14 15  2  0
 15 16  1  0
 15 17  1  0
 17 18  1  0
 17 19  2  0
  9 20  1  0
 20 21  2  0
 21 22  1  0
 22 23  2  0
 23 24  1  0
 24 25  1  0
 24 26  2  0
  8  2  1  0
 19 12  1  0
 26 20  1  0
 11  4  1  0
  1 27  1  0
  1 28  1  0
  1 29  1  0
  2 30  1  6
  3 31  1  0
  3 32  1  0
  6 33  1  0
  6 34  1  0
  7 35  1  0
  7 36  1  0
 13 37  1  0
 14 38  1  0
 19 39  1  0
 21 40  1  0
 22 41  1  0
 25 42  1  0
 25 43  1  0
 25 44  1  0
 26 45  1  0
M  END
$$$$
[H]c1nc(C([H])([H])[H])c([H])c(-c2nc(-c3c([H])c([H])c(Cl)c(C([H])([H])[H])c3[H])n3c2C([H])([H])C([H])([H])O[C@]([H])(C([H])([H])[H])C3([H])[H])c1[H]
     RDKit          3D

 48 51  0  0  0  0  0  0  0  0999 V2000
   -1.1433   -4.5972    0.7119 C   0  0  0  0  0  0  0  0  0  0  0  0
   -0.3952   -3.3403    0.3326 C   0  0  2  0  0  0  0  0  0  0  0  0
   -1.2709   -2.1026    0.5488 C   0  0  0  0  0  0  0  0  0  0  0  0
   -0.5569   -0.9088    0.2507 N   0  0  0  0  0  0  0  0  0  0  0  0
    0.7713   -0.8938   -0.0907 C   0  0  0  0  0  0  0  0  0  0  0  0
    1.7864   -1.9207   -0.2705 C   0  0  0  0  0  0  0  0  0  0  0  0
    1.3419   -3.1396   -1.0233 C   0  0  0  0  0  0  0  0  0  0  0  0
   -0.0358   -3.3180   -1.0011 O   0  0  0  0  0  0  0  0  0  0  0  0
    1.0653    0.4379   -0.2997 C   0  0  0  0  0  0  0  0  0  0  0  0
   -0.0547    1.1406   -0.0858 N   0  0  0  0  0  0  0  0  0  0  0  0
   -1.0722    0.3097    0.2586 C   0  0  0  0  0  0  0  0  0  0  0  0
   -2.4175    0.8053    0.5158 C   0  0  0  0  0  0  0  0  0  0  0  0
   -3.4509    0.0829    1.0251 C   0  0  0  0  0  0  0  0  0  0  0  0
   -4.7115    0.6934    1.1824 C   0  0  0  0  0  0  0  0  0  0  0  0
   -4.9401    2.0008    0.8397 C   0  0  0  0  0  0  0  0  0  0  0  0
   -6.5095    2.7643    1.0344 Cl  0  0  0  0  0  0  0  0  0  0  0  0
   -3.8992    2.7276    0.3279 C   0  0  0  0  0  0  0  0  0  0  0  0
   -4.0485    4.1608   -0.0755 C   0  0  0  0  0  0  0  0  0  0  0  0
   -2.6835    2.1508    0.1720 C   0  0  0  0  0  0  0  0  0  0  0  0
    2.3031    1.0875   -0.6829 C   0  0  0  0  0  0  0  0  0  0  0  0
    2.3149    2.0091   -1.7019 C   0  0  0  0  0  0  0  0  0  0  0  0
    3.5062    2.6613   -2.0577 C   0  0  0  0  0  0  0  0  0  0  0  0
    4.6364    2.3731   -1.3888 N   0  0  0  0  0  0  0  0  0  0  0  0
    4.6610    1.4741   -0.3836 C   0  0  0  0  0  0  0  0  0  0  0  0
    5.9327    1.1979    0.3157 C   0  0  0  0  0  0  0  0  0  0  0  0
    3.4704    0.8215   -0.0272 C   0  0  0  0  0  0  0  0  0  0  0  0
   -1.0066   -5.3728   -0.0599 H   0  0  0  0  0  0  0  0  0  0  0  0
   -2.2330   -4.3530    0.8814 H   0  0  0  0  0  0  0  0  0  0  0  0
   -0.7877   -5.0243    1.6725 H   0  0  0  0  0  0  0  0  0  0  0  0
    0.4484   -3.2483    1.0412 H   0  0  0  0  0  0  0  0  0  0  0  0
   -1.5793   -2.1507    1.6352 H   0  0  0  0  0  0  0  0  0  0  0  0
   -2.1894   -2.1918   -0.0646 H   0  0  0  0  0  0  0  0  0  0  0  0
    2.6979   -1.5080   -0.7934 H   0  0  0  0  0  0  0  0  0  0  0  0
    2.1553   -2.2459    0.7176 H   0  0  0  0  0  0  0  0  0  0  0  0
    1.6327   -3.0033   -2.0850 H   0  0  0  0  0  0  0  0  0  0  0  0
    1.8060   -4.0825   -0.6790 H   0  0  0  0  0  0  0  0  0  0  0  0
   -3.3793   -0.9344    1.3423 H   0  0  0  0  0  0  0  0  0  0  0  0
   -5.5170    0.0989    1.5884 H   0  0  0  0  0  0  0  0  0  0  0  0
   -4.0893    4.2307   -1.1835 H   0  0  0  0  0  0  0  0  0  0  0  0
   -4.9124    4.6168    0.4135 H   0  0  0  0  0  0  0  0  0  0  0  0
   -3.1206    4.6903    0.2326 H   0  0  0  0  0  0  0  0  0  0  0  0
   -1.8498    2.7179   -0.2350 H   0  0  0  0  0  0  0  0  0  0  0  0
    1.4293    2.2489   -2.2416 H   0  0  0  0  0  0  0  0  0  0  0  0
    3.5589    3.3887   -2.8487 H   0  0  0  0  0  0  0  0  0  0  0  0
    6.0466    1.8092    1.2475 H   0  0  0  0  0  0  0  0  0  0  0  0
    5.9823    0.1209    0.5629 H   0  0  0  0  0  0  0  0  0  0  0  0
    6.7941    1.4109   -0.3538 H   0  0  0  0  0  0  0  0  0  0  0  0
    3.5132    0.1045    0.7825 H   0  0  0  0  0  0  0  0  0  0  0  0
  1  2  1  0
  2  3  1  0
  3  4  1  0
  4  5  1  0
  5  6  1  0
  6  7  1  0
  7  8  1  0
  5  9  2  0
  9 10  1  0
 10 11  2  0
 11 12  1  0
 12 13  2  0
 13 14  1  0
 14 15  2  0
 15 16  1  0
 15 17  1  0
 17 18  1  0
 17 19  2  0
  9 20  1  0
 20 21  2  0
 21 22  1  0
 22 23  2  0
 23 24  1  0
 24 25  1  0
 24 26  2  0
  8  2  1  0
 19 12  1  0
 26 20  1  0
 11  4  1  0
  1 27  1  0
  1 28  1  0
  1 29  1  0
  2 30  1  1
  3 31  1  0
  3 32  1  0
  6 33  1  0
  6 34  1  0
  7 35  1  0
  7 36  1  0
 13 37  1  0
 14 38  1  0
 18 39  1  0
 18 40  1  0
 18 41  1  0
 19 42  1  0
 21 43  1  0
 22 44  1  0
 25 45  1  0
 25 46  1  0
 25 47  1  0
 26 48  1  0
M  END
$$$$
[H]c1nc(C([H])([H])[H])c([H])c(-c2nc(-c3c([H])c([H])c(OC([H])(F)F)c(Cl)c3[H])n3c2C([H])([H])C([H])([H])O[C@]([H])(C([H])([H])[H])C3([H])[H])c1[H]
     RDKit          3D

 49 52  0  0  0  0  0  0  0  0999 V2000
   -0.6964    4.4951   -0.8493 C   0  0  0  0  0  0  0  0  0  0  0  0
   -0.5083    3.0242   -1.0660 C   0  0  2  0  0  0  0  0  0  0  0  0
   -0.6816    2.2386    0.2312 C   0  0  0  0  0  0  0  0  0  0  0  0
    0.0117    0.9515    0.1061 N   0  0  0  0  0  0  0  0  0  0  0  0
    1.3730    0.8090    0.0786 C   0  0  0  0  0  0  0  0  0  0  0  0
    2.3008    1.9719    0.1269 C   0  0  0  0  0  0  0  0  0  0  0  0
    1.8041    3.0625   -0.7890 C   0  0  0  0  0  0  0  0  0  0  0  0
    0.7562    2.7099   -1.5981 O   0  0  0  0  0  0  0  0  0  0  0  0
    1.6671   -0.5097    0.0075 C   0  0  0  0  0  0  0  0  0  0  0  0
    0.5114   -1.1535   -0.0083 N   0  0  0  0  0  0  0  0  0  0  0  0
   -0.5269   -0.2457    0.0503 C   0  0  0  0  0  0  0  0  0  0  0  0
   -1.9196   -0.7095    0.0755 C   0  0  0  0  0  0  0  0  0  0  0  0
   -2.9737    0.0654   -0.2542 C   0  0  0  0  0  0  0  0  0  0  0  0
   -4.2778   -0.4352   -0.1341 C   0  0  0  0  0  0  0  0  0  0  0  0
   -4.5374   -1.6906    0.3060 C   0  0  0  0  0  0  0  0  0  0  0  0
   -5.7753   -2.2421    0.4475 O   0  0  0  0  0  0  0  0  0  0  0  0
   -6.9729   -1.6214    0.1689 C   0  0  0  0  0  0  0  0  0  0  0  0
   -7.7378   -1.4862    1.3414 F   0  0  0  0  0  0  0  0  0  0  0  0
   -7.7372   -2.2993   -0.7710 F   0  0  0  0  0  0  0  0  0  0  0  0
   -3.4414   -2.4990    0.6475 C   0  0  0  0  0  0  0  0  0  0  0  0
   -3.7119   -4.1340    1.2225 Cl  0  0  0  0  0  0  0  0  0  0  0  0
   -2.1705   -2.0170    0.5335 C   0  0  0  0  0  0  0  0  0  0  0  0
    3.0152   -1.1279   -0.0281 C   0  0  0  0  0  0  0  0  0  0  0  0
    3.9848   -0.7225   -0.8994 C   0  0  0  0  0  0  0  0  0  0  0  0
    5.2243   -1.3539   -0.8459 C   0  0  0  0  0  0  0  0  0  0  0  0
    5.4213   -2.3310    0.0523 N   0  0  0  0  0  0  0  0  0  0  0  0
    4.4956   -2.7421    0.9079 C   0  0  0  0  0  0  0  0  0  0  0  0
    4.7384   -3.8356    1.9021 C   0  0  0  0  0  0  0  0  0  0  0  0
    3.2518   -2.1499    0.8965 C   0  0  0  0  0  0  0  0  0  0  0  0
   -0.3421    4.8444    0.1392 H   0  0  0  0  0  0  0  0  0  0  0  0
   -1.8071    4.6919   -0.8490 H   0  0  0  0  0  0  0  0  0  0  0  0
   -0.2811    5.0498   -1.6974 H   0  0  0  0  0  0  0  0  0  0  0  0
   -1.2652    2.6644   -1.7906 H   0  0  0  0  0  0  0  0  0  0  0  0
   -0.0459    2.8075    0.9950 H   0  0  0  0  0  0  0  0  0  0  0  0
   -1.6591    2.1922    0.6429 H   0  0  0  0  0  0  0  0  0  0  0  0
    2.2722    2.3554    1.1989 H   0  0  0  0  0  0  0  0  0  0  0  0
    3.3486    1.6967   -0.0252 H   0  0  0  0  0  0  0  0  0  0  0  0
    2.6712    3.3058   -1.4707 H   0  0  0  0  0  0  0  0  0  0  0  0
    1.6307    3.9890   -0.2111 H   0  0  0  0  0  0  0  0  0  0  0  0
   -2.8935    1.0687   -0.6598 H   0  0  0  0  0  0  0  0  0  0  0  0
   -5.0712    0.2454   -0.4154 H   0  0  0  0  0  0  0  0  0  0  0  0
   -6.8269   -0.5978   -0.1932 H   0  0  0  0  0  0  0  0  0  0  0  0
   -1.3180   -2.6490    0.8014 H   0  0  0  0  0  0  0  0  0  0  0  0
    3.8086    0.0592   -1.6255 H   0  0  0  0  0  0  0  0  0  0  0  0
    5.9789   -1.0168   -1.5453 H   0  0  0  0  0  0  0  0  0  0  0  0
    5.0492   -3.3990    2.8703 H   0  0  0  0  0  0  0  0  0  0  0  0
    5.5792   -4.4439    1.5142 H   0  0  0  0  0  0  0  0  0  0  0  0
    3.8225   -4.4308    2.0484 H   0  0  0  0  0  0  0  0  0  0  0  0
    2.4620   -2.4551    1.5803 H   0  0  0  0  0  0  0  0  0  0  0  0
  1  2  1  0
  2  3  1  0
  3  4  1  0
  4  5  1  0
  5  6  1  0
  6  7  1  0
  7  8  1  0
  5  9  2  0
  9 10  1  0
 10 11  2  0
 11 12  1  0
 12 13  2  0
 13 14  1  0
 14 15  2  0
 15 16  1  0
 16 17  1  0
 17 18  1  0
 17 19  1  0
 15 20  1  0
 20 21  1  0
 20 22  2  0
  9 23  1  0
 23 24  2  0
 24 25  1  0
 25 26  2  0
 26 27  1  0
 27 28  1  0
 27 29  2  0
  8  2  1  0
 22 12  1  0
 29 23  1  0
 11  4  1  0
  1 30  1  0
  1 31  1  0
  1 32  1  0
  2 33  1  6
  3 34  1  0
  3 35  1  0
  6 36  1  0
  6 37  1  0
  7 38  1  0
  7 39  1  0
 13 40  1  0
 14 41  1  0
 17 42  1  0
 22 43  1  0
 24 44  1  0
 25 45  1  0
 28 46  1  0
 28 47  1  0
 28 48  1  0
 29 49  1  0
M  END
$$$$
[H]c1nc(C([H])([H])[H])c([H])c(-c2nc(-c3c([H])c([H])c(F)c(Cl)c3[H])n3c2C([H])([H])C([H])([H])O[C@]([H])(C([H])([H])[H])C3([H])[H])c1[H]
     RDKit          3D

 45 48  0  0  0  0  0  0  0  0999 V2000
   -2.0543    3.9192   -0.5851 C   0  0  0  0  0  0  0  0  0  0  0  0
   -1.0788    2.8662   -0.1165 C   0  0  2  0  0  0  0  0  0  0  0  0
   -1.8421    1.5397   -0.0536 C   0  0  0  0  0  0  0  0  0  0  0  0
   -0.9418    0.4305    0.0663 N   0  0  0  0  0  0  0  0  0  0  0  0
    0.3858    0.5859    0.3281 C   0  0  0  0  0  0  0  0  0  0  0  0
    1.2450    1.7314    0.5964 C   0  0  0  0  0  0  0  0  0  0  0  0
    0.6584    2.8953    1.3001 C   0  0  0  0  0  0  0  0  0  0  0  0
   -0.6895    3.0746    1.2235 O   0  0  0  0  0  0  0  0  0  0  0  0
    0.8916   -0.6963    0.3114 C   0  0  0  0  0  0  0  0  0  0  0  0
   -0.1002   -1.5285    0.0556 N   0  0  0  0  0  0  0  0  0  0  0  0
   -1.2642   -0.8267   -0.1002 C   0  0  0  0  0  0  0  0  0  0  0  0
   -2.5159   -1.5254   -0.4252 C   0  0  0  0  0  0  0  0  0  0  0  0
   -2.4036   -2.8666   -0.8160 C   0  0  0  0  0  0  0  0  0  0  0  0
   -3.5452   -3.5709   -1.0944 C   0  0  0  0  0  0  0  0  0  0  0  0
   -4.7814   -2.9861   -0.9964 C   0  0  0  0  0  0  0  0  0  0  0  0
   -5.8907   -3.6876   -1.2725 F   0  0  0  0  0  0  0  0  0  0  0  0
   -4.9027   -1.6797   -0.6158 C   0  0  0  0  0  0  0  0  0  0  0  0
   -6.4585   -0.8780   -0.4731 Cl  0  0  0  0  0  0  0  0  0  0  0  0
   -3.7429   -0.9430   -0.3261 C   0  0  0  0  0  0  0  0  0  0  0  0
    2.2672   -1.1687    0.5268 C   0  0  0  0  0  0  0  0  0  0  0  0
    2.4899   -2.2194    1.3741 C   0  0  0  0  0  0  0  0  0  0  0  0
    3.8152   -2.6404    1.5266 C   0  0  0  0  0  0  0  0  0  0  0  0
    4.8272   -2.0536    0.8814 N   0  0  0  0  0  0  0  0  0  0  0  0
    4.6268   -1.0212    0.0460 C   0  0  0  0  0  0  0  0  0  0  0  0
    5.7540   -0.3652   -0.6746 C   0  0  0  0  0  0  0  0  0  0  0  0
    3.3152   -0.5862   -0.1203 C   0  0  0  0  0  0  0  0  0  0  0  0
   -3.1037    3.5636   -0.5824 H   0  0  0  0  0  0  0  0  0  0  0  0
   -1.8248    4.2712   -1.6154 H   0  0  0  0  0  0  0  0  0  0  0  0
   -1.9614    4.8160    0.0826 H   0  0  0  0  0  0  0  0  0  0  0  0
   -0.2317    2.8014   -0.8022 H   0  0  0  0  0  0  0  0  0  0  0  0
   -2.4285    1.4374   -0.9809 H   0  0  0  0  0  0  0  0  0  0  0  0
   -2.5263    1.6570    0.7988 H   0  0  0  0  0  0  0  0  0  0  0  0
    1.6396    2.0995   -0.3966 H   0  0  0  0  0  0  0  0  0  0  0  0
    2.1848    1.3923    1.1332 H   0  0  0  0  0  0  0  0  0  0  0  0
    1.2097    3.8528    1.0521 H   0  0  0  0  0  0  0  0  0  0  0  0
    0.8981    2.7607    2.3993 H   0  0  0  0  0  0  0  0  0  0  0  0
   -1.4381   -3.3668   -0.9072 H   0  0  0  0  0  0  0  0  0  0  0  0
   -3.4599   -4.6237   -1.4019 H   0  0  0  0  0  0  0  0  0  0  0  0
   -3.9205    0.0713   -0.0103 H   0  0  0  0  0  0  0  0  0  0  0  0
    1.7061   -2.7284    1.9195 H   0  0  0  0  0  0  0  0  0  0  0  0
    4.0394   -3.4620    2.1816 H   0  0  0  0  0  0  0  0  0  0  0  0
    6.1788    0.4764   -0.1084 H   0  0  0  0  0  0  0  0  0  0  0  0
    5.3260    0.0346   -1.6318 H   0  0  0  0  0  0  0  0  0  0  0  0
    6.5290   -1.1048   -0.9029 H   0  0  0  0  0  0  0  0  0  0  0  0
    3.1188    0.2520   -0.7935 H   0  0  0  0  0  0  0  0  0  0  0  0
  1  2  1  0
  2  3  1  0
  3  4  1  0
  4  5  1  0
  5  6  1  0
  6  7  1  0
  7  8  1  0
  5  9  2  0
  9 10  1  0
 10 11  2  0
 11 12  1  0
 12 13  2  0
 13 14  1  0
 14 15  2  0
 15 16  1  0
 15 17  1  0
 17 18  1  0
 17 19  2  0
  9 20  1  0
 20 21  2  0
 21 22  1  0
 22 23  2  0
 23 24  1  0
 24 25  1  0
 24 26  2  0
  8  2  1  0
 19 12  1  0
 26 20  1  0
 11  4  1  0
  1 27  1  0
  1 28  1  0
  1 29  1  0
  2 30  1  6
  3 31  1  0
  3 32  1  0
  6 33  1  0
  6 34  1  0
  7 35  1  0
  7 36  1  0
 13 37  1  0
 14 38  1  0
 19 39  1  0
 21 40  1  0
 22 41  1  0
 25 42  1  0
 25 43  1  0
 25 44  1  0
 26 45  1  0
M  END
$$$$
[H]c1c([H])c(-c2c([H])c(C(=O)N([H])[H])nc3c([H])c(C([H])([H])N4C(=O)C([H])([H])C([H])([H])C4=O)c([H])c([H])c23)c([H])c([H])c1F
     RDKit          3D

 44 47  0  0  0  0  0  0  0  0999 V2000
   -1.0585    5.2359    0.1011 N   0  0  0  0  0  0  0  0  0  0  0  0
   -2.0056    4.2104    0.3384 C   0  0  0  0  0  0  0  0  0  0  0  0
   -3.1570    4.4833    0.7480 O   0  0  0  0  0  0  0  0  0  0  0  0
   -1.6737    2.8011    0.1143 C   0  0  0  0  0  0  0  0  0  0  0  0
   -2.5696    1.7918    0.3356 C   0  0  0  0  0  0  0  0  0  0  0  0
   -2.2640    0.4389    0.1247 C   0  0  0  0  0  0  0  0  0  0  0  0
   -3.2818   -0.5558    0.3451 C   0  0  0  0  0  0  0  0  0  0  0  0
   -3.6877   -1.4194   -0.6365 C   0  0  0  0  0  0  0  0  0  0  0  0
   -4.6693   -2.3781   -0.4225 C   0  0  0  0  0  0  0  0  0  0  0  0
   -5.2351   -2.4291    0.8500 C   0  0  0  0  0  0  0  0  0  0  0  0
   -6.1841   -3.3367    1.1012 F   0  0  0  0  0  0  0  0  0  0  0  0
   -4.8231   -1.5565    1.8374 C   0  0  0  0  0  0  0  0  0  0  0  0
   -3.8513   -0.6117    1.6155 C   0  0  0  0  0  0  0  0  0  0  0  0
   -0.9916    0.1679   -0.3242 C   0  0  0  0  0  0  0  0  0  0  0  0
   -0.5834   -1.1079   -0.5492 C   0  0  0  0  0  0  0  0  0  0  0  0
    0.6958   -1.4214   -0.9933 C   0  0  0  0  0  0  0  0  0  0  0  0
    1.5997   -0.4141   -1.2194 C   0  0  0  0  0  0  0  0  0  0  0  0
    2.9690   -0.7327   -1.6927 C   0  0  0  0  0  0  0  0  0  0  0  0
    3.8592   -0.8269   -0.5468 N   0  0  0  0  0  0  0  0  0  0  0  0
    4.1226   -2.0235    0.1735 C   0  0  0  0  0  0  0  0  0  0  0  0
    3.4294   -3.0711    0.2280 O   0  0  0  0  0  0  0  0  0  0  0  0
    5.4274   -1.7952    0.8810 C   0  0  0  0  0  0  0  0  0  0  0  0
    5.2875   -0.3238    1.2425 C   0  0  0  0  0  0  0  0  0  0  0  0
    4.6113    0.2551    0.0424 C   0  0  0  0  0  0  0  0  0  0  0  0
    4.6776    1.4384   -0.3757 O   0  0  0  0  0  0  0  0  0  0  0  0
    1.1910    0.8826   -0.9914 C   0  0  0  0  0  0  0  0  0  0  0  0
   -0.0876    1.1970   -0.5471 C   0  0  0  0  0  0  0  0  0  0  0  0
   -0.4476    2.4765   -0.3246 N   0  0  0  0  0  0  0  0  0  0  0  0
   -0.2866    5.1383   -0.6231 H   0  0  0  0  0  0  0  0  0  0  0  0
   -1.1161    6.1254    0.6568 H   0  0  0  0  0  0  0  0  0  0  0  0
   -3.5537    2.0546    0.6882 H   0  0  0  0  0  0  0  0  0  0  0  0
   -3.2263   -1.3466   -1.6026 H   0  0  0  0  0  0  0  0  0  0  0  0
   -4.9552   -3.0330   -1.2205 H   0  0  0  0  0  0  0  0  0  0  0  0
   -5.2613   -1.5999    2.8138 H   0  0  0  0  0  0  0  0  0  0  0  0
   -3.5215    0.0768    2.3830 H   0  0  0  0  0  0  0  0  0  0  0  0
   -1.2490   -1.9302   -0.3727 H   0  0  0  0  0  0  0  0  0  0  0  0
    0.9670   -2.4562   -1.1580 H   0  0  0  0  0  0  0  0  0  0  0  0
    2.9934   -1.6575   -2.3149 H   0  0  0  0  0  0  0  0  0  0  0  0
    3.3605    0.0817   -2.3567 H   0  0  0  0  0  0  0  0  0  0  0  0
    5.5040   -2.4481    1.7495 H   0  0  0  0  0  0  0  0  0  0  0  0
    6.2698   -1.9239    0.1595 H   0  0  0  0  0  0  0  0  0  0  0  0
    6.2671    0.1486    1.4272 H   0  0  0  0  0  0  0  0  0  0  0  0
    4.6090   -0.2855    2.1196 H   0  0  0  0  0  0  0  0  0  0  0  0
    1.8994    1.6804   -1.1678 H   0  0  0  0  0  0  0  0  0  0  0  0
  1  2  1  0
  2  3  2  0
  2  4  1  0
  4  5  2  0
  5  6  1  0
  6  7  1  0
  7  8  2  0
  8  9  1  0
  9 10  2  0
 10 11  1  0
 10 12  1  0
 12 13  2  0
  6 14  2  0
 14 15  1  0
 15 16  2  0
 16 17  1  0
 17 18  1  0
 18 19  1  0
 19 20  1  0
 20 21  2  0
 20 22  1  0
 22 23  1  0
 23 24  1  0
 24 25  2  0
 17 26  2  0
 26 27  1  0
 27 28  2  0
 28  4  1  0
 13  7  1  0
 27 14  1  0
 24 19  1  0
  1 29  1  0
  1 30  1  0
  5 31  1  0
  8 32  1  0
  9 33  1  0
 12 34  1  0
 13 35  1  0
 15 36  1  0
 16 37  1  0
 18 38  1  0
 18 39  1  0
 22 40  1  0
 22 41  1  0
 23 42  1  0
 23 43  1  0
 26 44  1  0
M  END
$$$$
[H]c1c([H])c(-c2nc(-c3c([H])c(C([H])([H])[H])nc(C([H])([H])[H])c3[H])c3n2C([H])([H])C([H])([H])OC([H])([H])C3([H])[H])c([H])c(C([H])([H])[H])c1OC(F)(F)F
     RDKit          3D

 52 55  0  0  0  0  0  0  0  0999 V2000
   -3.9159    2.8509   -2.6994 C   0  0  0  0  0  0  0  0  0  0  0  0
   -3.8093    2.1060   -1.4254 C   0  0  0  0  0  0  0  0  0  0  0  0
   -2.6980    1.3348   -1.1414 C   0  0  0  0  0  0  0  0  0  0  0  0
   -2.5744    0.6316    0.0378 C   0  0  0  0  0  0  0  0  0  0  0  0
   -3.6094    0.7270    0.9316 C   0  0  0  0  0  0  0  0  0  0  0  0
   -4.7352    1.5036    0.6520 C   0  0  0  0  0  0  0  0  0  0  0  0
   -5.8725    1.6294    1.5943 C   0  0  0  0  0  0  0  0  0  0  0  0
   -4.8014    2.1733   -0.5246 N   0  0  0  0  0  0  0  0  0  0  0  0
   -1.3461   -0.1432    0.2608 C   0  0  0  0  0  0  0  0  0  0  0  0
   -0.1430    0.3954    0.0655 N   0  0  0  0  0  0  0  0  0  0  0  0
    0.8246   -0.5173    0.3314 C   0  0  0  0  0  0  0  0  0  0  0  0
    2.2254   -0.1822    0.1620 C   0  0  0  0  0  0  0  0  0  0  0  0
    3.2539   -0.9173    0.6871 C   0  0  0  0  0  0  0  0  0  0  0  0
    4.5673   -0.5542    0.4208 C   0  0  0  0  0  0  0  0  0  0  0  0
    4.8433    0.5346   -0.3619 C   0  0  0  0  0  0  0  0  0  0  0  0
    6.1654    0.8963   -0.6283 O   0  0  0  0  0  0  0  0  0  0  0  0
    6.8100    1.7683    0.2719 C   0  0  0  0  0  0  0  0  0  0  0  0
    6.8017    1.1092    1.5056 F   0  0  0  0  0  0  0  0  0  0  0  0
    8.1288    1.8965   -0.1104 F   0  0  0  0  0  0  0  0  0  0  0  0
    6.2028    2.9676    0.4562 F   0  0  0  0  0  0  0  0  0  0  0  0
    3.8230    1.2708   -0.8865 C   0  0  0  0  0  0  0  0  0  0  0  0
    4.0935    2.4562   -1.7545 C   0  0  0  0  0  0  0  0  0  0  0  0
    2.5194    0.9382   -0.6428 C   0  0  0  0  0  0  0  0  0  0  0  0
    0.2005   -1.6251    0.6900 N   0  0  0  0  0  0  0  0  0  0  0  0
    0.8323   -2.8698    1.0255 C   0  0  0  0  0  0  0  0  0  0  0  0
   -0.1332   -4.0391    0.8568 C   0  0  0  0  0  0  0  0  0  0  0  0
   -0.8841   -3.9058   -0.2822 O   0  0  0  0  0  0  0  0  0  0  0  0
   -2.1935   -3.5702    0.0339 C   0  0  0  0  0  0  0  0  0  0  0  0
   -2.2395   -2.3551    0.9666 C   0  0  0  0  0  0  0  0  0  0  0  0
   -1.1449   -1.4229    0.6565 C   0  0  0  0  0  0  0  0  0  0  0  0
   -3.3743    3.8036   -2.5796 H   0  0  0  0  0  0  0  0  0  0  0  0
   -4.9928    2.9746   -2.9192 H   0  0  0  0  0  0  0  0  0  0  0  0
   -3.3894    2.2829   -3.5111 H   0  0  0  0  0  0  0  0  0  0  0  0
   -1.8919    1.2780   -1.8693 H   0  0  0  0  0  0  0  0  0  0  0  0
   -3.5632    0.2056    1.8696 H   0  0  0  0  0  0  0  0  0  0  0  0
   -5.8746    0.7039    2.2119 H   0  0  0  0  0  0  0  0  0  0  0  0
   -5.6047    2.4670    2.2935 H   0  0  0  0  0  0  0  0  0  0  0  0
   -6.8227    1.8016    1.0769 H   0  0  0  0  0  0  0  0  0  0  0  0
    3.1024   -1.7595    1.3351 H   0  0  0  0  0  0  0  0  0  0  0  0
    5.3821   -1.1530    0.8470 H   0  0  0  0  0  0  0  0  0  0  0  0
    5.0895    2.4583   -2.1965 H   0  0  0  0  0  0  0  0  0  0  0  0
    3.3732    2.3728   -2.6219 H   0  0  0  0  0  0  0  0  0  0  0  0
    3.8819    3.4045   -1.2638 H   0  0  0  0  0  0  0  0  0  0  0  0
    1.6997    1.5161   -1.0566 H   0  0  0  0  0  0  0  0  0  0  0  0
    1.2464   -2.9022    2.0298 H   0  0  0  0  0  0  0  0  0  0  0  0
    1.6350   -3.0525    0.2504 H   0  0  0  0  0  0  0  0  0  0  0  0
   -0.7648   -4.1424    1.7485 H   0  0  0  0  0  0  0  0  0  0  0  0
    0.5209   -4.9480    0.7321 H   0  0  0  0  0  0  0  0  0  0  0  0
   -2.7787   -3.3707   -0.8763 H   0  0  0  0  0  0  0  0  0  0  0  0
   -2.6913   -4.4437    0.5336 H   0  0  0  0  0  0  0  0  0  0  0  0
   -2.1425   -2.7107    2.0099 H   0  0  0  0  0  0  0  0  0  0  0  0
   -3.2318   -1.8736    0.8070 H   0  0  0  0  0  0  0  0  0  0  0  0
  1  2  1  0
  2  3  2  0
  3  4  1  0
  4  5  2  0
  5  6  1  0
  6  7  1  0
  6  8  2  0
  4  9  1  0
  9 10  1  0
 10 11  2  0
 11 12  1  0
 12 13  2  0
 13 14  1  0
 14 15  2  0
 15 16  1  0
 16 17  1  0
 17 18  1  0
 17 19  1  0
 17 20  1  0
 15 21  1  0
 21 22  1  0
 21 23  2  0
 11 24  1  0
 24 25  1  0
 25 26  1  0
 26 27  1  0
 27 28  1  0
 28 29  1  0
 29 30  1  0
  8  2  1  0
 30  9  2  0
 23 12  1  0
 30 24  1  0
  1 31  1  0
  1 32  1  0
  1 33  1  0
  3 34  1  0
  5 35  1  0
  7 36  1  0
  7 37  1  0
  7 38  1  0
 13 39  1  0
 14 40  1  0
 22 41  1  0
 22 42  1  0
 22 43  1  0
 23 44  1  0
 25 45  1  0
 25 46  1  0
 26 47  1  0
 26 48  1  0
 28 49  1  0
 28 50  1  0
 29 51  1  0
 29 52  1  0
M  END
$$$$
[H]c1nc(C([H])([H])[H])c([H])c(-c2nc(-c3c([H])c([H])c(OC(F)(F)F)c(F)c3[H])n3c2C([H])([H])C([H])([H])O[C@]([H])(C([H])([H])[H])C3([H])[H])c1[H]
     RDKit          3D

 49 52  0  0  0  0  0  0  0  0999 V2000
   -0.5006   -2.0276    4.3804 C   0  0  0  0  0  0  0  0  0  0  0  0
   -0.2310   -1.9401    2.9037 C   0  0  2  0  0  0  0  0  0  0  0  0
    0.1550   -0.4918    2.4940 C   0  0  0  0  0  0  0  0  0  0  0  0
   -0.1471   -0.2535    1.1125 N   0  0  0  0  0  0  0  0  0  0  0  0
   -1.4232   -0.4179    0.6175 C   0  0  0  0  0  0  0  0  0  0  0  0
   -2.6819   -0.7147    1.3583 C   0  0  0  0  0  0  0  0  0  0  0  0
   -2.3987   -1.5706    2.5743 C   0  0  0  0  0  0  0  0  0  0  0  0
   -1.3211   -2.3956    2.2033 O   0  0  0  0  0  0  0  0  0  0  0  0
   -1.3628   -0.1981   -0.7372 C   0  0  0  0  0  0  0  0  0  0  0  0
   -0.0976    0.0858   -1.0044 N   0  0  0  0  0  0  0  0  0  0  0  0
    0.6855    0.0622    0.1248 C   0  0  0  0  0  0  0  0  0  0  0  0
    2.1179    0.2945    0.0861 C   0  0  0  0  0  0  0  0  0  0  0  0
    2.8149    0.0840   -1.1126 C   0  0  0  0  0  0  0  0  0  0  0  0
    4.1432    0.3584   -1.2092 C   0  0  0  0  0  0  0  0  0  0  0  0
    4.8527    0.8506   -0.1422 C   0  0  0  0  0  0  0  0  0  0  0  0
    6.2144    1.1172   -0.2846 O   0  0  0  0  0  0  0  0  0  0  0  0
    6.6746    2.3871   -0.7100 C   0  0  0  0  0  0  0  0  0  0  0  0
    6.2494    3.3483    0.1890 F   0  0  0  0  0  0  0  0  0  0  0  0
    8.0347    2.3285   -0.7778 F   0  0  0  0  0  0  0  0  0  0  0  0
    6.1381    2.7130   -1.9529 F   0  0  0  0  0  0  0  0  0  0  0  0
    4.2130    1.0683    1.0331 C   0  0  0  0  0  0  0  0  0  0  0  0
    4.9070    1.5527    2.0882 F   0  0  0  0  0  0  0  0  0  0  0  0
    2.8333    0.7822    1.1270 C   0  0  0  0  0  0  0  0  0  0  0  0
   -2.4546   -0.2301   -1.7322 C   0  0  0  0  0  0  0  0  0  0  0  0
   -3.3118   -1.2896   -1.8882 C   0  0  0  0  0  0  0  0  0  0  0  0
   -4.3344   -1.2590   -2.8222 C   0  0  0  0  0  0  0  0  0  0  0  0
   -4.4878   -0.1712   -3.5894 N   0  0  0  0  0  0  0  0  0  0  0  0
   -3.6663    0.8843   -3.4638 C   0  0  0  0  0  0  0  0  0  0  0  0
   -3.8846    2.0842   -4.3524 C   0  0  0  0  0  0  0  0  0  0  0  0
   -2.6595    0.8779   -2.5575 C   0  0  0  0  0  0  0  0  0  0  0  0
   -1.4300   -2.6209    4.5970 H   0  0  0  0  0  0  0  0  0  0  0  0
   -0.6252   -1.0591    4.8767 H   0  0  0  0  0  0  0  0  0  0  0  0
    0.3253   -2.6022    4.8901 H   0  0  0  0  0  0  0  0  0  0  0  0
    0.6378   -2.5977    2.6540 H   0  0  0  0  0  0  0  0  0  0  0  0
    1.1748   -0.4142    2.8145 H   0  0  0  0  0  0  0  0  0  0  0  0
   -0.4587    0.1623    3.1819 H   0  0  0  0  0  0  0  0  0  0  0  0
   -3.1651    0.2426    1.6839 H   0  0  0  0  0  0  0  0  0  0  0  0
   -3.4375   -1.2440    0.7800 H   0  0  0  0  0  0  0  0  0  0  0  0
   -2.1642   -0.9426    3.4485 H   0  0  0  0  0  0  0  0  0  0  0  0
   -3.2437   -2.2495    2.7913 H   0  0  0  0  0  0  0  0  0  0  0  0
    2.2412   -0.3096   -1.9624 H   0  0  0  0  0  0  0  0  0  0  0  0
    4.6810    0.1863   -2.1600 H   0  0  0  0  0  0  0  0  0  0  0  0
    2.4333    1.0416    2.0938 H   0  0  0  0  0  0  0  0  0  0  0  0
   -3.1900   -2.1838   -1.2894 H   0  0  0  0  0  0  0  0  0  0  0  0
   -5.0165   -2.1173   -2.9372 H   0  0  0  0  0  0  0  0  0  0  0  0
   -2.9206    2.5774   -4.5243 H   0  0  0  0  0  0  0  0  0  0  0  0
   -4.6622    2.7526   -3.9429 H   0  0  0  0  0  0  0  0  0  0  0  0
   -4.2621    1.7482   -5.3470 H   0  0  0  0  0  0  0  0  0  0  0  0
   -1.9882    1.7105   -2.4375 H   0  0  0  0  0  0  0  0  0  0  0  0
  1  2  1  0
  2  3  1  0
  3  4  1  0
  4  5  1  0
  5  6  1  0
  6  7  1  0
  7  8  1  0
  5  9  2  0
  9 10  1  0
 10 11  2  0
 11 12  1  0
 12 13  2  0
 13 14  1  0
 14 15  2  0
 15 16  1  0
 16 17  1  0
 17 18  1  0
 17 19  1  0
 17 20  1  0
 15 21  1  0
 21 22  1  0
 21 23  2  0
  9 24  1  0
 24 25  2  0
 25 26  1  0
 26 27  2  0
 27 28  1  0
 28 29  1  0
 28 30  2  0
  8  2  1  0
 23 12  1  0
 30 24  1  0
 11  4  1  0
  1 31  1  0
  1 32  1  0
  1 33  1  0
  2 34  1  1
  3 35  1  0
  3 36  1  0
  6 37  1  0
  6 38  1  0
  7 39  1  0
  7 40  1  0
 13 41  1  0
 14 42  1  0
 23 43  1  0
 25 44  1  0
 26 45  1  0
 29 46  1  0
 29 47  1  0
 29 48  1  0
 30 49  1  0
M  END
$$$$
[H]c1c([H])c(-c2nc(-c3c([H])c(C([H])([H])[H])nc(C([H])([H])[H])c3[H])c3n2C([H])([H])C([H])([H])OC([H])([H])C3([H])[H])c([H])c(F)c1OC(F)(F)F
     RDKit          3D

 49 52  0  0  0  0  0  0  0  0999 V2000
   -3.6938   -4.1367   -0.4002 C   0  0  0  0  0  0  0  0  0  0  0  0
   -3.5337   -2.7843    0.1667 C   0  0  0  0  0  0  0  0  0  0  0  0
   -2.4373   -2.0233   -0.2073 C   0  0  0  0  0  0  0  0  0  0  0  0
   -2.3147   -0.7662    0.3377 C   0  0  0  0  0  0  0  0  0  0  0  0
   -3.2710   -0.3371    1.2116 C   0  0  0  0  0  0  0  0  0  0  0  0
   -4.3624   -1.0978    1.5823 C   0  0  0  0  0  0  0  0  0  0  0  0
   -5.3994   -0.6234    2.5342 C   0  0  0  0  0  0  0  0  0  0  0  0
   -4.4571   -2.3222    1.0342 N   0  0  0  0  0  0  0  0  0  0  0  0
   -1.1372    0.0218   -0.0555 C   0  0  0  0  0  0  0  0  0  0  0  0
    0.0919   -0.4976   -0.0408 N   0  0  0  0  0  0  0  0  0  0  0  0
    1.0184    0.4301   -0.4536 C   0  0  0  0  0  0  0  0  0  0  0  0
    2.4378    0.1058   -0.5096 C   0  0  0  0  0  0  0  0  0  0  0  0
    2.9140   -0.9726    0.2607 C   0  0  0  0  0  0  0  0  0  0  0  0
    4.2281   -1.3559    0.1851 C   0  0  0  0  0  0  0  0  0  0  0  0
    5.1487   -0.7338   -0.6242 C   0  0  0  0  0  0  0  0  0  0  0  0
    6.4799   -1.1046   -0.7142 O   0  0  0  0  0  0  0  0  0  0  0  0
    7.0540   -2.1590    0.0098 C   0  0  0  0  0  0  0  0  0  0  0  0
    6.9270   -1.9177    1.3440 F   0  0  0  0  0  0  0  0  0  0  0  0
    8.3978   -2.3177   -0.3325 F   0  0  0  0  0  0  0  0  0  0  0  0
    6.3930   -3.3311   -0.3703 F   0  0  0  0  0  0  0  0  0  0  0  0
    4.6944    0.3279   -1.3886 C   0  0  0  0  0  0  0  0  0  0  0  0
    5.5103    1.0095   -2.2165 F   0  0  0  0  0  0  0  0  0  0  0  0
    3.3692    0.7105   -1.3102 C   0  0  0  0  0  0  0  0  0  0  0  0
    0.3075    1.5242   -0.7112 N   0  0  0  0  0  0  0  0  0  0  0  0
    0.8742    2.7896   -1.0922 C   0  0  0  0  0  0  0  0  0  0  0  0
    0.2171    3.8988   -0.2683 C   0  0  0  0  0  0  0  0  0  0  0  0
   -1.0575    4.2022   -0.6308 O   0  0  0  0  0  0  0  0  0  0  0  0
   -1.9976    3.4538    0.0995 C   0  0  0  0  0  0  0  0  0  0  0  0
   -2.1822    2.1746   -0.6839 C   0  0  0  0  0  0  0  0  0  0  0  0
   -1.0186    1.3114   -0.4842 C   0  0  0  0  0  0  0  0  0  0  0  0
   -4.1956   -4.8341    0.3190 H   0  0  0  0  0  0  0  0  0  0  0  0
   -2.6929   -4.5376   -0.6813 H   0  0  0  0  0  0  0  0  0  0  0  0
   -4.3220   -4.1352   -1.3169 H   0  0  0  0  0  0  0  0  0  0  0  0
   -1.7136   -2.4369   -0.9129 H   0  0  0  0  0  0  0  0  0  0  0  0
   -3.1933    0.6349    1.6518 H   0  0  0  0  0  0  0  0  0  0  0  0
   -4.9787    0.2173    3.1529 H   0  0  0  0  0  0  0  0  0  0  0  0
   -6.2674   -0.2392    1.9923 H   0  0  0  0  0  0  0  0  0  0  0  0
   -5.6288   -1.4408    3.2450 H   0  0  0  0  0  0  0  0  0  0  0  0
    2.2024   -1.4662    0.8988 H   0  0  0  0  0  0  0  0  0  0  0  0
    4.5652   -2.1917    0.7912 H   0  0  0  0  0  0  0  0  0  0  0  0
    3.0341    1.5194   -1.9613 H   0  0  0  0  0  0  0  0  0  0  0  0
    1.9391    2.8456   -0.7325 H   0  0  0  0  0  0  0  0  0  0  0  0
    0.7810    2.9310   -2.1577 H   0  0  0  0  0  0  0  0  0  0  0  0
    0.3075    3.5532    0.7993 H   0  0  0  0  0  0  0  0  0  0  0  0
    0.8500    4.7975   -0.4058 H   0  0  0  0  0  0  0  0  0  0  0  0
   -1.6187    3.1776    1.0948 H   0  0  0  0  0  0  0  0  0  0  0  0
   -2.9534    3.9695    0.2089 H   0  0  0  0  0  0  0  0  0  0  0  0
   -2.1855    2.4695   -1.7846 H   0  0  0  0  0  0  0  0  0  0  0  0
   -3.1299    1.6868   -0.4725 H   0  0  0  0  0  0  0  0  0  0  0  0
  1  2  1  0
  2  3  2  0
  3  4  1  0
  4  5  2  0
  5  6  1  0
  6  7  1  0
  6  8  2  0
  4  9  1  0
  9 10  1  0
 10 11  2  0
 11 12  1  0
 12 13  2  0
 13 14  1  0
 14 15  2  0
 15 16  1  0
 16 17  1  0
 17 18  1  0
 17 19  1  0
 17 20  1  0
 15 21  1  0
 21 22  1  0
 21 23  2  0
 11 24  1  0
 24 25  1  0
 25 26  1  0
 26 27  1  0
 27 28  1  0
 28 29  1  0
 29 30  1  0
  8  2  1  0
 30  9  2  0
 23 12  1  0
 30 24  1  0
  1 31  1  0
  1 32  1  0
  1 33  1  0
  3 34  1  0
  5 35  1  0
  7 36  1  0
  7 37  1  0
  7 38  1  0
 13 39  1  0
 14 40  1  0
 23 41  1  0
 25 42  1  0
 25 43  1  0
 26 44  1  0
 26 45  1  0
 28 46  1  0
 28 47  1  0
 29 48  1  0
 29 49  1  0
M  END
$$$$
[H]c1c([H])c(-c2nc(-c3c([H])c(C([H])([H])[H])nc(C([H])([H])[H])c3[H])c3n2C([H])([H])[C@@]([H])(C([H])([H])[H])OC([H])([H])C3([H])[H])c([H])c(C([H])([H])[H])c1F
     RDKit          3D

 51 54  0  0  0  0  0  0  0  0999 V2000
    2.7666    3.5474    0.9052 C   0  0  0  0  0  0  0  0  0  0  0  0
    1.5506    2.6943    0.7395 C   0  0  2  0  0  0  0  0  0  0  0  0
    1.5772    1.8915   -0.5511 C   0  0  0  0  0  0  0  0  0  0  0  0
    0.7005    0.7537   -0.3782 N   0  0  0  0  0  0  0  0  0  0  0  0
   -0.6773    0.8833   -0.2051 C   0  0  0  0  0  0  0  0  0  0  0  0
   -1.3565    2.2029   -0.0988 C   0  0  0  0  0  0  0  0  0  0  0  0
   -0.7324    2.8615    1.1319 C   0  0  0  0  0  0  0  0  0  0  0  0
    0.4133    3.5107    0.7556 O   0  0  0  0  0  0  0  0  0  0  0  0
   -1.1953   -0.3749   -0.1449 C   0  0  0  0  0  0  0  0  0  0  0  0
   -0.1708   -1.2182   -0.2747 N   0  0  0  0  0  0  0  0  0  0  0  0
    1.0204   -0.5232   -0.4181 C   0  0  0  0  0  0  0  0  0  0  0  0
    2.3005   -1.1921   -0.6068 C   0  0  0  0  0  0  0  0  0  0  0  0
    2.3093   -2.5187   -1.0792 C   0  0  0  0  0  0  0  0  0  0  0  0
    3.4510   -3.2581   -1.2279 C   0  0  0  0  0  0  0  0  0  0  0  0
    4.6712   -2.7102   -0.9091 C   0  0  0  0  0  0  0  0  0  0  0  0
    5.8357   -3.4054   -1.0407 F   0  0  0  0  0  0  0  0  0  0  0  0
    4.7157   -1.4198   -0.4429 C   0  0  0  0  0  0  0  0  0  0  0  0
    6.0267   -0.8060   -0.0907 C   0  0  0  0  0  0  0  0  0  0  0  0
    3.5286   -0.6929   -0.3024 C   0  0  0  0  0  0  0  0  0  0  0  0
   -2.6138   -0.6800    0.0207 C   0  0  0  0  0  0  0  0  0  0  0  0
   -3.1905   -1.6045   -0.8352 C   0  0  0  0  0  0  0  0  0  0  0  0
   -4.4988   -1.9597   -0.7436 C   0  0  0  0  0  0  0  0  0  0  0  0
   -5.0632   -2.9593   -1.6919 C   0  0  0  0  0  0  0  0  0  0  0  0
   -5.2487   -1.3899    0.2115 N   0  0  0  0  0  0  0  0  0  0  0  0
   -4.7637   -0.4953    1.0683 C   0  0  0  0  0  0  0  0  0  0  0  0
   -5.5827    0.1431    2.1302 C   0  0  0  0  0  0  0  0  0  0  0  0
   -3.4310   -0.1305    0.9787 C   0  0  0  0  0  0  0  0  0  0  0  0
    2.4674    4.4672    1.4610 H   0  0  0  0  0  0  0  0  0  0  0  0
    3.1150    3.8847   -0.0950 H   0  0  0  0  0  0  0  0  0  0  0  0
    3.5663    3.0778    1.5089 H   0  0  0  0  0  0  0  0  0  0  0  0
    1.5046    1.9777    1.5835 H   0  0  0  0  0  0  0  0  0  0  0  0
    1.0009    2.5813   -1.2931 H   0  0  0  0  0  0  0  0  0  0  0  0
    2.5440    1.7030   -0.9281 H   0  0  0  0  0  0  0  0  0  0  0  0
   -1.0448    2.8165   -0.9964 H   0  0  0  0  0  0  0  0  0  0  0  0
   -2.4349    2.1145   -0.0309 H   0  0  0  0  0  0  0  0  0  0  0  0
   -1.5031    3.5302    1.5609 H   0  0  0  0  0  0  0  0  0  0  0  0
   -0.5745    2.0613    1.8780 H   0  0  0  0  0  0  0  0  0  0  0  0
    1.3544   -2.9520   -1.3301 H   0  0  0  0  0  0  0  0  0  0  0  0
    3.4590   -4.2771   -1.5921 H   0  0  0  0  0  0  0  0  0  0  0  0
    6.5582   -0.6417   -1.0599 H   0  0  0  0  0  0  0  0  0  0  0  0
    5.9144    0.1179    0.4899 H   0  0  0  0  0  0  0  0  0  0  0  0
    6.6051   -1.5882    0.4486 H   0  0  0  0  0  0  0  0  0  0  0  0
    3.6436    0.2800    0.1063 H   0  0  0  0  0  0  0  0  0  0  0  0
   -2.5668   -2.0670   -1.6163 H   0  0  0  0  0  0  0  0  0  0  0  0
   -6.1612   -2.9829   -1.6165 H   0  0  0  0  0  0  0  0  0  0  0  0
   -4.6540   -3.9655   -1.4681 H   0  0  0  0  0  0  0  0  0  0  0  0
   -4.7934   -2.7270   -2.7517 H   0  0  0  0  0  0  0  0  0  0  0  0
   -6.4322   -0.5612    2.3529 H   0  0  0  0  0  0  0  0  0  0  0  0
   -4.9605    0.2929    3.0345 H   0  0  0  0  0  0  0  0  0  0  0  0
   -5.9291    1.1295    1.7942 H   0  0  0  0  0  0  0  0  0  0  0  0
   -3.0208    0.5782    1.6590 H   0  0  0  0  0  0  0  0  0  0  0  0
  1  2  1  0
  2  3  1  0
  3  4  1  0
  4  5  1  0
  5  6  1  0
  6  7  1  0
  7  8  1  0
  5  9  2  0
  9 10  1  0
 10 11  2  0
 11 12  1  0
 12 13  2  0
 13 14  1  0
 14 15  2  0
 15 16  1  0
 15 17  1  0
 17 18  1  0
 17 19  2  0
  9 20  1  0
 20 21  2  0
 21 22  1  0
 22 23  1  0
 22 24  2  0
 24 25  1  0
 25 26  1  0
 25 27  2  0
  8  2  1  0
 19 12  1  0
 27 20  1  0
 11  4  1  0
  1 28  1  0
  1 29  1  0
  1 30  1  0
  2 31  1  1
  3 32  1  0
  3 33  1  0
  6 34  1  0
  6 35  1  0
  7 36  1  0
  7 37  1  0
 13 38  1  0
 14 39  1  0
 18 40  1  0
 18 41  1  0
 18 42  1  0
 19 43  1  0
 21 44  1  0
 23 45  1  0
 23 46  1  0
 23 47  1  0
 26 48  1  0
 26 49  1  0
 26 50  1  0
 27 51  1  0
M  END
$$$$
[H]c1nc([H])n(-c2c([H])c([H])c([H])c(C3=Nc4c([H])c(C([H])([H])[H])c(C(F)(F)F)c([H])c4N([H])C(=O)C3([H])[H])c2[H])c1[H]
     RDKit          3D

 43 46  0  0  0  0  0  0  0  0999 V2000
   -5.2728   -1.7520    0.8609 C   0  0  0  0  0  0  0  0  0  0  0  0
   -4.3031   -0.7638    0.2689 C   0  0  0  0  0  0  0  0  0  0  0  0
   -2.9516   -1.0039    0.2670 C   0  0  0  0  0  0  0  0  0  0  0  0
   -2.0712   -0.0987   -0.2736 C   0  0  0  0  0  0  0  0  0  0  0  0
   -0.7200   -0.5215   -0.1845 N   0  0  0  0  0  0  0  0  0  0  0  0
    0.3884    0.1940   -0.1581 C   0  0  0  0  0  0  0  0  0  0  0  0
    0.4944    1.6580   -0.2174 C   0  0  0  0  0  0  0  0  0  0  0  0
   -0.3669    2.2681   -1.2974 C   0  0  0  0  0  0  0  0  0  0  0  0
    0.1912    2.9921   -2.1617 O   0  0  0  0  0  0  0  0  0  0  0  0
   -1.7699    2.0842   -1.4098 N   0  0  0  0  0  0  0  0  0  0  0  0
   -2.5935    1.0801   -0.8245 C   0  0  0  0  0  0  0  0  0  0  0  0
   -3.9365    1.3367   -0.8319 C   0  0  0  0  0  0  0  0  0  0  0  0
   -4.7877    0.4100   -0.2830 C   0  0  0  0  0  0  0  0  0  0  0  0
   -6.2358    0.6843   -0.2918 C   0  0  0  0  0  0  0  0  0  0  0  0
   -6.7667    0.7174    1.0055 F   0  0  0  0  0  0  0  0  0  0  0  0
   -6.4369    1.9586   -0.7841 F   0  0  0  0  0  0  0  0  0  0  0  0
   -6.9555   -0.1597   -1.1140 F   0  0  0  0  0  0  0  0  0  0  0  0
    1.6125   -0.6184   -0.0555 C   0  0  0  0  0  0  0  0  0  0  0  0
    1.5241   -2.0007   -0.0411 C   0  0  0  0  0  0  0  0  0  0  0  0
    2.6666   -2.7487    0.0652 C   0  0  0  0  0  0  0  0  0  0  0  0
    3.9007   -2.1437    0.1579 C   0  0  0  0  0  0  0  0  0  0  0  0
    4.0201   -0.7790    0.1465 C   0  0  0  0  0  0  0  0  0  0  0  0
    2.8394   -0.0297    0.0372 C   0  0  0  0  0  0  0  0  0  0  0  0
    5.2891   -0.1457    0.2416 N   0  0  0  0  0  0  0  0  0  0  0  0
    5.5965    1.0974   -0.1716 C   0  0  0  0  0  0  0  0  0  0  0  0
    6.9254    1.3414    0.0958 C   0  0  0  0  0  0  0  0  0  0  0  0
    7.4189    0.2250    0.6785 N   0  0  0  0  0  0  0  0  0  0  0  0
    6.4013   -0.6809    0.7616 C   0  0  0  0  0  0  0  0  0  0  0  0
   -4.6950   -2.6736    1.1654 H   0  0  0  0  0  0  0  0  0  0  0  0
   -5.6838   -1.3639    1.8112 H   0  0  0  0  0  0  0  0  0  0  0  0
   -6.0086   -2.0814    0.1287 H   0  0  0  0  0  0  0  0  0  0  0  0
   -2.6148   -1.9391    0.7113 H   0  0  0  0  0  0  0  0  0  0  0  0
    0.1364    2.0339    0.7748 H   0  0  0  0  0  0  0  0  0  0  0  0
    1.4996    2.0027   -0.4346 H   0  0  0  0  0  0  0  0  0  0  0  0
   -2.3055    2.7741   -2.0051 H   0  0  0  0  0  0  0  0  0  0  0  0
   -4.2630    2.2653   -1.2737 H   0  0  0  0  0  0  0  0  0  0  0  0
    0.5404   -2.4357   -0.1157 H   0  0  0  0  0  0  0  0  0  0  0  0
    2.5929   -3.8494    0.0764 H   0  0  0  0  0  0  0  0  0  0  0  0
    4.7813   -2.7766    0.2406 H   0  0  0  0  0  0  0  0  0  0  0  0
    3.0167    1.0336    0.0421 H   0  0  0  0  0  0  0  0  0  0  0  0
    4.9212    1.8047   -0.6404 H   0  0  0  0  0  0  0  0  0  0  0  0
    7.4207    2.2623   -0.1368 H   0  0  0  0  0  0  0  0  0  0  0  0
    6.5611   -1.6580    1.1967 H   0  0  0  0  0  0  0  0  0  0  0  0
  1  2  1  0
  2  3  2  0
  3  4  1  0
  4  5  1  0
  5  6  2  0
  6  7  1  0
  7  8  1  0
  8  9  2  0
  8 10  1  0
 10 11  1  0
 11 12  1  0
 12 13  2  0
 13 14  1  0
 14 15  1  0
 14 16  1  0
 14 17  1  0
  6 18  1  0
 18 19  2  0
 19 20  1  0
 20 21  2  0
 21 22  1  0
 22 23  2  0
 22 24  1  0
 24 25  1  0
 25 26  2  0
 26 27  1  0
 27 28  2  0
 13  2  1  0
 23 18  1  0
 28 24  1  0
 11  4  2  0
  1 29  1  0
  1 30  1  0
  1 31  1  0
  3 32  1  0
  7 33  1  0
  7 34  1  0
 10 35  1  0
 12 36  1  0
 19 37  1  0
 20 38  1  0
 21 39  1  0
 23 40  1  0
 25 41  1  0
 26 42  1  0
 28 43  1  0
M  END
$$$$
[H]c1c([H])c(-c2nc(-c3c([H])c(C([H])([H])[H])nc(C([H])([H])[H])c3[H])c3n2C([H])([H])[C@@]([H])(C([H])([H])[H])OC([H])([H])C3([H])[H])c([H])c(C#N)c1F
     RDKit          3D

 49 52  0  0  0  0  0  0  0  0999 V2000
   -3.2506   -3.0771   -1.8885 C   0  0  0  0  0  0  0  0  0  0  0  0
   -1.9139   -2.3856   -1.5361 C   0  0  2  0  0  0  0  0  0  0  0  0
   -2.2201   -1.0671   -0.9035 C   0  0  0  0  0  0  0  0  0  0  0  0
   -1.1199   -0.3642   -0.3646 N   0  0  0  0  0  0  0  0  0  0  0  0
    0.2053   -0.6350   -0.5519 C   0  0  0  0  0  0  0  0  0  0  0  0
    0.6969   -1.7332   -1.3976 C   0  0  0  0  0  0  0  0  0  0  0  0
   -0.0151   -1.7042   -2.7347 C   0  0  0  0  0  0  0  0  0  0  0  0
   -1.1296   -2.4574   -2.6077 O   0  0  0  0  0  0  0  0  0  0  0  0
    0.9571    0.2414    0.1594 C   0  0  0  0  0  0  0  0  0  0  0  0
    0.0789    1.0403    0.7761 N   0  0  0  0  0  0  0  0  0  0  0  0
   -1.2187    0.6794    0.4605 C   0  0  0  0  0  0  0  0  0  0  0  0
   -2.3281    1.4045    1.0435 C   0  0  0  0  0  0  0  0  0  0  0  0
   -2.0697    2.2746    2.1020 C   0  0  0  0  0  0  0  0  0  0  0  0
   -3.0566    3.0311    2.6882 C   0  0  0  0  0  0  0  0  0  0  0  0
   -4.3368    2.9423    2.2341 C   0  0  0  0  0  0  0  0  0  0  0  0
   -5.3279    3.6913    2.8113 F   0  0  0  0  0  0  0  0  0  0  0  0
   -4.6433    2.1056    1.1993 C   0  0  0  0  0  0  0  0  0  0  0  0
   -3.6171    1.3358    0.6081 C   0  0  0  0  0  0  0  0  0  0  0  0
   -5.9861    1.9941    0.7020 C   0  0  0  0  0  0  0  0  0  0  0  0
   -7.0895    1.9164    0.3102 N   0  0  0  0  0  0  0  0  0  0  0  0
    2.4197    0.2917    0.2510 C   0  0  0  0  0  0  0  0  0  0  0  0
    3.2551    0.3056   -0.8355 C   0  0  0  0  0  0  0  0  0  0  0  0
    4.6378    0.3380   -0.6336 C   0  0  0  0  0  0  0  0  0  0  0  0
    5.5400    0.3523   -1.8255 C   0  0  0  0  0  0  0  0  0  0  0  0
    5.1186    0.3555    0.6215 N   0  0  0  0  0  0  0  0  0  0  0  0
    4.3377    0.3434    1.7065 C   0  0  0  0  0  0  0  0  0  0  0  0
    4.8737    0.3631    3.0916 C   0  0  0  0  0  0  0  0  0  0  0  0
    2.9875    0.3115    1.5297 C   0  0  0  0  0  0  0  0  0  0  0  0
   -3.7136   -2.5892   -2.7658 H   0  0  0  0  0  0  0  0  0  0  0  0
   -3.0010   -4.1353   -2.0608 H   0  0  0  0  0  0  0  0  0  0  0  0
   -3.9372   -2.9607   -1.0304 H   0  0  0  0  0  0  0  0  0  0  0  0
   -1.5148   -3.0564   -0.7435 H   0  0  0  0  0  0  0  0  0  0  0  0
   -2.9573   -1.2425   -0.0938 H   0  0  0  0  0  0  0  0  0  0  0  0
   -2.7064   -0.4609   -1.6812 H   0  0  0  0  0  0  0  0  0  0  0  0
    0.4484   -2.7331   -0.9305 H   0  0  0  0  0  0  0  0  0  0  0  0
    1.7765   -1.7450   -1.5851 H   0  0  0  0  0  0  0  0  0  0  0  0
   -0.2694   -0.6149   -2.9065 H   0  0  0  0  0  0  0  0  0  0  0  0
    0.6571   -2.0006   -3.5643 H   0  0  0  0  0  0  0  0  0  0  0  0
   -1.0716    2.3870    2.5075 H   0  0  0  0  0  0  0  0  0  0  0  0
   -2.8082    3.6873    3.5017 H   0  0  0  0  0  0  0  0  0  0  0  0
   -3.9570    0.7328   -0.2103 H   0  0  0  0  0  0  0  0  0  0  0  0
    2.8608    0.3032   -1.8330 H   0  0  0  0  0  0  0  0  0  0  0  0
    6.4809   -0.1863   -1.5983 H   0  0  0  0  0  0  0  0  0  0  0  0
    4.9796   -0.0937   -2.6718 H   0  0  0  0  0  0  0  0  0  0  0  0
    5.7273    1.4184   -2.0900 H   0  0  0  0  0  0  0  0  0  0  0  0
    4.8578   -0.6697    3.4936 H   0  0  0  0  0  0  0  0  0  0  0  0
    5.8854    0.8192    3.1384 H   0  0  0  0  0  0  0  0  0  0  0  0
    4.1714    0.9458    3.7371 H   0  0  0  0  0  0  0  0  0  0  0  0
    2.3062    0.3004    2.3713 H   0  0  0  0  0  0  0  0  0  0  0  0
  1  2  1  0
  2  3  1  0
  3  4  1  0
  4  5  1  0
  5  6  1  0
  6  7  1  0
  7  8  1  0
  5  9  2  0
  9 10  1  0
 10 11  2  0
 11 12  1  0
 12 13  2  0
 13 14  1  0
 14 15  2  0
 15 16  1  0
 15 17  1  0
 17 18  2  0
 17 19  1  0
 19 20  3  0
  9 21  1  0
 21 22  2  0
 22 23  1  0
 23 24  1  0
 23 25  2  0
 25 26  1  0
 26 27  1  0
 26 28  2  0
  8  2  1  0
 18 12  1  0
 28 21  1  0
 11  4  1  0
  1 29  1  0
  1 30  1  0
  1 31  1  0
  2 32  1  1
  3 33  1  0
  3 34  1  0
  6 35  1  0
  6 36  1  0
  7 37  1  0
  7 38  1  0
 13 39  1  0
 14 40  1  0
 18 41  1  0
 22 42  1  0
 24 43  1  0
 24 44  1  0
 24 45  1  0
 27 46  1  0
 27 47  1  0
 27 48  1  0
 28 49  1  0
M  END
$$$$
[H]c1nc(C([H])([H])[H])c([H])c(-c2nc(-c3c([H])c([H])c(C(F)(F)F)c(OC([H])([H])[H])c3[H])n3c2C([H])([H])C([H])([H])O[C@]([H])(C([H])([H])F)C3([H])[H])c1[H]
     RDKit          3D

 52 55  0  0  0  0  0  0  0  0999 V2000
    5.3541    0.0452    1.3303 C   0  0  0  0  0  0  0  0  0  0  0  0
    5.2906   -0.6748    0.1352 O   0  0  0  0  0  0  0  0  0  0  0  0
    4.1440   -0.9654   -0.5589 C   0  0  0  0  0  0  0  0  0  0  0  0
    2.8858   -0.5461   -0.1079 C   0  0  0  0  0  0  0  0  0  0  0  0
    1.7671   -0.8334   -0.7932 C   0  0  0  0  0  0  0  0  0  0  0  0
    1.8754   -1.5722   -1.9854 C   0  0  0  0  0  0  0  0  0  0  0  0
    3.1036   -1.9889   -2.4371 C   0  0  0  0  0  0  0  0  0  0  0  0
    4.2223   -1.6838   -1.7244 C   0  0  0  0  0  0  0  0  0  0  0  0
    5.5508   -2.1566   -2.2498 C   0  0  0  0  0  0  0  0  0  0  0  0
    6.3155   -1.0199   -2.4626 F   0  0  0  0  0  0  0  0  0  0  0  0
    6.1657   -3.0230   -1.3984 F   0  0  0  0  0  0  0  0  0  0  0  0
    5.3832   -2.7612   -3.4724 F   0  0  0  0  0  0  0  0  0  0  0  0
    0.4289   -0.3994   -0.4230 C   0  0  0  0  0  0  0  0  0  0  0  0
   -0.6957   -0.8949   -1.0544 N   0  0  0  0  0  0  0  0  0  0  0  0
   -1.8085   -0.3373   -0.5820 C   0  0  0  0  0  0  0  0  0  0  0  0
   -1.3975    0.5436    0.3789 C   0  0  0  0  0  0  0  0  0  0  0  0
   -2.3189    1.4063    1.1512 C   0  0  0  0  0  0  0  0  0  0  0  0
   -1.8966    2.8640    0.9206 C   0  0  0  0  0  0  0  0  0  0  0  0
   -0.7449    3.1669    1.5495 O   0  0  0  0  0  0  0  0  0  0  0  0
   -0.0260    2.2367    2.1799 C   0  0  2  0  0  0  0  0  0  0  0  0
    1.0255    2.9697    3.0379 C   0  0  0  0  0  0  0  0  0  0  0  0
    1.8113    2.0648    3.7235 F   0  0  0  0  0  0  0  0  0  0  0  0
    0.7869    1.2742    1.3424 C   0  0  0  0  0  0  0  0  0  0  0  0
   -0.0279    0.4868    0.4575 N   0  0  0  0  0  0  0  0  0  0  0  0
   -3.1806   -0.6508   -1.0541 C   0  0  0  0  0  0  0  0  0  0  0  0
   -3.4347   -0.6551   -2.3933 C   0  0  0  0  0  0  0  0  0  0  0  0
   -4.7060   -0.9743   -2.8413 C   0  0  0  0  0  0  0  0  0  0  0  0
   -5.6600   -1.2723   -1.9447 N   0  0  0  0  0  0  0  0  0  0  0  0
   -5.4145   -1.2693   -0.6272 C   0  0  0  0  0  0  0  0  0  0  0  0
   -6.4660   -1.5982    0.3688 C   0  0  0  0  0  0  0  0  0  0  0  0
   -4.1448   -0.9518   -0.1545 C   0  0  0  0  0  0  0  0  0  0  0  0
    4.8287    1.0053    1.3175 H   0  0  0  0  0  0  0  0  0  0  0  0
    4.8851   -0.5816    2.1319 H   0  0  0  0  0  0  0  0  0  0  0  0
    6.4091    0.2201    1.5965 H   0  0  0  0  0  0  0  0  0  0  0  0
    2.9248   -0.0158    0.8147 H   0  0  0  0  0  0  0  0  0  0  0  0
    1.0157   -1.8303   -2.5730 H   0  0  0  0  0  0  0  0  0  0  0  0
    3.2087   -2.5604   -3.3577 H   0  0  0  0  0  0  0  0  0  0  0  0
   -2.4049    1.1430    2.2082 H   0  0  0  0  0  0  0  0  0  0  0  0
   -3.3705    1.3423    0.7436 H   0  0  0  0  0  0  0  0  0  0  0  0
   -1.7973    2.9766   -0.1811 H   0  0  0  0  0  0  0  0  0  0  0  0
   -2.7385    3.5170    1.2241 H   0  0  0  0  0  0  0  0  0  0  0  0
   -0.6049    1.6530    2.9012 H   0  0  0  0  0  0  0  0  0  0  0  0
    1.7050    3.5615    2.3597 H   0  0  0  0  0  0  0  0  0  0  0  0
    0.5576    3.6864    3.7181 H   0  0  0  0  0  0  0  0  0  0  0  0
    1.6201    1.7970    0.8426 H   0  0  0  0  0  0  0  0  0  0  0  0
    1.2196    0.5784    2.0918 H   0  0  0  0  0  0  0  0  0  0  0  0
   -2.6738   -0.4159   -3.1394 H   0  0  0  0  0  0  0  0  0  0  0  0
   -4.8811   -0.9700   -3.9173 H   0  0  0  0  0  0  0  0  0  0  0  0
   -6.2723   -2.6009    0.8044 H   0  0  0  0  0  0  0  0  0  0  0  0
   -7.4814   -1.5132   -0.0344 H   0  0  0  0  0  0  0  0  0  0  0  0
   -6.3683   -0.8626    1.2150 H   0  0  0  0  0  0  0  0  0  0  0  0
   -3.9699   -0.9590    0.9224 H   0  0  0  0  0  0  0  0  0  0  0  0
  1  2  1  0
  2  3  1  0
  3  4  2  0
  4  5  1  0
  5  6  2  0
  6  7  1  0
  7  8  2  0
  8  9  1  0
  9 10  1  0
  9 11  1  0
  9 12  1  0
  5 13  1  0
 13 14  2  0
 14 15  1  0
 15 16  2  0
 16 17  1  0
 17 18  1  0
 18 19  1  0
 19 20  1  0
 20 21  1  0
 21 22  1  0
 20 23  1  0
 23 24  1  0
 15 25  1  0
 25 26  2  0
 26 27  1  0
 27 28  2  0
 28 29  1  0
 29 30  1  0
 29 31  2  0
  8  3  1  0
 24 13  1  0
 31 25  1  0
 24 16  1  0
  1 32  1  0
  1 33  1  0
  1 34  1  0
  4 35  1  0
  6 36  1  0
  7 37  1  0
 17 38  1  0
 17 39  1  0
 18 40  1  0
 18 41  1  0
 20 42  1  1
 21 43  1  0
 21 44  1  0
 23 45  1  0
 23 46  1  0
 26 47  1  0
 27 48  1  0
 30 49  1  0
 30 50  1  0
 30 51  1  0
 31 52  1  0
M  END
$$$$
[H]c1c([H])c(-c2nc(-c3c([H])c(C([H])([H])[H])nc(C([H])([H])[H])c3[H])c3n2C([H])([H])[C@@]([H])(C([H])([H])[H])OC([H])([H])C3([H])[H])c([H])c(Cl)c1Cl
     RDKit          3D

 48 51  0  0  0  0  0  0  0  0999 V2000
   -3.3961    3.1100   -1.1745 C   0  0  0  0  0  0  0  0  0  0  0  0
   -2.3689    2.0149   -1.0627 C   0  0  2  0  0  0  0  0  0  0  0  0
   -2.2382    1.6315    0.4333 C   0  0  0  0  0  0  0  0  0  0  0  0
   -1.2012    0.6511    0.4700 N   0  0  0  0  0  0  0  0  0  0  0  0
    0.1022    0.9837    0.1836 C   0  0  0  0  0  0  0  0  0  0  0  0
    0.7229    2.2916   -0.1483 C   0  0  0  0  0  0  0  0  0  0  0  0
   -0.3246    3.1118   -0.9198 C   0  0  0  0  0  0  0  0  0  0  0  0
   -1.1667    2.3021   -1.6368 O   0  0  0  0  0  0  0  0  0  0  0  0
    0.8156   -0.1539    0.2486 C   0  0  0  0  0  0  0  0  0  0  0  0
   -0.0413   -1.1273    0.5643 N   0  0  0  0  0  0  0  0  0  0  0  0
   -1.3139   -0.6484    0.7105 C   0  0  0  0  0  0  0  0  0  0  0  0
   -2.4356   -1.5271    1.0005 C   0  0  0  0  0  0  0  0  0  0  0  0
   -3.6417   -1.1899    1.5056 C   0  0  0  0  0  0  0  0  0  0  0  0
   -4.6690   -2.1391    1.6532 C   0  0  0  0  0  0  0  0  0  0  0  0
   -4.4757   -3.4311    1.2913 C   0  0  0  0  0  0  0  0  0  0  0  0
   -5.7207   -4.6687    1.4502 Cl  0  0  0  0  0  0  0  0  0  0  0  0
   -3.2646   -3.8234    0.7742 C   0  0  0  0  0  0  0  0  0  0  0  0
   -2.9841   -5.4992    0.2913 Cl  0  0  0  0  0  0  0  0  0  0  0  0
   -2.2829   -2.8869    0.6390 C   0  0  0  0  0  0  0  0  0  0  0  0
    2.2652   -0.3571    0.0256 C   0  0  0  0  0  0  0  0  0  0  0  0
    3.2069    0.4765    0.5777 C   0  0  0  0  0  0  0  0  0  0  0  0
    4.5318    0.2019    0.3098 C   0  0  0  0  0  0  0  0  0  0  0  0
    5.5587    1.0848    0.8930 C   0  0  0  0  0  0  0  0  0  0  0  0
    4.9136   -0.8344   -0.4584 N   0  0  0  0  0  0  0  0  0  0  0  0
    4.0189   -1.6711   -1.0153 C   0  0  0  0  0  0  0  0  0  0  0  0
    4.4431   -2.8191   -1.8664 C   0  0  0  0  0  0  0  0  0  0  0  0
    2.6824   -1.4108   -0.7571 C   0  0  0  0  0  0  0  0  0  0  0  0
   -4.4164    2.6865   -1.0688 H   0  0  0  0  0  0  0  0  0  0  0  0
   -3.3526    3.6606   -2.1114 H   0  0  0  0  0  0  0  0  0  0  0  0
   -3.2530    3.7747   -0.2758 H   0  0  0  0  0  0  0  0  0  0  0  0
   -2.7915    1.1082   -1.5434 H   0  0  0  0  0  0  0  0  0  0  0  0
   -1.8295    2.5974    0.8917 H   0  0  0  0  0  0  0  0  0  0  0  0
   -3.1802    1.4503    0.8724 H   0  0  0  0  0  0  0  0  0  0  0  0
    0.8753    2.8342    0.8069 H   0  0  0  0  0  0  0  0  0  0  0  0
    1.6275    2.1499   -0.7476 H   0  0  0  0  0  0  0  0  0  0  0  0
   -0.7966    3.8753   -0.3017 H   0  0  0  0  0  0  0  0  0  0  0  0
    0.2795    3.6876   -1.6842 H   0  0  0  0  0  0  0  0  0  0  0  0
   -3.8351   -0.1892    1.8461 H   0  0  0  0  0  0  0  0  0  0  0  0
   -5.5987   -1.8198    2.0544 H   0  0  0  0  0  0  0  0  0  0  0  0
   -1.3463   -3.2054    0.2345 H   0  0  0  0  0  0  0  0  0  0  0  0
    2.9097    1.3269    1.2072 H   0  0  0  0  0  0  0  0  0  0  0  0
    5.2172    2.1320    0.9225 H   0  0  0  0  0  0  0  0  0  0  0  0
    5.7684    0.7026    1.9237 H   0  0  0  0  0  0  0  0  0  0  0  0
    6.5010    0.9879    0.3142 H   0  0  0  0  0  0  0  0  0  0  0  0
    3.5639   -3.1027   -2.4867 H   0  0  0  0  0  0  0  0  0  0  0  0
    5.3400   -2.5813   -2.4565 H   0  0  0  0  0  0  0  0  0  0  0  0
    4.6315   -3.6695   -1.1790 H   0  0  0  0  0  0  0  0  0  0  0  0
    1.9501   -2.0789   -1.2008 H   0  0  0  0  0  0  0  0  0  0  0  0
  1  2  1  0
  2  3  1  0
  3  4  1  0
  4  5  1  0
  5  6  1  0
  6  7  1  0
  7  8  1  0
  5  9  2  0
  9 10  1  0
 10 11  2  0
 11 12  1  0
 12 13  2  0
 13 14  1  0
 14 15  2  0
 15 16  1  0
 15 17  1  0
 17 18  1  0
 17 19  2  0
  9 20  1  0
 20 21  2  0
 21 22  1  0
 22 23  1  0
 22 24  2  0
 24 25  1  0
 25 26  1  0
 25 27  2  0
  8  2  1  0
 19 12  1  0
 27 20  1  0
 11  4  1  0
  1 28  1  0
  1 29  1  0
  1 30  1  0
  2 31  1  6
  3 32  1  0
  3 33  1  0
  6 34  1  0
  6 35  1  0
  7 36  1  0
  7 37  1  0
 13 38  1  0
 14 39  1  0
 19 40  1  0
 21 41  1  0
 23 42  1  0
 23 43  1  0
 23 44  1  0
 26 45  1  0
 26 46  1  0
 26 47  1  0
 27 48  1  0
M  END
$$$$
[H]c1nc(C([H])([H])[H])c([H])c(-c2nc(-c3c([H])c([H])c(F)c(C#N)c3[H])n3c2C([H])([H])C([H])([H])O[C@]([H])(C([H])([H])[H])C3([H])[H])c1[H]
     RDKit          3D

 46 49  0  0  0  0  0  0  0  0999 V2000
   -2.4564    4.0597    0.6692 C   0  0  0  0  0  0  0  0  0  0  0  0
   -1.1903    3.1915    0.4844 C   0  0  2  0  0  0  0  0  0  0  0  0
   -1.7018    1.9095   -0.1601 C   0  0  0  0  0  0  0  0  0  0  0  0
   -0.7608    0.8307   -0.1209 N   0  0  0  0  0  0  0  0  0  0  0  0
    0.5603    0.9642    0.2239 C   0  0  0  0  0  0  0  0  0  0  0  0
    1.2471    2.2331    0.5403 C   0  0  0  0  0  0  0  0  0  0  0  0
    0.6658    2.7754    1.8076 C   0  0  0  0  0  0  0  0  0  0  0  0
   -0.6825    3.0343    1.7412 O   0  0  0  0  0  0  0  0  0  0  0  0
    1.1270   -0.2867    0.1917 C   0  0  0  0  0  0  0  0  0  0  0  0
    0.1430   -1.1160   -0.1683 N   0  0  0  0  0  0  0  0  0  0  0  0
   -1.0231   -0.4312   -0.3632 C   0  0  0  0  0  0  0  0  0  0  0  0
   -2.2288   -1.1320   -0.7421 C   0  0  0  0  0  0  0  0  0  0  0  0
   -3.4090   -0.5662   -1.1543 C   0  0  0  0  0  0  0  0  0  0  0  0
   -4.5452   -1.3101   -1.4666 C   0  0  0  0  0  0  0  0  0  0  0  0
   -4.5294   -2.6820   -1.3726 C   0  0  0  0  0  0  0  0  0  0  0  0
   -5.6167   -3.4147   -1.6701 F   0  0  0  0  0  0  0  0  0  0  0  0
   -3.3517   -3.2689   -0.9611 C   0  0  0  0  0  0  0  0  0  0  0  0
   -2.2515   -2.5260   -0.6596 C   0  0  0  0  0  0  0  0  0  0  0  0
   -3.3197   -4.6939   -0.8588 C   0  0  0  0  0  0  0  0  0  0  0  0
   -3.2940   -5.8413   -0.7764 N   0  0  0  0  0  0  0  0  0  0  0  0
    2.5088   -0.6591    0.4740 C   0  0  0  0  0  0  0  0  0  0  0  0
    3.2141   -0.2726    1.5873 C   0  0  0  0  0  0  0  0  0  0  0  0
    4.5201   -0.6514    1.7919 C   0  0  0  0  0  0  0  0  0  0  0  0
    5.0984   -1.4191    0.8654 N   0  0  0  0  0  0  0  0  0  0  0  0
    4.4556   -1.8293   -0.2470 C   0  0  0  0  0  0  0  0  0  0  0  0
    5.1800   -2.6777   -1.2153 C   0  0  0  0  0  0  0  0  0  0  0  0
    3.1613   -1.4568   -0.4551 C   0  0  0  0  0  0  0  0  0  0  0  0
   -3.1122    3.9276   -0.2001 H   0  0  0  0  0  0  0  0  0  0  0  0
   -2.9817    3.5786    1.5415 H   0  0  0  0  0  0  0  0  0  0  0  0
   -2.2018    5.1009    0.8557 H   0  0  0  0  0  0  0  0  0  0  0  0
   -0.5568    3.7897   -0.1953 H   0  0  0  0  0  0  0  0  0  0  0  0
   -2.6404    1.6868    0.3883 H   0  0  0  0  0  0  0  0  0  0  0  0
   -1.9337    2.1620   -1.2052 H   0  0  0  0  0  0  0  0  0  0  0  0
    2.3163    2.0150    0.7139 H   0  0  0  0  0  0  0  0  0  0  0  0
    1.2354    2.9441   -0.3150 H   0  0  0  0  0  0  0  0  0  0  0  0
    1.1776    3.7477    2.0151 H   0  0  0  0  0  0  0  0  0  0  0  0
    0.9196    2.0850    2.6231 H   0  0  0  0  0  0  0  0  0  0  0  0
   -3.5158    0.4782   -1.2815 H   0  0  0  0  0  0  0  0  0  0  0  0
   -5.4536   -0.8454   -1.7849 H   0  0  0  0  0  0  0  0  0  0  0  0
   -1.3669   -3.0598   -0.3435 H   0  0  0  0  0  0  0  0  0  0  0  0
    2.7387    0.3350    2.3223 H   0  0  0  0  0  0  0  0  0  0  0  0
    5.0875   -0.3585    2.6566 H   0  0  0  0  0  0  0  0  0  0  0  0
    6.2552   -2.4095   -1.1588 H   0  0  0  0  0  0  0  0  0  0  0  0
    5.0456   -3.7613   -1.0357 H   0  0  0  0  0  0  0  0  0  0  0  0
    4.8385   -2.4015   -2.2363 H   0  0  0  0  0  0  0  0  0  0  0  0
    2.6279   -1.7781   -1.3457 H   0  0  0  0  0  0  0  0  0  0  0  0
  1  2  1  0
  2  3  1  0
  3  4  1  0
  4  5  1  0
  5  6  1  0
  6  7  1  0
  7  8  1  0
  5  9  2  0
  9 10  1  0
 10 11  2  0
 11 12  1  0
 12 13  2  0
 13 14  1  0
 14 15  2  0
 15 16  1  0
 15 17  1  0
 17 18  2  0
 17 19  1  0
 19 20  3  0
  9 21  1  0
 21 22  2  0
 22 23  1  0
 23 24  2  0
 24 25  1  0
 25 26  1  0
 25 27  2  0
  8  2  1  0
 18 12  1  0
 27 21  1  0
 11  4  1  0
  1 28  1  0
  1 29  1  0
  1 30  1  0
  2 31  1  6
  3 32  1  0
  3 33  1  0
  6 34  1  0
  6 35  1  0
  7 36  1  0
  7 37  1  0
 13 38  1  0
 14 39  1  0
 18 40  1  0
 22 41  1  0
 23 42  1  0
 26 43  1  0
 26 44  1  0
 26 45  1  0
 27 46  1  0
M  END
$$$$
[H]c1c([H])c(-c2nc(-c3c([H])c(C([H])([H])[H])nc(C([H])([H])F)c3[H])c3n2C([H])([H])[C@@]([H])(C([H])([H])[H])OC([H])([H])C3([H])[H])c([H])c(C([H])([H])[H])c1F
     RDKit          3D

 51 54  0  0  0  0  0  0  0  0999 V2000
   -3.0690    3.1960    1.6601 C   0  0  0  0  0  0  0  0  0  0  0  0
   -1.7356    2.5447    1.3195 C   0  0  2  0  0  0  0  0  0  0  0  0
   -2.0020    1.0753    1.0938 C   0  0  0  0  0  0  0  0  0  0  0  0
   -0.8395    0.3978    0.5445 N   0  0  0  0  0  0  0  0  0  0  0  0
    0.4791    0.6780    0.7718 C   0  0  0  0  0  0  0  0  0  0  0  0
    1.1280    1.6366    1.6689 C   0  0  0  0  0  0  0  0  0  0  0  0
    0.4169    2.9462    1.6903 C   0  0  0  0  0  0  0  0  0  0  0  0
   -0.8151    2.7193    2.3297 O   0  0  0  0  0  0  0  0  0  0  0  0
    1.1705   -0.2102   -0.0466 C   0  0  0  0  0  0  0  0  0  0  0  0
    0.2918   -0.9544   -0.7003 N   0  0  0  0  0  0  0  0  0  0  0  0
   -0.9688   -0.5947   -0.3442 C   0  0  0  0  0  0  0  0  0  0  0  0
   -2.1207   -1.2416   -0.9177 C   0  0  0  0  0  0  0  0  0  0  0  0
   -1.9654   -1.9052   -2.1540 C   0  0  0  0  0  0  0  0  0  0  0  0
   -2.9856   -2.6114   -2.7433 C   0  0  0  0  0  0  0  0  0  0  0  0
   -4.2175   -2.7024   -2.1454 C   0  0  0  0  0  0  0  0  0  0  0  0
   -5.1922   -3.4083   -2.7643 F   0  0  0  0  0  0  0  0  0  0  0  0
   -4.4240   -2.0762   -0.9403 C   0  0  0  0  0  0  0  0  0  0  0  0
   -5.7566   -2.1526   -0.2552 C   0  0  0  0  0  0  0  0  0  0  0  0
   -3.3710   -1.3722   -0.3728 C   0  0  0  0  0  0  0  0  0  0  0  0
    2.6066   -0.3315   -0.1930 C   0  0  0  0  0  0  0  0  0  0  0  0
    3.4417   -0.4169    0.8979 C   0  0  0  0  0  0  0  0  0  0  0  0
    4.8021   -0.5306    0.7155 C   0  0  0  0  0  0  0  0  0  0  0  0
    5.6358   -0.6175    1.9480 C   0  0  0  0  0  0  0  0  0  0  0  0
    5.3504   -0.5615   -0.5098 N   0  0  0  0  0  0  0  0  0  0  0  0
    4.5640   -0.4805   -1.5935 C   0  0  0  0  0  0  0  0  0  0  0  0
    5.1345   -0.5113   -2.9770 C   0  0  0  0  0  0  0  0  0  0  0  0
    5.1939   -1.8234   -3.4072 F   0  0  0  0  0  0  0  0  0  0  0  0
    3.2022   -0.3662   -1.4465 C   0  0  0  0  0  0  0  0  0  0  0  0
   -3.9102    2.4836    1.5923 H   0  0  0  0  0  0  0  0  0  0  0  0
   -3.0229    3.6559    2.6890 H   0  0  0  0  0  0  0  0  0  0  0  0
   -3.2665    4.0409    0.9762 H   0  0  0  0  0  0  0  0  0  0  0  0
   -1.3785    2.9828    0.3548 H   0  0  0  0  0  0  0  0  0  0  0  0
   -2.8043    1.0715    0.2887 H   0  0  0  0  0  0  0  0  0  0  0  0
   -2.3487    0.5539    1.9918 H   0  0  0  0  0  0  0  0  0  0  0  0
    1.1950    1.1747    2.6960 H   0  0  0  0  0  0  0  0  0  0  0  0
    2.1949    1.7761    1.3469 H   0  0  0  0  0  0  0  0  0  0  0  0
    0.2777    3.2930    0.6652 H   0  0  0  0  0  0  0  0  0  0  0  0
    0.9900    3.6626    2.3085 H   0  0  0  0  0  0  0  0  0  0  0  0
   -0.9818   -1.8225   -2.6218 H   0  0  0  0  0  0  0  0  0  0  0  0
   -2.8045   -3.0962   -3.6878 H   0  0  0  0  0  0  0  0  0  0  0  0
   -5.6149   -1.8975    0.8194 H   0  0  0  0  0  0  0  0  0  0  0  0
   -6.1305   -3.2062   -0.2847 H   0  0  0  0  0  0  0  0  0  0  0  0
   -6.4450   -1.4420   -0.7253 H   0  0  0  0  0  0  0  0  0  0  0  0
   -3.5745   -0.9357    0.5981 H   0  0  0  0  0  0  0  0  0  0  0  0
    3.0299   -0.3955    1.9237 H   0  0  0  0  0  0  0  0  0  0  0  0
    6.6540   -0.2581    1.7989 H   0  0  0  0  0  0  0  0  0  0  0  0
    5.1676    0.0237    2.7318 H   0  0  0  0  0  0  0  0  0  0  0  0
    5.6451   -1.6528    2.3124 H   0  0  0  0  0  0  0  0  0  0  0  0
    4.4547    0.0445   -3.6339 H   0  0  0  0  0  0  0  0  0  0  0  0
    6.1721   -0.0828   -2.9706 H   0  0  0  0  0  0  0  0  0  0  0  0
    2.5468   -0.2993   -2.2986 H   0  0  0  0  0  0  0  0  0  0  0  0
  1  2  1  0
  2  3  1  0
  3  4  1  0
  4  5  1  0
  5  6  1  0
  6  7  1  0
  7  8  1  0
  5  9  2  0
  9 10  1  0
 10 11  2  0
 11 12  1  0
 12 13  2  0
 13 14  1  0
 14 15  2  0
 15 16  1  0
 15 17  1  0
 17 18  1  0
 17 19  2  0
  9 20  1  0
 20 21  2  0
 21 22  1  0
 22 23  1  0
 22 24  2  0
 24 25  1  0
 25 26  1  0
 26 27  1  0
 25 28  2  0
  8  2  1  0
 19 12  1  0
 28 20  1  0
 11  4  1  0
  1 29  1  0
  1 30  1  0
  1 31  1  0
  2 32  1  6
  3 33  1  0
  3 34  1  0
  6 35  1  0
  6 36  1  0
  7 37  1  0
  7 38  1  0
 13 39  1  0
 14 40  1  0
 18 41  1  0
 18 42  1  0
 18 43  1  0
 19 44  1  0
 21 45  1  0
 23 46  1  0
 23 47  1  0
 23 48  1  0
 26 49  1  0
 26 50  1  0
 28 51  1  0
M  END
$$$$
