[H]c1c([H])c([H])c2c(C3=C(c4c([H])n([H])c5c([H])c([H])c([H])c([H])c45)C(=O)N([H])C3=O)c([H])c(N3C([H])([H])C([H])([H])N(C([H])([H])[H])C([H])([H])C3([H])[H])c([H])c2c1[H]
     RDKit          3D

 57 62  0  0  0  0  0  0  0  0999 V2000
   -6.5495    0.3742    0.6411 C   0  0  0  0  0  0  0  0  0  0  0  0
   -5.8107   -0.7371    1.1505 N   0  0  0  0  0  0  0  0  0  0  0  0
   -4.7822   -0.3883    2.1057 C   0  0  0  0  0  0  0  0  0  0  0  0
   -3.4259   -0.9229    1.6937 C   0  0  0  0  0  0  0  0  0  0  0  0
   -3.1489   -0.7256    0.3132 N   0  0  0  0  0  0  0  0  0  0  0  0
   -4.2092   -1.0835   -0.6256 C   0  0  0  0  0  0  0  0  0  0  0  0
   -5.3592   -1.6541    0.1502 C   0  0  0  0  0  0  0  0  0  0  0  0
   -1.9122   -0.1952   -0.1575 C   0  0  0  0  0  0  0  0  0  0  0  0
   -0.9458    0.3661    0.6305 C   0  0  0  0  0  0  0  0  0  0  0  0
    0.2646    0.8789    0.1420 C   0  0  0  0  0  0  0  0  0  0  0  0
    1.2251    1.4800    1.0614 C   0  0  0  0  0  0  0  0  0  0  0  0
    2.4619    1.0915    1.3966 C   0  0  0  0  0  0  0  0  0  0  0  0
    3.0228    2.0327    2.3568 C   0  0  0  0  0  0  0  0  0  0  0  0
    4.1512    1.9880    2.8892 O   0  0  0  0  0  0  0  0  0  0  0  0
    2.0270    3.0470    2.5937 N   0  0  0  0  0  0  0  0  0  0  0  0
    0.9011    2.7211    1.7972 C   0  0  0  0  0  0  0  0  0  0  0  0
   -0.1785    3.3530    1.7162 O   0  0  0  0  0  0  0  0  0  0  0  0
    3.1074   -0.1306    0.9292 C   0  0  0  0  0  0  0  0  0  0  0  0
    2.4819   -1.3811    0.9344 C   0  0  0  0  0  0  0  0  0  0  0  0
    3.3356   -2.2978    0.4267 N   0  0  0  0  0  0  0  0  0  0  0  0
    4.4930   -1.7064    0.0878 C   0  0  0  0  0  0  0  0  0  0  0  0
    5.6788   -2.1390   -0.4649 C   0  0  0  0  0  0  0  0  0  0  0  0
    6.7281   -1.2478   -0.7137 C   0  0  0  0  0  0  0  0  0  0  0  0
    6.5814    0.0704   -0.4069 C   0  0  0  0  0  0  0  0  0  0  0  0
    5.3896    0.5003    0.1483 C   0  0  0  0  0  0  0  0  0  0  0  0
    4.3495   -0.3645    0.3994 C   0  0  0  0  0  0  0  0  0  0  0  0
    0.4624    0.8004   -1.2141 C   0  0  0  0  0  0  0  0  0  0  0  0
    1.5977    1.2966   -1.8057 C   0  0  0  0  0  0  0  0  0  0  0  0
    1.7319    1.2083   -3.1767 C   0  0  0  0  0  0  0  0  0  0  0  0
    0.7919    0.6510   -3.9962 C   0  0  0  0  0  0  0  0  0  0  0  0
   -0.3514    0.1528   -3.4153 C   0  0  0  0  0  0  0  0  0  0  0  0
   -0.5149    0.2285   -2.0332 C   0  0  0  0  0  0  0  0  0  0  0  0
   -1.6951   -0.2710   -1.5417 C   0  0  0  0  0  0  0  0  0  0  0  0
   -7.5614    0.4407    1.1388 H   0  0  0  0  0  0  0  0  0  0  0  0
   -6.7466    0.2467   -0.4438 H   0  0  0  0  0  0  0  0  0  0  0  0
   -6.0582    1.3555    0.7642 H   0  0  0  0  0  0  0  0  0  0  0  0
   -5.0512   -0.8404    3.0785 H   0  0  0  0  0  0  0  0  0  0  0  0
   -4.7949    0.7089    2.2325 H   0  0  0  0  0  0  0  0  0  0  0  0
   -2.6927   -0.4004    2.3187 H   0  0  0  0  0  0  0  0  0  0  0  0
   -3.3930   -1.9949    1.9999 H   0  0  0  0  0  0  0  0  0  0  0  0
   -3.9137   -1.8146   -1.3749 H   0  0  0  0  0  0  0  0  0  0  0  0
   -4.5353   -0.1495   -1.1294 H   0  0  0  0  0  0  0  0  0  0  0  0
   -6.2034   -1.7771   -0.5824 H   0  0  0  0  0  0  0  0  0  0  0  0
   -5.1017   -2.6423    0.5797 H   0  0  0  0  0  0  0  0  0  0  0  0
   -1.0764    0.4422    1.6861 H   0  0  0  0  0  0  0  0  0  0  0  0
    2.1281    3.8791    3.2454 H   0  0  0  0  0  0  0  0  0  0  0  0
    1.4732   -1.5492    1.2961 H   0  0  0  0  0  0  0  0  0  0  0  0
    3.1051   -3.3255    0.3208 H   0  0  0  0  0  0  0  0  0  0  0  0
    5.7819   -3.1950   -0.7051 H   0  0  0  0  0  0  0  0  0  0  0  0
    7.6128   -1.6767   -1.1460 H   0  0  0  0  0  0  0  0  0  0  0  0
    7.4101    0.7636   -0.6063 H   0  0  0  0  0  0  0  0  0  0  0  0
    5.3244    1.5570    0.3614 H   0  0  0  0  0  0  0  0  0  0  0  0
    2.3633    1.7746   -1.2106 H   0  0  0  0  0  0  0  0  0  0  0  0
    2.6401    1.6048   -3.6387 H   0  0  0  0  0  0  0  0  0  0  0  0
    0.9212    0.5907   -5.0869 H   0  0  0  0  0  0  0  0  0  0  0  0
   -1.1000   -0.2878   -4.0453 H   0  0  0  0  0  0  0  0  0  0  0  0
   -2.4312   -0.7061   -2.1982 H   0  0  0  0  0  0  0  0  0  0  0  0
  1  2  1  0
  2  3  1  0
  3  4  1  0
  4  5  1  0
  5  6  1  0
  6  7  1  0
  5  8  1  0
  8  9  2  0
  9 10  1  0
 10 11  1  0
 11 12  2  0
 12 13  1  0
 13 14  2  0
 13 15  1  0
 15 16  1  0
 16 17  2  0
 12 18  1  0
 18 19  2  0
 19 20  1  0
 20 21  1  0
 21 22  2  0
 22 23  1  0
 23 24  2  0
 24 25  1  0
 25 26  2  0
 10 27  2  0
 27 28  1  0
 28 29  2  0
 29 30  1  0
 30 31  2  0
 31 32  1  0
 32 33  2  0
  7  2  1  0
 33  8  1  0
 16 11  1  0
 26 18  1  0
 32 27  1  0
 26 21  1  0
  1 34  1  0
  1 35  1  0
  1 36  1  0
  3 37  1  0
  3 38  1  0
  4 39  1  0
  4 40  1  0
  6 41  1  0
  6 42  1  0
  7 43  1  0
  7 44  1  0
  9 45  1  0
 15 46  1  0
 19 47  1  0
 20 48  1  0
 22 49  1  0
 23 50  1  0
 24 51  1  0
 25 52  1  0
 28 53  1  0
 29 54  1  0
 30 55  1  0
 31 56  1  0
 33 57  1  0
M  END
$$$$
[H]OC(=O)[C@]([H])(N([H])[H])C([H])([H])OP(=O)(O[H])OC([H])([H])[C@@]([H])(O[H])C([H])([H])OC(=O)C([H])([H])C([H])([H])C([H])([H])C([H])([H])C([H])([H])C([H])([H])C([H])([H])/C([H])=C(/[H])C([H])([H])C([H])([H])C([H])([H])C([H])([H])C([H])([H])C([H])([H])C([H])([H])C([H])([H])[H]
     RDKit          3D

 81 80  0  0  0  0  0  0  0  0999 V2000
   10.9891   -1.2449   -1.1352 C   0  0  0  0  0  0  0  0  0  0  0  0
   10.2719   -1.8017    0.0744 C   0  0  0  0  0  0  0  0  0  0  0  0
   10.4724   -0.9060    1.2726 C   0  0  0  0  0  0  0  0  0  0  0  0
    9.9502    0.4834    1.0461 C   0  0  0  0  0  0  0  0  0  0  0  0
    8.4819    0.4124    0.7551 C   0  0  0  0  0  0  0  0  0  0  0  0
    7.6984   -0.2107    1.8901 C   0  0  0  0  0  0  0  0  0  0  0  0
    6.2310   -0.2057    1.4149 C   0  0  0  0  0  0  0  0  0  0  0  0
    5.3354   -0.7854    2.4178 C   0  0  0  0  0  0  0  0  0  0  0  0
    3.9191   -0.8983    2.2689 C   0  0  0  0  0  0  0  0  0  0  0  0
    3.1175   -0.5439    1.3152 C   0  0  0  0  0  0  0  0  0  0  0  0
    3.4639    0.0994    0.0711 C   0  0  0  0  0  0  0  0  0  0  0  0
    2.7964    1.4756   -0.0914 C   0  0  0  0  0  0  0  0  0  0  0  0
    1.2855    1.3387   -0.0688 C   0  0  0  0  0  0  0  0  0  0  0  0
    0.5946    2.6463   -0.2278 C   0  0  0  0  0  0  0  0  0  0  0  0
   -0.9061    2.5310   -0.2018 C   0  0  0  0  0  0  0  0  0  0  0  0
   -1.3611    1.6433   -1.3240 C   0  0  0  0  0  0  0  0  0  0  0  0
   -2.8933    1.5251   -1.3393 C   0  0  0  0  0  0  0  0  0  0  0  0
   -3.3104    0.6511   -2.4453 C   0  0  0  0  0  0  0  0  0  0  0  0
   -2.4596    0.1257   -3.1818 O   0  0  0  0  0  0  0  0  0  0  0  0
   -4.6463    0.4172   -2.6629 O   0  0  0  0  0  0  0  0  0  0  0  0
   -5.0795   -0.4189   -3.7201 C   0  0  0  0  0  0  0  0  0  0  0  0
   -6.5868   -0.4617   -3.6851 C   0  0  2  0  0  0  0  0  0  0  0  0
   -7.1439    0.8073   -3.8401 O   0  0  0  0  0  0  0  0  0  0  0  0
   -7.0219   -0.9765   -2.3328 C   0  0  0  0  0  0  0  0  0  0  0  0
   -6.5647   -0.1174   -1.3655 O   0  0  0  0  0  0  0  0  0  0  0  0
   -7.0065   -0.6039    0.1935 P   0  0  0  0  0  0  0  0  0  0  0  0
   -6.4108    0.4551    1.3423 O   0  0  0  0  0  0  0  0  0  0  0  0
   -6.4487   -1.9908    0.4126 O   0  0  0  0  0  0  0  0  0  0  0  0
   -8.6948   -0.6930    0.2078 O   0  0  0  0  0  0  0  0  0  0  0  0
   -9.2066   -0.8525    1.4711 C   0  0  0  0  0  0  0  0  0  0  0  0
  -10.7309   -0.9114    1.3106 C   0  0  1  0  0  0  0  0  0  0  0  0
  -11.0978   -2.0266    0.4622 N   0  0  0  0  0  0  0  0  0  0  0  0
  -11.3181   -1.0153    2.6571 C   0  0  0  0  0  0  0  0  0  0  0  0
  -11.0610   -0.0262    3.5775 O   0  0  0  0  0  0  0  0  0  0  0  0
  -12.0532   -1.9825    3.0036 O   0  0  0  0  0  0  0  0  0  0  0  0
   10.2909   -0.5973   -1.6925 H   0  0  0  0  0  0  0  0  0  0  0  0
   11.2663   -2.1250   -1.7733 H   0  0  0  0  0  0  0  0  0  0  0  0
   11.9022   -0.7094   -0.7945 H   0  0  0  0  0  0  0  0  0  0  0  0
    9.2258   -1.9540   -0.1858 H   0  0  0  0  0  0  0  0  0  0  0  0
   10.7012   -2.7995    0.3046 H   0  0  0  0  0  0  0  0  0  0  0  0
   11.5635   -0.8393    1.4858 H   0  0  0  0  0  0  0  0  0  0  0  0
    9.9869   -1.3602    2.1582 H   0  0  0  0  0  0  0  0  0  0  0  0
   10.2030    1.1207    1.8905 H   0  0  0  0  0  0  0  0  0  0  0  0
   10.4589    0.8801    0.1311 H   0  0  0  0  0  0  0  0  0  0  0  0
    8.2546   -0.1707   -0.1575 H   0  0  0  0  0  0  0  0  0  0  0  0
    8.0834    1.4549    0.5739 H   0  0  0  0  0  0  0  0  0  0  0  0
    7.9666   -1.2954    1.9144 H   0  0  0  0  0  0  0  0  0  0  0  0
    7.8236    0.3040    2.8418 H   0  0  0  0  0  0  0  0  0  0  0  0
    5.9793    0.8396    1.1991 H   0  0  0  0  0  0  0  0  0  0  0  0
    6.2453   -0.8602    0.5173 H   0  0  0  0  0  0  0  0  0  0  0  0
    5.6087   -0.3841    3.4772 H   0  0  0  0  0  0  0  0  0  0  0  0
    5.7210   -1.8678    2.5623 H   0  0  0  0  0  0  0  0  0  0  0  0
    3.3363   -1.3933    3.1407 H   0  0  0  0  0  0  0  0  0  0  0  0
    1.9914   -0.7581    1.4553 H   0  0  0  0  0  0  0  0  0  0  0  0
    4.4351    0.1041   -0.3472 H   0  0  0  0  0  0  0  0  0  0  0  0
    2.8617   -0.5131   -0.7293 H   0  0  0  0  0  0  0  0  0  0  0  0
    3.0702    1.8706   -1.0911 H   0  0  0  0  0  0  0  0  0  0  0  0
    3.1690    2.2075    0.6502 H   0  0  0  0  0  0  0  0  0  0  0  0
    0.9951    0.6807   -0.9368 H   0  0  0  0  0  0  0  0  0  0  0  0
    0.9333    0.8567    0.8405 H   0  0  0  0  0  0  0  0  0  0  0  0
    0.8382    3.1266   -1.2223 H   0  0  0  0  0  0  0  0  0  0  0  0
    0.9438    3.3511    0.5645 H   0  0  0  0  0  0  0  0  0  0  0  0
   -1.1432    1.9652    0.7494 H   0  0  0  0  0  0  0  0  0  0  0  0
   -1.4002    3.5109   -0.1981 H   0  0  0  0  0  0  0  0  0  0  0  0
   -1.0285    1.9725   -2.3276 H   0  0  0  0  0  0  0  0  0  0  0  0
   -0.9747    0.5916   -1.2036 H   0  0  0  0  0  0  0  0  0  0  0  0
   -3.2365    1.1740   -0.3507 H   0  0  0  0  0  0  0  0  0  0  0  0
   -3.2556    2.5533   -1.5437 H   0  0  0  0  0  0  0  0  0  0  0  0
   -4.6173   -1.4038   -3.6282 H   0  0  0  0  0  0  0  0  0  0  0  0
   -4.7182    0.0314   -4.6779 H   0  0  0  0  0  0  0  0  0  0  0  0
   -6.9965   -1.0842   -4.5115 H   0  0  0  0  0  0  0  0  0  0  0  0
   -6.4827    1.4590   -4.1978 H   0  0  0  0  0  0  0  0  0  0  0  0
   -8.1316   -1.0020   -2.3498 H   0  0  0  0  0  0  0  0  0  0  0  0
   -6.6343   -2.0139   -2.1967 H   0  0  0  0  0  0  0  0  0  0  0  0
   -7.1298    1.0690    1.6163 H   0  0  0  0  0  0  0  0  0  0  0  0
   -8.9148    0.0193    2.0887 H   0  0  0  0  0  0  0  0  0  0  0  0
   -8.8499   -1.8042    1.9206 H   0  0  0  0  0  0  0  0  0  0  0  0
  -11.0535    0.0619    0.8765 H   0  0  0  0  0  0  0  0  0  0  0  0
  -11.3149   -1.6882   -0.5076 H   0  0  0  0  0  0  0  0  0  0  0  0
  -10.3893   -2.7905    0.4604 H   0  0  0  0  0  0  0  0  0  0  0  0
  -10.1890    0.4560    3.6621 H   0  0  0  0  0  0  0  0  0  0  0  0
  1  2  1  0
  2  3  1  0
  3  4  1  0
  4  5  1  0
  5  6  1  0
  6  7  1  0
  7  8  1  0
  8  9  1  0
  9 10  2  0
 10 11  1  0
 11 12  1  0
 12 13  1  0
 13 14  1  0
 14 15  1  0
 15 16  1  0
 16 17  1  0
 17 18  1  0
 18 19  2  0
 18 20  1  0
 20 21  1  0
 21 22  1  0
 22 23  1  0
 22 24  1  0
 24 25  1  0
 25 26  1  0
 26 27  1  0
 26 28  2  0
 26 29  1  0
 29 30  1  0
 30 31  1  0
 31 32  1  0
 31 33  1  0
 33 34  1  0
 33 35  2  0
  1 36  1  0
  1 37  1  0
  1 38  1  0
  2 39  1  0
  2 40  1  0
  3 41  1  0
  3 42  1  0
  4 43  1  0
  4 44  1  0
  5 45  1  0
  5 46  1  0
  6 47  1  0
  6 48  1  0
  7 49  1  0
  7 50  1  0
  8 51  1  0
  8 52  1  0
  9 53  1  0
 10 54  1  0
 11 55  1  0
 11 56  1  0
 12 57  1  0
 12 58  1  0
 13 59  1  0
 13 60  1  0
 14 61  1  0
 14 62  1  0
 15 63  1  0
 15 64  1  0
 16 65  1  0
 16 66  1  0
 17 67  1  0
 17 68  1  0
 21 69  1  0
 21 70  1  0
 22 71  1  6
 23 72  1  0
 24 73  1  0
 24 74  1  0
 27 75  1  0
 30 76  1  0
 30 77  1  0
 31 78  1  6
 32 79  1  0
 32 80  1  0
 34 81  1  0
M  END
$$$$
[H]c1nc(N([H])c2c([H])c(N3C([H])([H])C([H])([H])OC([H])([H])C3([H])[H])c([H])c(N3C([H])([H])C([H])([H])OC([H])([H])C3([H])[H])c2[H])nc(N(c2c([H])c([H])c([H])c3c2c([H])nn3[H])C([H])([H])[H])c1[H]
     RDKit          3D

 66 71  0  0  0  0  0  0  0  0999 V2000
    4.8532   -1.0897    2.5627 C   0  0  0  0  0  0  0  0  0  0  0  0
    4.8770   -0.8442    1.0897 N   0  0  0  0  0  0  0  0  0  0  0  0
    3.6451   -1.1188    0.4750 C   0  0  0  0  0  0  0  0  0  0  0  0
    3.4555   -2.2224   -0.3466 C   0  0  0  0  0  0  0  0  0  0  0  0
    2.1768   -2.3814   -0.8304 C   0  0  0  0  0  0  0  0  0  0  0  0
    1.1811   -1.5510   -0.5441 N   0  0  0  0  0  0  0  0  0  0  0  0
    1.3476   -0.4972    0.2368 C   0  0  0  0  0  0  0  0  0  0  0  0
    0.3540    0.4250    0.6092 N   0  0  0  0  0  0  0  0  0  0  0  0
   -0.9997    0.4477    0.2722 C   0  0  0  0  0  0  0  0  0  0  0  0
   -1.7662    1.5999    0.4658 C   0  0  0  0  0  0  0  0  0  0  0  0
   -3.0964    1.6992    0.1744 C   0  0  0  0  0  0  0  0  0  0  0  0
   -3.7351    0.5960   -0.3455 C   0  0  0  0  0  0  0  0  0  0  0  0
   -3.0115   -0.5890   -0.5599 C   0  0  0  0  0  0  0  0  0  0  0  0
   -1.6594   -0.6321   -0.2443 C   0  0  0  0  0  0  0  0  0  0  0  0
   -3.6581   -1.7259   -1.0802 N   0  0  0  0  0  0  0  0  0  0  0  0
   -2.9858   -2.8384   -1.6996 C   0  0  0  0  0  0  0  0  0  0  0  0
   -3.2938   -4.0709   -0.8690 C   0  0  0  0  0  0  0  0  0  0  0  0
   -4.6033   -4.1680   -0.4773 O   0  0  0  0  0  0  0  0  0  0  0  0
   -5.4695   -3.3131   -1.1145 C   0  0  0  0  0  0  0  0  0  0  0  0
   -5.1287   -1.8597   -1.0066 C   0  0  0  0  0  0  0  0  0  0  0  0
   -3.8286    2.8983    0.4024 N   0  0  0  0  0  0  0  0  0  0  0  0
   -5.0210    3.2385   -0.3421 C   0  0  0  0  0  0  0  0  0  0  0  0
   -6.0237    3.8985    0.5491 C   0  0  0  0  0  0  0  0  0  0  0  0
   -5.5010    4.8107    1.4389 O   0  0  0  0  0  0  0  0  0  0  0  0
   -4.5846    4.1826    2.2941 C   0  0  0  0  0  0  0  0  0  0  0  0
   -3.3933    3.8341    1.4235 C   0  0  0  0  0  0  0  0  0  0  0  0
    2.6067   -0.3204    0.7263 N   0  0  0  0  0  0  0  0  0  0  0  0
    6.0903   -0.4459    0.5609 C   0  0  0  0  0  0  0  0  0  0  0  0
    7.2787   -0.6666    1.2725 C   0  0  0  0  0  0  0  0  0  0  0  0
    8.5204   -0.3415    0.7859 C   0  0  0  0  0  0  0  0  0  0  0  0
    8.6158    0.2292   -0.4597 C   0  0  0  0  0  0  0  0  0  0  0  0
    7.4859    0.4621   -1.1850 C   0  0  0  0  0  0  0  0  0  0  0  0
    7.3161    1.0089   -2.4026 N   0  0  0  0  0  0  0  0  0  0  0  0
    6.0455    1.0515   -2.7135 N   0  0  0  0  0  0  0  0  0  0  0  0
    5.3504    0.5137   -1.6647 C   0  0  0  0  0  0  0  0  0  0  0  0
    6.2276    0.1269   -0.6769 C   0  0  0  0  0  0  0  0  0  0  0  0
    5.2553   -2.0794    2.7851 H   0  0  0  0  0  0  0  0  0  0  0  0
    3.8178   -0.9806    2.9079 H   0  0  0  0  0  0  0  0  0  0  0  0
    5.5245   -0.3406    3.0748 H   0  0  0  0  0  0  0  0  0  0  0  0
    4.2883   -2.8515   -0.5415 H   0  0  0  0  0  0  0  0  0  0  0  0
    2.0241   -3.2554   -1.4860 H   0  0  0  0  0  0  0  0  0  0  0  0
    0.6846    1.2266    1.2508 H   0  0  0  0  0  0  0  0  0  0  0  0
   -1.2594    2.4530    0.8670 H   0  0  0  0  0  0  0  0  0  0  0  0
   -4.7767    0.5673   -0.6037 H   0  0  0  0  0  0  0  0  0  0  0  0
   -1.1900   -1.5819   -0.4236 H   0  0  0  0  0  0  0  0  0  0  0  0
   -1.9137   -2.7556   -1.8217 H   0  0  0  0  0  0  0  0  0  0  0  0
   -3.4184   -2.9719   -2.7327 H   0  0  0  0  0  0  0  0  0  0  0  0
   -2.9346   -4.9606   -1.4244 H   0  0  0  0  0  0  0  0  0  0  0  0
   -2.6628   -3.9964    0.0587 H   0  0  0  0  0  0  0  0  0  0  0  0
   -6.4712   -3.4370   -0.5999 H   0  0  0  0  0  0  0  0  0  0  0  0
   -5.6304   -3.6665   -2.1570 H   0  0  0  0  0  0  0  0  0  0  0  0
   -5.4688   -1.5231    0.0040 H   0  0  0  0  0  0  0  0  0  0  0  0
   -5.5819   -1.3160   -1.8404 H   0  0  0  0  0  0  0  0  0  0  0  0
   -4.6899    4.0203   -1.0766 H   0  0  0  0  0  0  0  0  0  0  0  0
   -5.5048    2.3926   -0.8429 H   0  0  0  0  0  0  0  0  0  0  0  0
   -6.7388    4.4540   -0.0983 H   0  0  0  0  0  0  0  0  0  0  0  0
   -6.6297    3.1698    1.1312 H   0  0  0  0  0  0  0  0  0  0  0  0
   -5.0358    3.2662    2.7515 H   0  0  0  0  0  0  0  0  0  0  0  0
   -4.3037    4.9280    3.0518 H   0  0  0  0  0  0  0  0  0  0  0  0
   -3.0761    4.7691    0.9107 H   0  0  0  0  0  0  0  0  0  0  0  0
   -2.5383    3.4750    2.0228 H   0  0  0  0  0  0  0  0  0  0  0  0
    7.1854   -1.1271    2.2676 H   0  0  0  0  0  0  0  0  0  0  0  0
    9.4388   -0.5084    1.3278 H   0  0  0  0  0  0  0  0  0  0  0  0
    9.5672    0.5079   -0.8999 H   0  0  0  0  0  0  0  0  0  0  0  0
    8.0808    1.3629   -3.0324 H   0  0  0  0  0  0  0  0  0  0  0  0
    4.2901    0.4127   -1.6080 H   0  0  0  0  0  0  0  0  0  0  0  0
  1  2  1  0
  2  3  1  0
  3  4  2  0
  4  5  1  0
  5  6  2  0
  6  7  1  0
  7  8  1  0
  8  9  1  0
  9 10  2  0
 10 11  1  0
 11 12  2  0
 12 13  1  0
 13 14  2  0
 13 15  1  0
 15 16  1  0
 16 17  1  0
 17 18  1  0
 18 19  1  0
 19 20  1  0
 11 21  1  0
 21 22  1  0
 22 23  1  0
 23 24  1  0
 24 25  1  0
 25 26  1  0
  7 27  2  0
  2 28  1  0
 28 29  2  0
 29 30  1  0
 30 31  2  0
 31 32  1  0
 32 33  1  0
 33 34  1  0
 34 35  2  0
 35 36  1  0
 27  3  1  0
 36 28  1  0
 14  9  1  0
 20 15  1  0
 26 21  1  0
 36 32  2  0
  1 37  1  0
  1 38  1  0
  1 39  1  0
  4 40  1  0
  5 41  1  0
  8 42  1  0
 10 43  1  0
 12 44  1  0
 14 45  1  0
 16 46  1  0
 16 47  1  0
 17 48  1  0
 17 49  1  0
 19 50  1  0
 19 51  1  0
 20 52  1  0
 20 53  1  0
 22 54  1  0
 22 55  1  0
 23 56  1  0
 23 57  1  0
 25 58  1  0
 25 59  1  0
 26 60  1  0
 26 61  1  0
 29 62  1  0
 30 63  1  0
 31 64  1  0
 33 65  1  0
 35 66  1  0
M  END
$$$$
[H]c1c([H])c(C(F)(F)F)c([H])c([H])c1-n1c(C(=O)N2C([H])([H])C([H])([H])C([H])([H])C2([H])[H])nc2c([H])c([H])c([H])c([H])c21
     RDKit          3D

 42 45  0  0  0  0  0  0  0  0999 V2000
    4.3119   -4.1466    1.3187 F   0  0  0  0  0  0  0  0  0  0  0  0
    4.7712   -2.9389    0.8206 C   0  0  0  0  0  0  0  0  0  0  0  0
    5.4121   -3.2146   -0.3911 F   0  0  0  0  0  0  0  0  0  0  0  0
    5.7021   -2.4325    1.6807 F   0  0  0  0  0  0  0  0  0  0  0  0
    3.6847   -1.9799    0.5546 C   0  0  0  0  0  0  0  0  0  0  0  0
    3.1798   -1.2200    1.5807 C   0  0  0  0  0  0  0  0  0  0  0  0
    2.1662   -0.3314    1.3306 C   0  0  0  0  0  0  0  0  0  0  0  0
    1.6494   -0.1918    0.0668 C   0  0  0  0  0  0  0  0  0  0  0  0
    2.1398   -0.9432   -0.9752 C   0  0  0  0  0  0  0  0  0  0  0  0
    3.1552   -1.8291   -0.7120 C   0  0  0  0  0  0  0  0  0  0  0  0
    0.6114    0.7530   -0.1556 N   0  0  0  0  0  0  0  0  0  0  0  0
   -0.6980    0.5389   -0.2897 C   0  0  0  0  0  0  0  0  0  0  0  0
   -1.2553    1.7474   -0.5155 N   0  0  0  0  0  0  0  0  0  0  0  0
   -0.3464    2.7256   -0.5271 C   0  0  0  0  0  0  0  0  0  0  0  0
   -0.3707    4.1012   -0.6979 C   0  0  0  0  0  0  0  0  0  0  0  0
    0.7584    4.8690   -0.6463 C   0  0  0  0  0  0  0  0  0  0  0  0
    1.9548    4.2228   -0.4136 C   0  0  0  0  0  0  0  0  0  0  0  0
    2.0048    2.8441   -0.2385 C   0  0  0  0  0  0  0  0  0  0  0  0
    0.8468    2.0795   -0.2958 C   0  0  0  0  0  0  0  0  0  0  0  0
   -1.3556   -0.7554   -0.1767 C   0  0  0  0  0  0  0  0  0  0  0  0
   -0.5868   -1.7488    0.1081 O   0  0  0  0  0  0  0  0  0  0  0  0
   -2.7298   -0.9682   -0.3556 N   0  0  0  0  0  0  0  0  0  0  0  0
   -3.7643   -0.0670   -0.6734 C   0  0  0  0  0  0  0  0  0  0  0  0
   -4.8569   -0.4797    0.3506 C   0  0  0  0  0  0  0  0  0  0  0  0
   -4.5725   -1.9319    0.5860 C   0  0  0  0  0  0  0  0  0  0  0  0
   -3.3618   -2.2860   -0.2481 C   0  0  0  0  0  0  0  0  0  0  0  0
    3.5696   -1.2842    2.6100 H   0  0  0  0  0  0  0  0  0  0  0  0
    1.7824    0.2737    2.1566 H   0  0  0  0  0  0  0  0  0  0  0  0
    1.7342   -0.8408   -1.9916 H   0  0  0  0  0  0  0  0  0  0  0  0
    3.5565   -2.4466   -1.5302 H   0  0  0  0  0  0  0  0  0  0  0  0
   -1.3158    4.5794   -0.8721 H   0  0  0  0  0  0  0  0  0  0  0  0
    0.7898    5.9376   -0.7800 H   0  0  0  0  0  0  0  0  0  0  0  0
    2.8941    4.7955   -0.3597 H   0  0  0  0  0  0  0  0  0  0  0  0
    2.9575    2.3621   -0.0598 H   0  0  0  0  0  0  0  0  0  0  0  0
   -3.5604    0.9968   -0.5890 H   0  0  0  0  0  0  0  0  0  0  0  0
   -4.1884   -0.3303   -1.6976 H   0  0  0  0  0  0  0  0  0  0  0  0
   -4.6929    0.1295    1.2563 H   0  0  0  0  0  0  0  0  0  0  0  0
   -5.8665   -0.3135   -0.0915 H   0  0  0  0  0  0  0  0  0  0  0  0
   -5.4424   -2.5383    0.2483 H   0  0  0  0  0  0  0  0  0  0  0  0
   -4.3364   -2.1263    1.6623 H   0  0  0  0  0  0  0  0  0  0  0  0
   -3.6380   -2.5964   -1.2833 H   0  0  0  0  0  0  0  0  0  0  0  0
   -2.6936   -3.0144    0.2360 H   0  0  0  0  0  0  0  0  0  0  0  0
  1  2  1  0
  2  3  1  0
  2  4  1  0
  2  5  1  0
  5  6  2  0
  6  7  1  0
  7  8  2  0
  8  9  1  0
  9 10  2  0
  8 11  1  0
 11 12  1  0
 12 13  2  0
 13 14  1  0
 14 15  2  0
 15 16  1  0
 16 17  2  0
 17 18  1  0
 18 19  2  0
 12 20  1  0
 20 21  2  0
 20 22  1  0
 22 23  1  0
 23 24  1  0
 24 25  1  0
 25 26  1  0
 10  5  1  0
 19 11  1  0
 26 22  1  0
 19 14  1  0
  6 27  1  0
  7 28  1  0
  9 29  1  0
 10 30  1  0
 15 31  1  0
 16 32  1  0
 17 33  1  0
 18 34  1  0
 23 35  1  0
 23 36  1  0
 24 37  1  0
 24 38  1  0
 25 39  1  0
 25 40  1  0
 26 41  1  0
 26 42  1  0
M  END
$$$$
[H]C1=C([H])C2(c3c([H])c([H])c([H])c([H])c31)C([H])([H])C([H])([H])N(S(=O)(=O)C([H])([H])[C@@]13C(=O)O[C@@]([H])(C([H])([H])C1([H])[H])C3(C([H])([H])[H])C([H])([H])[H])C([H])([H])C2([H])[H]
     RDKit          3D

 55 59  0  0  0  0  0  0  0  0999 V2000
   -4.3656   -0.6360   -1.7835 C   0  0  0  0  0  0  0  0  0  0  0  0
   -3.7709    0.1701   -0.6597 C   0  0  0  0  0  0  0  0  0  0  0  0
   -3.1713    1.4213   -1.1558 C   0  0  0  0  0  0  0  0  0  0  0  0
   -4.9698    0.6321    0.2033 C   0  0  2  0  0  0  0  0  0  0  0  0
   -4.2602    1.1344    1.4197 C   0  0  0  0  0  0  0  0  0  0  0  0
   -2.9340    0.3450    1.5043 C   0  0  0  0  0  0  0  0  0  0  0  0
   -3.1144   -0.6145    0.3880 C   0  0  2  0  0  0  0  0  0  0  0  0
   -2.1845   -1.6535    0.0996 C   0  0  0  0  0  0  0  0  0  0  0  0
   -0.6971   -1.6040   -0.7262 S   0  0  0  0  0  0  0  0  0  0  0  0
   -0.9071   -1.3653   -2.2557 O   0  0  0  0  0  0  0  0  0  0  0  0
   -0.2196   -3.0900   -0.7797 O   0  0  0  0  0  0  0  0  0  0  0  0
    0.6153   -0.7402   -0.2213 N   0  0  0  0  0  0  0  0  0  0  0  0
    0.4783    0.6611   -0.1421 C   0  0  0  0  0  0  0  0  0  0  0  0
    1.8588    1.3484   -0.2720 C   0  0  0  0  0  0  0  0  0  0  0  0
    2.8749    0.7415    0.6712 C   0  0  0  0  0  0  0  0  0  0  0  0
    2.2002   -0.2396    1.5682 C   0  0  0  0  0  0  0  0  0  0  0  0
    1.4256   -1.2623    0.8288 C   0  0  0  0  0  0  0  0  0  0  0  0
    3.4899    1.8367    1.4688 C   0  0  0  0  0  0  0  0  0  0  0  0
    4.7641    1.8947    1.2765 C   0  0  0  0  0  0  0  0  0  0  0  0
    5.1303    0.8466    0.3266 C   0  0  0  0  0  0  0  0  0  0  0  0
    6.3556    0.4765   -0.2288 C   0  0  0  0  0  0  0  0  0  0  0  0
    6.5091   -0.5438   -1.1323 C   0  0  0  0  0  0  0  0  0  0  0  0
    5.3837   -1.2379   -1.5081 C   0  0  0  0  0  0  0  0  0  0  0  0
    4.1491   -0.8831   -0.9641 C   0  0  0  0  0  0  0  0  0  0  0  0
    4.0158    0.1488   -0.0533 C   0  0  0  0  0  0  0  0  0  0  0  0
   -4.3769   -1.3792    0.8936 C   0  0  0  0  0  0  0  0  0  0  0  0
   -4.3837   -2.4494    1.5157 O   0  0  0  0  0  0  0  0  0  0  0  0
   -5.4816   -0.6435    0.5199 O   0  0  0  0  0  0  0  0  0  0  0  0
   -5.4026   -0.9607   -1.5600 H   0  0  0  0  0  0  0  0  0  0  0  0
   -4.4336   -0.0487   -2.7310 H   0  0  0  0  0  0  0  0  0  0  0  0
   -3.7747   -1.5610   -1.9115 H   0  0  0  0  0  0  0  0  0  0  0  0
   -2.6051    1.9851   -0.4119 H   0  0  0  0  0  0  0  0  0  0  0  0
   -4.0211    2.1022   -1.4663 H   0  0  0  0  0  0  0  0  0  0  0  0
   -2.5891    1.2932   -2.1158 H   0  0  0  0  0  0  0  0  0  0  0  0
   -5.6230    1.3046   -0.3018 H   0  0  0  0  0  0  0  0  0  0  0  0
   -4.0606    2.2239    1.3848 H   0  0  0  0  0  0  0  0  0  0  0  0
   -4.8543    0.8852    2.3115 H   0  0  0  0  0  0  0  0  0  0  0  0
   -2.1318    1.0533    1.4748 H   0  0  0  0  0  0  0  0  0  0  0  0
   -2.9263   -0.2647    2.4570 H   0  0  0  0  0  0  0  0  0  0  0  0
   -2.7816   -2.5079   -0.4112 H   0  0  0  0  0  0  0  0  0  0  0  0
   -1.9802   -2.1879    1.1064 H   0  0  0  0  0  0  0  0  0  0  0  0
    0.0599    1.0322    0.8095 H   0  0  0  0  0  0  0  0  0  0  0  0
   -0.1057    1.0946   -0.9691 H   0  0  0  0  0  0  0  0  0  0  0  0
    2.2002    1.3526   -1.3061 H   0  0  0  0  0  0  0  0  0  0  0  0
    1.6733    2.3971    0.0332 H   0  0  0  0  0  0  0  0  0  0  0  0
    1.4580    0.3356    2.2077 H   0  0  0  0  0  0  0  0  0  0  0  0
    2.9133   -0.7597    2.2516 H   0  0  0  0  0  0  0  0  0  0  0  0
    2.0004   -2.1290    0.4431 H   0  0  0  0  0  0  0  0  0  0  0  0
    0.6662   -1.6679    1.5959 H   0  0  0  0  0  0  0  0  0  0  0  0
    2.9010    2.4762    2.1135 H   0  0  0  0  0  0  0  0  0  0  0  0
    5.5133    2.5722    1.7040 H   0  0  0  0  0  0  0  0  0  0  0  0
    7.2413    1.0257    0.0692 H   0  0  0  0  0  0  0  0  0  0  0  0
    7.4514   -0.8317   -1.5619 H   0  0  0  0  0  0  0  0  0  0  0  0
    5.4743   -2.0530   -2.2241 H   0  0  0  0  0  0  0  0  0  0  0  0
    3.3235   -1.4765   -1.3295 H   0  0  0  0  0  0  0  0  0  0  0  0
  1  2  1  0
  2  3  1  0
  2  4  1  0
  4  5  1  0
  5  6  1  0
  6  7  1  0
  7  8  1  6
  8  9  1  0
  9 10  2  0
  9 11  2  0
  9 12  1  0
 12 13  1  0
 13 14  1  0
 14 15  1  0
 15 16  1  0
 16 17  1  0
 15 18  1  0
 18 19  2  0
 19 20  1  0
 20 21  2  0
 21 22  1  0
 22 23  2  0
 23 24  1  0
 24 25  2  0
  7 26  1  0
 26 27  2  0
 26 28  1  0
  7  2  1  0
 17 12  1  0
 25 20  1  0
 28  4  1  0
 25 15  1  0
  1 29  1  0
  1 30  1  0
  1 31  1  0
  3 32  1  0
  3 33  1  0
  3 34  1  0
  4 35  1  6
  5 36  1  0
  5 37  1  0
  6 38  1  0
  6 39  1  0
  8 40  1  0
  8 41  1  0
 13 42  1  0
 13 43  1  0
 14 44  1  0
 14 45  1  0
 16 46  1  0
 16 47  1  0
 17 48  1  0
 17 49  1  0
 18 50  1  0
 19 51  1  0
 21 52  1  0
 22 53  1  0
 23 54  1  0
 24 55  1  0
M  END
$$$$
[H]c1nc(N([H])c2c([H])c([H])c(N3C([H])([H])C([H])([H])C([H])(N4C([H])([H])C([H])([H])N(C([H])([H])[H])C([H])([H])C4([H])[H])C([H])([H])C3([H])[H])c([H])c2OC([H])([H])[H])nc(N([H])c2c([H])c([H])c([H])c([H])c2S(=O)(=O)C([H])(C([H])([H])[H])C([H])([H])[H])c1Cl
     RDKit          3D

 82 86  0  0  0  0  0  0  0  0999 V2000
   -0.1870    3.7228   -1.2569 C   0  0  0  0  0  0  0  0  0  0  0  0
    0.4390    2.5297   -0.8437 O   0  0  0  0  0  0  0  0  0  0  0  0
   -0.3483    1.4775   -0.4024 C   0  0  0  0  0  0  0  0  0  0  0  0
   -1.7220    1.6350   -0.3827 C   0  0  0  0  0  0  0  0  0  0  0  0
   -2.5624    0.6308    0.0436 C   0  0  0  0  0  0  0  0  0  0  0  0
   -1.9599   -0.5357    0.4478 C   0  0  0  0  0  0  0  0  0  0  0  0
   -0.5748   -0.7280    0.4408 C   0  0  0  0  0  0  0  0  0  0  0  0
    0.2576    0.2764    0.0150 C   0  0  0  0  0  0  0  0  0  0  0  0
    1.6540    0.2011   -0.0367 N   0  0  0  0  0  0  0  0  0  0  0  0
    2.4984   -0.8842    0.3177 C   0  0  0  0  0  0  0  0  0  0  0  0
    2.1033   -2.0726    0.7812 N   0  0  0  0  0  0  0  0  0  0  0  0
    2.9559   -3.0558    1.0957 C   0  0  0  0  0  0  0  0  0  0  0  0
    4.3092   -2.8632    0.9451 C   0  0  0  0  0  0  0  0  0  0  0  0
    5.4455   -4.1449    1.3534 Cl  0  0  0  0  0  0  0  0  0  0  0  0
    4.7527   -1.6166    0.4572 C   0  0  0  0  0  0  0  0  0  0  0  0
    6.1380   -1.4466    0.3110 N   0  0  0  0  0  0  0  0  0  0  0  0
    6.9009   -0.3576   -0.1368 C   0  0  0  0  0  0  0  0  0  0  0  0
    6.2766    0.8084   -0.5266 C   0  0  0  0  0  0  0  0  0  0  0  0
    7.0240    1.9039   -0.9778 C   0  0  0  0  0  0  0  0  0  0  0  0
    8.3820    1.8034   -1.0274 C   0  0  0  0  0  0  0  0  0  0  0  0
    9.0024    0.6381   -0.6374 C   0  0  0  0  0  0  0  0  0  0  0  0
    8.2961   -0.4485   -0.1920 C   0  0  0  0  0  0  0  0  0  0  0  0
    9.0842   -1.8926    0.2913 S   0  0  0  0  0  0  0  0  0  0  0  0
    8.6633   -3.0312   -0.6035 O   0  0  0  0  0  0  0  0  0  0  0  0
    8.8235   -2.3045    1.7132 O   0  0  0  0  0  0  0  0  0  0  0  0
   10.8572   -1.7881    0.1370 C   0  0  0  0  0  0  0  0  0  0  0  0
   11.2609   -1.6791   -1.2975 C   0  0  0  0  0  0  0  0  0  0  0  0
   11.4760   -0.7869    1.0544 C   0  0  0  0  0  0  0  0  0  0  0  0
    3.8248   -0.7008    0.1721 N   0  0  0  0  0  0  0  0  0  0  0  0
   -3.9818    0.8060    0.0512 N   0  0  0  0  0  0  0  0  0  0  0  0
   -4.5241    1.9609   -0.5784 C   0  0  0  0  0  0  0  0  0  0  0  0
   -6.0011    1.9283   -0.8544 C   0  0  0  0  0  0  0  0  0  0  0  0
   -6.8245    1.3726    0.2584 C   0  0  0  0  0  0  0  0  0  0  0  0
   -6.0036    0.6088    1.2781 C   0  0  0  0  0  0  0  0  0  0  0  0
   -4.8657   -0.1463    0.6796 C   0  0  0  0  0  0  0  0  0  0  0  0
   -7.9560    0.6086   -0.0875 N   0  0  0  0  0  0  0  0  0  0  0  0
   -7.7905   -0.5856   -0.8057 C   0  0  0  0  0  0  0  0  0  0  0  0
   -9.1362   -1.0235   -1.3907 C   0  0  0  0  0  0  0  0  0  0  0  0
  -10.1390   -0.8718   -0.3544 N   0  0  0  0  0  0  0  0  0  0  0  0
  -10.0361   -1.8235    0.7053 C   0  0  0  0  0  0  0  0  0  0  0  0
  -10.3349    0.4834    0.0484 C   0  0  0  0  0  0  0  0  0  0  0  0
   -9.1475    1.3193   -0.4248 C   0  0  0  0  0  0  0  0  0  0  0  0
    0.5375    4.4499   -1.6799 H   0  0  0  0  0  0  0  0  0  0  0  0
   -0.9481    3.5330   -2.0530 H   0  0  0  0  0  0  0  0  0  0  0  0
   -0.6880    4.2523   -0.4156 H   0  0  0  0  0  0  0  0  0  0  0  0
   -2.1476    2.5764   -0.7105 H   0  0  0  0  0  0  0  0  0  0  0  0
   -2.6020   -1.3517    0.7883 H   0  0  0  0  0  0  0  0  0  0  0  0
   -0.2121   -1.6859    0.7807 H   0  0  0  0  0  0  0  0  0  0  0  0
    2.1500    1.0935   -0.3956 H   0  0  0  0  0  0  0  0  0  0  0  0
    2.6174   -4.0222    1.4737 H   0  0  0  0  0  0  0  0  0  0  0  0
    6.7215   -2.3022    0.5911 H   0  0  0  0  0  0  0  0  0  0  0  0
    5.2202    0.9989   -0.5296 H   0  0  0  0  0  0  0  0  0  0  0  0
    6.5603    2.8305   -1.2896 H   0  0  0  0  0  0  0  0  0  0  0  0
    9.0220    2.6252   -1.3712 H   0  0  0  0  0  0  0  0  0  0  0  0
   10.0936    0.6299   -0.7052 H   0  0  0  0  0  0  0  0  0  0  0  0
   11.2252   -2.8031    0.4806 H   0  0  0  0  0  0  0  0  0  0  0  0
   11.9033   -0.7785   -1.4926 H   0  0  0  0  0  0  0  0  0  0  0  0
   10.3307   -1.5514   -1.9199 H   0  0  0  0  0  0  0  0  0  0  0  0
   11.7765   -2.5763   -1.6995 H   0  0  0  0  0  0  0  0  0  0  0  0
   12.0225   -1.2557    1.8769 H   0  0  0  0  0  0  0  0  0  0  0  0
   12.1781   -0.1622    0.4319 H   0  0  0  0  0  0  0  0  0  0  0  0
   10.7434   -0.0899    1.5079 H   0  0  0  0  0  0  0  0  0  0  0  0
   -4.2803    2.8410    0.0525 H   0  0  0  0  0  0  0  0  0  0  0  0
   -3.9354    2.1199   -1.5269 H   0  0  0  0  0  0  0  0  0  0  0  0
   -6.3084    2.9635   -1.1164 H   0  0  0  0  0  0  0  0  0  0  0  0
   -6.1470    1.3325   -1.7818 H   0  0  0  0  0  0  0  0  0  0  0  0
   -7.2139    2.2642    0.8421 H   0  0  0  0  0  0  0  0  0  0  0  0
   -6.6586   -0.1075    1.8153 H   0  0  0  0  0  0  0  0  0  0  0  0
   -5.5929    1.2907    2.0626 H   0  0  0  0  0  0  0  0  0  0  0  0
   -5.1731   -0.8869   -0.0780 H   0  0  0  0  0  0  0  0  0  0  0  0
   -4.3121   -0.6097    1.5260 H   0  0  0  0  0  0  0  0  0  0  0  0
   -7.5080   -1.4012   -0.0997 H   0  0  0  0  0  0  0  0  0  0  0  0
   -7.0082   -0.5774   -1.5870 H   0  0  0  0  0  0  0  0  0  0  0  0
   -9.4445   -0.3742   -2.2343 H   0  0  0  0  0  0  0  0  0  0  0  0
   -9.0261   -2.0597   -1.7202 H   0  0  0  0  0  0  0  0  0  0  0  0
   -9.1822   -2.5377    0.5321 H   0  0  0  0  0  0  0  0  0  0  0  0
   -9.9814   -1.3564    1.7041 H   0  0  0  0  0  0  0  0  0  0  0  0
  -10.9456   -2.4645    0.6802 H   0  0  0  0  0  0  0  0  0  0  0  0
  -11.2261    0.8855   -0.4545 H   0  0  0  0  0  0  0  0  0  0  0  0
  -10.4517    0.5517    1.1515 H   0  0  0  0  0  0  0  0  0  0  0  0
   -9.2778    1.5186   -1.4917 H   0  0  0  0  0  0  0  0  0  0  0  0
   -9.1611    2.2698    0.1783 H   0  0  0  0  0  0  0  0  0  0  0  0
  1  2  1  0
  2  3  1  0
  3  4  2  0
  4  5  1  0
  5  6  2  0
  6  7  1  0
  7  8  2  0
  8  9  1  0
  9 10  1  0
 10 11  2  0
 11 12  1  0
 12 13  2  0
 13 14  1  0
 13 15  1  0
 15 16  1  0
 16 17  1  0
 17 18  2  0
 18 19  1  0
 19 20  2  0
 20 21  1  0
 21 22  2  0
 22 23  1  0
 23 24  2  0
 23 25  2  0
 23 26  1  0
 26 27  1  0
 26 28  1  0
 15 29  2  0
  5 30  1  0
 30 31  1  0
 31 32  1  0
 32 33  1  0
 33 34  1  0
 34 35  1  0
 33 36  1  0
 36 37  1  0
 37 38  1  0
 38 39  1  0
 39 40  1  0
 39 41  1  0
 41 42  1  0
  8  3  1  0
 29 10  1  0
 35 30  1  0
 42 36  1  0
 22 17  1  0
  1 43  1  0
  1 44  1  0
  1 45  1  0
  4 46  1  0
  6 47  1  0
  7 48  1  0
  9 49  1  0
 12 50  1  0
 16 51  1  0
 18 52  1  0
 19 53  1  0
 20 54  1  0
 21 55  1  0
 26 56  1  0
 27 57  1  0
 27 58  1  0
 27 59  1  0
 28 60  1  0
 28 61  1  0
 28 62  1  0
 31 63  1  0
 31 64  1  0
 32 65  1  0
 32 66  1  0
 33 67  1  0
 34 68  1  0
 34 69  1  0
 35 70  1  0
 35 71  1  0
 37 72  1  0
 37 73  1  0
 38 74  1  0
 38 75  1  0
 40 76  1  0
 40 77  1  0
 40 78  1  0
 41 79  1  0
 41 80  1  0
 42 81  1  0
 42 82  1  0
M  END
$$$$
[H]O[C@]([H])(C([H])([H])[H])[C@]([H])(c1nnc(-c2c([H])c([H])c([H])c([H])c2[H])o1)N([H])c1c([H])c([H])c([N+]#[C-])c(Cl)c1C([H])([H])[H]
     RDKit          3D

 43 45  0  0  0  0  0  0  0  0999 V2000
    0.1849   -2.1491    0.4543 C   0  0  0  0  0  0  0  0  0  0  0  0
   -0.4902   -1.7096   -0.8334 C   0  0  1  0  0  0  0  0  0  0  0  0
   -1.6650   -2.4026   -1.0543 O   0  0  0  0  0  0  0  0  0  0  0  0
   -0.5843   -0.2233   -0.9432 C   0  0  1  0  0  0  0  0  0  0  0  0
   -1.4976    0.4130   -0.0523 N   0  0  0  0  0  0  0  0  0  0  0  0
   -2.9080    0.4835   -0.1930 C   0  0  0  0  0  0  0  0  0  0  0  0
   -3.6068    0.1112   -1.3131 C   0  0  0  0  0  0  0  0  0  0  0  0
   -4.9916    0.2379   -1.3888 C   0  0  0  0  0  0  0  0  0  0  0  0
   -5.7264    0.7439   -0.3436 C   0  0  0  0  0  0  0  0  0  0  0  0
   -7.1083    0.8657   -0.4309 N   0  0  0  0  0  0  0  0  0  0  0  0
   -8.2597    0.9525   -0.4920 C   0  0  0  0  0  0  0  0  0  0  0  0
   -5.0435    1.1243    0.7894 C   0  0  0  0  0  0  0  0  0  0  0  0
   -5.9893    1.7682    2.1152 Cl  0  0  0  0  0  0  0  0  0  0  0  0
   -3.6762    0.9947    0.8545 C   0  0  0  0  0  0  0  0  0  0  0  0
   -2.9868    1.4195    2.1007 C   0  0  0  0  0  0  0  0  0  0  0  0
    0.7749    0.3680   -0.7450 C   0  0  0  0  0  0  0  0  0  0  0  0
    1.0000    1.6757   -0.6387 N   0  0  0  0  0  0  0  0  0  0  0  0
    2.3244    1.8011   -0.4730 N   0  0  0  0  0  0  0  0  0  0  0  0
    2.8980    0.5888   -0.4781 C   0  0  0  0  0  0  0  0  0  0  0  0
    1.9261   -0.2708   -0.6463 O   0  0  0  0  0  0  0  0  0  0  0  0
    4.3423    0.3128   -0.3224 C   0  0  0  0  0  0  0  0  0  0  0  0
    4.7899   -0.9875   -0.3480 C   0  0  0  0  0  0  0  0  0  0  0  0
    6.1395   -1.2594   -0.2033 C   0  0  0  0  0  0  0  0  0  0  0  0
    7.0371   -0.2267   -0.0333 C   0  0  0  0  0  0  0  0  0  0  0  0
    6.5876    1.0764   -0.0078 C   0  0  0  0  0  0  0  0  0  0  0  0
    5.2481    1.3225   -0.1528 C   0  0  0  0  0  0  0  0  0  0  0  0
    0.0569   -1.4197    1.2638 H   0  0  0  0  0  0  0  0  0  0  0  0
    1.2372   -2.4460    0.2806 H   0  0  0  0  0  0  0  0  0  0  0  0
   -0.3384   -3.0859    0.7809 H   0  0  0  0  0  0  0  0  0  0  0  0
    0.2063   -2.0425   -1.6634 H   0  0  0  0  0  0  0  0  0  0  0  0
   -1.8994   -3.0320   -0.3461 H   0  0  0  0  0  0  0  0  0  0  0  0
   -0.8528    0.0116   -2.0031 H   0  0  0  0  0  0  0  0  0  0  0  0
   -1.0764    0.8795    0.8020 H   0  0  0  0  0  0  0  0  0  0  0  0
   -3.0640   -0.2751   -2.1707 H   0  0  0  0  0  0  0  0  0  0  0  0
   -5.5222   -0.0593   -2.2735 H   0  0  0  0  0  0  0  0  0  0  0  0
   -2.2571    0.6594    2.4493 H   0  0  0  0  0  0  0  0  0  0  0  0
   -3.7214    1.6344    2.9027 H   0  0  0  0  0  0  0  0  0  0  0  0
   -2.4213    2.3559    1.9094 H   0  0  0  0  0  0  0  0  0  0  0  0
    4.1023   -1.8214   -0.4808 H   0  0  0  0  0  0  0  0  0  0  0  0
    6.5307   -2.2604   -0.2174 H   0  0  0  0  0  0  0  0  0  0  0  0
    8.1040   -0.3904    0.0842 H   0  0  0  0  0  0  0  0  0  0  0  0
    7.3052    1.9087    0.1286 H   0  0  0  0  0  0  0  0  0  0  0  0
    4.8911    2.3524   -0.1328 H   0  0  0  0  0  0  0  0  0  0  0  0
  1  2  1  0
  2  3  1  0
  2  4  1  0
  4  5  1  0
  5  6  1  0
  6  7  2  0
  7  8  1  0
  8  9  2  0
  9 10  1  0
 10 11  3  0
  9 12  1  0
 12 13  1  0
 12 14  2  0
 14 15  1  0
  4 16  1  0
 16 17  2  0
 17 18  1  0
 18 19  2  0
 19 20  1  0
 19 21  1  0
 21 22  2  0
 22 23  1  0
 23 24  2  0
 24 25  1  0
 25 26  2  0
 14  6  1  0
 20 16  1  0
 26 21  1  0
  1 27  1  0
  1 28  1  0
  1 29  1  0
  2 30  1  6
  3 31  1  0
  4 32  1  6
  5 33  1  0
  7 34  1  0
  8 35  1  0
 15 36  1  0
 15 37  1  0
 15 38  1  0
 22 39  1  0
 23 40  1  0
 24 41  1  0
 25 42  1  0
 26 43  1  0
M  CHG  2  10   1  11  -1
M  END
$$$$
[H]C1=C(C(=O)[O-])N2C(=O)/C(=C(\[H])c3nc([H])c([H])c([H])c3[H])[C@@]2([H])S1
     RDKit          3D

 25 27  0  0  0  0  0  0  0  0999 V2000
   -5.7964   -0.9993    0.7348 O   0  0  0  0  0  0  0  0  0  0  0  0
   -4.8695   -0.1940    0.1305 C   0  0  0  0  0  0  0  0  0  0  0  0
   -5.2649    0.7125   -0.6631 O   0  0  0  0  0  0  0  0  0  0  0  0
   -3.4320   -0.4099    0.4284 C   0  0  0  0  0  0  0  0  0  0  0  0
   -2.9913   -1.3362    1.2422 C   0  0  0  0  0  0  0  0  0  0  0  0
   -1.2094   -1.1725    1.2443 S   0  0  0  0  0  0  0  0  0  0  0  0
   -1.1716   -0.2980   -0.3908 C   0  0  1  0  0  0  0  0  0  0  0  0
   -2.4445    0.4225   -0.1475 N   0  0  0  0  0  0  0  0  0  0  0  0
   -1.7628    1.5606   -0.6965 C   0  0  0  0  0  0  0  0  0  0  0  0
   -2.1483    2.6481   -1.1861 O   0  0  0  0  0  0  0  0  0  0  0  0
   -0.4505    0.9368   -0.4521 C   0  0  0  0  0  0  0  0  0  0  0  0
    0.7463    1.4355   -0.3792 C   0  0  0  0  0  0  0  0  0  0  0  0
    1.9106    0.5654   -0.1554 C   0  0  0  0  0  0  0  0  0  0  0  0
    3.1019    0.8692   -0.8274 C   0  0  0  0  0  0  0  0  0  0  0  0
    4.2386    0.1079   -0.6757 C   0  0  0  0  0  0  0  0  0  0  0  0
    4.2045   -0.9846    0.1610 C   0  0  0  0  0  0  0  0  0  0  0  0
    3.0184   -1.2582    0.8084 C   0  0  0  0  0  0  0  0  0  0  0  0
    1.9106   -0.4987    0.6475 N   0  0  0  0  0  0  0  0  0  0  0  0
   -3.5490   -2.0434    1.7964 H   0  0  0  0  0  0  0  0  0  0  0  0
   -1.2150   -0.9792   -1.2417 H   0  0  0  0  0  0  0  0  0  0  0  0
    0.9500    2.5192   -0.4805 H   0  0  0  0  0  0  0  0  0  0  0  0
    3.0831    1.7436   -1.4792 H   0  0  0  0  0  0  0  0  0  0  0  0
    5.1293    0.3667   -1.2034 H   0  0  0  0  0  0  0  0  0  0  0  0
    5.0719   -1.6100    0.3096 H   0  0  0  0  0  0  0  0  0  0  0  0
    2.9398   -2.1040    1.4766 H   0  0  0  0  0  0  0  0  0  0  0  0
  1  2  1  0
  2  3  2  0
  2  4  1  0
  4  5  2  0
  5  6  1  0
  6  7  1  0
  7  8  1  0
  8  9  1  0
  9 10  2  0
  9 11  1  0
 11 12  2  0
 12 13  1  0
 13 14  2  0
 14 15  1  0
 15 16  2  0
 16 17  1  0
 17 18  2  0
  8  4  1  0
 18 13  1  0
 11  7  1  0
  5 19  1  0
  7 20  1  6
 12 21  1  0
 14 22  1  0
 15 23  1  0
 16 24  1  0
 17 25  1  0
M  CHG  1   1  -1
M  END
$$$$
[H]OC([H])([H])C([H])([H])n1nc([H])c(-c2c([H])c(-c3c([H])nn(C([H])([H])[H])c3[H])c([H])c3c2-c2c([H])c([H])c([H])c([H])c2C3(O[H])C(F)(F)F)c1[H]
     RDKit          3D

 51 55  0  0  0  0  0  0  0  0999 V2000
   -5.4011    4.6503   -0.4526 C   0  0  0  0  0  0  0  0  0  0  0  0
   -4.2945    3.9589    0.2150 N   0  0  0  0  0  0  0  0  0  0  0  0
   -3.6261    2.8665   -0.1950 C   0  0  0  0  0  0  0  0  0  0  0  0
   -2.6781    2.5924    0.7603 C   0  0  0  0  0  0  0  0  0  0  0  0
   -2.8267    3.5554    1.7192 C   0  0  0  0  0  0  0  0  0  0  0  0
   -3.8207    4.3898    1.3767 N   0  0  0  0  0  0  0  0  0  0  0  0
   -1.6995    1.5059    0.7778 C   0  0  0  0  0  0  0  0  0  0  0  0
   -1.3081    1.0009    1.9895 C   0  0  0  0  0  0  0  0  0  0  0  0
   -0.3808   -0.0348    2.0868 C   0  0  0  0  0  0  0  0  0  0  0  0
    0.1616   -0.5678    0.9289 C   0  0  0  0  0  0  0  0  0  0  0  0
    1.1106   -1.6306    1.3290 C   0  0  0  0  0  0  0  0  0  0  0  0
    1.9196   -2.4750    0.5703 C   0  0  0  0  0  0  0  0  0  0  0  0
    2.7144   -3.3747    1.2512 C   0  0  0  0  0  0  0  0  0  0  0  0
    2.7481   -3.4795    2.6217 C   0  0  0  0  0  0  0  0  0  0  0  0
    1.9434   -2.6398    3.3551 C   0  0  0  0  0  0  0  0  0  0  0  0
    1.1141   -1.7038    2.6989 C   0  0  0  0  0  0  0  0  0  0  0  0
    0.1620   -0.7216    3.2649 C   0  0  0  0  0  0  0  0  0  0  0  0
    0.7819    0.1957    4.0980 O   0  0  0  0  0  0  0  0  0  0  0  0
   -0.9669   -1.4164    3.9953 C   0  0  0  0  0  0  0  0  0  0  0  0
   -0.4935   -2.0885    5.1155 F   0  0  0  0  0  0  0  0  0  0  0  0
   -1.6079   -2.2851    3.1383 F   0  0  0  0  0  0  0  0  0  0  0  0
   -1.8727   -0.4552    4.3819 F   0  0  0  0  0  0  0  0  0  0  0  0
   -0.2064   -0.0859   -0.3060 C   0  0  0  0  0  0  0  0  0  0  0  0
   -1.1531    0.9649   -0.3310 C   0  0  0  0  0  0  0  0  0  0  0  0
    0.3216   -0.5445   -1.5766 C   0  0  0  0  0  0  0  0  0  0  0  0
   -0.1710   -1.4701   -2.4859 C   0  0  0  0  0  0  0  0  0  0  0  0
    0.6474   -1.4953   -3.5446 N   0  0  0  0  0  0  0  0  0  0  0  0
    1.6443   -0.6190   -3.3430 N   0  0  0  0  0  0  0  0  0  0  0  0
    2.7247   -0.3786   -4.2907 C   0  0  0  0  0  0  0  0  0  0  0  0
    3.8360   -1.3456   -3.9437 C   0  0  0  0  0  0  0  0  0  0  0  0
    4.9283   -1.2006   -4.7952 O   0  0  0  0  0  0  0  0  0  0  0  0
    1.4771   -0.0213   -2.1526 C   0  0  0  0  0  0  0  0  0  0  0  0
   -5.0550    5.4544   -1.1019 H   0  0  0  0  0  0  0  0  0  0  0  0
   -5.9557    3.8535   -1.0061 H   0  0  0  0  0  0  0  0  0  0  0  0
   -6.1169    5.0690    0.2910 H   0  0  0  0  0  0  0  0  0  0  0  0
   -3.8285    2.3375   -1.1069 H   0  0  0  0  0  0  0  0  0  0  0  0
   -2.2372    3.6470    2.6287 H   0  0  0  0  0  0  0  0  0  0  0  0
   -1.7382    1.4396    2.9037 H   0  0  0  0  0  0  0  0  0  0  0  0
    1.8991   -2.4138   -0.4842 H   0  0  0  0  0  0  0  0  0  0  0  0
    3.3377   -4.0249    0.6679 H   0  0  0  0  0  0  0  0  0  0  0  0
    3.3830   -4.1957    3.1250 H   0  0  0  0  0  0  0  0  0  0  0  0
    1.9192   -2.6669    4.4272 H   0  0  0  0  0  0  0  0  0  0  0  0
    0.1412    0.3962    4.8329 H   0  0  0  0  0  0  0  0  0  0  0  0
   -1.4488    1.3499   -1.3118 H   0  0  0  0  0  0  0  0  0  0  0  0
   -1.0633   -2.0573   -2.3425 H   0  0  0  0  0  0  0  0  0  0  0  0
    2.3723   -0.5251   -5.3283 H   0  0  0  0  0  0  0  0  0  0  0  0
    3.1020    0.6643   -4.1907 H   0  0  0  0  0  0  0  0  0  0  0  0
    4.2049   -1.1807   -2.9194 H   0  0  0  0  0  0  0  0  0  0  0  0
    3.4252   -2.3685   -3.9854 H   0  0  0  0  0  0  0  0  0  0  0  0
    5.7884   -1.1518   -4.3207 H   0  0  0  0  0  0  0  0  0  0  0  0
    2.1431    0.7266   -1.7508 H   0  0  0  0  0  0  0  0  0  0  0  0
  1  2  1  0
  2  3  1  0
  3  4  2  0
  4  5  1  0
  5  6  2  0
  4  7  1  0
  7  8  2  0
  8  9  1  0
  9 10  2  0
 10 11  1  0
 11 12  2  0
 12 13  1  0
 13 14  2  0
 14 15  1  0
 15 16  2  0
 16 17  1  0
 17 18  1  0
 17 19  1  0
 19 20  1  0
 19 21  1  0
 19 22  1  0
 10 23  1  0
 23 24  2  0
 23 25  1  0
 25 26  1  0
 26 27  2  0
 27 28  1  0
 28 29  1  0
 29 30  1  0
 30 31  1  0
 28 32  1  0
  6  2  1  0
 24  7  1  0
 32 25  2  0
 17  9  1  0
 16 11  1  0
  1 33  1  0
  1 34  1  0
  1 35  1  0
  3 36  1  0
  5 37  1  0
  8 38  1  0
 12 39  1  0
 13 40  1  0
 14 41  1  0
 15 42  1  0
 18 43  1  0
 24 44  1  0
 26 45  1  0
 29 46  1  0
 29 47  1  0
 30 48  1  0
 30 49  1  0
 31 50  1  0
 32 51  1  0
M  END
$$$$
[H]c1c([H])c(Cl)c(-c2c([H])c3c([H])nc(N([H])c4c([H])c([H])c(N5C([H])([H])C([H])([H])N(C([H])([H])[H])C([H])([H])C5([H])[H])c(Cl)c4[H])nc3n(C([H])([H])[H])c2=O)c(Cl)c1[H]
     RDKit          3D

 58 62  0  0  0  0  0  0  0  0999 V2000
   -8.7668   -0.7297   -1.6373 C   0  0  0  0  0  0  0  0  0  0  0  0
   -8.1936   -0.2056   -0.4380 N   0  0  0  0  0  0  0  0  0  0  0  0
   -7.5282   -1.1636    0.3840 C   0  0  0  0  0  0  0  0  0  0  0  0
   -6.1106   -1.4414    0.0002 C   0  0  0  0  0  0  0  0  0  0  0  0
   -5.4023   -0.2574   -0.4356 N   0  0  0  0  0  0  0  0  0  0  0  0
   -6.1327    0.6239   -1.3574 C   0  0  0  0  0  0  0  0  0  0  0  0
   -7.4240    0.9865   -0.6210 C   0  0  0  0  0  0  0  0  0  0  0  0
   -4.0797    0.0469   -0.0058 C   0  0  0  0  0  0  0  0  0  0  0  0
   -3.7774    1.2034    0.6811 C   0  0  0  0  0  0  0  0  0  0  0  0
   -2.5053    1.4649    1.0772 C   0  0  0  0  0  0  0  0  0  0  0  0
   -1.4373    0.5885    0.8159 C   0  0  0  0  0  0  0  0  0  0  0  0
   -0.1902    0.9835    1.3108 N   0  0  0  0  0  0  0  0  0  0  0  0
    1.0366    0.6029    0.7639 C   0  0  0  0  0  0  0  0  0  0  0  0
    1.1422   -0.1741   -0.3132 N   0  0  0  0  0  0  0  0  0  0  0  0
    2.3052   -0.5582   -0.8638 C   0  0  0  0  0  0  0  0  0  0  0  0
    3.4697   -0.0988   -0.2472 C   0  0  0  0  0  0  0  0  0  0  0  0
    4.6821   -0.4649   -0.7738 C   0  0  0  0  0  0  0  0  0  0  0  0
    5.8271   -0.0064   -0.1581 C   0  0  0  0  0  0  0  0  0  0  0  0
    7.1278   -0.3825   -0.6999 C   0  0  0  0  0  0  0  0  0  0  0  0
    7.7411   -1.5283   -0.2484 C   0  0  0  0  0  0  0  0  0  0  0  0
    6.9522   -2.5105    0.9637 Cl  0  0  0  0  0  0  0  0  0  0  0  0
    8.9884   -1.8958   -0.7631 C   0  0  0  0  0  0  0  0  0  0  0  0
    9.6065   -1.1175   -1.7192 C   0  0  0  0  0  0  0  0  0  0  0  0
    8.9505    0.0203   -2.1381 C   0  0  0  0  0  0  0  0  0  0  0  0
    7.7172    0.4052   -1.6449 C   0  0  0  0  0  0  0  0  0  0  0  0
    6.8878    1.8466   -2.1766 Cl  0  0  0  0  0  0  0  0  0  0  0  0
    5.6747    0.7867    0.9421 C   0  0  0  0  0  0  0  0  0  0  0  0
    6.7369    1.2029    1.5006 O   0  0  0  0  0  0  0  0  0  0  0  0
    4.4931    1.1508    1.4653 N   0  0  0  0  0  0  0  0  0  0  0  0
    4.4057    1.9985    2.6399 C   0  0  0  0  0  0  0  0  0  0  0  0
    3.3591    0.7023    0.8633 C   0  0  0  0  0  0  0  0  0  0  0  0
    2.1752    1.0642    1.3835 N   0  0  0  0  0  0  0  0  0  0  0  0
   -1.7399   -0.5579    0.1354 C   0  0  0  0  0  0  0  0  0  0  0  0
   -3.0402   -0.8193   -0.2667 C   0  0  0  0  0  0  0  0  0  0  0  0
   -3.3733   -2.3091   -1.1404 Cl  0  0  0  0  0  0  0  0  0  0  0  0
   -8.3250   -1.6593   -2.0030 H   0  0  0  0  0  0  0  0  0  0  0  0
   -8.7180    0.0405   -2.4531 H   0  0  0  0  0  0  0  0  0  0  0  0
   -9.8731   -0.8494   -1.4441 H   0  0  0  0  0  0  0  0  0  0  0  0
   -8.0925   -2.1375    0.2947 H   0  0  0  0  0  0  0  0  0  0  0  0
   -7.5809   -0.8540    1.4479 H   0  0  0  0  0  0  0  0  0  0  0  0
   -6.1123   -2.2206   -0.8021 H   0  0  0  0  0  0  0  0  0  0  0  0
   -5.5822   -1.8050    0.9224 H   0  0  0  0  0  0  0  0  0  0  0  0
   -6.3697    0.0044   -2.2405 H   0  0  0  0  0  0  0  0  0  0  0  0
   -5.5618    1.5209   -1.5943 H   0  0  0  0  0  0  0  0  0  0  0  0
   -7.9660    1.7687   -1.1497 H   0  0  0  0  0  0  0  0  0  0  0  0
   -7.1325    1.3495    0.3989 H   0  0  0  0  0  0  0  0  0  0  0  0
   -4.6214    1.8790    0.8784 H   0  0  0  0  0  0  0  0  0  0  0  0
   -2.2991    2.4018    1.6249 H   0  0  0  0  0  0  0  0  0  0  0  0
   -0.1786    1.6233    2.1802 H   0  0  0  0  0  0  0  0  0  0  0  0
    2.3698   -1.1947   -1.7458 H   0  0  0  0  0  0  0  0  0  0  0  0
    4.7913   -1.0943   -1.6466 H   0  0  0  0  0  0  0  0  0  0  0  0
    9.4801   -2.7898   -0.4191 H   0  0  0  0  0  0  0  0  0  0  0  0
   10.5748   -1.4082   -2.1148 H   0  0  0  0  0  0  0  0  0  0  0  0
    9.4341    0.6419   -2.8954 H   0  0  0  0  0  0  0  0  0  0  0  0
    5.4065    2.4151    2.8577 H   0  0  0  0  0  0  0  0  0  0  0  0
    4.1119    1.3983    3.5383 H   0  0  0  0  0  0  0  0  0  0  0  0
    3.6341    2.7904    2.5235 H   0  0  0  0  0  0  0  0  0  0  0  0
   -0.9670   -1.2779   -0.0780 H   0  0  0  0  0  0  0  0  0  0  0  0
  1  2  1  0
  2  3  1  0
  3  4  1  0
  4  5  1  0
  5  6  1  0
  6  7  1  0
  5  8  1  0
  8  9  2  0
  9 10  1  0
 10 11  2  0
 11 12  1  0
 12 13  1  0
 13 14  2  0
 14 15  1  0
 15 16  2  0
 16 17  1  0
 17 18  2  0
 18 19  1  0
 19 20  2  0
 20 21  1  0
 20 22  1  0
 22 23  2  0
 23 24  1  0
 24 25  2  0
 25 26  1  0
 18 27  1  0
 27 28  2  0
 27 29  1  0
 29 30  1  0
 29 31  1  0
 31 32  2  0
 11 33  1  0
 33 34  2  0
 34 35  1  0
  7  2  1  0
 34  8  1  0
 32 13  1  0
 31 16  1  0
 25 19  1  0
  1 36  1  0
  1 37  1  0
  1 38  1  0
  3 39  1  0
  3 40  1  0
  4 41  1  0
  4 42  1  0
  6 43  1  0
  6 44  1  0
  7 45  1  0
  7 46  1  0
  9 47  1  0
 10 48  1  0
 12 49  1  0
 15 50  1  0
 17 51  1  0
 22 52  1  0
 23 53  1  0
 24 54  1  0
 30 55  1  0
 30 56  1  0
 30 57  1  0
 33 58  1  0
M  END
$$$$
[H]c1c([H])c(C(=O)N([H])c2nn([H])c3c([H])c([H])c(C#N)c([H])c23)c([H])c(C(F)(F)F)c1[H]
     RDKit          3D

 33 35  0  0  0  0  0  0  0  0999 V2000
    5.1180    2.5532   -1.2769 F   0  0  0  0  0  0  0  0  0  0  0  0
    5.0452    1.9774   -0.0434 C   0  0  0  0  0  0  0  0  0  0  0  0
    6.2487    1.7789    0.5172 F   0  0  0  0  0  0  0  0  0  0  0  0
    4.2475    2.7861    0.7879 F   0  0  0  0  0  0  0  0  0  0  0  0
    4.2989    0.6640   -0.1743 C   0  0  0  0  0  0  0  0  0  0  0  0
    5.0796   -0.4980   -0.0862 C   0  0  0  0  0  0  0  0  0  0  0  0
    4.3946   -1.6702   -0.1697 C   0  0  0  0  0  0  0  0  0  0  0  0
    3.0522   -1.7628   -0.3325 C   0  0  0  0  0  0  0  0  0  0  0  0
    2.2559   -0.5814   -0.4246 C   0  0  0  0  0  0  0  0  0  0  0  0
    2.9345    0.6098   -0.3371 C   0  0  0  0  0  0  0  0  0  0  0  0
    0.8485   -0.8016   -0.5406 C   0  0  0  0  0  0  0  0  0  0  0  0
    0.4860   -1.9571   -1.0338 O   0  0  0  0  0  0  0  0  0  0  0  0
   -0.2090    0.0742   -0.1765 N   0  0  0  0  0  0  0  0  0  0  0  0
   -1.5157   -0.5385   -0.0879 C   0  0  0  0  0  0  0  0  0  0  0  0
   -1.6326   -1.8902    0.0822 N   0  0  0  0  0  0  0  0  0  0  0  0
   -2.8866   -2.2259    0.3542 N   0  0  0  0  0  0  0  0  0  0  0  0
   -3.6284   -1.1323    0.3703 C   0  0  0  0  0  0  0  0  0  0  0  0
   -4.9659   -0.9499    0.5979 C   0  0  0  0  0  0  0  0  0  0  0  0
   -5.4868    0.3206    0.5450 C   0  0  0  0  0  0  0  0  0  0  0  0
   -4.6513    1.4208    0.2571 C   0  0  0  0  0  0  0  0  0  0  0  0
   -3.3205    1.1883    0.0422 C   0  0  0  0  0  0  0  0  0  0  0  0
   -2.7486   -0.0715    0.0852 C   0  0  0  0  0  0  0  0  0  0  0  0
   -5.2217    2.7323    0.1618 C   0  0  0  0  0  0  0  0  0  0  0  0
   -5.6951    3.7746    0.0727 N   0  0  0  0  0  0  0  0  0  0  0  0
    6.1436   -0.4089    0.0651 H   0  0  0  0  0  0  0  0  0  0  0  0
    4.9438   -2.6092   -0.0620 H   0  0  0  0  0  0  0  0  0  0  0  0
    2.5557   -2.7410   -0.4500 H   0  0  0  0  0  0  0  0  0  0  0  0
    2.3563    1.5400   -0.4460 H   0  0  0  0  0  0  0  0  0  0  0  0
   -0.1103    1.0230    0.1809 H   0  0  0  0  0  0  0  0  0  0  0  0
   -3.1515   -3.2391    0.5283 H   0  0  0  0  0  0  0  0  0  0  0  0
   -5.5706   -1.8684    0.7708 H   0  0  0  0  0  0  0  0  0  0  0  0
   -6.5671    0.4895    0.7407 H   0  0  0  0  0  0  0  0  0  0  0  0
   -2.6475    2.0135   -0.1907 H   0  0  0  0  0  0  0  0  0  0  0  0
  1  2  1  0
  2  3  1  0
  2  4  1  0
  2  5  1  0
  5  6  2  0
  6  7  1  0
  7  8  2  0
  8  9  1  0
  9 10  2  0
  9 11  1  0
 11 12  2  0
 11 13  1  0
 13 14  1  0
 14 15  2  0
 15 16  1  0
 16 17  1  0
 17 18  2  0
 18 19  1  0
 19 20  2  0
 20 21  1  0
 21 22  2  0
 20 23  1  0
 23 24  3  0
 10  5  1  0
 22 14  1  0
 22 17  1  0
  6 25  1  0
  7 26  1  0
  8 27  1  0
 10 28  1  0
 13 29  1  0
 16 30  1  0
 18 31  1  0
 19 32  1  0
 21 33  1  0
M  END
$$$$
[H]N=C(N([H])[H])N([H])C([H])([H])C([H])([H])C([H])([H])[C@@]([H])(C(=O)c1nc([H])c([H])s1)N([H])C(=O)[C@@]([H])(N([H])C(=O)[C@]([H])(N([H])S(=O)(=O)C([H])([H])c1c([H])c([H])c([H])c([H])c1[H])C([H])([H])O[H])C([H])([H])C([H])(C([H])([H])[H])C([H])([H])[H]
     RDKit          3D

 77 78  0  0  0  0  0  0  0  0999 V2000
    0.6291   -0.7899    3.5807 C   0  0  0  0  0  0  0  0  0  0  0  0
    0.6731   -0.5268    2.0702 C   0  0  0  0  0  0  0  0  0  0  0  0
    2.1036   -0.5992    1.6800 C   0  0  0  0  0  0  0  0  0  0  0  0
   -0.2610   -1.4631    1.4125 C   0  0  0  0  0  0  0  0  0  0  0  0
   -0.4186   -1.3977   -0.0604 C   0  0  2  0  0  0  0  0  0  0  0  0
    0.6064   -1.6610   -0.9352 N   0  0  0  0  0  0  0  0  0  0  0  0
    1.6229   -1.9216   -1.8082 C   0  0  0  0  0  0  0  0  0  0  0  0
    1.4900   -1.7236   -3.1000 O   0  0  0  0  0  0  0  0  0  0  0  0
    3.0036   -2.4496   -1.5533 C   0  0  1  0  0  0  0  0  0  0  0  0
    2.9692   -3.9776   -1.8626 C   0  0  0  0  0  0  0  0  0  0  0  0
    2.6422   -4.2254   -3.1739 O   0  0  0  0  0  0  0  0  0  0  0  0
    3.9757   -1.8212   -2.3686 N   0  0  0  0  0  0  0  0  0  0  0  0
    5.4303   -1.2963   -1.7774 S   0  0  0  0  0  0  0  0  0  0  0  0
    6.3745   -2.3889   -1.3336 O   0  0  0  0  0  0  0  0  0  0  0  0
    6.1794   -0.6406   -2.9438 O   0  0  0  0  0  0  0  0  0  0  0  0
    5.3850   -0.0702   -0.5015 C   0  0  0  0  0  0  0  0  0  0  0  0
    6.7635    0.3361   -0.0604 C   0  0  0  0  0  0  0  0  0  0  0  0
    7.4254   -0.4249    0.8995 C   0  0  0  0  0  0  0  0  0  0  0  0
    8.6773   -0.1037    1.3878 C   0  0  0  0  0  0  0  0  0  0  0  0
    9.2856    1.0290    0.8888 C   0  0  0  0  0  0  0  0  0  0  0  0
    8.6406    1.7926   -0.0645 C   0  0  0  0  0  0  0  0  0  0  0  0
    7.3920    1.4540   -0.5374 C   0  0  0  0  0  0  0  0  0  0  0  0
   -1.0293    0.0100   -0.3131 C   0  0  0  0  0  0  0  0  0  0  0  0
   -0.3575    0.7495   -1.0405 O   0  0  0  0  0  0  0  0  0  0  0  0
   -2.2316    0.3580    0.2476 N   0  0  0  0  0  0  0  0  0  0  0  0
   -2.8992    1.6642    0.0709 C   0  0  1  0  0  0  0  0  0  0  0  0
   -3.5703    1.7149   -1.2571 C   0  0  0  0  0  0  0  0  0  0  0  0
   -4.5923    0.7167   -1.5928 C   0  0  0  0  0  0  0  0  0  0  0  0
   -5.8468    0.6639   -0.7666 C   0  0  0  0  0  0  0  0  0  0  0  0
   -6.7412   -0.3787   -1.2854 N   0  0  0  0  0  0  0  0  0  0  0  0
   -7.9984   -0.6454   -0.7193 C   0  0  0  0  0  0  0  0  0  0  0  0
   -8.9965    0.3582   -0.7614 N   0  0  0  0  0  0  0  0  0  0  0  0
   -8.2791   -1.7743   -0.1633 N   0  0  0  0  0  0  0  0  0  0  0  0
   -3.6989    1.9742    1.2320 C   0  0  0  0  0  0  0  0  0  0  0  0
   -3.7317    1.1361    2.1904 O   0  0  0  0  0  0  0  0  0  0  0  0
   -4.4833    3.1832    1.3979 C   0  0  0  0  0  0  0  0  0  0  0  0
   -5.2713    3.4777    2.4282 N   0  0  0  0  0  0  0  0  0  0  0  0
   -5.8993    4.5955    2.4737 C   0  0  0  0  0  0  0  0  0  0  0  0
   -5.7301    5.4725    1.4277 C   0  0  0  0  0  0  0  0  0  0  0  0
   -4.6516    4.5969    0.4317 S   0  0  0  0  0  0  0  0  0  0  0  0
   -0.0731   -1.6278    3.7592 H   0  0  0  0  0  0  0  0  0  0  0  0
    1.6240   -1.1270    3.9758 H   0  0  0  0  0  0  0  0  0  0  0  0
    0.2465    0.0740    4.1519 H   0  0  0  0  0  0  0  0  0  0  0  0
    0.3642    0.5444    1.9796 H   0  0  0  0  0  0  0  0  0  0  0  0
    2.7055   -0.0460    2.4319 H   0  0  0  0  0  0  0  0  0  0  0  0
    2.5130   -1.6423    1.6903 H   0  0  0  0  0  0  0  0  0  0  0  0
    2.3254   -0.0972    0.7082 H   0  0  0  0  0  0  0  0  0  0  0  0
   -1.2869   -1.2951    1.8444 H   0  0  0  0  0  0  0  0  0  0  0  0
    0.0104   -2.4959    1.7551 H   0  0  0  0  0  0  0  0  0  0  0  0
   -1.3539   -2.0053   -0.3155 H   0  0  0  0  0  0  0  0  0  0  0  0
   -0.2359   -1.3170   -1.9678 H   0  0  0  0  0  0  0  0  0  0  0  0
    3.2638   -2.4122   -0.5230 H   0  0  0  0  0  0  0  0  0  0  0  0
    2.2146   -4.4695   -1.2210 H   0  0  0  0  0  0  0  0  0  0  0  0
    3.9419   -4.4371   -1.6548 H   0  0  0  0  0  0  0  0  0  0  0  0
    1.7221   -4.4728   -3.3263 H   0  0  0  0  0  0  0  0  0  0  0  0
    3.5122   -1.2241   -3.0698 H   0  0  0  0  0  0  0  0  0  0  0  0
    4.8311    0.8412   -0.7446 H   0  0  0  0  0  0  0  0  0  0  0  0
    4.8577   -0.5077    0.4212 H   0  0  0  0  0  0  0  0  0  0  0  0
    6.9684   -1.3155    1.2994 H   0  0  0  0  0  0  0  0  0  0  0  0
    9.1883   -0.6809    2.1233 H   0  0  0  0  0  0  0  0  0  0  0  0
   10.2584    1.3275    1.2398 H   0  0  0  0  0  0  0  0  0  0  0  0
    9.1337    2.6609   -0.4341 H   0  0  0  0  0  0  0  0  0  0  0  0
    6.9115    2.0812   -1.2944 H   0  0  0  0  0  0  0  0  0  0  0  0
   -2.7542   -0.3115    0.8561 H   0  0  0  0  0  0  0  0  0  0  0  0
   -1.9940    2.3692   -0.0672 H   0  0  0  0  0  0  0  0  0  0  0  0
   -2.7746    1.7795   -2.0547 H   0  0  0  0  0  0  0  0  0  0  0  0
   -4.0607    2.7338   -1.3413 H   0  0  0  0  0  0  0  0  0  0  0  0
   -4.1682   -0.3248   -1.7225 H   0  0  0  0  0  0  0  0  0  0  0  0
   -4.9394    0.9576   -2.6496 H   0  0  0  0  0  0  0  0  0  0  0  0
   -5.6808    0.4817    0.3102 H   0  0  0  0  0  0  0  0  0  0  0  0
   -6.4167    1.6091   -0.8562 H   0  0  0  0  0  0  0  0  0  0  0  0
   -6.4273   -0.9362   -2.0959 H   0  0  0  0  0  0  0  0  0  0  0  0
   -9.4088    0.6839    0.1229 H   0  0  0  0  0  0  0  0  0  0  0  0
   -9.3244    0.7762   -1.6665 H   0  0  0  0  0  0  0  0  0  0  0  0
   -7.5133   -2.5169   -0.1443 H   0  0  0  0  0  0  0  0  0  0  0  0
   -6.5673    4.8701    3.3258 H   0  0  0  0  0  0  0  0  0  0  0  0
   -6.1943    6.4689    1.3150 H   0  0  0  0  0  0  0  0  0  0  0  0
  1  2  1  0
  2  3  1  0
  2  4  1  0
  4  5  1  0
  5  6  1  0
  6  7  1  0
  7  8  2  0
  7  9  1  0
  9 10  1  0
 10 11  1  0
  9 12  1  0
 12 13  1  0
 13 14  2  0
 13 15  2  0
 13 16  1  0
 16 17  1  0
 17 18  2  0
 18 19  1  0
 19 20  2  0
 20 21  1  0
 21 22  2  0
  5 23  1  0
 23 24  2  0
 23 25  1  0
 25 26  1  0
 26 27  1  0
 27 28  1  0
 28 29  1  0
 29 30  1  0
 30 31  1  0
 31 32  1  0
 31 33  2  3
 26 34  1  0
 34 35  2  0
 34 36  1  0
 36 37  2  0
 37 38  1  0
 38 39  2  0
 39 40  1  0
 22 17  1  0
 40 36  1  0
  1 41  1  0
  1 42  1  0
  1 43  1  0
  2 44  1  0
  3 45  1  0
  3 46  1  0
  3 47  1  0
  4 48  1  0
  4 49  1  0
  5 50  1  6
  6 51  1  0
  9 52  1  1
 10 53  1  0
 10 54  1  0
 11 55  1  0
 12 56  1  0
 16 57  1  0
 16 58  1  0
 18 59  1  0
 19 60  1  0
 20 61  1  0
 21 62  1  0
 22 63  1  0
 25 64  1  0
 26 65  1  6
 27 66  1  0
 27 67  1  0
 28 68  1  0
 28 69  1  0
 29 70  1  0
 29 71  1  0
 30 72  1  0
 32 73  1  0
 32 74  1  0
 33 75  1  0
 38 76  1  0
 39 77  1  0
M  END
$$$$
[H]c1c(F)c([H])c2onc(C3([H])C([H])([H])C([H])([H])N(C([H])([H])C([H])([H])c4c(C([H])([H])[H])nc5n(c4=O)C([H])([H])C([H])([H])C([H])([H])C5([H])[H])C([H])([H])C3([H])[H])c2c1[H]
     RDKit          3D

 57 61  0  0  0  0  0  0  0  0999 V2000
   -2.3108   -2.5441   -2.2096 C   0  0  0  0  0  0  0  0  0  0  0  0
   -2.9692   -1.4740   -1.4423 C   0  0  0  0  0  0  0  0  0  0  0  0
   -4.2312   -1.6192   -0.9567 N   0  0  0  0  0  0  0  0  0  0  0  0
   -4.8501   -0.6300   -0.2705 C   0  0  0  0  0  0  0  0  0  0  0  0
   -6.2223   -0.7825    0.2839 C   0  0  0  0  0  0  0  0  0  0  0  0
   -7.0517    0.3763   -0.2012 C   0  0  0  0  0  0  0  0  0  0  0  0
   -6.3320    1.6839   -0.0395 C   0  0  0  0  0  0  0  0  0  0  0  0
   -4.9977    1.5425    0.6930 C   0  0  0  0  0  0  0  0  0  0  0  0
   -4.2461    0.5467   -0.0371 N   0  0  0  0  0  0  0  0  0  0  0  0
   -3.0023    0.7281   -0.4999 C   0  0  0  0  0  0  0  0  0  0  0  0
   -2.4850    1.8457   -0.2578 O   0  0  0  0  0  0  0  0  0  0  0  0
   -2.3338   -0.2742   -1.2099 C   0  0  0  0  0  0  0  0  0  0  0  0
   -0.9475   -0.0633   -1.7144 C   0  0  0  0  0  0  0  0  0  0  0  0
    0.0925   -0.8210   -0.9405 C   0  0  0  0  0  0  0  0  0  0  0  0
    0.1727   -0.3997    0.4370 N   0  0  0  0  0  0  0  0  0  0  0  0
    0.8352   -1.4051    1.2541 C   0  0  0  0  0  0  0  0  0  0  0  0
    2.1324   -0.9300    1.8077 C   0  0  0  0  0  0  0  0  0  0  0  0
    3.0070   -0.3147    0.7128 C   0  0  0  0  0  0  0  0  0  0  0  0
    2.2910    0.9101    0.2347 C   0  0  0  0  0  0  0  0  0  0  0  0
    0.8551    0.8733    0.5719 C   0  0  0  0  0  0  0  0  0  0  0  0
    4.3344   -0.0733    1.2885 C   0  0  0  0  0  0  0  0  0  0  0  0
    4.6915   -0.2475    2.5915 N   0  0  0  0  0  0  0  0  0  0  0  0
    5.9470    0.0491    2.7550 O   0  0  0  0  0  0  0  0  0  0  0  0
    6.4715    0.4215    1.6163 C   0  0  0  0  0  0  0  0  0  0  0  0
    7.7544    0.8201    1.3178 C   0  0  0  0  0  0  0  0  0  0  0  0
    8.0301    1.1630    0.0055 C   0  0  0  0  0  0  0  0  0  0  0  0
    9.2676    1.5686   -0.3803 F   0  0  0  0  0  0  0  0  0  0  0  0
    7.0432    1.1041   -0.9681 C   0  0  0  0  0  0  0  0  0  0  0  0
    5.7506    0.6991   -0.6518 C   0  0  0  0  0  0  0  0  0  0  0  0
    5.4737    0.3578    0.6529 C   0  0  0  0  0  0  0  0  0  0  0  0
   -1.4894   -2.2298   -2.8520 H   0  0  0  0  0  0  0  0  0  0  0  0
   -3.0811   -2.9717   -2.9272 H   0  0  0  0  0  0  0  0  0  0  0  0
   -2.0497   -3.4215   -1.5750 H   0  0  0  0  0  0  0  0  0  0  0  0
   -6.0925   -0.6209    1.3944 H   0  0  0  0  0  0  0  0  0  0  0  0
   -6.6736   -1.7555    0.0944 H   0  0  0  0  0  0  0  0  0  0  0  0
   -7.2714    0.1656   -1.2764 H   0  0  0  0  0  0  0  0  0  0  0  0
   -8.0573    0.3936    0.3112 H   0  0  0  0  0  0  0  0  0  0  0  0
   -6.0672    2.0496   -1.0748 H   0  0  0  0  0  0  0  0  0  0  0  0
   -6.9888    2.4078    0.4881 H   0  0  0  0  0  0  0  0  0  0  0  0
   -5.1364    1.2246    1.7512 H   0  0  0  0  0  0  0  0  0  0  0  0
   -4.5285    2.5456    0.6294 H   0  0  0  0  0  0  0  0  0  0  0  0
   -0.8620   -0.3188   -2.7957 H   0  0  0  0  0  0  0  0  0  0  0  0
   -0.7549    1.0311   -1.6781 H   0  0  0  0  0  0  0  0  0  0  0  0
    1.1011   -0.7114   -1.4497 H   0  0  0  0  0  0  0  0  0  0  0  0
   -0.1281   -1.8973   -0.9290 H   0  0  0  0  0  0  0  0  0  0  0  0
    1.0086   -2.2855    0.6159 H   0  0  0  0  0  0  0  0  0  0  0  0
    0.1296   -1.6942    2.0507 H   0  0  0  0  0  0  0  0  0  0  0  0
    2.7230   -1.7158    2.3057 H   0  0  0  0  0  0  0  0  0  0  0  0
    1.9755   -0.1193    2.5521 H   0  0  0  0  0  0  0  0  0  0  0  0
    3.0735   -1.0230   -0.1419 H   0  0  0  0  0  0  0  0  0  0  0  0
    2.4296    1.0495   -0.8636 H   0  0  0  0  0  0  0  0  0  0  0  0
    2.7946    1.7850    0.7555 H   0  0  0  0  0  0  0  0  0  0  0  0
    0.3382    1.6067   -0.0895 H   0  0  0  0  0  0  0  0  0  0  0  0
    0.6850    1.2404    1.6064 H   0  0  0  0  0  0  0  0  0  0  0  0
    8.5178    0.8666    2.0648 H   0  0  0  0  0  0  0  0  0  0  0  0
    7.2689    1.3715   -1.9841 H   0  0  0  0  0  0  0  0  0  0  0  0
    4.9652    0.6544   -1.4261 H   0  0  0  0  0  0  0  0  0  0  0  0
  1  2  1  0
  2  3  1  0
  3  4  2  0
  4  5  1  0
  5  6  1  0
  6  7  1  0
  7  8  1  0
  8  9  1  0
  9 10  1  0
 10 11  2  0
 10 12  1  0
 12 13  1  0
 13 14  1  0
 14 15  1  0
 15 16  1  0
 16 17  1  0
 17 18  1  0
 18 19  1  0
 19 20  1  0
 18 21  1  0
 21 22  2  0
 22 23  1  0
 23 24  1  0
 24 25  2  0
 25 26  1  0
 26 27  1  0
 26 28  2  0
 28 29  1  0
 29 30  2  0
 12  2  2  0
 20 15  1  0
 30 21  1  0
  9  4  1  0
 30 24  1  0
  1 31  1  0
  1 32  1  0
  1 33  1  0
  5 34  1  0
  5 35  1  0
  6 36  1  0
  6 37  1  0
  7 38  1  0
  7 39  1  0
  8 40  1  0
  8 41  1  0
 13 42  1  0
 13 43  1  0
 14 44  1  0
 14 45  1  0
 16 46  1  0
 16 47  1  0
 17 48  1  0
 17 49  1  0
 18 50  1  0
 19 51  1  0
 19 52  1  0
 20 53  1  0
 20 54  1  0
 25 55  1  0
 28 56  1  0
 29 57  1  0
M  END
$$$$
[H]Oc1c([H])c([H])c(C([H])([H])[C@]([H])(N([H])C(=O)[C@@]([H])(N([H])C(=O)C([H])([H])[H])C([H])([H])C([H])(C([H])([H])[H])C([H])([H])[H])P(=O)(O[H])O[H])c([H])c1[H]
     RDKit          3D

 50 50  0  0  0  0  0  0  0  0999 V2000
   -3.3215    0.5182   -1.6579 C   0  0  0  0  0  0  0  0  0  0  0  0
   -4.0110   -0.2711   -0.6206 C   0  0  0  0  0  0  0  0  0  0  0  0
   -5.3970    0.4304   -0.4574 C   0  0  0  0  0  0  0  0  0  0  0  0
   -3.4403   -0.4702    0.7117 C   0  0  0  0  0  0  0  0  0  0  0  0
   -2.1876   -1.1194    1.0063 C   0  0  2  0  0  0  0  0  0  0  0  0
   -2.1549   -1.1565    2.5339 N   0  0  0  0  0  0  0  0  0  0  0  0
   -2.1521   -2.3533    3.2358 C   0  0  0  0  0  0  0  0  0  0  0  0
   -2.1204   -2.4123    4.7227 C   0  0  0  0  0  0  0  0  0  0  0  0
   -2.1776   -3.4490    2.5766 O   0  0  0  0  0  0  0  0  0  0  0  0
   -0.8619   -0.6585    0.7027 C   0  0  0  0  0  0  0  0  0  0  0  0
    0.0513   -1.2937    1.4674 O   0  0  0  0  0  0  0  0  0  0  0  0
   -0.2484    0.2400   -0.1346 N   0  0  0  0  0  0  0  0  0  0  0  0
    1.2301    0.4294   -0.1580 C   0  0  1  0  0  0  0  0  0  0  0  0
    1.6367    0.0454   -1.5506 C   0  0  0  0  0  0  0  0  0  0  0  0
    3.0744    0.1322   -1.8092 C   0  0  0  0  0  0  0  0  0  0  0  0
    3.8461   -0.9789   -1.4582 C   0  0  0  0  0  0  0  0  0  0  0  0
    5.1963   -1.0194   -1.6743 C   0  0  0  0  0  0  0  0  0  0  0  0
    5.8525    0.0291   -2.2452 C   0  0  0  0  0  0  0  0  0  0  0  0
    7.2295    0.0289   -2.4832 O   0  0  0  0  0  0  0  0  0  0  0  0
    5.1272    1.1481   -2.6079 C   0  0  0  0  0  0  0  0  0  0  0  0
    3.7464    1.1791   -2.3825 C   0  0  0  0  0  0  0  0  0  0  0  0
    1.6241    2.1583    0.1332 P   0  0  0  0  0  0  0  0  0  0  0  0
    0.8594    2.7414    1.5364 O   0  0  0  0  0  0  0  0  0  0  0  0
    3.2819    2.2995    0.4182 O   0  0  0  0  0  0  0  0  0  0  0  0
    1.1521    3.0286   -0.9978 O   0  0  0  0  0  0  0  0  0  0  0  0
   -4.0801    0.7624   -2.4546 H   0  0  0  0  0  0  0  0  0  0  0  0
   -2.9716    1.5141   -1.2990 H   0  0  0  0  0  0  0  0  0  0  0  0
   -2.5139   -0.0185   -2.1943 H   0  0  0  0  0  0  0  0  0  0  0  0
   -4.3256   -1.2604   -1.0960 H   0  0  0  0  0  0  0  0  0  0  0  0
   -5.1530    1.5106   -0.3373 H   0  0  0  0  0  0  0  0  0  0  0  0
   -5.9303    0.0222    0.3985 H   0  0  0  0  0  0  0  0  0  0  0  0
   -5.9291    0.3268   -1.4154 H   0  0  0  0  0  0  0  0  0  0  0  0
   -4.2413   -1.0350    1.3362 H   0  0  0  0  0  0  0  0  0  0  0  0
   -3.4470    0.5239    1.3024 H   0  0  0  0  0  0  0  0  0  0  0  0
   -2.2562   -2.2213    0.7491 H   0  0  0  0  0  0  0  0  0  0  0  0
   -2.1370   -0.2179    2.9571 H   0  0  0  0  0  0  0  0  0  0  0  0
   -1.1642   -1.9657    5.0761 H   0  0  0  0  0  0  0  0  0  0  0  0
   -2.1526   -3.4465    5.0700 H   0  0  0  0  0  0  0  0  0  0  0  0
   -2.9322   -1.7665    5.1488 H   0  0  0  0  0  0  0  0  0  0  0  0
   -0.7186    0.8615   -0.7910 H   0  0  0  0  0  0  0  0  0  0  0  0
    1.7265   -0.2528    0.5538 H   0  0  0  0  0  0  0  0  0  0  0  0
    1.3046   -0.9867   -1.8172 H   0  0  0  0  0  0  0  0  0  0  0  0
    1.1337    0.6989   -2.3146 H   0  0  0  0  0  0  0  0  0  0  0  0
    3.3687   -1.8357   -1.0021 H   0  0  0  0  0  0  0  0  0  0  0  0
    5.7910   -1.8854   -1.3993 H   0  0  0  0  0  0  0  0  0  0  0  0
    7.7726   -0.7980   -2.2164 H   0  0  0  0  0  0  0  0  0  0  0  0
    5.6390    1.9726   -3.0558 H   0  0  0  0  0  0  0  0  0  0  0  0
    3.2175    2.0633   -2.6850 H   0  0  0  0  0  0  0  0  0  0  0  0
    0.6987    3.7305    1.4364 H   0  0  0  0  0  0  0  0  0  0  0  0
    3.4653    1.7696    1.2421 H   0  0  0  0  0  0  0  0  0  0  0  0
  1  2  1  0
  2  3  1  0
  2  4  1  0
  4  5  1  0
  5  6  1  0
  6  7  1  0
  7  8  1  0
  7  9  2  0
  5 10  1  0
 10 11  2  0
 10 12  1  0
 12 13  1  0
 13 14  1  0
 14 15  1  0
 15 16  2  0
 16 17  1  0
 17 18  2  0
 18 19  1  0
 18 20  1  0
 20 21  2  0
 13 22  1  0
 22 23  1  0
 22 24  1  0
 22 25  2  0
 21 15  1  0
  1 26  1  0
  1 27  1  0
  1 28  1  0
  2 29  1  0
  3 30  1  0
  3 31  1  0
  3 32  1  0
  4 33  1  0
  4 34  1  0
  5 35  1  6
  6 36  1  0
  8 37  1  0
  8 38  1  0
  8 39  1  0
 12 40  1  0
 13 41  1  1
 14 42  1  0
 14 43  1  0
 16 44  1  0
 17 45  1  0
 19 46  1  0
 20 47  1  0
 21 48  1  0
 23 49  1  0
 24 50  1  0
M  END
$$$$
[H]ON([H])C(=O)[C@@]([H])(N([H])[H])[C@]([H])(C(=O)N([H])[C@]([H])(C(=O)N([H])C([H])([H])[H])C(C([H])([H])[H])(C([H])([H])[H])C([H])([H])[H])C([H])([H])C([H])(C([H])([H])[H])C([H])([H])[H]
     RDKit          3D

 53 52  0  0  0  0  0  0  0  0999 V2000
    3.5502   -2.8918   -2.4708 C   0  0  0  0  0  0  0  0  0  0  0  0
    2.7277   -2.5159   -1.4291 N   0  0  0  0  0  0  0  0  0  0  0  0
    1.9160   -2.1450   -0.4011 C   0  0  0  0  0  0  0  0  0  0  0  0
    1.1979   -2.9025    0.2810 O   0  0  0  0  0  0  0  0  0  0  0  0
    1.7976   -0.6869    0.0382 C   0  0  1  0  0  0  0  0  0  0  0  0
    0.4564   -0.4015    0.4555 N   0  0  0  0  0  0  0  0  0  0  0  0
   -0.2642    0.6332   -0.1479 C   0  0  0  0  0  0  0  0  0  0  0  0
    0.3748    1.2634   -1.0854 O   0  0  0  0  0  0  0  0  0  0  0  0
   -1.6034    1.1326    0.0889 C   0  0  2  0  0  0  0  0  0  0  0  0
   -2.6870    0.5242   -0.6683 C   0  0  0  0  0  0  0  0  0  0  0  0
   -3.0290   -0.9140   -0.5706 C   0  0  0  0  0  0  0  0  0  0  0  0
   -2.0092   -1.9218   -0.9746 C   0  0  0  0  0  0  0  0  0  0  0  0
   -4.2849   -1.1935   -1.4406 C   0  0  0  0  0  0  0  0  0  0  0  0
   -1.5156    2.6623   -0.1176 C   0  0  2  0  0  0  0  0  0  0  0  0
   -0.5698    3.1462    0.8771 N   0  0  0  0  0  0  0  0  0  0  0  0
   -2.7864    3.3563   -0.0642 C   0  0  0  0  0  0  0  0  0  0  0  0
   -3.6260    3.3481   -1.0340 O   0  0  0  0  0  0  0  0  0  0  0  0
   -3.1719    4.0872    1.0783 N   0  0  0  0  0  0  0  0  0  0  0  0
   -4.3409    4.7487    1.1738 O   0  0  0  0  0  0  0  0  0  0  0  0
    2.8145   -0.4618    1.1582 C   0  0  0  0  0  0  0  0  0  0  0  0
    2.7545    0.9552    1.6676 C   0  0  0  0  0  0  0  0  0  0  0  0
    4.2319   -0.6265    0.5910 C   0  0  0  0  0  0  0  0  0  0  0  0
    2.6712   -1.4419    2.2831 C   0  0  0  0  0  0  0  0  0  0  0  0
    4.2525   -3.7242   -2.1854 H   0  0  0  0  0  0  0  0  0  0  0  0
    3.0175   -3.2462   -3.4080 H   0  0  0  0  0  0  0  0  0  0  0  0
    4.2165   -2.0109   -2.7797 H   0  0  0  0  0  0  0  0  0  0  0  0
    2.2960   -3.8190   -1.3462 H   0  0  0  0  0  0  0  0  0  0  0  0
    2.0663   -0.0469   -0.8378 H   0  0  0  0  0  0  0  0  0  0  0  0
    0.0213   -0.9613    1.2062 H   0  0  0  0  0  0  0  0  0  0  0  0
   -1.8707    1.0447    1.2096 H   0  0  0  0  0  0  0  0  0  0  0  0
   -3.6930    1.0530   -0.4890 H   0  0  0  0  0  0  0  0  0  0  0  0
   -2.5855    0.7213   -1.8008 H   0  0  0  0  0  0  0  0  0  0  0  0
   -3.3571   -1.1993    0.4746 H   0  0  0  0  0  0  0  0  0  0  0  0
   -1.5731   -2.4648   -0.0971 H   0  0  0  0  0  0  0  0  0  0  0  0
   -2.5447   -2.7619   -1.5302 H   0  0  0  0  0  0  0  0  0  0  0  0
   -1.2663   -1.5735   -1.6977 H   0  0  0  0  0  0  0  0  0  0  0  0
   -4.5682   -2.2566   -1.3541 H   0  0  0  0  0  0  0  0  0  0  0  0
   -3.9812   -1.0018   -2.4932 H   0  0  0  0  0  0  0  0  0  0  0  0
   -5.1293   -0.5756   -1.1419 H   0  0  0  0  0  0  0  0  0  0  0  0
   -1.0440    2.8767   -1.1020 H   0  0  0  0  0  0  0  0  0  0  0  0
   -0.6987    4.1608    1.0784 H   0  0  0  0  0  0  0  0  0  0  0  0
   -0.5540    2.5267    1.6928 H   0  0  0  0  0  0  0  0  0  0  0  0
   -2.5426    4.1265    1.8954 H   0  0  0  0  0  0  0  0  0  0  0  0
   -5.0437    4.3674    0.6059 H   0  0  0  0  0  0  0  0  0  0  0  0
    3.4974    1.5995    1.1484 H   0  0  0  0  0  0  0  0  0  0  0  0
    1.7402    1.3699    1.5827 H   0  0  0  0  0  0  0  0  0  0  0  0
    3.0302    0.9597    2.7510 H   0  0  0  0  0  0  0  0  0  0  0  0
    4.9165   -0.1894    1.3597 H   0  0  0  0  0  0  0  0  0  0  0  0
    4.2927   -0.0501   -0.3632 H   0  0  0  0  0  0  0  0  0  0  0  0
    4.4776   -1.6982    0.4777 H   0  0  0  0  0  0  0  0  0  0  0  0
    2.8861   -2.4792    1.9974 H   0  0  0  0  0  0  0  0  0  0  0  0
    1.6942   -1.3540    2.8044 H   0  0  0  0  0  0  0  0  0  0  0  0
    3.4423   -1.1475    3.0536 H   0  0  0  0  0  0  0  0  0  0  0  0
  1  2  1  0
  2  3  1  0
  3  4  2  0
  3  5  1  0
  5  6  1  0
  6  7  1  0
  7  8  2  0
  7  9  1  0
  9 10  1  0
 10 11  1  0
 11 12  1  0
 11 13  1  0
  9 14  1  0
 14 15  1  0
 14 16  1  0
 16 17  2  0
 16 18  1  0
 18 19  1  0
  5 20  1  0
 20 21  1  0
 20 22  1  0
 20 23  1  0
  1 24  1  0
  1 25  1  0
  1 26  1  0
  2 27  1  0
  5 28  1  6
  6 29  1  0
  9 30  1  1
 10 31  1  0
 10 32  1  0
 11 33  1  0
 12 34  1  0
 12 35  1  0
 12 36  1  0
 13 37  1  0
 13 38  1  0
 13 39  1  0
 14 40  1  6
 15 41  1  0
 15 42  1  0
 18 43  1  0
 19 44  1  0
 21 45  1  0
 21 46  1  0
 21 47  1  0
 22 48  1  0
 22 49  1  0
 22 50  1  0
 23 51  1  0
 23 52  1  0
 23 53  1  0
M  END
$$$$
[H]OC([H])([H])[C@@]1([H])OC([H])([H])[C@@]([H])(O[H])[C@]([H])(O[H])[C@]1([H])O[H]
     RDKit          3D

 23 23  0  0  0  0  0  0  0  0999 V2000
    3.0214   -1.0371    0.7940 O   0  0  0  0  0  0  0  0  0  0  0  0
    2.0764   -0.0249    0.9715 C   0  0  0  0  0  0  0  0  0  0  0  0
    1.0765   -0.1009   -0.1605 C   0  0  1  0  0  0  0  0  0  0  0  0
    0.4111   -1.2962   -0.2202 O   0  0  0  0  0  0  0  0  0  0  0  0
   -0.8016   -1.3158    0.4335 C   0  0  0  0  0  0  0  0  0  0  0  0
   -1.8177   -0.3674   -0.1377 C   0  0  1  0  0  0  0  0  0  0  0  0
   -2.3102    0.4392    0.9139 O   0  0  0  0  0  0  0  0  0  0  0  0
   -1.0584    0.6026   -1.0451 C   0  0  2  0  0  0  0  0  0  0  0  0
   -0.5655   -0.1555   -2.1159 O   0  0  0  0  0  0  0  0  0  0  0  0
    0.1250    1.0519   -0.1740 C   0  0  2  0  0  0  0  0  0  0  0  0
    0.6753    2.2220   -0.6585 O   0  0  0  0  0  0  0  0  0  0  0  0
    3.6789   -0.8186    0.0826 H   0  0  0  0  0  0  0  0  0  0  0  0
    1.5769   -0.2075    1.9370 H   0  0  0  0  0  0  0  0  0  0  0  0
    2.5501    0.9620    0.9692 H   0  0  0  0  0  0  0  0  0  0  0  0
    1.6890   -0.0224   -1.1074 H   0  0  0  0  0  0  0  0  0  0  0  0
   -1.2210   -2.3498    0.2952 H   0  0  0  0  0  0  0  0  0  0  0  0
   -0.6956   -1.2005    1.5443 H   0  0  0  0  0  0  0  0  0  0  0  0
   -2.6468   -0.8478   -0.6602 H   0  0  0  0  0  0  0  0  0  0  0  0
   -2.7660   -0.0793    1.5973 H   0  0  0  0  0  0  0  0  0  0  0  0
   -1.6681    1.4487   -1.3613 H   0  0  0  0  0  0  0  0  0  0  0  0
   -1.0510   -1.0367   -2.1895 H   0  0  0  0  0  0  0  0  0  0  0  0
   -0.2467    1.2116    0.8727 H   0  0  0  0  0  0  0  0  0  0  0  0
   -0.0322    2.9224   -0.5810 H   0  0  0  0  0  0  0  0  0  0  0  0
  1  2  1  0
  2  3  1  0
  3  4  1  0
  4  5  1  0
  5  6  1  0
  6  7  1  0
  6  8  1  0
  8  9  1  0
  8 10  1  0
 10 11  1  0
 10  3  1  0
  1 12  1  0
  2 13  1  0
  2 14  1  0
  3 15  1  6
  5 16  1  0
  5 17  1  0
  6 18  1  6
  7 19  1  0
  8 20  1  6
  9 21  1  0
 10 22  1  1
 11 23  1  0
M  END
$$$$
[H]c1nn2c(N([H])C3([H])C([H])([H])C3([H])[H])c([H])c(N([H])c3c([H])c([H])c(N4C([H])([H])C([H])([H])N(C(=O)C([H])([H])[H])C([H])([H])C4([H])[H])c(N([H])C(=O)C([H])([H])[H])c3[H])nc2c1C#N
     RDKit          3D

 62 66  0  0  0  0  0  0  0  0999 V2000
   -7.7484   -1.5860    1.4169 C   0  0  0  0  0  0  0  0  0  0  0  0
   -7.2591   -1.2919    0.0659 C   0  0  0  0  0  0  0  0  0  0  0  0
   -7.8091   -1.8260   -0.9521 O   0  0  0  0  0  0  0  0  0  0  0  0
   -6.1786   -0.4197   -0.1407 N   0  0  0  0  0  0  0  0  0  0  0  0
   -5.5258    0.2079    0.9845 C   0  0  0  0  0  0  0  0  0  0  0  0
   -4.0763   -0.1442    0.9595 C   0  0  0  0  0  0  0  0  0  0  0  0
   -3.4653   -0.1274   -0.3424 N   0  0  0  0  0  0  0  0  0  0  0  0
   -4.1855   -0.3244   -1.5627 C   0  0  0  0  0  0  0  0  0  0  0  0
   -5.6528   -0.0932   -1.4546 C   0  0  0  0  0  0  0  0  0  0  0  0
   -2.0496    0.0961   -0.4096 C   0  0  0  0  0  0  0  0  0  0  0  0
   -1.2145   -0.9544   -0.7224 C   0  0  0  0  0  0  0  0  0  0  0  0
    0.1692   -0.8405   -0.7758 C   0  0  0  0  0  0  0  0  0  0  0  0
    0.7707    0.3594   -0.5099 C   0  0  0  0  0  0  0  0  0  0  0  0
    2.1802    0.5896   -0.5084 N   0  0  0  0  0  0  0  0  0  0  0  0
    3.1780   -0.3742   -0.3905 C   0  0  0  0  0  0  0  0  0  0  0  0
    4.5164    0.0466   -0.4499 C   0  0  0  0  0  0  0  0  0  0  0  0
    5.5404   -0.8616   -0.3207 C   0  0  0  0  0  0  0  0  0  0  0  0
    6.8969   -0.4218   -0.3835 N   0  0  0  0  0  0  0  0  0  0  0  0
    7.2653    0.9456   -0.5804 C   0  0  0  0  0  0  0  0  0  0  0  0
    8.7365    1.2398   -0.6167 C   0  0  0  0  0  0  0  0  0  0  0  0
    7.8845    1.7523    0.5011 C   0  0  0  0  0  0  0  0  0  0  0  0
    5.2624   -2.1585   -0.1366 N   0  0  0  0  0  0  0  0  0  0  0  0
    6.0721   -3.1941    0.0105 N   0  0  0  0  0  0  0  0  0  0  0  0
    5.3604   -4.3147    0.1694 C   0  0  0  0  0  0  0  0  0  0  0  0
    4.0357   -3.9663    0.1196 C   0  0  0  0  0  0  0  0  0  0  0  0
    2.9307   -4.8612    0.2463 C   0  0  0  0  0  0  0  0  0  0  0  0
    2.0244   -5.5691    0.3466 N   0  0  0  0  0  0  0  0  0  0  0  0
    3.9751   -2.6017   -0.0741 C   0  0  0  0  0  0  0  0  0  0  0  0
    3.0173   -1.6924   -0.2034 N   0  0  0  0  0  0  0  0  0  0  0  0
   -0.0880    1.4302   -0.1919 C   0  0  0  0  0  0  0  0  0  0  0  0
   -1.4582    1.3219   -0.1388 C   0  0  0  0  0  0  0  0  0  0  0  0
   -2.2985    2.4265    0.1418 N   0  0  0  0  0  0  0  0  0  0  0  0
   -1.9461    3.7227    0.5348 C   0  0  0  0  0  0  0  0  0  0  0  0
   -3.0515    4.7166    0.7677 C   0  0  0  0  0  0  0  0  0  0  0  0
   -0.7944    4.1075    0.7035 O   0  0  0  0  0  0  0  0  0  0  0  0
   -8.4722   -2.4516    1.3599 H   0  0  0  0  0  0  0  0  0  0  0  0
   -8.2592   -0.7131    1.8829 H   0  0  0  0  0  0  0  0  0  0  0  0
   -6.9537   -1.9002    2.1269 H   0  0  0  0  0  0  0  0  0  0  0  0
   -5.6252    1.3167    0.8842 H   0  0  0  0  0  0  0  0  0  0  0  0
   -5.9363   -0.1397    1.9656 H   0  0  0  0  0  0  0  0  0  0  0  0
   -3.9478   -1.1928    1.3847 H   0  0  0  0  0  0  0  0  0  0  0  0
   -3.5158    0.5304    1.6670 H   0  0  0  0  0  0  0  0  0  0  0  0
   -3.8043    0.3629   -2.3725 H   0  0  0  0  0  0  0  0  0  0  0  0
   -4.0341   -1.3919   -1.8782 H   0  0  0  0  0  0  0  0  0  0  0  0
   -5.9037    0.9743   -1.6329 H   0  0  0  0  0  0  0  0  0  0  0  0
   -6.1784   -0.7634   -2.1752 H   0  0  0  0  0  0  0  0  0  0  0  0
   -1.6823   -1.9110   -0.9344 H   0  0  0  0  0  0  0  0  0  0  0  0
    0.7652   -1.7028   -1.0428 H   0  0  0  0  0  0  0  0  0  0  0  0
    2.5025    1.6109   -0.6134 H   0  0  0  0  0  0  0  0  0  0  0  0
    4.7478    1.0861   -0.5972 H   0  0  0  0  0  0  0  0  0  0  0  0
    7.6383   -1.1427   -0.2794 H   0  0  0  0  0  0  0  0  0  0  0  0
    6.6096    1.4775   -1.3174 H   0  0  0  0  0  0  0  0  0  0  0  0
    9.4404    0.4195   -0.3199 H   0  0  0  0  0  0  0  0  0  0  0  0
    9.0545    1.9415   -1.4021 H   0  0  0  0  0  0  0  0  0  0  0  0
    7.7069    2.8447    0.4931 H   0  0  0  0  0  0  0  0  0  0  0  0
    7.9480    1.2432    1.4960 H   0  0  0  0  0  0  0  0  0  0  0  0
    5.8155   -5.2963    0.3088 H   0  0  0  0  0  0  0  0  0  0  0  0
    0.4330    2.3487    0.0050 H   0  0  0  0  0  0  0  0  0  0  0  0
   -3.3593    2.2143    0.0100 H   0  0  0  0  0  0  0  0  0  0  0  0
   -3.8407    4.2271    1.3921 H   0  0  0  0  0  0  0  0  0  0  0  0
   -3.4665    5.0889   -0.1881 H   0  0  0  0  0  0  0  0  0  0  0  0
   -2.6968    5.5792    1.3422 H   0  0  0  0  0  0  0  0  0  0  0  0
  1  2  1  0
  2  3  2  0
  2  4  1  0
  4  5  1  0
  5  6  1  0
  6  7  1  0
  7  8  1  0
  8  9  1  0
  7 10  1  0
 10 11  2  0
 11 12  1  0
 12 13  2  0
 13 14  1  0
 14 15  1  0
 15 16  1  0
 16 17  2  0
 17 18  1  0
 18 19  1  0
 19 20  1  0
 20 21  1  0
 17 22  1  0
 22 23  1  0
 23 24  2  0
 24 25  1  0
 25 26  1  0
 26 27  3  0
 25 28  2  0
 28 29  1  0
 13 30  1  0
 30 31  2  0
 31 32  1  0
 32 33  1  0
 33 34  1  0
 33 35  2  0
  9  4  1  0
 31 10  1  0
 29 15  2  0
 21 19  1  0
 28 22  1  0
  1 36  1  0
  1 37  1  0
  1 38  1  0
  5 39  1  0
  5 40  1  0
  6 41  1  0
  6 42  1  0
  8 43  1  0
  8 44  1  0
  9 45  1  0
  9 46  1  0
 11 47  1  0
 12 48  1  0
 14 49  1  0
 16 50  1  0
 18 51  1  0
 19 52  1  0
 20 53  1  0
 20 54  1  0
 21 55  1  0
 21 56  1  0
 24 57  1  0
 30 58  1  0
 32 59  1  0
 34 60  1  0
 34 61  1  0
 34 62  1  0
M  END
$$$$
[H]c1c([H])c(Cl)c(-c2c([H])c3c([H])nc(N([H])c4c([H])c([H])c(N5C([H])([H])C([H])([H])N(C([H])([H])[H])C([H])([H])C5([H])[H])c(C([H])([H])[H])c4[H])nc3n(C([H])([H])[H])c2=O)c(Cl)c1[H]
     RDKit          3D

 61 65  0  0  0  0  0  0  0  0999 V2000
   -8.0296    1.9170    1.0234 C   0  0  0  0  0  0  0  0  0  0  0  0
   -7.4907    0.6261    0.6568 N   0  0  0  0  0  0  0  0  0  0  0  0
   -7.0303    0.5799   -0.7055 C   0  0  0  0  0  0  0  0  0  0  0  0
   -5.5212    0.6443   -0.8074 C   0  0  0  0  0  0  0  0  0  0  0  0
   -4.9023   -0.4315   -0.0642 N   0  0  0  0  0  0  0  0  0  0  0  0
   -5.6468   -0.9388    1.0846 C   0  0  0  0  0  0  0  0  0  0  0  0
   -6.5232    0.1407    1.6046 C   0  0  0  0  0  0  0  0  0  0  0  0
   -3.6353   -0.9780   -0.4241 C   0  0  0  0  0  0  0  0  0  0  0  0
   -3.4949   -2.2812   -0.8397 C   0  0  0  0  0  0  0  0  0  0  0  0
   -2.2590   -2.7709   -1.1840 C   0  0  0  0  0  0  0  0  0  0  0  0
   -1.0907   -2.0022   -1.1377 C   0  0  0  0  0  0  0  0  0  0  0  0
    0.1160   -2.5983   -1.5274 N   0  0  0  0  0  0  0  0  0  0  0  0
    1.4321   -2.1776   -1.3058 C   0  0  0  0  0  0  0  0  0  0  0  0
    2.4777   -2.8971   -1.7776 N   0  0  0  0  0  0  0  0  0  0  0  0
    3.7521   -2.5229   -1.5661 C   0  0  0  0  0  0  0  0  0  0  0  0
    4.0455   -1.3813   -0.8540 C   0  0  0  0  0  0  0  0  0  0  0  0
    5.3086   -0.9321   -0.5943 C   0  0  0  0  0  0  0  0  0  0  0  0
    5.5663    0.2231    0.1280 C   0  0  0  0  0  0  0  0  0  0  0  0
    6.9391    0.6509    0.3740 C   0  0  0  0  0  0  0  0  0  0  0  0
    7.6707    0.2613    1.4726 C   0  0  0  0  0  0  0  0  0  0  0  0
    6.8950   -0.8035    2.6226 Cl  0  0  0  0  0  0  0  0  0  0  0  0
    8.9708    0.6780    1.6866 C   0  0  0  0  0  0  0  0  0  0  0  0
    9.5710    1.5168    0.7723 C   0  0  0  0  0  0  0  0  0  0  0  0
    8.8543    1.9282   -0.3504 C   0  0  0  0  0  0  0  0  0  0  0  0
    7.5600    1.4902   -0.5273 C   0  0  0  0  0  0  0  0  0  0  0  0
    6.6409    2.0022   -1.9434 Cl  0  0  0  0  0  0  0  0  0  0  0  0
    4.4644    0.9279    0.5915 C   0  0  0  0  0  0  0  0  0  0  0  0
    4.6487    1.9858    1.2536 O   0  0  0  0  0  0  0  0  0  0  0  0
    3.2110    0.4940    0.3413 N   0  0  0  0  0  0  0  0  0  0  0  0
    2.0583    1.2276    0.8233 C   0  0  0  0  0  0  0  0  0  0  0  0
    2.9785   -0.6365   -0.3659 C   0  0  0  0  0  0  0  0  0  0  0  0
    1.7456   -1.0857   -0.6253 N   0  0  0  0  0  0  0  0  0  0  0  0
   -1.2468   -0.7127   -0.7242 C   0  0  0  0  0  0  0  0  0  0  0  0
   -2.5065   -0.2053   -0.3704 C   0  0  0  0  0  0  0  0  0  0  0  0
   -2.5557    1.2098    0.0740 C   0  0  0  0  0  0  0  0  0  0  0  0
   -7.9301    2.0247    2.1137 H   0  0  0  0  0  0  0  0  0  0  0  0
   -7.4708    2.7212    0.5186 H   0  0  0  0  0  0  0  0  0  0  0  0
   -9.1001    2.0221    0.7022 H   0  0  0  0  0  0  0  0  0  0  0  0
   -7.4482   -0.3090   -1.2021 H   0  0  0  0  0  0  0  0  0  0  0  0
   -7.4310    1.4721   -1.2268 H   0  0  0  0  0  0  0  0  0  0  0  0
   -5.2887    0.4281   -1.8923 H   0  0  0  0  0  0  0  0  0  0  0  0
   -5.1260    1.6369   -0.6096 H   0  0  0  0  0  0  0  0  0  0  0  0
   -4.9488   -1.2530    1.8833 H   0  0  0  0  0  0  0  0  0  0  0  0
   -6.2484   -1.8104    0.6958 H   0  0  0  0  0  0  0  0  0  0  0  0
   -7.0459   -0.1868    2.5258 H   0  0  0  0  0  0  0  0  0  0  0  0
   -5.8486    1.0114    1.8571 H   0  0  0  0  0  0  0  0  0  0  0  0
   -4.3863   -2.8903   -0.8817 H   0  0  0  0  0  0  0  0  0  0  0  0
   -2.1647   -3.8043   -1.5093 H   0  0  0  0  0  0  0  0  0  0  0  0
    0.0422   -3.5251   -2.0935 H   0  0  0  0  0  0  0  0  0  0  0  0
    4.5838   -3.0946   -1.9406 H   0  0  0  0  0  0  0  0  0  0  0  0
    6.1534   -1.4923   -0.9621 H   0  0  0  0  0  0  0  0  0  0  0  0
    9.5555    0.3790    2.5456 H   0  0  0  0  0  0  0  0  0  0  0  0
   10.5847    1.8790    0.8808 H   0  0  0  0  0  0  0  0  0  0  0  0
    9.3461    2.5830   -1.0487 H   0  0  0  0  0  0  0  0  0  0  0  0
    1.4360    0.6091    1.5266 H   0  0  0  0  0  0  0  0  0  0  0  0
    1.4285    1.5913   -0.0186 H   0  0  0  0  0  0  0  0  0  0  0  0
    2.3494    2.1276    1.4012 H   0  0  0  0  0  0  0  0  0  0  0  0
   -0.4202   -0.0313   -0.6622 H   0  0  0  0  0  0  0  0  0  0  0  0
   -2.7617    1.8543   -0.8021 H   0  0  0  0  0  0  0  0  0  0  0  0
   -1.5560    1.5044    0.5166 H   0  0  0  0  0  0  0  0  0  0  0  0
   -3.2773    1.4047    0.8681 H   0  0  0  0  0  0  0  0  0  0  0  0
  1  2  1  0
  2  3  1  0
  3  4  1  0
  4  5  1  0
  5  6  1  0
  6  7  1  0
  5  8  1  0
  8  9  2  0
  9 10  1  0
 10 11  2  0
 11 12  1  0
 12 13  1  0
 13 14  2  0
 14 15  1  0
 15 16  2  0
 16 17  1  0
 17 18  2  0
 18 19  1  0
 19 20  2  0
 20 21  1  0
 20 22  1  0
 22 23  2  0
 23 24  1  0
 24 25  2  0
 25 26  1  0
 18 27  1  0
 27 28  2  0
 27 29  1  0
 29 30  1  0
 29 31  1  0
 31 32  2  0
 11 33  1  0
 33 34  2  0
 34 35  1  0
  7  2  1  0
 34  8  1  0
 32 13  1  0
 31 16  1  0
 25 19  1  0
  1 36  1  0
  1 37  1  0
  1 38  1  0
  3 39  1  0
  3 40  1  0
  4 41  1  0
  4 42  1  0
  6 43  1  0
  6 44  1  0
  7 45  1  0
  7 46  1  0
  9 47  1  0
 10 48  1  0
 12 49  1  0
 15 50  1  0
 17 51  1  0
 22 52  1  0
 23 53  1  0
 24 54  1  0
 30 55  1  0
 30 56  1  0
 30 57  1  0
 33 58  1  0
 35 59  1  0
 35 60  1  0
 35 61  1  0
M  END
$$$$
[H]O[C@]1([H])C([H])([H])C([H])([H])[C@]([H])(c2nc(-c3c([H])c([H])c(C(=O)N([H])c4nc([H])c([H])c(C(F)(F)F)c4[H])c([H])c3[H])c3c(N([H])[H])nc([H])c([H])n32)C([H])([H])C1([H])[H]
     RDKit          3D

 59 63  0  0  0  0  0  0  0  0999 V2000
    0.1507    0.9912    2.5755 N   0  0  0  0  0  0  0  0  0  0  0  0
   -1.2378    1.0936    2.2902 C   0  0  0  0  0  0  0  0  0  0  0  0
   -2.0248    1.8387    3.1168 N   0  0  0  0  0  0  0  0  0  0  0  0
   -3.3246    1.9670    2.8824 C   0  0  0  0  0  0  0  0  0  0  0  0
   -3.9026    1.3590    1.8050 C   0  0  0  0  0  0  0  0  0  0  0  0
   -3.1618    0.6156    0.9597 N   0  0  0  0  0  0  0  0  0  0  0  0
   -3.4333   -0.0562   -0.1647 C   0  0  0  0  0  0  0  0  0  0  0  0
   -2.2717   -0.6022   -0.6158 N   0  0  0  0  0  0  0  0  0  0  0  0
   -1.2396   -0.2895    0.2081 C   0  0  0  0  0  0  0  0  0  0  0  0
    0.1718   -0.5899   -0.0094 C   0  0  0  0  0  0  0  0  0  0  0  0
    0.9468   -1.3304    0.8145 C   0  0  0  0  0  0  0  0  0  0  0  0
    2.3285   -1.4118    0.5952 C   0  0  0  0  0  0  0  0  0  0  0  0
    2.9163   -0.7597   -0.4369 C   0  0  0  0  0  0  0  0  0  0  0  0
    2.1193   -0.0002   -1.2977 C   0  0  0  0  0  0  0  0  0  0  0  0
    0.7716    0.0759   -1.0779 C   0  0  0  0  0  0  0  0  0  0  0  0
    4.3796   -0.6810   -0.6638 C   0  0  0  0  0  0  0  0  0  0  0  0
    4.7671   -0.2221   -1.7983 O   0  0  0  0  0  0  0  0  0  0  0  0
    5.2768   -1.0717    0.3139 N   0  0  0  0  0  0  0  0  0  0  0  0
    6.7005   -0.8041    0.2748 C   0  0  0  0  0  0  0  0  0  0  0  0
    7.2880    0.0707   -0.6030 C   0  0  0  0  0  0  0  0  0  0  0  0
    8.6771    0.2972   -0.6261 C   0  0  0  0  0  0  0  0  0  0  0  0
    9.4870   -0.3701    0.2510 C   0  0  0  0  0  0  0  0  0  0  0  0
    8.8719   -1.2521    1.1302 C   0  0  0  0  0  0  0  0  0  0  0  0
    7.5494   -1.4492    1.1295 N   0  0  0  0  0  0  0  0  0  0  0  0
    9.1905    1.2884   -1.6133 C   0  0  0  0  0  0  0  0  0  0  0  0
   10.4787    1.6309   -1.3199 F   0  0  0  0  0  0  0  0  0  0  0  0
    8.3229    2.3945   -1.5367 F   0  0  0  0  0  0  0  0  0  0  0  0
    9.0360    0.7593   -2.8784 F   0  0  0  0  0  0  0  0  0  0  0  0
   -1.8114    0.4782    1.2056 C   0  0  0  0  0  0  0  0  0  0  0  0
   -4.7517   -0.2159   -0.8264 C   0  0  2  0  0  0  0  0  0  0  0  0
   -5.4787    1.0102   -1.1861 C   0  0  0  0  0  0  0  0  0  0  0  0
   -6.8060    0.6933   -1.8499 C   0  0  0  0  0  0  0  0  0  0  0  0
   -7.5692   -0.4292   -1.2589 C   0  0  2  0  0  0  0  0  0  0  0  0
   -8.9025   -0.0897   -0.9677 O   0  0  0  0  0  0  0  0  0  0  0  0
   -6.9958   -1.0326   -0.0121 C   0  0  0  0  0  0  0  0  0  0  0  0
   -5.5306   -1.2746   -0.0900 C   0  0  0  0  0  0  0  0  0  0  0  0
    0.5354    0.4078    3.3449 H   0  0  0  0  0  0  0  0  0  0  0  0
    0.7967    1.5446    1.9825 H   0  0  0  0  0  0  0  0  0  0  0  0
   -3.9746    2.5652    3.5419 H   0  0  0  0  0  0  0  0  0  0  0  0
   -4.9654    1.4305    1.6073 H   0  0  0  0  0  0  0  0  0  0  0  0
    0.5590   -1.8921    1.6625 H   0  0  0  0  0  0  0  0  0  0  0  0
    2.9531   -2.0150    1.2642 H   0  0  0  0  0  0  0  0  0  0  0  0
    2.5742    0.5388   -2.1249 H   0  0  0  0  0  0  0  0  0  0  0  0
    0.1440    0.6707   -1.7463 H   0  0  0  0  0  0  0  0  0  0  0  0
    4.9038   -1.4706    1.2185 H   0  0  0  0  0  0  0  0  0  0  0  0
    6.6868    0.6470   -1.2971 H   0  0  0  0  0  0  0  0  0  0  0  0
   10.5584   -0.2066    0.2464 H   0  0  0  0  0  0  0  0  0  0  0  0
    9.5198   -1.7909    1.8414 H   0  0  0  0  0  0  0  0  0  0  0  0
   -4.5149   -0.7271   -1.8347 H   0  0  0  0  0  0  0  0  0  0  0  0
   -5.6560    1.7744   -0.4462 H   0  0  0  0  0  0  0  0  0  0  0  0
   -4.8873    1.5030   -2.0196 H   0  0  0  0  0  0  0  0  0  0  0  0
   -6.7204    0.6371   -2.9725 H   0  0  0  0  0  0  0  0  0  0  0  0
   -7.4479    1.6181   -1.7101 H   0  0  0  0  0  0  0  0  0  0  0  0
   -7.5862   -1.2587   -2.0296 H   0  0  0  0  0  0  0  0  0  0  0  0
   -9.2507   -0.5698   -0.1647 H   0  0  0  0  0  0  0  0  0  0  0  0
   -7.2013   -0.3646    0.8669 H   0  0  0  0  0  0  0  0  0  0  0  0
   -7.5127   -2.0002    0.1528 H   0  0  0  0  0  0  0  0  0  0  0  0
   -5.3653   -2.3038   -0.5184 H   0  0  0  0  0  0  0  0  0  0  0  0
   -5.1368   -1.3693    0.9574 H   0  0  0  0  0  0  0  0  0  0  0  0
  1  2  1  0
  2  3  2  0
  3  4  1  0
  4  5  2  0
  5  6  1  0
  6  7  1  0
  7  8  2  0
  8  9  1  0
  9 10  1  0
 10 11  2  0
 11 12  1  0
 12 13  2  0
 13 14  1  0
 14 15  2  0
 13 16  1  0
 16 17  2  0
 16 18  1  0
 18 19  1  0
 19 20  2  0
 20 21  1  0
 21 22  2  0
 22 23  1  0
 23 24  2  0
 21 25  1  0
 25 26  1  0
 25 27  1  0
 25 28  1  0
  9 29  2  0
  7 30  1  0
 30 31  1  0
 31 32  1  0
 32 33  1  0
 33 34  1  0
 33 35  1  0
 35 36  1  0
 29  2  1  0
 36 30  1  0
 29  6  1  0
 15 10  1  0
 24 19  1  0
  1 37  1  0
  1 38  1  0
  4 39  1  0
  5 40  1  0
 11 41  1  0
 12 42  1  0
 14 43  1  0
 15 44  1  0
 18 45  1  0
 20 46  1  0
 22 47  1  0
 23 48  1  0
 30 49  1  6
 31 50  1  0
 31 51  1  0
 32 52  1  0
 32 53  1  0
 33 54  1  6
 34 55  1  0
 35 56  1  0
 35 57  1  0
 36 58  1  0
 36 59  1  0
M  END
$$$$
[H]c1c([H])c(N([H])c2nn(C([H])([H])C3([H])C([H])([H])C3([H])[H])c3c2C([H])([H])N(C(=O)C([H])([H])[H])C([H])([H])C3([H])[H])c([H])c(Cl)c1Cl
     RDKit          3D

 45 48  0  0  0  0  0  0  0  0999 V2000
   -1.0390    4.9183    1.3552 C   0  0  0  0  0  0  0  0  0  0  0  0
    0.2843    4.5223    0.8052 C   0  0  0  0  0  0  0  0  0  0  0  0
    1.1036    5.4180    0.4772 O   0  0  0  0  0  0  0  0  0  0  0  0
    0.6666    3.1694    0.6328 N   0  0  0  0  0  0  0  0  0  0  0  0
    1.9570    2.8922    0.0980 C   0  0  0  0  0  0  0  0  0  0  0  0
    2.3233    1.4748   -0.0688 C   0  0  0  0  0  0  0  0  0  0  0  0
    1.1816    0.5409   -0.2032 C   0  0  0  0  0  0  0  0  0  0  0  0
   -0.0393    0.8928    0.3186 C   0  0  0  0  0  0  0  0  0  0  0  0
   -0.3023    2.1664    1.0211 C   0  0  0  0  0  0  0  0  0  0  0  0
   -0.8712   -0.2021    0.0168 C   0  0  0  0  0  0  0  0  0  0  0  0
   -2.2190   -0.3064    0.3800 N   0  0  0  0  0  0  0  0  0  0  0  0
   -3.0585   -1.3900    0.0531 C   0  0  0  0  0  0  0  0  0  0  0  0
   -2.8355   -2.1804   -1.0380 C   0  0  0  0  0  0  0  0  0  0  0  0
   -3.6751   -3.2761   -1.3260 C   0  0  0  0  0  0  0  0  0  0  0  0
   -4.7338   -3.5487   -0.4938 C   0  0  0  0  0  0  0  0  0  0  0  0
   -5.7812   -4.9148   -0.8525 Cl  0  0  0  0  0  0  0  0  0  0  0  0
   -4.9502   -2.7422    0.6059 C   0  0  0  0  0  0  0  0  0  0  0  0
   -6.3055   -3.1154    1.6439 Cl  0  0  0  0  0  0  0  0  0  0  0  0
   -4.1511   -1.6841    0.8972 C   0  0  0  0  0  0  0  0  0  0  0  0
   -0.1152   -1.0872   -0.6347 N   0  0  0  0  0  0  0  0  0  0  0  0
    1.1300   -0.6712   -0.7853 N   0  0  0  0  0  0  0  0  0  0  0  0
    2.2384   -1.3520   -1.4367 C   0  0  0  0  0  0  0  0  0  0  0  0
    2.9767   -2.1981   -0.4258 C   0  0  0  0  0  0  0  0  0  0  0  0
    4.1617   -2.9691   -0.9632 C   0  0  0  0  0  0  0  0  0  0  0  0
    4.3389   -1.7981   -0.0516 C   0  0  0  0  0  0  0  0  0  0  0  0
   -1.8613    4.8009    0.6271 H   0  0  0  0  0  0  0  0  0  0  0  0
   -1.1860    4.2903    2.2732 H   0  0  0  0  0  0  0  0  0  0  0  0
   -0.9982    5.9527    1.6883 H   0  0  0  0  0  0  0  0  0  0  0  0
    2.0197    3.3916   -0.9023 H   0  0  0  0  0  0  0  0  0  0  0  0
    2.7034    3.4379    0.7291 H   0  0  0  0  0  0  0  0  0  0  0  0
    3.0159    1.3107   -0.9052 H   0  0  0  0  0  0  0  0  0  0  0  0
    2.8824    1.1438    0.8538 H   0  0  0  0  0  0  0  0  0  0  0  0
   -0.2696    1.9647    2.1087 H   0  0  0  0  0  0  0  0  0  0  0  0
   -1.3202    2.5576    0.8081 H   0  0  0  0  0  0  0  0  0  0  0  0
   -2.6722    0.4802    0.9462 H   0  0  0  0  0  0  0  0  0  0  0  0
   -2.0258   -1.9969   -1.7403 H   0  0  0  0  0  0  0  0  0  0  0  0
   -3.4965   -3.9012   -2.1899 H   0  0  0  0  0  0  0  0  0  0  0  0
   -4.2764   -1.0262    1.7401 H   0  0  0  0  0  0  0  0  0  0  0  0
    1.8222   -1.9574   -2.2543 H   0  0  0  0  0  0  0  0  0  0  0  0
    2.9072   -0.5846   -1.8905 H   0  0  0  0  0  0  0  0  0  0  0  0
    2.3073   -2.7360    0.2666 H   0  0  0  0  0  0  0  0  0  0  0  0
    4.3036   -4.0030   -0.5718 H   0  0  0  0  0  0  0  0  0  0  0  0
    4.3927   -2.8479   -2.0431 H   0  0  0  0  0  0  0  0  0  0  0  0
    4.6947   -1.9475    0.9729 H   0  0  0  0  0  0  0  0  0  0  0  0
    4.7716   -0.8890   -0.5421 H   0  0  0  0  0  0  0  0  0  0  0  0
  1  2  1  0
  2  3  2  0
  2  4  1  0
  4  5  1  0
  5  6  1  0
  6  7  1  0
  7  8  2  0
  8  9  1  0
  8 10  1  0
 10 11  1  0
 11 12  1  0
 12 13  2  0
 13 14  1  0
 14 15  2  0
 15 16  1  0
 15 17  1  0
 17 18  1  0
 17 19  2  0
 10 20  2  0
 20 21  1  0
 21 22  1  0
 22 23  1  0
 23 24  1  0
 24 25  1  0
  9  4  1  0
 19 12  1  0
 25 23  1  0
 21  7  1  0
  1 26  1  0
  1 27  1  0
  1 28  1  0
  5 29  1  0
  5 30  1  0
  6 31  1  0
  6 32  1  0
  9 33  1  0
  9 34  1  0
 11 35  1  0
 13 36  1  0
 14 37  1  0
 19 38  1  0
 22 39  1  0
 22 40  1  0
 23 41  1  0
 24 42  1  0
 24 43  1  0
 25 44  1  0
 25 45  1  0
M  END
$$$$
[H]Oc1c([H])c([H])c2c(c1[H])C([H])([H])C([H])([H])[C@]1([H])[C@]2([H])C([H])([H])C([H])([H])[C@]2(C([H])([H])[H])C3(C([H])([H])C([H])([H])C([H])([H])C3([H])[H])C([H])([H])C([H])([H])[C@]21[H]
     RDKit          3D

 53 57  0  0  0  0  0  0  0  0999 V2000
   -0.8206    1.3532   -1.5764 C   0  0  0  0  0  0  0  0  0  0  0  0
   -1.1791    0.6168   -0.3056 C   0  0  2  0  0  0  0  0  0  0  0  0
   -0.6353    1.2801    0.9112 C   0  0  0  0  0  0  0  0  0  0  0  0
    0.8568    1.3138    0.8255 C   0  0  0  0  0  0  0  0  0  0  0  0
    1.4649   -0.0499    0.6408 C   0  0  1  0  0  0  0  0  0  0  0  0
    0.8310   -0.7977   -0.5332 C   0  0  1  0  0  0  0  0  0  0  0  0
    1.3459   -2.1954   -0.5781 C   0  0  0  0  0  0  0  0  0  0  0  0
    2.7781   -2.3628   -0.2207 C   0  0  0  0  0  0  0  0  0  0  0  0
    3.5363   -1.1193   -0.0539 C   0  0  0  0  0  0  0  0  0  0  0  0
    4.9016   -1.1001   -0.3254 C   0  0  0  0  0  0  0  0  0  0  0  0
    5.6350    0.0392   -0.1801 C   0  0  0  0  0  0  0  0  0  0  0  0
    7.0126    0.0585   -0.4540 O   0  0  0  0  0  0  0  0  0  0  0  0
    5.0210    1.2011    0.2437 C   0  0  0  0  0  0  0  0  0  0  0  0
    3.6731    1.1641    0.5070 C   0  0  0  0  0  0  0  0  0  0  0  0
    2.9000    0.0319    0.3717 C   0  0  0  0  0  0  0  0  0  0  0  0
   -0.6366   -0.8086   -0.3110 C   0  0  2  0  0  0  0  0  0  0  0  0
   -1.4543   -1.4501   -1.3681 C   0  0  0  0  0  0  0  0  0  0  0  0
   -2.8176   -0.7923   -1.2255 C   0  0  0  0  0  0  0  0  0  0  0  0
   -2.6494    0.3814   -0.3026 C   0  0  0  0  0  0  0  0  0  0  0  0
   -3.2300    0.0817    1.0428 C   0  0  0  0  0  0  0  0  0  0  0  0
   -4.7284    0.1726    0.7647 C   0  0  0  0  0  0  0  0  0  0  0  0
   -4.8769    1.0617   -0.4450 C   0  0  0  0  0  0  0  0  0  0  0  0
   -3.4617    1.5625   -0.7621 C   0  0  0  0  0  0  0  0  0  0  0  0
   -1.3791    2.3086   -1.5593 H   0  0  0  0  0  0  0  0  0  0  0  0
    0.2454    1.5279   -1.7065 H   0  0  0  0  0  0  0  0  0  0  0  0
   -1.2770    0.7646   -2.4223 H   0  0  0  0  0  0  0  0  0  0  0  0
   -0.9887    2.3260    1.0368 H   0  0  0  0  0  0  0  0  0  0  0  0
   -0.9076    0.6601    1.7912 H   0  0  0  0  0  0  0  0  0  0  0  0
    1.2470    1.7113    1.7864 H   0  0  0  0  0  0  0  0  0  0  0  0
    1.1502    2.0399    0.0483 H   0  0  0  0  0  0  0  0  0  0  0  0
    1.3156   -0.6126    1.5848 H   0  0  0  0  0  0  0  0  0  0  0  0
    1.1446   -0.2872   -1.4670 H   0  0  0  0  0  0  0  0  0  0  0  0
    1.1856   -2.5710   -1.6299 H   0  0  0  0  0  0  0  0  0  0  0  0
    0.7238   -2.8832    0.0520 H   0  0  0  0  0  0  0  0  0  0  0  0
    2.8763   -2.9814    0.7159 H   0  0  0  0  0  0  0  0  0  0  0  0
    3.3127   -2.9767   -1.0019 H   0  0  0  0  0  0  0  0  0  0  0  0
    5.3823   -2.0099   -0.6573 H   0  0  0  0  0  0  0  0  0  0  0  0
    7.6796   -0.1449    0.2623 H   0  0  0  0  0  0  0  0  0  0  0  0
    5.6025    2.1153    0.3617 H   0  0  0  0  0  0  0  0  0  0  0  0
    3.1824    2.0633    0.8382 H   0  0  0  0  0  0  0  0  0  0  0  0
   -0.8401   -1.2168    0.6921 H   0  0  0  0  0  0  0  0  0  0  0  0
   -1.5903   -2.5207   -1.1120 H   0  0  0  0  0  0  0  0  0  0  0  0
   -1.0248   -1.3063   -2.3762 H   0  0  0  0  0  0  0  0  0  0  0  0
   -3.5852   -1.4974   -0.8586 H   0  0  0  0  0  0  0  0  0  0  0  0
   -3.1057   -0.3858   -2.2260 H   0  0  0  0  0  0  0  0  0  0  0  0
   -2.9980    0.8573    1.7782 H   0  0  0  0  0  0  0  0  0  0  0  0
   -3.0332   -0.9469    1.3921 H   0  0  0  0  0  0  0  0  0  0  0  0
   -5.1167   -0.8437    0.4699 H   0  0  0  0  0  0  0  0  0  0  0  0
   -5.2853    0.6012    1.6001 H   0  0  0  0  0  0  0  0  0  0  0  0
   -5.1747    0.4717   -1.3604 H   0  0  0  0  0  0  0  0  0  0  0  0
   -5.5846    1.8781   -0.3065 H   0  0  0  0  0  0  0  0  0  0  0  0
   -3.2799    2.4191   -0.0920 H   0  0  0  0  0  0  0  0  0  0  0  0
   -3.3435    1.7976   -1.8294 H   0  0  0  0  0  0  0  0  0  0  0  0
  2  1  1  6
  2  3  1  0
  3  4  1  0
  4  5  1  0
  5  6  1  0
  6  7  1  0
  7  8  1  0
  8  9  1  0
  9 10  2  0
 10 11  1  0
 11 12  1  0
 11 13  2  0
 13 14  1  0
 14 15  2  0
  6 16  1  0
 16 17  1  0
 17 18  1  0
 18 19  1  0
 19 20  1  0
 20 21  1  0
 21 22  1  0
 22 23  1  0
 16  2  1  0
 23 19  1  0
 19  2  1  0
 15  5  1  0
 15  9  1  0
  1 24  1  0
  1 25  1  0
  1 26  1  0
  3 27  1  0
  3 28  1  0
  4 29  1  0
  4 30  1  0
  5 31  1  1
  6 32  1  6
  7 33  1  0
  7 34  1  0
  8 35  1  0
  8 36  1  0
 10 37  1  0
 12 38  1  0
 13 39  1  0
 14 40  1  0
 16 41  1  1
 17 42  1  0
 17 43  1  0
 18 44  1  0
 18 45  1  0
 20 46  1  0
 20 47  1  0
 21 48  1  0
 21 49  1  0
 22 50  1  0
 22 51  1  0
 23 52  1  0
 23 53  1  0
M  END
$$$$
[H]c1nc(N([H])c2c([H])c([H])c(N3C([H])([H])C([H])([H])N(C([H])([H])[H])C([H])([H])C3([H])[H])c([H])c2[H])nc([H])c1N([H])C(=O)c1c([H])c(N([H])C(=O)c2c([H])c([H])c([H])c(C(F)(F)F)c2[H])c([H])c([H])c1C([H])([H])[H]
     RDKit          3D

 73 77  0  0  0  0  0  0  0  0999 V2000
   11.1626   -1.4295   -0.2901 C   0  0  0  0  0  0  0  0  0  0  0  0
   10.8066   -1.1520   -1.6725 N   0  0  0  0  0  0  0  0  0  0  0  0
   10.4159    0.1876   -1.8989 C   0  0  0  0  0  0  0  0  0  0  0  0
    9.0068    0.3313   -2.4400 C   0  0  0  0  0  0  0  0  0  0  0  0
    8.1717   -0.5294   -1.6086 N   0  0  0  0  0  0  0  0  0  0  0  0
    8.5007   -1.9673   -1.7161 C   0  0  0  0  0  0  0  0  0  0  0  0
    9.9119   -2.1440   -2.1967 C   0  0  0  0  0  0  0  0  0  0  0  0
    7.1297   -0.0633   -0.7731 C   0  0  0  0  0  0  0  0  0  0  0  0
    6.2840    0.9745   -1.1097 C   0  0  0  0  0  0  0  0  0  0  0  0
    5.2833    1.4252   -0.2729 C   0  0  0  0  0  0  0  0  0  0  0  0
    5.0750    0.8551    0.9607 C   0  0  0  0  0  0  0  0  0  0  0  0
    4.0727    1.2666    1.8554 N   0  0  0  0  0  0  0  0  0  0  0  0
    2.7010    1.4154    1.6495 C   0  0  0  0  0  0  0  0  0  0  0  0
    2.0640    1.1508    0.5212 N   0  0  0  0  0  0  0  0  0  0  0  0
    0.7045    1.2644    0.3632 C   0  0  0  0  0  0  0  0  0  0  0  0
   -0.0701    1.6664    1.3890 C   0  0  0  0  0  0  0  0  0  0  0  0
   -1.4860    1.7401    1.4642 N   0  0  0  0  0  0  0  0  0  0  0  0
   -2.4284    1.0827    0.7153 C   0  0  0  0  0  0  0  0  0  0  0  0
   -2.0837    0.3640   -0.2539 O   0  0  0  0  0  0  0  0  0  0  0  0
   -3.8748    1.1632    1.0101 C   0  0  0  0  0  0  0  0  0  0  0  0
   -4.8233    1.0463   -0.0402 C   0  0  0  0  0  0  0  0  0  0  0  0
   -6.1401    1.1096    0.1741 C   0  0  0  0  0  0  0  0  0  0  0  0
   -7.1975    0.8936   -0.7958 N   0  0  0  0  0  0  0  0  0  0  0  0
   -8.1468   -0.1045   -0.4596 C   0  0  0  0  0  0  0  0  0  0  0  0
   -7.8757   -0.7207    0.6821 O   0  0  0  0  0  0  0  0  0  0  0  0
   -9.3264   -0.5507   -1.1186 C   0  0  0  0  0  0  0  0  0  0  0  0
   -9.9814    0.1544   -2.0771 C   0  0  0  0  0  0  0  0  0  0  0  0
  -11.1622   -0.3133   -2.6274 C   0  0  0  0  0  0  0  0  0  0  0  0
  -11.7323   -1.5005   -2.2409 C   0  0  0  0  0  0  0  0  0  0  0  0
  -11.0947   -2.2428   -1.2745 C   0  0  0  0  0  0  0  0  0  0  0  0
   -9.9266   -1.7682   -0.7404 C   0  0  0  0  0  0  0  0  0  0  0  0
  -11.6644   -3.5222   -0.8140 C   0  0  0  0  0  0  0  0  0  0  0  0
  -12.7917   -3.2654   -0.0486 F   0  0  0  0  0  0  0  0  0  0  0  0
  -11.9253   -4.4025   -1.8601 F   0  0  0  0  0  0  0  0  0  0  0  0
  -10.7612   -4.1640    0.0259 F   0  0  0  0  0  0  0  0  0  0  0  0
   -6.6025    1.3075    1.4993 C   0  0  0  0  0  0  0  0  0  0  0  0
   -5.6979    1.4181    2.5023 C   0  0  0  0  0  0  0  0  0  0  0  0
   -4.3071    1.3475    2.3005 C   0  0  0  0  0  0  0  0  0  0  0  0
   -3.4568    1.3682    3.5224 C   0  0  0  0  0  0  0  0  0  0  0  0
    0.6065    1.9579    2.6074 C   0  0  0  0  0  0  0  0  0  0  0  0
    1.9026    1.8263    2.6842 N   0  0  0  0  0  0  0  0  0  0  0  0
    5.9322   -0.2082    1.3194 C   0  0  0  0  0  0  0  0  0  0  0  0
    6.9250   -0.6545    0.4876 C   0  0  0  0  0  0  0  0  0  0  0  0
   11.0028   -2.4892   -0.1086 H   0  0  0  0  0  0  0  0  0  0  0  0
   12.2320   -1.2035   -0.1608 H   0  0  0  0  0  0  0  0  0  0  0  0
   10.5559   -0.8453    0.4460 H   0  0  0  0  0  0  0  0  0  0  0  0
   10.4807    0.7587   -0.9317 H   0  0  0  0  0  0  0  0  0  0  0  0
   11.1376    0.6785   -2.5712 H   0  0  0  0  0  0  0  0  0  0  0  0
    8.6993    1.3874   -2.3241 H   0  0  0  0  0  0  0  0  0  0  0  0
    8.9493   -0.0226   -3.4739 H   0  0  0  0  0  0  0  0  0  0  0  0
    8.2939   -2.4781   -0.7843 H   0  0  0  0  0  0  0  0  0  0  0  0
    7.8182   -2.3492   -2.5036 H   0  0  0  0  0  0  0  0  0  0  0  0
   10.0159   -2.2026   -3.2872 H   0  0  0  0  0  0  0  0  0  0  0  0
   10.2623   -3.1415   -1.7933 H   0  0  0  0  0  0  0  0  0  0  0  0
    6.3766    1.4861   -2.0566 H   0  0  0  0  0  0  0  0  0  0  0  0
    4.6281    2.2472   -0.5569 H   0  0  0  0  0  0  0  0  0  0  0  0
    4.4192    1.4847    2.8598 H   0  0  0  0  0  0  0  0  0  0  0  0
    0.2446    1.0282   -0.6036 H   0  0  0  0  0  0  0  0  0  0  0  0
   -1.8616    2.4790    2.1563 H   0  0  0  0  0  0  0  0  0  0  0  0
   -4.4587    0.9050   -1.0588 H   0  0  0  0  0  0  0  0  0  0  0  0
   -7.2179    1.4473   -1.6332 H   0  0  0  0  0  0  0  0  0  0  0  0
   -9.5830    1.0984   -2.4225 H   0  0  0  0  0  0  0  0  0  0  0  0
  -11.7002    0.2519   -3.3961 H   0  0  0  0  0  0  0  0  0  0  0  0
  -12.6727   -1.8372   -2.6929 H   0  0  0  0  0  0  0  0  0  0  0  0
   -9.3932   -2.3435    0.0247 H   0  0  0  0  0  0  0  0  0  0  0  0
   -7.6706    1.3801    1.6361 H   0  0  0  0  0  0  0  0  0  0  0  0
   -6.0166    1.5663    3.5297 H   0  0  0  0  0  0  0  0  0  0  0  0
   -3.2707    2.3812    3.8991 H   0  0  0  0  0  0  0  0  0  0  0  0
   -2.6120    0.7004    3.4318 H   0  0  0  0  0  0  0  0  0  0  0  0
   -4.0929    0.8304    4.3335 H   0  0  0  0  0  0  0  0  0  0  0  0
   -0.0160    2.2938    3.4484 H   0  0  0  0  0  0  0  0  0  0  0  0
    5.7611   -0.6407    2.2843 H   0  0  0  0  0  0  0  0  0  0  0  0
    7.5890   -1.4651    0.7519 H   0  0  0  0  0  0  0  0  0  0  0  0
  1  2  1  0
  2  3  1  0
  3  4  1  0
  4  5  1  0
  5  6  1  0
  6  7  1  0
  5  8  1  0
  8  9  2  0
  9 10  1  0
 10 11  2  0
 11 12  1  0
 12 13  1  0
 13 14  2  0
 14 15  1  0
 15 16  2  0
 16 17  1  0
 17 18  1  0
 18 19  2  0
 18 20  1  0
 20 21  2  0
 21 22  1  0
 22 23  1  0
 23 24  1  0
 24 25  2  0
 24 26  1  0
 26 27  2  0
 27 28  1  0
 28 29  2  0
 29 30  1  0
 30 31  2  0
 30 32  1  0
 32 33  1  0
 32 34  1  0
 32 35  1  0
 22 36  2  0
 36 37  1  0
 37 38  2  0
 38 39  1  0
 16 40  1  0
 40 41  2  0
 11 42  1  0
 42 43  2  0
  7  2  1  0
 43  8  1  0
 41 13  1  0
 38 20  1  0
 31 26  1  0
  1 44  1  0
  1 45  1  0
  1 46  1  0
  3 47  1  0
  3 48  1  0
  4 49  1  0
  4 50  1  0
  6 51  1  0
  6 52  1  0
  7 53  1  0
  7 54  1  0
  9 55  1  0
 10 56  1  0
 12 57  1  0
 15 58  1  0
 17 59  1  0
 21 60  1  0
 23 61  1  0
 27 62  1  0
 28 63  1  0
 29 64  1  0
 31 65  1  0
 36 66  1  0
 37 67  1  0
 39 68  1  0
 39 69  1  0
 39 70  1  0
 40 71  1  0
 42 72  1  0
 43 73  1  0
M  END
$$$$
[H]c1c([H])c(S(=O)(=O)N([H])[H])c([H])c([H])c1N([H])c1nc(N([H])C([H])(C([H])([H])[H])C([H])([H])[H])c2nc([H])n([H])c2n1
     RDKit          3D

 41 43  0  0  0  0  0  0  0  0999 V2000
   -3.5158    2.3834    0.9485 C   0  0  0  0  0  0  0  0  0  0  0  0
   -4.2656    1.5369   -0.0270 C   0  0  0  0  0  0  0  0  0  0  0  0
   -5.6979    1.9600   -0.0617 C   0  0  0  0  0  0  0  0  0  0  0  0
   -4.1222    0.1138    0.2149 N   0  0  0  0  0  0  0  0  0  0  0  0
   -2.8154   -0.4516    0.1703 C   0  0  0  0  0  0  0  0  0  0  0  0
   -1.7292    0.2944   -0.0872 N   0  0  0  0  0  0  0  0  0  0  0  0
   -0.4681   -0.2341   -0.1333 C   0  0  0  0  0  0  0  0  0  0  0  0
    0.5906    0.6623   -0.4304 N   0  0  0  0  0  0  0  0  0  0  0  0
    1.9674    0.3587   -0.5227 C   0  0  0  0  0  0  0  0  0  0  0  0
    2.5757   -0.7585   -0.0213 C   0  0  0  0  0  0  0  0  0  0  0  0
    3.9416   -0.9705   -0.1918 C   0  0  0  0  0  0  0  0  0  0  0  0
    4.7219   -0.0673   -0.8668 C   0  0  0  0  0  0  0  0  0  0  0  0
    4.1021    1.0455   -1.3626 C   0  0  0  0  0  0  0  0  0  0  0  0
    2.7775    1.2491   -1.1965 C   0  0  0  0  0  0  0  0  0  0  0  0
    6.4426   -0.3079   -1.0965 S   0  0  0  0  0  0  0  0  0  0  0  0
    7.2846    0.4043    0.2291 N   0  0  0  0  0  0  0  0  0  0  0  0
    6.8605    0.2590   -2.4115 O   0  0  0  0  0  0  0  0  0  0  0  0
    6.7714   -1.7856   -1.1095 O   0  0  0  0  0  0  0  0  0  0  0  0
   -0.3765   -1.5384    0.0929 N   0  0  0  0  0  0  0  0  0  0  0  0
   -1.4248   -2.3391    0.3560 C   0  0  0  0  0  0  0  0  0  0  0  0
   -1.5680   -3.6595    0.6116 N   0  0  0  0  0  0  0  0  0  0  0  0
   -2.8616   -3.9657    0.8127 C   0  0  0  0  0  0  0  0  0  0  0  0
   -3.5364   -2.8094    0.6790 N   0  0  0  0  0  0  0  0  0  0  0  0
   -2.6959   -1.8067    0.4026 C   0  0  0  0  0  0  0  0  0  0  0  0
   -4.0901    3.3198    1.2015 H   0  0  0  0  0  0  0  0  0  0  0  0
   -2.5184    2.7013    0.5789 H   0  0  0  0  0  0  0  0  0  0  0  0
   -3.3707    1.8765    1.9363 H   0  0  0  0  0  0  0  0  0  0  0  0
   -3.8350    1.7199   -1.0416 H   0  0  0  0  0  0  0  0  0  0  0  0
   -6.1304    2.1788    0.9349 H   0  0  0  0  0  0  0  0  0  0  0  0
   -5.7319    2.9443   -0.6128 H   0  0  0  0  0  0  0  0  0  0  0  0
   -6.3463    1.2825   -0.6461 H   0  0  0  0  0  0  0  0  0  0  0  0
   -4.9178   -0.5098    0.4176 H   0  0  0  0  0  0  0  0  0  0  0  0
    0.3341    1.6972   -0.5995 H   0  0  0  0  0  0  0  0  0  0  0  0
    2.0006   -1.4988    0.5332 H   0  0  0  0  0  0  0  0  0  0  0  0
    4.4294   -1.8579    0.2049 H   0  0  0  0  0  0  0  0  0  0  0  0
    4.7069    1.7672   -1.8976 H   0  0  0  0  0  0  0  0  0  0  0  0
    2.3297    2.1556   -1.6144 H   0  0  0  0  0  0  0  0  0  0  0  0
    7.6303    1.3508   -0.0955 H   0  0  0  0  0  0  0  0  0  0  0  0
    6.6235    0.5813    0.9988 H   0  0  0  0  0  0  0  0  0  0  0  0
   -0.7818   -4.3328    0.6452 H   0  0  0  0  0  0  0  0  0  0  0  0
   -3.2905   -4.9490    1.0393 H   0  0  0  0  0  0  0  0  0  0  0  0
  1  2  1  0
  2  3  1  0
  2  4  1  0
  4  5  1  0
  5  6  2  0
  6  7  1  0
  7  8  1  0
  8  9  1  0
  9 10  2  0
 10 11  1  0
 11 12  2  0
 12 13  1  0
 13 14  2  0
 12 15  1  0
 15 16  1  0
 15 17  2  0
 15 18  2  0
  7 19  2  0
 19 20  1  0
 20 21  1  0
 21 22  1  0
 22 23  2  0
 23 24  1  0
 24  5  1  0
 14  9  1  0
 24 20  2  0
  1 25  1  0
  1 26  1  0
  1 27  1  0
  2 28  1  0
  3 29  1  0
  3 30  1  0
  3 31  1  0
  4 32  1  0
  8 33  1  0
 10 34  1  0
 11 35  1  0
 13 36  1  0
 14 37  1  0
 16 38  1  0
 16 39  1  0
 21 40  1  0
 22 41  1  0
M  END
$$$$
[H]c1nn([H])c([H])c1-c1c([H])c([H])c2c(nc([H])n2-c2sc(C(=O)N([H])[H])c(O[C@@]([H])(c3c([H])c([H])c([H])c([H])c3Cl)C([H])([H])[H])c2[H])c1[H]
     RDKit          3D

 50 54  0  0  0  0  0  0  0  0999 V2000
   -5.0841   -0.2844    1.7208 C   0  0  0  0  0  0  0  0  0  0  0  0
   -3.5887    0.0081    1.4347 C   0  0  1  0  0  0  0  0  0  0  0  0
   -3.0803   -0.9264    0.6457 O   0  0  0  0  0  0  0  0  0  0  0  0
   -2.0930   -1.4994   -0.0760 C   0  0  0  0  0  0  0  0  0  0  0  0
   -0.8789   -0.9623   -0.3257 C   0  0  0  0  0  0  0  0  0  0  0  0
    0.0223   -1.6480   -1.0695 C   0  0  0  0  0  0  0  0  0  0  0  0
   -0.7904   -3.0654   -1.4442 S   0  0  0  0  0  0  0  0  0  0  0  0
   -2.2773   -2.7795   -0.6517 C   0  0  0  0  0  0  0  0  0  0  0  0
   -3.4454   -3.6596   -0.5708 C   0  0  0  0  0  0  0  0  0  0  0  0
   -3.4268   -4.8952   -1.2465 N   0  0  0  0  0  0  0  0  0  0  0  0
   -4.4377   -3.3290    0.0828 O   0  0  0  0  0  0  0  0  0  0  0  0
    1.3464   -1.2443   -1.4800 N   0  0  0  0  0  0  0  0  0  0  0  0
    1.7921   -1.2904   -2.7702 C   0  0  0  0  0  0  0  0  0  0  0  0
    3.0333   -0.8483   -2.8386 N   0  0  0  0  0  0  0  0  0  0  0  0
    3.3855   -0.5146   -1.5661 C   0  0  0  0  0  0  0  0  0  0  0  0
    4.5460   -0.0041   -1.0232 C   0  0  0  0  0  0  0  0  0  0  0  0
    4.7154    0.2760    0.3309 C   0  0  0  0  0  0  0  0  0  0  0  0
    3.6300    0.0094    1.1380 C   0  0  0  0  0  0  0  0  0  0  0  0
    2.4411   -0.5065    0.6247 C   0  0  0  0  0  0  0  0  0  0  0  0
    2.3329   -0.7625   -0.7245 C   0  0  0  0  0  0  0  0  0  0  0  0
    5.9737    0.8160    0.8214 C   0  0  0  0  0  0  0  0  0  0  0  0
    7.2172    0.5236    0.2675 C   0  0  0  0  0  0  0  0  0  0  0  0
    8.1660    1.1979    0.9624 N   0  0  0  0  0  0  0  0  0  0  0  0
    7.5661    1.9066    1.9336 N   0  0  0  0  0  0  0  0  0  0  0  0
    6.2344    1.6758    1.8502 C   0  0  0  0  0  0  0  0  0  0  0  0
   -3.6485    1.3858    0.8011 C   0  0  0  0  0  0  0  0  0  0  0  0
   -4.6638    1.7366   -0.0561 C   0  0  0  0  0  0  0  0  0  0  0  0
   -4.6745    2.9511   -0.7518 C   0  0  0  0  0  0  0  0  0  0  0  0
   -3.6172    3.8066   -0.5533 C   0  0  0  0  0  0  0  0  0  0  0  0
   -2.6035    3.4767    0.2924 C   0  0  0  0  0  0  0  0  0  0  0  0
   -2.6173    2.2612    0.9777 C   0  0  0  0  0  0  0  0  0  0  0  0
   -1.3463    1.9615    2.1617 Cl  0  0  0  0  0  0  0  0  0  0  0  0
   -5.5942   -0.6474    0.7981 H   0  0  0  0  0  0  0  0  0  0  0  0
   -5.5135    0.6649    2.0770 H   0  0  0  0  0  0  0  0  0  0  0  0
   -5.1836   -1.0374    2.5168 H   0  0  0  0  0  0  0  0  0  0  0  0
   -3.0690    0.1410    2.3885 H   0  0  0  0  0  0  0  0  0  0  0  0
   -0.5888    0.0421    0.0549 H   0  0  0  0  0  0  0  0  0  0  0  0
   -4.0735   -5.6704   -1.0009 H   0  0  0  0  0  0  0  0  0  0  0  0
   -2.7514   -5.0497   -2.0202 H   0  0  0  0  0  0  0  0  0  0  0  0
    1.1703   -1.6454   -3.5909 H   0  0  0  0  0  0  0  0  0  0  0  0
    5.3886    0.2019   -1.6676 H   0  0  0  0  0  0  0  0  0  0  0  0
    3.7141    0.2152    2.2172 H   0  0  0  0  0  0  0  0  0  0  0  0
    1.5867   -0.7173    1.2724 H   0  0  0  0  0  0  0  0  0  0  0  0
    7.4521   -0.1138   -0.5689 H   0  0  0  0  0  0  0  0  0  0  0  0
    8.1118    2.5042    2.5945 H   0  0  0  0  0  0  0  0  0  0  0  0
    5.5002    2.1135    2.5097 H   0  0  0  0  0  0  0  0  0  0  0  0
   -5.4987    1.0940   -0.2371 H   0  0  0  0  0  0  0  0  0  0  0  0
   -5.4603    3.2298   -1.4244 H   0  0  0  0  0  0  0  0  0  0  0  0
   -3.5518    4.7749   -1.0671 H   0  0  0  0  0  0  0  0  0  0  0  0
   -1.7675    4.1272    0.4586 H   0  0  0  0  0  0  0  0  0  0  0  0
  1  2  1  0
  2  3  1  0
  3  4  1  0
  4  5  1  0
  5  6  2  0
  6  7  1  0
  7  8  1  0
  8  9  1  0
  9 10  1  0
  9 11  2  0
  6 12  1  0
 12 13  1  0
 13 14  2  0
 14 15  1  0
 15 16  2  0
 16 17  1  0
 17 18  2  0
 18 19  1  0
 19 20  2  0
 17 21  1  0
 21 22  1  0
 22 23  2  0
 23 24  1  0
 24 25  1  0
  2 26  1  0
 26 27  2  0
 27 28  1  0
 28 29  2  0
 29 30  1  0
 30 31  2  0
 31 32  1  0
  8  4  2  0
 20 12  1  0
 25 21  2  0
 31 26  1  0
 20 15  1  0
  1 33  1  0
  1 34  1  0
  1 35  1  0
  2 36  1  1
  5 37  1  0
 10 38  1  0
 10 39  1  0
 13 40  1  0
 16 41  1  0
 18 42  1  0
 19 43  1  0
 22 44  1  0
 24 45  1  0
 25 46  1  0
 27 47  1  0
 28 48  1  0
 29 49  1  0
 30 50  1  0
M  END
$$$$
[H]O[C@]1([H])[C@]([H])(O[H])[C@]([H])(O[H])[C@]([H])(C([H])([H])OP(=O)(O[H])OP(=O)(O[H])O[H])[C@@]1([H])O[H]
     RDKit          3D

 33 33  0  0  0  0  0  0  0  0999 V2000
   -3.0542    0.6852    2.1119 O   0  0  0  0  0  0  0  0  0  0  0  0
   -2.2436    0.0308    1.1801 C   0  0  2  0  0  0  0  0  0  0  0  0
   -1.3552    1.0888    0.5597 C   0  0  1  0  0  0  0  0  0  0  0  0
   -0.0700    0.4518    0.0921 C   0  0  0  0  0  0  0  0  0  0  0  0
    0.6250   -0.1428    1.1408 O   0  0  0  0  0  0  0  0  0  0  0  0
    2.0396   -0.8355    0.5827 P   0  0  0  0  0  0  0  0  0  0  0  0
    1.9565   -2.5115    0.4762 O   0  0  0  0  0  0  0  0  0  0  0  0
    2.3431   -0.3173   -0.8266 O   0  0  0  0  0  0  0  0  0  0  0  0
    3.3579   -0.4090    1.5403 O   0  0  0  0  0  0  0  0  0  0  0  0
    4.7391   -0.4536    0.5627 P   0  0  0  0  0  0  0  0  0  0  0  0
    4.9438    1.0379   -0.1978 O   0  0  0  0  0  0  0  0  0  0  0  0
    6.1109   -0.8459    1.4703 O   0  0  0  0  0  0  0  0  0  0  0  0
    4.5852   -1.5159   -0.5001 O   0  0  0  0  0  0  0  0  0  0  0  0
   -2.1950    1.6087   -0.5521 C   0  0  1  0  0  0  0  0  0  0  0  0
   -1.5095    2.3637   -1.4825 O   0  0  0  0  0  0  0  0  0  0  0  0
   -2.8868    0.4188   -1.1232 C   0  0  1  0  0  0  0  0  0  0  0  0
   -2.2102   -0.1830   -2.1747 O   0  0  0  0  0  0  0  0  0  0  0  0
   -3.1091   -0.4802    0.0488 C   0  0  1  0  0  0  0  0  0  0  0  0
   -2.7775   -1.7968   -0.2967 O   0  0  0  0  0  0  0  0  0  0  0  0
   -3.7171    1.2294    1.6354 H   0  0  0  0  0  0  0  0  0  0  0  0
   -1.6665   -0.7956    1.6351 H   0  0  0  0  0  0  0  0  0  0  0  0
   -1.0896    1.8564    1.3254 H   0  0  0  0  0  0  0  0  0  0  0  0
   -0.3049   -0.3732   -0.6251 H   0  0  0  0  0  0  0  0  0  0  0  0
    0.5955    1.1394   -0.4229 H   0  0  0  0  0  0  0  0  0  0  0  0
    2.7149   -2.9564    0.9079 H   0  0  0  0  0  0  0  0  0  0  0  0
    5.4334    0.9452   -1.0568 H   0  0  0  0  0  0  0  0  0  0  0  0
    6.7865   -1.3404    0.9293 H   0  0  0  0  0  0  0  0  0  0  0  0
   -2.9818    2.2720   -0.0966 H   0  0  0  0  0  0  0  0  0  0  0  0
   -0.6101    2.6320   -1.1842 H   0  0  0  0  0  0  0  0  0  0  0  0
   -3.8595    0.7861   -1.5615 H   0  0  0  0  0  0  0  0  0  0  0  0
   -2.8440   -0.8155   -2.5995 H   0  0  0  0  0  0  0  0  0  0  0  0
   -4.1971   -0.4029    0.3240 H   0  0  0  0  0  0  0  0  0  0  0  0
   -3.5498   -2.3707   -0.0125 H   0  0  0  0  0  0  0  0  0  0  0  0
  1  2  1  0
  2  3  1  0
  3  4  1  0
  4  5  1  0
  5  6  1  0
  6  7  1  0
  6  8  2  0
  6  9  1  0
  9 10  1  0
 10 11  1  0
 10 12  1  0
 10 13  2  0
  3 14  1  0
 14 15  1  0
 14 16  1  0
 16 17  1  0
 16 18  1  0
 18 19  1  0
 18  2  1  0
  1 20  1  0
  2 21  1  1
  3 22  1  1
  4 23  1  0
  4 24  1  0
  7 25  1  0
 11 26  1  0
 12 27  1  0
 14 28  1  1
 15 29  1  0
 16 30  1  6
 17 31  1  0
 18 32  1  1
 19 33  1  0
M  END
$$$$
[H]c1c([H])c(C2=C(C([H])([H])N3C([H])([H])C([H])([H])N(c4c([H])c([H])c(C(=O)N([H])S(=O)(=O)c5c([H])c([H])c(N([H])C([H])([H])C([H])([H])C([H])([H])N6C([H])([H])C([H])([H])OC([H])([H])C6([H])[H])c([N+](=O)[O-])c5[H])c(Oc5c([H])c([H])c([H])c6c5c([H])c([H])n6[H])c4[H])C([H])([H])C3([H])[H])C([H])([H])C([H])([H])C(C([H])([H])[H])(C([H])([H])[H])C2([H])[H])c([H])c([H])c1Cl
     RDKit          3D

117124  0  0  0  0  0  0  0  0999 V2000
  -10.7476    2.7347    0.6333 C   0  0  0  0  0  0  0  0  0  0  0  0
   -9.6976    2.9855   -0.4360 C   0  0  0  0  0  0  0  0  0  0  0  0
  -10.0881    4.2618   -1.1483 C   0  0  0  0  0  0  0  0  0  0  0  0
   -8.4045    3.2317    0.2969 C   0  0  0  0  0  0  0  0  0  0  0  0
   -7.2327    2.6237   -0.4470 C   0  0  0  0  0  0  0  0  0  0  0  0
   -7.4880    1.1364   -0.4430 C   0  0  0  0  0  0  0  0  0  0  0  0
   -6.5168    0.1840    0.0381 C   0  0  0  0  0  0  0  0  0  0  0  0
   -6.1071    0.2022    1.3916 N   0  0  0  0  0  0  0  0  0  0  0  0
   -5.3478   -1.0531    1.6364 C   0  0  0  0  0  0  0  0  0  0  0  0
   -4.0229   -1.0599    0.9185 C   0  0  0  0  0  0  0  0  0  0  0  0
   -3.2778    0.1674    1.2291 N   0  0  0  0  0  0  0  0  0  0  0  0
   -3.9545    1.4154    1.3441 C   0  0  0  0  0  0  0  0  0  0  0  0
   -5.3412    1.2300    1.9498 C   0  0  0  0  0  0  0  0  0  0  0  0
   -1.8817    0.0434    1.3973 C   0  0  0  0  0  0  0  0  0  0  0  0
   -1.0822    0.9016    2.1151 C   0  0  0  0  0  0  0  0  0  0  0  0
    0.2633    0.7440    2.2710 C   0  0  0  0  0  0  0  0  0  0  0  0
    0.9245   -0.3452    1.6830 C   0  0  0  0  0  0  0  0  0  0  0  0
    2.3562   -0.4703    1.9232 C   0  0  0  0  0  0  0  0  0  0  0  0
    2.9393    0.4383    2.6285 O   0  0  0  0  0  0  0  0  0  0  0  0
    3.2071   -1.4923    1.4695 N   0  0  0  0  0  0  0  0  0  0  0  0
    4.9039   -1.4571    1.8953 S   0  0  0  0  0  0  0  0  0  0  0  0
    5.4306   -2.8625    1.9835 O   0  0  0  0  0  0  0  0  0  0  0  0
    5.0348   -0.8646    3.2884 O   0  0  0  0  0  0  0  0  0  0  0  0
    5.8163   -0.5252    0.7372 C   0  0  0  0  0  0  0  0  0  0  0  0
    6.1686    0.7923    1.0132 C   0  0  0  0  0  0  0  0  0  0  0  0
    6.8919    1.4825    0.0691 C   0  0  0  0  0  0  0  0  0  0  0  0
    7.2857    0.9250   -1.1446 C   0  0  0  0  0  0  0  0  0  0  0  0
    7.9763    1.7136   -2.0896 N   0  0  0  0  0  0  0  0  0  0  0  0
    8.5561    2.9930   -1.7593 C   0  0  0  0  0  0  0  0  0  0  0  0
    9.7568    2.8052   -0.8155 C   0  0  0  0  0  0  0  0  0  0  0  0
   10.8047    1.9452   -1.4991 C   0  0  0  0  0  0  0  0  0  0  0  0
   11.9571    1.7035   -0.7187 N   0  0  0  0  0  0  0  0  0  0  0  0
   11.7851    0.8854    0.4337 C   0  0  0  0  0  0  0  0  0  0  0  0
   13.1261    0.3073    0.8380 C   0  0  0  0  0  0  0  0  0  0  0  0
   14.1271    0.7910    0.0232 O   0  0  0  0  0  0  0  0  0  0  0  0
   14.1186    2.1942    0.1255 C   0  0  0  0  0  0  0  0  0  0  0  0
   12.8941    2.7659   -0.6045 C   0  0  0  0  0  0  0  0  0  0  0  0
    6.9220   -0.3819   -1.3888 C   0  0  0  0  0  0  0  0  0  0  0  0
    6.1824   -1.1148   -0.4445 C   0  0  0  0  0  0  0  0  0  0  0  0
    7.2445   -1.1028   -2.5662 N   0  0  0  0  0  0  0  0  0  0  0  0
    8.3622   -0.8440   -3.2933 O   0  0  0  0  0  0  0  0  0  0  0  0
    6.5061   -2.0225   -2.9998 O   0  0  0  0  0  0  0  0  0  0  0  0
    0.1569   -1.2233    0.9558 C   0  0  0  0  0  0  0  0  0  0  0  0
    0.7801   -2.3059    0.3639 O   0  0  0  0  0  0  0  0  0  0  0  0
    0.2372   -3.3260   -0.3449 C   0  0  0  0  0  0  0  0  0  0  0  0
    0.5845   -3.4482   -1.7018 C   0  0  0  0  0  0  0  0  0  0  0  0
    0.0560   -4.4729   -2.4565 C   0  0  0  0  0  0  0  0  0  0  0  0
   -0.8065   -5.3869   -1.9197 C   0  0  0  0  0  0  0  0  0  0  0  0
   -1.1340   -5.2504   -0.5858 C   0  0  0  0  0  0  0  0  0  0  0  0
   -1.9420   -6.0269    0.1526 N   0  0  0  0  0  0  0  0  0  0  0  0
   -1.9555   -5.5253    1.3965 C   0  0  0  0  0  0  0  0  0  0  0  0
   -1.1542   -4.4202    1.4668 C   0  0  0  0  0  0  0  0  0  0  0  0
   -0.6225   -4.2329    0.2033 C   0  0  0  0  0  0  0  0  0  0  0  0
   -1.2035   -1.0339    0.8173 C   0  0  0  0  0  0  0  0  0  0  0  0
   -8.6839    0.7400   -0.8951 C   0  0  0  0  0  0  0  0  0  0  0  0
   -9.6662    1.8057   -1.3534 C   0  0  0  0  0  0  0  0  0  0  0  0
   -9.0485   -0.6374   -1.0486 C   0  0  0  0  0  0  0  0  0  0  0  0
   -8.4193   -1.5728   -1.8188 C   0  0  0  0  0  0  0  0  0  0  0  0
   -8.8457   -2.8720   -1.8805 C   0  0  0  0  0  0  0  0  0  0  0  0
   -9.9477   -3.2924   -1.1535 C   0  0  0  0  0  0  0  0  0  0  0  0
  -10.5350   -4.9415   -1.1939 Cl  0  0  0  0  0  0  0  0  0  0  0  0
  -10.5945   -2.3574   -0.3703 C   0  0  0  0  0  0  0  0  0  0  0  0
  -10.1622   -1.0554   -0.3119 C   0  0  0  0  0  0  0  0  0  0  0  0
  -10.8280    3.6826    1.2137 H   0  0  0  0  0  0  0  0  0  0  0  0
  -10.3153    1.9960    1.3478 H   0  0  0  0  0  0  0  0  0  0  0  0
  -11.7122    2.4227    0.2263 H   0  0  0  0  0  0  0  0  0  0  0  0
  -11.0510    4.1284   -1.6830 H   0  0  0  0  0  0  0  0  0  0  0  0
  -10.2747    5.0266   -0.3666 H   0  0  0  0  0  0  0  0  0  0  0  0
   -9.3308    4.6474   -1.8311 H   0  0  0  0  0  0  0  0  0  0  0  0
   -8.2778    4.3221    0.4186 H   0  0  0  0  0  0  0  0  0  0  0  0
   -8.4209    2.7146    1.3003 H   0  0  0  0  0  0  0  0  0  0  0  0
   -6.3232    2.8460    0.0771 H   0  0  0  0  0  0  0  0  0  0  0  0
   -7.2179    2.9841   -1.5132 H   0  0  0  0  0  0  0  0  0  0  0  0
   -5.5492    0.4295   -0.5567 H   0  0  0  0  0  0  0  0  0  0  0  0
   -6.6698   -0.8800   -0.2604 H   0  0  0  0  0  0  0  0  0  0  0  0
   -5.9484   -1.8761    1.2030 H   0  0  0  0  0  0  0  0  0  0  0  0
   -5.2503   -1.2091    2.7174 H   0  0  0  0  0  0  0  0  0  0  0  0
   -4.0916   -1.1583   -0.1652 H   0  0  0  0  0  0  0  0  0  0  0  0
   -3.4520   -1.9071    1.3429 H   0  0  0  0  0  0  0  0  0  0  0  0
   -3.4277    2.1011    2.0212 H   0  0  0  0  0  0  0  0  0  0  0  0
   -4.0242    1.9418    0.3510 H   0  0  0  0  0  0  0  0  0  0  0  0
   -5.7989    2.1923    2.1668 H   0  0  0  0  0  0  0  0  0  0  0  0
   -5.0769    0.8501    3.0196 H   0  0  0  0  0  0  0  0  0  0  0  0
   -1.5905    1.7663    2.5891 H   0  0  0  0  0  0  0  0  0  0  0  0
    0.8228    1.4639    2.8522 H   0  0  0  0  0  0  0  0  0  0  0  0
    2.9332   -2.3144    0.8777 H   0  0  0  0  0  0  0  0  0  0  0  0
    5.8580    1.2131    1.9587 H   0  0  0  0  0  0  0  0  0  0  0  0
    7.1368    2.5026    0.3169 H   0  0  0  0  0  0  0  0  0  0  0  0
    8.0818    1.4165   -3.0715 H   0  0  0  0  0  0  0  0  0  0  0  0
    8.9455    3.5164   -2.6387 H   0  0  0  0  0  0  0  0  0  0  0  0
    7.8675    3.6673   -1.2185 H   0  0  0  0  0  0  0  0  0  0  0  0
    9.4766    2.3908    0.1585 H   0  0  0  0  0  0  0  0  0  0  0  0
   10.1722    3.8197   -0.6489 H   0  0  0  0  0  0  0  0  0  0  0  0
   11.1270    2.4911   -2.4314 H   0  0  0  0  0  0  0  0  0  0  0  0
   10.3637    0.9875   -1.8515 H   0  0  0  0  0  0  0  0  0  0  0  0
   11.3514    1.4074    1.3136 H   0  0  0  0  0  0  0  0  0  0  0  0
   11.0670    0.0780    0.1847 H   0  0  0  0  0  0  0  0  0  0  0  0
   13.0781   -0.8048    0.7309 H   0  0  0  0  0  0  0  0  0  0  0  0
   13.3616    0.5607    1.8885 H   0  0  0  0  0  0  0  0  0  0  0  0
   14.1454    2.5097    1.1865 H   0  0  0  0  0  0  0  0  0  0  0  0
   15.0668    2.5396   -0.3548 H   0  0  0  0  0  0  0  0  0  0  0  0
   13.2440    3.0142   -1.6461 H   0  0  0  0  0  0  0  0  0  0  0  0
   12.5064    3.6599   -0.0827 H   0  0  0  0  0  0  0  0  0  0  0  0
    5.9097   -2.1587   -0.6766 H   0  0  0  0  0  0  0  0  0  0  0  0
    1.2615   -2.7534   -2.1743 H   0  0  0  0  0  0  0  0  0  0  0  0
    0.3471   -4.5341   -3.4971 H   0  0  0  0  0  0  0  0  0  0  0  0
   -1.2029   -6.1794   -2.5433 H   0  0  0  0  0  0  0  0  0  0  0  0
   -2.4790   -6.8837   -0.1746 H   0  0  0  0  0  0  0  0  0  0  0  0
   -2.5108   -5.9168    2.2424 H   0  0  0  0  0  0  0  0  0  0  0  0
   -0.9397   -3.7749    2.3312 H   0  0  0  0  0  0  0  0  0  0  0  0
   -1.8054   -1.7144    0.2244 H   0  0  0  0  0  0  0  0  0  0  0  0
   -9.2717    2.1322   -2.3407 H   0  0  0  0  0  0  0  0  0  0  0  0
  -10.6417    1.3439   -1.5262 H   0  0  0  0  0  0  0  0  0  0  0  0
   -7.5540   -1.2652   -2.4071 H   0  0  0  0  0  0  0  0  0  0  0  0
   -8.3489   -3.6287   -2.4940 H   0  0  0  0  0  0  0  0  0  0  0  0
  -11.4709   -2.6325    0.2274 H   0  0  0  0  0  0  0  0  0  0  0  0
  -10.7121   -0.3465    0.3293 H   0  0  0  0  0  0  0  0  0  0  0  0
  1  2  1  0
  2  3  1  0
  2  4  1  0
  4  5  1  0
  5  6  1  0
  6  7  1  0
  7  8  1  0
  8  9  1  0
  9 10  1  0
 10 11  1  0
 11 12  1  0
 12 13  1  0
 11 14  1  0
 14 15  2  0
 15 16  1  0
 16 17  2  0
 17 18  1  0
 18 19  2  0
 18 20  1  0
 20 21  1  0
 21 22  2  0
 21 23  2  0
 21 24  1  0
 24 25  2  0
 25 26  1  0
 26 27  2  0
 27 28  1  0
 28 29  1  0
 29 30  1  0
 30 31  1  0
 31 32  1  0
 32 33  1  0
 33 34  1  0
 34 35  1  0
 35 36  1  0
 36 37  1  0
 27 38  1  0
 38 39  2  0
 38 40  1  0
 40 41  1  0
 40 42  2  0
 17 43  1  0
 43 44  1  0
 44 45  1  0
 45 46  2  0
 46 47  1  0
 47 48  2  0
 48 49  1  0
 49 50  1  0
 50 51  1  0
 51 52  2  0
 52 53  1  0
 43 54  2  0
  6 55  2  0
 55 56  1  0
 55 57  1  0
 57 58  2  0
 58 59  1  0
 59 60  2  0
 60 61  1  0
 60 62  1  0
 62 63  2  0
 56  2  1  0
 63 57  1  0
 13  8  1  0
 54 14  1  0
 39 24  1  0
 53 45  1  0
 37 32  1  0
 53 49  2  0
  1 64  1  0
  1 65  1  0
  1 66  1  0
  3 67  1  0
  3 68  1  0
  3 69  1  0
  4 70  1  0
  4 71  1  0
  5 72  1  0
  5 73  1  0
  7 74  1  0
  7 75  1  0
  9 76  1  0
  9 77  1  0
 10 78  1  0
 10 79  1  0
 12 80  1  0
 12 81  1  0
 13 82  1  0
 13 83  1  0
 15 84  1  0
 16 85  1  0
 20 86  1  0
 25 87  1  0
 26 88  1  0
 28 89  1  0
 29 90  1  0
 29 91  1  0
 30 92  1  0
 30 93  1  0
 31 94  1  0
 31 95  1  0
 33 96  1  0
 33 97  1  0
 34 98  1  0
 34 99  1  0
 36100  1  0
 36101  1  0
 37102  1  0
 37103  1  0
 39104  1  0
 46105  1  0
 47106  1  0
 48107  1  0
 50108  1  0
 51109  1  0
 52110  1  0
 54111  1  0
 56112  1  0
 56113  1  0
 58114  1  0
 59115  1  0
 62116  1  0
 63117  1  0
M  CHG  2  40   1  41  -1
M  END
$$$$
[H]c1c([H])c([H])c2c(nc(-c3c(N([H])[C@]4([H])C([H])([H])C([H])([H])[C@@]([H])(N([H])[H])C([H])([H])C4([H])[H])c([H])c([H])n([H])c3=O)c(=O)n2[H])c1[H]
     RDKit          3D

 47 50  0  0  0  0  0  0  0  0999 V2000
    4.2265   -0.2712   -2.7460 N   0  0  0  0  0  0  0  0  0  0  0  0
    3.3846    0.2726   -1.6688 C   0  0  1  0  0  0  0  0  0  0  0  0
    2.0204   -0.3507   -1.8588 C   0  0  0  0  0  0  0  0  0  0  0  0
    2.0075   -1.6588   -1.1007 C   0  0  0  0  0  0  0  0  0  0  0  0
    1.9346   -1.3081    0.3850 C   0  0  1  0  0  0  0  0  0  0  0  0
    3.0709   -0.3771    0.7562 C   0  0  0  0  0  0  0  0  0  0  0  0
    4.0182   -0.1051   -0.3819 C   0  0  0  0  0  0  0  0  0  0  0  0
    0.6774   -0.6719    0.6938 N   0  0  0  0  0  0  0  0  0  0  0  0
    0.2639   -0.2877    1.9748 C   0  0  0  0  0  0  0  0  0  0  0  0
    0.9921   -0.5323    3.1019 C   0  0  0  0  0  0  0  0  0  0  0  0
    0.4631   -0.1060    4.3227 C   0  0  0  0  0  0  0  0  0  0  0  0
   -0.7097    0.5198    4.4116 N   0  0  0  0  0  0  0  0  0  0  0  0
   -1.4368    0.7670    3.3134 C   0  0  0  0  0  0  0  0  0  0  0  0
   -2.5576    1.3608    3.3657 O   0  0  0  0  0  0  0  0  0  0  0  0
   -0.9594    0.3685    2.0977 C   0  0  0  0  0  0  0  0  0  0  0  0
   -1.7785    0.6517    0.8996 C   0  0  0  0  0  0  0  0  0  0  0  0
   -2.6610   -0.3136    0.5650 N   0  0  0  0  0  0  0  0  0  0  0  0
   -3.4340   -0.1107   -0.5170 C   0  0  0  0  0  0  0  0  0  0  0  0
   -4.3519   -1.0995   -0.8765 C   0  0  0  0  0  0  0  0  0  0  0  0
   -5.1409   -0.8861   -1.9859 C   0  0  0  0  0  0  0  0  0  0  0  0
   -5.0370    0.2710   -2.7317 C   0  0  0  0  0  0  0  0  0  0  0  0
   -4.1324    1.2570   -2.3860 C   0  0  0  0  0  0  0  0  0  0  0  0
   -3.3294    1.0470   -1.2626 C   0  0  0  0  0  0  0  0  0  0  0  0
   -2.4356    1.9807   -0.8905 N   0  0  0  0  0  0  0  0  0  0  0  0
   -1.6378    1.8229    0.1875 C   0  0  0  0  0  0  0  0  0  0  0  0
   -0.8036    2.6806    0.5450 O   0  0  0  0  0  0  0  0  0  0  0  0
    4.5889   -1.2280   -2.4676 H   0  0  0  0  0  0  0  0  0  0  0  0
    5.0709    0.3180   -2.9051 H   0  0  0  0  0  0  0  0  0  0  0  0
    3.3549    1.3750   -1.8457 H   0  0  0  0  0  0  0  0  0  0  0  0
    1.8361   -0.5043   -2.9459 H   0  0  0  0  0  0  0  0  0  0  0  0
    1.2608    0.3477   -1.4704 H   0  0  0  0  0  0  0  0  0  0  0  0
    2.8673   -2.2832   -1.3336 H   0  0  0  0  0  0  0  0  0  0  0  0
    1.0222   -2.1465   -1.3370 H   0  0  0  0  0  0  0  0  0  0  0  0
    1.9694   -2.2696    0.9349 H   0  0  0  0  0  0  0  0  0  0  0  0
    3.6967   -0.9430    1.5124 H   0  0  0  0  0  0  0  0  0  0  0  0
    2.7257    0.5313    1.2846 H   0  0  0  0  0  0  0  0  0  0  0  0
    4.6585    0.7540   -0.0524 H   0  0  0  0  0  0  0  0  0  0  0  0
    4.7436   -0.9620   -0.4833 H   0  0  0  0  0  0  0  0  0  0  0  0
    0.0298   -0.4963   -0.1311 H   0  0  0  0  0  0  0  0  0  0  0  0
    1.9451   -1.0422    3.0745 H   0  0  0  0  0  0  0  0  0  0  0  0
    1.0417   -0.2999    5.2195 H   0  0  0  0  0  0  0  0  0  0  0  0
   -1.1133    0.8431    5.3279 H   0  0  0  0  0  0  0  0  0  0  0  0
   -4.4443   -2.0222   -0.2933 H   0  0  0  0  0  0  0  0  0  0  0  0
   -5.8814   -1.6227   -2.3219 H   0  0  0  0  0  0  0  0  0  0  0  0
   -5.6700    0.4070   -3.5951 H   0  0  0  0  0  0  0  0  0  0  0  0
   -4.0212    2.1772   -2.9448 H   0  0  0  0  0  0  0  0  0  0  0  0
   -2.3348    2.8720   -1.4401 H   0  0  0  0  0  0  0  0  0  0  0  0
  1  2  1  0
  2  3  1  0
  3  4  1  0
  4  5  1  0
  5  6  1  0
  6  7  1  0
  5  8  1  0
  8  9  1  0
  9 10  1  0
 10 11  2  0
 11 12  1  0
 12 13  1  0
 13 14  2  0
 13 15  1  0
 15 16  1  0
 16 17  2  0
 17 18  1  0
 18 19  2  0
 19 20  1  0
 20 21  2  0
 21 22  1  0
 22 23  2  0
 23 24  1  0
 24 25  1  0
 25 26  2  0
  7  2  1  0
 15  9  2  0
 25 16  1  0
 23 18  1  0
  1 27  1  0
  1 28  1  0
  2 29  1  6
  3 30  1  0
  3 31  1  0
  4 32  1  0
  4 33  1  0
  5 34  1  1
  6 35  1  0
  6 36  1  0
  7 37  1  0
  7 38  1  0
  8 39  1  0
 10 40  1  0
 11 41  1  0
 12 42  1  0
 19 43  1  0
 20 44  1  0
 21 45  1  0
 22 46  1  0
 24 47  1  0
M  END
$$$$
[H]c1nn(C([H])([H])[H])c([H])c1-c1c([H])c([H])c2c(nc([H])n2-c2sc(C(=O)N([H])[H])c(O[C@@]([H])(c3c([H])c([H])c([H])c([H])c3C(F)(F)F)C([H])([H])[H])c2[H])c1[H]
     RDKit          3D

 56 60  0  0  0  0  0  0  0  0999 V2000
   -4.1365    1.2522    2.2768 C   0  0  0  0  0  0  0  0  0  0  0  0
   -4.0592    0.8821    0.7486 C   0  0  1  0  0  0  0  0  0  0  0  0
   -3.6078   -0.4632    0.7016 O   0  0  0  0  0  0  0  0  0  0  0  0
   -2.2321   -0.8114    0.7287 C   0  0  0  0  0  0  0  0  0  0  0  0
   -1.2461    0.0976    0.8103 C   0  0  0  0  0  0  0  0  0  0  0  0
    0.0478   -0.3789    0.8282 C   0  0  0  0  0  0  0  0  0  0  0  0
   -0.1746   -2.0674    0.7303 S   0  0  0  0  0  0  0  0  0  0  0  0
   -1.8707   -2.1274    0.6703 C   0  0  0  0  0  0  0  0  0  0  0  0
   -2.7561   -3.3107    0.5786 C   0  0  0  0  0  0  0  0  0  0  0  0
   -2.1265   -4.5729    0.5147 N   0  0  0  0  0  0  0  0  0  0  0  0
   -4.0001   -3.2261    0.5565 O   0  0  0  0  0  0  0  0  0  0  0  0
    1.2498    0.3967    0.9162 N   0  0  0  0  0  0  0  0  0  0  0  0
    1.3556    1.6542    1.3702 C   0  0  0  0  0  0  0  0  0  0  0  0
    2.6420    2.0507    1.3070 N   0  0  0  0  0  0  0  0  0  0  0  0
    3.3726    1.0354    0.8061 C   0  0  0  0  0  0  0  0  0  0  0  0
    4.7134    0.8785    0.5285 C   0  0  0  0  0  0  0  0  0  0  0  0
    5.2465   -0.2717    0.0113 C   0  0  0  0  0  0  0  0  0  0  0  0
    4.3726   -1.3064   -0.2333 C   0  0  0  0  0  0  0  0  0  0  0  0
    3.0132   -1.1683    0.0402 C   0  0  0  0  0  0  0  0  0  0  0  0
    2.4683   -0.0089    0.5633 C   0  0  0  0  0  0  0  0  0  0  0  0
    6.6732   -0.3954   -0.2645 C   0  0  0  0  0  0  0  0  0  0  0  0
    7.4516   -1.5453   -0.2067 C   0  0  0  0  0  0  0  0  0  0  0  0
    8.7005   -1.1852   -0.5372 N   0  0  0  0  0  0  0  0  0  0  0  0
    8.7701    0.1024   -0.7990 N   0  0  0  0  0  0  0  0  0  0  0  0
   10.0052    0.7759   -1.1868 C   0  0  0  0  0  0  0  0  0  0  0  0
    7.5537    0.6011   -0.6401 C   0  0  0  0  0  0  0  0  0  0  0  0
   -5.4023    0.9724    0.1776 C   0  0  0  0  0  0  0  0  0  0  0  0
   -6.4776    1.0115    1.0664 C   0  0  0  0  0  0  0  0  0  0  0  0
   -7.7747    1.0989    0.6106 C   0  0  0  0  0  0  0  0  0  0  0  0
   -8.0665    1.1515   -0.7354 C   0  0  0  0  0  0  0  0  0  0  0  0
   -6.9990    1.1120   -1.5989 C   0  0  0  0  0  0  0  0  0  0  0  0
   -5.6615    1.0225   -1.1600 C   0  0  0  0  0  0  0  0  0  0  0  0
   -4.5697    0.9723   -2.1421 C   0  0  0  0  0  0  0  0  0  0  0  0
   -5.1737    1.1427   -3.4155 F   0  0  0  0  0  0  0  0  0  0  0  0
   -3.6501    1.9866   -2.0361 F   0  0  0  0  0  0  0  0  0  0  0  0
   -3.9906   -0.2859   -2.2663 F   0  0  0  0  0  0  0  0  0  0  0  0
   -4.5344    0.4152    2.8484 H   0  0  0  0  0  0  0  0  0  0  0  0
   -4.7119    2.1823    2.3087 H   0  0  0  0  0  0  0  0  0  0  0  0
   -3.0800    1.4950    2.5439 H   0  0  0  0  0  0  0  0  0  0  0  0
   -3.2915    1.5329    0.3773 H   0  0  0  0  0  0  0  0  0  0  0  0
   -1.3882    1.2046    0.8666 H   0  0  0  0  0  0  0  0  0  0  0  0
   -2.2927   -5.2942    1.2386 H   0  0  0  0  0  0  0  0  0  0  0  0
   -1.4845   -4.7905   -0.2675 H   0  0  0  0  0  0  0  0  0  0  0  0
    0.4965    2.2170    1.7224 H   0  0  0  0  0  0  0  0  0  0  0  0
    5.4021    1.6955    0.7214 H   0  0  0  0  0  0  0  0  0  0  0  0
    4.7388   -2.2301   -0.6385 H   0  0  0  0  0  0  0  0  0  0  0  0
    2.3362   -1.9998   -0.1628 H   0  0  0  0  0  0  0  0  0  0  0  0
    7.0571   -2.5012    0.0596 H   0  0  0  0  0  0  0  0  0  0  0  0
    9.8410    1.4635   -2.0430 H   0  0  0  0  0  0  0  0  0  0  0  0
   10.7954    0.0441   -1.4476 H   0  0  0  0  0  0  0  0  0  0  0  0
   10.3807    1.3564   -0.3245 H   0  0  0  0  0  0  0  0  0  0  0  0
    7.3038    1.6603   -0.7911 H   0  0  0  0  0  0  0  0  0  0  0  0
   -6.3246    0.9736    2.1447 H   0  0  0  0  0  0  0  0  0  0  0  0
   -8.6373    1.1313    1.2818 H   0  0  0  0  0  0  0  0  0  0  0  0
   -9.0742    1.2206   -1.1325 H   0  0  0  0  0  0  0  0  0  0  0  0
   -7.1933    1.1516   -2.6646 H   0  0  0  0  0  0  0  0  0  0  0  0
  1  2  1  0
  2  3  1  0
  3  4  1  0
  4  5  1  0
  5  6  2  0
  6  7  1  0
  7  8  1  0
  8  9  1  0
  9 10  1  0
  9 11  2  0
  6 12  1  0
 12 13  1  0
 13 14  2  0
 14 15  1  0
 15 16  2  0
 16 17  1  0
 17 18  2  0
 18 19  1  0
 19 20  2  0
 17 21  1  0
 21 22  1  0
 22 23  2  0
 23 24  1  0
 24 25  1  0
 24 26  1  0
  2 27  1  0
 27 28  2  0
 28 29  1  0
 29 30  2  0
 30 31  1  0
 31 32  2  0
 32 33  1  0
 33 34  1  0
 33 35  1  0
 33 36  1  0
  8  4  2  0
 20 12  1  0
 26 21  2  0
 32 27  1  0
 20 15  1  0
  1 37  1  0
  1 38  1  0
  1 39  1  0
  2 40  1  6
  5 41  1  0
 10 42  1  0
 10 43  1  0
 13 44  1  0
 16 45  1  0
 18 46  1  0
 19 47  1  0
 22 48  1  0
 25 49  1  0
 25 50  1  0
 25 51  1  0
 26 52  1  0
 28 53  1  0
 29 54  1  0
 30 55  1  0
 31 56  1  0
M  END
$$$$
[H]N=C(N([H])[H])N([H])C([H])([H])C([H])([H])C([H])([H])[C@@]([H])(C(=O)c1nc2c([H])c([H])c([H])c([H])c2s1)N([H])C(=O)[C@@]1([H])N(C(=O)[C@@]([H])(N([H])C(=O)OC([H])([H])c2c([H])c([H])c([H])c([H])c2[H])C([H])([H])c2c([H])c([H])c([H])c([H])c2[H])C([H])([H])C([H])([H])C1([H])[H]
     RDKit          3D

 87 91  0  0  0  0  0  0  0  0999 V2000
    3.2023   -4.3096   -1.4686 N   0  0  0  0  0  0  0  0  0  0  0  0
    2.2020   -4.1034   -0.5191 C   0  0  0  0  0  0  0  0  0  0  0  0
    0.9869   -4.4673   -0.8086 N   0  0  0  0  0  0  0  0  0  0  0  0
    2.3768   -3.5227    0.7654 N   0  0  0  0  0  0  0  0  0  0  0  0
    3.1763   -2.3681    1.0350 C   0  0  0  0  0  0  0  0  0  0  0  0
    2.6086   -1.0767    0.4332 C   0  0  0  0  0  0  0  0  0  0  0  0
    3.5502    0.0023    0.8315 C   0  0  0  0  0  0  0  0  0  0  0  0
    3.2429    1.3882    0.3546 C   0  0  2  0  0  0  0  0  0  0  0  0
    1.9505    1.9008    0.8273 N   0  0  0  0  0  0  0  0  0  0  0  0
    1.8490    2.6428    2.0194 C   0  0  0  0  0  0  0  0  0  0  0  0
    2.9939    2.7845    2.6309 O   0  0  0  0  0  0  0  0  0  0  0  0
    0.6969    3.2213    2.5733 C   0  0  2  0  0  0  0  0  0  0  0  0
    0.5945    3.3731    4.0858 C   0  0  0  0  0  0  0  0  0  0  0  0
   -0.6628    4.2655    4.1195 C   0  0  0  0  0  0  0  0  0  0  0  0
   -1.3455    4.0816    2.7482 C   0  0  0  0  0  0  0  0  0  0  0  0
   -0.6523    2.8416    2.2956 N   0  0  0  0  0  0  0  0  0  0  0  0
   -1.2769    1.6730    1.9096 C   0  0  0  0  0  0  0  0  0  0  0  0
   -0.5023    0.6104    2.0281 O   0  0  0  0  0  0  0  0  0  0  0  0
   -2.5929    1.3269    1.3941 C   0  0  2  0  0  0  0  0  0  0  0  0
   -3.7772    2.1517    1.7146 C   0  0  0  0  0  0  0  0  0  0  0  0
   -5.0322    1.5611    1.0919 C   0  0  0  0  0  0  0  0  0  0  0  0
   -5.4279    1.9549   -0.1682 C   0  0  0  0  0  0  0  0  0  0  0  0
   -6.5677    1.4055   -0.7141 C   0  0  0  0  0  0  0  0  0  0  0  0
   -7.3349    0.4732   -0.0512 C   0  0  0  0  0  0  0  0  0  0  0  0
   -6.9389    0.0778    1.2122 C   0  0  0  0  0  0  0  0  0  0  0  0
   -5.8013    0.6302    1.7501 C   0  0  0  0  0  0  0  0  0  0  0  0
   -2.8715   -0.1018    1.4613 N   0  0  0  0  0  0  0  0  0  0  0  0
   -2.7201   -0.9643    0.3590 C   0  0  0  0  0  0  0  0  0  0  0  0
   -2.3298   -0.5792   -0.7765 O   0  0  0  0  0  0  0  0  0  0  0  0
   -3.0127   -2.3091    0.5239 O   0  0  0  0  0  0  0  0  0  0  0  0
   -2.9148   -3.2905   -0.4463 C   0  0  0  0  0  0  0  0  0  0  0  0
   -3.7542   -3.1233   -1.6447 C   0  0  0  0  0  0  0  0  0  0  0  0
   -3.5116   -3.8957   -2.7895 C   0  0  0  0  0  0  0  0  0  0  0  0
   -4.2815   -3.7569   -3.9181 C   0  0  0  0  0  0  0  0  0  0  0  0
   -5.3191   -2.8476   -3.9509 C   0  0  0  0  0  0  0  0  0  0  0  0
   -5.5649   -2.0828   -2.8267 C   0  0  0  0  0  0  0  0  0  0  0  0
   -4.7842   -2.2271   -1.6899 C   0  0  0  0  0  0  0  0  0  0  0  0
    3.3824    1.5804   -1.0979 C   0  0  0  0  0  0  0  0  0  0  0  0
    2.4275    2.0311   -1.8151 O   0  0  0  0  0  0  0  0  0  0  0  0
    4.6160    1.2754   -1.8219 C   0  0  0  0  0  0  0  0  0  0  0  0
    5.7657    0.8194   -1.3742 N   0  0  0  0  0  0  0  0  0  0  0  0
    6.7660    0.6203   -2.1781 C   0  0  0  0  0  0  0  0  0  0  0  0
    8.0442    0.1425   -1.8213 C   0  0  0  0  0  0  0  0  0  0  0  0
    8.9984   -0.0130   -2.7731 C   0  0  0  0  0  0  0  0  0  0  0  0
    8.8242    0.2651   -4.1094 C   0  0  0  0  0  0  0  0  0  0  0  0
    7.5819    0.7322   -4.4689 C   0  0  0  0  0  0  0  0  0  0  0  0
    6.5728    0.9040   -3.5080 C   0  0  0  0  0  0  0  0  0  0  0  0
    4.9527    1.4416   -3.5109 S   0  0  0  0  0  0  0  0  0  0  0  0
    3.0407   -4.8783   -2.3073 H   0  0  0  0  0  0  0  0  0  0  0  0
    4.1471   -3.8819   -1.3334 H   0  0  0  0  0  0  0  0  0  0  0  0
    0.2088   -4.3431   -0.1540 H   0  0  0  0  0  0  0  0  0  0  0  0
    1.8563   -4.0221    1.5522 H   0  0  0  0  0  0  0  0  0  0  0  0
    4.2027   -2.5651    0.6125 H   0  0  0  0  0  0  0  0  0  0  0  0
    3.3125   -2.2781    2.1146 H   0  0  0  0  0  0  0  0  0  0  0  0
    2.5310   -1.1593   -0.6647 H   0  0  0  0  0  0  0  0  0  0  0  0
    1.6413   -0.9310    0.9304 H   0  0  0  0  0  0  0  0  0  0  0  0
    4.5835   -0.2925    0.5708 H   0  0  0  0  0  0  0  0  0  0  0  0
    3.5498   -0.0027    1.9736 H   0  0  0  0  0  0  0  0  0  0  0  0
    4.0380    2.0226    0.8657 H   0  0  0  0  0  0  0  0  0  0  0  0
    1.1601    1.6889    0.1888 H   0  0  0  0  0  0  0  0  0  0  0  0
    0.6775    4.3695    2.2207 H   0  0  0  0  0  0  0  0  0  0  0  0
    1.4518    3.8445    4.5531 H   0  0  0  0  0  0  0  0  0  0  0  0
    0.3982    2.4076    4.5648 H   0  0  0  0  0  0  0  0  0  0  0  0
   -1.3323    3.9138    4.8993 H   0  0  0  0  0  0  0  0  0  0  0  0
   -0.3046    5.2910    4.1801 H   0  0  0  0  0  0  0  0  0  0  0  0
   -1.0268    4.8651    2.0607 H   0  0  0  0  0  0  0  0  0  0  0  0
   -2.4026    3.9911    2.8729 H   0  0  0  0  0  0  0  0  0  0  0  0
   -2.4641    1.5224    0.2245 H   0  0  0  0  0  0  0  0  0  0  0  0
   -3.6886    3.1993    1.3003 H   0  0  0  0  0  0  0  0  0  0  0  0
   -3.9546    2.1865    2.7916 H   0  0  0  0  0  0  0  0  0  0  0  0
   -4.8369    2.6810   -0.6895 H   0  0  0  0  0  0  0  0  0  0  0  0
   -6.8743    1.7162   -1.6968 H   0  0  0  0  0  0  0  0  0  0  0  0
   -8.2411    0.0459   -0.5046 H   0  0  0  0  0  0  0  0  0  0  0  0
   -7.5324   -0.6561    1.7352 H   0  0  0  0  0  0  0  0  0  0  0  0
   -5.4855    0.3205    2.7518 H   0  0  0  0  0  0  0  0  0  0  0  0
   -3.1972   -0.4835    2.3655 H   0  0  0  0  0  0  0  0  0  0  0  0
   -3.0868   -4.2974    0.0081 H   0  0  0  0  0  0  0  0  0  0  0  0
   -1.8400   -3.3660   -0.8122 H   0  0  0  0  0  0  0  0  0  0  0  0
   -2.6901   -4.6221   -2.7706 H   0  0  0  0  0  0  0  0  0  0  0  0
   -4.0808   -4.3646   -4.8004 H   0  0  0  0  0  0  0  0  0  0  0  0
   -5.9391   -2.7218   -4.8330 H   0  0  0  0  0  0  0  0  0  0  0  0
   -6.3634   -1.3609   -2.8104 H   0  0  0  0  0  0  0  0  0  0  0  0
   -5.0166   -1.6126   -0.8201 H   0  0  0  0  0  0  0  0  0  0  0  0
    8.2912   -0.1081   -0.8007 H   0  0  0  0  0  0  0  0  0  0  0  0
    9.9832   -0.3789   -2.4680 H   0  0  0  0  0  0  0  0  0  0  0  0
    9.5956    0.1299   -4.8229 H   0  0  0  0  0  0  0  0  0  0  0  0
    7.3033    0.9913   -5.4694 H   0  0  0  0  0  0  0  0  0  0  0  0
  1  2  1  0
  2  3  2  3
  2  4  1  0
  4  5  1  0
  5  6  1  0
  6  7  1  0
  7  8  1  0
  8  9  1  0
  9 10  1  0
 10 11  2  0
 10 12  1  0
 12 13  1  0
 13 14  1  0
 14 15  1  0
 15 16  1  0
 16 17  1  0
 17 18  2  0
 17 19  1  0
 19 20  1  0
 20 21  1  0
 21 22  2  0
 22 23  1  0
 23 24  2  0
 24 25  1  0
 25 26  2  0
 19 27  1  0
 27 28  1  0
 28 29  2  0
 28 30  1  0
 30 31  1  0
 31 32  1  0
 32 33  2  0
 33 34  1  0
 34 35  2  0
 35 36  1  0
 36 37  2  0
  8 38  1  0
 38 39  2  0
 38 40  1  0
 40 41  2  0
 41 42  1  0
 42 43  2  0
 43 44  1  0
 44 45  2  0
 45 46  1  0
 46 47  2  0
 47 48  1  0
 16 12  1  0
 26 21  1  0
 37 32  1  0
 48 40  1  0
 47 42  1  0
  1 49  1  0
  1 50  1  0
  3 51  1  0
  4 52  1  0
  5 53  1  0
  5 54  1  0
  6 55  1  0
  6 56  1  0
  7 57  1  0
  7 58  1  0
  8 59  1  1
  9 60  1  0
 12 61  1  6
 13 62  1  0
 13 63  1  0
 14 64  1  0
 14 65  1  0
 15 66  1  0
 15 67  1  0
 19 68  1  6
 20 69  1  0
 20 70  1  0
 22 71  1  0
 23 72  1  0
 24 73  1  0
 25 74  1  0
 26 75  1  0
 27 76  1  0
 31 77  1  0
 31 78  1  0
 33 79  1  0
 34 80  1  0
 35 81  1  0
 36 82  1  0
 37 83  1  0
 43 84  1  0
 44 85  1  0
 45 86  1  0
 46 87  1  0
M  END
$$$$
[H]N=C(N([H])[H])N([H])C([H])([H])C([H])([H])C([H])([H])[C@@]([H])(C(=O)c1nc([H])c([H])s1)N([H])C(=O)[C@@]1([H])N(C(=O)[C@@]([H])(N([H])S(=O)(=O)C([H])([H])c2c([H])c([H])c([H])c([H])c2[H])C([H])([H])c2c([H])c([H])c([H])c([H])c2[H])C([H])([H])C([H])([H])C1([H])[H]
     RDKit          3D

 81 84  0  0  0  0  0  0  0  0999 V2000
    7.0985    3.8415   -0.8388 N   0  0  0  0  0  0  0  0  0  0  0  0
    7.9494    2.9875   -0.0976 C   0  0  0  0  0  0  0  0  0  0  0  0
    8.7913    3.4599    0.7225 N   0  0  0  0  0  0  0  0  0  0  0  0
    7.8336    1.5669   -0.2807 N   0  0  0  0  0  0  0  0  0  0  0  0
    6.9609    0.8295    0.6499 C   0  0  0  0  0  0  0  0  0  0  0  0
    5.5236    1.2593    0.4007 C   0  0  0  0  0  0  0  0  0  0  0  0
    4.9446    0.9410   -0.9056 C   0  0  0  0  0  0  0  0  0  0  0  0
    4.2755   -0.2920   -1.2662 C   0  0  2  0  0  0  0  0  0  0  0  0
    2.9967   -0.4537   -0.4972 N   0  0  0  0  0  0  0  0  0  0  0  0
    1.7132   -0.3583   -1.0312 C   0  0  0  0  0  0  0  0  0  0  0  0
    1.6290   -0.1675   -2.2888 O   0  0  0  0  0  0  0  0  0  0  0  0
    0.4701   -0.4393   -0.2799 C   0  0  2  0  0  0  0  0  0  0  0  0
    0.9635   -0.5743    1.2295 C   0  0  0  0  0  0  0  0  0  0  0  0
    1.2094   -2.0558    1.3009 C   0  0  0  0  0  0  0  0  0  0  0  0
    0.7738   -2.6398   -0.0436 C   0  0  0  0  0  0  0  0  0  0  0  0
   -0.3497   -1.6072   -0.2433 N   0  0  0  0  0  0  0  0  0  0  0  0
   -1.6789   -1.9673   -0.2238 C   0  0  0  0  0  0  0  0  0  0  0  0
   -1.9010   -3.2448   -0.0573 O   0  0  0  0  0  0  0  0  0  0  0  0
   -2.9602   -1.1551   -0.3304 C   0  0  2  0  0  0  0  0  0  0  0  0
   -2.7684    0.1044   -0.9754 C   0  0  0  0  0  0  0  0  0  0  0  0
   -3.8434    1.0177   -1.2940 C   0  0  0  0  0  0  0  0  0  0  0  0
   -4.7640    0.6357   -2.2827 C   0  0  0  0  0  0  0  0  0  0  0  0
   -5.7366    1.5060   -2.7610 C   0  0  0  0  0  0  0  0  0  0  0  0
   -5.8206    2.7925   -2.2644 C   0  0  0  0  0  0  0  0  0  0  0  0
   -4.9247    3.1769   -1.2958 C   0  0  0  0  0  0  0  0  0  0  0  0
   -3.9811    2.3112   -0.8386 C   0  0  0  0  0  0  0  0  0  0  0  0
   -3.6469   -1.3802    0.8515 N   0  0  0  0  0  0  0  0  0  0  0  0
   -5.0749   -2.1698    1.0687 S   0  0  0  0  0  0  0  0  0  0  0  0
   -5.6499   -2.7470   -0.2225 O   0  0  0  0  0  0  0  0  0  0  0  0
   -4.7642   -3.4650    1.8866 O   0  0  0  0  0  0  0  0  0  0  0  0
   -6.3639   -1.3971    1.9381 C   0  0  0  0  0  0  0  0  0  0  0  0
   -6.9049   -0.1163    1.5499 C   0  0  0  0  0  0  0  0  0  0  0  0
   -7.9864    0.0930    0.7362 C   0  0  0  0  0  0  0  0  0  0  0  0
   -8.4410    1.3588    0.5053 C   0  0  0  0  0  0  0  0  0  0  0  0
   -7.8731    2.5065    1.0517 C   0  0  0  0  0  0  0  0  0  0  0  0
   -6.7850    2.2697    1.8674 C   0  0  0  0  0  0  0  0  0  0  0  0
   -6.3046    1.0300    2.1184 C   0  0  0  0  0  0  0  0  0  0  0  0
    4.7951   -1.5728   -1.5979 C   0  0  0  0  0  0  0  0  0  0  0  0
    4.6571   -2.0609   -2.8036 O   0  0  0  0  0  0  0  0  0  0  0  0
    5.5092   -2.5432   -0.7432 C   0  0  0  0  0  0  0  0  0  0  0  0
    5.7098   -2.5567    0.5513 N   0  0  0  0  0  0  0  0  0  0  0  0
    6.3729   -3.4644    1.1532 C   0  0  0  0  0  0  0  0  0  0  0  0
    6.8936   -4.4781    0.3546 C   0  0  0  0  0  0  0  0  0  0  0  0
    6.3545   -3.9890   -1.1891 S   0  0  0  0  0  0  0  0  0  0  0  0
    7.1609    3.9223   -1.8704 H   0  0  0  0  0  0  0  0  0  0  0  0
    6.3803    4.4085   -0.3073 H   0  0  0  0  0  0  0  0  0  0  0  0
    9.4515    2.9004    1.2984 H   0  0  0  0  0  0  0  0  0  0  0  0
    8.3393    1.1070   -1.0291 H   0  0  0  0  0  0  0  0  0  0  0  0
    7.3115    1.0973    1.6632 H   0  0  0  0  0  0  0  0  0  0  0  0
    7.1908   -0.2144    0.4949 H   0  0  0  0  0  0  0  0  0  0  0  0
    5.4821    2.3535    0.6120 H   0  0  0  0  0  0  0  0  0  0  0  0
    4.8825    0.8363    1.2608 H   0  0  0  0  0  0  0  0  0  0  0  0
    5.6627    1.2015   -1.7575 H   0  0  0  0  0  0  0  0  0  0  0  0
    4.1424    1.7815   -1.1087 H   0  0  0  0  0  0  0  0  0  0  0  0
    3.7491    0.0380   -2.3150 H   0  0  0  0  0  0  0  0  0  0  0  0
    3.2324   -0.6565    0.5254 H   0  0  0  0  0  0  0  0  0  0  0  0
   -0.0847    0.5335   -0.3213 H   0  0  0  0  0  0  0  0  0  0  0  0
    1.7635    0.0898    1.4211 H   0  0  0  0  0  0  0  0  0  0  0  0
    0.0201   -0.3388    1.8143 H   0  0  0  0  0  0  0  0  0  0  0  0
    0.4676   -2.5241    2.0277 H   0  0  0  0  0  0  0  0  0  0  0  0
    2.1830   -2.3815    1.6066 H   0  0  0  0  0  0  0  0  0  0  0  0
    0.3436   -3.6289    0.0170 H   0  0  0  0  0  0  0  0  0  0  0  0
    1.4626   -2.4320   -0.8504 H   0  0  0  0  0  0  0  0  0  0  0  0
   -3.5619   -1.7874   -1.1238 H   0  0  0  0  0  0  0  0  0  0  0  0
   -2.1410    0.7430   -0.2086 H   0  0  0  0  0  0  0  0  0  0  0  0
   -2.0437    0.0413   -1.8636 H   0  0  0  0  0  0  0  0  0  0  0  0
   -4.7208   -0.3469   -2.6746 H   0  0  0  0  0  0  0  0  0  0  0  0
   -6.4431    1.1849   -3.5269 H   0  0  0  0  0  0  0  0  0  0  0  0
   -6.5586    3.4727   -2.6249 H   0  0  0  0  0  0  0  0  0  0  0  0
   -5.0161    4.2027   -0.9319 H   0  0  0  0  0  0  0  0  0  0  0  0
   -3.2663    2.6388   -0.0626 H   0  0  0  0  0  0  0  0  0  0  0  0
   -3.1483   -1.0739    1.7300 H   0  0  0  0  0  0  0  0  0  0  0  0
   -7.2504   -2.1315    1.8838 H   0  0  0  0  0  0  0  0  0  0  0  0
   -6.1449   -1.3848    3.0546 H   0  0  0  0  0  0  0  0  0  0  0  0
   -8.4793   -0.7366    0.2879 H   0  0  0  0  0  0  0  0  0  0  0  0
   -9.3083    1.5353   -0.1368 H   0  0  0  0  0  0  0  0  0  0  0  0
   -8.2359    3.5019    0.8668 H   0  0  0  0  0  0  0  0  0  0  0  0
   -6.3216    3.1721    2.3000 H   0  0  0  0  0  0  0  0  0  0  0  0
   -5.4370    0.9221    2.7715 H   0  0  0  0  0  0  0  0  0  0  0  0
    6.5451   -3.4884    2.2506 H   0  0  0  0  0  0  0  0  0  0  0  0
    7.4882   -5.3510    0.6762 H   0  0  0  0  0  0  0  0  0  0  0  0
  1  2  1  0
  2  3  2  3
  2  4  1  0
  4  5  1  0
  5  6  1  0
  6  7  1  0
  7  8  1  0
  8  9  1  0
  9 10  1  0
 10 11  2  0
 10 12  1  0
 12 13  1  0
 13 14  1  0
 14 15  1  0
 15 16  1  0
 16 17  1  0
 17 18  2  0
 17 19  1  0
 19 20  1  0
 20 21  1  0
 21 22  2  0
 22 23  1  0
 23 24  2  0
 24 25  1  0
 25 26  2  0
 19 27  1  0
 27 28  1  0
 28 29  2  0
 28 30  2  0
 28 31  1  0
 31 32  1  0
 32 33  2  0
 33 34  1  0
 34 35  2  0
 35 36  1  0
 36 37  2  0
  8 38  1  0
 38 39  2  0
 38 40  1  0
 40 41  2  0
 41 42  1  0
 42 43  2  0
 43 44  1  0
 16 12  1  0
 26 21  1  0
 37 32  1  0
 44 40  1  0
  1 45  1  0
  1 46  1  0
  3 47  1  0
  4 48  1  0
  5 49  1  0
  5 50  1  0
  6 51  1  0
  6 52  1  0
  7 53  1  0
  7 54  1  0
  8 55  1  6
  9 56  1  0
 12 57  1  1
 13 58  1  0
 13 59  1  0
 14 60  1  0
 14 61  1  0
 15 62  1  0
 15 63  1  0
 19 64  1  6
 20 65  1  0
 20 66  1  0
 22 67  1  0
 23 68  1  0
 24 69  1  0
 25 70  1  0
 26 71  1  0
 27 72  1  0
 31 73  1  0
 31 74  1  0
 33 75  1  0
 34 76  1  0
 35 77  1  0
 36 78  1  0
 37 79  1  0
 42 80  1  0
 43 81  1  0
M  END
$$$$
[H]OC(=O)c1c(O[H])c([H])c2c(O[H])c([H])c(O[H])c([H])c2c1[H]
     RDKit          3D

 24 25  0  0  0  0  0  0  0  0999 V2000
    4.3189    0.2222    0.7197 O   0  0  0  0  0  0  0  0  0  0  0  0
    3.2704    0.6415   -0.0453 C   0  0  0  0  0  0  0  0  0  0  0  0
    3.5565    1.4578   -0.9964 O   0  0  0  0  0  0  0  0  0  0  0  0
    1.8970    0.2266    0.1540 C   0  0  0  0  0  0  0  0  0  0  0  0
    0.9331    0.7555   -0.7279 C   0  0  0  0  0  0  0  0  0  0  0  0
   -0.3893    0.4347   -0.6340 C   0  0  0  0  0  0  0  0  0  0  0  0
   -1.3401    0.9579   -1.5060 C   0  0  0  0  0  0  0  0  0  0  0  0
   -2.6765    0.6417   -1.4211 C   0  0  0  0  0  0  0  0  0  0  0  0
   -3.6172    1.1741   -2.3022 O   0  0  0  0  0  0  0  0  0  0  0  0
   -3.0413   -0.2283   -0.4213 C   0  0  0  0  0  0  0  0  0  0  0  0
   -2.0924   -0.7610    0.4621 C   0  0  0  0  0  0  0  0  0  0  0  0
   -2.5314   -1.6209    1.4322 O   0  0  0  0  0  0  0  0  0  0  0  0
   -0.7477   -0.4397    0.3727 C   0  0  0  0  0  0  0  0  0  0  0  0
    0.1750   -0.9647    1.2405 C   0  0  0  0  0  0  0  0  0  0  0  0
    1.5491   -0.6378    1.1509 C   0  0  0  0  0  0  0  0  0  0  0  0
    2.4108   -1.2013    2.0524 O   0  0  0  0  0  0  0  0  0  0  0  0
    5.0293   -0.4151    0.4118 H   0  0  0  0  0  0  0  0  0  0  0  0
    1.2335    1.4445   -1.5172 H   0  0  0  0  0  0  0  0  0  0  0  0
   -1.0076    1.6413   -2.2807 H   0  0  0  0  0  0  0  0  0  0  0  0
   -4.1169    2.0226   -2.1534 H   0  0  0  0  0  0  0  0  0  0  0  0
   -4.0892   -0.4872   -0.3410 H   0  0  0  0  0  0  0  0  0  0  0  0
   -1.9899   -2.0792    2.1285 H   0  0  0  0  0  0  0  0  0  0  0  0
   -0.0882   -1.6421    2.0238 H   0  0  0  0  0  0  0  0  0  0  0  0
    3.3541   -1.1430    2.1979 H   0  0  0  0  0  0  0  0  0  0  0  0
  1  2  1  0
  2  3  2  0
  2  4  1  0
  4  5  2  0
  5  6  1  0
  6  7  2  0
  7  8  1  0
  8  9  1  0
  8 10  2  0
 10 11  1  0
 11 12  1  0
 11 13  2  0
 13 14  1  0
 14 15  2  0
 15 16  1  0
 15  4  1  0
 13  6  1  0
  1 17  1  0
  5 18  1  0
  7 19  1  0
  9 20  1  0
 10 21  1  0
 12 22  1  0
 14 23  1  0
 16 24  1  0
M  END
$$$$
[H]c1nn2c(N([H])C3([H])C([H])([H])C3([H])[H])c([H])c(N([H])c3c([H])c([H])c(N4C([H])([H])C([H])([H])N(C([H])([H])[H])C([H])([H])C4([H])[H])c([H])c3[H])nc2c1C#N
     RDKit          3D

 53 57  0  0  0  0  0  0  0  0999 V2000
    7.0167    1.7113   -0.5863 C   0  0  0  0  0  0  0  0  0  0  0  0
    6.8984    0.3292   -0.1580 N   0  0  0  0  0  0  0  0  0  0  0  0
    6.1812    0.3034    1.0718 C   0  0  0  0  0  0  0  0  0  0  0  0
    5.3875   -1.0121    1.1181 C   0  0  0  0  0  0  0  0  0  0  0  0
    4.3761   -0.8461    0.1104 N   0  0  0  0  0  0  0  0  0  0  0  0
    4.9181   -0.7048   -1.2376 C   0  0  0  0  0  0  0  0  0  0  0  0
    6.3914   -0.4393   -1.2314 C   0  0  0  0  0  0  0  0  0  0  0  0
    3.0070   -0.8179    0.3890 C   0  0  0  0  0  0  0  0  0  0  0  0
    2.5178   -0.8919    1.6633 C   0  0  0  0  0  0  0  0  0  0  0  0
    1.1630   -0.8643    1.9172 C   0  0  0  0  0  0  0  0  0  0  0  0
    0.2305   -0.7585    0.8729 C   0  0  0  0  0  0  0  0  0  0  0  0
   -1.1305   -0.7534    1.2025 N   0  0  0  0  0  0  0  0  0  0  0  0
   -2.2323   -0.4001    0.3948 C   0  0  0  0  0  0  0  0  0  0  0  0
   -3.5335   -0.4893    0.9036 C   0  0  0  0  0  0  0  0  0  0  0  0
   -4.6545   -0.1415    0.1591 C   0  0  0  0  0  0  0  0  0  0  0  0
   -5.9549   -0.2578    0.7712 N   0  0  0  0  0  0  0  0  0  0  0  0
   -7.1525    0.0570    0.0485 C   0  0  0  0  0  0  0  0  0  0  0  0
   -8.4429   -0.0112    0.8278 C   0  0  0  0  0  0  0  0  0  0  0  0
   -7.8659    1.3098    0.3167 C   0  0  0  0  0  0  0  0  0  0  0  0
   -4.4848    0.2975   -1.0969 N   0  0  0  0  0  0  0  0  0  0  0  0
   -5.3111    0.6951   -2.0286 N   0  0  0  0  0  0  0  0  0  0  0  0
   -4.6519    1.0508   -3.1449 C   0  0  0  0  0  0  0  0  0  0  0  0
   -3.3028    0.8682   -2.9129 C   0  0  0  0  0  0  0  0  0  0  0  0
   -2.2011    1.1140   -3.8152 C   0  0  0  0  0  0  0  0  0  0  0  0
   -1.3185    1.3218   -4.5355 N   0  0  0  0  0  0  0  0  0  0  0  0
   -3.2399    0.3909   -1.6062 C   0  0  0  0  0  0  0  0  0  0  0  0
   -2.1742    0.0481   -0.8651 N   0  0  0  0  0  0  0  0  0  0  0  0
    0.7430   -0.6870   -0.3829 C   0  0  0  0  0  0  0  0  0  0  0  0
    2.0876   -0.7127   -0.6561 C   0  0  0  0  0  0  0  0  0  0  0  0
    6.0917    2.2951   -0.3447 H   0  0  0  0  0  0  0  0  0  0  0  0
    7.1345    1.7812   -1.6954 H   0  0  0  0  0  0  0  0  0  0  0  0
    7.8687    2.2294   -0.1055 H   0  0  0  0  0  0  0  0  0  0  0  0
    5.4049    1.1076    1.1167 H   0  0  0  0  0  0  0  0  0  0  0  0
    6.8868    0.3378    1.9031 H   0  0  0  0  0  0  0  0  0  0  0  0
    6.1446   -1.7845    0.7675 H   0  0  0  0  0  0  0  0  0  0  0  0
    5.0622   -1.2566    2.1159 H   0  0  0  0  0  0  0  0  0  0  0  0
    4.4169    0.0666   -1.8241 H   0  0  0  0  0  0  0  0  0  0  0  0
    4.7227   -1.6769   -1.7442 H   0  0  0  0  0  0  0  0  0  0  0  0
    6.6536    0.0319   -2.2233 H   0  0  0  0  0  0  0  0  0  0  0  0
    6.9082   -1.4216   -1.2424 H   0  0  0  0  0  0  0  0  0  0  0  0
    3.1538   -0.9738    2.5368 H   0  0  0  0  0  0  0  0  0  0  0  0
    0.7973   -0.9250    2.9469 H   0  0  0  0  0  0  0  0  0  0  0  0
   -1.4176   -1.0592    2.2055 H   0  0  0  0  0  0  0  0  0  0  0  0
   -3.6909   -0.8382    1.9065 H   0  0  0  0  0  0  0  0  0  0  0  0
   -6.0254   -0.5799    1.7673 H   0  0  0  0  0  0  0  0  0  0  0  0
   -7.2552   -0.4874   -0.9337 H   0  0  0  0  0  0  0  0  0  0  0  0
   -8.3516   -0.2459    1.8895 H   0  0  0  0  0  0  0  0  0  0  0  0
   -9.3800   -0.2968    0.3440 H   0  0  0  0  0  0  0  0  0  0  0  0
   -7.4441    1.9929    1.0633 H   0  0  0  0  0  0  0  0  0  0  0  0
   -8.4327    1.8482   -0.4832 H   0  0  0  0  0  0  0  0  0  0  0  0
   -5.1038    1.4138   -4.0569 H   0  0  0  0  0  0  0  0  0  0  0  0
    0.0972   -0.6143   -1.2721 H   0  0  0  0  0  0  0  0  0  0  0  0
    2.4909   -0.6538   -1.6768 H   0  0  0  0  0  0  0  0  0  0  0  0
  1  2  1  0
  2  3  1  0
  3  4  1  0
  4  5  1  0
  5  6  1  0
  6  7  1  0
  5  8  1  0
  8  9  2  0
  9 10  1  0
 10 11  2  0
 11 12  1  0
 12 13  1  0
 13 14  1  0
 14 15  2  0
 15 16  1  0
 16 17  1  0
 17 18  1  0
 18 19  1  0
 15 20  1  0
 20 21  1  0
 21 22  2  0
 22 23  1  0
 23 24  1  0
 24 25  3  0
 23 26  2  0
 26 27  1  0
 11 28  1  0
 28 29  2  0
  7  2  1  0
 29  8  1  0
 27 13  2  0
 19 17  1  0
 26 20  1  0
  1 30  1  0
  1 31  1  0
  1 32  1  0
  3 33  1  0
  3 34  1  0
  4 35  1  0
  4 36  1  0
  6 37  1  0
  6 38  1  0
  7 39  1  0
  7 40  1  0
  9 41  1  0
 10 42  1  0
 12 43  1  0
 14 44  1  0
 16 45  1  0
 17 46  1  0
 18 47  1  0
 18 48  1  0
 19 49  1  0
 19 50  1  0
 22 51  1  0
 28 52  1  0
 29 53  1  0
M  END
$$$$
[H]c1nn2c([H])c([H])c([H])c2c(N([H])[C@]2([H])C([H])([H])C([H])([H])[C@@](N([H])[H])(C([H])([H])[H])C2(C([H])([H])[H])C([H])([H])[H])c1C(=O)N([H])[H]
     RDKit          3D

 45 47  0  0  0  0  0  0  0  0999 V2000
   -4.0577    0.8183    0.0670 C   0  0  0  0  0  0  0  0  0  0  0  0
   -2.8208    0.0712    0.4278 C   0  0  2  0  0  0  0  0  0  0  0  0
   -3.1288   -1.2015    0.9890 N   0  0  0  0  0  0  0  0  0  0  0  0
   -2.0926    0.8920    1.5038 C   0  0  0  0  0  0  0  0  0  0  0  0
   -0.7271    0.1832    1.3906 C   0  0  0  0  0  0  0  0  0  0  0  0
   -0.4654    0.4637   -0.0763 C   0  0  1  0  0  0  0  0  0  0  0  0
    0.6409   -0.2610   -0.5991 N   0  0  0  0  0  0  0  0  0  0  0  0
    1.9710   -0.2215   -0.2094 C   0  0  0  0  0  0  0  0  0  0  0  0
    2.8545    0.6582   -0.7628 C   0  0  0  0  0  0  0  0  0  0  0  0
    4.1873    0.7098   -0.3199 C   0  0  0  0  0  0  0  0  0  0  0  0
    4.5765   -0.1200    0.6515 N   0  0  0  0  0  0  0  0  0  0  0  0
    3.7318   -0.9739    1.1882 N   0  0  0  0  0  0  0  0  0  0  0  0
    3.9866   -1.8804    2.1605 C   0  0  0  0  0  0  0  0  0  0  0  0
    2.8426   -2.5899    2.4247 C   0  0  0  0  0  0  0  0  0  0  0  0
    1.8943   -2.0495    1.5509 C   0  0  0  0  0  0  0  0  0  0  0  0
    2.4350   -1.0553    0.7899 C   0  0  0  0  0  0  0  0  0  0  0  0
    2.4719    1.5020   -1.8511 C   0  0  0  0  0  0  0  0  0  0  0  0
    3.3987    2.4349   -2.3809 N   0  0  0  0  0  0  0  0  0  0  0  0
    1.3466    1.4546   -2.3619 O   0  0  0  0  0  0  0  0  0  0  0  0
   -1.7884    0.0293   -0.6682 C   0  0  0  0  0  0  0  0  0  0  0  0
   -1.7465   -1.3186   -1.3063 C   0  0  0  0  0  0  0  0  0  0  0  0
   -2.2003    1.0404   -1.7219 C   0  0  0  0  0  0  0  0  0  0  0  0
   -4.5833    1.0648    1.0360 H   0  0  0  0  0  0  0  0  0  0  0  0
   -3.8150    1.8172   -0.3731 H   0  0  0  0  0  0  0  0  0  0  0  0
   -4.7542    0.2609   -0.5731 H   0  0  0  0  0  0  0  0  0  0  0  0
   -3.8646   -1.7295    0.4706 H   0  0  0  0  0  0  0  0  0  0  0  0
   -3.5006   -1.0391    1.9627 H   0  0  0  0  0  0  0  0  0  0  0  0
   -2.5319    0.7470    2.4898 H   0  0  0  0  0  0  0  0  0  0  0  0
   -2.0074    1.9509    1.1843 H   0  0  0  0  0  0  0  0  0  0  0  0
    0.0113    0.5600    2.0762 H   0  0  0  0  0  0  0  0  0  0  0  0
   -0.9884   -0.8924    1.4686 H   0  0  0  0  0  0  0  0  0  0  0  0
   -0.3877    1.5862   -0.1991 H   0  0  0  0  0  0  0  0  0  0  0  0
    0.4201   -0.9294   -1.4040 H   0  0  0  0  0  0  0  0  0  0  0  0
    4.8633    1.4179   -0.7751 H   0  0  0  0  0  0  0  0  0  0  0  0
    4.9295   -2.0470    2.6706 H   0  0  0  0  0  0  0  0  0  0  0  0
    2.6976   -3.3903    3.1460 H   0  0  0  0  0  0  0  0  0  0  0  0
    0.8807   -2.3973    1.4946 H   0  0  0  0  0  0  0  0  0  0  0  0
    3.5841    3.2865   -1.7856 H   0  0  0  0  0  0  0  0  0  0  0  0
    3.8893    2.3457   -3.2763 H   0  0  0  0  0  0  0  0  0  0  0  0
   -1.4198   -1.2699   -2.3657 H   0  0  0  0  0  0  0  0  0  0  0  0
   -1.1474   -2.0283   -0.6990 H   0  0  0  0  0  0  0  0  0  0  0  0
   -2.8088   -1.6939   -1.3481 H   0  0  0  0  0  0  0  0  0  0  0  0
   -3.2316    0.8650   -2.0803 H   0  0  0  0  0  0  0  0  0  0  0  0
   -2.0121    2.0797   -1.4042 H   0  0  0  0  0  0  0  0  0  0  0  0
   -1.5334    0.8494   -2.6015 H   0  0  0  0  0  0  0  0  0  0  0  0
  1  2  1  0
  2  3  1  1
  2  4  1  0
  4  5  1  0
  5  6  1  0
  6  7  1  0
  7  8  1  0
  8  9  2  0
  9 10  1  0
 10 11  2  0
 11 12  1  0
 12 13  1  0
 13 14  2  0
 14 15  1  0
 15 16  2  0
  9 17  1  0
 17 18  1  0
 17 19  2  0
  6 20  1  0
 20 21  1  0
 20 22  1  0
 20  2  1  0
 16  8  1  0
 16 12  1  0
  1 23  1  0
  1 24  1  0
  1 25  1  0
  3 26  1  0
  3 27  1  0
  4 28  1  0
  4 29  1  0
  5 30  1  0
  5 31  1  0
  6 32  1  1
  7 33  1  0
 10 34  1  0
 13 35  1  0
 14 36  1  0
 15 37  1  0
 18 38  1  0
 18 39  1  0
 21 40  1  0
 21 41  1  0
 21 42  1  0
 22 43  1  0
 22 44  1  0
 22 45  1  0
M  END
$$$$
[H]c1c([H])c(N([H])C(=O)c2nc3c([H])c([H])c([H])c([H])c3nc2Oc2c([H])c([H])c(Cl)c([H])c2OC([H])([H])[H])c([H])c(S(=O)(=O)N([H])[H])c1[H]
     RDKit          3D

 50 53  0  0  0  0  0  0  0  0999 V2000
   -5.5203   -0.4255   -0.5261 C   0  0  0  0  0  0  0  0  0  0  0  0
   -4.3860   -0.2413    0.2958 O   0  0  0  0  0  0  0  0  0  0  0  0
   -3.7648   -1.2881    0.9415 C   0  0  0  0  0  0  0  0  0  0  0  0
   -4.2916   -2.5534    0.7609 C   0  0  0  0  0  0  0  0  0  0  0  0
   -3.7287   -3.6495    1.3723 C   0  0  0  0  0  0  0  0  0  0  0  0
   -4.3856   -5.2606    1.1525 Cl  0  0  0  0  0  0  0  0  0  0  0  0
   -2.6307   -3.4112    2.1591 C   0  0  0  0  0  0  0  0  0  0  0  0
   -2.1130   -2.1631    2.3359 C   0  0  0  0  0  0  0  0  0  0  0  0
   -2.6393   -1.0554    1.7495 C   0  0  0  0  0  0  0  0  0  0  0  0
   -2.1161    0.1912    1.9294 O   0  0  0  0  0  0  0  0  0  0  0  0
   -1.6665    1.1123    1.0337 C   0  0  0  0  0  0  0  0  0  0  0  0
   -2.5915    2.0332    0.6191 N   0  0  0  0  0  0  0  0  0  0  0  0
   -2.3470    3.0017   -0.2491 C   0  0  0  0  0  0  0  0  0  0  0  0
   -3.2874    3.9223   -0.6589 C   0  0  0  0  0  0  0  0  0  0  0  0
   -2.9370    4.8933   -1.5678 C   0  0  0  0  0  0  0  0  0  0  0  0
   -1.6636    4.9634   -2.0766 C   0  0  0  0  0  0  0  0  0  0  0  0
   -0.7123    4.0605   -1.6848 C   0  0  0  0  0  0  0  0  0  0  0  0
   -1.0678    3.0765   -0.7636 C   0  0  0  0  0  0  0  0  0  0  0  0
   -0.1505    2.1863   -0.3689 N   0  0  0  0  0  0  0  0  0  0  0  0
   -0.4121    1.1870    0.5326 C   0  0  0  0  0  0  0  0  0  0  0  0
    0.7266    0.3494    0.9399 C   0  0  0  0  0  0  0  0  0  0  0  0
    0.7340   -0.3240    1.9611 O   0  0  0  0  0  0  0  0  0  0  0  0
    1.8578    0.3392    0.0884 N   0  0  0  0  0  0  0  0  0  0  0  0
    3.0155   -0.4065    0.3549 C   0  0  0  0  0  0  0  0  0  0  0  0
    3.4258   -0.8727    1.5650 C   0  0  0  0  0  0  0  0  0  0  0  0
    4.5942   -1.6360    1.7159 C   0  0  0  0  0  0  0  0  0  0  0  0
    5.3265   -1.9041    0.5877 C   0  0  0  0  0  0  0  0  0  0  0  0
    4.9599   -1.4580   -0.6606 C   0  0  0  0  0  0  0  0  0  0  0  0
    3.8110   -0.7167   -0.7570 C   0  0  0  0  0  0  0  0  0  0  0  0
    5.9708   -1.8617   -2.0197 S   0  0  0  0  0  0  0  0  0  0  0  0
    7.1812   -0.6583   -2.2732 N   0  0  0  0  0  0  0  0  0  0  0  0
    5.1727   -1.9534   -3.3046 O   0  0  0  0  0  0  0  0  0  0  0  0
    6.6218   -3.2121   -1.8411 O   0  0  0  0  0  0  0  0  0  0  0  0
   -5.8411    0.6043   -0.8391 H   0  0  0  0  0  0  0  0  0  0  0  0
   -5.3074   -1.0725   -1.3995 H   0  0  0  0  0  0  0  0  0  0  0  0
   -6.3460   -0.8172    0.1094 H   0  0  0  0  0  0  0  0  0  0  0  0
   -5.1604   -2.7328    0.1370 H   0  0  0  0  0  0  0  0  0  0  0  0
   -2.1934   -4.2897    2.6389 H   0  0  0  0  0  0  0  0  0  0  0  0
   -1.2548   -2.0767    2.9781 H   0  0  0  0  0  0  0  0  0  0  0  0
   -4.2798    3.8411   -0.2410 H   0  0  0  0  0  0  0  0  0  0  0  0
   -3.6711    5.6294   -1.9019 H   0  0  0  0  0  0  0  0  0  0  0  0
   -1.4144    5.7381   -2.7910 H   0  0  0  0  0  0  0  0  0  0  0  0
    0.3116    4.0973   -2.0781 H   0  0  0  0  0  0  0  0  0  0  0  0
    1.8317    0.9368   -0.8053 H   0  0  0  0  0  0  0  0  0  0  0  0
    2.9070   -0.6821    2.4850 H   0  0  0  0  0  0  0  0  0  0  0  0
    4.8712   -1.9805    2.7010 H   0  0  0  0  0  0  0  0  0  0  0  0
    6.2381   -2.5047    0.7346 H   0  0  0  0  0  0  0  0  0  0  0  0
    3.5357   -0.3712   -1.7558 H   0  0  0  0  0  0  0  0  0  0  0  0
    6.7773    0.2650   -2.0168 H   0  0  0  0  0  0  0  0  0  0  0  0
    8.0101   -0.8493   -1.6838 H   0  0  0  0  0  0  0  0  0  0  0  0
  1  2  1  0
  2  3  1  0
  3  4  2  0
  4  5  1  0
  5  6  1  0
  5  7  2  0
  7  8  1  0
  8  9  2  0
  9 10  1  0
 10 11  1  0
 11 12  2  0
 12 13  1  0
 13 14  2  0
 14 15  1  0
 15 16  2  0
 16 17  1  0
 17 18  2  0
 18 19  1  0
 19 20  2  0
 20 21  1  0
 21 22  2  0
 21 23  1  0
 23 24  1  0
 24 25  2  0
 25 26  1  0
 26 27  2  0
 27 28  1  0
 28 29  2  0
 28 30  1  0
 30 31  1  0
 30 32  2  0
 30 33  2  0
  9  3  1  0
 20 11  1  0
 29 24  1  0
 18 13  1  0
  1 34  1  0
  1 35  1  0
  1 36  1  0
  4 37  1  0
  7 38  1  0
  8 39  1  0
 14 40  1  0
 15 41  1  0
 16 42  1  0
 17 43  1  0
 23 44  1  0
 25 45  1  0
 26 46  1  0
 27 47  1  0
 29 48  1  0
 31 49  1  0
 31 50  1  0
M  END
$$$$
[H]c1nc(N([H])[H])c2c(-c3c([H])c([H])c(Oc4c([H])c([H])c([H])c([H])c4[H])c([H])c3[H])c([H])n([C@]3([H])C([H])([H])C([H])([H])[C@@]([H])(N4C([H])([H])C([H])([H])N(C([H])([H])[H])C([H])([H])C4([H])[H])C([H])([H])C3([H])[H])c2n1
     RDKit          3D

 70 75  0  0  0  0  0  0  0  0999 V2000
    7.7206    2.3289    0.1110 C   0  0  0  0  0  0  0  0  0  0  0  0
    8.0818    1.0714   -0.4668 N   0  0  0  0  0  0  0  0  0  0  0  0
    7.2921    0.6885   -1.6033 C   0  0  0  0  0  0  0  0  0  0  0  0
    5.8139    0.5826   -1.2937 C   0  0  0  0  0  0  0  0  0  0  0  0
    5.6296    0.3951    0.1131 N   0  0  0  0  0  0  0  0  0  0  0  0
    6.6147   -0.5157    0.6714 C   0  0  0  0  0  0  0  0  0  0  0  0
    8.0202    0.0188    0.5141 C   0  0  0  0  0  0  0  0  0  0  0  0
    4.3328   -0.0522    0.5021 C   0  0  1  0  0  0  0  0  0  0  0  0
    3.2240    0.8921    0.1777 C   0  0  0  0  0  0  0  0  0  0  0  0
    2.1730    0.3495   -0.7505 C   0  0  0  0  0  0  0  0  0  0  0  0
    1.6522   -1.0001   -0.3354 C   0  0  1  0  0  0  0  0  0  0  0  0
    2.5833   -1.7230    0.5909 C   0  0  0  0  0  0  0  0  0  0  0  0
    3.9959   -1.4540    0.0432 C   0  0  0  0  0  0  0  0  0  0  0  0
    0.2884   -0.9631    0.1421 N   0  0  0  0  0  0  0  0  0  0  0  0
   -0.7209   -0.2693   -0.3594 C   0  0  0  0  0  0  0  0  0  0  0  0
   -1.8800   -0.4868    0.3628 C   0  0  0  0  0  0  0  0  0  0  0  0
   -3.1416    0.1782    0.0621 C   0  0  0  0  0  0  0  0  0  0  0  0
   -3.8027    1.0104    0.9278 C   0  0  0  0  0  0  0  0  0  0  0  0
   -5.0028    1.6018    0.5980 C   0  0  0  0  0  0  0  0  0  0  0  0
   -5.6173    1.3985   -0.6193 C   0  0  0  0  0  0  0  0  0  0  0  0
   -6.8075    1.9556   -1.0064 O   0  0  0  0  0  0  0  0  0  0  0  0
   -8.0457    1.4251   -0.8336 C   0  0  0  0  0  0  0  0  0  0  0  0
   -8.2207    0.2071   -0.2284 C   0  0  0  0  0  0  0  0  0  0  0  0
   -9.4883   -0.2891   -0.0754 C   0  0  0  0  0  0  0  0  0  0  0  0
  -10.6021    0.3963   -0.5106 C   0  0  0  0  0  0  0  0  0  0  0  0
  -10.4256    1.6202   -1.1183 C   0  0  0  0  0  0  0  0  0  0  0  0
   -9.1520    2.1130   -1.2694 C   0  0  0  0  0  0  0  0  0  0  0  0
   -4.9536    0.5624   -1.4912 C   0  0  0  0  0  0  0  0  0  0  0  0
   -3.7590   -0.0356   -1.1817 C   0  0  0  0  0  0  0  0  0  0  0  0
   -1.5335   -1.3670    1.3544 C   0  0  0  0  0  0  0  0  0  0  0  0
   -2.2677   -1.9487    2.3615 C   0  0  0  0  0  0  0  0  0  0  0  0
   -3.6814   -1.6841    2.5180 N   0  0  0  0  0  0  0  0  0  0  0  0
   -1.6557   -2.8007    3.2052 N   0  0  0  0  0  0  0  0  0  0  0  0
   -0.3544   -3.0753    3.0623 C   0  0  0  0  0  0  0  0  0  0  0  0
    0.3699   -2.5117    2.0790 N   0  0  0  0  0  0  0  0  0  0  0  0
   -0.1723   -1.6575    1.2062 C   0  0  0  0  0  0  0  0  0  0  0  0
    7.0845    2.9458   -0.5508 H   0  0  0  0  0  0  0  0  0  0  0  0
    8.6670    2.9064    0.3046 H   0  0  0  0  0  0  0  0  0  0  0  0
    7.2604    2.2105    1.1280 H   0  0  0  0  0  0  0  0  0  0  0  0
    7.6470   -0.3134   -1.9277 H   0  0  0  0  0  0  0  0  0  0  0  0
    7.4812    1.4010   -2.4588 H   0  0  0  0  0  0  0  0  0  0  0  0
    5.3633    1.5607   -1.5850 H   0  0  0  0  0  0  0  0  0  0  0  0
    5.3510   -0.2072   -1.9042 H   0  0  0  0  0  0  0  0  0  0  0  0
    6.5955   -1.5124    0.1662 H   0  0  0  0  0  0  0  0  0  0  0  0
    6.3485   -0.7004    1.7315 H   0  0  0  0  0  0  0  0  0  0  0  0
    8.7234   -0.7786    0.1874 H   0  0  0  0  0  0  0  0  0  0  0  0
    8.3774    0.3426    1.5147 H   0  0  0  0  0  0  0  0  0  0  0  0
    4.3558   -0.1226    1.6316 H   0  0  0  0  0  0  0  0  0  0  0  0
    3.6709    1.7796   -0.3194 H   0  0  0  0  0  0  0  0  0  0  0  0
    2.6905    1.2883    1.0718 H   0  0  0  0  0  0  0  0  0  0  0  0
    2.6251    0.3119   -1.7625 H   0  0  0  0  0  0  0  0  0  0  0  0
    1.3660    1.1078   -0.8026 H   0  0  0  0  0  0  0  0  0  0  0  0
    1.6147   -1.6285   -1.2755 H   0  0  0  0  0  0  0  0  0  0  0  0
    2.6045   -1.3078    1.6201 H   0  0  0  0  0  0  0  0  0  0  0  0
    2.4313   -2.8178    0.5536 H   0  0  0  0  0  0  0  0  0  0  0  0
    4.7061   -2.2088    0.4293 H   0  0  0  0  0  0  0  0  0  0  0  0
    3.9116   -1.4731   -1.0579 H   0  0  0  0  0  0  0  0  0  0  0  0
   -0.6792    0.3885   -1.2174 H   0  0  0  0  0  0  0  0  0  0  0  0
   -3.3637    1.2272    1.9140 H   0  0  0  0  0  0  0  0  0  0  0  0
   -5.5334    2.2676    1.2897 H   0  0  0  0  0  0  0  0  0  0  0  0
   -7.4022   -0.3977    0.1426 H   0  0  0  0  0  0  0  0  0  0  0  0
   -9.6790   -1.2542    0.3996 H   0  0  0  0  0  0  0  0  0  0  0  0
  -11.6137   -0.0120   -0.3821 H   0  0  0  0  0  0  0  0  0  0  0  0
  -11.2638    2.1916   -1.4734 H   0  0  0  0  0  0  0  0  0  0  0  0
   -9.0634    3.0953   -1.7614 H   0  0  0  0  0  0  0  0  0  0  0  0
   -5.3970    0.3643   -2.4767 H   0  0  0  0  0  0  0  0  0  0  0  0
   -3.2266   -0.7038   -1.8764 H   0  0  0  0  0  0  0  0  0  0  0  0
   -4.3843   -2.0047    1.8318 H   0  0  0  0  0  0  0  0  0  0  0  0
   -3.9676   -1.1493    3.3625 H   0  0  0  0  0  0  0  0  0  0  0  0
    0.1910   -3.7586    3.7191 H   0  0  0  0  0  0  0  0  0  0  0  0
  1  2  1  0
  2  3  1  0
  3  4  1  0
  4  5  1  0
  5  6  1  0
  6  7  1  0
  5  8  1  0
  8  9  1  0
  9 10  1  0
 10 11  1  0
 11 12  1  0
 12 13  1  0
 11 14  1  0
 14 15  1  0
 15 16  2  0
 16 17  1  0
 17 18  2  0
 18 19  1  0
 19 20  2  0
 20 21  1  0
 21 22  1  0
 22 23  2  0
 23 24  1  0
 24 25  2  0
 25 26  1  0
 26 27  2  0
 20 28  1  0
 28 29  2  0
 16 30  1  0
 30 31  2  0
 31 32  1  0
 31 33  1  0
 33 34  2  0
 34 35  1  0
 35 36  2  0
  7  2  1  0
 13  8  1  0
 36 14  1  0
 29 17  1  0
 36 30  1  0
 27 22  1  0
  1 37  1  0
  1 38  1  0
  1 39  1  0
  3 40  1  0
  3 41  1  0
  4 42  1  0
  4 43  1  0
  6 44  1  0
  6 45  1  0
  7 46  1  0
  7 47  1  0
  8 48  1  1
  9 49  1  0
  9 50  1  0
 10 51  1  0
 10 52  1  0
 11 53  1  6
 12 54  1  0
 12 55  1  0
 13 56  1  0
 13 57  1  0
 15 58  1  0
 18 59  1  0
 19 60  1  0
 23 61  1  0
 24 62  1  0
 25 63  1  0
 26 64  1  0
 27 65  1  0
 28 66  1  0
 29 67  1  0
 32 68  1  0
 32 69  1  0
 34 70  1  0
M  END
$$$$
[H]O[C@@]1([H])[C@]([H])(O[H])[C@@]([H])(C([H])([H])OS(=O)(=O)N([H])C(=O)[C@@]([H])(N([H])[H])C([H])(C([H])([H])[H])C([H])([H])[H])O[C@@]1([H])n1c([H])nc2c(N([H])[H])nc([H])nc21
     RDKit          3D

 53 55  0  0  0  0  0  0  0  0999 V2000
   -6.8012   -1.1884   -0.4242 C   0  0  0  0  0  0  0  0  0  0  0  0
   -5.4378   -0.5460   -0.2197 C   0  0  0  0  0  0  0  0  0  0  0  0
   -4.5008   -1.4501    0.5082 C   0  0  0  0  0  0  0  0  0  0  0  0
   -5.6164    0.7860    0.4927 C   0  0  2  0  0  0  0  0  0  0  0  0
   -6.4856    1.5689   -0.4109 N   0  0  0  0  0  0  0  0  0  0  0  0
   -4.3158    1.4741    0.5770 C   0  0  0  0  0  0  0  0  0  0  0  0
   -4.0937    2.4418   -0.1961 O   0  0  0  0  0  0  0  0  0  0  0  0
   -3.2676    1.1442    1.4677 N   0  0  0  0  0  0  0  0  0  0  0  0
   -1.7747    1.9920    1.5152 S   0  0  0  0  0  0  0  0  0  0  0  0
   -1.5965    2.5357    2.8991 O   0  0  0  0  0  0  0  0  0  0  0  0
   -1.9340    3.1978    0.5994 O   0  0  0  0  0  0  0  0  0  0  0  0
   -0.4708    1.1281    0.9857 O   0  0  0  0  0  0  0  0  0  0  0  0
   -0.5914    0.6363   -0.2844 C   0  0  0  0  0  0  0  0  0  0  0  0
    0.6149   -0.1418   -0.7435 C   0  0  1  0  0  0  0  0  0  0  0  0
    1.7677    0.6481   -0.7493 O   0  0  0  0  0  0  0  0  0  0  0  0
    2.7529   -0.3643   -0.8300 C   0  0  2  0  0  0  0  0  0  0  0  0
    2.4083   -1.1378    0.4047 C   0  0  1  0  0  0  0  0  0  0  0  0
    2.4749   -0.3231    1.5543 O   0  0  0  0  0  0  0  0  0  0  0  0
    0.9020   -1.3284    0.1510 C   0  0  2  0  0  0  0  0  0  0  0  0
    0.7291   -2.5051   -0.6053 O   0  0  0  0  0  0  0  0  0  0  0  0
    4.0707    0.1227   -0.9298 N   0  0  0  0  0  0  0  0  0  0  0  0
    4.4552    1.1326   -1.7288 C   0  0  0  0  0  0  0  0  0  0  0  0
    5.7945    1.3383   -1.5744 N   0  0  0  0  0  0  0  0  0  0  0  0
    6.2257    0.4547   -0.6823 C   0  0  0  0  0  0  0  0  0  0  0  0
    7.4718    0.2088   -0.1508 C   0  0  0  0  0  0  0  0  0  0  0  0
    8.5876    0.9820   -0.5575 N   0  0  0  0  0  0  0  0  0  0  0  0
    7.6155   -0.7628    0.7472 N   0  0  0  0  0  0  0  0  0  0  0  0
    6.5865   -1.5131    1.1536 C   0  0  0  0  0  0  0  0  0  0  0  0
    5.3723   -1.2742    0.6359 N   0  0  0  0  0  0  0  0  0  0  0  0
    5.1504   -0.3225   -0.2635 C   0  0  0  0  0  0  0  0  0  0  0  0
   -6.6863   -2.1058   -1.0047 H   0  0  0  0  0  0  0  0  0  0  0  0
   -7.3359   -1.3062    0.5294 H   0  0  0  0  0  0  0  0  0  0  0  0
   -7.3825   -0.4667   -1.0570 H   0  0  0  0  0  0  0  0  0  0  0  0
   -5.0278   -0.3259   -1.2226 H   0  0  0  0  0  0  0  0  0  0  0  0
   -3.4436   -1.1875    0.3240 H   0  0  0  0  0  0  0  0  0  0  0  0
   -4.7195   -1.5419    1.5860 H   0  0  0  0  0  0  0  0  0  0  0  0
   -4.5845   -2.5128    0.1189 H   0  0  0  0  0  0  0  0  0  0  0  0
   -6.1075    0.6101    1.4555 H   0  0  0  0  0  0  0  0  0  0  0  0
   -7.4575    1.5890   -0.0722 H   0  0  0  0  0  0  0  0  0  0  0  0
   -6.1260    2.5295   -0.4314 H   0  0  0  0  0  0  0  0  0  0  0  0
   -3.4097    0.3595    2.1290 H   0  0  0  0  0  0  0  0  0  0  0  0
   -0.6579    1.5267   -0.9724 H   0  0  0  0  0  0  0  0  0  0  0  0
   -1.4774   -0.0130   -0.3421 H   0  0  0  0  0  0  0  0  0  0  0  0
    0.4503   -0.4767   -1.7867 H   0  0  0  0  0  0  0  0  0  0  0  0
    2.4320   -1.0002   -1.6977 H   0  0  0  0  0  0  0  0  0  0  0  0
    2.9147   -2.0938    0.5250 H   0  0  0  0  0  0  0  0  0  0  0  0
    2.7237   -0.8458    2.3534 H   0  0  0  0  0  0  0  0  0  0  0  0
    0.3172   -1.3553    1.0645 H   0  0  0  0  0  0  0  0  0  0  0  0
    0.7959   -2.3261   -1.5643 H   0  0  0  0  0  0  0  0  0  0  0  0
    3.8772    1.7395   -2.4127 H   0  0  0  0  0  0  0  0  0  0  0  0
    9.5244    0.8872   -0.1089 H   0  0  0  0  0  0  0  0  0  0  0  0
    8.5391    1.6876   -1.3266 H   0  0  0  0  0  0  0  0  0  0  0  0
    6.7480   -2.3059    1.8983 H   0  0  0  0  0  0  0  0  0  0  0  0
  1  2  1  0
  2  3  1  0
  2  4  1  0
  4  5  1  0
  4  6  1  0
  6  7  2  0
  6  8  1  0
  8  9  1  0
  9 10  2  0
  9 11  2  0
  9 12  1  0
 12 13  1  0
 13 14  1  0
 14 15  1  0
 15 16  1  0
 16 17  1  0
 17 18  1  0
 17 19  1  0
 19 20  1  0
 16 21  1  0
 21 22  1  0
 22 23  2  0
 23 24  1  0
 24 25  2  0
 25 26  1  0
 25 27  1  0
 27 28  2  0
 28 29  1  0
 29 30  2  0
 19 14  1  0
 30 21  1  0
 30 24  1  0
  1 31  1  0
  1 32  1  0
  1 33  1  0
  2 34  1  0
  3 35  1  0
  3 36  1  0
  3 37  1  0
  4 38  1  1
  5 39  1  0
  5 40  1  0
  8 41  1  0
 13 42  1  0
 13 43  1  0
 14 44  1  6
 16 45  1  6
 17 46  1  1
 18 47  1  0
 19 48  1  1
 20 49  1  0
 22 50  1  0
 26 51  1  0
 26 52  1  0
 28 53  1  0
M  END
$$$$
[H]O[C@]([H])(C(=O)N1C([H])([H])C([H])([H])C([H])([H])[C@@]1([H])C(=O)N([H])[C@]([H])(C(=O)N([H])[H])C([H])([H])c1c([H])c([H])c([H])c([H])c1[H])[C@@]([H])(N([H])C(=O)[C@@]([H])(N([H])C(=O)c1c([H])c([H])c2c([H])c([H])c([H])c([H])c2c1[H])C([H])([H])C([H])(C([H])([H])[H])C([H])([H])[H])C([H])([H])c1c([H])c([H])c([H])c([H])c1[H]
     RDKit          3D

 99103  0  0  0  0  0  0  0  0999 V2000
   -4.3628    4.1288    0.6894 C   0  0  0  0  0  0  0  0  0  0  0  0
   -4.1069    3.0020    1.6727 C   0  0  0  0  0  0  0  0  0  0  0  0
   -3.6628    3.6438    2.9807 C   0  0  0  0  0  0  0  0  0  0  0  0
   -2.9541    2.1346    1.2083 C   0  0  0  0  0  0  0  0  0  0  0  0
   -3.1970    1.5306   -0.1303 C   0  0  2  0  0  0  0  0  0  0  0  0
   -4.3279    0.6897   -0.2433 N   0  0  0  0  0  0  0  0  0  0  0  0
   -5.3584    0.8402   -1.1662 C   0  0  0  0  0  0  0  0  0  0  0  0
   -5.3739    1.7695   -2.0099 O   0  0  0  0  0  0  0  0  0  0  0  0
   -6.4704   -0.1044   -1.1676 C   0  0  0  0  0  0  0  0  0  0  0  0
   -6.2577   -1.3678   -0.6669 C   0  0  0  0  0  0  0  0  0  0  0  0
   -7.3293   -2.2489   -0.6482 C   0  0  0  0  0  0  0  0  0  0  0  0
   -8.5613   -1.8466   -1.1219 C   0  0  0  0  0  0  0  0  0  0  0  0
   -9.6266   -2.7127   -1.0899 C   0  0  0  0  0  0  0  0  0  0  0  0
  -10.8904   -2.3498   -1.5433 C   0  0  0  0  0  0  0  0  0  0  0  0
  -11.0776   -1.0700   -2.0452 C   0  0  0  0  0  0  0  0  0  0  0  0
  -10.0098   -0.2000   -2.0777 C   0  0  0  0  0  0  0  0  0  0  0  0
   -8.7571   -0.5658   -1.6252 C   0  0  0  0  0  0  0  0  0  0  0  0
   -7.6955    0.3043   -1.6438 C   0  0  0  0  0  0  0  0  0  0  0  0
   -1.9863    0.7560   -0.6201 C   0  0  0  0  0  0  0  0  0  0  0  0
   -2.1392    0.2067   -1.7212 O   0  0  0  0  0  0  0  0  0  0  0  0
   -0.8259    0.6851    0.1340 N   0  0  0  0  0  0  0  0  0  0  0  0
    0.4383    0.0341   -0.1129 C   0  0  1  0  0  0  0  0  0  0  0  0
    1.4142    0.2459    0.9738 C   0  0  0  0  0  0  0  0  0  0  0  0
    1.0533   -0.1988    2.3252 C   0  0  0  0  0  0  0  0  0  0  0  0
    0.5066    0.6837    3.2298 C   0  0  0  0  0  0  0  0  0  0  0  0
    0.1182    0.3271    4.5118 C   0  0  0  0  0  0  0  0  0  0  0  0
    0.2928   -0.9922    4.8988 C   0  0  0  0  0  0  0  0  0  0  0  0
    0.8348   -1.9149    4.0376 C   0  0  0  0  0  0  0  0  0  0  0  0
    1.1939   -1.4833    2.7850 C   0  0  0  0  0  0  0  0  0  0  0  0
    0.2705   -1.3622   -0.6557 C   0  0  2  0  0  0  0  0  0  0  0  0
   -0.4357   -2.1849    0.2155 O   0  0  0  0  0  0  0  0  0  0  0  0
    1.4985   -2.0332   -1.1425 C   0  0  0  0  0  0  0  0  0  0  0  0
    1.8842   -3.1203   -0.5626 O   0  0  0  0  0  0  0  0  0  0  0  0
    2.3346   -1.6133   -2.2201 N   0  0  0  0  0  0  0  0  0  0  0  0
    2.2178   -0.4252   -3.0183 C   0  0  0  0  0  0  0  0  0  0  0  0
    3.0140   -0.6570   -4.2721 C   0  0  0  0  0  0  0  0  0  0  0  0
    3.5576   -2.0437   -4.1907 C   0  0  0  0  0  0  0  0  0  0  0  0
    3.4456   -2.3896   -2.7499 C   0  0  1  0  0  0  0  0  0  0  0  0
    4.6748   -2.0597   -2.0249 C   0  0  0  0  0  0  0  0  0  0  0  0
    5.7061   -2.7437   -2.3221 O   0  0  0  0  0  0  0  0  0  0  0  0
    4.7641   -1.0651   -1.0526 N   0  0  0  0  0  0  0  0  0  0  0  0
    6.0478   -0.8195   -0.3546 C   0  0  1  0  0  0  0  0  0  0  0  0
    6.2966    0.6329   -0.3028 C   0  0  0  0  0  0  0  0  0  0  0  0
    7.5393    1.0083    0.3777 C   0  0  0  0  0  0  0  0  0  0  0  0
    7.5349    1.4163    1.7071 C   0  0  0  0  0  0  0  0  0  0  0  0
    8.6926    1.7625    2.3329 C   0  0  0  0  0  0  0  0  0  0  0  0
    9.8884    1.7170    1.6708 C   0  0  0  0  0  0  0  0  0  0  0  0
    9.9047    1.3105    0.3442 C   0  0  0  0  0  0  0  0  0  0  0  0
    8.7311    0.9602   -0.2875 C   0  0  0  0  0  0  0  0  0  0  0  0
    5.9249   -1.4738    0.9584 C   0  0  0  0  0  0  0  0  0  0  0  0
    6.9539   -1.5727    1.9287 N   0  0  0  0  0  0  0  0  0  0  0  0
    4.8011   -2.0108    1.2698 O   0  0  0  0  0  0  0  0  0  0  0  0
   -3.4438    4.3415    0.0670 H   0  0  0  0  0  0  0  0  0  0  0  0
   -4.6564    5.0709    1.1872 H   0  0  0  0  0  0  0  0  0  0  0  0
   -5.2151    3.8643    0.0009 H   0  0  0  0  0  0  0  0  0  0  0  0
   -5.0266    2.4702    1.8750 H   0  0  0  0  0  0  0  0  0  0  0  0
   -3.8359    2.9566    3.8485 H   0  0  0  0  0  0  0  0  0  0  0  0
   -2.5760    3.9426    2.9268 H   0  0  0  0  0  0  0  0  0  0  0  0
   -4.1951    4.6067    3.1030 H   0  0  0  0  0  0  0  0  0  0  0  0
   -2.0685    2.8463    1.1852 H   0  0  0  0  0  0  0  0  0  0  0  0
   -2.6985    1.4146    2.0053 H   0  0  0  0  0  0  0  0  0  0  0  0
   -3.3472    2.4021   -0.8330 H   0  0  0  0  0  0  0  0  0  0  0  0
   -4.3752   -0.1149    0.4554 H   0  0  0  0  0  0  0  0  0  0  0  0
   -5.3131   -1.6857   -0.3048 H   0  0  0  0  0  0  0  0  0  0  0  0
   -7.1694   -3.2478   -0.2549 H   0  0  0  0  0  0  0  0  0  0  0  0
   -9.4369   -3.6984   -0.6946 H   0  0  0  0  0  0  0  0  0  0  0  0
  -11.7206   -3.0382   -1.5058 H   0  0  0  0  0  0  0  0  0  0  0  0
  -12.0632   -0.7847   -2.4033 H   0  0  0  0  0  0  0  0  0  0  0  0
  -10.1474    0.7959   -2.4664 H   0  0  0  0  0  0  0  0  0  0  0  0
   -7.8474    1.3105   -2.0349 H   0  0  0  0  0  0  0  0  0  0  0  0
   -0.8656    1.2126    1.0685 H   0  0  0  0  0  0  0  0  0  0  0  0
    0.8070    0.5588   -1.0499 H   0  0  0  0  0  0  0  0  0  0  0  0
    1.5599    1.3756    1.0351 H   0  0  0  0  0  0  0  0  0  0  0  0
    2.4542   -0.0767    0.7221 H   0  0  0  0  0  0  0  0  0  0  0  0
    0.3714    1.7321    2.9621 H   0  0  0  0  0  0  0  0  0  0  0  0
   -0.3049    1.0305    5.2087 H   0  0  0  0  0  0  0  0  0  0  0  0
   -0.0095   -1.3116    5.9072 H   0  0  0  0  0  0  0  0  0  0  0  0
    0.9672   -2.9628    4.3623 H   0  0  0  0  0  0  0  0  0  0  0  0
    1.6431   -2.2571    2.1310 H   0  0  0  0  0  0  0  0  0  0  0  0
   -0.3630   -1.2710   -1.5723 H   0  0  0  0  0  0  0  0  0  0  0  0
   -1.0005   -2.7799   -0.3039 H   0  0  0  0  0  0  0  0  0  0  0  0
    2.6056    0.4612   -2.4553 H   0  0  0  0  0  0  0  0  0  0  0  0
    1.1647   -0.2073   -3.3103 H   0  0  0  0  0  0  0  0  0  0  0  0
    3.8542    0.0910   -4.2765 H   0  0  0  0  0  0  0  0  0  0  0  0
    2.4211   -0.4482   -5.1994 H   0  0  0  0  0  0  0  0  0  0  0  0
    4.6345   -2.0263   -4.5159 H   0  0  0  0  0  0  0  0  0  0  0  0
    3.0184   -2.7890   -4.8117 H   0  0  0  0  0  0  0  0  0  0  0  0
    3.1944   -3.4984   -2.6218 H   0  0  0  0  0  0  0  0  0  0  0  0
    3.9593   -0.4955   -0.8294 H   0  0  0  0  0  0  0  0  0  0  0  0
    6.8614   -1.3410   -0.9039 H   0  0  0  0  0  0  0  0  0  0  0  0
    6.2897    1.0514   -1.3411 H   0  0  0  0  0  0  0  0  0  0  0  0
    5.4330    1.1718    0.1991 H   0  0  0  0  0  0  0  0  0  0  0  0
    6.5596    1.4328    2.1876 H   0  0  0  0  0  0  0  0  0  0  0  0
    8.6633    2.0801    3.3824 H   0  0  0  0  0  0  0  0  0  0  0  0
   10.8472    1.9794    2.1154 H   0  0  0  0  0  0  0  0  0  0  0  0
   10.8290    1.2614   -0.2073 H   0  0  0  0  0  0  0  0  0  0  0  0
    8.7422    0.6366   -1.3388 H   0  0  0  0  0  0  0  0  0  0  0  0
    6.7577   -1.4635    2.9386 H   0  0  0  0  0  0  0  0  0  0  0  0
    7.9133   -1.7592    1.5659 H   0  0  0  0  0  0  0  0  0  0  0  0
  1  2  1  0
  2  3  1  0
  2  4  1  0
  4  5  1  0
  5  6  1  0
  6  7  1  0
  7  8  2  0
  7  9  1  0
  9 10  2  0
 10 11  1  0
 11 12  2  0
 12 13  1  0
 13 14  2  0
 14 15  1  0
 15 16  2  0
 16 17  1  0
 17 18  2  0
  5 19  1  0
 19 20  2  0
 19 21  1  0
 21 22  1  0
 22 23  1  0
 23 24  1  0
 24 25  2  0
 25 26  1  0
 26 27  2  0
 27 28  1  0
 28 29  2  0
 22 30  1  0
 30 31  1  0
 30 32  1  0
 32 33  2  0
 32 34  1  0
 34 35  1  0
 35 36  1  0
 36 37  1  0
 37 38  1  0
 38 39  1  0
 39 40  2  0
 39 41  1  0
 41 42  1  0
 42 43  1  0
 43 44  1  0
 44 45  2  0
 45 46  1  0
 46 47  2  0
 47 48  1  0
 48 49  2  0
 42 50  1  0
 50 51  1  0
 50 52  2  0
 18  9  1  0
 29 24  1  0
 38 34  1  0
 49 44  1  0
 17 12  1  0
  1 53  1  0
  1 54  1  0
  1 55  1  0
  2 56  1  0
  3 57  1  0
  3 58  1  0
  3 59  1  0
  4 60  1  0
  4 61  1  0
  5 62  1  6
  6 63  1  0
 10 64  1  0
 11 65  1  0
 13 66  1  0
 14 67  1  0
 15 68  1  0
 16 69  1  0
 18 70  1  0
 21 71  1  0
 22 72  1  6
 23 73  1  0
 23 74  1  0
 25 75  1  0
 26 76  1  0
 27 77  1  0
 28 78  1  0
 29 79  1  0
 30 80  1  6
 31 81  1  0
 35 82  1  0
 35 83  1  0
 36 84  1  0
 36 85  1  0
 37 86  1  0
 37 87  1  0
 38 88  1  6
 41 89  1  0
 42 90  1  6
 43 91  1  0
 43 92  1  0
 45 93  1  0
 46 94  1  0
 47 95  1  0
 48 96  1  0
 49 97  1  0
 51 98  1  0
 51 99  1  0
M  END
$$$$
[H]OC([H])([H])[C@@]1(O[H])C([H])([H])[C@@]2([H])O[C@]1(C([H])([H])[H])n1c3c([H])c([H])c([H])c([H])c3c3c4c(c5c6c([H])c([H])c([H])c([H])c6n2c5c31)C([H])([H])N([H])C4=O
     RDKit          3D

 54 61  0  0  0  0  0  0  0  0999 V2000
   -3.1418    0.1931   -1.6977 C   0  0  0  0  0  0  0  0  0  0  0  0
   -2.0672   -0.2416   -0.7056 C   0  0  2  0  0  0  0  0  0  0  0  0
   -1.3646   -1.1997   -1.4964 O   0  0  0  0  0  0  0  0  0  0  0  0
   -0.7981   -2.1262   -0.6953 C   0  0  2  0  0  0  0  0  0  0  0  0
   -1.5276   -2.1485    0.6200 C   0  0  0  0  0  0  0  0  0  0  0  0
   -2.5695   -1.0630    0.4128 C   0  0  1  0  0  0  0  0  0  0  0  0
   -2.6570   -0.3884    1.6282 O   0  0  0  0  0  0  0  0  0  0  0  0
   -3.8528   -1.7770    0.0694 C   0  0  0  0  0  0  0  0  0  0  0  0
   -4.0858   -2.7043    1.1135 O   0  0  0  0  0  0  0  0  0  0  0  0
    0.5793   -1.7015   -0.4398 N   0  0  0  0  0  0  0  0  0  0  0  0
    1.6738   -2.4346   -0.3714 C   0  0  0  0  0  0  0  0  0  0  0  0
    1.8583   -3.7887   -0.5335 C   0  0  0  0  0  0  0  0  0  0  0  0
    3.1414   -4.3156   -0.4065 C   0  0  0  0  0  0  0  0  0  0  0  0
    4.2342   -3.4936   -0.1189 C   0  0  0  0  0  0  0  0  0  0  0  0
    4.0565   -2.1365    0.0448 C   0  0  0  0  0  0  0  0  0  0  0  0
    2.7810   -1.6383   -0.0852 C   0  0  0  0  0  0  0  0  0  0  0  0
    2.3012   -0.3773    0.0176 C   0  0  0  0  0  0  0  0  0  0  0  0
    2.8723    0.8606    0.3054 C   0  0  0  0  0  0  0  0  0  0  0  0
    4.2732    1.1913    0.5786 C   0  0  0  0  0  0  0  0  0  0  0  0
    4.3352    2.5993    0.8085 N   0  0  0  0  0  0  0  0  0  0  0  0
    2.9989    3.1293    0.6853 C   0  0  0  0  0  0  0  0  0  0  0  0
    2.8128    4.3449    0.8491 O   0  0  0  0  0  0  0  0  0  0  0  0
    2.1260    2.0179    0.3735 C   0  0  0  0  0  0  0  0  0  0  0  0
    0.7457    1.9615    0.1469 C   0  0  0  0  0  0  0  0  0  0  0  0
   -0.2780    2.8547    0.1442 C   0  0  0  0  0  0  0  0  0  0  0  0
   -0.3187    4.2083    0.3824 C   0  0  0  0  0  0  0  0  0  0  0  0
   -1.5450    4.8840    0.3328 C   0  0  0  0  0  0  0  0  0  0  0  0
   -2.6768    4.1782    0.0481 C   0  0  0  0  0  0  0  0  0  0  0  0
   -2.6202    2.7986   -0.1923 C   0  0  0  0  0  0  0  0  0  0  0  0
   -1.4312    2.1354   -0.1473 C   0  0  0  0  0  0  0  0  0  0  0  0
   -1.1606    0.8290   -0.3299 N   0  0  0  0  0  0  0  0  0  0  0  0
    0.1923    0.7267   -0.1399 C   0  0  0  0  0  0  0  0  0  0  0  0
    0.9525   -0.4140   -0.2008 C   0  0  0  0  0  0  0  0  0  0  0  0
   -2.7736    1.0854   -2.2392 H   0  0  0  0  0  0  0  0  0  0  0  0
   -4.1419    0.2639   -1.2813 H   0  0  0  0  0  0  0  0  0  0  0  0
   -3.2680   -0.5679   -2.5374 H   0  0  0  0  0  0  0  0  0  0  0  0
   -0.7545   -3.1251   -1.1405 H   0  0  0  0  0  0  0  0  0  0  0  0
   -0.8671   -1.9293    1.4852 H   0  0  0  0  0  0  0  0  0  0  0  0
   -1.9993   -3.1350    0.8358 H   0  0  0  0  0  0  0  0  0  0  0  0
   -3.6289   -0.2375    1.7982 H   0  0  0  0  0  0  0  0  0  0  0  0
   -4.7401   -1.1363    0.0603 H   0  0  0  0  0  0  0  0  0  0  0  0
   -3.6991   -2.3235   -0.8791 H   0  0  0  0  0  0  0  0  0  0  0  0
   -5.0082   -3.0956    0.9841 H   0  0  0  0  0  0  0  0  0  0  0  0
    1.0005   -4.4111   -0.7561 H   0  0  0  0  0  0  0  0  0  0  0  0
    3.2850   -5.3803   -0.5342 H   0  0  0  0  0  0  0  0  0  0  0  0
    5.1985   -3.9557   -0.0327 H   0  0  0  0  0  0  0  0  0  0  0  0
    4.9100   -1.5059    0.2678 H   0  0  0  0  0  0  0  0  0  0  0  0
    4.9522    0.9665   -0.2718 H   0  0  0  0  0  0  0  0  0  0  0  0
    4.6842    0.6522    1.4610 H   0  0  0  0  0  0  0  0  0  0  0  0
    5.2083    3.1735    1.0330 H   0  0  0  0  0  0  0  0  0  0  0  0
    0.5315    4.8155    0.6109 H   0  0  0  0  0  0  0  0  0  0  0  0
   -1.5422    5.9334    0.5217 H   0  0  0  0  0  0  0  0  0  0  0  0
   -3.6566    4.6541   -0.0027 H   0  0  0  0  0  0  0  0  0  0  0  0
   -3.5301    2.2946   -0.3838 H   0  0  0  0  0  0  0  0  0  0  0  0
  2  1  1  6
  2  3  1  0
  3  4  1  0
  4  5  1  0
  5  6  1  0
  6  7  1  1
  6  8  1  0
  8  9  1  0
  4 10  1  0
 10 11  1  0
 11 12  2  0
 12 13  1  0
 13 14  2  0
 14 15  1  0
 15 16  2  0
 16 17  1  0
 17 18  2  0
 18 19  1  0
 19 20  1  0
 20 21  1  0
 21 22  2  0
 21 23  1  0
 23 24  2  0
 24 25  1  0
 25 26  2  0
 26 27  1  0
 27 28  2  0
 28 29  1  0
 29 30  2  0
 30 31  1  0
 31 32  1  0
 32 33  2  0
  6  2  1  0
 33 10  1  0
 31  2  1  0
 16 11  1  0
 33 17  1  0
 23 18  1  0
 32 24  1  0
 30 25  1  0
  1 34  1  0
  1 35  1  0
  1 36  1  0
  4 37  1  6
  5 38  1  0
  5 39  1  0
  7 40  1  0
  8 41  1  0
  8 42  1  0
  9 43  1  0
 12 44  1  0
 13 45  1  0
 14 46  1  0
 15 47  1  0
 19 48  1  0
 19 49  1  0
 20 50  1  0
 26 51  1  0
 27 52  1  0
 28 53  1  0
 29 54  1  0
M  END
$$$$
[H]O[C@@]([H])(C(=O)N1C([H])([H])C([H])([H])C([H])([H])[C@@]1([H])C(=O)N([H])[C@]([H])(C(=O)N([H])[C@]([H])(C(=O)N([H])[H])C([H])([H])c1c([H])c([H])c([H])c([H])c1[H])C([H])([H])[H])[C@@]([H])(N([H])C(=O)[C@@]([H])(N([H])C(=O)[C@@]1([H])N(C(=O)[C@@]([H])(N([H])[H])C([H])([H])c2c([H])n([H])c3c([H])c([H])c([H])c([H])c23)C([H])([H])C([H])([H])C1([H])[H])C([H])([H])C([H])(C([H])([H])[H])C([H])([H])[H])C([H])([H])c1c([H])c([H])c([H])c([H])c1[H]
     RDKit          3D

129134  0  0  0  0  0  0  0  0999 V2000
   -0.8511    0.7636   -3.4374 C   0  0  0  0  0  0  0  0  0  0  0  0
   -2.2342    0.2275   -3.5792 C   0  0  0  0  0  0  0  0  0  0  0  0
   -3.1889    1.2455   -4.1816 C   0  0  0  0  0  0  0  0  0  0  0  0
   -2.7863   -0.6111   -2.5057 C   0  0  0  0  0  0  0  0  0  0  0  0
   -2.9223   -0.0961   -1.1220 C   0  0  2  0  0  0  0  0  0  0  0  0
   -3.7155    1.0427   -0.9327 N   0  0  0  0  0  0  0  0  0  0  0  0
   -4.7642    1.0674    0.0465 C   0  0  0  0  0  0  0  0  0  0  0  0
   -4.9531    0.0285    0.7627 O   0  0  0  0  0  0  0  0  0  0  0  0
   -5.6525    2.2240    0.2895 C   0  0  2  0  0  0  0  0  0  0  0  0
   -4.9630    3.5392    0.4062 C   0  0  0  0  0  0  0  0  0  0  0  0
   -4.6379    3.7115    1.8568 C   0  0  0  0  0  0  0  0  0  0  0  0
   -5.4550    2.6831    2.5686 C   0  0  0  0  0  0  0  0  0  0  0  0
   -6.3365    2.0835    1.5480 N   0  0  0  0  0  0  0  0  0  0  0  0
   -7.5708    1.5116    1.9176 C   0  0  0  0  0  0  0  0  0  0  0  0
   -7.8819    1.5518    3.1675 O   0  0  0  0  0  0  0  0  0  0  0  0
   -8.5121    0.8792    0.9883 C   0  0  1  0  0  0  0  0  0  0  0  0
   -9.3461   -0.0154    1.7693 N   0  0  0  0  0  0  0  0  0  0  0  0
   -9.3469    1.8965    0.2458 C   0  0  0  0  0  0  0  0  0  0  0  0
  -10.2868    1.2301   -0.6807 C   0  0  0  0  0  0  0  0  0  0  0  0
   -9.9892    0.9870   -2.0208 C   0  0  0  0  0  0  0  0  0  0  0  0
  -11.0171    0.3360   -2.5419 N   0  0  0  0  0  0  0  0  0  0  0  0
  -11.9776    0.1387   -1.6188 C   0  0  0  0  0  0  0  0  0  0  0  0
  -13.2130   -0.4712   -1.6875 C   0  0  0  0  0  0  0  0  0  0  0  0
  -13.9702   -0.4997   -0.5619 C   0  0  0  0  0  0  0  0  0  0  0  0
  -13.5586    0.0537    0.6406 C   0  0  0  0  0  0  0  0  0  0  0  0
  -12.3160    0.6631    0.6984 C   0  0  0  0  0  0  0  0  0  0  0  0
  -11.5350    0.7026   -0.4177 C   0  0  0  0  0  0  0  0  0  0  0  0
   -1.5598   -0.0440   -0.4970 C   0  0  0  0  0  0  0  0  0  0  0  0
   -1.0682    1.0385   -0.1825 O   0  0  0  0  0  0  0  0  0  0  0  0
   -0.8480   -1.2495   -0.2686 N   0  0  0  0  0  0  0  0  0  0  0  0
    0.4614   -1.4059    0.3097 C   0  0  1  0  0  0  0  0  0  0  0  0
    0.3598   -1.8032    1.7656 C   0  0  0  0  0  0  0  0  0  0  0  0
   -0.3974   -0.8360    2.5952 C   0  0  0  0  0  0  0  0  0  0  0  0
    0.1846    0.2191    3.2411 C   0  0  0  0  0  0  0  0  0  0  0  0
   -0.5455    1.1028    4.0268 C   0  0  0  0  0  0  0  0  0  0  0  0
   -1.9111    0.9205    4.1697 C   0  0  0  0  0  0  0  0  0  0  0  0
   -2.5097   -0.1535    3.5123 C   0  0  0  0  0  0  0  0  0  0  0  0
   -1.7588   -1.0208    2.7336 C   0  0  0  0  0  0  0  0  0  0  0  0
    1.1415   -2.4787   -0.5408 C   0  0  1  0  0  0  0  0  0  0  0  0
    1.2909   -2.0132   -1.8273 O   0  0  0  0  0  0  0  0  0  0  0  0
    2.2605   -3.1842    0.0051 C   0  0  0  0  0  0  0  0  0  0  0  0
    2.1203   -3.6207    1.2255 O   0  0  0  0  0  0  0  0  0  0  0  0
    3.4860   -3.4543   -0.6483 N   0  0  0  0  0  0  0  0  0  0  0  0
    3.9136   -3.1269   -1.9547 C   0  0  0  0  0  0  0  0  0  0  0  0
    4.9856   -4.1295   -2.3596 C   0  0  0  0  0  0  0  0  0  0  0  0
    5.2282   -4.9349   -1.1389 C   0  0  0  0  0  0  0  0  0  0  0  0
    4.5408   -4.2045    0.0184 C   0  0  1  0  0  0  0  0  0  0  0  0
    5.5052   -3.4243    0.7937 C   0  0  0  0  0  0  0  0  0  0  0  0
    5.5715   -3.5993    2.0606 O   0  0  0  0  0  0  0  0  0  0  0  0
    6.3734   -2.4917    0.1977 N   0  0  0  0  0  0  0  0  0  0  0  0
    7.3584   -1.6997    0.9496 C   0  0  1  0  0  0  0  0  0  0  0  0
    8.5995   -2.5697    1.1959 C   0  0  0  0  0  0  0  0  0  0  0  0
    7.6592   -0.4612    0.2460 C   0  0  0  0  0  0  0  0  0  0  0  0
    6.8095    0.1349   -0.4875 O   0  0  0  0  0  0  0  0  0  0  0  0
    8.9453    0.1446    0.3441 N   0  0  0  0  0  0  0  0  0  0  0  0
    9.2261    1.3797   -0.3908 C   0  0  1  0  0  0  0  0  0  0  0  0
    9.5504    2.5309    0.4954 C   0  0  0  0  0  0  0  0  0  0  0  0
   10.7500    2.2278    1.3343 C   0  0  0  0  0  0  0  0  0  0  0  0
   10.5906    1.5928    2.5521 C   0  0  0  0  0  0  0  0  0  0  0  0
   11.6985    1.3228    3.3248 C   0  0  0  0  0  0  0  0  0  0  0  0
   12.9625    1.6718    2.9103 C   0  0  0  0  0  0  0  0  0  0  0  0
   13.1031    2.3005    1.6989 C   0  0  0  0  0  0  0  0  0  0  0  0
   12.0055    2.5822    0.9076 C   0  0  0  0  0  0  0  0  0  0  0  0
   10.2569    1.0944   -1.3957 C   0  0  0  0  0  0  0  0  0  0  0  0
   10.6683    2.0365   -2.3663 N   0  0  0  0  0  0  0  0  0  0  0  0
   10.8272   -0.0451   -1.4302 O   0  0  0  0  0  0  0  0  0  0  0  0
   -0.1754    0.2158   -2.7784 H   0  0  0  0  0  0  0  0  0  0  0  0
   -0.3082    0.8132   -4.4192 H   0  0  0  0  0  0  0  0  0  0  0  0
   -0.9059    1.8450   -3.1280 H   0  0  0  0  0  0  0  0  0  0  0  0
   -2.1238   -0.5158   -4.4648 H   0  0  0  0  0  0  0  0  0  0  0  0
   -2.9085    1.4082   -5.2747 H   0  0  0  0  0  0  0  0  0  0  0  0
   -4.1855    0.7696   -4.1962 H   0  0  0  0  0  0  0  0  0  0  0  0
   -3.1329    2.2417   -3.7447 H   0  0  0  0  0  0  0  0  0  0  0  0
   -2.1359   -1.5422   -2.4755 H   0  0  0  0  0  0  0  0  0  0  0  0
   -3.7687   -1.0114   -2.8986 H   0  0  0  0  0  0  0  0  0  0  0  0
   -3.4195   -0.9446   -0.5369 H   0  0  0  0  0  0  0  0  0  0  0  0
   -3.5944    1.9114   -1.4736 H   0  0  0  0  0  0  0  0  0  0  0  0
   -6.3883    2.2947   -0.5526 H   0  0  0  0  0  0  0  0  0  0  0  0
   -4.0169    3.5887   -0.2058 H   0  0  0  0  0  0  0  0  0  0  0  0
   -5.6044    4.3750    0.0011 H   0  0  0  0  0  0  0  0  0  0  0  0
   -3.5310    3.5574    2.0435 H   0  0  0  0  0  0  0  0  0  0  0  0
   -4.8550    4.7433    2.2205 H   0  0  0  0  0  0  0  0  0  0  0  0
   -4.7885    1.9047    2.9678 H   0  0  0  0  0  0  0  0  0  0  0  0
   -6.0834    3.1397    3.3787 H   0  0  0  0  0  0  0  0  0  0  0  0
   -7.9908    0.2416    0.2196 H   0  0  0  0  0  0  0  0  0  0  0  0
   -9.3515   -0.9775    1.3799 H   0  0  0  0  0  0  0  0  0  0  0  0
   -8.9747   -0.1302    2.7509 H   0  0  0  0  0  0  0  0  0  0  0  0
   -8.6817    2.5754   -0.2890 H   0  0  0  0  0  0  0  0  0  0  0  0
   -9.9685    2.4656    0.9813 H   0  0  0  0  0  0  0  0  0  0  0  0
   -9.0496    1.3030   -2.4946 H   0  0  0  0  0  0  0  0  0  0  0  0
  -11.0593    0.0234   -3.5565 H   0  0  0  0  0  0  0  0  0  0  0  0
  -13.5243   -0.8974   -2.6380 H   0  0  0  0  0  0  0  0  0  0  0  0
  -14.9441   -0.9727   -0.5904 H   0  0  0  0  0  0  0  0  0  0  0  0
  -14.1883    0.0172    1.5249 H   0  0  0  0  0  0  0  0  0  0  0  0
  -12.0158    1.1144    1.6525 H   0  0  0  0  0  0  0  0  0  0  0  0
   -1.3163   -2.1649   -0.5446 H   0  0  0  0  0  0  0  0  0  0  0  0
    1.0846   -0.5068    0.2881 H   0  0  0  0  0  0  0  0  0  0  0  0
   -0.0231   -2.7966    1.9567 H   0  0  0  0  0  0  0  0  0  0  0  0
    1.4301   -1.7168    2.1467 H   0  0  0  0  0  0  0  0  0  0  0  0
    1.2572    0.4011    3.1591 H   0  0  0  0  0  0  0  0  0  0  0  0
   -0.0649    1.9448    4.5431 H   0  0  0  0  0  0  0  0  0  0  0  0
   -2.5392    1.5800    4.7805 H   0  0  0  0  0  0  0  0  0  0  0  0
   -3.5948   -0.2661    3.6498 H   0  0  0  0  0  0  0  0  0  0  0  0
   -2.3104   -1.8326    2.2556 H   0  0  0  0  0  0  0  0  0  0  0  0
    0.2617   -3.2457   -0.6764 H   0  0  0  0  0  0  0  0  0  0  0  0
    0.4671   -2.0809   -2.3913 H   0  0  0  0  0  0  0  0  0  0  0  0
    4.3134   -2.1074   -1.9868 H   0  0  0  0  0  0  0  0  0  0  0  0
    3.1031   -3.1711   -2.7340 H   0  0  0  0  0  0  0  0  0  0  0  0
    5.8511   -3.5546   -2.7428 H   0  0  0  0  0  0  0  0  0  0  0  0
    4.5605   -4.7599   -3.2032 H   0  0  0  0  0  0  0  0  0  0  0  0
    6.2979   -5.0363   -0.9245 H   0  0  0  0  0  0  0  0  0  0  0  0
    4.7909   -5.9429   -1.2780 H   0  0  0  0  0  0  0  0  0  0  0  0
    4.0818   -5.0181    0.6443 H   0  0  0  0  0  0  0  0  0  0  0  0
    6.3665   -2.3073   -0.8259 H   0  0  0  0  0  0  0  0  0  0  0  0
    6.9580   -1.5126    1.9606 H   0  0  0  0  0  0  0  0  0  0  0  0
    9.1690   -2.7859    0.3027 H   0  0  0  0  0  0  0  0  0  0  0  0
    8.1891   -3.4866    1.7043 H   0  0  0  0  0  0  0  0  0  0  0  0
    9.2275   -2.0156    1.9099 H   0  0  0  0  0  0  0  0  0  0  0  0
    9.6572   -0.3084    0.9390 H   0  0  0  0  0  0  0  0  0  0  0  0
    8.2459    1.6504   -0.9054 H   0  0  0  0  0  0  0  0  0  0  0  0
    9.7738    3.4157   -0.1491 H   0  0  0  0  0  0  0  0  0  0  0  0
    8.6816    2.7539    1.1488 H   0  0  0  0  0  0  0  0  0  0  0  0
    9.5963    1.3072    2.9083 H   0  0  0  0  0  0  0  0  0  0  0  0
   11.5836    0.8163    4.2957 H   0  0  0  0  0  0  0  0  0  0  0  0
   13.8353    1.4602    3.5248 H   0  0  0  0  0  0  0  0  0  0  0  0
   14.0972    2.5930    1.3336 H   0  0  0  0  0  0  0  0  0  0  0  0
   12.1489    3.0954   -0.0455 H   0  0  0  0  0  0  0  0  0  0  0  0
   11.6690    2.2345   -2.5734 H   0  0  0  0  0  0  0  0  0  0  0  0
    9.9713    2.5847   -2.9285 H   0  0  0  0  0  0  0  0  0  0  0  0
  1  2  1  0
  2  3  1  0
  2  4  1  0
  4  5  1  0
  5  6  1  0
  6  7  1  0
  7  8  2  0
  7  9  1  0
  9 10  1  0
 10 11  1  0
 11 12  1  0
 12 13  1  0
 13 14  1  0
 14 15  2  0
 14 16  1  0
 16 17  1  0
 16 18  1  0
 18 19  1  0
 19 20  2  0
 20 21  1  0
 21 22  1  0
 22 23  2  0
 23 24  1  0
 24 25  2  0
 25 26  1  0
 26 27  2  0
  5 28  1  0
 28 29  2  0
 28 30  1  0
 30 31  1  0
 31 32  1  0
 32 33  1  0
 33 34  2  0
 34 35  1  0
 35 36  2  0
 36 37  1  0
 37 38  2  0
 31 39  1  0
 39 40  1  0
 39 41  1  0
 41 42  2  0
 41 43  1  0
 43 44  1  0
 44 45  1  0
 45 46  1  0
 46 47  1  0
 47 48  1  0
 48 49  2  0
 48 50  1  0
 50 51  1  0
 51 52  1  0
 51 53  1  0
 53 54  2  0
 53 55  1  0
 55 56  1  0
 56 57  1  0
 57 58  1  0
 58 59  2  0
 59 60  1  0
 60 61  2  0
 61 62  1  0
 62 63  2  0
 56 64  1  0
 64 65  1  0
 64 66  2  0
 13  9  1  0
 27 19  1  0
 38 33  1  0
 47 43  1  0
 63 58  1  0
 27 22  1  0
  1 67  1  0
  1 68  1  0
  1 69  1  0
  2 70  1  0
  3 71  1  0
  3 72  1  0
  3 73  1  0
  4 74  1  0
  4 75  1  0
  5 76  1  1
  6 77  1  0
  9 78  1  6
 10 79  1  0
 10 80  1  0
 11 81  1  0
 11 82  1  0
 12 83  1  0
 12 84  1  0
 16 85  1  6
 17 86  1  0
 17 87  1  0
 18 88  1  0
 18 89  1  0
 20 90  1  0
 21 91  1  0
 23 92  1  0
 24 93  1  0
 25 94  1  0
 26 95  1  0
 30 96  1  0
 31 97  1  1
 32 98  1  0
 32 99  1  0
 34100  1  0
 35101  1  0
 36102  1  0
 37103  1  0
 38104  1  0
 39105  1  6
 40106  1  0
 44107  1  0
 44108  1  0
 45109  1  0
 45110  1  0
 46111  1  0
 46112  1  0
 47113  1  1
 50114  1  0
 51115  1  1
 52116  1  0
 52117  1  0
 52118  1  0
 55119  1  0
 56120  1  6
 57121  1  0
 57122  1  0
 59123  1  0
 60124  1  0
 61125  1  0
 62126  1  0
 63127  1  0
 65128  1  0
 65129  1  0
M  END
$$$$
[H]OC(=O)c1c(O[H])c([H])c(OC([H])([H])[H])c([H])c1-c1c(O[H])c([H])c(O[H])c2c1-c1c-2c([H])c(O[H])c([H])c1C([H])([H])[H]
     RDKit          3D

 44 47  0  0  0  0  0  0  0  0999 V2000
    4.7120   -1.8254    2.3201 C   0  0  0  0  0  0  0  0  0  0  0  0
    3.6050   -0.9817    2.3064 O   0  0  0  0  0  0  0  0  0  0  0  0
    2.9923   -0.6764    1.0834 C   0  0  0  0  0  0  0  0  0  0  0  0
    3.4935   -1.2125   -0.0687 C   0  0  0  0  0  0  0  0  0  0  0  0
    2.8883   -0.9145   -1.3025 C   0  0  0  0  0  0  0  0  0  0  0  0
    3.4618   -1.4935   -2.3632 O   0  0  0  0  0  0  0  0  0  0  0  0
    1.7919   -0.0792   -1.3181 C   0  0  0  0  0  0  0  0  0  0  0  0
    1.1371    0.2503   -2.5702 C   0  0  0  0  0  0  0  0  0  0  0  0
    0.0252    1.0820   -2.6943 O   0  0  0  0  0  0  0  0  0  0  0  0
    1.5712   -0.2274   -3.6438 O   0  0  0  0  0  0  0  0  0  0  0  0
    1.2764    0.4683   -0.1642 C   0  0  0  0  0  0  0  0  0  0  0  0
    1.8955    0.1576    1.0554 C   0  0  0  0  0  0  0  0  0  0  0  0
    0.1354    1.3512   -0.1248 C   0  0  0  0  0  0  0  0  0  0  0  0
    0.3573    2.7301   -0.2289 C   0  0  0  0  0  0  0  0  0  0  0  0
    1.6344    3.2527   -0.3961 O   0  0  0  0  0  0  0  0  0  0  0  0
   -0.6962    3.6148   -0.1677 C   0  0  0  0  0  0  0  0  0  0  0  0
   -1.9926    3.1112    0.0005 C   0  0  0  0  0  0  0  0  0  0  0  0
   -3.0556    4.0125    0.0617 O   0  0  0  0  0  0  0  0  0  0  0  0
   -2.2345    1.7699    0.1045 C   0  0  0  0  0  0  0  0  0  0  0  0
   -1.1723    0.8982    0.0416 C   0  0  0  0  0  0  0  0  0  0  0  0
   -2.1257   -0.1950    0.2074 C   0  0  0  0  0  0  0  0  0  0  0  0
   -2.2961   -1.5649    0.3056 C   0  0  0  0  0  0  0  0  0  0  0  0
   -1.1212   -2.4557    0.2317 C   0  0  0  0  0  0  0  0  0  0  0  0
   -3.5741   -2.0389    0.4700 C   0  0  0  0  0  0  0  0  0  0  0  0
   -4.6453   -1.1882    0.5351 C   0  0  0  0  0  0  0  0  0  0  0  0
   -5.9112   -1.7018    0.7006 O   0  0  0  0  0  0  0  0  0  0  0  0
   -4.4602    0.1547    0.4370 C   0  0  0  0  0  0  0  0  0  0  0  0
   -3.1980    0.6935    0.2705 C   0  0  0  0  0  0  0  0  0  0  0  0
    5.1178   -1.8613    3.3547 H   0  0  0  0  0  0  0  0  0  0  0  0
    5.5474   -1.4443    1.6759 H   0  0  0  0  0  0  0  0  0  0  0  0
    4.4877   -2.8567    1.9712 H   0  0  0  0  0  0  0  0  0  0  0  0
    4.3723   -1.8770   -0.0189 H   0  0  0  0  0  0  0  0  0  0  0  0
    3.3074   -1.4998   -3.2990 H   0  0  0  0  0  0  0  0  0  0  0  0
    0.0219    1.8398   -3.3932 H   0  0  0  0  0  0  0  0  0  0  0  0
    1.4913    0.5877    1.9672 H   0  0  0  0  0  0  0  0  0  0  0  0
    2.4410    2.6309   -0.4462 H   0  0  0  0  0  0  0  0  0  0  0  0
   -0.5075    4.6631   -0.2490 H   0  0  0  0  0  0  0  0  0  0  0  0
   -2.9318    5.0032   -0.0093 H   0  0  0  0  0  0  0  0  0  0  0  0
   -0.5934   -2.4502    1.2293 H   0  0  0  0  0  0  0  0  0  0  0  0
   -1.5226   -3.4910    0.0361 H   0  0  0  0  0  0  0  0  0  0  0  0
   -0.4581   -2.1559   -0.5784 H   0  0  0  0  0  0  0  0  0  0  0  0
   -3.7131   -3.1249    0.5482 H   0  0  0  0  0  0  0  0  0  0  0  0
   -6.2804   -1.8386    1.6406 H   0  0  0  0  0  0  0  0  0  0  0  0
   -5.2743    0.8829    0.4817 H   0  0  0  0  0  0  0  0  0  0  0  0
  1  2  1  0
  2  3  1  0
  3  4  2  0
  4  5  1  0
  5  6  1  0
  5  7  2  0
  7  8  1  0
  8  9  1  0
  8 10  2  0
  7 11  1  0
 11 12  2  0
 11 13  1  0
 13 14  2  0
 14 15  1  0
 14 16  1  0
 16 17  2  0
 17 18  1  0
 17 19  1  0
 19 20  2  0
 20 21  1  0
 21 22  2  0
 22 23  1  0
 22 24  1  0
 24 25  2  0
 25 26  1  0
 25 27  1  0
 27 28  2  0
 12  3  1  0
 20 13  1  0
 28 21  1  0
 28 19  1  0
  1 29  1  0
  1 30  1  0
  1 31  1  0
  4 32  1  0
  6 33  1  0
  9 34  1  0
 12 35  1  0
 15 36  1  0
 16 37  1  0
 18 38  1  0
 23 39  1  0
 23 40  1  0
 23 41  1  0
 24 42  1  0
 26 43  1  0
 27 44  1  0
M  END
$$$$
[H]c1nc2c(N([H])C3([H])C([H])([H])C3([H])[H])nc(N([H])c3c([H])c(C#N)c([H])c(N4C([H])([H])C([H])([H])N(C5([H])C([H])([H])OC5([H])[H])C([H])([H])C4([H])[H])c3Cl)nn2c1C#N
     RDKit          3D

 58 63  0  0  0  0  0  0  0  0999 V2000
   -0.0634    1.8792   -1.2818 Cl  0  0  0  0  0  0  0  0  0  0  0  0
   -0.4478    0.1844   -0.9482 C   0  0  0  0  0  0  0  0  0  0  0  0
    0.6563   -0.6186   -0.5871 C   0  0  0  0  0  0  0  0  0  0  0  0
    1.9297   -0.0520   -0.4942 N   0  0  0  0  0  0  0  0  0  0  0  0
    3.1490   -0.6598   -0.1683 C   0  0  0  0  0  0  0  0  0  0  0  0
    4.2932    0.1086   -0.1367 N   0  0  0  0  0  0  0  0  0  0  0  0
    5.4824   -0.3876    0.1592 C   0  0  0  0  0  0  0  0  0  0  0  0
    6.6446    0.4526    0.1791 N   0  0  0  0  0  0  0  0  0  0  0  0
    6.5576    1.8619   -0.1202 C   0  0  0  0  0  0  0  0  0  0  0  0
    5.6206    2.6187    0.8519 C   0  0  0  0  0  0  0  0  0  0  0  0
    7.0930    2.9055    0.7539 C   0  0  0  0  0  0  0  0  0  0  0  0
    5.5887   -1.7307    0.4496 C   0  0  0  0  0  0  0  0  0  0  0  0
    6.6536   -2.4825    0.7771 N   0  0  0  0  0  0  0  0  0  0  0  0
    6.2542   -3.7466    0.9685 C   0  0  0  0  0  0  0  0  0  0  0  0
    4.8960   -3.7624    0.7488 C   0  0  0  0  0  0  0  0  0  0  0  0
    3.9868   -4.8765    0.8261 C   0  0  0  0  0  0  0  0  0  0  0  0
    3.2571   -5.7778    0.8702 N   0  0  0  0  0  0  0  0  0  0  0  0
    4.4795   -2.5200    0.4280 N   0  0  0  0  0  0  0  0  0  0  0  0
    3.3466   -1.9395    0.1241 N   0  0  0  0  0  0  0  0  0  0  0  0
    0.4129   -1.9279   -0.3414 C   0  0  0  0  0  0  0  0  0  0  0  0
   -0.8729   -2.4370   -0.4455 C   0  0  0  0  0  0  0  0  0  0  0  0
   -1.9337   -1.6425   -0.7968 C   0  0  0  0  0  0  0  0  0  0  0  0
   -1.7262   -0.2828   -1.0597 C   0  0  0  0  0  0  0  0  0  0  0  0
   -2.8423    0.5177   -1.3887 N   0  0  0  0  0  0  0  0  0  0  0  0
   -4.0852   -0.0959   -1.9102 C   0  0  0  0  0  0  0  0  0  0  0  0
   -5.1689    0.0447   -0.8266 C   0  0  0  0  0  0  0  0  0  0  0  0
   -4.9014    1.2979   -0.1500 N   0  0  0  0  0  0  0  0  0  0  0  0
   -4.3747    2.2984   -1.0280 C   0  0  0  0  0  0  0  0  0  0  0  0
   -2.8698    1.9641   -1.2014 C   0  0  0  0  0  0  0  0  0  0  0  0
   -5.9151    1.7278    0.7284 C   0  0  0  0  0  0  0  0  0  0  0  0
   -7.2671    2.0332    0.1675 C   0  0  0  0  0  0  0  0  0  0  0  0
   -7.8222    1.4004    1.2876 O   0  0  0  0  0  0  0  0  0  0  0  0
   -6.6565    0.6124    1.3851 C   0  0  0  0  0  0  0  0  0  0  0  0
   -1.1037   -3.8395   -0.1776 C   0  0  0  0  0  0  0  0  0  0  0  0
   -1.3098   -4.9738    0.0373 N   0  0  0  0  0  0  0  0  0  0  0  0
    1.9963    1.0008   -0.6992 H   0  0  0  0  0  0  0  0  0  0  0  0
    7.5661    0.0276    0.4152 H   0  0  0  0  0  0  0  0  0  0  0  0
    6.4106    2.0848   -1.2045 H   0  0  0  0  0  0  0  0  0  0  0  0
    5.2832    2.0898    1.7554 H   0  0  0  0  0  0  0  0  0  0  0  0
    4.8889    3.2724    0.3711 H   0  0  0  0  0  0  0  0  0  0  0  0
    7.3517    3.8698    0.2905 H   0  0  0  0  0  0  0  0  0  0  0  0
    7.7139    2.6497    1.6414 H   0  0  0  0  0  0  0  0  0  0  0  0
    6.8577   -4.5894    1.2387 H   0  0  0  0  0  0  0  0  0  0  0  0
    1.1583   -2.6563   -0.0563 H   0  0  0  0  0  0  0  0  0  0  0  0
   -2.9014   -2.1160   -0.8462 H   0  0  0  0  0  0  0  0  0  0  0  0
   -4.3723    0.4827   -2.8188 H   0  0  0  0  0  0  0  0  0  0  0  0
   -3.9088   -1.1260   -2.1857 H   0  0  0  0  0  0  0  0  0  0  0  0
   -6.1468   -0.0199   -1.2961 H   0  0  0  0  0  0  0  0  0  0  0  0
   -4.9755   -0.7750   -0.1057 H   0  0  0  0  0  0  0  0  0  0  0  0
   -4.4686    3.2855   -0.5561 H   0  0  0  0  0  0  0  0  0  0  0  0
   -4.8083    2.3114   -2.0331 H   0  0  0  0  0  0  0  0  0  0  0  0
   -2.4620    2.5344   -2.0356 H   0  0  0  0  0  0  0  0  0  0  0  0
   -2.4243    2.2227   -0.2277 H   0  0  0  0  0  0  0  0  0  0  0  0
   -5.5560    2.5356    1.3970 H   0  0  0  0  0  0  0  0  0  0  0  0
   -7.5605    1.4885   -0.7470 H   0  0  0  0  0  0  0  0  0  0  0  0
   -7.4877    3.1085    0.1989 H   0  0  0  0  0  0  0  0  0  0  0  0
   -6.3379    0.4331    2.4378 H   0  0  0  0  0  0  0  0  0  0  0  0
   -6.7578   -0.2686    0.7447 H   0  0  0  0  0  0  0  0  0  0  0  0
  1  2  1  0
  2  3  2  0
  3  4  1  0
  4  5  1  0
  5  6  1  0
  6  7  2  0
  7  8  1  0
  8  9  1  0
  9 10  1  0
 10 11  1  0
  7 12  1  0
 12 13  2  0
 13 14  1  0
 14 15  2  0
 15 16  1  0
 16 17  3  0
 15 18  1  0
 18 19  1  0
  3 20  1  0
 20 21  2  0
 21 22  1  0
 22 23  2  0
 23 24  1  0
 24 25  1  0
 25 26  1  0
 26 27  1  0
 27 28  1  0
 28 29  1  0
 27 30  1  0
 30 31  1  0
 31 32  1  0
 32 33  1  0
 21 34  1  0
 34 35  3  0
 23  2  1  0
 29 24  1  0
 33 30  1  0
 19  5  2  0
 11  9  1  0
 18 12  1  0
  4 36  1  0
  8 37  1  0
  9 38  1  0
 10 39  1  0
 10 40  1  0
 11 41  1  0
 11 42  1  0
 14 43  1  0
 20 44  1  0
 22 45  1  0
 25 46  1  0
 25 47  1  0
 26 48  1  0
 26 49  1  0
 28 50  1  0
 28 51  1  0
 29 52  1  0
 29 53  1  0
 30 54  1  0
 31 55  1  0
 31 56  1  0
 33 57  1  0
 33 58  1  0
M  END
$$$$
[H]c1c([H])c([H])c2c(c1[H])c1c3c(c4c5c([H])c([H])c([H])c([H])c5n5c4c1n2[C@]1([H])O[C@]5(C([H])([H])[H])[C@@]([H])(OC([H])([H])[H])[C@]([H])(N([H])C([H])([H])[H])C1([H])[H])C([H])([H])N([H])C3=O
     RDKit          3D

 61 68  0  0  0  0  0  0  0  0999 V2000
   -5.0032    2.3015   -0.0847 C   0  0  0  0  0  0  0  0  0  0  0  0
   -4.2911    1.1206   -0.5239 N   0  0  0  0  0  0  0  0  0  0  0  0
   -3.1564    0.9314    0.3042 C   0  0  2  0  0  0  0  0  0  0  0  0
   -2.1540    2.1226    0.1663 C   0  0  0  0  0  0  0  0  0  0  0  0
   -0.9665    1.4540   -0.0205 C   0  0  1  0  0  0  0  0  0  0  0  0
   -1.1415    0.7448   -1.1981 O   0  0  0  0  0  0  0  0  0  0  0  0
   -1.4119   -0.5987   -0.7868 C   0  0  2  0  0  0  0  0  0  0  0  0
   -1.8712   -1.2254   -2.1322 C   0  0  0  0  0  0  0  0  0  0  0  0
   -2.4889   -0.4501    0.1598 C   0  0  1  0  0  0  0  0  0  0  0  0
   -2.3890   -1.1153    1.3880 O   0  0  0  0  0  0  0  0  0  0  0  0
   -3.3269   -2.1274    1.5521 C   0  0  0  0  0  0  0  0  0  0  0  0
   -0.1378   -1.2020   -0.4914 N   0  0  0  0  0  0  0  0  0  0  0  0
    0.1616   -2.5344   -0.6109 C   0  0  0  0  0  0  0  0  0  0  0  0
   -0.5901   -3.6465   -0.8619 C   0  0  0  0  0  0  0  0  0  0  0  0
    0.0056   -4.9014   -0.9123 C   0  0  0  0  0  0  0  0  0  0  0  0
    1.3589   -5.0700   -0.7130 C   0  0  0  0  0  0  0  0  0  0  0  0
    2.1437   -3.9569   -0.4556 C   0  0  0  0  0  0  0  0  0  0  0  0
    1.5172   -2.7445   -0.4151 C   0  0  0  0  0  0  0  0  0  0  0  0
    2.0596   -1.5148   -0.1645 C   0  0  0  0  0  0  0  0  0  0  0  0
    3.3310   -1.0167    0.0798 C   0  0  0  0  0  0  0  0  0  0  0  0
    4.6039   -1.7769    0.1721 C   0  0  0  0  0  0  0  0  0  0  0  0
    5.6037   -0.7850    0.4503 N   0  0  0  0  0  0  0  0  0  0  0  0
    5.0034    0.5280    0.5134 C   0  0  0  0  0  0  0  0  0  0  0  0
    5.7188    1.5160    0.7371 O   0  0  0  0  0  0  0  0  0  0  0  0
    3.6006    0.3262    0.2783 C   0  0  0  0  0  0  0  0  0  0  0  0
    2.5644    1.2461    0.2408 C   0  0  0  0  0  0  0  0  0  0  0  0
    2.4247    2.5831    0.4378 C   0  0  0  0  0  0  0  0  0  0  0  0
    3.2960    3.5951    0.7015 C   0  0  0  0  0  0  0  0  0  0  0  0
    2.7602    4.8881    0.8432 C   0  0  0  0  0  0  0  0  0  0  0  0
    1.4157    5.1498    0.7252 C   0  0  0  0  0  0  0  0  0  0  0  0
    0.5372    4.1127    0.4564 C   0  0  0  0  0  0  0  0  0  0  0  0
    1.0796    2.8483    0.3203 C   0  0  0  0  0  0  0  0  0  0  0  0
    0.4024    1.7469    0.0621 N   0  0  0  0  0  0  0  0  0  0  0  0
    1.3106    0.7318   -0.0025 C   0  0  0  0  0  0  0  0  0  0  0  0
    1.0507   -0.6266   -0.2113 C   0  0  0  0  0  0  0  0  0  0  0  0
   -4.4222    3.2206   -0.0758 H   0  0  0  0  0  0  0  0  0  0  0  0
   -5.9751    2.4312   -0.6421 H   0  0  0  0  0  0  0  0  0  0  0  0
   -5.3325    2.1331    0.9827 H   0  0  0  0  0  0  0  0  0  0  0  0
   -4.9231    0.3185   -0.4524 H   0  0  0  0  0  0  0  0  0  0  0  0
   -3.5204    0.9543    1.3717 H   0  0  0  0  0  0  0  0  0  0  0  0
   -2.2319    2.7634    1.0681 H   0  0  0  0  0  0  0  0  0  0  0  0
   -2.5549    2.7584   -0.6810 H   0  0  0  0  0  0  0  0  0  0  0  0
   -1.0177    0.7572    0.9341 H   0  0  0  0  0  0  0  0  0  0  0  0
   -2.1640   -0.4180   -2.8609 H   0  0  0  0  0  0  0  0  0  0  0  0
   -1.0623   -1.7738   -2.6232 H   0  0  0  0  0  0  0  0  0  0  0  0
   -2.8063   -1.7859   -1.9703 H   0  0  0  0  0  0  0  0  0  0  0  0
   -3.3692   -1.0206   -0.3155 H   0  0  0  0  0  0  0  0  0  0  0  0
   -4.3685   -1.7465    1.5031 H   0  0  0  0  0  0  0  0  0  0  0  0
   -3.1360   -2.7642    2.4105 H   0  0  0  0  0  0  0  0  0  0  0  0
   -3.2309   -2.7727    0.6280 H   0  0  0  0  0  0  0  0  0  0  0  0
   -1.6587   -3.5713   -1.0137 H   0  0  0  0  0  0  0  0  0  0  0  0
   -0.5879   -5.7740   -1.1105 H   0  0  0  0  0  0  0  0  0  0  0  0
    1.8233   -6.0462   -0.7522 H   0  0  0  0  0  0  0  0  0  0  0  0
    3.2016   -4.0714   -0.2980 H   0  0  0  0  0  0  0  0  0  0  0  0
    4.5688   -2.4736    1.0276 H   0  0  0  0  0  0  0  0  0  0  0  0
    4.8295   -2.3223   -0.7651 H   0  0  0  0  0  0  0  0  0  0  0  0
    6.6092   -1.0259    0.5823 H   0  0  0  0  0  0  0  0  0  0  0  0
    4.3503    3.4578    0.8021 H   0  0  0  0  0  0  0  0  0  0  0  0
    3.4660    5.6873    1.0540 H   0  0  0  0  0  0  0  0  0  0  0  0
    1.0161    6.1615    0.8387 H   0  0  0  0  0  0  0  0  0  0  0  0
   -0.5241    4.2689    0.3538 H   0  0  0  0  0  0  0  0  0  0  0  0
  1  2  1  0
  2  3  1  0
  3  4  1  0
  4  5  1  0
  5  6  1  0
  6  7  1  0
  7  8  1  6
  7  9  1  0
  9 10  1  0
 10 11  1  0
  7 12  1  0
 12 13  1  0
 13 14  2  0
 14 15  1  0
 15 16  2  0
 16 17  1  0
 17 18  2  0
 18 19  1  0
 19 20  2  0
 20 21  1  0
 21 22  1  0
 22 23  1  0
 23 24  2  0
 23 25  1  0
 25 26  2  0
 26 27  1  0
 27 28  2  0
 28 29  1  0
 29 30  2  0
 30 31  1  0
 31 32  2  0
 32 33  1  0
 33 34  1  0
 34 35  2  0
  9  3  1  0
 35 12  1  0
 33  5  1  0
 18 13  1  0
 35 19  1  0
 25 20  1  0
 34 26  1  0
 32 27  1  0
  1 36  1  0
  1 37  1  0
  1 38  1  0
  2 39  1  0
  3 40  1  1
  4 41  1  0
  4 42  1  0
  5 43  1  1
  8 44  1  0
  8 45  1  0
  8 46  1  0
  9 47  1  6
 11 48  1  0
 11 49  1  0
 11 50  1  0
 14 51  1  0
 15 52  1  0
 16 53  1  0
 17 54  1  0
 21 55  1  0
 21 56  1  0
 22 57  1  0
 28 58  1  0
 29 59  1  0
 30 60  1  0
 31 61  1  0
M  END
$$$$
[H]ON([H])C(=O)C([H])([H])[C@]([H])(C(=O)N([H])[C@]([H])(C(=O)N([H])C([H])([H])[H])C([H])([H])c1c([H])c([H])c([H])c([H])c1[H])C([H])([H])C([H])(C([H])([H])[H])C([H])([H])[H]
     RDKit          3D

 52 52  0  0  0  0  0  0  0  0999 V2000
    3.1365    4.8571   -0.0959 C   0  0  0  0  0  0  0  0  0  0  0  0
    2.9872    3.4248    0.1065 N   0  0  0  0  0  0  0  0  0  0  0  0
    1.8678    2.6981   -0.3237 C   0  0  0  0  0  0  0  0  0  0  0  0
    0.9417    3.2852   -0.9096 O   0  0  0  0  0  0  0  0  0  0  0  0
    1.7835    1.2529   -0.0865 C   0  0  2  0  0  0  0  0  0  0  0  0
    2.9989    0.6559   -0.8049 C   0  0  0  0  0  0  0  0  0  0  0  0
    3.0560   -0.7991   -0.6601 C   0  0  0  0  0  0  0  0  0  0  0  0
    2.4350   -1.6081   -1.5846 C   0  0  0  0  0  0  0  0  0  0  0  0
    2.4689   -2.9980   -1.4778 C   0  0  0  0  0  0  0  0  0  0  0  0
    3.1465   -3.5722   -0.4120 C   0  0  0  0  0  0  0  0  0  0  0  0
    3.7749   -2.7795    0.5244 C   0  0  0  0  0  0  0  0  0  0  0  0
    3.7187   -1.3975    0.3836 C   0  0  0  0  0  0  0  0  0  0  0  0
    0.5777    0.6266   -0.5433 N   0  0  0  0  0  0  0  0  0  0  0  0
   -0.2123   -0.2244    0.2730 C   0  0  0  0  0  0  0  0  0  0  0  0
    0.1322   -0.4596    1.4595 O   0  0  0  0  0  0  0  0  0  0  0  0
   -1.4727   -0.8864   -0.2094 C   0  0  2  0  0  0  0  0  0  0  0  0
   -2.5470    0.0372   -0.6070 C   0  0  0  0  0  0  0  0  0  0  0  0
   -3.1363    0.9616    0.3896 C   0  0  0  0  0  0  0  0  0  0  0  0
   -4.2726    1.7634   -0.3283 C   0  0  0  0  0  0  0  0  0  0  0  0
   -2.1997    2.0756    0.8387 C   0  0  0  0  0  0  0  0  0  0  0  0
   -1.8309   -1.9619    0.7682 C   0  0  0  0  0  0  0  0  0  0  0  0
   -3.0096   -2.7572    0.4711 C   0  0  0  0  0  0  0  0  0  0  0  0
   -3.6530   -2.6791   -0.5850 O   0  0  0  0  0  0  0  0  0  0  0  0
   -3.5169   -3.7175    1.4220 N   0  0  0  0  0  0  0  0  0  0  0  0
   -4.5993   -4.4756    1.1985 O   0  0  0  0  0  0  0  0  0  0  0  0
    3.5679    5.2669    0.8374 H   0  0  0  0  0  0  0  0  0  0  0  0
    2.1653    5.3210   -0.3607 H   0  0  0  0  0  0  0  0  0  0  0  0
    3.9067    4.9871   -0.8912 H   0  0  0  0  0  0  0  0  0  0  0  0
    3.7613    2.9366    0.5987 H   0  0  0  0  0  0  0  0  0  0  0  0
    1.9620    1.0505    1.0034 H   0  0  0  0  0  0  0  0  0  0  0  0
    2.9271    0.9955   -1.8663 H   0  0  0  0  0  0  0  0  0  0  0  0
    3.8861    1.1723   -0.3859 H   0  0  0  0  0  0  0  0  0  0  0  0
    1.8955   -1.2090   -2.4307 H   0  0  0  0  0  0  0  0  0  0  0  0
    1.9835   -3.6391   -2.2001 H   0  0  0  0  0  0  0  0  0  0  0  0
    3.1696   -4.6576   -0.3339 H   0  0  0  0  0  0  0  0  0  0  0  0
    4.2877   -3.2763    1.3334 H   0  0  0  0  0  0  0  0  0  0  0  0
    4.2062   -0.7696    1.1098 H   0  0  0  0  0  0  0  0  0  0  0  0
    0.2616    0.7996   -1.5168 H   0  0  0  0  0  0  0  0  0  0  0  0
   -1.1436   -1.4245   -1.1485 H   0  0  0  0  0  0  0  0  0  0  0  0
   -2.0751    0.7175   -1.4028 H   0  0  0  0  0  0  0  0  0  0  0  0
   -3.3437   -0.4877   -1.1646 H   0  0  0  0  0  0  0  0  0  0  0  0
   -3.5767    0.5072    1.2784 H   0  0  0  0  0  0  0  0  0  0  0  0
   -5.1822    1.1279   -0.3746 H   0  0  0  0  0  0  0  0  0  0  0  0
   -4.4509    2.7117    0.2193 H   0  0  0  0  0  0  0  0  0  0  0  0
   -3.9400    2.0358   -1.3475 H   0  0  0  0  0  0  0  0  0  0  0  0
   -1.5092    1.7892    1.6383 H   0  0  0  0  0  0  0  0  0  0  0  0
   -2.7986    2.9241    1.2745 H   0  0  0  0  0  0  0  0  0  0  0  0
   -1.6734    2.5119   -0.0077 H   0  0  0  0  0  0  0  0  0  0  0  0
   -0.9525   -2.6861    0.7346 H   0  0  0  0  0  0  0  0  0  0  0  0
   -1.7997   -1.5976    1.8270 H   0  0  0  0  0  0  0  0  0  0  0  0
   -3.0071   -3.8173    2.3243 H   0  0  0  0  0  0  0  0  0  0  0  0
   -5.1030   -4.6123    2.0454 H   0  0  0  0  0  0  0  0  0  0  0  0
  1  2  1  0
  2  3  1  0
  3  4  2  0
  3  5  1  0
  5  6  1  0
  6  7  1  0
  7  8  2  0
  8  9  1  0
  9 10  2  0
 10 11  1  0
 11 12  2  0
  5 13  1  0
 13 14  1  0
 14 15  2  0
 14 16  1  0
 16 17  1  0
 17 18  1  0
 18 19  1  0
 18 20  1  0
 16 21  1  0
 21 22  1  0
 22 23  2  0
 22 24  1  0
 24 25  1  0
 12  7  1  0
  1 26  1  0
  1 27  1  0
  1 28  1  0
  2 29  1  0
  5 30  1  1
  6 31  1  0
  6 32  1  0
  8 33  1  0
  9 34  1  0
 10 35  1  0
 11 36  1  0
 12 37  1  0
 13 38  1  0
 16 39  1  6
 17 40  1  0
 17 41  1  0
 18 42  1  0
 19 43  1  0
 19 44  1  0
 19 45  1  0
 20 46  1  0
 20 47  1  0
 20 48  1  0
 21 49  1  0
 21 50  1  0
 24 51  1  0
 25 52  1  0
M  END
$$$$
[H]c1c([H])c(S(=O)(=O)[C@]23c4c([H])c([H])c(C(F)(C(F)(F)F)C(F)(F)F)c([H])c4C([H])([H])C([H])([H])[C@@]2([H])N(C(=O)C2([H])C([H])([H])C([H])([H])C([H])([H])C2([H])[H])C([H])([H])C3([H])[H])c([H])c([H])c1F
     RDKit          3D

 65 69  0  0  0  0  0  0  0  0999 V2000
   -2.4914    6.6517   -0.4354 F   0  0  0  0  0  0  0  0  0  0  0  0
   -1.5816    5.6286   -0.4530 C   0  0  0  0  0  0  0  0  0  0  0  0
   -1.4145    4.8388   -1.5644 C   0  0  0  0  0  0  0  0  0  0  0  0
   -0.4730    3.7999   -1.5539 C   0  0  0  0  0  0  0  0  0  0  0  0
    0.3002    3.5347   -0.4590 C   0  0  0  0  0  0  0  0  0  0  0  0
    0.1173    4.3480    0.6656 C   0  0  0  0  0  0  0  0  0  0  0  0
   -0.8040    5.3692    0.6607 C   0  0  0  0  0  0  0  0  0  0  0  0
    1.4691    2.2487   -0.4691 S   0  0  0  0  0  0  0  0  0  0  0  0
    2.5741    2.6179    0.5050 O   0  0  0  0  0  0  0  0  0  0  0  0
    2.1398    2.0727   -1.7992 O   0  0  0  0  0  0  0  0  0  0  0  0
    0.7572    0.6761    0.0280 C   0  0  1  0  0  0  0  0  0  0  0  0
    0.1549    0.8010    1.4213 C   0  0  0  0  0  0  0  0  0  0  0  0
   -1.2584    0.3024    1.2956 C   0  0  0  0  0  0  0  0  0  0  0  0
   -1.5784    0.2426   -0.1196 N   0  0  0  0  0  0  0  0  0  0  0  0
   -0.3312    0.2431   -0.8758 C   0  0  2  0  0  0  0  0  0  0  0  0
   -0.1997   -1.1598   -1.4230 C   0  0  0  0  0  0  0  0  0  0  0  0
    1.1655   -1.4140   -2.0241 C   0  0  0  0  0  0  0  0  0  0  0  0
    2.1195   -1.2651   -0.8713 C   0  0  0  0  0  0  0  0  0  0  0  0
    3.1766   -2.1561   -0.8292 C   0  0  0  0  0  0  0  0  0  0  0  0
    4.0830   -2.0764    0.1964 C   0  0  0  0  0  0  0  0  0  0  0  0
    3.8828   -1.0830    1.1542 C   0  0  0  0  0  0  0  0  0  0  0  0
    2.8237   -0.2094    1.0880 C   0  0  0  0  0  0  0  0  0  0  0  0
    1.8914   -0.2785    0.0494 C   0  0  0  0  0  0  0  0  0  0  0  0
    5.2371   -3.0144    0.3114 C   0  0  0  0  0  0  0  0  0  0  0  0
    5.9582   -2.6146    1.4469 F   0  0  0  0  0  0  0  0  0  0  0  0
    4.7346   -4.3970    0.6233 C   0  0  0  0  0  0  0  0  0  0  0  0
    4.0438   -4.2794    1.8382 F   0  0  0  0  0  0  0  0  0  0  0  0
    3.9526   -4.8944   -0.3691 F   0  0  0  0  0  0  0  0  0  0  0  0
    5.8620   -5.1969    0.8500 F   0  0  0  0  0  0  0  0  0  0  0  0
    6.1947   -2.9400   -0.8298 C   0  0  0  0  0  0  0  0  0  0  0  0
    7.2231   -3.8537   -0.6104 F   0  0  0  0  0  0  0  0  0  0  0  0
    6.8352   -1.6934   -0.8697 F   0  0  0  0  0  0  0  0  0  0  0  0
    5.6722   -3.1323   -2.0675 F   0  0  0  0  0  0  0  0  0  0  0  0
   -2.8537    0.1775   -0.7216 C   0  0  0  0  0  0  0  0  0  0  0  0
   -2.9822    0.1395   -1.9615 O   0  0  0  0  0  0  0  0  0  0  0  0
   -4.1069    0.1558    0.1015 C   0  0  0  0  0  0  0  0  0  0  0  0
   -5.3265    0.0418   -0.7340 C   0  0  0  0  0  0  0  0  0  0  0  0
   -6.1361   -1.1282   -0.1938 C   0  0  0  0  0  0  0  0  0  0  0  0
   -5.5945   -1.3070    1.2316 C   0  0  0  0  0  0  0  0  0  0  0  0
   -4.1326   -0.9904    1.0442 C   0  0  0  0  0  0  0  0  0  0  0  0
   -2.0250    5.0439   -2.4272 H   0  0  0  0  0  0  0  0  0  0  0  0
   -0.3975    3.2243   -2.4665 H   0  0  0  0  0  0  0  0  0  0  0  0
    0.7301    4.1489    1.5459 H   0  0  0  0  0  0  0  0  0  0  0  0
   -0.9551    6.0105    1.5188 H   0  0  0  0  0  0  0  0  0  0  0  0
    0.7481    0.1993    2.1199 H   0  0  0  0  0  0  0  0  0  0  0  0
    0.1650    1.8496    1.7775 H   0  0  0  0  0  0  0  0  0  0  0  0
   -1.9324    0.9948    1.8383 H   0  0  0  0  0  0  0  0  0  0  0  0
   -1.2943   -0.7170    1.7231 H   0  0  0  0  0  0  0  0  0  0  0  0
   -0.4327    0.9745   -1.7025 H   0  0  0  0  0  0  0  0  0  0  0  0
   -0.3911   -1.8611   -0.5629 H   0  0  0  0  0  0  0  0  0  0  0  0
   -0.9890   -1.3276   -2.1511 H   0  0  0  0  0  0  0  0  0  0  0  0
    1.1956   -2.4660   -2.3631 H   0  0  0  0  0  0  0  0  0  0  0  0
    1.3393   -0.6652   -2.7966 H   0  0  0  0  0  0  0  0  0  0  0  0
    3.2788   -2.9184   -1.6218 H   0  0  0  0  0  0  0  0  0  0  0  0
    4.6080   -1.0112    1.9847 H   0  0  0  0  0  0  0  0  0  0  0  0
    2.7240    0.5321    1.8495 H   0  0  0  0  0  0  0  0  0  0  0  0
   -4.1869    1.0954    0.7020 H   0  0  0  0  0  0  0  0  0  0  0  0
   -5.0567   -0.2504   -1.7857 H   0  0  0  0  0  0  0  0  0  0  0  0
   -5.9616    0.9704   -0.7463 H   0  0  0  0  0  0  0  0  0  0  0  0
   -7.2073   -0.9431   -0.2043 H   0  0  0  0  0  0  0  0  0  0  0  0
   -5.9338   -2.0680   -0.7638 H   0  0  0  0  0  0  0  0  0  0  0  0
   -6.1059   -0.5868    1.8816 H   0  0  0  0  0  0  0  0  0  0  0  0
   -5.7044   -2.3705    1.5584 H   0  0  0  0  0  0  0  0  0  0  0  0
   -3.6434   -1.9126    0.6546 H   0  0  0  0  0  0  0  0  0  0  0  0
   -3.6757   -0.7516    2.0363 H   0  0  0  0  0  0  0  0  0  0  0  0
  1  2  1  0
  2  3  2  0
  3  4  1  0
  4  5  2  0
  5  6  1  0
  6  7  2  0
  5  8  1  0
  8  9  2  0
  8 10  2  0
 11  8  1  6
 11 12  1  0
 12 13  1  0
 13 14  1  0
 14 15  1  0
 15 16  1  0
 16 17  1  0
 17 18  1  0
 18 19  2  0
 19 20  1  0
 20 21  2  0
 21 22  1  0
 22 23  2  0
 20 24  1  0
 24 25  1  0
 24 26  1  0
 26 27  1  0
 26 28  1  0
 26 29  1  0
 24 30  1  0
 30 31  1  0
 30 32  1  0
 30 33  1  0
 14 34  1  0
 34 35  2  0
 34 36  1  0
 36 37  1  0
 37 38  1  0
 38 39  1  0
 39 40  1  0
  7  2  1  0
 15 11  1  0
 23 18  1  0
 40 36  1  0
 23 11  1  0
  3 41  1  0
  4 42  1  0
  6 43  1  0
  7 44  1  0
 12 45  1  0
 12 46  1  0
 13 47  1  0
 13 48  1  0
 15 49  1  6
 16 50  1  0
 16 51  1  0
 17 52  1  0
 17 53  1  0
 19 54  1  0
 21 55  1  0
 22 56  1  0
 36 57  1  0
 37 58  1  0
 37 59  1  0
 38 60  1  0
 38 61  1  0
 39 62  1  0
 39 63  1  0
 40 64  1  0
 40 65  1  0
M  END
$$$$
[H]OC(=O)c1nc(C(=O)c2c([H])c([H])c([H])c([H])c2[H])c2c(O[H])c([H])c(O[H])c([H])c2c1[H]
     RDKit          3D

 34 36  0  0  0  0  0  0  0  0999 V2000
   -1.3290    3.5538    2.6087 O   0  0  0  0  0  0  0  0  0  0  0  0
   -2.2752    2.7771    1.9504 C   0  0  0  0  0  0  0  0  0  0  0  0
   -3.4715    3.1156    2.0115 O   0  0  0  0  0  0  0  0  0  0  0  0
   -1.8847    1.5803    1.1977 C   0  0  0  0  0  0  0  0  0  0  0  0
   -2.8788    0.8630    0.5465 C   0  0  0  0  0  0  0  0  0  0  0  0
   -2.5717   -0.2676   -0.1679 C   0  0  0  0  0  0  0  0  0  0  0  0
   -3.5620   -0.9623   -0.8089 C   0  0  0  0  0  0  0  0  0  0  0  0
   -3.2910   -2.0922   -1.5383 C   0  0  0  0  0  0  0  0  0  0  0  0
   -4.3062   -2.8080   -2.1789 O   0  0  0  0  0  0  0  0  0  0  0  0
   -1.9960   -2.5125   -1.6173 C   0  0  0  0  0  0  0  0  0  0  0  0
   -0.9362   -1.8201   -0.9666 C   0  0  0  0  0  0  0  0  0  0  0  0
    0.2952   -2.2602   -1.0920 O   0  0  0  0  0  0  0  0  0  0  0  0
   -1.2507   -0.6795   -0.2231 C   0  0  0  0  0  0  0  0  0  0  0  0
   -0.2540    0.0121    0.4208 C   0  0  0  0  0  0  0  0  0  0  0  0
   -0.6334    1.1478    1.1191 N   0  0  0  0  0  0  0  0  0  0  0  0
    1.0973   -0.4624    0.6486 C   0  0  0  0  0  0  0  0  0  0  0  0
    1.0991   -1.5742    1.3559 O   0  0  0  0  0  0  0  0  0  0  0  0
    2.3610    0.0657    0.2561 C   0  0  0  0  0  0  0  0  0  0  0  0
    2.6250    0.9830   -0.7303 C   0  0  0  0  0  0  0  0  0  0  0  0
    3.9062    1.4626   -0.9913 C   0  0  0  0  0  0  0  0  0  0  0  0
    4.9970    1.0217   -0.2488 C   0  0  0  0  0  0  0  0  0  0  0  0
    4.7722    0.1020    0.7444 C   0  0  0  0  0  0  0  0  0  0  0  0
    3.5171   -0.3409    0.9688 C   0  0  0  0  0  0  0  0  0  0  0  0
   -1.0415    4.4603    2.2082 H   0  0  0  0  0  0  0  0  0  0  0  0
   -3.9396    1.1500    0.5692 H   0  0  0  0  0  0  0  0  0  0  0  0
   -4.6125   -0.6244   -0.7391 H   0  0  0  0  0  0  0  0  0  0  0  0
   -4.7670   -3.5666   -1.6303 H   0  0  0  0  0  0  0  0  0  0  0  0
   -1.7313   -3.4018   -2.1768 H   0  0  0  0  0  0  0  0  0  0  0  0
    1.1523   -2.4647   -1.1065 H   0  0  0  0  0  0  0  0  0  0  0  0
    1.8310    1.3660   -1.3513 H   0  0  0  0  0  0  0  0  0  0  0  0
    4.1261    2.1902   -1.7662 H   0  0  0  0  0  0  0  0  0  0  0  0
    6.0083    1.3609   -0.4005 H   0  0  0  0  0  0  0  0  0  0  0  0
    5.5761   -0.2899    1.3584 H   0  0  0  0  0  0  0  0  0  0  0  0
    3.3684   -1.0854    1.7698 H   0  0  0  0  0  0  0  0  0  0  0  0
  1  2  1  0
  2  3  2  0
  2  4  1  0
  4  5  2  0
  5  6  1  0
  6  7  2  0
  7  8  1  0
  8  9  1  0
  8 10  2  0
 10 11  1  0
 11 12  1  0
 11 13  2  0
 13 14  1  0
 14 15  2  0
 14 16  1  0
 16 17  2  0
 16 18  1  0
 18 19  2  0
 19 20  1  0
 20 21  2  0
 21 22  1  0
 22 23  2  0
 15  4  1  0
 23 18  1  0
 13  6  1  0
  1 24  1  0
  5 25  1  0
  7 26  1  0
  9 27  1  0
 10 28  1  0
 12 29  1  0
 19 30  1  0
 20 31  1  0
 21 32  1  0
 22 33  1  0
 23 34  1  0
M  END
$$$$
[H]OC(=O)[C@]([H])(N([H])[H])C([H])([H])OC(=O)C([H])([H])C([H])([H])C([H])([H])C([H])([H])C([H])([H])C([H])([H])C([H])([H])/C([H])=C(/[H])C([H])([H])C([H])([H])C([H])([H])C([H])([H])C([H])([H])C([H])([H])C([H])([H])C([H])([H])[H]
     RDKit          3D

 65 64  0  0  0  0  0  0  0  0999 V2000
   -7.9936    3.1399    1.1011 C   0  0  0  0  0  0  0  0  0  0  0  0
   -7.8550    1.6716    1.3791 C   0  0  0  0  0  0  0  0  0  0  0  0
   -7.8398    0.8522    0.1045 C   0  0  0  0  0  0  0  0  0  0  0  0
   -7.7019   -0.6123    0.3700 C   0  0  0  0  0  0  0  0  0  0  0  0
   -6.4367   -0.9589    1.1018 C   0  0  0  0  0  0  0  0  0  0  0  0
   -5.2458   -0.5311    0.2879 C   0  0  0  0  0  0  0  0  0  0  0  0
   -3.9513   -0.8697    1.0038 C   0  0  0  0  0  0  0  0  0  0  0  0
   -2.7471   -0.4339    0.1787 C   0  0  0  0  0  0  0  0  0  0  0  0
   -2.7205   -1.0987   -1.1282 C   0  0  0  0  0  0  0  0  0  0  0  0
   -1.7493   -1.8676   -1.5277 C   0  0  0  0  0  0  0  0  0  0  0  0
   -0.5665   -2.1618   -0.7192 C   0  0  0  0  0  0  0  0  0  0  0  0
    0.6340   -1.6503   -1.5290 C   0  0  0  0  0  0  0  0  0  0  0  0
    1.9188   -1.8910   -0.8097 C   0  0  0  0  0  0  0  0  0  0  0  0
    3.0643   -1.3891   -1.6322 C   0  0  0  0  0  0  0  0  0  0  0  0
    3.0204    0.0767   -1.9422 C   0  0  0  0  0  0  0  0  0  0  0  0
    3.0189    0.9439   -0.7308 C   0  0  0  0  0  0  0  0  0  0  0  0
    4.1821    0.8191    0.1776 C   0  0  0  0  0  0  0  0  0  0  0  0
    5.4785    1.1623   -0.4490 C   0  0  0  0  0  0  0  0  0  0  0  0
    5.6299    1.5643   -1.6306 O   0  0  0  0  0  0  0  0  0  0  0  0
    6.6754    1.0549    0.2722 O   0  0  0  0  0  0  0  0  0  0  0  0
    7.9234    1.3686   -0.2790 C   0  0  0  0  0  0  0  0  0  0  0  0
    8.9635    1.1222    0.8145 C   0  0  1  0  0  0  0  0  0  0  0  0
    8.7228    1.9421    1.9716 N   0  0  0  0  0  0  0  0  0  0  0  0
    8.9330   -0.2928    1.2055 C   0  0  0  0  0  0  0  0  0  0  0  0
    9.1418   -1.2876    0.2498 O   0  0  0  0  0  0  0  0  0  0  0  0
    8.7183   -0.6009    2.4021 O   0  0  0  0  0  0  0  0  0  0  0  0
   -7.2244    3.4006    0.3206 H   0  0  0  0  0  0  0  0  0  0  0  0
   -8.9784    3.4062    0.6842 H   0  0  0  0  0  0  0  0  0  0  0  0
   -7.7106    3.7232    1.9951 H   0  0  0  0  0  0  0  0  0  0  0  0
   -8.6829    1.3740    2.0350 H   0  0  0  0  0  0  0  0  0  0  0  0
   -6.8925    1.4955    1.8926 H   0  0  0  0  0  0  0  0  0  0  0  0
   -8.8227    1.0044   -0.4072 H   0  0  0  0  0  0  0  0  0  0  0  0
   -7.0690    1.1724   -0.5967 H   0  0  0  0  0  0  0  0  0  0  0  0
   -7.6959   -1.1370   -0.5987 H   0  0  0  0  0  0  0  0  0  0  0  0
   -8.5774   -1.0053    0.9480 H   0  0  0  0  0  0  0  0  0  0  0  0
   -6.4003   -0.5502    2.1277 H   0  0  0  0  0  0  0  0  0  0  0  0
   -6.4059   -2.0668    1.1975 H   0  0  0  0  0  0  0  0  0  0  0  0
   -5.3246   -1.0061   -0.6891 H   0  0  0  0  0  0  0  0  0  0  0  0
   -5.2380    0.5713    0.1322 H   0  0  0  0  0  0  0  0  0  0  0  0
   -3.9174   -1.9476    1.2168 H   0  0  0  0  0  0  0  0  0  0  0  0
   -3.8854   -0.3332    1.9710 H   0  0  0  0  0  0  0  0  0  0  0  0
   -1.8808   -0.5315    0.8185 H   0  0  0  0  0  0  0  0  0  0  0  0
   -2.8642    0.6900    0.0251 H   0  0  0  0  0  0  0  0  0  0  0  0
   -3.6078   -0.8956   -1.7715 H   0  0  0  0  0  0  0  0  0  0  0  0
   -1.8454   -2.3073   -2.5277 H   0  0  0  0  0  0  0  0  0  0  0  0
   -0.4855   -3.2915   -0.6399 H   0  0  0  0  0  0  0  0  0  0  0  0
   -0.5454   -1.8094    0.3020 H   0  0  0  0  0  0  0  0  0  0  0  0
    0.5621   -2.1202   -2.5177 H   0  0  0  0  0  0  0  0  0  0  0  0
    0.4666   -0.5373   -1.5726 H   0  0  0  0  0  0  0  0  0  0  0  0
    2.0042   -2.9845   -0.6271 H   0  0  0  0  0  0  0  0  0  0  0  0
    1.8413   -1.3563    0.1736 H   0  0  0  0  0  0  0  0  0  0  0  0
    4.0239   -1.6716   -1.1107 H   0  0  0  0  0  0  0  0  0  0  0  0
    3.1329   -1.9181   -2.6135 H   0  0  0  0  0  0  0  0  0  0  0  0
    3.8465    0.2874   -2.6305 H   0  0  0  0  0  0  0  0  0  0  0  0
    2.0658    0.2664   -2.4864 H   0  0  0  0  0  0  0  0  0  0  0  0
    2.9621    2.0115   -1.0652 H   0  0  0  0  0  0  0  0  0  0  0  0
    2.0982    0.7896   -0.1280 H   0  0  0  0  0  0  0  0  0  0  0  0
    4.0118    1.5306    1.0367 H   0  0  0  0  0  0  0  0  0  0  0  0
    4.2198   -0.1841    0.6642 H   0  0  0  0  0  0  0  0  0  0  0  0
    8.1982    0.7333   -1.1414 H   0  0  0  0  0  0  0  0  0  0  0  0
    7.9666    2.4145   -0.6229 H   0  0  0  0  0  0  0  0  0  0  0  0
    9.9738    1.3360    0.4031 H   0  0  0  0  0  0  0  0  0  0  0  0
    7.7342    1.7332    2.3050 H   0  0  0  0  0  0  0  0  0  0  0  0
    9.3396    1.5780    2.7359 H   0  0  0  0  0  0  0  0  0  0  0  0
    8.3895   -1.9363    0.0360 H   0  0  0  0  0  0  0  0  0  0  0  0
  1  2  1  0
  2  3  1  0
  3  4  1  0
  4  5  1  0
  5  6  1  0
  6  7  1  0
  7  8  1  0
  8  9  1  0
  9 10  2  0
 10 11  1  0
 11 12  1  0
 12 13  1  0
 13 14  1  0
 14 15  1  0
 15 16  1  0
 16 17  1  0
 17 18  1  0
 18 19  2  0
 18 20  1  0
 20 21  1  0
 21 22  1  0
 22 23  1  0
 22 24  1  0
 24 25  1  0
 24 26  2  0
  1 27  1  0
  1 28  1  0
  1 29  1  0
  2 30  1  0
  2 31  1  0
  3 32  1  0
  3 33  1  0
  4 34  1  0
  4 35  1  0
  5 36  1  0
  5 37  1  0
  6 38  1  0
  6 39  1  0
  7 40  1  0
  7 41  1  0
  8 42  1  0
  8 43  1  0
  9 44  1  0
 10 45  1  0
 11 46  1  0
 11 47  1  0
 12 48  1  0
 12 49  1  0
 13 50  1  0
 13 51  1  0
 14 52  1  0
 14 53  1  0
 15 54  1  0
 15 55  1  0
 16 56  1  0
 16 57  1  0
 17 58  1  0
 17 59  1  0
 21 60  1  0
 21 61  1  0
 22 62  1  6
 23 63  1  0
 23 64  1  0
 25 65  1  0
M  END
$$$$
[H]c1nc([H])c(-c2c(O[C@@]3([H])C([H])([H])OC([H])([H])C3([H])[H])nc3sc(N([H])C(=O)N([H])C([H])([H])C([H])([H])[H])nc3c2[H])c([H])c1[H]
     RDKit          3D

 46 49  0  0  0  0  0  0  0  0999 V2000
    7.9734   -1.0936   -1.5935 C   0  0  0  0  0  0  0  0  0  0  0  0
    8.1051   -0.7334   -0.1085 C   0  0  0  0  0  0  0  0  0  0  0  0
    7.0796    0.2186    0.2687 N   0  0  0  0  0  0  0  0  0  0  0  0
    5.7097   -0.0944    0.1417 C   0  0  0  0  0  0  0  0  0  0  0  0
    5.3777   -1.2372   -0.3136 O   0  0  0  0  0  0  0  0  0  0  0  0
    4.7080    0.8119    0.5007 N   0  0  0  0  0  0  0  0  0  0  0  0
    3.3097    0.4925    0.3710 C   0  0  0  0  0  0  0  0  0  0  0  0
    2.2624    1.2303    0.6626 N   0  0  0  0  0  0  0  0  0  0  0  0
    1.0658    0.7704    0.4773 C   0  0  0  0  0  0  0  0  0  0  0  0
   -0.1355    1.4485    0.7434 C   0  0  0  0  0  0  0  0  0  0  0  0
   -1.3368    0.8108    0.4871 C   0  0  0  0  0  0  0  0  0  0  0  0
   -2.5564    1.6196    0.7174 C   0  0  0  0  0  0  0  0  0  0  0  0
   -3.2271    2.1956   -0.3408 C   0  0  0  0  0  0  0  0  0  0  0  0
   -4.3565    2.9612   -0.0922 C   0  0  0  0  0  0  0  0  0  0  0  0
   -4.8074    3.1471    1.1951 C   0  0  0  0  0  0  0  0  0  0  0  0
   -4.1369    2.5746    2.2200 N   0  0  0  0  0  0  0  0  0  0  0  0
   -3.0378    1.8286    1.9883 C   0  0  0  0  0  0  0  0  0  0  0  0
   -1.4787   -0.4566   -0.0138 C   0  0  0  0  0  0  0  0  0  0  0  0
   -2.5557   -1.1768   -0.2960 O   0  0  0  0  0  0  0  0  0  0  0  0
   -3.8582   -1.2099   -0.2377 C   0  0  2  0  0  0  0  0  0  0  0  0
   -4.4025   -2.5726    0.2750 C   0  0  0  0  0  0  0  0  0  0  0  0
   -5.7997   -2.5268   -0.2612 C   0  0  0  0  0  0  0  0  0  0  0  0
   -5.8841   -1.5097   -1.1797 O   0  0  0  0  0  0  0  0  0  0  0  0
   -4.5895   -1.1961   -1.5910 C   0  0  0  0  0  0  0  0  0  0  0  0
   -0.2536   -1.0753   -0.2583 N   0  0  0  0  0  0  0  0  0  0  0  0
    0.9250   -0.4937   -0.0259 C   0  0  0  0  0  0  0  0  0  0  0  0
    2.5852   -0.9531   -0.2056 S   0  0  0  0  0  0  0  0  0  0  0  0
    8.9836   -1.1979   -2.0526 H   0  0  0  0  0  0  0  0  0  0  0  0
    7.3735   -2.0161   -1.7278 H   0  0  0  0  0  0  0  0  0  0  0  0
    7.5040   -0.2105   -2.1046 H   0  0  0  0  0  0  0  0  0  0  0  0
    9.0956   -0.2941    0.0099 H   0  0  0  0  0  0  0  0  0  0  0  0
    8.0201   -1.6797    0.4712 H   0  0  0  0  0  0  0  0  0  0  0  0
    7.3438    1.1534    0.6411 H   0  0  0  0  0  0  0  0  0  0  0  0
    4.9441    1.7431    0.8717 H   0  0  0  0  0  0  0  0  0  0  0  0
   -0.1353    2.4586    1.1445 H   0  0  0  0  0  0  0  0  0  0  0  0
   -2.8974    2.0689   -1.3743 H   0  0  0  0  0  0  0  0  0  0  0  0
   -4.9125    3.4320   -0.9028 H   0  0  0  0  0  0  0  0  0  0  0  0
   -5.6749    3.7278    1.4595 H   0  0  0  0  0  0  0  0  0  0  0  0
   -2.5507    1.3992    2.8665 H   0  0  0  0  0  0  0  0  0  0  0  0
   -4.3619   -0.4354    0.3535 H   0  0  0  0  0  0  0  0  0  0  0  0
   -3.7743   -3.3631   -0.1579 H   0  0  0  0  0  0  0  0  0  0  0  0
   -4.3411   -2.5493    1.3760 H   0  0  0  0  0  0  0  0  0  0  0  0
   -6.0308   -3.5029   -0.7715 H   0  0  0  0  0  0  0  0  0  0  0  0
   -6.4834   -2.3819    0.6034 H   0  0  0  0  0  0  0  0  0  0  0  0
   -4.5890   -0.1733   -1.9725 H   0  0  0  0  0  0  0  0  0  0  0  0
   -4.1986   -1.9593   -2.2640 H   0  0  0  0  0  0  0  0  0  0  0  0
  1  2  1  0
  2  3  1  0
  3  4  1  0
  4  5  2  0
  4  6  1  0
  6  7  1  0
  7  8  2  0
  8  9  1  0
  9 10  2  0
 10 11  1  0
 11 12  1  0
 12 13  2  0
 13 14  1  0
 14 15  2  0
 15 16  1  0
 16 17  2  0
 11 18  2  0
 18 19  1  0
 19 20  1  0
 20 21  1  0
 21 22  1  0
 22 23  1  0
 23 24  1  0
 18 25  1  0
 25 26  2  0
 26 27  1  0
 27  7  1  0
 26  9  1  0
 17 12  1  0
 24 20  1  0
  1 28  1  0
  1 29  1  0
  1 30  1  0
  2 31  1  0
  2 32  1  0
  3 33  1  0
  6 34  1  0
 10 35  1  0
 13 36  1  0
 14 37  1  0
 15 38  1  0
 17 39  1  0
 20 40  1  1
 21 41  1  0
 21 42  1  0
 22 43  1  0
 22 44  1  0
 24 45  1  0
 24 46  1  0
M  END
$$$$
[H]ON([H])C(=O)[C@@]1([H])C([H])([H])N(C(=O)C2([H])C([H])([H])C([H])([H])C([H])([H])C([H])([H])C2([H])[H])C([H])([H])[C@@]1([H])N([H])S(=O)(=O)c1c([H])c([H])c(OC([H])([H])c2c([H])c(C([H])([H])[H])nc3c([H])c([H])c([H])c([H])c23)c([H])c1[H]
     RDKit          3D

 74 78  0  0  0  0  0  0  0  0999 V2000
    8.5703    4.3642   -1.2034 C   0  0  0  0  0  0  0  0  0  0  0  0
    8.2128    3.0387   -0.6530 C   0  0  0  0  0  0  0  0  0  0  0  0
    6.9390    2.7649   -0.1564 C   0  0  0  0  0  0  0  0  0  0  0  0
    6.6092    1.5670    0.3697 C   0  0  0  0  0  0  0  0  0  0  0  0
    5.3575    1.0996    0.9832 C   0  0  0  0  0  0  0  0  0  0  0  0
    4.4236    1.0045   -0.0656 O   0  0  0  0  0  0  0  0  0  0  0  0
    3.3246    0.1261    0.0615 C   0  0  0  0  0  0  0  0  0  0  0  0
    2.4755    0.0239   -1.0295 C   0  0  0  0  0  0  0  0  0  0  0  0
    1.3983   -0.8340   -1.0266 C   0  0  0  0  0  0  0  0  0  0  0  0
    1.1793   -1.5962    0.1017 C   0  0  0  0  0  0  0  0  0  0  0  0
    2.0253   -1.4947    1.2246 C   0  0  0  0  0  0  0  0  0  0  0  0
    3.1140   -0.6113    1.1864 C   0  0  0  0  0  0  0  0  0  0  0  0
   -0.0273   -2.8120    0.1221 S   0  0  0  0  0  0  0  0  0  0  0  0
   -0.1838   -3.2885   -1.3384 O   0  0  0  0  0  0  0  0  0  0  0  0
    0.4776   -4.0263    0.8550 O   0  0  0  0  0  0  0  0  0  0  0  0
   -1.5763   -2.3347    0.7050 N   0  0  0  0  0  0  0  0  0  0  0  0
   -2.1386   -1.3028   -0.0969 C   0  0  2  0  0  0  0  0  0  0  0  0
   -2.6864   -0.1161    0.5876 C   0  0  0  0  0  0  0  0  0  0  0  0
   -3.9069    0.2528   -0.1464 N   0  0  0  0  0  0  0  0  0  0  0  0
   -3.8219   -0.3740   -1.4378 C   0  0  0  0  0  0  0  0  0  0  0  0
   -3.1466   -1.7153   -1.1261 C   0  0  2  0  0  0  0  0  0  0  0  0
   -4.1319   -2.6797   -0.6280 C   0  0  0  0  0  0  0  0  0  0  0  0
   -4.3725   -2.8462    0.5858 O   0  0  0  0  0  0  0  0  0  0  0  0
   -4.8739   -3.4795   -1.5679 N   0  0  0  0  0  0  0  0  0  0  0  0
   -5.7885   -4.3403   -1.1546 O   0  0  0  0  0  0  0  0  0  0  0  0
   -4.9120    1.0780    0.4054 C   0  0  0  0  0  0  0  0  0  0  0  0
   -4.7850    1.5293    1.5827 O   0  0  0  0  0  0  0  0  0  0  0  0
   -6.1246    1.4508   -0.3294 C   0  0  0  0  0  0  0  0  0  0  0  0
   -7.0132    0.2644   -0.6334 C   0  0  0  0  0  0  0  0  0  0  0  0
   -8.3020    0.2563    0.1375 C   0  0  0  0  0  0  0  0  0  0  0  0
   -7.9987    0.6608    1.5686 C   0  0  0  0  0  0  0  0  0  0  0  0
   -7.5873    2.1144    1.5843 C   0  0  0  0  0  0  0  0  0  0  0  0
   -6.8999    2.5470    0.3181 C   0  0  0  0  0  0  0  0  0  0  0  0
    7.6567    0.5696    0.3849 C   0  0  0  0  0  0  0  0  0  0  0  0
    7.3326   -0.6983    0.8317 C   0  0  0  0  0  0  0  0  0  0  0  0
    8.2667   -1.7606    0.7846 C   0  0  0  0  0  0  0  0  0  0  0  0
    9.5025   -1.4580    0.2803 C   0  0  0  0  0  0  0  0  0  0  0  0
    9.8397   -0.1927   -0.1633 C   0  0  0  0  0  0  0  0  0  0  0  0
    8.8991    0.8473   -0.1108 C   0  0  0  0  0  0  0  0  0  0  0  0
    9.1601    2.0703   -0.6159 N   0  0  0  0  0  0  0  0  0  0  0  0
    9.3058    4.2932   -2.0231 H   0  0  0  0  0  0  0  0  0  0  0  0
    9.0269    4.9138   -0.3166 H   0  0  0  0  0  0  0  0  0  0  0  0
    7.6409    4.8920   -1.4793 H   0  0  0  0  0  0  0  0  0  0  0  0
    6.2083    3.5525   -0.1957 H   0  0  0  0  0  0  0  0  0  0  0  0
    4.9815    2.0984    1.5104 H   0  0  0  0  0  0  0  0  0  0  0  0
    5.3608    0.4252    1.7807 H   0  0  0  0  0  0  0  0  0  0  0  0
    2.7230    0.6511   -1.8771 H   0  0  0  0  0  0  0  0  0  0  0  0
    0.7934   -0.9023   -1.8658 H   0  0  0  0  0  0  0  0  0  0  0  0
    1.8266   -2.0832    2.0983 H   0  0  0  0  0  0  0  0  0  0  0  0
    3.7501   -0.5483    2.0578 H   0  0  0  0  0  0  0  0  0  0  0  0
   -2.1007   -3.1980    0.8612 H   0  0  0  0  0  0  0  0  0  0  0  0
   -1.2662   -0.9475   -0.8103 H   0  0  0  0  0  0  0  0  0  0  0  0
   -1.9653    0.7688    0.4776 H   0  0  0  0  0  0  0  0  0  0  0  0
   -2.9538   -0.2573    1.6457 H   0  0  0  0  0  0  0  0  0  0  0  0
   -3.0763    0.1936   -2.0506 H   0  0  0  0  0  0  0  0  0  0  0  0
   -4.7901   -0.5299   -1.9388 H   0  0  0  0  0  0  0  0  0  0  0  0
   -2.6627   -2.0855   -2.0752 H   0  0  0  0  0  0  0  0  0  0  0  0
   -4.6620   -3.3560   -2.5774 H   0  0  0  0  0  0  0  0  0  0  0  0
   -5.5501   -5.2709   -1.3711 H   0  0  0  0  0  0  0  0  0  0  0  0
   -5.7830    1.8228   -1.3310 H   0  0  0  0  0  0  0  0  0  0  0  0
   -6.4427   -0.6460   -0.2777 H   0  0  0  0  0  0  0  0  0  0  0  0
   -7.2291    0.1399   -1.6955 H   0  0  0  0  0  0  0  0  0  0  0  0
   -8.6570   -0.7942    0.1955 H   0  0  0  0  0  0  0  0  0  0  0  0
   -9.0409    0.9536   -0.2376 H   0  0  0  0  0  0  0  0  0  0  0  0
   -8.9209    0.5365    2.1483 H   0  0  0  0  0  0  0  0  0  0  0  0
   -7.2157    0.0283    2.0243 H   0  0  0  0  0  0  0  0  0  0  0  0
   -6.9239    2.3507    2.4675 H   0  0  0  0  0  0  0  0  0  0  0  0
   -8.4828    2.7540    1.7204 H   0  0  0  0  0  0  0  0  0  0  0  0
   -7.5812    3.0694   -0.3964 H   0  0  0  0  0  0  0  0  0  0  0  0
   -6.1543    3.3512    0.5900 H   0  0  0  0  0  0  0  0  0  0  0  0
    6.3639   -0.8972    1.2121 H   0  0  0  0  0  0  0  0  0  0  0  0
    7.9442   -2.7252    1.1398 H   0  0  0  0  0  0  0  0  0  0  0  0
   10.2317   -2.2458    0.2257 H   0  0  0  0  0  0  0  0  0  0  0  0
   10.8145    0.0238   -0.5673 H   0  0  0  0  0  0  0  0  0  0  0  0
  1  2  1  0
  2  3  2  0
  3  4  1  0
  4  5  1  0
  5  6  1  0
  6  7  1  0
  7  8  2  0
  8  9  1  0
  9 10  2  0
 10 11  1  0
 11 12  2  0
 10 13  1  0
 13 14  2  0
 13 15  2  0
 13 16  1  0
 16 17  1  0
 17 18  1  0
 18 19  1  0
 19 20  1  0
 20 21  1  0
 21 22  1  0
 22 23  2  0
 22 24  1  0
 24 25  1  0
 19 26  1  0
 26 27  2  0
 26 28  1  0
 28 29  1  0
 29 30  1  0
 30 31  1  0
 31 32  1  0
 32 33  1  0
  4 34  2  0
 34 35  1  0
 35 36  2  0
 36 37  1  0
 37 38  2  0
 38 39  1  0
 39 40  2  0
 40  2  1  0
 12  7  1  0
 21 17  1  0
 33 28  1  0
 39 34  1  0
  1 41  1  0
  1 42  1  0
  1 43  1  0
  3 44  1  0
  5 45  1  0
  5 46  1  0
  8 47  1  0
  9 48  1  0
 11 49  1  0
 12 50  1  0
 16 51  1  0
 17 52  1  6
 18 53  1  0
 18 54  1  0
 20 55  1  0
 20 56  1  0
 21 57  1  6
 24 58  1  0
 25 59  1  0
 28 60  1  0
 29 61  1  0
 29 62  1  0
 30 63  1  0
 30 64  1  0
 31 65  1  0
 31 66  1  0
 32 67  1  0
 32 68  1  0
 33 69  1  0
 33 70  1  0
 35 71  1  0
 36 72  1  0
 37 73  1  0
 38 74  1  0
M  END
$$$$
[H]N=C(N([H])[H])N([H])C([H])([H])C([H])([H])C([H])([H])[C@@]([H])(C(=O)N([H])[C@]([H])(C(=O)N([H])[C@]([H])(C(=O)N([H])[C@]([H])(C(=O)N([H])[H])C([H])([H])c1c([H])c([H])c([H])c([H])c1[H])C([H])([H])C(=O)N([H])[H])C([H])([H])C(=O)N([H])[H])N([H])C(=O)[C@@]1([H])N(C(=O)[C@@]([H])(N([H])C(=O)OC([H])([H])c2c([H])c([H])c([H])c([H])c2[H])C([H])([H])c2c([H])c([H])c([H])c([H])c2[H])C([H])([H])C([H])([H])C1([H])[H]
     RDKit          3D

125128  0  0  0  0  0  0  0  0999 V2000
    0.9441    5.9047    1.9873 N   0  0  0  0  0  0  0  0  0  0  0  0
    0.9034    5.2156    3.2279 C   0  0  0  0  0  0  0  0  0  0  0  0
    1.4186    5.8362    4.2299 N   0  0  0  0  0  0  0  0  0  0  0  0
    0.3542    3.9441    3.4275 N   0  0  0  0  0  0  0  0  0  0  0  0
   -0.7336    3.4767    2.6050 C   0  0  0  0  0  0  0  0  0  0  0  0
   -1.1919    2.1130    2.9515 C   0  0  0  0  0  0  0  0  0  0  0  0
   -0.2487    0.9941    2.8916 C   0  0  0  0  0  0  0  0  0  0  0  0
    0.3370    0.5581    1.6020 C   0  0  2  0  0  0  0  0  0  0  0  0
    1.0895    1.5165    0.8863 N   0  0  0  0  0  0  0  0  0  0  0  0
    2.5234    1.5008    0.7310 C   0  0  0  0  0  0  0  0  0  0  0  0
    3.1072    0.5819    1.2562 O   0  0  0  0  0  0  0  0  0  0  0  0
    3.1191    2.6149   -0.0557 C   0  0  2  0  0  0  0  0  0  0  0  0
    2.4621    2.7283   -1.3935 C   0  0  0  0  0  0  0  0  0  0  0  0
    3.5833    3.0007   -2.3631 C   0  0  0  0  0  0  0  0  0  0  0  0
    4.7340    3.3931   -1.4734 C   0  0  0  0  0  0  0  0  0  0  0  0
    4.5097    2.5576   -0.2701 N   0  0  0  0  0  0  0  0  0  0  0  0
    5.6210    2.0372    0.4409 C   0  0  0  0  0  0  0  0  0  0  0  0
    5.4807    1.6787    1.6192 O   0  0  0  0  0  0  0  0  0  0  0  0
    6.9923    1.8877   -0.1783 C   0  0  2  0  0  0  0  0  0  0  0  0
    7.0034    1.0305   -1.3892 C   0  0  0  0  0  0  0  0  0  0  0  0
    8.3720    0.9812   -1.9611 C   0  0  0  0  0  0  0  0  0  0  0  0
    9.2101   -0.0584   -1.7124 C   0  0  0  0  0  0  0  0  0  0  0  0
   10.5054   -0.1396   -2.2175 C   0  0  0  0  0  0  0  0  0  0  0  0
   10.9722    0.8888   -3.0176 C   0  0  0  0  0  0  0  0  0  0  0  0
   10.1068    1.9227   -3.2521 C   0  0  0  0  0  0  0  0  0  0  0  0
    8.8320    2.0341   -2.7710 C   0  0  0  0  0  0  0  0  0  0  0  0
    7.8176    1.3307    0.8531 N   0  0  0  0  0  0  0  0  0  0  0  0
    7.5956    0.0844    1.4616 C   0  0  0  0  0  0  0  0  0  0  0  0
    6.6211   -0.6651    1.1236 O   0  0  0  0  0  0  0  0  0  0  0  0
    8.3920   -0.4370    2.4635 O   0  0  0  0  0  0  0  0  0  0  0  0
    8.2227   -1.6710    3.0965 C   0  0  0  0  0  0  0  0  0  0  0  0
    8.3374   -2.7717    2.1354 C   0  0  0  0  0  0  0  0  0  0  0  0
    9.5665   -3.0949    1.6215 C   0  0  0  0  0  0  0  0  0  0  0  0
    9.6389   -4.1611    0.7263 C   0  0  0  0  0  0  0  0  0  0  0  0
    8.5573   -4.8868    0.3414 C   0  0  0  0  0  0  0  0  0  0  0  0
    7.3171   -4.5526    0.8674 C   0  0  0  0  0  0  0  0  0  0  0  0
    7.2344   -3.4981    1.7567 C   0  0  0  0  0  0  0  0  0  0  0  0
   -0.5035   -0.3277    0.7685 C   0  0  0  0  0  0  0  0  0  0  0  0
   -0.2980   -0.2836   -0.5081 O   0  0  0  0  0  0  0  0  0  0  0  0
   -1.4897   -1.2055    1.1946 N   0  0  0  0  0  0  0  0  0  0  0  0
   -2.2783   -2.0691    0.3417 C   0  0  1  0  0  0  0  0  0  0  0  0
   -2.6353   -3.3260    1.0344 C   0  0  0  0  0  0  0  0  0  0  0  0
   -1.4083   -4.0521    1.4364 C   0  0  0  0  0  0  0  0  0  0  0  0
   -0.1472   -3.5150    0.9487 N   0  0  0  0  0  0  0  0  0  0  0  0
   -1.3644   -5.0766    2.1548 O   0  0  0  0  0  0  0  0  0  0  0  0
   -3.3579   -1.3912   -0.3467 C   0  0  0  0  0  0  0  0  0  0  0  0
   -3.3725   -0.1358   -0.5698 O   0  0  0  0  0  0  0  0  0  0  0  0
   -4.4816   -2.1201   -0.8266 N   0  0  0  0  0  0  0  0  0  0  0  0
   -5.5268   -1.4395   -1.5697 C   0  0  1  0  0  0  0  0  0  0  0  0
   -5.6039   -2.0292   -2.9854 C   0  0  0  0  0  0  0  0  0  0  0  0
   -5.9136   -3.4633   -2.9383 C   0  0  0  0  0  0  0  0  0  0  0  0
   -4.8653   -4.4138   -2.9729 N   0  0  0  0  0  0  0  0  0  0  0  0
   -7.1023   -3.9139   -2.8630 O   0  0  0  0  0  0  0  0  0  0  0  0
   -6.8922   -1.6057   -1.0199 C   0  0  0  0  0  0  0  0  0  0  0  0
   -7.0279   -2.3190    0.0042 O   0  0  0  0  0  0  0  0  0  0  0  0
   -7.9724   -0.9671   -1.6617 N   0  0  0  0  0  0  0  0  0  0  0  0
   -9.3680   -1.0452   -1.2590 C   0  0  1  0  0  0  0  0  0  0  0  0
   -9.7580    0.3444   -0.8645 C   0  0  0  0  0  0  0  0  0  0  0  0
  -11.1472    0.5180   -0.4577 C   0  0  0  0  0  0  0  0  0  0  0  0
  -11.5687    0.1776    0.8068 C   0  0  0  0  0  0  0  0  0  0  0  0
  -12.8540    0.4020    1.1791 C   0  0  0  0  0  0  0  0  0  0  0  0
  -13.7567    0.9771    0.2891 C   0  0  0  0  0  0  0  0  0  0  0  0
  -13.3573    1.3191   -0.9622 C   0  0  0  0  0  0  0  0  0  0  0  0
  -12.0542    1.0937   -1.3484 C   0  0  0  0  0  0  0  0  0  0  0  0
  -10.2176   -1.5489   -2.3328 C   0  0  0  0  0  0  0  0  0  0  0  0
  -11.5958   -1.8371   -2.2179 N   0  0  0  0  0  0  0  0  0  0  0  0
   -9.7277   -1.7712   -3.4993 O   0  0  0  0  0  0  0  0  0  0  0  0
    1.3264    5.3972    1.1350 H   0  0  0  0  0  0  0  0  0  0  0  0
    0.5987    6.8893    1.9616 H   0  0  0  0  0  0  0  0  0  0  0  0
    1.4903    5.5203    5.2084 H   0  0  0  0  0  0  0  0  0  0  0  0
    0.7282    3.3284    4.1672 H   0  0  0  0  0  0  0  0  0  0  0  0
   -0.6399    3.7295    1.5447 H   0  0  0  0  0  0  0  0  0  0  0  0
   -1.6184    4.1634    2.9223 H   0  0  0  0  0  0  0  0  0  0  0  0
   -2.0696    1.8894    2.2893 H   0  0  0  0  0  0  0  0  0  0  0  0
   -1.6240    2.1373    3.9957 H   0  0  0  0  0  0  0  0  0  0  0  0
    0.5760    1.0930    3.6726 H   0  0  0  0  0  0  0  0  0  0  0  0
   -0.8057    0.0863    3.3009 H   0  0  0  0  0  0  0  0  0  0  0  0
    1.1797   -0.1903    1.9656 H   0  0  0  0  0  0  0  0  0  0  0  0
    0.5966    2.2896    0.4014 H   0  0  0  0  0  0  0  0  0  0  0  0
    2.9082    3.5713    0.4845 H   0  0  0  0  0  0  0  0  0  0  0  0
    1.8996    1.8060   -1.6723 H   0  0  0  0  0  0  0  0  0  0  0  0
    1.7138    3.5654   -1.3864 H   0  0  0  0  0  0  0  0  0  0  0  0
    3.8174    2.1266   -3.0113 H   0  0  0  0  0  0  0  0  0  0  0  0
    3.2696    3.8812   -2.9784 H   0  0  0  0  0  0  0  0  0  0  0  0
    4.5614    4.4704   -1.1517 H   0  0  0  0  0  0  0  0  0  0  0  0
    5.7157    3.3698   -1.8793 H   0  0  0  0  0  0  0  0  0  0  0  0
    7.3847    2.9140   -0.4326 H   0  0  0  0  0  0  0  0  0  0  0  0
    6.7596   -0.0345   -1.0923 H   0  0  0  0  0  0  0  0  0  0  0  0
    6.2928    1.2588   -2.1846 H   0  0  0  0  0  0  0  0  0  0  0  0
    8.8557   -0.8968   -1.0932 H   0  0  0  0  0  0  0  0  0  0  0  0
   11.1159   -0.9794   -1.9856 H   0  0  0  0  0  0  0  0  0  0  0  0
   11.9744    0.7971   -3.3939 H   0  0  0  0  0  0  0  0  0  0  0  0
   10.5082    2.7248   -3.8985 H   0  0  0  0  0  0  0  0  0  0  0  0
    8.1581    2.8470   -2.9596 H   0  0  0  0  0  0  0  0  0  0  0  0
    8.6477    1.8781    1.1808 H   0  0  0  0  0  0  0  0  0  0  0  0
    9.0270   -1.7281    3.8877 H   0  0  0  0  0  0  0  0  0  0  0  0
    7.2339   -1.6825    3.6326 H   0  0  0  0  0  0  0  0  0  0  0  0
   10.4788   -2.5586    1.8849 H   0  0  0  0  0  0  0  0  0  0  0  0
   10.6402   -4.3839    0.3512 H   0  0  0  0  0  0  0  0  0  0  0  0
    8.6419   -5.6971   -0.3513 H   0  0  0  0  0  0  0  0  0  0  0  0
    6.4639   -5.1343    0.5616 H   0  0  0  0  0  0  0  0  0  0  0  0
    6.2423   -3.2871    2.1447 H   0  0  0  0  0  0  0  0  0  0  0  0
   -1.7173   -1.2777    2.2067 H   0  0  0  0  0  0  0  0  0  0  0  0
   -1.5308   -2.2851   -0.5270 H   0  0  0  0  0  0  0  0  0  0  0  0
   -3.1786   -3.0558    1.9646 H   0  0  0  0  0  0  0  0  0  0  0  0
   -3.2591   -4.0138    0.4027 H   0  0  0  0  0  0  0  0  0  0  0  0
   -0.0167   -3.4642   -0.0741 H   0  0  0  0  0  0  0  0  0  0  0  0
    0.6052   -3.1902    1.5875 H   0  0  0  0  0  0  0  0  0  0  0  0
   -4.6394   -3.1393   -0.6813 H   0  0  0  0  0  0  0  0  0  0  0  0
   -5.2279   -0.3855   -1.6845 H   0  0  0  0  0  0  0  0  0  0  0  0
   -4.6961   -1.8658   -3.5637 H   0  0  0  0  0  0  0  0  0  0  0  0
   -6.4489   -1.5202   -3.4856 H   0  0  0  0  0  0  0  0  0  0  0  0
   -3.9718   -4.2844   -3.4862 H   0  0  0  0  0  0  0  0  0  0  0  0
   -4.9320   -5.3381   -2.4531 H   0  0  0  0  0  0  0  0  0  0  0  0
   -7.7766   -0.3776   -2.4975 H   0  0  0  0  0  0  0  0  0  0  0  0
   -9.4188   -1.7583   -0.4068 H   0  0  0  0  0  0  0  0  0  0  0  0
   -9.0617    0.6565   -0.0521 H   0  0  0  0  0  0  0  0  0  0  0  0
   -9.5317    1.0676   -1.7114 H   0  0  0  0  0  0  0  0  0  0  0  0
  -10.8572   -0.2743    1.5015 H   0  0  0  0  0  0  0  0  0  0  0  0
  -13.1889    0.1303    2.1869 H   0  0  0  0  0  0  0  0  0  0  0  0
  -14.7704    1.1264    0.6504 H   0  0  0  0  0  0  0  0  0  0  0  0
  -14.0411    1.7709   -1.6784 H   0  0  0  0  0  0  0  0  0  0  0  0
  -11.7391    1.3685   -2.3422 H   0  0  0  0  0  0  0  0  0  0  0  0
  -12.2441   -1.7952   -3.0336 H   0  0  0  0  0  0  0  0  0  0  0  0
  -12.0671   -2.1077   -1.3158 H   0  0  0  0  0  0  0  0  0  0  0  0
  1  2  1  0
  2  3  2  3
  2  4  1  0
  4  5  1  0
  5  6  1  0
  6  7  1  0
  7  8  1  0
  8  9  1  0
  9 10  1  0
 10 11  2  0
 10 12  1  0
 12 13  1  0
 13 14  1  0
 14 15  1  0
 15 16  1  0
 16 17  1  0
 17 18  2  0
 17 19  1  0
 19 20  1  0
 20 21  1  0
 21 22  2  0
 22 23  1  0
 23 24  2  0
 24 25  1  0
 25 26  2  0
 19 27  1  0
 27 28  1  0
 28 29  2  0
 28 30  1  0
 30 31  1  0
 31 32  1  0
 32 33  2  0
 33 34  1  0
 34 35  2  0
 35 36  1  0
 36 37  2  0
  8 38  1  0
 38 39  2  0
 38 40  1  0
 40 41  1  0
 41 42  1  0
 42 43  1  0
 43 44  1  0
 43 45  2  0
 41 46  1  0
 46 47  2  0
 46 48  1  0
 48 49  1  0
 49 50  1  0
 50 51  1  0
 51 52  1  0
 51 53  2  0
 49 54  1  0
 54 55  2  0
 54 56  1  0
 56 57  1  0
 57 58  1  0
 58 59  1  0
 59 60  2  0
 60 61  1  0
 61 62  2  0
 62 63  1  0
 63 64  2  0
 57 65  1  0
 65 66  1  0
 65 67  2  0
 16 12  1  0
 26 21  1  0
 37 32  1  0
 64 59  1  0
  1 68  1  0
  1 69  1  0
  3 70  1  0
  4 71  1  0
  5 72  1  0
  5 73  1  0
  6 74  1  0
  6 75  1  0
  7 76  1  0
  7 77  1  0
  8 78  1  1
  9 79  1  0
 12 80  1  1
 13 81  1  0
 13 82  1  0
 14 83  1  0
 14 84  1  0
 15 85  1  0
 15 86  1  0
 19 87  1  6
 20 88  1  0
 20 89  1  0
 22 90  1  0
 23 91  1  0
 24 92  1  0
 25 93  1  0
 26 94  1  0
 27 95  1  0
 31 96  1  0
 31 97  1  0
 33 98  1  0
 34 99  1  0
 35100  1  0
 36101  1  0
 37102  1  0
 40103  1  0
 41104  1  6
 42105  1  0
 42106  1  0
 44107  1  0
 44108  1  0
 48109  1  0
 49110  1  6
 50111  1  0
 50112  1  0
 52113  1  0
 52114  1  0
 56115  1  0
 57116  1  1
 58117  1  0
 58118  1  0
 60119  1  0
 61120  1  0
 62121  1  0
 63122  1  0
 64123  1  0
 66124  1  0
 66125  1  0
M  END
$$$$
[H]c1c([H])c(-c2c([H])c(C(C([H])([H])[H])(C([H])([H])[H])C([H])([H])[H])nn2-c2c([H])c([H])c(S(=O)(=O)N([H])[H])c([H])c2[H])c([H])c([H])c1OC([H])([H])[H]
     RDKit          3D

 50 52  0  0  0  0  0  0  0  0999 V2000
   -2.2016    6.3871    0.1866 C   0  0  0  0  0  0  0  0  0  0  0  0
   -2.7077    5.2021   -0.3389 O   0  0  0  0  0  0  0  0  0  0  0  0
   -2.1449    3.9516   -0.2832 C   0  0  0  0  0  0  0  0  0  0  0  0
   -2.8811    2.9180   -0.8717 C   0  0  0  0  0  0  0  0  0  0  0  0
   -2.4045    1.6252   -0.8591 C   0  0  0  0  0  0  0  0  0  0  0  0
   -1.2025    1.2716   -0.2793 C   0  0  0  0  0  0  0  0  0  0  0  0
   -0.4821    2.2806    0.2915 C   0  0  0  0  0  0  0  0  0  0  0  0
   -0.9480    3.6092    0.2892 C   0  0  0  0  0  0  0  0  0  0  0  0
   -0.9058   -0.1541   -0.1428 C   0  0  0  0  0  0  0  0  0  0  0  0
   -1.9547   -1.1162   -0.1959 C   0  0  0  0  0  0  0  0  0  0  0  0
   -1.4261   -2.3402   -0.0688 C   0  0  0  0  0  0  0  0  0  0  0  0
   -0.1281   -2.1702    0.0571 N   0  0  0  0  0  0  0  0  0  0  0  0
    0.2008   -0.8351    0.0104 N   0  0  0  0  0  0  0  0  0  0  0  0
    1.5595   -0.4508    0.0632 C   0  0  0  0  0  0  0  0  0  0  0  0
    2.3275   -0.5691   -1.1039 C   0  0  0  0  0  0  0  0  0  0  0  0
    3.6863   -0.3568   -1.1084 C   0  0  0  0  0  0  0  0  0  0  0  0
    4.3292   -0.0178    0.0655 C   0  0  0  0  0  0  0  0  0  0  0  0
    3.5865    0.1002    1.2035 C   0  0  0  0  0  0  0  0  0  0  0  0
    2.2293   -0.1156    1.1834 C   0  0  0  0  0  0  0  0  0  0  0  0
    6.0737    0.1476    0.0551 S   0  0  0  0  0  0  0  0  0  0  0  0
    6.5350    1.6124   -0.7276 N   0  0  0  0  0  0  0  0  0  0  0  0
    6.7683   -0.9637   -0.6560 O   0  0  0  0  0  0  0  0  0  0  0  0
    6.5784    0.1470    1.4826 O   0  0  0  0  0  0  0  0  0  0  0  0
   -2.1926   -3.6286   -0.0345 C   0  0  0  0  0  0  0  0  0  0  0  0
   -3.5857   -3.4279   -0.5876 C   0  0  0  0  0  0  0  0  0  0  0  0
   -1.5146   -4.7187   -0.8224 C   0  0  0  0  0  0  0  0  0  0  0  0
   -2.3596   -4.0048    1.4251 C   0  0  0  0  0  0  0  0  0  0  0  0
   -2.1662    7.1563   -0.6039 H   0  0  0  0  0  0  0  0  0  0  0  0
   -1.2090    6.2086    0.6290 H   0  0  0  0  0  0  0  0  0  0  0  0
   -2.8888    6.7903    0.9807 H   0  0  0  0  0  0  0  0  0  0  0  0
   -3.8373    3.1820   -1.3235 H   0  0  0  0  0  0  0  0  0  0  0  0
   -3.0390    0.8805   -1.3629 H   0  0  0  0  0  0  0  0  0  0  0  0
    0.4627    2.1493    0.7697 H   0  0  0  0  0  0  0  0  0  0  0  0
   -0.3417    4.3878    0.7516 H   0  0  0  0  0  0  0  0  0  0  0  0
   -3.0140   -0.8856   -0.3377 H   0  0  0  0  0  0  0  0  0  0  0  0
    1.8562   -0.8270   -2.0581 H   0  0  0  0  0  0  0  0  0  0  0  0
    4.2808   -0.4612   -2.0366 H   0  0  0  0  0  0  0  0  0  0  0  0
    4.1397    0.3706    2.1108 H   0  0  0  0  0  0  0  0  0  0  0  0
    1.7133    0.0178    2.1193 H   0  0  0  0  0  0  0  0  0  0  0  0
    6.6438    1.3905   -1.7642 H   0  0  0  0  0  0  0  0  0  0  0  0
    5.9172    2.4109   -0.5362 H   0  0  0  0  0  0  0  0  0  0  0  0
   -3.5891   -3.1318   -1.6237 H   0  0  0  0  0  0  0  0  0  0  0  0
   -4.0337   -2.5915    0.0336 H   0  0  0  0  0  0  0  0  0  0  0  0
   -4.1890   -4.3330   -0.3726 H   0  0  0  0  0  0  0  0  0  0  0  0
   -2.1263   -5.6416   -0.6853 H   0  0  0  0  0  0  0  0  0  0  0  0
   -0.4716   -4.8695   -0.4876 H   0  0  0  0  0  0  0  0  0  0  0  0
   -1.5899   -4.4854   -1.8988 H   0  0  0  0  0  0  0  0  0  0  0  0
   -1.4823   -4.4295    1.8739 H   0  0  0  0  0  0  0  0  0  0  0  0
   -2.5771   -3.0343    1.9568 H   0  0  0  0  0  0  0  0  0  0  0  0
   -3.2933   -4.6373    1.4958 H   0  0  0  0  0  0  0  0  0  0  0  0
  1  2  1  0
  2  3  1  0
  3  4  2  0
  4  5  1  0
  5  6  2  0
  6  7  1  0
  7  8  2  0
  6  9  1  0
  9 10  2  0
 10 11  1  0
 11 12  2  0
 12 13  1  0
 13 14  1  0
 14 15  2  0
 15 16  1  0
 16 17  2  0
 17 18  1  0
 18 19  2  0
 17 20  1  0
 20 21  1  0
 20 22  2  0
 20 23  2  0
 11 24  1  0
 24 25  1  0
 24 26  1  0
 24 27  1  0
  8  3  1  0
 13  9  1  0
 19 14  1  0
  1 28  1  0
  1 29  1  0
  1 30  1  0
  4 31  1  0
  5 32  1  0
  7 33  1  0
  8 34  1  0
 10 35  1  0
 15 36  1  0
 16 37  1  0
 18 38  1  0
 19 39  1  0
 21 40  1  0
 21 41  1  0
 25 42  1  0
 25 43  1  0
 25 44  1  0
 26 45  1  0
 26 46  1  0
 26 47  1  0
 27 48  1  0
 27 49  1  0
 27 50  1  0
M  END
$$$$
[H]ON([H])C(=O)C([H])([H])[C@]([H])(C(=O)N([H])[C@]([H])(C(=O)N([H])C([H])([H])[H])C([H])([H])c1c([H])c([H])c([H])c([H])c1[H])C([H])([H])C([H])(C([H])([H])[H])C([H])([H])[H]
     RDKit          3D

 52 52  0  0  0  0  0  0  0  0999 V2000
    3.1365    4.8571   -0.0959 C   0  0  0  0  0  0  0  0  0  0  0  0
    2.9872    3.4248    0.1065 N   0  0  0  0  0  0  0  0  0  0  0  0
    1.8678    2.6981   -0.3237 C   0  0  0  0  0  0  0  0  0  0  0  0
    0.9417    3.2852   -0.9096 O   0  0  0  0  0  0  0  0  0  0  0  0
    1.7835    1.2529   -0.0865 C   0  0  2  0  0  0  0  0  0  0  0  0
    2.9989    0.6559   -0.8049 C   0  0  0  0  0  0  0  0  0  0  0  0
    3.0560   -0.7991   -0.6601 C   0  0  0  0  0  0  0  0  0  0  0  0
    2.4350   -1.6081   -1.5846 C   0  0  0  0  0  0  0  0  0  0  0  0
    2.4689   -2.9980   -1.4778 C   0  0  0  0  0  0  0  0  0  0  0  0
    3.1465   -3.5722   -0.4120 C   0  0  0  0  0  0  0  0  0  0  0  0
    3.7749   -2.7795    0.5244 C   0  0  0  0  0  0  0  0  0  0  0  0
    3.7187   -1.3975    0.3836 C   0  0  0  0  0  0  0  0  0  0  0  0
    0.5777    0.6266   -0.5433 N   0  0  0  0  0  0  0  0  0  0  0  0
   -0.2123   -0.2244    0.2730 C   0  0  0  0  0  0  0  0  0  0  0  0
    0.1322   -0.4596    1.4595 O   0  0  0  0  0  0  0  0  0  0  0  0
   -1.4727   -0.8864   -0.2094 C   0  0  2  0  0  0  0  0  0  0  0  0
   -2.5470    0.0372   -0.6070 C   0  0  0  0  0  0  0  0  0  0  0  0
   -3.1363    0.9616    0.3896 C   0  0  0  0  0  0  0  0  0  0  0  0
   -4.2726    1.7634   -0.3283 C   0  0  0  0  0  0  0  0  0  0  0  0
   -2.1997    2.0756    0.8387 C   0  0  0  0  0  0  0  0  0  0  0  0
   -1.8309   -1.9619    0.7682 C   0  0  0  0  0  0  0  0  0  0  0  0
   -3.0096   -2.7572    0.4711 C   0  0  0  0  0  0  0  0  0  0  0  0
   -3.6530   -2.6791   -0.5850 O   0  0  0  0  0  0  0  0  0  0  0  0
   -3.5169   -3.7175    1.4220 N   0  0  0  0  0  0  0  0  0  0  0  0
   -4.5993   -4.4756    1.1985 O   0  0  0  0  0  0  0  0  0  0  0  0
    3.5679    5.2669    0.8374 H   0  0  0  0  0  0  0  0  0  0  0  0
    2.1653    5.3210   -0.3607 H   0  0  0  0  0  0  0  0  0  0  0  0
    3.9067    4.9871   -0.8912 H   0  0  0  0  0  0  0  0  0  0  0  0
    3.7613    2.9366    0.5987 H   0  0  0  0  0  0  0  0  0  0  0  0
    1.9620    1.0505    1.0034 H   0  0  0  0  0  0  0  0  0  0  0  0
    2.9271    0.9955   -1.8663 H   0  0  0  0  0  0  0  0  0  0  0  0
    3.8861    1.1723   -0.3859 H   0  0  0  0  0  0  0  0  0  0  0  0
    1.8955   -1.2090   -2.4307 H   0  0  0  0  0  0  0  0  0  0  0  0
    1.9835   -3.6391   -2.2001 H   0  0  0  0  0  0  0  0  0  0  0  0
    3.1696   -4.6576   -0.3339 H   0  0  0  0  0  0  0  0  0  0  0  0
    4.2877   -3.2763    1.3334 H   0  0  0  0  0  0  0  0  0  0  0  0
    4.2062   -0.7696    1.1098 H   0  0  0  0  0  0  0  0  0  0  0  0
    0.2616    0.7996   -1.5168 H   0  0  0  0  0  0  0  0  0  0  0  0
   -1.1436   -1.4245   -1.1485 H   0  0  0  0  0  0  0  0  0  0  0  0
   -2.0751    0.7175   -1.4028 H   0  0  0  0  0  0  0  0  0  0  0  0
   -3.3437   -0.4877   -1.1646 H   0  0  0  0  0  0  0  0  0  0  0  0
   -3.5767    0.5072    1.2784 H   0  0  0  0  0  0  0  0  0  0  0  0
   -5.1822    1.1279   -0.3746 H   0  0  0  0  0  0  0  0  0  0  0  0
   -4.4509    2.7117    0.2193 H   0  0  0  0  0  0  0  0  0  0  0  0
   -3.9400    2.0358   -1.3475 H   0  0  0  0  0  0  0  0  0  0  0  0
   -1.5092    1.7892    1.6383 H   0  0  0  0  0  0  0  0  0  0  0  0
   -2.7986    2.9241    1.2745 H   0  0  0  0  0  0  0  0  0  0  0  0
   -1.6734    2.5119   -0.0077 H   0  0  0  0  0  0  0  0  0  0  0  0
   -0.9525   -2.6861    0.7346 H   0  0  0  0  0  0  0  0  0  0  0  0
   -1.7997   -1.5976    1.8270 H   0  0  0  0  0  0  0  0  0  0  0  0
   -3.0071   -3.8173    2.3243 H   0  0  0  0  0  0  0  0  0  0  0  0
   -5.1030   -4.6123    2.0454 H   0  0  0  0  0  0  0  0  0  0  0  0
  1  2  1  0
  2  3  1  0
  3  4  2  0
  3  5  1  0
  5  6  1  0
  6  7  1  0
  7  8  2  0
  8  9  1  0
  9 10  2  0
 10 11  1  0
 11 12  2  0
  5 13  1  0
 13 14  1  0
 14 15  2  0
 14 16  1  0
 16 17  1  0
 17 18  1  0
 18 19  1  0
 18 20  1  0
 16 21  1  0
 21 22  1  0
 22 23  2  0
 22 24  1  0
 24 25  1  0
 12  7  1  0
  1 26  1  0
  1 27  1  0
  1 28  1  0
  2 29  1  0
  5 30  1  1
  6 31  1  0
  6 32  1  0
  8 33  1  0
  9 34  1  0
 10 35  1  0
 11 36  1  0
 12 37  1  0
 13 38  1  0
 16 39  1  6
 17 40  1  0
 17 41  1  0
 18 42  1  0
 19 43  1  0
 19 44  1  0
 19 45  1  0
 20 46  1  0
 20 47  1  0
 20 48  1  0
 21 49  1  0
 21 50  1  0
 24 51  1  0
 25 52  1  0
M  END
$$$$
[H]N=C(c1c([H])c([H])c([H])c(C([H])([H])[C@@]([H])(C(=O)N2C([H])([H])C([H])([H])C([H])(C([H])([H])C([H])([H])N([H])[H])C([H])([H])C2([H])[H])N([H])S(=O)(=O)c2c([H])c([H])c([H])c(-c3c([H])c([H])c([H])c([H])c3[H])c2[H])c1[H])N([H])[H]
     RDKit          3D

 73 76  0  0  0  0  0  0  0  0999 V2000
   -3.4798   -3.7665    1.7423 N   0  0  0  0  0  0  0  0  0  0  0  0
   -4.0343   -2.6791    2.5283 C   0  0  0  0  0  0  0  0  0  0  0  0
   -4.6633   -1.6264    1.6717 C   0  0  0  0  0  0  0  0  0  0  0  0
   -3.7123   -0.9737    0.6944 C   0  0  0  0  0  0  0  0  0  0  0  0
   -4.5413    0.0486   -0.0776 C   0  0  0  0  0  0  0  0  0  0  0  0
   -3.6301    1.1250   -0.6383 C   0  0  0  0  0  0  0  0  0  0  0  0
   -2.2572    0.6270   -0.6990 N   0  0  0  0  0  0  0  0  0  0  0  0
   -1.6295    0.4283    0.5897 C   0  0  0  0  0  0  0  0  0  0  0  0
   -2.6213   -0.2899    1.4851 C   0  0  0  0  0  0  0  0  0  0  0  0
   -1.6048    0.3311   -1.9092 C   0  0  0  0  0  0  0  0  0  0  0  0
   -2.3367    0.4927   -2.9585 O   0  0  0  0  0  0  0  0  0  0  0  0
   -0.2103   -0.1276   -2.0367 C   0  0  2  0  0  0  0  0  0  0  0  0
    0.7124    0.9966   -2.4519 C   0  0  0  0  0  0  0  0  0  0  0  0
    0.7769    2.1356   -1.5483 C   0  0  0  0  0  0  0  0  0  0  0  0
    1.6588    2.2968   -0.5074 C   0  0  0  0  0  0  0  0  0  0  0  0
    1.6533    3.4131    0.3039 C   0  0  0  0  0  0  0  0  0  0  0  0
    0.7643    4.4191    0.1100 C   0  0  0  0  0  0  0  0  0  0  0  0
   -0.1536    4.3078   -0.9324 C   0  0  0  0  0  0  0  0  0  0  0  0
   -0.1227    3.1754   -1.7290 C   0  0  0  0  0  0  0  0  0  0  0  0
   -1.0942    5.3890   -1.1299 C   0  0  0  0  0  0  0  0  0  0  0  0
   -1.0356    6.5144   -0.2758 N   0  0  0  0  0  0  0  0  0  0  0  0
   -1.9816    5.3874   -2.0403 N   0  0  0  0  0  0  0  0  0  0  0  0
   -0.2050   -1.0322   -3.2036 N   0  0  0  0  0  0  0  0  0  0  0  0
    0.4125   -2.5796   -2.7638 S   0  0  0  0  0  0  0  0  0  0  0  0
   -0.3214   -3.1863   -1.6103 O   0  0  0  0  0  0  0  0  0  0  0  0
    0.4248   -3.4804   -3.9597 O   0  0  0  0  0  0  0  0  0  0  0  0
    2.0777   -2.3723   -2.2329 C   0  0  0  0  0  0  0  0  0  0  0  0
    3.0832   -2.4123   -3.1696 C   0  0  0  0  0  0  0  0  0  0  0  0
    4.3991   -2.2530   -2.8345 C   0  0  0  0  0  0  0  0  0  0  0  0
    4.7281   -2.0479   -1.5296 C   0  0  0  0  0  0  0  0  0  0  0  0
    3.7316   -2.0016   -0.5483 C   0  0  0  0  0  0  0  0  0  0  0  0
    2.3986   -2.1667   -0.9143 C   0  0  0  0  0  0  0  0  0  0  0  0
    4.0988   -1.7733    0.8444 C   0  0  0  0  0  0  0  0  0  0  0  0
    3.3793   -2.3012    1.8958 C   0  0  0  0  0  0  0  0  0  0  0  0
    3.7420   -2.0667    3.2128 C   0  0  0  0  0  0  0  0  0  0  0  0
    4.8395   -1.2956    3.5355 C   0  0  0  0  0  0  0  0  0  0  0  0
    5.5692   -0.7612    2.4908 C   0  0  0  0  0  0  0  0  0  0  0  0
    5.2097   -0.9932    1.1813 C   0  0  0  0  0  0  0  0  0  0  0  0
   -4.1703   -4.5440    1.6112 H   0  0  0  0  0  0  0  0  0  0  0  0
   -2.5592   -4.0816    2.0825 H   0  0  0  0  0  0  0  0  0  0  0  0
   -3.2403   -2.2801    3.1594 H   0  0  0  0  0  0  0  0  0  0  0  0
   -4.8743   -3.1418    3.1218 H   0  0  0  0  0  0  0  0  0  0  0  0
   -5.5338   -2.0979    1.1536 H   0  0  0  0  0  0  0  0  0  0  0  0
   -5.1169   -0.8821    2.3625 H   0  0  0  0  0  0  0  0  0  0  0  0
   -3.2469   -1.7043    0.0182 H   0  0  0  0  0  0  0  0  0  0  0  0
   -4.9818   -0.4871   -0.9372 H   0  0  0  0  0  0  0  0  0  0  0  0
   -5.3614    0.4705    0.5170 H   0  0  0  0  0  0  0  0  0  0  0  0
   -3.7058    1.9905    0.0348 H   0  0  0  0  0  0  0  0  0  0  0  0
   -3.9381    1.4122   -1.6419 H   0  0  0  0  0  0  0  0  0  0  0  0
   -0.7096   -0.1643    0.4728 H   0  0  0  0  0  0  0  0  0  0  0  0
   -1.4121    1.4132    1.0700 H   0  0  0  0  0  0  0  0  0  0  0  0
   -2.0562   -1.0863    2.0136 H   0  0  0  0  0  0  0  0  0  0  0  0
   -3.0567    0.4497    2.1717 H   0  0  0  0  0  0  0  0  0  0  0  0
    0.1374   -0.7025   -1.2076 H   0  0  0  0  0  0  0  0  0  0  0  0
    0.3474    1.3537   -3.4497 H   0  0  0  0  0  0  0  0  0  0  0  0
    1.7357    0.5797   -2.6567 H   0  0  0  0  0  0  0  0  0  0  0  0
    2.3765    1.5417   -0.3149 H   0  0  0  0  0  0  0  0  0  0  0  0
    2.3687    3.5207    1.1333 H   0  0  0  0  0  0  0  0  0  0  0  0
    0.7751    5.2908    0.7592 H   0  0  0  0  0  0  0  0  0  0  0  0
   -0.8459    3.1192   -2.5315 H   0  0  0  0  0  0  0  0  0  0  0  0
   -1.9079    6.9038    0.1097 H   0  0  0  0  0  0  0  0  0  0  0  0
   -0.1295    6.9444   -0.0385 H   0  0  0  0  0  0  0  0  0  0  0  0
   -2.1177    4.6258   -2.7186 H   0  0  0  0  0  0  0  0  0  0  0  0
   -1.1264   -1.1514   -3.6299 H   0  0  0  0  0  0  0  0  0  0  0  0
    2.8005   -2.5780   -4.2021 H   0  0  0  0  0  0  0  0  0  0  0  0
    5.1889   -2.2858   -3.5752 H   0  0  0  0  0  0  0  0  0  0  0  0
    5.7375   -1.9136   -1.1827 H   0  0  0  0  0  0  0  0  0  0  0  0
    1.6425   -2.1333   -0.1218 H   0  0  0  0  0  0  0  0  0  0  0  0
    2.5109   -2.9141    1.6463 H   0  0  0  0  0  0  0  0  0  0  0  0
    3.1415   -2.5048    4.0002 H   0  0  0  0  0  0  0  0  0  0  0  0
    5.0938   -1.1334    4.5733 H   0  0  0  0  0  0  0  0  0  0  0  0
    6.4276   -0.1577    2.7439 H   0  0  0  0  0  0  0  0  0  0  0  0
    5.7816   -0.5726    0.3508 H   0  0  0  0  0  0  0  0  0  0  0  0
  1  2  1  0
  2  3  1  0
  3  4  1  0
  4  5  1  0
  5  6  1  0
  6  7  1  0
  7  8  1  0
  8  9  1  0
  7 10  1  0
 10 11  2  0
 10 12  1  0
 12 13  1  0
 13 14  1  0
 14 15  2  0
 15 16  1  0
 16 17  2  0
 17 18  1  0
 18 19  2  0
 18 20  1  0
 20 21  1  0
 20 22  2  3
 12 23  1  0
 23 24  1  0
 24 25  2  0
 24 26  2  0
 24 27  1  0
 27 28  2  0
 28 29  1  0
 29 30  2  0
 30 31  1  0
 31 32  2  0
 31 33  1  0
 33 34  2  0
 34 35  1  0
 35 36  2  0
 36 37  1  0
 37 38  2  0
  9  4  1  0
 19 14  1  0
 32 27  1  0
 38 33  1  0
  1 39  1  0
  1 40  1  0
  2 41  1  0
  2 42  1  0
  3 43  1  0
  3 44  1  0
  4 45  1  0
  5 46  1  0
  5 47  1  0
  6 48  1  0
  6 49  1  0
  8 50  1  0
  8 51  1  0
  9 52  1  0
  9 53  1  0
 12 54  1  1
 13 55  1  0
 13 56  1  0
 15 57  1  0
 16 58  1  0
 17 59  1  0
 19 60  1  0
 21 61  1  0
 21 62  1  0
 22 63  1  0
 23 64  1  0
 28 65  1  0
 29 66  1  0
 30 67  1  0
 32 68  1  0
 34 69  1  0
 35 70  1  0
 36 71  1  0
 37 72  1  0
 38 73  1  0
M  END
$$$$
[H]O[C@@]1(C([H])([H])[H])C([H])([H])[C@@]2([H])O[C@]1(C([H])([H])[H])n1c3c([H])c([H])c([H])c([H])c3c3c4c(c5c6c([H])c([H])c([H])c([H])c6n2c5c31)C(=O)N([H])C4([H])[H]
     RDKit          3D

 53 60  0  0  0  0  0  0  0  0999 V2000
    3.3643    0.4555   -1.4791 C   0  0  0  0  0  0  0  0  0  0  0  0
    2.1827    0.6452   -0.5177 C   0  0  2  0  0  0  0  0  0  0  0  0
    1.4251    1.6122   -1.2492 O   0  0  0  0  0  0  0  0  0  0  0  0
    0.7396    2.3981   -0.3836 C   0  0  2  0  0  0  0  0  0  0  0  0
    1.3593    2.2597    0.9841 C   0  0  0  0  0  0  0  0  0  0  0  0
    2.5544    1.4125    0.6719 C   0  0  1  0  0  0  0  0  0  0  0  0
    3.0403    0.6560    1.8544 C   0  0  0  0  0  0  0  0  0  0  0  0
    3.5890    2.3037    0.3004 O   0  0  0  0  0  0  0  0  0  0  0  0
   -0.5961    1.8158   -0.2735 N   0  0  0  0  0  0  0  0  0  0  0  0
   -1.7662    2.4745   -0.1943 C   0  0  0  0  0  0  0  0  0  0  0  0
   -1.9950    3.8508   -0.2172 C   0  0  0  0  0  0  0  0  0  0  0  0
   -3.2769    4.3351   -0.1232 C   0  0  0  0  0  0  0  0  0  0  0  0
   -4.3062    3.4385   -0.0083 C   0  0  0  0  0  0  0  0  0  0  0  0
   -4.0891    2.0612    0.0155 C   0  0  0  0  0  0  0  0  0  0  0  0
   -2.8228    1.5836   -0.0773 C   0  0  0  0  0  0  0  0  0  0  0  0
   -2.2535    0.3361   -0.0873 C   0  0  0  0  0  0  0  0  0  0  0  0
   -2.7484   -0.9406    0.0120 C   0  0  0  0  0  0  0  0  0  0  0  0
   -4.0936   -1.4667    0.1472 C   0  0  0  0  0  0  0  0  0  0  0  0
   -5.2133   -0.9124    0.2149 O   0  0  0  0  0  0  0  0  0  0  0  0
   -3.9374   -2.9049    0.1991 N   0  0  0  0  0  0  0  0  0  0  0  0
   -2.5585   -3.2665    0.1035 C   0  0  0  0  0  0  0  0  0  0  0  0
   -1.8322   -1.9884   -0.0168 C   0  0  0  0  0  0  0  0  0  0  0  0
   -0.4593   -1.8104   -0.1406 C   0  0  0  0  0  0  0  0  0  0  0  0
    0.6120   -2.6428   -0.1835 C   0  0  0  0  0  0  0  0  0  0  0  0
    0.6798   -4.0169   -0.1090 C   0  0  0  0  0  0  0  0  0  0  0  0
    1.9324   -4.5914   -0.1660 C   0  0  0  0  0  0  0  0  0  0  0  0
    3.0545   -3.8030   -0.2920 C   0  0  0  0  0  0  0  0  0  0  0  0
    2.9323   -2.4281   -0.3625 C   0  0  0  0  0  0  0  0  0  0  0  0
    1.7240   -1.8205   -0.3117 C   0  0  0  0  0  0  0  0  0  0  0  0
    1.3621   -0.5157   -0.3511 N   0  0  0  0  0  0  0  0  0  0  0  0
    0.0016   -0.5552   -0.2378 C   0  0  0  0  0  0  0  0  0  0  0  0
   -0.8929    0.5131   -0.2095 C   0  0  0  0  0  0  0  0  0  0  0  0
    3.1177   -0.3691   -2.1362 H   0  0  0  0  0  0  0  0  0  0  0  0
    3.5177    1.3385   -2.1456 H   0  0  0  0  0  0  0  0  0  0  0  0
    4.3180    0.3886   -0.9194 H   0  0  0  0  0  0  0  0  0  0  0  0
    0.6860    3.4547   -0.6601 H   0  0  0  0  0  0  0  0  0  0  0  0
    1.6479    3.2501    1.4076 H   0  0  0  0  0  0  0  0  0  0  0  0
    0.7316    1.6989    1.7045 H   0  0  0  0  0  0  0  0  0  0  0  0
    4.0002    0.1516    1.5629 H   0  0  0  0  0  0  0  0  0  0  0  0
    2.3248   -0.0288    2.3103 H   0  0  0  0  0  0  0  0  0  0  0  0
    3.3338    1.3992    2.6304 H   0  0  0  0  0  0  0  0  0  0  0  0
    3.3245    2.7317   -0.5742 H   0  0  0  0  0  0  0  0  0  0  0  0
   -1.1495    4.5166   -0.3093 H   0  0  0  0  0  0  0  0  0  0  0  0
   -3.4798    5.4163   -0.1391 H   0  0  0  0  0  0  0  0  0  0  0  0
   -5.3431    3.7672    0.0696 H   0  0  0  0  0  0  0  0  0  0  0  0
   -4.9160    1.4085    0.1052 H   0  0  0  0  0  0  0  0  0  0  0  0
   -4.7449   -3.5738    0.2946 H   0  0  0  0  0  0  0  0  0  0  0  0
   -2.4082   -3.8412   -0.8291 H   0  0  0  0  0  0  0  0  0  0  0  0
   -2.2875   -3.8390    1.0127 H   0  0  0  0  0  0  0  0  0  0  0  0
   -0.2272   -4.5741   -0.0115 H   0  0  0  0  0  0  0  0  0  0  0  0
    1.9746   -5.6722   -0.1069 H   0  0  0  0  0  0  0  0  0  0  0  0
    4.0488   -4.2739   -0.3362 H   0  0  0  0  0  0  0  0  0  0  0  0
    3.8186   -1.8376   -0.4418 H   0  0  0  0  0  0  0  0  0  0  0  0
  2  1  1  6
  2  3  1  0
  3  4  1  0
  4  5  1  0
  5  6  1  0
  6  7  1  0
  6  8  1  6
  4  9  1  0
  9 10  1  0
 10 11  2  0
 11 12  1  0
 12 13  2  0
 13 14  1  0
 14 15  2  0
 15 16  1  0
 16 17  2  0
 17 18  1  0
 18 19  2  0
 18 20  1  0
 20 21  1  0
 21 22  1  0
 22 23  2  0
 23 24  1  0
 24 25  2  0
 25 26  1  0
 26 27  2  0
 27 28  1  0
 28 29  2  0
 29 30  1  0
 30 31  1  0
 31 32  2  0
  6  2  1  0
 32  9  1  0
 30  2  1  0
 15 10  1  0
 32 16  1  0
 22 17  1  0
 31 23  1  0
 29 24  1  0
  1 33  1  0
  1 34  1  0
  1 35  1  0
  4 36  1  6
  5 37  1  0
  5 38  1  0
  7 39  1  0
  7 40  1  0
  7 41  1  0
  8 42  1  0
 11 43  1  0
 12 44  1  0
 13 45  1  0
 14 46  1  0
 20 47  1  0
 21 48  1  0
 21 49  1  0
 25 50  1  0
 26 51  1  0
 27 52  1  0
 28 53  1  0
M  END
$$$$
[H]c1c([H])c([H])c(C([H])([H])[C@@]2([H])C(=O)N([H])[C@@]([H])(C([H])([H])c3c([H])n([H])c4c([H])c([H])c([H])c([H])c34)C(=O)N([H])[C@]([H])(C([H])([H])c3c([H])n([H])c4c([H])c([H])c([H])c([H])c34)C(=O)N([H])[C@@]([H])(C([H])([H])C([H])([H])C([H])([H])C([H])([H])N([H])[H])C(=O)N([H])[C@@]([H])(C([H])(C([H])([H])[H])C([H])([H])[H])C(=O)N2[H])c([H])c1[H]
     RDKit          3D

105110  0  0  0  0  0  0  0  0999 V2000
    0.9907   -3.7156    0.0310 C   0  0  0  0  0  0  0  0  0  0  0  0
    0.9769   -4.0222   -1.4151 C   0  0  0  0  0  0  0  0  0  0  0  0
    2.1949   -4.9521   -1.6155 C   0  0  0  0  0  0  0  0  0  0  0  0
    1.1431   -2.9159   -2.3854 C   0  0  2  0  0  0  0  0  0  0  0  0
    2.4287   -2.2661   -2.1198 N   0  0  0  0  0  0  0  0  0  0  0  0
    2.9040   -1.0050   -1.9622 C   0  0  0  0  0  0  0  0  0  0  0  0
    3.6412   -0.5927   -2.9619 O   0  0  0  0  0  0  0  0  0  0  0  0
    2.7888    0.0467   -0.9032 C   0  0  2  0  0  0  0  0  0  0  0  0
    3.3752   -0.4332    0.4553 C   0  0  0  0  0  0  0  0  0  0  0  0
    4.8070   -0.7723    0.3063 C   0  0  0  0  0  0  0  0  0  0  0  0
    5.5635   -1.2981    1.4475 C   0  0  0  0  0  0  0  0  0  0  0  0
    5.6547   -0.4270    2.6370 C   0  0  0  0  0  0  0  0  0  0  0  0
    4.3827   -0.1584    3.2345 N   0  0  0  0  0  0  0  0  0  0  0  0
    1.4403    0.4272   -0.6408 N   0  0  0  0  0  0  0  0  0  0  0  0
    0.6709    1.5786   -0.6254 C   0  0  0  0  0  0  0  0  0  0  0  0
    0.0021    1.9188   -1.7153 O   0  0  0  0  0  0  0  0  0  0  0  0
    0.3852    2.5972    0.3919 C   0  0  1  0  0  0  0  0  0  0  0  0
    0.9734    3.9645    0.1758 C   0  0  0  0  0  0  0  0  0  0  0  0
    2.4060    4.0960    0.1041 C   0  0  0  0  0  0  0  0  0  0  0  0
    3.2138    4.3555    1.1909 C   0  0  0  0  0  0  0  0  0  0  0  0
    4.4757    4.3713    0.7617 N   0  0  0  0  0  0  0  0  0  0  0  0
    4.5504    4.1353   -0.5611 C   0  0  0  0  0  0  0  0  0  0  0  0
    5.6053    4.0650   -1.4462 C   0  0  0  0  0  0  0  0  0  0  0  0
    5.4000    3.8187   -2.7939 C   0  0  0  0  0  0  0  0  0  0  0  0
    4.1055    3.6447   -3.2305 C   0  0  0  0  0  0  0  0  0  0  0  0
    3.0629    3.7174   -2.3330 C   0  0  0  0  0  0  0  0  0  0  0  0
    3.2322    3.9608   -0.9785 C   0  0  0  0  0  0  0  0  0  0  0  0
   -1.0924    2.7373    0.5718 N   0  0  0  0  0  0  0  0  0  0  0  0
   -2.1358    2.1880   -0.1271 C   0  0  0  0  0  0  0  0  0  0  0  0
   -2.7676    3.0314   -0.9147 O   0  0  0  0  0  0  0  0  0  0  0  0
   -2.7638    0.8810   -0.2441 C   0  0  2  0  0  0  0  0  0  0  0  0
   -4.1524    0.7768    0.3866 C   0  0  0  0  0  0  0  0  0  0  0  0
   -4.1911    1.0170    1.8298 C   0  0  0  0  0  0  0  0  0  0  0  0
   -4.0947    0.0099    2.7906 C   0  0  0  0  0  0  0  0  0  0  0  0
   -4.1106    0.5126    4.0274 N   0  0  0  0  0  0  0  0  0  0  0  0
   -4.2167    1.8347    3.8984 C   0  0  0  0  0  0  0  0  0  0  0  0
   -4.2835    2.7782    4.9075 C   0  0  0  0  0  0  0  0  0  0  0  0
   -4.4100    4.1273    4.5834 C   0  0  0  0  0  0  0  0  0  0  0  0
   -4.4648    4.4689    3.2466 C   0  0  0  0  0  0  0  0  0  0  0  0
   -4.3959    3.5113    2.2596 C   0  0  0  0  0  0  0  0  0  0  0  0
   -4.2691    2.1732    2.5541 C   0  0  0  0  0  0  0  0  0  0  0  0
   -2.0443   -0.2329    0.2924 N   0  0  0  0  0  0  0  0  0  0  0  0
   -2.2190   -1.5510   -0.2010 C   0  0  0  0  0  0  0  0  0  0  0  0
   -2.3460   -2.5215    0.6406 O   0  0  0  0  0  0  0  0  0  0  0  0
   -2.2677   -1.9294   -1.6308 C   0  0  2  0  0  0  0  0  0  0  0  0
   -2.8360   -3.2479   -1.9523 C   0  0  0  0  0  0  0  0  0  0  0  0
   -4.2057   -3.5349   -1.5995 C   0  0  0  0  0  0  0  0  0  0  0  0
   -5.2339   -3.0414   -2.4103 C   0  0  0  0  0  0  0  0  0  0  0  0
   -6.5544   -3.3128   -2.1470 C   0  0  0  0  0  0  0  0  0  0  0  0
   -6.9102   -4.0862   -1.0671 C   0  0  0  0  0  0  0  0  0  0  0  0
   -5.9219   -4.5818   -0.2582 C   0  0  0  0  0  0  0  0  0  0  0  0
   -4.5848   -4.2983   -0.5382 C   0  0  0  0  0  0  0  0  0  0  0  0
   -1.1099   -1.5445   -2.3593 N   0  0  0  0  0  0  0  0  0  0  0  0
    0.0447   -2.1197   -2.8552 C   0  0  0  0  0  0  0  0  0  0  0  0
    0.1579   -1.8440   -4.1441 O   0  0  0  0  0  0  0  0  0  0  0  0
    2.0127   -3.8513    0.5043 H   0  0  0  0  0  0  0  0  0  0  0  0
    0.6237   -2.7132    0.2625 H   0  0  0  0  0  0  0  0  0  0  0  0
    0.2997   -4.4227    0.5534 H   0  0  0  0  0  0  0  0  0  0  0  0
    0.1198   -4.6996   -1.6614 H   0  0  0  0  0  0  0  0  0  0  0  0
    3.0073   -4.6993   -0.9020 H   0  0  0  0  0  0  0  0  0  0  0  0
    1.8736   -6.0137   -1.4602 H   0  0  0  0  0  0  0  0  0  0  0  0
    2.4769   -4.8820   -2.6769 H   0  0  0  0  0  0  0  0  0  0  0  0
    1.3378   -3.5878   -3.3482 H   0  0  0  0  0  0  0  0  0  0  0  0
    3.1832   -3.0524   -2.0557 H   0  0  0  0  0  0  0  0  0  0  0  0
    3.4880    0.8921   -1.1123 H   0  0  0  0  0  0  0  0  0  0  0  0
    3.2573    0.4070    1.1767 H   0  0  0  0  0  0  0  0  0  0  0  0
    2.7882   -1.2975    0.7665 H   0  0  0  0  0  0  0  0  0  0  0  0
    5.3746    0.1250   -0.1074 H   0  0  0  0  0  0  0  0  0  0  0  0
    4.9418   -1.5216   -0.5440 H   0  0  0  0  0  0  0  0  0  0  0  0
    5.2217   -2.3422    1.7090 H   0  0  0  0  0  0  0  0  0  0  0  0
    6.6267   -1.4742    1.0690 H   0  0  0  0  0  0  0  0  0  0  0  0
    6.3816   -0.8560    3.3837 H   0  0  0  0  0  0  0  0  0  0  0  0
    6.1121    0.5577    2.3657 H   0  0  0  0  0  0  0  0  0  0  0  0
    4.1640   -0.7990    4.0060 H   0  0  0  0  0  0  0  0  0  0  0  0
    4.2988    0.8322    3.5606 H   0  0  0  0  0  0  0  0  0  0  0  0
    0.8773   -0.4762   -0.4155 H   0  0  0  0  0  0  0  0  0  0  0  0
    0.7557    2.3318    1.4341 H   0  0  0  0  0  0  0  0  0  0  0  0
    0.4792    4.3538   -0.7755 H   0  0  0  0  0  0  0  0  0  0  0  0
    0.6000    4.6651    0.9654 H   0  0  0  0  0  0  0  0  0  0  0  0
    2.8802    4.5133    2.1884 H   0  0  0  0  0  0  0  0  0  0  0  0
    5.3509    4.5405    1.3266 H   0  0  0  0  0  0  0  0  0  0  0  0
    6.6176    4.2052   -1.0850 H   0  0  0  0  0  0  0  0  0  0  0  0
    6.2489    3.7694   -3.4615 H   0  0  0  0  0  0  0  0  0  0  0  0
    3.9505    3.4538   -4.2794 H   0  0  0  0  0  0  0  0  0  0  0  0
    2.0512    3.5895   -2.6928 H   0  0  0  0  0  0  0  0  0  0  0  0
   -1.3034    3.3856    1.3699 H   0  0  0  0  0  0  0  0  0  0  0  0
   -2.9255    0.6628   -1.3293 H   0  0  0  0  0  0  0  0  0  0  0  0
   -4.5676   -0.2432    0.1398 H   0  0  0  0  0  0  0  0  0  0  0  0
   -4.8646    1.4716   -0.1529 H   0  0  0  0  0  0  0  0  0  0  0  0
   -4.0173   -1.0335    2.5657 H   0  0  0  0  0  0  0  0  0  0  0  0
   -4.0503   -0.0333    4.9280 H   0  0  0  0  0  0  0  0  0  0  0  0
   -4.2449    2.5449    5.9508 H   0  0  0  0  0  0  0  0  0  0  0  0
   -4.4640    4.8890    5.3545 H   0  0  0  0  0  0  0  0  0  0  0  0
   -4.5652    5.5245    2.9765 H   0  0  0  0  0  0  0  0  0  0  0  0
   -4.4541    3.7586    1.2150 H   0  0  0  0  0  0  0  0  0  0  0  0
   -1.3507   -0.1010    1.0896 H   0  0  0  0  0  0  0  0  0  0  0  0
   -3.1193   -1.2211   -2.0107 H   0  0  0  0  0  0  0  0  0  0  0  0
   -2.7485   -3.3741   -3.0754 H   0  0  0  0  0  0  0  0  0  0  0  0
   -2.1558   -4.0393   -1.5538 H   0  0  0  0  0  0  0  0  0  0  0  0
   -4.9840   -2.4356   -3.2588 H   0  0  0  0  0  0  0  0  0  0  0  0
   -7.3605   -2.9341   -2.7696 H   0  0  0  0  0  0  0  0  0  0  0  0
   -7.9638   -4.3112   -0.8435 H   0  0  0  0  0  0  0  0  0  0  0  0
   -6.2226   -5.1880    0.5873 H   0  0  0  0  0  0  0  0  0  0  0  0
   -3.8682   -4.7378    0.1210 H   0  0  0  0  0  0  0  0  0  0  0  0
   -1.1661   -0.4730   -2.5862 H   0  0  0  0  0  0  0  0  0  0  0  0
  1  2  1  0
  2  3  1  0
  2  4  1  0
  4  5  1  0
  5  6  1  0
  6  7  2  0
  6  8  1  0
  8  9  1  0
  9 10  1  0
 10 11  1  0
 11 12  1  0
 12 13  1  0
  8 14  1  0
 14 15  1  0
 15 16  2  0
 15 17  1  0
 17 18  1  0
 18 19  1  0
 19 20  2  0
 20 21  1  0
 21 22  1  0
 22 23  2  0
 23 24  1  0
 24 25  2  0
 25 26  1  0
 26 27  2  0
 17 28  1  0
 28 29  1  0
 29 30  2  0
 29 31  1  0
 31 32  1  0
 32 33  1  0
 33 34  2  0
 34 35  1  0
 35 36  1  0
 36 37  2  0
 37 38  1  0
 38 39  2  0
 39 40  1  0
 40 41  2  0
 31 42  1  0
 42 43  1  0
 43 44  2  0
 43 45  1  0
 45 46  1  0
 46 47  1  0
 47 48  2  0
 48 49  1  0
 49 50  2  0
 50 51  1  0
 51 52  2  0
 45 53  1  0
 53 54  1  0
 54 55  2  0
 54  4  1  0
 27 19  1  0
 41 33  1  0
 52 47  1  0
 27 22  1  0
 41 36  1  0
  1 56  1  0
  1 57  1  0
  1 58  1  0
  2 59  1  0
  3 60  1  0
  3 61  1  0
  3 62  1  0
  4 63  1  6
  5 64  1  0
  8 65  1  6
  9 66  1  0
  9 67  1  0
 10 68  1  0
 10 69  1  0
 11 70  1  0
 11 71  1  0
 12 72  1  0
 12 73  1  0
 13 74  1  0
 13 75  1  0
 14 76  1  0
 17 77  1  1
 18 78  1  0
 18 79  1  0
 20 80  1  0
 21 81  1  0
 23 82  1  0
 24 83  1  0
 25 84  1  0
 26 85  1  0
 28 86  1  0
 31 87  1  6
 32 88  1  0
 32 89  1  0
 34 90  1  0
 35 91  1  0
 37 92  1  0
 38 93  1  0
 39 94  1  0
 40 95  1  0
 42 96  1  0
 45 97  1  6
 46 98  1  0
 46 99  1  0
 48100  1  0
 49101  1  0
 50102  1  0
 51103  1  0
 52104  1  0
 53105  1  0
M  END
$$$$
[H]c1nc(C(F)(F)C([H])([H])[H])c([H])c(C(=O)N([H])c2c([H])nc(C([H])([H])[H])c(-c3c([H])nc(OC([H])([H])C([H])([H])[H])c(N4C([H])([H])C([H])([H])OC([H])([H])C4([H])[H])c3[H])c2[H])c1[H]
     RDKit          3D

 62 65  0  0  0  0  0  0  0  0999 V2000
   -7.4405   -3.1316   -0.0805 C   0  0  0  0  0  0  0  0  0  0  0  0
   -5.9201   -3.2763   -0.1442 C   0  0  0  0  0  0  0  0  0  0  0  0
   -5.2790   -2.0746   -0.0252 O   0  0  0  0  0  0  0  0  0  0  0  0
   -3.9824   -1.6878   -0.0292 C   0  0  0  0  0  0  0  0  0  0  0  0
   -2.8981   -2.4588   -0.1623 N   0  0  0  0  0  0  0  0  0  0  0  0
   -1.6244   -1.9797   -0.1695 C   0  0  0  0  0  0  0  0  0  0  0  0
   -1.3642   -0.6575   -0.0363 C   0  0  0  0  0  0  0  0  0  0  0  0
   -2.4962    0.1794    0.1153 C   0  0  0  0  0  0  0  0  0  0  0  0
   -3.7645   -0.3041    0.1170 C   0  0  0  0  0  0  0  0  0  0  0  0
   -4.8928    0.5837    0.1601 N   0  0  0  0  0  0  0  0  0  0  0  0
   -5.6841    0.6833   -1.0328 C   0  0  0  0  0  0  0  0  0  0  0  0
   -6.4560    1.9726   -1.1600 C   0  0  0  0  0  0  0  0  0  0  0  0
   -6.1541    2.8648   -0.1325 O   0  0  0  0  0  0  0  0  0  0  0  0
   -6.2959    2.3052    1.1184 C   0  0  0  0  0  0  0  0  0  0  0  0
   -5.1678    1.3172    1.3355 C   0  0  0  0  0  0  0  0  0  0  0  0
   -0.0769    0.0206   -0.2021 C   0  0  0  0  0  0  0  0  0  0  0  0
    1.0657   -0.1914    0.4929 C   0  0  0  0  0  0  0  0  0  0  0  0
    2.1775    0.5557    0.2523 C   0  0  0  0  0  0  0  0  0  0  0  0
    3.4504    0.5665    0.8506 N   0  0  0  0  0  0  0  0  0  0  0  0
    4.5090   -0.0118    0.1092 C   0  0  0  0  0  0  0  0  0  0  0  0
    4.3601   -0.6345   -0.9874 O   0  0  0  0  0  0  0  0  0  0  0  0
    5.9042    0.1095    0.5831 C   0  0  0  0  0  0  0  0  0  0  0  0
    6.2072    0.8492    1.6941 C   0  0  0  0  0  0  0  0  0  0  0  0
    7.5456    1.1250    1.9609 C   0  0  0  0  0  0  0  0  0  0  0  0
    8.5396    0.6939    1.1730 N   0  0  0  0  0  0  0  0  0  0  0  0
    8.2775   -0.0392    0.0798 C   0  0  0  0  0  0  0  0  0  0  0  0
    6.9501   -0.3409   -0.2264 C   0  0  0  0  0  0  0  0  0  0  0  0
    9.4013   -0.4255   -0.7900 C   0  0  0  0  0  0  0  0  0  0  0  0
   10.5896   -0.8455    0.0429 C   0  0  0  0  0  0  0  0  0  0  0  0
    9.0758   -1.4404   -1.6323 F   0  0  0  0  0  0  0  0  0  0  0  0
    9.7188    0.6928   -1.5698 F   0  0  0  0  0  0  0  0  0  0  0  0
    2.1294    1.5904   -0.7664 C   0  0  0  0  0  0  0  0  0  0  0  0
    1.0159    1.7410   -1.3920 N   0  0  0  0  0  0  0  0  0  0  0  0
   -0.0943    1.0439   -1.1988 C   0  0  0  0  0  0  0  0  0  0  0  0
   -1.2446    1.3131   -2.0514 C   0  0  0  0  0  0  0  0  0  0  0  0
   -7.8586   -3.6484   -0.9545 H   0  0  0  0  0  0  0  0  0  0  0  0
   -7.8561   -3.6144    0.8328 H   0  0  0  0  0  0  0  0  0  0  0  0
   -7.6988   -2.0473   -0.0642 H   0  0  0  0  0  0  0  0  0  0  0  0
   -5.6457   -4.0443    0.6012 H   0  0  0  0  0  0  0  0  0  0  0  0
   -5.6550   -3.7391   -1.1404 H   0  0  0  0  0  0  0  0  0  0  0  0
   -0.8010   -2.6964   -0.2919 H   0  0  0  0  0  0  0  0  0  0  0  0
   -2.3165    1.2258    0.2680 H   0  0  0  0  0  0  0  0  0  0  0  0
   -6.4136   -0.1572   -1.1290 H   0  0  0  0  0  0  0  0  0  0  0  0
   -4.9559    0.6426   -1.9000 H   0  0  0  0  0  0  0  0  0  0  0  0
   -6.1522    2.4739   -2.0901 H   0  0  0  0  0  0  0  0  0  0  0  0
   -7.5591    1.7732   -1.2540 H   0  0  0  0  0  0  0  0  0  0  0  0
   -7.2488    1.8179    1.3154 H   0  0  0  0  0  0  0  0  0  0  0  0
   -6.1706    3.1171    1.8728 H   0  0  0  0  0  0  0  0  0  0  0  0
   -5.4184    0.6808    2.2137 H   0  0  0  0  0  0  0  0  0  0  0  0
   -4.2508    1.9304    1.5696 H   0  0  0  0  0  0  0  0  0  0  0  0
    1.0977   -0.9678    1.2609 H   0  0  0  0  0  0  0  0  0  0  0  0
    3.5987    0.9722    1.7707 H   0  0  0  0  0  0  0  0  0  0  0  0
    5.4549    1.2149    2.3818 H   0  0  0  0  0  0  0  0  0  0  0  0
    7.8201    1.7072    2.8372 H   0  0  0  0  0  0  0  0  0  0  0  0
    6.7079   -0.9377   -1.0807 H   0  0  0  0  0  0  0  0  0  0  0  0
   10.2827   -1.2579    1.0118 H   0  0  0  0  0  0  0  0  0  0  0  0
   11.1632   -1.6962   -0.4592 H   0  0  0  0  0  0  0  0  0  0  0  0
   11.2561    0.0631    0.1399 H   0  0  0  0  0  0  0  0  0  0  0  0
    3.0213    2.1689   -0.9371 H   0  0  0  0  0  0  0  0  0  0  0  0
   -1.8021    2.2081   -1.7197 H   0  0  0  0  0  0  0  0  0  0  0  0
   -1.8636    0.4499   -2.3351 H   0  0  0  0  0  0  0  0  0  0  0  0
   -0.8174    1.6523   -3.0685 H   0  0  0  0  0  0  0  0  0  0  0  0
  1  2  1  0
  2  3  1  0
  3  4  1  0
  4  5  2  0
  5  6  1  0
  6  7  2  0
  7  8  1  0
  8  9  2  0
  9 10  1  0
 10 11  1  0
 11 12  1  0
 12 13  1  0
 13 14  1  0
 14 15  1  0
  7 16  1  0
 16 17  2  0
 17 18  1  0
 18 19  1  0
 19 20  1  0
 20 21  2  0
 20 22  1  0
 22 23  2  0
 23 24  1  0
 24 25  2  0
 25 26  1  0
 26 27  2  0
 26 28  1  0
 28 29  1  0
 28 30  1  0
 28 31  1  0
 18 32  2  0
 32 33  1  0
 33 34  2  0
 34 35  1  0
  9  4  1  0
 15 10  1  0
 34 16  1  0
 27 22  1  0
  1 36  1  0
  1 37  1  0
  1 38  1  0
  2 39  1  0
  2 40  1  0
  6 41  1  0
  8 42  1  0
 11 43  1  0
 11 44  1  0
 12 45  1  0
 12 46  1  0
 14 47  1  0
 14 48  1  0
 15 49  1  0
 15 50  1  0
 17 51  1  0
 19 52  1  0
 23 53  1  0
 24 54  1  0
 27 55  1  0
 29 56  1  0
 29 57  1  0
 29 58  1  0
 32 59  1  0
 35 60  1  0
 35 61  1  0
 35 62  1  0
M  END
$$$$
[H]ON(C([H])=O)C([H])([H])[C@]([H])(C(=O)N1C([H])([H])C([H])([H])C([H])([H])[C@@]1([H])C(=O)N1C([H])([H])C([H])([H])C([H])([H])[C@@]1([H])C(=O)N([H])C1([H])C([H])([H])C([H])([H])OC([H])([H])C1([H])[H])C([H])([H])C1([H])C([H])([H])C([H])([H])C([H])([H])C1([H])[H]
     RDKit          3D

 75 78  0  0  0  0  0  0  0  0999 V2000
   -5.4114   -2.8261    0.9592 O   0  0  0  0  0  0  0  0  0  0  0  0
   -4.3991   -2.7339    0.1064 N   0  0  0  0  0  0  0  0  0  0  0  0
   -4.1060   -1.5789   -0.6787 C   0  0  0  0  0  0  0  0  0  0  0  0
   -3.2207   -0.5573   -0.1188 C   0  0  1  0  0  0  0  0  0  0  0  0
   -3.5461    0.2136    1.0949 C   0  0  0  0  0  0  0  0  0  0  0  0
   -4.6864    1.1642    1.0683 C   0  0  0  0  0  0  0  0  0  0  0  0
   -6.0506    0.6808    0.7776 C   0  0  0  0  0  0  0  0  0  0  0  0
   -6.9653    1.7613    1.4027 C   0  0  0  0  0  0  0  0  0  0  0  0
   -6.1926    2.3657    2.5237 C   0  0  0  0  0  0  0  0  0  0  0  0
   -4.8117    1.8431    2.4587 C   0  0  0  0  0  0  0  0  0  0  0  0
   -1.7530   -0.9472   -0.0698 C   0  0  0  0  0  0  0  0  0  0  0  0
   -1.3645   -1.3907    1.0502 O   0  0  0  0  0  0  0  0  0  0  0  0
   -0.9055   -0.8225   -1.1922 N   0  0  0  0  0  0  0  0  0  0  0  0
   -1.2616   -0.2943   -2.4856 C   0  0  0  0  0  0  0  0  0  0  0  0
   -0.3908   -1.0494   -3.4879 C   0  0  0  0  0  0  0  0  0  0  0  0
    0.3941   -2.0198   -2.6216 C   0  0  0  0  0  0  0  0  0  0  0  0
    0.4576   -1.2291   -1.3012 C   0  0  1  0  0  0  0  0  0  0  0  0
    1.5076   -0.2302   -1.3830 C   0  0  0  0  0  0  0  0  0  0  0  0
    2.5258   -0.5735   -2.1296 O   0  0  0  0  0  0  0  0  0  0  0  0
    1.5744    1.0419   -0.7686 N   0  0  0  0  0  0  0  0  0  0  0  0
    0.5588    1.5933    0.0844 C   0  0  0  0  0  0  0  0  0  0  0  0
    1.0582    2.9184    0.6206 C   0  0  0  0  0  0  0  0  0  0  0  0
    2.4807    2.9619    0.2743 C   0  0  0  0  0  0  0  0  0  0  0  0
    2.6298    1.9971   -0.8953 C   0  0  1  0  0  0  0  0  0  0  0  0
    4.0046    1.4940   -0.7894 C   0  0  0  0  0  0  0  0  0  0  0  0
    4.9114    2.2089   -1.3684 O   0  0  0  0  0  0  0  0  0  0  0  0
    4.4823    0.3523   -0.1470 N   0  0  0  0  0  0  0  0  0  0  0  0
    5.8755   -0.0313   -0.1151 C   0  0  0  0  0  0  0  0  0  0  0  0
    6.0092   -1.3720   -0.7950 C   0  0  0  0  0  0  0  0  0  0  0  0
    7.4625   -1.8105   -0.7862 C   0  0  0  0  0  0  0  0  0  0  0  0
    8.2257   -0.7785   -0.2922 O   0  0  0  0  0  0  0  0  0  0  0  0
    7.9505   -0.4940    1.0416 C   0  0  0  0  0  0  0  0  0  0  0  0
    6.4673   -0.1593    1.2479 C   0  0  0  0  0  0  0  0  0  0  0  0
   -3.5643   -3.8896   -0.0146 C   0  0  0  0  0  0  0  0  0  0  0  0
   -2.6020   -3.8764   -0.8177 O   0  0  0  0  0  0  0  0  0  0  0  0
   -5.2355   -3.2561    1.8113 H   0  0  0  0  0  0  0  0  0  0  0  0
   -3.6058   -1.9447   -1.6491 H   0  0  0  0  0  0  0  0  0  0  0  0
   -5.0400   -1.1074   -1.0806 H   0  0  0  0  0  0  0  0  0  0  0  0
   -3.2463    0.2859   -0.9586 H   0  0  0  0  0  0  0  0  0  0  0  0
   -2.5994    0.7732    1.4207 H   0  0  0  0  0  0  0  0  0  0  0  0
   -3.7136   -0.4642    1.9960 H   0  0  0  0  0  0  0  0  0  0  0  0
   -4.4404    2.0312    0.3446 H   0  0  0  0  0  0  0  0  0  0  0  0
   -6.3357   -0.2745    1.2202 H   0  0  0  0  0  0  0  0  0  0  0  0
   -6.2584    0.6617   -0.3259 H   0  0  0  0  0  0  0  0  0  0  0  0
   -7.9339    1.3445    1.6958 H   0  0  0  0  0  0  0  0  0  0  0  0
   -7.1595    2.5330    0.6025 H   0  0  0  0  0  0  0  0  0  0  0  0
   -6.1871    3.4916    2.4083 H   0  0  0  0  0  0  0  0  0  0  0  0
   -6.6982    2.1164    3.5103 H   0  0  0  0  0  0  0  0  0  0  0  0
   -4.0875    2.6732    2.4573 H   0  0  0  0  0  0  0  0  0  0  0  0
   -4.5803    1.0979    3.2529 H   0  0  0  0  0  0  0  0  0  0  0  0
   -1.0423    0.8005   -2.5644 H   0  0  0  0  0  0  0  0  0  0  0  0
   -2.3003   -0.4150   -2.7883 H   0  0  0  0  0  0  0  0  0  0  0  0
   -1.0203   -1.5710   -4.2352 H   0  0  0  0  0  0  0  0  0  0  0  0
    0.2904   -0.3727   -4.0158 H   0  0  0  0  0  0  0  0  0  0  0  0
   -0.1818   -2.9349   -2.3880 H   0  0  0  0  0  0  0  0  0  0  0  0
    1.4163   -2.1901   -2.9620 H   0  0  0  0  0  0  0  0  0  0  0  0
    0.7382   -1.9512   -0.4747 H   0  0  0  0  0  0  0  0  0  0  0  0
   -0.4068    1.7583   -0.4444 H   0  0  0  0  0  0  0  0  0  0  0  0
    0.4680    0.9210    0.9587 H   0  0  0  0  0  0  0  0  0  0  0  0
    0.4833    3.7492    0.1149 H   0  0  0  0  0  0  0  0  0  0  0  0
    0.9019    2.9881    1.7310 H   0  0  0  0  0  0  0  0  0  0  0  0
    3.0698    2.5364    1.1435 H   0  0  0  0  0  0  0  0  0  0  0  0
    2.8816    3.9671    0.0239 H   0  0  0  0  0  0  0  0  0  0  0  0
    2.4791    2.6287   -1.8059 H   0  0  0  0  0  0  0  0  0  0  0  0
    3.8268   -0.2775    0.3594 H   0  0  0  0  0  0  0  0  0  0  0  0
    6.5085    0.6955   -0.6867 H   0  0  0  0  0  0  0  0  0  0  0  0
    5.3730   -2.0852   -0.2109 H   0  0  0  0  0  0  0  0  0  0  0  0
    5.5776   -1.2990   -1.8028 H   0  0  0  0  0  0  0  0  0  0  0  0
    7.7294   -2.0566   -1.8332 H   0  0  0  0  0  0  0  0  0  0  0  0
    7.5213   -2.7449   -0.1940 H   0  0  0  0  0  0  0  0  0  0  0  0
    8.2139   -1.3520    1.6673 H   0  0  0  0  0  0  0  0  0  0  0  0
    8.5846    0.3664    1.3622 H   0  0  0  0  0  0  0  0  0  0  0  0
    6.0013   -1.0259    1.7679 H   0  0  0  0  0  0  0  0  0  0  0  0
    6.4078    0.7669    1.8512 H   0  0  0  0  0  0  0  0  0  0  0  0
   -3.7444   -4.7961    0.5817 H   0  0  0  0  0  0  0  0  0  0  0  0
  1  2  1  0
  2  3  1  0
  3  4  1  0
  4  5  1  0
  5  6  1  0
  6  7  1  0
  7  8  1  0
  8  9  1  0
  9 10  1  0
  4 11  1  0
 11 12  2  0
 11 13  1  0
 13 14  1  0
 14 15  1  0
 15 16  1  0
 16 17  1  0
 17 18  1  0
 18 19  2  0
 18 20  1  0
 20 21  1  0
 21 22  1  0
 22 23  1  0
 23 24  1  0
 24 25  1  0
 25 26  2  0
 25 27  1  0
 27 28  1  0
 28 29  1  0
 29 30  1  0
 30 31  1  0
 31 32  1  0
 32 33  1  0
  2 34  1  0
 34 35  2  0
 10  6  1  0
 17 13  1  0
 24 20  1  0
 33 28  1  0
  1 36  1  0
  3 37  1  0
  3 38  1  0
  4 39  1  6
  5 40  1  0
  5 41  1  0
  6 42  1  0
  7 43  1  0
  7 44  1  0
  8 45  1  0
  8 46  1  0
  9 47  1  0
  9 48  1  0
 10 49  1  0
 10 50  1  0
 14 51  1  0
 14 52  1  0
 15 53  1  0
 15 54  1  0
 16 55  1  0
 16 56  1  0
 17 57  1  1
 21 58  1  0
 21 59  1  0
 22 60  1  0
 22 61  1  0
 23 62  1  0
 23 63  1  0
 24 64  1  6
 27 65  1  0
 28 66  1  0
 29 67  1  0
 29 68  1  0
 30 69  1  0
 30 70  1  0
 32 71  1  0
 32 72  1  0
 33 73  1  0
 33 74  1  0
 34 75  1  0
M  END
$$$$
[H]c1c([H])c([H])c(C([H])([H])[C@@]2([H])C(=O)N3C([H])([H])C([H])([H])C([H])([H])[C@@]3([H])C(=O)N([H])[C@@]([H])(C([H])([H])c3c([H])c([H])c([H])c([H])c3[H])C(=O)N([H])[C@@]([H])([C@@]([H])(C([H])([H])[H])C([H])([H])C([H])([H])[H])C(=O)N([H])[C@@]([H])(C([H])([H])c3nc([H])n([H])c3[H])C(=O)N2[H])c([H])c1[H]
     RDKit          3D

 90 94  0  0  0  0  0  0  0  0999 V2000
   -3.5413   -5.3350    1.2173 C   0  0  0  0  0  0  0  0  0  0  0  0
   -2.6637   -4.2517    0.5705 C   0  0  0  0  0  0  0  0  0  0  0  0
   -2.6827   -3.0686    1.4662 C   0  0  2  0  0  0  0  0  0  0  0  0
   -4.0355   -2.4762    1.7011 C   0  0  0  0  0  0  0  0  0  0  0  0
   -1.6344   -1.9974    1.1042 C   0  0  2  0  0  0  0  0  0  0  0  0
   -1.9355   -1.5854   -0.2120 N   0  0  0  0  0  0  0  0  0  0  0  0
   -2.0461   -0.2917   -0.7390 C   0  0  0  0  0  0  0  0  0  0  0  0
   -1.5885   -0.0936   -1.9031 O   0  0  0  0  0  0  0  0  0  0  0  0
   -2.6517    0.9057   -0.0839 C   0  0  2  0  0  0  0  0  0  0  0  0
   -3.4057    1.7115   -1.1080 C   0  0  0  0  0  0  0  0  0  0  0  0
   -4.0628    2.9206   -0.6580 C   0  0  0  0  0  0  0  0  0  0  0  0
   -5.3419    2.8449   -0.1035 C   0  0  0  0  0  0  0  0  0  0  0  0
   -6.0276    3.9566    0.3101 C   0  0  0  0  0  0  0  0  0  0  0  0
   -5.4492    5.1872    0.1801 C   0  0  0  0  0  0  0  0  0  0  0  0
   -4.1878    5.3148   -0.3613 C   0  0  0  0  0  0  0  0  0  0  0  0
   -3.5139    4.1737   -0.7725 C   0  0  0  0  0  0  0  0  0  0  0  0
   -1.8226    1.5711    0.8529 N   0  0  0  0  0  0  0  0  0  0  0  0
   -0.8385    2.5229    0.8925 C   0  0  0  0  0  0  0  0  0  0  0  0
   -1.1183    3.5024    1.7477 O   0  0  0  0  0  0  0  0  0  0  0  0
    0.4500    2.8090    0.2863 C   0  0  2  0  0  0  0  0  0  0  0  0
    0.4620    4.3170   -0.0869 C   0  0  0  0  0  0  0  0  0  0  0  0
    0.7785    4.3916   -1.5483 C   0  0  0  0  0  0  0  0  0  0  0  0
    0.4500    2.9742   -1.9808 C   0  0  0  0  0  0  0  0  0  0  0  0
    0.9402    2.1591   -0.8490 N   0  0  0  0  0  0  0  0  0  0  0  0
    1.7506    1.0319   -0.9068 C   0  0  0  0  0  0  0  0  0  0  0  0
    1.7308    0.2902   -1.9165 O   0  0  0  0  0  0  0  0  0  0  0  0
    2.6973    0.6028    0.1838 C   0  0  2  0  0  0  0  0  0  0  0  0
    3.7944    1.6861    0.1372 C   0  0  0  0  0  0  0  0  0  0  0  0
    4.8608    1.5420    1.1083 C   0  0  0  0  0  0  0  0  0  0  0  0
    6.0677    0.9222    0.8867 C   0  0  0  0  0  0  0  0  0  0  0  0
    7.0460    0.8172    1.8511 C   0  0  0  0  0  0  0  0  0  0  0  0
    6.8412    1.3459    3.1078 C   0  0  0  0  0  0  0  0  0  0  0  0
    5.6456    1.9701    3.3570 C   0  0  0  0  0  0  0  0  0  0  0  0
    4.7028    2.0557    2.3828 C   0  0  0  0  0  0  0  0  0  0  0  0
    3.2481   -0.6993   -0.0323 N   0  0  0  0  0  0  0  0  0  0  0  0
    2.8027   -1.8610   -0.6553 C   0  0  0  0  0  0  0  0  0  0  0  0
    3.4915   -2.2577   -1.6575 O   0  0  0  0  0  0  0  0  0  0  0  0
    1.6389   -2.7177   -0.3209 C   0  0  2  0  0  0  0  0  0  0  0  0
    0.7922   -3.1423   -1.4197 C   0  0  0  0  0  0  0  0  0  0  0  0
    1.4982   -3.9559   -2.4313 C   0  0  0  0  0  0  0  0  0  0  0  0
    1.7139   -5.3458   -2.3735 C   0  0  0  0  0  0  0  0  0  0  0  0
    2.3381   -5.7209   -3.4976 N   0  0  0  0  0  0  0  0  0  0  0  0
    2.5358   -4.6615   -4.2710 C   0  0  0  0  0  0  0  0  0  0  0  0
    2.0345   -3.6161   -3.6319 N   0  0  0  0  0  0  0  0  0  0  0  0
    0.9687   -2.2851    0.8940 N   0  0  0  0  0  0  0  0  0  0  0  0
   -0.2738   -2.4449    1.4343 C   0  0  0  0  0  0  0  0  0  0  0  0
   -0.3054   -3.1725    2.5291 O   0  0  0  0  0  0  0  0  0  0  0  0
   -3.5404   -5.2213    2.3339 H   0  0  0  0  0  0  0  0  0  0  0  0
   -4.5769   -5.3088    0.8052 H   0  0  0  0  0  0  0  0  0  0  0  0
   -3.1042   -6.3365    1.0264 H   0  0  0  0  0  0  0  0  0  0  0  0
   -3.0660   -4.1116   -0.4368 H   0  0  0  0  0  0  0  0  0  0  0  0
   -1.6380   -4.6866    0.5760 H   0  0  0  0  0  0  0  0  0  0  0  0
   -2.3333   -3.4357    2.4788 H   0  0  0  0  0  0  0  0  0  0  0  0
   -4.5865   -2.4726    0.7407 H   0  0  0  0  0  0  0  0  0  0  0  0
   -4.5777   -3.0564    2.4749 H   0  0  0  0  0  0  0  0  0  0  0  0
   -3.8684   -1.4231    2.0582 H   0  0  0  0  0  0  0  0  0  0  0  0
   -1.9631   -1.1490    1.7744 H   0  0  0  0  0  0  0  0  0  0  0  0
   -2.1159   -2.3895   -0.9070 H   0  0  0  0  0  0  0  0  0  0  0  0
   -3.5648    0.4291    0.4766 H   0  0  0  0  0  0  0  0  0  0  0  0
   -2.6844    1.9041   -1.9574 H   0  0  0  0  0  0  0  0  0  0  0  0
   -4.1304    0.9853   -1.5905 H   0  0  0  0  0  0  0  0  0  0  0  0
   -5.7886    1.8790   -0.0065 H   0  0  0  0  0  0  0  0  0  0  0  0
   -7.0169    3.8203    0.7307 H   0  0  0  0  0  0  0  0  0  0  0  0
   -6.0111    6.0580    0.5152 H   0  0  0  0  0  0  0  0  0  0  0  0
   -3.7059    6.2959   -0.4754 H   0  0  0  0  0  0  0  0  0  0  0  0
   -2.5168    4.3097   -1.1971 H   0  0  0  0  0  0  0  0  0  0  0  0
   -2.0597    1.1909    1.8863 H   0  0  0  0  0  0  0  0  0  0  0  0
    1.2793    2.7708    1.0706 H   0  0  0  0  0  0  0  0  0  0  0  0
    1.1693    4.8886    0.5098 H   0  0  0  0  0  0  0  0  0  0  0  0
   -0.5369    4.7647    0.0779 H   0  0  0  0  0  0  0  0  0  0  0  0
    1.8904    4.5809   -1.6216 H   0  0  0  0  0  0  0  0  0  0  0  0
    0.2079    5.1579   -2.0708 H   0  0  0  0  0  0  0  0  0  0  0  0
    0.8733    2.6902   -2.9366 H   0  0  0  0  0  0  0  0  0  0  0  0
   -0.6462    2.9295   -2.0469 H   0  0  0  0  0  0  0  0  0  0  0  0
    2.1921    0.6163    1.1681 H   0  0  0  0  0  0  0  0  0  0  0  0
    4.2641    1.5325   -0.8956 H   0  0  0  0  0  0  0  0  0  0  0  0
    3.3767    2.7004    0.0512 H   0  0  0  0  0  0  0  0  0  0  0  0
    6.2368    0.5059   -0.0963 H   0  0  0  0  0  0  0  0  0  0  0  0
    7.9958    0.3274    1.6744 H   0  0  0  0  0  0  0  0  0  0  0  0
    7.6182    1.2678    3.8876 H   0  0  0  0  0  0  0  0  0  0  0  0
    5.4853    2.3888    4.3580 H   0  0  0  0  0  0  0  0  0  0  0  0
    3.7606    2.5576    2.6036 H   0  0  0  0  0  0  0  0  0  0  0  0
    4.2450   -0.7982    0.3907 H   0  0  0  0  0  0  0  0  0  0  0  0
    2.1830   -3.7156   -0.0104 H   0  0  0  0  0  0  0  0  0  0  0  0
   -0.0308   -3.7919   -1.0440 H   0  0  0  0  0  0  0  0  0  0  0  0
    0.3906   -2.2676   -1.9870 H   0  0  0  0  0  0  0  0  0  0  0  0
    1.4031   -5.9655   -1.5283 H   0  0  0  0  0  0  0  0  0  0  0  0
    2.6409   -6.6875   -3.7643 H   0  0  0  0  0  0  0  0  0  0  0  0
    3.0123   -4.5733   -5.2575 H   0  0  0  0  0  0  0  0  0  0  0  0
    1.6842   -1.7075    1.4810 H   0  0  0  0  0  0  0  0  0  0  0  0
  1  2  1  0
  2  3  1  0
  3  4  1  0
  3  5  1  0
  5  6  1  0
  6  7  1  0
  7  8  2  0
  7  9  1  0
  9 10  1  0
 10 11  1  0
 11 12  2  0
 12 13  1  0
 13 14  2  0
 14 15  1  0
 15 16  2  0
  9 17  1  0
 17 18  1  0
 18 19  2  0
 18 20  1  0
 20 21  1  0
 21 22  1  0
 22 23  1  0
 23 24  1  0
 24 25  1  0
 25 26  2  0
 25 27  1  0
 27 28  1  0
 28 29  1  0
 29 30  2  0
 30 31  1  0
 31 32  2  0
 32 33  1  0
 33 34  2  0
 27 35  1  0
 35 36  1  0
 36 37  2  0
 36 38  1  0
 38 39  1  0
 39 40  1  0
 40 41  2  0
 41 42  1  0
 42 43  1  0
 43 44  2  0
 38 45  1  0
 45 46  1  0
 46 47  2  0
 46  5  1  0
 16 11  1  0
 24 20  1  0
 34 29  1  0
 44 40  1  0
  1 48  1  0
  1 49  1  0
  1 50  1  0
  2 51  1  0
  2 52  1  0
  3 53  1  1
  4 54  1  0
  4 55  1  0
  4 56  1  0
  5 57  1  1
  6 58  1  0
  9 59  1  1
 10 60  1  0
 10 61  1  0
 12 62  1  0
 13 63  1  0
 14 64  1  0
 15 65  1  0
 16 66  1  0
 17 67  1  0
 20 68  1  1
 21 69  1  0
 21 70  1  0
 22 71  1  0
 22 72  1  0
 23 73  1  0
 23 74  1  0
 27 75  1  1
 28 76  1  0
 28 77  1  0
 30 78  1  0
 31 79  1  0
 32 80  1  0
 33 81  1  0
 34 82  1  0
 35 83  1  0
 38 84  1  1
 39 85  1  0
 39 86  1  0
 41 87  1  0
 42 88  1  0
 43 89  1  0
 45 90  1  0
M  END
$$$$
[H]N=C(N([H])[H])N([H])C([H])([H])C([H])([H])C([H])([H])[C@@]([H])(C(=O)c1nc2c([H])c([H])c([H])c([H])c2s1)N([H])C(=O)[C@@]([H])(N([H])C(=O)C([H])([H])[H])[C@@]([H])(C([H])([H])[H])C([H])([H])C([H])([H])[H]
     RDKit          3D

 61 62  0  0  0  0  0  0  0  0999 V2000
   -5.0254    1.4712   -1.1503 C   0  0  0  0  0  0  0  0  0  0  0  0
   -3.6588    1.0159   -1.5916 C   0  0  0  0  0  0  0  0  0  0  0  0
   -3.2922   -0.3663   -1.1603 C   0  0  2  0  0  0  0  0  0  0  0  0
   -4.2574   -1.4096   -1.6869 C   0  0  0  0  0  0  0  0  0  0  0  0
   -2.9482   -0.5289    0.2805 C   0  0  2  0  0  0  0  0  0  0  0  0
   -3.9863   -0.1755    1.2072 N   0  0  0  0  0  0  0  0  0  0  0  0
   -4.6536   -1.1265    2.0335 C   0  0  0  0  0  0  0  0  0  0  0  0
   -5.7243   -0.7708    2.9911 C   0  0  0  0  0  0  0  0  0  0  0  0
   -4.3249   -2.3479    1.9575 O   0  0  0  0  0  0  0  0  0  0  0  0
   -1.6429    0.0829    0.6417 C   0  0  0  0  0  0  0  0  0  0  0  0
   -1.5428    0.8201    1.6741 O   0  0  0  0  0  0  0  0  0  0  0  0
   -0.4667   -0.1141   -0.1218 N   0  0  0  0  0  0  0  0  0  0  0  0
    0.8115    0.5076    0.2672 C   0  0  1  0  0  0  0  0  0  0  0  0
    1.8460   -0.5616    0.5296 C   0  0  0  0  0  0  0  0  0  0  0  0
    2.0694   -1.3862   -0.7126 C   0  0  0  0  0  0  0  0  0  0  0  0
    3.1147   -2.4599   -0.4725 C   0  0  0  0  0  0  0  0  0  0  0  0
    2.7308   -3.3678    0.5805 N   0  0  0  0  0  0  0  0  0  0  0  0
    1.6420   -4.2596    0.4095 C   0  0  0  0  0  0  0  0  0  0  0  0
    0.9084   -4.6857    1.5406 N   0  0  0  0  0  0  0  0  0  0  0  0
    1.2952   -4.6991   -0.7550 N   0  0  0  0  0  0  0  0  0  0  0  0
    1.2412    1.3050   -0.8986 C   0  0  0  0  0  0  0  0  0  0  0  0
    0.6226    1.3451   -1.9935 O   0  0  0  0  0  0  0  0  0  0  0  0
    2.4627    2.1178   -0.8121 C   0  0  0  0  0  0  0  0  0  0  0  0
    3.3055    2.2886    0.1828 N   0  0  0  0  0  0  0  0  0  0  0  0
    4.3442    3.0663    0.0520 C   0  0  0  0  0  0  0  0  0  0  0  0
    5.3158    3.3309    1.0378 C   0  0  0  0  0  0  0  0  0  0  0  0
    6.3543    4.1605    0.7830 C   0  0  0  0  0  0  0  0  0  0  0  0
    6.5410    4.7935   -0.4201 C   0  0  0  0  0  0  0  0  0  0  0  0
    5.6024    4.5480   -1.3965 C   0  0  0  0  0  0  0  0  0  0  0  0
    4.5181    3.6907   -1.1521 C   0  0  0  0  0  0  0  0  0  0  0  0
    3.1706    3.1210   -2.0330 S   0  0  0  0  0  0  0  0  0  0  0  0
   -4.9253    2.3093   -0.4305 H   0  0  0  0  0  0  0  0  0  0  0  0
   -5.6125    1.8854   -2.0002 H   0  0  0  0  0  0  0  0  0  0  0  0
   -5.6198    0.6732   -0.6538 H   0  0  0  0  0  0  0  0  0  0  0  0
   -2.9048    1.7762   -1.2650 H   0  0  0  0  0  0  0  0  0  0  0  0
   -3.6401    1.1010   -2.7170 H   0  0  0  0  0  0  0  0  0  0  0  0
   -2.3259   -0.6022   -1.7222 H   0  0  0  0  0  0  0  0  0  0  0  0
   -4.1332   -1.5212   -2.7621 H   0  0  0  0  0  0  0  0  0  0  0  0
   -3.9598   -2.3866   -1.2067 H   0  0  0  0  0  0  0  0  0  0  0  0
   -5.2996   -1.2323   -1.3587 H   0  0  0  0  0  0  0  0  0  0  0  0
   -2.7802   -1.6429    0.4291 H   0  0  0  0  0  0  0  0  0  0  0  0
   -4.3087    0.8205    1.3310 H   0  0  0  0  0  0  0  0  0  0  0  0
   -6.4428   -1.5922    3.1516 H   0  0  0  0  0  0  0  0  0  0  0  0
   -6.2854    0.1228    2.6312 H   0  0  0  0  0  0  0  0  0  0  0  0
   -5.2845   -0.5517    4.0080 H   0  0  0  0  0  0  0  0  0  0  0  0
   -0.4357   -0.6925   -0.9828 H   0  0  0  0  0  0  0  0  0  0  0  0
    0.6794    1.1036    1.1890 H   0  0  0  0  0  0  0  0  0  0  0  0
    1.5455   -1.2105    1.3879 H   0  0  0  0  0  0  0  0  0  0  0  0
    2.7952   -0.1001    0.8354 H   0  0  0  0  0  0  0  0  0  0  0  0
    1.1304   -1.9524   -0.9382 H   0  0  0  0  0  0  0  0  0  0  0  0
    2.4136   -0.7483   -1.5278 H   0  0  0  0  0  0  0  0  0  0  0  0
    3.2315   -3.0384   -1.4123 H   0  0  0  0  0  0  0  0  0  0  0  0
    4.1155   -2.0128   -0.2659 H   0  0  0  0  0  0  0  0  0  0  0  0
    3.2770   -3.3496    1.4705 H   0  0  0  0  0  0  0  0  0  0  0  0
    0.9104   -5.6958    1.8003 H   0  0  0  0  0  0  0  0  0  0  0  0
    0.3704   -4.0254    2.1173 H   0  0  0  0  0  0  0  0  0  0  0  0
    1.7698   -4.4446   -1.6373 H   0  0  0  0  0  0  0  0  0  0  0  0
    5.2357    2.8611    2.0284 H   0  0  0  0  0  0  0  0  0  0  0  0
    7.0774    4.3195    1.6064 H   0  0  0  0  0  0  0  0  0  0  0  0
    7.3827    5.4347   -0.5525 H   0  0  0  0  0  0  0  0  0  0  0  0
    5.6508    4.9868   -2.3645 H   0  0  0  0  0  0  0  0  0  0  0  0
  1  2  1  0
  2  3  1  0
  3  4  1  0
  3  5  1  0
  5  6  1  0
  6  7  1  0
  7  8  1  0
  7  9  2  0
  5 10  1  0
 10 11  2  0
 10 12  1  0
 12 13  1  0
 13 14  1  0
 14 15  1  0
 15 16  1  0
 16 17  1  0
 17 18  1  0
 18 19  1  0
 18 20  2  3
 13 21  1  0
 21 22  2  0
 21 23  1  0
 23 24  2  0
 24 25  1  0
 25 26  2  0
 26 27  1  0
 27 28  2  0
 28 29  1  0
 29 30  2  0
 30 31  1  0
 31 23  1  0
 30 25  1  0
  1 32  1  0
  1 33  1  0
  1 34  1  0
  2 35  1  0
  2 36  1  0
  3 37  1  6
  4 38  1  0
  4 39  1  0
  4 40  1  0
  5 41  1  6
  6 42  1  0
  8 43  1  0
  8 44  1  0
  8 45  1  0
 12 46  1  0
 13 47  1  1
 14 48  1  0
 14 49  1  0
 15 50  1  0
 15 51  1  0
 16 52  1  0
 16 53  1  0
 17 54  1  0
 19 55  1  0
 19 56  1  0
 20 57  1  0
 26 58  1  0
 27 59  1  0
 28 60  1  0
 29 61  1  0
M  END
$$$$
[H]Oc1c([H])c(O[H])c(-c2c([H])c(O[H])c(O[H])c(O[H])c2[H])c([H])c1O[H]
     RDKit          3D

 28 29  0  0  0  0  0  0  0  0999 V2000
    3.6044    2.2304   -0.3565 O   0  0  0  0  0  0  0  0  0  0  0  0
    2.8278    1.0812   -0.2968 C   0  0  0  0  0  0  0  0  0  0  0  0
    1.4361    1.1342   -0.1699 C   0  0  0  0  0  0  0  0  0  0  0  0
    0.6840   -0.0178   -0.1124 C   0  0  0  0  0  0  0  0  0  0  0  0
    1.3539   -1.2197   -0.1845 C   0  0  0  0  0  0  0  0  0  0  0  0
    2.7400   -1.2818   -0.3109 C   0  0  0  0  0  0  0  0  0  0  0  0
    3.3891   -2.5155   -0.3815 O   0  0  0  0  0  0  0  0  0  0  0  0
    3.4648   -0.1306   -0.3660 C   0  0  0  0  0  0  0  0  0  0  0  0
    4.8555   -0.1967   -0.4928 O   0  0  0  0  0  0  0  0  0  0  0  0
   -0.7650   -0.0286    0.0203 C   0  0  0  0  0  0  0  0  0  0  0  0
   -1.5809   -0.8369   -0.7459 C   0  0  0  0  0  0  0  0  0  0  0  0
   -2.9392   -0.8580   -0.6349 C   0  0  0  0  0  0  0  0  0  0  0  0
   -3.6968   -1.6992   -1.4411 O   0  0  0  0  0  0  0  0  0  0  0  0
   -3.5445   -0.0330    0.2881 C   0  0  0  0  0  0  0  0  0  0  0  0
   -4.9346   -0.0593    0.3967 O   0  0  0  0  0  0  0  0  0  0  0  0
   -2.7527    0.7897    1.0717 C   0  0  0  0  0  0  0  0  0  0  0  0
   -1.3757    0.7947    0.9420 C   0  0  0  0  0  0  0  0  0  0  0  0
   -0.5895    1.6161    1.7250 O   0  0  0  0  0  0  0  0  0  0  0  0
    3.2187    3.1495   -0.3129 H   0  0  0  0  0  0  0  0  0  0  0  0
    0.9674    2.0821   -0.1194 H   0  0  0  0  0  0  0  0  0  0  0  0
    0.8526   -2.1733   -0.1479 H   0  0  0  0  0  0  0  0  0  0  0  0
    2.8413   -3.3815   -0.3398 H   0  0  0  0  0  0  0  0  0  0  0  0
    5.4452    0.6141   -0.5388 H   0  0  0  0  0  0  0  0  0  0  0  0
   -1.0822   -1.4769   -1.4647 H   0  0  0  0  0  0  0  0  0  0  0  0
   -4.7034   -1.7369   -1.3821 H   0  0  0  0  0  0  0  0  0  0  0  0
   -5.4642    0.4938    1.0276 H   0  0  0  0  0  0  0  0  0  0  0  0
   -3.2057    1.4434    1.8003 H   0  0  0  0  0  0  0  0  0  0  0  0
   -1.0464    2.2163    2.3982 H   0  0  0  0  0  0  0  0  0  0  0  0
  1  2  1  0
  2  3  2  0
  3  4  1  0
  4  5  2  0
  5  6  1  0
  6  7  1  0
  6  8  2  0
  8  9  1  0
  4 10  1  0
 10 11  2  0
 11 12  1  0
 12 13  1  0
 12 14  2  0
 14 15  1  0
 14 16  1  0
 16 17  2  0
 17 18  1  0
  8  2  1  0
 17 10  1  0
  1 19  1  0
  3 20  1  0
  5 21  1  0
  7 22  1  0
  9 23  1  0
 11 24  1  0
 13 25  1  0
 15 26  1  0
 16 27  1  0
 18 28  1  0
M  END
$$$$
[H]OC(=O)c1nc(-c2c([H])c([H])c(O[H])c(O[H])c2[H])c2c([H])c(O[H])c(O[H])c([H])c2c1[H]
     RDKit          3D

 34 36  0  0  0  0  0  0  0  0999 V2000
   -1.0974    3.9647   -2.4464 O   0  0  0  0  0  0  0  0  0  0  0  0
   -2.0692    3.0868   -2.0181 C   0  0  0  0  0  0  0  0  0  0  0  0
   -3.2626    3.3510   -2.3167 O   0  0  0  0  0  0  0  0  0  0  0  0
   -1.7315    1.9005   -1.2509 C   0  0  0  0  0  0  0  0  0  0  0  0
   -2.7198    1.0520   -0.8426 C   0  0  0  0  0  0  0  0  0  0  0  0
   -2.4260   -0.0699   -0.1212 C   0  0  0  0  0  0  0  0  0  0  0  0
   -3.3844   -0.9378    0.2840 C   0  0  0  0  0  0  0  0  0  0  0  0
   -3.1082   -2.0698    0.9892 C   0  0  0  0  0  0  0  0  0  0  0  0
   -4.1192   -2.9490    1.3957 O   0  0  0  0  0  0  0  0  0  0  0  0
   -1.7930   -2.3273    1.2940 C   0  0  0  0  0  0  0  0  0  0  0  0
   -1.4495   -3.4656    2.0097 O   0  0  0  0  0  0  0  0  0  0  0  0
   -0.7687   -1.4639    0.8997 C   0  0  0  0  0  0  0  0  0  0  0  0
   -1.0852   -0.3269    0.1891 C   0  0  0  0  0  0  0  0  0  0  0  0
   -0.0838    0.5181   -0.2133 C   0  0  0  0  0  0  0  0  0  0  0  0
   -0.4677    1.6225   -0.9358 N   0  0  0  0  0  0  0  0  0  0  0  0
    1.3271    0.3242    0.0583 C   0  0  0  0  0  0  0  0  0  0  0  0
    1.9236    0.1351    1.2741 C   0  0  0  0  0  0  0  0  0  0  0  0
    3.2664   -0.0540    1.4564 C   0  0  0  0  0  0  0  0  0  0  0  0
    4.1031   -0.0596    0.3627 C   0  0  0  0  0  0  0  0  0  0  0  0
    5.4762   -0.2504    0.5215 O   0  0  0  0  0  0  0  0  0  0  0  0
    3.5535    0.1277   -0.8939 C   0  0  0  0  0  0  0  0  0  0  0  0
    4.3554    0.1286   -2.0063 O   0  0  0  0  0  0  0  0  0  0  0  0
    2.1976    0.3149   -1.0393 C   0  0  0  0  0  0  0  0  0  0  0  0
   -1.0719    4.9505   -2.2086 H   0  0  0  0  0  0  0  0  0  0  0  0
   -3.7328    1.2703   -1.0913 H   0  0  0  0  0  0  0  0  0  0  0  0
   -4.4293   -0.7286    0.0385 H   0  0  0  0  0  0  0  0  0  0  0  0
   -5.0756   -2.7291    1.1546 H   0  0  0  0  0  0  0  0  0  0  0  0
   -0.4922   -3.6342    2.2203 H   0  0  0  0  0  0  0  0  0  0  0  0
    0.2529   -1.7000    1.1335 H   0  0  0  0  0  0  0  0  0  0  0  0
    1.2843    0.1444    2.1623 H   0  0  0  0  0  0  0  0  0  0  0  0
    3.6571   -0.1970    2.4561 H   0  0  0  0  0  0  0  0  0  0  0  0
    5.8490   -0.3833    1.4370 H   0  0  0  0  0  0  0  0  0  0  0  0
    5.3344   -0.0042   -1.9273 H   0  0  0  0  0  0  0  0  0  0  0  0
    1.7877    0.4591   -2.0248 H   0  0  0  0  0  0  0  0  0  0  0  0
  1  2  1  0
  2  3  2  0
  2  4  1  0
  4  5  2  0
  5  6  1  0
  6  7  2  0
  7  8  1  0
  8  9  1  0
  8 10  2  0
 10 11  1  0
 10 12  1  0
 12 13  2  0
 13 14  1  0
 14 15  2  0
 14 16  1  0
 16 17  2  0
 17 18  1  0
 18 19  2  0
 19 20  1  0
 19 21  1  0
 21 22  1  0
 21 23  2  0
 15  4  1  0
 23 16  1  0
 13  6  1  0
  1 24  1  0
  5 25  1  0
  7 26  1  0
  9 27  1  0
 11 28  1  0
 12 29  1  0
 17 30  1  0
 18 31  1  0
 20 32  1  0
 22 33  1  0
 23 34  1  0
M  END
$$$$
[H]O[C@@]1([H])[C@]([H])(O[H])[C@@]([H])(C([H])([H])OP(=O)(O[H])OP(=O)(O[H])O[H])O[C@@]1([H])n1c([H])nc2c(N([H])[H])nc([H])nc21
     RDKit          3D

 42 44  0  0  0  0  0  0  0  0999 V2000
    0.1570   -3.3429    0.4943 O   0  0  0  0  0  0  0  0  0  0  0  0
    0.2979   -2.1797   -0.2923 C   0  0  2  0  0  0  0  0  0  0  0  0
    0.9292   -1.0830    0.4956 C   0  0  1  0  0  0  0  0  0  0  0  0
    2.0896   -0.5268   -0.3006 C   0  0  0  0  0  0  0  0  0  0  0  0
    2.6874    0.5570    0.3761 O   0  0  0  0  0  0  0  0  0  0  0  0
    3.9576    1.0819   -0.6098 P   0  0  0  0  0  0  0  0  0  0  0  0
    3.3065    2.3074   -1.6129 O   0  0  0  0  0  0  0  0  0  0  0  0
    4.4493   -0.0573   -1.4408 O   0  0  0  0  0  0  0  0  0  0  0  0
    5.1850    1.8066    0.2918 O   0  0  0  0  0  0  0  0  0  0  0  0
    6.0830    0.6776    1.1597 P   0  0  0  0  0  0  0  0  0  0  0  0
    7.2371   -0.0985    0.1987 O   0  0  0  0  0  0  0  0  0  0  0  0
    5.1038   -0.4343    1.9574 O   0  0  0  0  0  0  0  0  0  0  0  0
    6.8544    1.4518    2.2240 O   0  0  0  0  0  0  0  0  0  0  0  0
    0.0032   -0.0700    0.6591 O   0  0  0  0  0  0  0  0  0  0  0  0
   -1.2586   -0.6358    0.5296 C   0  0  2  0  0  0  0  0  0  0  0  0
   -1.0685   -1.6456   -0.6075 C   0  0  1  0  0  0  0  0  0  0  0  0
   -1.1204   -1.0090   -1.8423 O   0  0  0  0  0  0  0  0  0  0  0  0
   -2.2537    0.3521    0.1696 N   0  0  0  0  0  0  0  0  0  0  0  0
   -2.0883    1.4546   -0.5677 C   0  0  0  0  0  0  0  0  0  0  0  0
   -3.2676    2.0953   -0.6608 N   0  0  0  0  0  0  0  0  0  0  0  0
   -4.2037    1.4044    0.0200 C   0  0  0  0  0  0  0  0  0  0  0  0
   -5.5492    1.5911    0.2563 C   0  0  0  0  0  0  0  0  0  0  0  0
   -6.1852    2.7167   -0.2848 N   0  0  0  0  0  0  0  0  0  0  0  0
   -6.1669    0.6770    0.9939 N   0  0  0  0  0  0  0  0  0  0  0  0
   -5.5424   -0.3940    1.5036 C   0  0  0  0  0  0  0  0  0  0  0  0
   -4.2447   -0.5736    1.2755 N   0  0  0  0  0  0  0  0  0  0  0  0
   -3.5665    0.3122    0.5398 C   0  0  0  0  0  0  0  0  0  0  0  0
    0.1002   -3.0684    1.4574 H   0  0  0  0  0  0  0  0  0  0  0  0
    0.8897   -2.4296   -1.2150 H   0  0  0  0  0  0  0  0  0  0  0  0
    1.2681   -1.3820    1.5083 H   0  0  0  0  0  0  0  0  0  0  0  0
    2.8735   -1.2751   -0.4985 H   0  0  0  0  0  0  0  0  0  0  0  0
    1.7395   -0.1167   -1.2638 H   0  0  0  0  0  0  0  0  0  0  0  0
    2.7333    1.8900   -2.3007 H   0  0  0  0  0  0  0  0  0  0  0  0
    6.9880   -1.0495    0.0174 H   0  0  0  0  0  0  0  0  0  0  0  0
    5.3829   -1.3317    1.6860 H   0  0  0  0  0  0  0  0  0  0  0  0
   -1.5463   -1.2015    1.4361 H   0  0  0  0  0  0  0  0  0  0  0  0
   -1.8612   -2.4190   -0.5920 H   0  0  0  0  0  0  0  0  0  0  0  0
   -0.2575   -0.9956   -2.3106 H   0  0  0  0  0  0  0  0  0  0  0  0
   -1.1686    1.7783   -1.0132 H   0  0  0  0  0  0  0  0  0  0  0  0
   -6.3134    3.5996    0.2554 H   0  0  0  0  0  0  0  0  0  0  0  0
   -6.5485    2.6848   -1.2614 H   0  0  0  0  0  0  0  0  0  0  0  0
   -6.1050   -1.1188    2.1076 H   0  0  0  0  0  0  0  0  0  0  0  0
  1  2  1  0
  2  3  1  0
  3  4  1  0
  4  5  1  0
  5  6  1  0
  6  7  1  0
  6  8  2  0
  6  9  1  0
  9 10  1  0
 10 11  1  0
 10 12  1  0
 10 13  2  0
  3 14  1  0
 14 15  1  0
 15 16  1  0
 16 17  1  0
 15 18  1  0
 18 19  1  0
 19 20  2  0
 20 21  1  0
 21 22  2  0
 22 23  1  0
 22 24  1  0
 24 25  2  0
 25 26  1  0
 26 27  2  0
 16  2  1  0
 27 18  1  0
 27 21  1  0
  1 28  1  0
  2 29  1  6
  3 30  1  1
  4 31  1  0
  4 32  1  0
  7 33  1  0
 11 34  1  0
 12 35  1  0
 15 36  1  1
 16 37  1  6
 17 38  1  0
 19 39  1  0
 23 40  1  0
 23 41  1  0
 25 42  1  0
M  END
$$$$
[H]c1nc([H])c(-c2nnc(N3C([H])([H])[C@@]4([H])N(C([H])([H])[H])C([H])([H])[C@]3([H])C4([H])[H])c([H])c2[H])c([H])c1[H]
     RDKit          3D

 37 40  0  0  0  0  0  0  0  0999 V2000
   -5.5002   -0.1376    0.0871 C   0  0  0  0  0  0  0  0  0  0  0  0
   -4.2280   -0.8290    0.0739 N   0  0  0  0  0  0  0  0  0  0  0  0
   -3.3403   -0.0999    0.9667 C   0  0  0  0  0  0  0  0  0  0  0  0
   -2.4072    0.7089    0.0977 C   0  0  2  0  0  0  0  0  0  0  0  0
   -3.2961    0.8508   -1.1544 C   0  0  0  0  0  0  0  0  0  0  0  0
   -3.6066   -0.6577   -1.2107 C   0  0  1  0  0  0  0  0  0  0  0  0
   -2.1793   -1.1938   -1.1799 C   0  0  0  0  0  0  0  0  0  0  0  0
   -1.4230   -0.2069   -0.4160 N   0  0  0  0  0  0  0  0  0  0  0  0
   -0.0343   -0.1264   -0.1990 C   0  0  0  0  0  0  0  0  0  0  0  0
    0.4841    0.8793    0.5725 C   0  0  0  0  0  0  0  0  0  0  0  0
    1.8644    0.9589    0.7872 C   0  0  0  0  0  0  0  0  0  0  0  0
    2.7167    0.0402    0.2345 C   0  0  0  0  0  0  0  0  0  0  0  0
    2.1383   -0.9371   -0.5238 N   0  0  0  0  0  0  0  0  0  0  0  0
    0.8399   -1.0133   -0.7267 N   0  0  0  0  0  0  0  0  0  0  0  0
    4.1613    0.0725    0.4230 C   0  0  0  0  0  0  0  0  0  0  0  0
    4.9549   -0.9104   -0.1819 C   0  0  0  0  0  0  0  0  0  0  0  0
    6.3232   -0.9074   -0.0228 C   0  0  0  0  0  0  0  0  0  0  0  0
    6.9557    0.0567    0.7323 C   0  0  0  0  0  0  0  0  0  0  0  0
    6.1860    0.9940    1.3076 N   0  0  0  0  0  0  0  0  0  0  0  0
    4.8263    1.0128    1.1650 C   0  0  0  0  0  0  0  0  0  0  0  0
   -6.1655   -0.7258    0.7788 H   0  0  0  0  0  0  0  0  0  0  0  0
   -5.4304    0.8735    0.5573 H   0  0  0  0  0  0  0  0  0  0  0  0
   -5.9399   -0.0118   -0.9103 H   0  0  0  0  0  0  0  0  0  0  0  0
   -2.7195   -0.8856    1.4763 H   0  0  0  0  0  0  0  0  0  0  0  0
   -3.8660    0.4793    1.7214 H   0  0  0  0  0  0  0  0  0  0  0  0
   -2.0803    1.6370    0.4948 H   0  0  0  0  0  0  0  0  0  0  0  0
   -4.1851    1.4433   -0.9565 H   0  0  0  0  0  0  0  0  0  0  0  0
   -2.7050    1.1312   -2.0248 H   0  0  0  0  0  0  0  0  0  0  0  0
   -4.1762   -0.9452   -2.0671 H   0  0  0  0  0  0  0  0  0  0  0  0
   -1.7899   -1.3215   -2.2049 H   0  0  0  0  0  0  0  0  0  0  0  0
   -2.1562   -2.1809   -0.6734 H   0  0  0  0  0  0  0  0  0  0  0  0
   -0.1347    1.6475    1.0460 H   0  0  0  0  0  0  0  0  0  0  0  0
    2.2628    1.7675    1.4053 H   0  0  0  0  0  0  0  0  0  0  0  0
    4.4374   -1.6611   -0.7727 H   0  0  0  0  0  0  0  0  0  0  0  0
    6.9412   -1.6658   -0.4889 H   0  0  0  0  0  0  0  0  0  0  0  0
    8.0323    0.0718    0.8664 H   0  0  0  0  0  0  0  0  0  0  0  0
    4.2395    1.7923    1.6496 H   0  0  0  0  0  0  0  0  0  0  0  0
  1  2  1  0
  2  3  1  0
  3  4  1  0
  4  5  1  0
  5  6  1  0
  6  7  1  0
  7  8  1  0
  8  9  1  0
  9 10  2  0
 10 11  1  0
 11 12  2  0
 12 13  1  0
 13 14  2  0
 12 15  1  0
 15 16  2  0
 16 17  1  0
 17 18  2  0
 18 19  1  0
 19 20  2  0
  6  2  1  0
 14  9  1  0
 20 15  1  0
  8  4  1  0
  1 21  1  0
  1 22  1  0
  1 23  1  0
  3 24  1  0
  3 25  1  0
  4 26  1  1
  5 27  1  0
  5 28  1  0
  6 29  1  6
  7 30  1  0
  7 31  1  0
 10 32  1  0
 11 33  1  0
 16 34  1  0
 17 35  1  0
 18 36  1  0
 20 37  1  0
M  END
$$$$
[H]Oc1c([H])c([H])c(C([H])([H])[C@@]([H])(C(=O)N([H])[C@]([H])(C(=O)N([H])[C@]([H])(C(=O)N([H])[H])C([H])([H])c2c([H])c([H])c([H])c([H])c2[H])C([H])([H])C([H])(C([H])([H])[H])C([H])([H])[H])N([H])[H])c([H])c1[H]
     RDKit          3D

 64 65  0  0  0  0  0  0  0  0999 V2000
    0.6737   -3.0774   -1.1537 C   0  0  0  0  0  0  0  0  0  0  0  0
    0.1779   -3.0197    0.2869 C   0  0  0  0  0  0  0  0  0  0  0  0
    0.6338   -4.3252    0.9719 C   0  0  0  0  0  0  0  0  0  0  0  0
    0.7965   -1.8975    1.0288 C   0  0  0  0  0  0  0  0  0  0  0  0
    0.4872   -0.5348    0.4289 C   0  0  2  0  0  0  0  0  0  0  0  0
    1.2229    0.4429    1.2684 N   0  0  0  0  0  0  0  0  0  0  0  0
    2.2898    1.1567    0.6785 C   0  0  0  0  0  0  0  0  0  0  0  0
    2.5636    0.9261   -0.5274 O   0  0  0  0  0  0  0  0  0  0  0  0
    3.0744    2.1521    1.4453 C   0  0  1  0  0  0  0  0  0  0  0  0
    2.3565    2.3709    2.7249 N   0  0  0  0  0  0  0  0  0  0  0  0
    4.4591    1.6961    1.7597 C   0  0  0  0  0  0  0  0  0  0  0  0
    5.3124    1.3835    0.5967 C   0  0  0  0  0  0  0  0  0  0  0  0
    5.4128    0.0920    0.0874 C   0  0  0  0  0  0  0  0  0  0  0  0
    6.2008   -0.2264   -0.9936 C   0  0  0  0  0  0  0  0  0  0  0  0
    6.9450    0.7395   -1.6389 C   0  0  0  0  0  0  0  0  0  0  0  0
    7.7509    0.4415   -2.7361 O   0  0  0  0  0  0  0  0  0  0  0  0
    6.8521    2.0233   -1.1415 C   0  0  0  0  0  0  0  0  0  0  0  0
    6.0615    2.3425   -0.0566 C   0  0  0  0  0  0  0  0  0  0  0  0
   -0.9246   -0.1862    0.6102 C   0  0  0  0  0  0  0  0  0  0  0  0
   -1.2269    0.6237    1.5589 O   0  0  0  0  0  0  0  0  0  0  0  0
   -1.9562   -0.6843   -0.1978 N   0  0  0  0  0  0  0  0  0  0  0  0
   -3.3539   -0.2625    0.0831 C   0  0  1  0  0  0  0  0  0  0  0  0
   -3.7206    0.6252   -1.0579 C   0  0  0  0  0  0  0  0  0  0  0  0
   -5.0705    1.1743   -0.9995 C   0  0  0  0  0  0  0  0  0  0  0  0
   -5.3236    2.3251   -0.2426 C   0  0  0  0  0  0  0  0  0  0  0  0
   -6.5720    2.8560   -0.2212 C   0  0  0  0  0  0  0  0  0  0  0  0
   -7.6284    2.3261   -0.9094 C   0  0  0  0  0  0  0  0  0  0  0  0
   -7.3707    1.1870   -1.6566 C   0  0  0  0  0  0  0  0  0  0  0  0
   -6.1240    0.6291   -1.6979 C   0  0  0  0  0  0  0  0  0  0  0  0
   -4.1551   -1.4867    0.1029 C   0  0  0  0  0  0  0  0  0  0  0  0
   -5.5121   -1.4550    0.4927 N   0  0  0  0  0  0  0  0  0  0  0  0
   -3.6829   -2.6100   -0.2165 O   0  0  0  0  0  0  0  0  0  0  0  0
    1.7729   -3.1466   -1.1599 H   0  0  0  0  0  0  0  0  0  0  0  0
    0.3670   -2.1430   -1.6508 H   0  0  0  0  0  0  0  0  0  0  0  0
    0.1786   -3.9267   -1.6247 H   0  0  0  0  0  0  0  0  0  0  0  0
   -0.9050   -3.0666    0.2783 H   0  0  0  0  0  0  0  0  0  0  0  0
    0.2678   -5.1949    0.4022 H   0  0  0  0  0  0  0  0  0  0  0  0
    0.1201   -4.3062    1.9685 H   0  0  0  0  0  0  0  0  0  0  0  0
    1.7287   -4.3350    1.0669 H   0  0  0  0  0  0  0  0  0  0  0  0
    1.8976   -2.0283    1.0442 H   0  0  0  0  0  0  0  0  0  0  0  0
    0.4110   -1.9315    2.0815 H   0  0  0  0  0  0  0  0  0  0  0  0
    0.8774   -0.4715   -0.5731 H   0  0  0  0  0  0  0  0  0  0  0  0
    0.9633    0.5979    2.2549 H   0  0  0  0  0  0  0  0  0  0  0  0
    3.0576    3.1381    0.9281 H   0  0  0  0  0  0  0  0  0  0  0  0
    2.4415    1.5141    3.3147 H   0  0  0  0  0  0  0  0  0  0  0  0
    1.3811    2.5784    2.4987 H   0  0  0  0  0  0  0  0  0  0  0  0
    4.9326    2.4903    2.4111 H   0  0  0  0  0  0  0  0  0  0  0  0
    4.3633    0.8248    2.4557 H   0  0  0  0  0  0  0  0  0  0  0  0
    4.8154   -0.6682    0.6102 H   0  0  0  0  0  0  0  0  0  0  0  0
    6.2537   -1.2441   -1.3627 H   0  0  0  0  0  0  0  0  0  0  0  0
    8.7376    0.1672   -2.6077 H   0  0  0  0  0  0  0  0  0  0  0  0
    7.4384    2.7773   -1.6518 H   0  0  0  0  0  0  0  0  0  0  0  0
    6.0023    3.3536    0.3175 H   0  0  0  0  0  0  0  0  0  0  0  0
   -1.8003   -1.3157   -0.9868 H   0  0  0  0  0  0  0  0  0  0  0  0
   -3.3819    0.3356    1.0168 H   0  0  0  0  0  0  0  0  0  0  0  0
   -3.6555   -0.0016   -1.9943 H   0  0  0  0  0  0  0  0  0  0  0  0
   -2.9458    1.4326   -1.1864 H   0  0  0  0  0  0  0  0  0  0  0  0
   -4.4903    2.7696    0.3195 H   0  0  0  0  0  0  0  0  0  0  0  0
   -6.7303    3.7500    0.3777 H   0  0  0  0  0  0  0  0  0  0  0  0
   -8.6310    2.7436   -0.8986 H   0  0  0  0  0  0  0  0  0  0  0  0
   -8.1968    0.7458   -2.2145 H   0  0  0  0  0  0  0  0  0  0  0  0
   -5.9393   -0.2762   -2.2980 H   0  0  0  0  0  0  0  0  0  0  0  0
   -5.7892   -0.8438    1.2780 H   0  0  0  0  0  0  0  0  0  0  0  0
   -6.1920   -2.0666   -0.0449 H   0  0  0  0  0  0  0  0  0  0  0  0
  1  2  1  0
  2  3  1  0
  2  4  1  0
  4  5  1  0
  5  6  1  0
  6  7  1  0
  7  8  2  0
  7  9  1  0
  9 10  1  0
  9 11  1  0
 11 12  1  0
 12 13  2  0
 13 14  1  0
 14 15  2  0
 15 16  1  0
 15 17  1  0
 17 18  2  0
  5 19  1  0
 19 20  2  0
 19 21  1  0
 21 22  1  0
 22 23  1  0
 23 24  1  0
 24 25  2  0
 25 26  1  0
 26 27  2  0
 27 28  1  0
 28 29  2  0
 22 30  1  0
 30 31  1  0
 30 32  2  0
 18 12  1  0
 29 24  1  0
  1 33  1  0
  1 34  1  0
  1 35  1  0
  2 36  1  0
  3 37  1  0
  3 38  1  0
  3 39  1  0
  4 40  1  0
  4 41  1  0
  5 42  1  6
  6 43  1  0
  9 44  1  6
 10 45  1  0
 10 46  1  0
 11 47  1  0
 11 48  1  0
 13 49  1  0
 14 50  1  0
 16 51  1  0
 17 52  1  0
 18 53  1  0
 21 54  1  0
 22 55  1  1
 23 56  1  0
 23 57  1  0
 25 58  1  0
 26 59  1  0
 27 60  1  0
 28 61  1  0
 29 62  1  0
 31 63  1  0
 31 64  1  0
M  END
$$$$
[H]c1nc2c(C([H])([H])[H])c([H])c(-c3c(C([H])(C([H])([H])[H])C([H])([H])[H])c4c([H])c(C5([H])C([H])([H])C([H])([H])N(C6([H])C([H])([H])OC6([H])[H])C([H])([H])C5([H])[H])c([H])c([H])c4n3[H])c([H])n2n1
     RDKit          3D

 63 68  0  0  0  0  0  0  0  0999 V2000
   -1.5579    2.8064   -0.6545 C   0  0  0  0  0  0  0  0  0  0  0  0
   -2.2132    1.6947    0.1470 C   0  0  0  0  0  0  0  0  0  0  0  0
   -1.5224    1.6942    1.5372 C   0  0  0  0  0  0  0  0  0  0  0  0
   -1.9568    0.3755   -0.4815 C   0  0  0  0  0  0  0  0  0  0  0  0
   -2.9658   -0.5726   -0.6979 C   0  0  0  0  0  0  0  0  0  0  0  0
   -2.3963   -1.6912   -1.1564 N   0  0  0  0  0  0  0  0  0  0  0  0
   -1.0507   -1.5280   -1.2546 C   0  0  0  0  0  0  0  0  0  0  0  0
   -0.0786   -2.4252   -1.5899 C   0  0  0  0  0  0  0  0  0  0  0  0
    1.2198   -2.0055   -1.4754 C   0  0  0  0  0  0  0  0  0  0  0  0
    1.5455   -0.7304   -1.0374 C   0  0  0  0  0  0  0  0  0  0  0  0
    0.5377    0.1505   -0.7205 C   0  0  0  0  0  0  0  0  0  0  0  0
   -0.7899   -0.2369   -0.8279 C   0  0  0  0  0  0  0  0  0  0  0  0
    2.9907   -0.4616   -0.7844 C   0  0  0  0  0  0  0  0  0  0  0  0
    3.2694    0.8203   -0.0915 C   0  0  0  0  0  0  0  0  0  0  0  0
    4.7355    0.8597    0.3517 C   0  0  0  0  0  0  0  0  0  0  0  0
    5.4089   -0.2851   -0.2286 N   0  0  0  0  0  0  0  0  0  0  0  0
    4.8600   -1.5094    0.3984 C   0  0  0  0  0  0  0  0  0  0  0  0
    3.4037   -1.5536    0.2798 C   0  0  0  0  0  0  0  0  0  0  0  0
    6.8237   -0.3252   -0.0221 C   0  0  0  0  0  0  0  0  0  0  0  0
    7.6714    0.7832   -0.5067 C   0  0  0  0  0  0  0  0  0  0  0  0
    8.5781    0.4443    0.5315 O   0  0  0  0  0  0  0  0  0  0  0  0
    7.4432    0.0161    1.2659 C   0  0  0  0  0  0  0  0  0  0  0  0
   -4.3483   -0.3288   -0.3178 C   0  0  0  0  0  0  0  0  0  0  0  0
   -4.9426   -1.0825    0.6656 C   0  0  0  0  0  0  0  0  0  0  0  0
   -6.2555   -0.8940    0.9651 C   0  0  0  0  0  0  0  0  0  0  0  0
   -6.9308   -1.6439    2.0609 C   0  0  0  0  0  0  0  0  0  0  0  0
   -6.9876    0.0619    0.2680 C   0  0  0  0  0  0  0  0  0  0  0  0
   -8.2808    0.4428    0.3340 N   0  0  0  0  0  0  0  0  0  0  0  0
   -8.4944    1.3946   -0.5791 C   0  0  0  0  0  0  0  0  0  0  0  0
   -7.3087    1.6227   -1.2302 N   0  0  0  0  0  0  0  0  0  0  0  0
   -6.4217    0.7908   -0.6856 N   0  0  0  0  0  0  0  0  0  0  0  0
   -5.1318    0.6083   -0.9790 C   0  0  0  0  0  0  0  0  0  0  0  0
   -2.0067    3.8083   -0.3542 H   0  0  0  0  0  0  0  0  0  0  0  0
   -1.9878    2.6551   -1.7003 H   0  0  0  0  0  0  0  0  0  0  0  0
   -0.5092    2.8224   -0.6953 H   0  0  0  0  0  0  0  0  0  0  0  0
   -3.2447    1.8993    0.2927 H   0  0  0  0  0  0  0  0  0  0  0  0
   -0.5920    2.3356    1.4489 H   0  0  0  0  0  0  0  0  0  0  0  0
   -1.3065    0.6663    1.7842 H   0  0  0  0  0  0  0  0  0  0  0  0
   -2.1430    2.1677    2.2812 H   0  0  0  0  0  0  0  0  0  0  0  0
   -2.9128   -2.5713   -1.4224 H   0  0  0  0  0  0  0  0  0  0  0  0
   -0.2566   -3.4422   -1.9363 H   0  0  0  0  0  0  0  0  0  0  0  0
    2.0207   -2.7179   -1.7508 H   0  0  0  0  0  0  0  0  0  0  0  0
    0.8035    1.1128   -0.3732 H   0  0  0  0  0  0  0  0  0  0  0  0
    3.5834   -0.6856   -1.6700 H   0  0  0  0  0  0  0  0  0  0  0  0
    2.6847    0.7798    0.8800 H   0  0  0  0  0  0  0  0  0  0  0  0
    2.9716    1.7273   -0.6489 H   0  0  0  0  0  0  0  0  0  0  0  0
    5.1647    1.7541   -0.1777 H   0  0  0  0  0  0  0  0  0  0  0  0
    4.8306    0.9410    1.4364 H   0  0  0  0  0  0  0  0  0  0  0  0
    5.3317   -2.3547   -0.1253 H   0  0  0  0  0  0  0  0  0  0  0  0
    5.1838   -1.5355    1.4738 H   0  0  0  0  0  0  0  0  0  0  0  0
    2.9434   -2.4920   -0.0052 H   0  0  0  0  0  0  0  0  0  0  0  0
    2.8671   -1.1754    1.1956 H   0  0  0  0  0  0  0  0  0  0  0  0
    7.2254   -1.3041   -0.4158 H   0  0  0  0  0  0  0  0  0  0  0  0
    8.0199    0.6223   -1.5208 H   0  0  0  0  0  0  0  0  0  0  0  0
    7.3267    1.8181   -0.2761 H   0  0  0  0  0  0  0  0  0  0  0  0
    7.7892   -0.8403    1.8967 H   0  0  0  0  0  0  0  0  0  0  0  0
    7.0431    0.8546    1.8412 H   0  0  0  0  0  0  0  0  0  0  0  0
   -4.3667   -1.8186    1.2008 H   0  0  0  0  0  0  0  0  0  0  0  0
   -7.5989   -0.9323    2.6054 H   0  0  0  0  0  0  0  0  0  0  0  0
   -6.1334   -2.0361    2.7498 H   0  0  0  0  0  0  0  0  0  0  0  0
   -7.5048   -2.4858    1.6766 H   0  0  0  0  0  0  0  0  0  0  0  0
   -9.4002    1.9282   -0.8254 H   0  0  0  0  0  0  0  0  0  0  0  0
   -4.6799    1.2071   -1.7459 H   0  0  0  0  0  0  0  0  0  0  0  0
  1  2  1  0
  2  3  1  0
  2  4  1  0
  4  5  2  0
  5  6  1  0
  6  7  1  0
  7  8  2  0
  8  9  1  0
  9 10  2  0
 10 11  1  0
 11 12  2  0
 10 13  1  0
 13 14  1  0
 14 15  1  0
 15 16  1  0
 16 17  1  0
 17 18  1  0
 16 19  1  0
 19 20  1  0
 20 21  1  0
 21 22  1  0
  5 23  1  0
 23 24  1  0
 24 25  2  0
 25 26  1  0
 25 27  1  0
 27 28  2  0
 28 29  1  0
 29 30  2  0
 30 31  1  0
 31 32  1  0
 12  4  1  0
 18 13  1  0
 22 19  1  0
 32 23  2  0
 12  7  1  0
 31 27  1  0
  1 33  1  0
  1 34  1  0
  1 35  1  0
  2 36  1  0
  3 37  1  0
  3 38  1  0
  3 39  1  0
  6 40  1  0
  8 41  1  0
  9 42  1  0
 11 43  1  0
 13 44  1  0
 14 45  1  0
 14 46  1  0
 15 47  1  0
 15 48  1  0
 17 49  1  0
 17 50  1  0
 18 51  1  0
 18 52  1  0
 19 53  1  0
 20 54  1  0
 20 55  1  0
 22 56  1  0
 22 57  1  0
 24 58  1  0
 26 59  1  0
 26 60  1  0
 26 61  1  0
 29 62  1  0
 32 63  1  0
M  END
$$$$
[H]OC(=O)C([H])([H])Oc1c([H])c2c(c3c1c(C(=O)C(=O)N([H])[H])c(C([H])([H])C([H])([H])[H])n3C([H])([H])c1c([H])c([H])c([H])c([H])c1[H])C([H])([H])C([H])([H])C2([H])[H]
     RDKit          3D

 55 58  0  0  0  0  0  0  0  0999 V2000
    0.5989   -2.6901    3.0774 C   0  0  0  0  0  0  0  0  0  0  0  0
    1.1072   -2.5102    1.6475 C   0  0  0  0  0  0  0  0  0  0  0  0
    0.4714   -1.3364    0.9983 C   0  0  0  0  0  0  0  0  0  0  0  0
   -0.8282   -1.3976    0.5436 C   0  0  0  0  0  0  0  0  0  0  0  0
   -1.7244   -2.5494    0.5772 C   0  0  0  0  0  0  0  0  0  0  0  0
   -2.4444   -2.6878    1.5946 O   0  0  0  0  0  0  0  0  0  0  0  0
   -1.8194   -3.5247   -0.4920 C   0  0  0  0  0  0  0  0  0  0  0  0
   -2.7174   -4.6101   -0.3726 N   0  0  0  0  0  0  0  0  0  0  0  0
   -1.1353   -3.4636   -1.5462 O   0  0  0  0  0  0  0  0  0  0  0  0
   -1.0894   -0.1292    0.0536 C   0  0  0  0  0  0  0  0  0  0  0  0
   -2.2625    0.3715   -0.5222 C   0  0  0  0  0  0  0  0  0  0  0  0
   -3.3198   -0.4947   -0.6428 O   0  0  0  0  0  0  0  0  0  0  0  0
   -4.5842   -0.2684   -1.1530 C   0  0  0  0  0  0  0  0  0  0  0  0
   -5.3023    0.7359   -0.3416 C   0  0  0  0  0  0  0  0  0  0  0  0
   -4.7821    1.2717    0.8219 O   0  0  0  0  0  0  0  0  0  0  0  0
   -6.4579    1.1510   -0.6951 O   0  0  0  0  0  0  0  0  0  0  0  0
   -2.3135    1.6842   -0.9408 C   0  0  0  0  0  0  0  0  0  0  0  0
   -1.2056    2.4921   -0.7862 C   0  0  0  0  0  0  0  0  0  0  0  0
   -1.0152    3.9549   -1.1519 C   0  0  0  0  0  0  0  0  0  0  0  0
    0.0577    4.3239   -0.1110 C   0  0  0  0  0  0  0  0  0  0  0  0
    0.9038    3.0831   -0.1922 C   0  0  0  0  0  0  0  0  0  0  0  0
   -0.0488    1.9967   -0.2182 C   0  0  0  0  0  0  0  0  0  0  0  0
    0.0231    0.6639    0.2119 C   0  0  0  0  0  0  0  0  0  0  0  0
    0.9882   -0.0719    0.7903 N   0  0  0  0  0  0  0  0  0  0  0  0
    2.3220    0.2906    1.1290 C   0  0  0  0  0  0  0  0  0  0  0  0
    3.3390    0.2036    0.0708 C   0  0  0  0  0  0  0  0  0  0  0  0
    3.5186   -0.9194   -0.6768 C   0  0  0  0  0  0  0  0  0  0  0  0
    4.5231   -1.0115   -1.6483 C   0  0  0  0  0  0  0  0  0  0  0  0
    5.3558    0.0391   -1.8695 C   0  0  0  0  0  0  0  0  0  0  0  0
    5.1707    1.1701   -1.1131 C   0  0  0  0  0  0  0  0  0  0  0  0
    4.1919    1.2661   -0.1631 C   0  0  0  0  0  0  0  0  0  0  0  0
    1.4352   -2.7953    3.8038 H   0  0  0  0  0  0  0  0  0  0  0  0
    0.0091   -3.6287    3.1656 H   0  0  0  0  0  0  0  0  0  0  0  0
    0.0004   -1.7897    3.3210 H   0  0  0  0  0  0  0  0  0  0  0  0
    2.1909   -2.4703    1.7080 H   0  0  0  0  0  0  0  0  0  0  0  0
    0.8540   -3.4428    1.0629 H   0  0  0  0  0  0  0  0  0  0  0  0
   -2.3386   -5.5923   -0.2501 H   0  0  0  0  0  0  0  0  0  0  0  0
   -3.7596   -4.5275   -0.3947 H   0  0  0  0  0  0  0  0  0  0  0  0
   -5.1536   -1.2406   -1.0556 H   0  0  0  0  0  0  0  0  0  0  0  0
   -4.5864   -0.0016   -2.2399 H   0  0  0  0  0  0  0  0  0  0  0  0
   -4.4156    0.6576    1.5287 H   0  0  0  0  0  0  0  0  0  0  0  0
   -3.2213    2.0968   -1.4047 H   0  0  0  0  0  0  0  0  0  0  0  0
   -1.9142    4.5309   -0.8613 H   0  0  0  0  0  0  0  0  0  0  0  0
   -0.6642    4.0858   -2.1690 H   0  0  0  0  0  0  0  0  0  0  0  0
    0.5595    5.2196   -0.4880 H   0  0  0  0  0  0  0  0  0  0  0  0
   -0.4065    4.4882    0.8790 H   0  0  0  0  0  0  0  0  0  0  0  0
    1.3744    3.1214   -1.2249 H   0  0  0  0  0  0  0  0  0  0  0  0
    1.7405    3.0704    0.4903 H   0  0  0  0  0  0  0  0  0  0  0  0
    2.3995    1.2206    1.7327 H   0  0  0  0  0  0  0  0  0  0  0  0
    2.7001   -0.4752    1.8951 H   0  0  0  0  0  0  0  0  0  0  0  0
    2.9206   -1.8092   -0.5995 H   0  0  0  0  0  0  0  0  0  0  0  0
    4.6317   -1.9344   -2.2268 H   0  0  0  0  0  0  0  0  0  0  0  0
    6.1495   -0.0199   -2.6293 H   0  0  0  0  0  0  0  0  0  0  0  0
    5.8597    2.0023   -1.3160 H   0  0  0  0  0  0  0  0  0  0  0  0
    4.1139    2.2001    0.3928 H   0  0  0  0  0  0  0  0  0  0  0  0
  1  2  1  0
  2  3  1  0
  3  4  2  0
  4  5  1  0
  5  6  2  0
  5  7  1  0
  7  8  1  0
  7  9  2  0
  4 10  1  0
 10 11  2  0
 11 12  1  0
 12 13  1  0
 13 14  1  0
 14 15  1  0
 14 16  2  0
 11 17  1  0
 17 18  2  0
 18 19  1  0
 19 20  1  0
 20 21  1  0
 21 22  1  0
 22 23  2  0
 23 24  1  0
 24 25  1  0
 25 26  1  0
 26 27  2  0
 27 28  1  0
 28 29  2  0
 29 30  1  0
 30 31  2  0
 24  3  1  0
 31 26  1  0
 23 10  1  0
 22 18  1  0
  1 32  1  0
  1 33  1  0
  1 34  1  0
  2 35  1  0
  2 36  1  0
  8 37  1  0
  8 38  1  0
 13 39  1  0
 13 40  1  0
 15 41  1  0
 17 42  1  0
 19 43  1  0
 19 44  1  0
 20 45  1  0
 20 46  1  0
 21 47  1  0
 21 48  1  0
 25 49  1  0
 25 50  1  0
 27 51  1  0
 28 52  1  0
 29 53  1  0
 30 54  1  0
 31 55  1  0
M  END
$$$$
[H]c1nc2c(c(Oc3c([H])c([H])c(N([H])C(=O)N([H])c4c([H])c(C(C([H])([H])[H])(C([H])([H])[H])C([H])([H])[H])nn4-c4c([H])c([H])c(OC([H])([H])[H])c([H])c4[H])c4c([H])c([H])c([H])c([H])c34)c1[H])n(C([H])([H])[H])c(=O)n2[H]
     RDKit          3D

 74 79  0  0  0  0  0  0  0  0999 V2000
    7.7803    5.2640    2.5743 C   0  0  0  0  0  0  0  0  0  0  0  0
    7.3726    5.0401    1.2383 O   0  0  0  0  0  0  0  0  0  0  0  0
    6.6945    3.8847    0.8774 C   0  0  0  0  0  0  0  0  0  0  0  0
    6.2964    3.6793   -0.4478 C   0  0  0  0  0  0  0  0  0  0  0  0
    5.6120    2.5071   -0.7902 C   0  0  0  0  0  0  0  0  0  0  0  0
    5.3324    1.5621    0.1687 C   0  0  0  0  0  0  0  0  0  0  0  0
    5.7388    1.7983    1.4549 C   0  0  0  0  0  0  0  0  0  0  0  0
    6.4167    2.9477    1.8246 C   0  0  0  0  0  0  0  0  0  0  0  0
    4.6299    0.3778   -0.1791 N   0  0  0  0  0  0  0  0  0  0  0  0
    5.1712   -0.7244   -0.6345 N   0  0  0  0  0  0  0  0  0  0  0  0
    4.2719   -1.6621   -0.8830 C   0  0  0  0  0  0  0  0  0  0  0  0
    3.0476   -1.0468   -0.5338 C   0  0  0  0  0  0  0  0  0  0  0  0
    3.2436    0.2262   -0.0919 C   0  0  0  0  0  0  0  0  0  0  0  0
    2.4077    1.2086    0.3941 N   0  0  0  0  0  0  0  0  0  0  0  0
    1.0212    1.3031    0.4485 C   0  0  0  0  0  0  0  0  0  0  0  0
    0.5130    2.3398    1.0642 O   0  0  0  0  0  0  0  0  0  0  0  0
    0.0451    0.4348   -0.0765 N   0  0  0  0  0  0  0  0  0  0  0  0
   -1.3405    0.5835    0.0437 C   0  0  0  0  0  0  0  0  0  0  0  0
   -1.9828    1.3442    0.9620 C   0  0  0  0  0  0  0  0  0  0  0  0
   -3.3768    1.3872    1.0856 C   0  0  0  0  0  0  0  0  0  0  0  0
   -4.1712    0.6362    0.2570 C   0  0  0  0  0  0  0  0  0  0  0  0
   -5.5527    0.7180    0.4326 O   0  0  0  0  0  0  0  0  0  0  0  0
   -6.2737   -0.3616    0.9504 C   0  0  0  0  0  0  0  0  0  0  0  0
   -5.6801   -1.5128    1.4222 C   0  0  0  0  0  0  0  0  0  0  0  0
   -6.4099   -2.5811    1.9324 C   0  0  0  0  0  0  0  0  0  0  0  0
   -7.7423   -2.5062    1.9759 N   0  0  0  0  0  0  0  0  0  0  0  0
   -8.3472   -1.3954    1.5231 C   0  0  0  0  0  0  0  0  0  0  0  0
   -9.6610   -1.0629    1.4538 N   0  0  0  0  0  0  0  0  0  0  0  0
   -9.8130    0.1597    0.9261 C   0  0  0  0  0  0  0  0  0  0  0  0
  -10.8994    0.7499    0.7289 O   0  0  0  0  0  0  0  0  0  0  0  0
   -8.5666    0.6015    0.6607 N   0  0  0  0  0  0  0  0  0  0  0  0
   -8.2590    1.8878    0.0822 C   0  0  0  0  0  0  0  0  0  0  0  0
   -7.6559   -0.3298    1.0156 C   0  0  0  0  0  0  0  0  0  0  0  0
   -3.5420   -0.1355   -0.6792 C   0  0  0  0  0  0  0  0  0  0  0  0
   -4.3312   -0.8560   -1.5493 C   0  0  0  0  0  0  0  0  0  0  0  0
   -3.7397   -1.6171   -2.5328 C   0  0  0  0  0  0  0  0  0  0  0  0
   -2.3845   -1.6781   -2.6733 C   0  0  0  0  0  0  0  0  0  0  0  0
   -1.5680   -0.9444   -1.7928 C   0  0  0  0  0  0  0  0  0  0  0  0
   -2.1526   -0.1865   -0.8126 C   0  0  0  0  0  0  0  0  0  0  0  0
    4.3912   -3.0508   -1.3983 C   0  0  0  0  0  0  0  0  0  0  0  0
    3.6929   -3.1838   -2.7401 C   0  0  0  0  0  0  0  0  0  0  0  0
    5.8511   -3.3925   -1.5929 C   0  0  0  0  0  0  0  0  0  0  0  0
    3.7347   -4.0486   -0.4751 C   0  0  0  0  0  0  0  0  0  0  0  0
    8.2455    6.2760    2.6256 H   0  0  0  0  0  0  0  0  0  0  0  0
    6.8713    5.3111    3.2392 H   0  0  0  0  0  0  0  0  0  0  0  0
    8.4727    4.4938    2.9194 H   0  0  0  0  0  0  0  0  0  0  0  0
    6.5258    4.4378   -1.1822 H   0  0  0  0  0  0  0  0  0  0  0  0
    5.3330    2.4199   -1.8302 H   0  0  0  0  0  0  0  0  0  0  0  0
    5.5194    1.0520    2.2130 H   0  0  0  0  0  0  0  0  0  0  0  0
    6.7389    3.1361    2.8462 H   0  0  0  0  0  0  0  0  0  0  0  0
    2.1145   -1.5841   -0.6125 H   0  0  0  0  0  0  0  0  0  0  0  0
    2.9071    2.0512    0.8798 H   0  0  0  0  0  0  0  0  0  0  0  0
    0.4686   -0.3778   -0.5896 H   0  0  0  0  0  0  0  0  0  0  0  0
   -1.4612    1.9495    1.6755 H   0  0  0  0  0  0  0  0  0  0  0  0
   -3.8485    2.0222    1.8482 H   0  0  0  0  0  0  0  0  0  0  0  0
   -4.5911   -1.6214    1.4189 H   0  0  0  0  0  0  0  0  0  0  0  0
   -5.8606   -3.4549    2.2821 H   0  0  0  0  0  0  0  0  0  0  0  0
  -10.4285   -1.7157    1.7854 H   0  0  0  0  0  0  0  0  0  0  0  0
   -7.4308    2.3315    0.6502 H   0  0  0  0  0  0  0  0  0  0  0  0
   -7.9848    1.7378   -0.9959 H   0  0  0  0  0  0  0  0  0  0  0  0
   -9.1317    2.5689    0.1734 H   0  0  0  0  0  0  0  0  0  0  0  0
   -5.4093   -0.8216   -1.4950 H   0  0  0  0  0  0  0  0  0  0  0  0
   -4.3530   -2.2015   -3.2408 H   0  0  0  0  0  0  0  0  0  0  0  0
   -1.8802   -2.2743   -3.4498 H   0  0  0  0  0  0  0  0  0  0  0  0
   -0.5140   -0.9992   -1.9272 H   0  0  0  0  0  0  0  0  0  0  0  0
    2.5812   -3.2539   -2.6136 H   0  0  0  0  0  0  0  0  0  0  0  0
    3.9995   -4.1613   -3.1612 H   0  0  0  0  0  0  0  0  0  0  0  0
    3.9859   -2.4005   -3.4527 H   0  0  0  0  0  0  0  0  0  0  0  0
    6.2297   -2.7658   -2.4451 H   0  0  0  0  0  0  0  0  0  0  0  0
    5.9569   -4.4521   -1.8519 H   0  0  0  0  0  0  0  0  0  0  0  0
    6.4227   -3.1245   -0.6677 H   0  0  0  0  0  0  0  0  0  0  0  0
    2.8080   -3.6616   -0.0238 H   0  0  0  0  0  0  0  0  0  0  0  0
    3.4658   -4.9875   -0.9936 H   0  0  0  0  0  0  0  0  0  0  0  0
    4.4322   -4.2954    0.3623 H   0  0  0  0  0  0  0  0  0  0  0  0
  1  2  1  0
  2  3  1  0
  3  4  2  0
  4  5  1  0
  5  6  2  0
  6  7  1  0
  7  8  2  0
  6  9  1  0
  9 10  1  0
 10 11  2  0
 11 12  1  0
 12 13  2  0
 13 14  1  0
 14 15  1  0
 15 16  2  0
 15 17  1  0
 17 18  1  0
 18 19  2  0
 19 20  1  0
 20 21  2  0
 21 22  1  0
 22 23  1  0
 23 24  2  0
 24 25  1  0
 25 26  2  0
 26 27  1  0
 27 28  1  0
 28 29  1  0
 29 30  2  0
 29 31  1  0
 31 32  1  0
 31 33  1  0
 21 34  1  0
 34 35  2  0
 35 36  1  0
 36 37  2  0
 37 38  1  0
 38 39  2  0
 11 40  1  0
 40 41  1  0
 40 42  1  0
 40 43  1  0
  8  3  1  0
 13  9  1  0
 39 18  1  0
 33 23  1  0
 39 34  1  0
 33 27  2  0
  1 44  1  0
  1 45  1  0
  1 46  1  0
  4 47  1  0
  5 48  1  0
  7 49  1  0
  8 50  1  0
 12 51  1  0
 14 52  1  0
 17 53  1  0
 19 54  1  0
 20 55  1  0
 24 56  1  0
 25 57  1  0
 28 58  1  0
 32 59  1  0
 32 60  1  0
 32 61  1  0
 35 62  1  0
 36 63  1  0
 37 64  1  0
 38 65  1  0
 41 66  1  0
 41 67  1  0
 41 68  1  0
 42 69  1  0
 42 70  1  0
 42 71  1  0
 43 72  1  0
 43 73  1  0
 43 74  1  0
M  END
$$$$
[H]O[C@]1([H])[C@@]([H])(C([H])([H])OP(=O)(O[H])OP(=O)(O[H])OP(=O)(O[H])OC([H])([H])[C@]2([H])[C@@]([H])(O[H])[C@@]([H])(O[H])[C@]2([H])O[H])O[C@@]([H])(n2c([H])nc3c(N([H])[H])nc([H])nc32)[C@]1([H])O[H]
     RDKit          3D

 63 66  0  0  0  0  0  0  0  0999 V2000
    7.9436   -2.1095   -1.1870 O   0  0  0  0  0  0  0  0  0  0  0  0
    7.3646   -1.6795    0.0234 C   0  0  2  0  0  0  0  0  0  0  0  0
    7.1676   -0.1715   -0.0775 C   0  0  1  0  0  0  0  0  0  0  0  0
    5.8898    0.2455    0.5307 C   0  0  0  0  0  0  0  0  0  0  0  0
    5.7447    1.6370    0.3467 O   0  0  0  0  0  0  0  0  0  0  0  0
    4.2752    1.7397   -0.5495 P   0  0  0  0  0  0  0  0  0  0  0  0
    4.6193    2.9117   -1.7678 O   0  0  0  0  0  0  0  0  0  0  0  0
    4.1150    0.4039   -1.2967 O   0  0  0  0  0  0  0  0  0  0  0  0
    2.9979    2.1521    0.3247 O   0  0  0  0  0  0  0  0  0  0  0  0
    1.8040    0.9287    0.4073 P   0  0  0  0  0  0  0  0  0  0  0  0
    1.5729    0.7235    2.1060 O   0  0  0  0  0  0  0  0  0  0  0  0
    2.2507   -0.3677   -0.1940 O   0  0  0  0  0  0  0  0  0  0  0  0
    0.4166    1.4273   -0.2716 O   0  0  0  0  0  0  0  0  0  0  0  0
    0.0922    1.1457   -1.8578 P   0  0  0  0  0  0  0  0  0  0  0  0
   -0.4679    2.6998   -2.5091 O   0  0  0  0  0  0  0  0  0  0  0  0
    1.1804    0.6960   -2.6878 O   0  0  0  0  0  0  0  0  0  0  0  0
   -1.3497    0.1704   -2.0573 O   0  0  0  0  0  0  0  0  0  0  0  0
   -1.6185   -0.2482   -0.7157 C   0  0  0  0  0  0  0  0  0  0  0  0
   -2.8605    0.3947   -0.2514 C   0  0  1  0  0  0  0  0  0  0  0  0
   -4.0954    0.1382   -0.6150 O   0  0  0  0  0  0  0  0  0  0  0  0
   -4.9071    0.7204    0.3714 C   0  0  2  0  0  0  0  0  0  0  0  0
   -4.1594    0.2168    1.6283 C   0  0  2  0  0  0  0  0  0  0  0  0
   -4.5402    0.8751    2.7713 O   0  0  0  0  0  0  0  0  0  0  0  0
   -2.7503    0.5913    1.2586 C   0  0  2  0  0  0  0  0  0  0  0  0
   -2.6495    1.9885    1.5555 O   0  0  0  0  0  0  0  0  0  0  0  0
   -6.2446    0.1499    0.4196 N   0  0  0  0  0  0  0  0  0  0  0  0
   -6.9850    0.1812    1.5633 C   0  0  0  0  0  0  0  0  0  0  0  0
   -8.0673   -0.4907    1.3561 N   0  0  0  0  0  0  0  0  0  0  0  0
   -8.0708   -0.9917    0.1383 C   0  0  0  0  0  0  0  0  0  0  0  0
   -9.0209   -1.7896   -0.4683 C   0  0  0  0  0  0  0  0  0  0  0  0
  -10.1463   -2.3226    0.2753 N   0  0  0  0  0  0  0  0  0  0  0  0
   -8.7602   -2.1383   -1.7726 N   0  0  0  0  0  0  0  0  0  0  0  0
   -7.5970   -1.6860   -2.3383 C   0  0  0  0  0  0  0  0  0  0  0  0
   -6.6705   -0.9279   -1.7342 N   0  0  0  0  0  0  0  0  0  0  0  0
   -6.9021   -0.5549   -0.4548 C   0  0  0  0  0  0  0  0  0  0  0  0
    8.4486    0.0285    0.5999 C   0  0  1  0  0  0  0  0  0  0  0  0
    8.5433    0.9502    1.6405 O   0  0  0  0  0  0  0  0  0  0  0  0
    8.3804   -1.4231    1.0731 C   0  0  2  0  0  0  0  0  0  0  0  0
    9.5987   -2.0683    0.8304 O   0  0  0  0  0  0  0  0  0  0  0  0
    8.7982   -1.6694   -1.3229 H   0  0  0  0  0  0  0  0  0  0  0  0
    6.4508   -2.2483    0.2988 H   0  0  0  0  0  0  0  0  0  0  0  0
    7.2033    0.1685   -1.1818 H   0  0  0  0  0  0  0  0  0  0  0  0
    6.0548    0.1474    1.6844 H   0  0  0  0  0  0  0  0  0  0  0  0
    5.0189   -0.2909    0.3155 H   0  0  0  0  0  0  0  0  0  0  0  0
    4.3989    2.5079   -2.6713 H   0  0  0  0  0  0  0  0  0  0  0  0
    1.9058   -0.1739    2.3804 H   0  0  0  0  0  0  0  0  0  0  0  0
   -1.0163    3.1051   -1.7531 H   0  0  0  0  0  0  0  0  0  0  0  0
   -0.7178   -0.1823   -0.1307 H   0  0  0  0  0  0  0  0  0  0  0  0
   -1.8193   -1.3892   -0.8987 H   0  0  0  0  0  0  0  0  0  0  0  0
   -2.6455    1.5304   -0.6637 H   0  0  0  0  0  0  0  0  0  0  0  0
   -4.8345    1.7870    0.3016 H   0  0  0  0  0  0  0  0  0  0  0  0
   -4.3331   -0.8870    1.6495 H   0  0  0  0  0  0  0  0  0  0  0  0
   -4.6981    0.1376    3.4643 H   0  0  0  0  0  0  0  0  0  0  0  0
   -1.9793    0.0030    1.7414 H   0  0  0  0  0  0  0  0  0  0  0  0
   -2.0600    2.1232    2.3147 H   0  0  0  0  0  0  0  0  0  0  0  0
   -6.7558    0.7252    2.4963 H   0  0  0  0  0  0  0  0  0  0  0  0
  -10.7272   -1.6519    0.7537 H   0  0  0  0  0  0  0  0  0  0  0  0
  -10.2952   -3.3376    0.3293 H   0  0  0  0  0  0  0  0  0  0  0  0
   -7.5052   -1.9904   -3.3966 H   0  0  0  0  0  0  0  0  0  0  0  0
    9.2786    0.1377   -0.1639 H   0  0  0  0  0  0  0  0  0  0  0  0
    8.2631    1.8649    1.3313 H   0  0  0  0  0  0  0  0  0  0  0  0
    8.0289   -1.5366    2.0992 H   0  0  0  0  0  0  0  0  0  0  0  0
    9.4438   -3.0271    0.8698 H   0  0  0  0  0  0  0  0  0  0  0  0
  1  2  1  0
  2  3  1  0
  3  4  1  0
  4  5  1  0
  5  6  1  0
  6  7  1  0
  6  8  2  0
  6  9  1  0
  9 10  1  0
 10 11  1  0
 10 12  2  0
 10 13  1  0
 13 14  1  0
 14 15  1  0
 14 16  2  0
 14 17  1  0
 17 18  1  0
 18 19  1  0
 19 20  1  0
 20 21  1  0
 21 22  1  0
 22 23  1  0
 22 24  1  0
 24 25  1  0
 21 26  1  0
 26 27  1  0
 27 28  2  0
 28 29  1  0
 29 30  2  0
 30 31  1  0
 30 32  1  0
 32 33  2  0
 33 34  1  0
 34 35  2  0
  3 36  1  0
 36 37  1  0
 36 38  1  0
 38 39  1  0
 38  2  1  0
 24 19  1  0
 35 26  1  0
 35 29  1  0
  1 40  1  0
  2 41  1  1
  3 42  1  6
  4 43  1  0
  4 44  1  0
  7 45  1  0
 11 46  1  0
 15 47  1  0
 18 48  1  0
 18 49  1  0
 19 50  1  6
 21 51  1  6
 22 52  1  1
 23 53  1  0
 24 54  1  1
 25 55  1  0
 27 56  1  0
 31 57  1  0
 31 58  1  0
 33 59  1  0
 36 60  1  6
 37 61  1  0
 38 62  1  1
 39 63  1  0
M  END
$$$$
[H]OC(=O)[C@@]([H])(N([H])C(=O)[C@@]([H])(C([H])([H])S[H])[C@]1([H])c2c([H])c([H])c([H])c([H])c2C([H])([H])C1([H])[H])C([H])([H])c1c([H])n([H])c2c([H])c([H])c([H])c([H])c12
     RDKit          3D

 53 56  0  0  0  0  0  0  0  0999 V2000
    3.4782   -1.7825   -2.4232 O   0  0  0  0  0  0  0  0  0  0  0  0
    2.1949   -2.0029   -1.9522 C   0  0  0  0  0  0  0  0  0  0  0  0
    1.5180   -2.8711   -2.5693 O   0  0  0  0  0  0  0  0  0  0  0  0
    1.6105   -1.2915   -0.8037 C   0  0  2  0  0  0  0  0  0  0  0  0
    2.3780   -1.4916    0.4862 C   0  0  0  0  0  0  0  0  0  0  0  0
    3.7804   -1.0224    0.4109 C   0  0  0  0  0  0  0  0  0  0  0  0
    4.9153   -1.7668    0.3045 C   0  0  0  0  0  0  0  0  0  0  0  0
    5.9581   -0.9307    0.2736 N   0  0  0  0  0  0  0  0  0  0  0  0
    5.5435    0.3351    0.3561 C   0  0  0  0  0  0  0  0  0  0  0  0
    6.2666    1.5334    0.3622 C   0  0  0  0  0  0  0  0  0  0  0  0
    5.5485    2.7049    0.4604 C   0  0  0  0  0  0  0  0  0  0  0  0
    4.1646    2.6676    0.5485 C   0  0  0  0  0  0  0  0  0  0  0  0
    3.4578    1.4998    0.5428 C   0  0  0  0  0  0  0  0  0  0  0  0
    4.1722    0.3034    0.4436 C   0  0  0  0  0  0  0  0  0  0  0  0
    0.2467   -1.7077   -0.5384 N   0  0  0  0  0  0  0  0  0  0  0  0
   -0.8650   -0.7814   -0.5451 C   0  0  0  0  0  0  0  0  0  0  0  0
   -0.5836    0.3787   -0.7887 O   0  0  0  0  0  0  0  0  0  0  0  0
   -2.2076   -1.2742   -0.2666 C   0  0  1  0  0  0  0  0  0  0  0  0
   -2.3297   -1.7157    1.1829 C   0  0  0  0  0  0  0  0  0  0  0  0
   -2.0148   -0.4378    2.3801 S   0  0  0  0  0  0  0  0  0  0  0  0
   -3.3581   -0.5897   -0.8518 C   0  0  1  0  0  0  0  0  0  0  0  0
   -4.6716   -1.2988   -0.4635 C   0  0  0  0  0  0  0  0  0  0  0  0
   -5.2460   -0.4987    0.6429 C   0  0  0  0  0  0  0  0  0  0  0  0
   -4.7228    0.8983    0.3852 C   0  0  0  0  0  0  0  0  0  0  0  0
   -5.2094    2.0867    0.8715 C   0  0  0  0  0  0  0  0  0  0  0  0
   -4.6813    3.2843    0.4622 C   0  0  0  0  0  0  0  0  0  0  0  0
   -3.6577    3.2239   -0.4464 C   0  0  0  0  0  0  0  0  0  0  0  0
   -3.1642    2.0379   -0.9379 C   0  0  0  0  0  0  0  0  0  0  0  0
   -3.6750    0.7982   -0.5400 C   0  0  0  0  0  0  0  0  0  0  0  0
    3.8043   -0.8259   -2.4891 H   0  0  0  0  0  0  0  0  0  0  0  0
    1.6415   -0.2086   -1.0149 H   0  0  0  0  0  0  0  0  0  0  0  0
    1.8972   -0.9602    1.3259 H   0  0  0  0  0  0  0  0  0  0  0  0
    2.4102   -2.5767    0.7522 H   0  0  0  0  0  0  0  0  0  0  0  0
    4.9200   -2.8643    0.2561 H   0  0  0  0  0  0  0  0  0  0  0  0
    6.9770   -1.2031    0.1958 H   0  0  0  0  0  0  0  0  0  0  0  0
    7.3404    1.5490    0.2930 H   0  0  0  0  0  0  0  0  0  0  0  0
    6.0795    3.6504    0.4679 H   0  0  0  0  0  0  0  0  0  0  0  0
    3.6329    3.6197    0.6254 H   0  0  0  0  0  0  0  0  0  0  0  0
    2.3843    1.4412    0.6096 H   0  0  0  0  0  0  0  0  0  0  0  0
    0.0490   -2.6992   -0.3358 H   0  0  0  0  0  0  0  0  0  0  0  0
   -2.2124   -2.3145   -0.8099 H   0  0  0  0  0  0  0  0  0  0  0  0
   -1.5042   -2.4917    1.3291 H   0  0  0  0  0  0  0  0  0  0  0  0
   -3.2402   -2.2390    1.3820 H   0  0  0  0  0  0  0  0  0  0  0  0
   -1.8034    0.8287    1.8303 H   0  0  0  0  0  0  0  0  0  0  0  0
   -3.3272   -0.6739   -1.9779 H   0  0  0  0  0  0  0  0  0  0  0  0
   -4.4495   -2.3240   -0.1964 H   0  0  0  0  0  0  0  0  0  0  0  0
   -5.3862   -1.3014   -1.3333 H   0  0  0  0  0  0  0  0  0  0  0  0
   -5.0352   -0.8213    1.6480 H   0  0  0  0  0  0  0  0  0  0  0  0
   -6.3748   -0.4389    0.5314 H   0  0  0  0  0  0  0  0  0  0  0  0
   -6.0190    2.1161    1.5882 H   0  0  0  0  0  0  0  0  0  0  0  0
   -5.0613    4.2437    0.8450 H   0  0  0  0  0  0  0  0  0  0  0  0
   -3.2016    4.1358   -0.8073 H   0  0  0  0  0  0  0  0  0  0  0  0
   -2.3677    2.0692   -1.7018 H   0  0  0  0  0  0  0  0  0  0  0  0
  1  2  1  0
  2  3  2  0
  2  4  1  0
  4  5  1  0
  5  6  1  0
  6  7  2  0
  7  8  1  0
  8  9  1  0
  9 10  2  0
 10 11  1  0
 11 12  2  0
 12 13  1  0
 13 14  2  0
  4 15  1  0
 15 16  1  0
 16 17  2  0
 16 18  1  0
 18 19  1  0
 19 20  1  0
 18 21  1  0
 21 22  1  0
 22 23  1  0
 23 24  1  0
 24 25  2  0
 25 26  1  0
 26 27  2  0
 27 28  1  0
 28 29  2  0
 14  6  1  0
 29 21  1  0
 14  9  1  0
 29 24  1  0
  1 30  1  0
  4 31  1  6
  5 32  1  0
  5 33  1  0
  7 34  1  0
  8 35  1  0
 10 36  1  0
 11 37  1  0
 12 38  1  0
 13 39  1  0
 15 40  1  0
 18 41  1  6
 19 42  1  0
 19 43  1  0
 20 44  1  0
 21 45  1  6
 22 46  1  0
 22 47  1  0
 23 48  1  0
 23 49  1  0
 25 50  1  0
 26 51  1  0
 27 52  1  0
 28 53  1  0
M  END
$$$$
[H]O[C@]12C([H])([H])[C@]([H])(C([H])([H])[H])[C@@]([H])(OC([H])([H])[H])[C@@]1(C([H])([H])[H])[C@]1([H])[C@]3(C([H])([H])[H])C(=C([H])C(=O)C([H])([H])C3([H])[H])C([H])([H])C([H])([H])[C@@]21[H]
     RDKit          3D

 50 53  0  0  0  0  0  0  0  0999 V2000
   -2.4251   -2.6584   -0.8624 C   0  0  0  0  0  0  0  0  0  0  0  0
   -1.8081   -1.4213   -1.0203 O   0  0  0  0  0  0  0  0  0  0  0  0
   -2.1488   -0.5824    0.0103 C   0  0  2  0  0  0  0  0  0  0  0  0
   -2.9189    0.6148   -0.4851 C   0  0  1  0  0  0  0  0  0  0  0  0
   -4.0727    0.9582    0.4608 C   0  0  0  0  0  0  0  0  0  0  0  0
   -1.9693    1.7814   -0.4349 C   0  0  0  0  0  0  0  0  0  0  0  0
   -1.1512    1.4672    0.7647 C   0  0  2  0  0  0  0  0  0  0  0  0
   -1.7408    1.9182    1.9350 O   0  0  0  0  0  0  0  0  0  0  0  0
    0.3003    1.5984    0.6292 C   0  0  2  0  0  0  0  0  0  0  0  0
    0.9362    2.4610   -0.3898 C   0  0  0  0  0  0  0  0  0  0  0  0
    2.3981    2.0624   -0.4132 C   0  0  0  0  0  0  0  0  0  0  0  0
    2.5548    0.5633   -0.5239 C   0  0  0  0  0  0  0  0  0  0  0  0
    3.6115    0.1370   -1.2085 C   0  0  0  0  0  0  0  0  0  0  0  0
    3.8875   -1.2648   -1.3949 C   0  0  0  0  0  0  0  0  0  0  0  0
    4.8553   -1.6480   -2.0983 O   0  0  0  0  0  0  0  0  0  0  0  0
    3.0037   -2.2514   -0.7379 C   0  0  0  0  0  0  0  0  0  0  0  0
    1.5992   -1.6964   -0.6758 C   0  0  0  0  0  0  0  0  0  0  0  0
    1.5809   -0.3796    0.1055 C   0  0  1  0  0  0  0  0  0  0  0  0
    2.1041   -0.6834    1.4677 C   0  0  0  0  0  0  0  0  0  0  0  0
    0.2662    0.2026   -0.0207 C   0  0  1  0  0  0  0  0  0  0  0  0
   -0.9212   -0.0598    0.7538 C   0  0  2  0  0  0  0  0  0  0  0  0
   -0.8611   -0.6642    2.1150 C   0  0  0  0  0  0  0  0  0  0  0  0
   -2.0772   -3.0745    0.0985 H   0  0  0  0  0  0  0  0  0  0  0  0
   -2.2308   -3.3460   -1.6883 H   0  0  0  0  0  0  0  0  0  0  0  0
   -3.5442   -2.5497   -0.7935 H   0  0  0  0  0  0  0  0  0  0  0  0
   -2.8311   -1.1232    0.6977 H   0  0  0  0  0  0  0  0  0  0  0  0
   -3.2864    0.4978   -1.5194 H   0  0  0  0  0  0  0  0  0  0  0  0
   -4.1349    2.0634    0.6213 H   0  0  0  0  0  0  0  0  0  0  0  0
   -5.0459    0.6434    0.0568 H   0  0  0  0  0  0  0  0  0  0  0  0
   -3.8306    0.5182    1.4484 H   0  0  0  0  0  0  0  0  0  0  0  0
   -2.5250    2.7216   -0.2403 H   0  0  0  0  0  0  0  0  0  0  0  0
   -1.4325    1.8421   -1.3810 H   0  0  0  0  0  0  0  0  0  0  0  0
   -1.0910    2.4852    2.4227 H   0  0  0  0  0  0  0  0  0  0  0  0
    0.8188    1.6424    1.5867 H   0  0  0  0  0  0  0  0  0  0  0  0
    0.8581    3.5327   -0.2228 H   0  0  0  0  0  0  0  0  0  0  0  0
    0.5590    2.2733   -1.4284 H   0  0  0  0  0  0  0  0  0  0  0  0
    2.7969    2.3070    0.6033 H   0  0  0  0  0  0  0  0  0  0  0  0
    2.9345    2.5583   -1.2163 H   0  0  0  0  0  0  0  0  0  0  0  0
    4.2879    0.8588   -1.6409 H   0  0  0  0  0  0  0  0  0  0  0  0
    2.9440   -3.1680   -1.3706 H   0  0  0  0  0  0  0  0  0  0  0  0
    3.3843   -2.5823    0.2373 H   0  0  0  0  0  0  0  0  0  0  0  0
    1.1964   -1.5834   -1.6796 H   0  0  0  0  0  0  0  0  0  0  0  0
    1.0044   -2.4239   -0.0661 H   0  0  0  0  0  0  0  0  0  0  0  0
    2.0570    0.1433    2.1885 H   0  0  0  0  0  0  0  0  0  0  0  0
    1.7099   -1.6175    1.9183 H   0  0  0  0  0  0  0  0  0  0  0  0
    3.2130   -0.8833    1.3454 H   0  0  0  0  0  0  0  0  0  0  0  0
    0.0033    0.3108   -1.1186 H   0  0  0  0  0  0  0  0  0  0  0  0
   -0.2276   -0.1564    2.8373 H   0  0  0  0  0  0  0  0  0  0  0  0
   -0.6810   -1.7459    1.9975 H   0  0  0  0  0  0  0  0  0  0  0  0
   -1.9099   -0.5986    2.5375 H   0  0  0  0  0  0  0  0  0  0  0  0
  1  2  1  0
  2  3  1  0
  3  4  1  0
  4  5  1  0
  4  6  1  0
  6  7  1  0
  7  8  1  1
  7  9  1  0
  9 10  1  0
 10 11  1  0
 11 12  1  0
 12 13  2  0
 13 14  1  0
 14 15  2  0
 14 16  1  0
 16 17  1  0
 17 18  1  0
 18 19  1  1
 18 20  1  0
 20 21  1  0
 21 22  1  1
 21  3  1  0
 21  7  1  0
 20  9  1  0
 18 12  1  0
  1 23  1  0
  1 24  1  0
  1 25  1  0
  3 26  1  1
  4 27  1  6
  5 28  1  0
  5 29  1  0
  5 30  1  0
  6 31  1  0
  6 32  1  0
  8 33  1  0
  9 34  1  1
 10 35  1  0
 10 36  1  0
 11 37  1  0
 11 38  1  0
 13 39  1  0
 16 40  1  0
 16 41  1  0
 17 42  1  0
 17 43  1  0
 19 44  1  0
 19 45  1  0
 19 46  1  0
 20 47  1  6
 22 48  1  0
 22 49  1  0
 22 50  1  0
M  END
$$$$
[H]N=C(N([H])[H])N([H])C([H])([H])C([H])([H])C([H])([H])[C@@]([H])(C(=O)c1nc2c([H])c([H])c([H])c([H])c2o1)N([H])C(=O)[C@@]1([H])N(C(=O)[C@@]([H])(N([H])C(=O)OC([H])([H])c2c([H])c([H])c([H])c([H])c2[H])C([H])([H])c2c([H])c([H])c([H])c([H])c2[H])C([H])([H])C([H])([H])C1([H])[H]
     RDKit          3D

 87 91  0  0  0  0  0  0  0  0999 V2000
   -7.3417   -2.4012   -1.5485 N   0  0  0  0  0  0  0  0  0  0  0  0
   -6.4471   -3.1393   -0.7308 C   0  0  0  0  0  0  0  0  0  0  0  0
   -5.5984   -3.9535   -1.2968 N   0  0  0  0  0  0  0  0  0  0  0  0
   -6.4719   -3.0069    0.6810 N   0  0  0  0  0  0  0  0  0  0  0  0
   -5.3628   -2.8288    1.5464 C   0  0  0  0  0  0  0  0  0  0  0  0
   -4.6470   -1.5196    1.4778 C   0  0  0  0  0  0  0  0  0  0  0  0
   -4.0558   -1.1721    0.1576 C   0  0  0  0  0  0  0  0  0  0  0  0
   -3.3300    0.1661    0.2134 C   0  0  2  0  0  0  0  0  0  0  0  0
   -2.2471    0.0927    1.1973 N   0  0  0  0  0  0  0  0  0  0  0  0
   -0.8931    0.1767    0.7619 C   0  0  0  0  0  0  0  0  0  0  0  0
   -0.6592    0.3089   -0.4538 O   0  0  0  0  0  0  0  0  0  0  0  0
    0.1949    0.1082    1.7367 C   0  0  2  0  0  0  0  0  0  0  0  0
    0.2409    1.4932    2.4269 C   0  0  0  0  0  0  0  0  0  0  0  0
    0.6521    2.3273    1.2003 C   0  0  0  0  0  0  0  0  0  0  0  0
    1.6229    1.4318    0.4717 C   0  0  0  0  0  0  0  0  0  0  0  0
    1.5049    0.1238    1.0991 N   0  0  0  0  0  0  0  0  0  0  0  0
    2.4969   -0.8914    1.0950 C   0  0  0  0  0  0  0  0  0  0  0  0
    2.2710   -1.9676    1.7037 O   0  0  0  0  0  0  0  0  0  0  0  0
    3.8012   -0.7474    0.4084 C   0  0  2  0  0  0  0  0  0  0  0  0
    3.9057   -1.4973   -0.8884 C   0  0  0  0  0  0  0  0  0  0  0  0
    2.9679   -1.1659   -1.9421 C   0  0  0  0  0  0  0  0  0  0  0  0
    1.7901   -1.8989   -2.0386 C   0  0  0  0  0  0  0  0  0  0  0  0
    0.8844   -1.6247   -3.0499 C   0  0  0  0  0  0  0  0  0  0  0  0
    1.1960   -0.6113   -3.9397 C   0  0  0  0  0  0  0  0  0  0  0  0
    2.3666    0.1129   -3.8376 C   0  0  0  0  0  0  0  0  0  0  0  0
    3.2742   -0.1476   -2.8408 C   0  0  0  0  0  0  0  0  0  0  0  0
    4.8281   -1.4048    1.2633 N   0  0  0  0  0  0  0  0  0  0  0  0
    5.8740   -0.5755    1.7693 C   0  0  0  0  0  0  0  0  0  0  0  0
    5.9098    0.6525    1.5020 O   0  0  0  0  0  0  0  0  0  0  0  0
    6.8847   -1.0623    2.5621 O   0  0  0  0  0  0  0  0  0  0  0  0
    7.9547   -0.3778    3.1159 C   0  0  0  0  0  0  0  0  0  0  0  0
    8.8527    0.2836    2.1369 C   0  0  0  0  0  0  0  0  0  0  0  0
    8.7750    1.6676    2.0385 C   0  0  0  0  0  0  0  0  0  0  0  0
    9.5576    2.3667    1.1655 C   0  0  0  0  0  0  0  0  0  0  0  0
   10.4396    1.6924    0.3680 C   0  0  0  0  0  0  0  0  0  0  0  0
   10.5176    0.3334    0.4630 C   0  0  0  0  0  0  0  0  0  0  0  0
    9.7313   -0.3754    1.3412 C   0  0  0  0  0  0  0  0  0  0  0  0
   -4.2434    1.2819    0.5317 C   0  0  0  0  0  0  0  0  0  0  0  0
   -4.0350    1.9462    1.5723 O   0  0  0  0  0  0  0  0  0  0  0  0
   -5.3562    1.6210   -0.3192 C   0  0  0  0  0  0  0  0  0  0  0  0
   -5.7711    1.0705   -1.4855 N   0  0  0  0  0  0  0  0  0  0  0  0
   -6.8615    1.7016   -1.9441 C   0  0  0  0  0  0  0  0  0  0  0  0
   -7.6769    1.5712   -3.0439 C   0  0  0  0  0  0  0  0  0  0  0  0
   -8.7470    2.4200   -3.2064 C   0  0  0  0  0  0  0  0  0  0  0  0
   -9.0280    3.4129   -2.2826 C   0  0  0  0  0  0  0  0  0  0  0  0
   -8.1971    3.5306   -1.1815 C   0  0  0  0  0  0  0  0  0  0  0  0
   -7.1219    2.6863   -1.0073 C   0  0  0  0  0  0  0  0  0  0  0  0
   -6.2115    2.5956   -0.0772 O   0  0  0  0  0  0  0  0  0  0  0  0
   -8.3397   -2.3010   -1.2699 H   0  0  0  0  0  0  0  0  0  0  0  0
   -7.0360   -1.9470   -2.4324 H   0  0  0  0  0  0  0  0  0  0  0  0
   -4.9435   -4.4940   -0.6994 H   0  0  0  0  0  0  0  0  0  0  0  0
   -7.4391   -3.0475    1.1229 H   0  0  0  0  0  0  0  0  0  0  0  0
   -5.6733   -3.0142    2.6182 H   0  0  0  0  0  0  0  0  0  0  0  0
   -4.6567   -3.6912    1.3376 H   0  0  0  0  0  0  0  0  0  0  0  0
   -3.8472   -1.5556    2.2775 H   0  0  0  0  0  0  0  0  0  0  0  0
   -5.3195   -0.6894    1.8513 H   0  0  0  0  0  0  0  0  0  0  0  0
   -3.2664   -1.9392   -0.0685 H   0  0  0  0  0  0  0  0  0  0  0  0
   -4.7242   -1.1240   -0.6905 H   0  0  0  0  0  0  0  0  0  0  0  0
   -2.8857    0.3397   -0.7783 H   0  0  0  0  0  0  0  0  0  0  0  0
   -2.4743   -0.0202    2.2070 H   0  0  0  0  0  0  0  0  0  0  0  0
    0.0870   -0.6429    2.5153 H   0  0  0  0  0  0  0  0  0  0  0  0
    1.0088    1.5131    3.2044 H   0  0  0  0  0  0  0  0  0  0  0  0
   -0.7639    1.8028    2.7300 H   0  0  0  0  0  0  0  0  0  0  0  0
   -0.2529    2.5441    0.5926 H   0  0  0  0  0  0  0  0  0  0  0  0
    1.0739    3.2631    1.5546 H   0  0  0  0  0  0  0  0  0  0  0  0
    1.4916    1.4235   -0.6065 H   0  0  0  0  0  0  0  0  0  0  0  0
    2.6364    1.8707    0.6595 H   0  0  0  0  0  0  0  0  0  0  0  0
    4.0275    0.3170    0.3269 H   0  0  0  0  0  0  0  0  0  0  0  0
    3.7631   -2.5866   -0.6131 H   0  0  0  0  0  0  0  0  0  0  0  0
    4.9608   -1.4757   -1.2701 H   0  0  0  0  0  0  0  0  0  0  0  0
    1.5448   -2.6979   -1.3349 H   0  0  0  0  0  0  0  0  0  0  0  0
   -0.0329   -2.1817   -3.1433 H   0  0  0  0  0  0  0  0  0  0  0  0
    0.4962   -0.3816   -4.7412 H   0  0  0  0  0  0  0  0  0  0  0  0
    2.6048    0.9104   -4.5430 H   0  0  0  0  0  0  0  0  0  0  0  0
    4.2124    0.4027   -2.7257 H   0  0  0  0  0  0  0  0  0  0  0  0
    4.7953   -2.4038    1.4838 H   0  0  0  0  0  0  0  0  0  0  0  0
    8.5984   -1.1493    3.6326 H   0  0  0  0  0  0  0  0  0  0  0  0
    7.7043    0.3436    3.8980 H   0  0  0  0  0  0  0  0  0  0  0  0
    8.0659    2.1976    2.6811 H   0  0  0  0  0  0  0  0  0  0  0  0
    9.4458    3.4568    1.1383 H   0  0  0  0  0  0  0  0  0  0  0  0
   11.0508    2.2666   -0.3172 H   0  0  0  0  0  0  0  0  0  0  0  0
   11.2340   -0.1898   -0.1888 H   0  0  0  0  0  0  0  0  0  0  0  0
    9.8063   -1.4403    1.4021 H   0  0  0  0  0  0  0  0  0  0  0  0
   -7.5010    0.8205   -3.7839 H   0  0  0  0  0  0  0  0  0  0  0  0
   -9.3851    2.3161   -4.0706 H   0  0  0  0  0  0  0  0  0  0  0  0
   -9.8741    4.0878   -2.4066 H   0  0  0  0  0  0  0  0  0  0  0  0
   -8.3837    4.2903   -0.4421 H   0  0  0  0  0  0  0  0  0  0  0  0
  1  2  1  0
  2  3  2  3
  2  4  1  0
  4  5  1  0
  5  6  1  0
  6  7  1  0
  7  8  1  0
  8  9  1  0
  9 10  1  0
 10 11  2  0
 10 12  1  0
 12 13  1  0
 13 14  1  0
 14 15  1  0
 15 16  1  0
 16 17  1  0
 17 18  2  0
 17 19  1  0
 19 20  1  0
 20 21  1  0
 21 22  2  0
 22 23  1  0
 23 24  2  0
 24 25  1  0
 25 26  2  0
 19 27  1  0
 27 28  1  0
 28 29  2  0
 28 30  1  0
 30 31  1  0
 31 32  1  0
 32 33  2  0
 33 34  1  0
 34 35  2  0
 35 36  1  0
 36 37  2  0
  8 38  1  0
 38 39  2  0
 38 40  1  0
 40 41  2  0
 41 42  1  0
 42 43  2  0
 43 44  1  0
 44 45  2  0
 45 46  1  0
 46 47  2  0
 47 48  1  0
 16 12  1  0
 26 21  1  0
 37 32  1  0
 48 40  1  0
 47 42  1  0
  1 49  1  0
  1 50  1  0
  3 51  1  0
  4 52  1  0
  5 53  1  0
  5 54  1  0
  6 55  1  0
  6 56  1  0
  7 57  1  0
  7 58  1  0
  8 59  1  6
  9 60  1  0
 12 61  1  1
 13 62  1  0
 13 63  1  0
 14 64  1  0
 14 65  1  0
 15 66  1  0
 15 67  1  0
 19 68  1  6
 20 69  1  0
 20 70  1  0
 22 71  1  0
 23 72  1  0
 24 73  1  0
 25 74  1  0
 26 75  1  0
 27 76  1  0
 31 77  1  0
 31 78  1  0
 33 79  1  0
 34 80  1  0
 35 81  1  0
 36 82  1  0
 37 83  1  0
 43 84  1  0
 44 85  1  0
 45 86  1  0
 46 87  1  0
M  END
$$$$
[H]Oc1c([H])c([H])c2c3c1O[C@]1([H])[C@]34C([H])([H])C([H])([H])N(C([H])([H])C3([H])C([H])([H])C3([H])[H])[C@]([H])(C2([H])[H])[C@]4(O[H])C([H])([H])C([H])([H])[C@@]1([H])N([H])C(=O)/C([H])=C(\[H])c1c([H])c([H])c([H])c([H])c1[H]
     RDKit          3D

 67 73  0  0  0  0  0  0  0  0999 V2000
   -0.3971   -0.7377   -4.4628 O   0  0  0  0  0  0  0  0  0  0  0  0
   -1.1259   -0.1442   -3.4453 C   0  0  0  0  0  0  0  0  0  0  0  0
   -2.1216    0.7892   -3.7318 C   0  0  0  0  0  0  0  0  0  0  0  0
   -2.8500    1.3851   -2.7091 C   0  0  0  0  0  0  0  0  0  0  0  0
   -2.5823    1.0435   -1.3794 C   0  0  0  0  0  0  0  0  0  0  0  0
   -3.2178    1.6881   -0.2118 C   0  0  0  0  0  0  0  0  0  0  0  0
   -2.9947    0.8614    1.0136 C   0  0  1  0  0  0  0  0  0  0  0  0
   -3.8398   -0.2511    1.0514 N   0  0  0  0  0  0  0  0  0  0  0  0
   -5.1688    0.0366    0.7084 C   0  0  0  0  0  0  0  0  0  0  0  0
   -6.1439   -1.0983    0.9270 C   0  0  0  0  0  0  0  0  0  0  0  0
   -7.5766   -0.7330    0.5420 C   0  0  0  0  0  0  0  0  0  0  0  0
   -7.1885   -0.8124    1.9963 C   0  0  0  0  0  0  0  0  0  0  0  0
   -3.4090   -1.5084    0.6004 C   0  0  0  0  0  0  0  0  0  0  0  0
   -1.9830   -1.7192    0.2949 C   0  0  0  0  0  0  0  0  0  0  0  0
   -1.2219   -0.4594    0.1072 C   0  0  1  0  0  0  0  0  0  0  0  0
    0.2392   -0.7268   -0.1780 C   0  0  1  0  0  0  0  0  0  0  0  0
    0.0560   -1.3549   -1.4751 O   0  0  0  0  0  0  0  0  0  0  0  0
   -0.8466   -0.4952   -2.1365 C   0  0  0  0  0  0  0  0  0  0  0  0
   -1.6131    0.1345   -1.1959 C   0  0  0  0  0  0  0  0  0  0  0  0
    0.9889    0.5250   -0.3639 C   0  0  1  0  0  0  0  0  0  0  0  0
    0.3993    1.7674    0.2373 C   0  0  0  0  0  0  0  0  0  0  0  0
   -0.5995    1.6354    1.3033 C   0  0  0  0  0  0  0  0  0  0  0  0
   -1.5174    0.4613    1.2266 C   0  0  1  0  0  0  0  0  0  0  0  0
   -1.5057   -0.2227    2.4419 O   0  0  0  0  0  0  0  0  0  0  0  0
    2.3193    0.2854    0.2113 N   0  0  0  0  0  0  0  0  0  0  0  0
    3.4965    0.4579   -0.5242 C   0  0  0  0  0  0  0  0  0  0  0  0
    3.4526    0.8231   -1.7157 O   0  0  0  0  0  0  0  0  0  0  0  0
    4.7869    0.2139    0.0935 C   0  0  0  0  0  0  0  0  0  0  0  0
    5.9346    0.3579   -0.5327 C   0  0  0  0  0  0  0  0  0  0  0  0
    7.2417    0.1327    0.0258 C   0  0  0  0  0  0  0  0  0  0  0  0
    8.3693    0.3264   -0.7551 C   0  0  0  0  0  0  0  0  0  0  0  0
    9.6429    0.1294   -0.2626 C   0  0  0  0  0  0  0  0  0  0  0  0
    9.8142   -0.2680    1.0304 C   0  0  0  0  0  0  0  0  0  0  0  0
    8.7177   -0.4670    1.8235 C   0  0  0  0  0  0  0  0  0  0  0  0
    7.4405   -0.2643    1.3124 C   0  0  0  0  0  0  0  0  0  0  0  0
    0.3154   -1.4040   -4.2783 H   0  0  0  0  0  0  0  0  0  0  0  0
   -2.3402    1.0633   -4.7714 H   0  0  0  0  0  0  0  0  0  0  0  0
   -3.6347    2.1170   -2.8949 H   0  0  0  0  0  0  0  0  0  0  0  0
   -2.7528    2.7248   -0.0577 H   0  0  0  0  0  0  0  0  0  0  0  0
   -4.2760    1.8612   -0.3678 H   0  0  0  0  0  0  0  0  0  0  0  0
   -3.2293    1.5582    1.9098 H   0  0  0  0  0  0  0  0  0  0  0  0
   -5.5448    0.9299    1.2063 H   0  0  0  0  0  0  0  0  0  0  0  0
   -5.1804    0.2452   -0.4099 H   0  0  0  0  0  0  0  0  0  0  0  0
   -5.8348   -2.1372    0.8640 H   0  0  0  0  0  0  0  0  0  0  0  0
   -7.7858    0.3030    0.2079 H   0  0  0  0  0  0  0  0  0  0  0  0
   -8.2260   -1.4779    0.0812 H   0  0  0  0  0  0  0  0  0  0  0  0
   -7.6629   -1.6540    2.5341 H   0  0  0  0  0  0  0  0  0  0  0  0
   -7.0911    0.0963    2.6059 H   0  0  0  0  0  0  0  0  0  0  0  0
   -3.9711   -1.7165   -0.3663 H   0  0  0  0  0  0  0  0  0  0  0  0
   -3.8350   -2.3204    1.2764 H   0  0  0  0  0  0  0  0  0  0  0  0
   -1.7963   -2.4408   -0.5352 H   0  0  0  0  0  0  0  0  0  0  0  0
   -1.5322   -2.2227    1.2076 H   0  0  0  0  0  0  0  0  0  0  0  0
    0.6694   -1.4551    0.5116 H   0  0  0  0  0  0  0  0  0  0  0  0
    1.1805    0.7717   -1.4313 H   0  0  0  0  0  0  0  0  0  0  0  0
    0.0381    2.4862   -0.5401 H   0  0  0  0  0  0  0  0  0  0  0  0
    1.2758    2.3455    0.6766 H   0  0  0  0  0  0  0  0  0  0  0  0
   -0.1056    1.6578    2.3032 H   0  0  0  0  0  0  0  0  0  0  0  0
   -1.2504    2.5533    1.3053 H   0  0  0  0  0  0  0  0  0  0  0  0
   -0.5615   -0.3132    2.7260 H   0  0  0  0  0  0  0  0  0  0  0  0
    2.3556   -0.0213    1.1988 H   0  0  0  0  0  0  0  0  0  0  0  0
    4.8370   -0.1108    1.1421 H   0  0  0  0  0  0  0  0  0  0  0  0
    5.8392    0.6847   -1.5818 H   0  0  0  0  0  0  0  0  0  0  0  0
    8.3038    0.6426   -1.7969 H   0  0  0  0  0  0  0  0  0  0  0  0
   10.5114    0.2792   -0.8639 H   0  0  0  0  0  0  0  0  0  0  0  0
   10.8189   -0.4202    1.4123 H   0  0  0  0  0  0  0  0  0  0  0  0
    8.8420   -0.7841    2.8602 H   0  0  0  0  0  0  0  0  0  0  0  0
    6.6274   -0.4423    1.9989 H   0  0  0  0  0  0  0  0  0  0  0  0
  1  2  1  0
  2  3  2  0
  3  4  1  0
  4  5  2  0
  5  6  1  0
  6  7  1  0
  7  8  1  0
  8  9  1  0
  9 10  1  0
 10 11  1  0
 11 12  1  0
  8 13  1  0
 13 14  1  0
 15 14  1  1
 15 16  1  0
 16 17  1  0
 17 18  1  0
 18 19  2  0
 16 20  1  0
 20 21  1  0
 21 22  1  0
 22 23  1  0
 23 24  1  1
 20 25  1  0
 25 26  1  0
 26 27  2  0
 26 28  1  0
 28 29  2  0
 29 30  1  0
 30 31  2  0
 31 32  1  0
 32 33  2  0
 33 34  1  0
 34 35  2  0
 18  2  1  0
 35 30  1  0
 19  5  1  0
 23  7  1  0
 12 10  1  0
 19 15  1  0
 23 15  1  0
  1 36  1  0
  3 37  1  0
  4 38  1  0
  6 39  1  0
  6 40  1  0
  7 41  1  1
  9 42  1  0
  9 43  1  0
 10 44  1  0
 11 45  1  0
 11 46  1  0
 12 47  1  0
 12 48  1  0
 13 49  1  0
 13 50  1  0
 14 51  1  0
 14 52  1  0
 16 53  1  1
 20 54  1  6
 21 55  1  0
 21 56  1  0
 22 57  1  0
 22 58  1  0
 24 59  1  0
 25 60  1  0
 28 61  1  0
 29 62  1  0
 31 63  1  0
 32 64  1  0
 33 65  1  0
 34 66  1  0
 35 67  1  0
M  END
$$$$
[H]c1nnc2c(nc([H])n2C([H])([H])[H])c1-c1c([H])c([H])c(F)c(-c2c([H])c([H])c(S(=O)(=O)C([H])([H])[H])c([H])c2[H])c1[H]
     RDKit          3D

 42 45  0  0  0  0  0  0  0  0999 V2000
   -7.0916    1.5702    0.5933 C   0  0  0  0  0  0  0  0  0  0  0  0
   -5.8106    0.8597    0.6269 N   0  0  0  0  0  0  0  0  0  0  0  0
   -5.4029    0.0571    1.6253 C   0  0  0  0  0  0  0  0  0  0  0  0
   -4.1873   -0.3907    1.2692 N   0  0  0  0  0  0  0  0  0  0  0  0
   -3.8305    0.1126    0.0774 C   0  0  0  0  0  0  0  0  0  0  0  0
   -2.6937   -0.0486   -0.6967 C   0  0  0  0  0  0  0  0  0  0  0  0
   -2.6643    0.6350   -1.8952 C   0  0  0  0  0  0  0  0  0  0  0  0
   -3.7088    1.4137   -2.2642 N   0  0  0  0  0  0  0  0  0  0  0  0
   -4.7892    1.5646   -1.5246 N   0  0  0  0  0  0  0  0  0  0  0  0
   -4.8773    0.9224   -0.3428 C   0  0  0  0  0  0  0  0  0  0  0  0
   -1.6166   -0.9017   -0.2304 C   0  0  0  0  0  0  0  0  0  0  0  0
   -1.8274   -2.1491    0.3154 C   0  0  0  0  0  0  0  0  0  0  0  0
   -0.8042   -2.9602    0.7587 C   0  0  0  0  0  0  0  0  0  0  0  0
    0.4821   -2.5098    0.6539 C   0  0  0  0  0  0  0  0  0  0  0  0
    1.4647   -3.3401    1.0992 F   0  0  0  0  0  0  0  0  0  0  0  0
    0.7495   -1.2862    0.1232 C   0  0  0  0  0  0  0  0  0  0  0  0
   -0.3081   -0.4801   -0.3205 C   0  0  0  0  0  0  0  0  0  0  0  0
    2.1263   -0.8262    0.0245 C   0  0  0  0  0  0  0  0  0  0  0  0
    2.5910   -0.2581   -1.1371 C   0  0  0  0  0  0  0  0  0  0  0  0
    3.9044    0.1778   -1.2127 C   0  0  0  0  0  0  0  0  0  0  0  0
    4.7608    0.0528   -0.1398 C   0  0  0  0  0  0  0  0  0  0  0  0
    4.2852   -0.5180    1.0200 C   0  0  0  0  0  0  0  0  0  0  0  0
    2.9643   -0.9608    1.1082 C   0  0  0  0  0  0  0  0  0  0  0  0
    6.4136    0.6072   -0.2510 S   0  0  0  0  0  0  0  0  0  0  0  0
    6.4347    2.3142    0.2767 C   0  0  0  0  0  0  0  0  0  0  0  0
    6.8688    0.5145   -1.6654 O   0  0  0  0  0  0  0  0  0  0  0  0
    7.2762   -0.2378    0.6493 O   0  0  0  0  0  0  0  0  0  0  0  0
   -7.8692    0.9639    1.1313 H   0  0  0  0  0  0  0  0  0  0  0  0
   -7.4271    1.6954   -0.4570 H   0  0  0  0  0  0  0  0  0  0  0  0
   -7.0311    2.5621    1.0606 H   0  0  0  0  0  0  0  0  0  0  0  0
   -5.9741   -0.1627    2.5296 H   0  0  0  0  0  0  0  0  0  0  0  0
   -1.7866    0.5260   -2.5194 H   0  0  0  0  0  0  0  0  0  0  0  0
   -2.8273   -2.5262    0.4091 H   0  0  0  0  0  0  0  0  0  0  0  0
   -0.9975   -3.9469    1.1884 H   0  0  0  0  0  0  0  0  0  0  0  0
   -0.0332    0.4865   -0.7350 H   0  0  0  0  0  0  0  0  0  0  0  0
    1.9816   -0.1287   -2.0116 H   0  0  0  0  0  0  0  0  0  0  0  0
    4.3086    0.6306   -2.1098 H   0  0  0  0  0  0  0  0  0  0  0  0
    4.9724   -0.6047    1.8434 H   0  0  0  0  0  0  0  0  0  0  0  0
    2.6638   -1.3980    2.0573 H   0  0  0  0  0  0  0  0  0  0  0  0
    6.2512    2.9606   -0.6283 H   0  0  0  0  0  0  0  0  0  0  0  0
    5.6442    2.4707    1.0335 H   0  0  0  0  0  0  0  0  0  0  0  0
    7.4149    2.5372    0.7253 H   0  0  0  0  0  0  0  0  0  0  0  0
  1  2  1  0
  2  3  1  0
  3  4  2  0
  4  5  1  0
  5  6  2  0
  6  7  1  0
  7  8  2  0
  8  9  1  0
  9 10  2  0
  6 11  1  0
 11 12  2  0
 12 13  1  0
 13 14  2  0
 14 15  1  0
 14 16  1  0
 16 17  2  0
 16 18  1  0
 18 19  2  0
 19 20  1  0
 20 21  2  0
 21 22  1  0
 22 23  2  0
 21 24  1  0
 24 25  1  0
 24 26  2  0
 24 27  2  0
 10  2  1  0
 17 11  1  0
 23 18  1  0
 10  5  1  0
  1 28  1  0
  1 29  1  0
  1 30  1  0
  3 31  1  0
  7 32  1  0
 12 33  1  0
 13 34  1  0
 17 35  1  0
 19 36  1  0
 20 37  1  0
 22 38  1  0
 23 39  1  0
 25 40  1  0
 25 41  1  0
 25 42  1  0
M  END
$$$$
[H]OC(=O)C([H])([H])C([H])([H])[C@@]([H])(C([H])([H])[H])[C@@]1([H])C([H])([H])C([H])([H])[C@]2([H])[C@]1(C([H])([H])[H])C([H])([H])C([H])([H])[C@]1([H])[C@@]3(C([H])([H])[H])C([H])([H])C([H])([H])[C@]([H])(O[H])C([H])([H])[C@@]3([H])C([H])([H])[C@@]([H])(O[H])[C@]12[H]
     RDKit          3D

 68 71  0  0  0  0  0  0  0  0999 V2000
   -4.3729    1.5773   -1.1795 C   0  0  0  0  0  0  0  0  0  0  0  0
   -3.5383    0.3177   -1.0001 C   0  0  2  0  0  0  0  0  0  0  0  0
   -4.3038   -0.9054   -0.8629 C   0  0  0  0  0  0  0  0  0  0  0  0
   -5.2871   -1.1448    0.1956 C   0  0  0  0  0  0  0  0  0  0  0  0
   -6.5169   -0.3656    0.1832 C   0  0  0  0  0  0  0  0  0  0  0  0
   -7.2382   -0.1984    1.3865 O   0  0  0  0  0  0  0  0  0  0  0  0
   -6.9736    0.1692   -0.8493 O   0  0  0  0  0  0  0  0  0  0  0  0
   -2.4129    0.6557   -0.1429 C   0  0  1  0  0  0  0  0  0  0  0  0
   -2.6297    1.1543    1.2370 C   0  0  0  0  0  0  0  0  0  0  0  0
   -1.2568    1.0176    1.9424 C   0  0  0  0  0  0  0  0  0  0  0  0
   -0.3703    0.7017    0.8124 C   0  0  1  0  0  0  0  0  0  0  0  0
    0.9199    0.0537    1.0104 C   0  0  2  0  0  0  0  0  0  0  0  0
    1.7831    0.9361    1.8921 C   0  0  2  0  0  0  0  0  0  0  0  0
    1.6767    2.2477    1.4424 O   0  0  0  0  0  0  0  0  0  0  0  0
    3.2003    0.4676    1.9830 C   0  0  0  0  0  0  0  0  0  0  0  0
    3.8058    0.0318    0.6910 C   0  0  2  0  0  0  0  0  0  0  0  0
    4.5021    1.1566   -0.0467 C   0  0  0  0  0  0  0  0  0  0  0  0
    5.4034    0.5377   -1.1053 C   0  0  1  0  0  0  0  0  0  0  0  0
    6.7395    0.5551   -0.6840 O   0  0  0  0  0  0  0  0  0  0  0  0
    4.9957   -0.8704   -1.4260 C   0  0  0  0  0  0  0  0  0  0  0  0
    3.4751   -0.9137   -1.5574 C   0  0  0  0  0  0  0  0  0  0  0  0
    2.8662   -0.7372   -0.2075 C   0  0  1  0  0  0  0  0  0  0  0  0
    2.5889   -2.1140    0.3622 C   0  0  0  0  0  0  0  0  0  0  0  0
    1.5913    0.0635   -0.3542 C   0  0  1  0  0  0  0  0  0  0  0  0
    0.7591   -0.3967   -1.4650 C   0  0  0  0  0  0  0  0  0  0  0  0
   -0.6333   -0.8416   -1.1578 C   0  0  0  0  0  0  0  0  0  0  0  0
   -1.2781   -0.3078    0.0459 C   0  0  2  0  0  0  0  0  0  0  0  0
   -1.6963   -1.3985    0.9933 C   0  0  0  0  0  0  0  0  0  0  0  0
   -4.8650    1.9155   -0.2649 H   0  0  0  0  0  0  0  0  0  0  0  0
   -4.9399    1.6137   -2.1081 H   0  0  0  0  0  0  0  0  0  0  0  0
   -3.5714    2.3924   -1.3441 H   0  0  0  0  0  0  0  0  0  0  0  0
   -3.0606    0.2381   -2.0766 H   0  0  0  0  0  0  0  0  0  0  0  0
   -3.6926   -1.8500   -0.9667 H   0  0  0  0  0  0  0  0  0  0  0  0
   -4.9251   -0.9893   -1.8504 H   0  0  0  0  0  0  0  0  0  0  0  0
   -4.8111   -1.1049    1.2154 H   0  0  0  0  0  0  0  0  0  0  0  0
   -5.6285   -2.2480    0.1396 H   0  0  0  0  0  0  0  0  0  0  0  0
   -7.8253    0.6186    1.4942 H   0  0  0  0  0  0  0  0  0  0  0  0
   -1.8694    1.5580   -0.6643 H   0  0  0  0  0  0  0  0  0  0  0  0
   -3.3799    0.6757    1.8478 H   0  0  0  0  0  0  0  0  0  0  0  0
   -2.9096    2.2437    1.1851 H   0  0  0  0  0  0  0  0  0  0  0  0
   -1.0213    2.0083    2.3815 H   0  0  0  0  0  0  0  0  0  0  0  0
   -1.2983    0.2802    2.7375 H   0  0  0  0  0  0  0  0  0  0  0  0
   -0.2554    1.5645    0.1299 H   0  0  0  0  0  0  0  0  0  0  0  0
    0.9647   -0.9449    1.4362 H   0  0  0  0  0  0  0  0  0  0  0  0
    1.3413    0.9006    2.9086 H   0  0  0  0  0  0  0  0  0  0  0  0
    1.4812    2.8998    2.1425 H   0  0  0  0  0  0  0  0  0  0  0  0
    3.8038    1.3045    2.3922 H   0  0  0  0  0  0  0  0  0  0  0  0
    3.2673   -0.3461    2.7491 H   0  0  0  0  0  0  0  0  0  0  0  0
    4.6308   -0.6972    0.9534 H   0  0  0  0  0  0  0  0  0  0  0  0
    3.8301    1.8508   -0.5428 H   0  0  0  0  0  0  0  0  0  0  0  0
    5.0893    1.7317    0.6965 H   0  0  0  0  0  0  0  0  0  0  0  0
    5.3237    1.1199   -2.0665 H   0  0  0  0  0  0  0  0  0  0  0  0
    6.9161    1.4975   -0.3908 H   0  0  0  0  0  0  0  0  0  0  0  0
    5.3481   -1.6184   -0.7170 H   0  0  0  0  0  0  0  0  0  0  0  0
    5.3808   -1.1380   -2.4490 H   0  0  0  0  0  0  0  0  0  0  0  0
    3.2420   -1.8999   -2.0138 H   0  0  0  0  0  0  0  0  0  0  0  0
    3.1472   -0.0998   -2.2292 H   0  0  0  0  0  0  0  0  0  0  0  0
    1.6195   -2.4959   -0.0130 H   0  0  0  0  0  0  0  0  0  0  0  0
    3.3863   -2.7938   -0.0237 H   0  0  0  0  0  0  0  0  0  0  0  0
    2.6648   -2.1373    1.4682 H   0  0  0  0  0  0  0  0  0  0  0  0
    1.9220    1.1335   -0.5008 H   0  0  0  0  0  0  0  0  0  0  0  0
    1.3153   -1.2185   -2.0093 H   0  0  0  0  0  0  0  0  0  0  0  0
    0.6809    0.4175   -2.2303 H   0  0  0  0  0  0  0  0  0  0  0  0
   -1.3086   -0.7178   -2.0333 H   0  0  0  0  0  0  0  0  0  0  0  0
   -0.5772   -1.9700   -1.0467 H   0  0  0  0  0  0  0  0  0  0  0  0
   -1.8493   -2.3157    0.3876 H   0  0  0  0  0  0  0  0  0  0  0  0
   -0.8474   -1.6980    1.6828 H   0  0  0  0  0  0  0  0  0  0  0  0
   -2.5183   -1.1302    1.6537 H   0  0  0  0  0  0  0  0  0  0  0  0
  1  2  1  0
  2  3  1  0
  3  4  1  0
  4  5  1  0
  5  6  1  0
  5  7  2  0
  2  8  1  0
  8  9  1  0
  9 10  1  0
 10 11  1  0
 11 12  1  0
 12 13  1  0
 13 14  1  0
 13 15  1  0
 15 16  1  0
 16 17  1  0
 17 18  1  0
 18 19  1  0
 18 20  1  0
 20 21  1  0
 21 22  1  0
 22 23  1  1
 22 24  1  0
 24 25  1  0
 25 26  1  0
 26 27  1  0
 27 28  1  1
 27  8  1  0
 27 11  1  0
 24 12  1  0
 22 16  1  0
  1 29  1  0
  1 30  1  0
  1 31  1  0
  2 32  1  6
  3 33  1  0
  3 34  1  0
  4 35  1  0
  4 36  1  0
  6 37  1  0
  8 38  1  6
  9 39  1  0
  9 40  1  0
 10 41  1  0
 10 42  1  0
 11 43  1  6
 12 44  1  1
 13 45  1  1
 14 46  1  0
 15 47  1  0
 15 48  1  0
 16 49  1  1
 17 50  1  0
 17 51  1  0
 18 52  1  6
 19 53  1  0
 20 54  1  0
 20 55  1  0
 21 56  1  0
 21 57  1  0
 23 58  1  0
 23 59  1  0
 23 60  1  0
 24 61  1  6
 25 62  1  0
 25 63  1  0
 26 64  1  0
 26 65  1  0
 28 66  1  0
 28 67  1  0
 28 68  1  0
M  END
$$$$
[H]OC(=O)[C@@]([H])(N([H])[H])C([H])([H])n1nnc(-c2on([H])c(=O)c2Br)n1
     RDKit          3D

 25 26  0  0  0  0  0  0  0  0999 V2000
   -2.7910   -1.2449    0.3200 N   0  0  0  0  0  0  0  0  0  0  0  0
   -2.6565    0.2000    0.3051 C   0  0  1  0  0  0  0  0  0  0  0  0
   -1.8180    0.6502   -0.8734 C   0  0  0  0  0  0  0  0  0  0  0  0
   -0.4876    0.0861   -0.8274 N   0  0  0  0  0  0  0  0  0  0  0  0
   -0.0837   -1.0419   -1.3477 N   0  0  0  0  0  0  0  0  0  0  0  0
    1.2084   -1.2296   -1.1018 N   0  0  0  0  0  0  0  0  0  0  0  0
    1.6422   -0.1724   -0.3936 C   0  0  0  0  0  0  0  0  0  0  0  0
    0.5808    0.6251   -0.2364 N   0  0  0  0  0  0  0  0  0  0  0  0
    3.0147    0.0456    0.1007 C   0  0  0  0  0  0  0  0  0  0  0  0
    3.4748    1.0429    0.7825 O   0  0  0  0  0  0  0  0  0  0  0  0
    4.7514    0.8919    1.0448 N   0  0  0  0  0  0  0  0  0  0  0  0
    5.1913   -0.2658    0.5179 C   0  0  0  0  0  0  0  0  0  0  0  0
    6.3580   -0.7339    0.5733 O   0  0  0  0  0  0  0  0  0  0  0  0
    4.0660   -0.8155   -0.0946 C   0  0  0  0  0  0  0  0  0  0  0  0
    4.0511   -2.4647   -1.0195 Br  0  0  0  0  0  0  0  0  0  0  0  0
   -3.9890    0.8437    0.2291 C   0  0  0  0  0  0  0  0  0  0  0  0
   -5.1803    0.1281    0.1802 O   0  0  0  0  0  0  0  0  0  0  0  0
   -4.0789    2.0932    0.2063 O   0  0  0  0  0  0  0  0  0  0  0  0
   -3.8174   -1.4809    0.4077 H   0  0  0  0  0  0  0  0  0  0  0  0
   -2.5025   -1.6102   -0.6081 H   0  0  0  0  0  0  0  0  0  0  0  0
   -2.1368    0.5222    1.2184 H   0  0  0  0  0  0  0  0  0  0  0  0
   -1.8119    1.7386   -0.9440 H   0  0  0  0  0  0  0  0  0  0  0  0
   -2.3257    0.2633   -1.7899 H   0  0  0  0  0  0  0  0  0  0  0  0
    5.3168    1.5797    1.5823 H   0  0  0  0  0  0  0  0  0  0  0  0
   -5.9766    0.3491    0.7692 H   0  0  0  0  0  0  0  0  0  0  0  0
  1  2  1  0
  2  3  1  0
  3  4  1  0
  4  5  1  0
  5  6  2  0
  6  7  1  0
  7  8  2  0
  7  9  1  0
  9 10  1  0
 10 11  1  0
 11 12  1  0
 12 13  2  0
 12 14  1  0
 14 15  1  0
  2 16  1  0
 16 17  1  0
 16 18  2  0
  8  4  1  0
 14  9  2  0
  1 19  1  0
  1 20  1  0
  2 21  1  1
  3 22  1  0
  3 23  1  0
 11 24  1  0
 17 25  1  0
M  END
$$$$
[H]OC(=O)[C@@]([H])(Oc1c([H])c([H])c(-c2c([H])c([H])c(-c3c(C([H])([H])c4c([H])c([H])c([H])c([H])c4[H])sc4c([H])c([H])c([H])c([H])c34)c([H])c2[H])c([H])c1[H])C([H])([H])c1c([H])c([H])c([H])c([H])c1[H]
     RDKit          3D

 68 73  0  0  0  0  0  0  0  0999 V2000
    7.0860   -0.5593    2.0499 O   0  0  0  0  0  0  0  0  0  0  0  0
    6.1335    0.2760    1.5223 C   0  0  0  0  0  0  0  0  0  0  0  0
    5.4217    0.9626    2.3314 O   0  0  0  0  0  0  0  0  0  0  0  0
    5.9372    0.3715    0.0319 C   0  0  2  0  0  0  0  0  0  0  0  0
    7.0753    1.0452   -0.6411 C   0  0  0  0  0  0  0  0  0  0  0  0
    8.4006    0.4557   -0.5119 C   0  0  0  0  0  0  0  0  0  0  0  0
    9.2163    0.8695    0.5396 C   0  0  0  0  0  0  0  0  0  0  0  0
   10.4648    0.3499    0.7082 C   0  0  0  0  0  0  0  0  0  0  0  0
   10.9364   -0.6183   -0.1897 C   0  0  0  0  0  0  0  0  0  0  0  0
   10.1187   -1.0212   -1.2290 C   0  0  0  0  0  0  0  0  0  0  0  0
    8.8640   -0.4839   -1.3798 C   0  0  0  0  0  0  0  0  0  0  0  0
    4.7914    1.1955   -0.2149 O   0  0  0  0  0  0  0  0  0  0  0  0
    3.4952    0.7766   -0.1430 C   0  0  0  0  0  0  0  0  0  0  0  0
    2.4487    1.6462   -0.4796 C   0  0  0  0  0  0  0  0  0  0  0  0
    1.1491    1.2424   -0.3988 C   0  0  0  0  0  0  0  0  0  0  0  0
    0.7920   -0.0536    0.0218 C   0  0  0  0  0  0  0  0  0  0  0  0
    1.8325   -0.8750    0.3388 C   0  0  0  0  0  0  0  0  0  0  0  0
    3.1711   -0.4808    0.2624 C   0  0  0  0  0  0  0  0  0  0  0  0
   -0.6163   -0.3703    0.0946 C   0  0  0  0  0  0  0  0  0  0  0  0
   -1.5030    0.1633   -0.8149 C   0  0  0  0  0  0  0  0  0  0  0  0
   -2.8817   -0.0078   -0.6924 C   0  0  0  0  0  0  0  0  0  0  0  0
   -3.3914   -0.7135    0.3422 C   0  0  0  0  0  0  0  0  0  0  0  0
   -2.4806   -1.2603    1.2644 C   0  0  0  0  0  0  0  0  0  0  0  0
   -1.1150   -1.1060    1.1631 C   0  0  0  0  0  0  0  0  0  0  0  0
   -4.8520   -0.9070    0.6318 C   0  0  0  0  0  0  0  0  0  0  0  0
   -5.6116    0.1441    1.0682 C   0  0  0  0  0  0  0  0  0  0  0  0
   -5.3370    1.6188    1.0645 C   0  0  0  0  0  0  0  0  0  0  0  0
   -6.1494    2.2295   -0.0124 C   0  0  0  0  0  0  0  0  0  0  0  0
   -7.0296    3.2765    0.3783 C   0  0  0  0  0  0  0  0  0  0  0  0
   -7.8660    3.9089   -0.4906 C   0  0  0  0  0  0  0  0  0  0  0  0
   -7.8913    3.5473   -1.8185 C   0  0  0  0  0  0  0  0  0  0  0  0
   -7.0621    2.5470   -2.2361 C   0  0  0  0  0  0  0  0  0  0  0  0
   -6.2136    1.9132   -1.3257 C   0  0  0  0  0  0  0  0  0  0  0  0
   -7.1040   -0.5942    1.4711 S   0  0  0  0  0  0  0  0  0  0  0  0
   -6.7328   -2.1996    1.0722 C   0  0  0  0  0  0  0  0  0  0  0  0
   -7.4571   -3.4087    1.1281 C   0  0  0  0  0  0  0  0  0  0  0  0
   -6.8911   -4.5885    0.7362 C   0  0  0  0  0  0  0  0  0  0  0  0
   -5.5962   -4.5484    0.2882 C   0  0  0  0  0  0  0  0  0  0  0  0
   -4.8987   -3.3730    0.2360 C   0  0  0  0  0  0  0  0  0  0  0  0
   -5.4425   -2.1355    0.6312 C   0  0  0  0  0  0  0  0  0  0  0  0
    7.2000   -1.5013    1.6662 H   0  0  0  0  0  0  0  0  0  0  0  0
    5.7151   -0.6398   -0.3289 H   0  0  0  0  0  0  0  0  0  0  0  0
    7.0676    2.1246   -0.2623 H   0  0  0  0  0  0  0  0  0  0  0  0
    6.8429    1.1594   -1.7302 H   0  0  0  0  0  0  0  0  0  0  0  0
    8.8552    1.6268    1.2333 H   0  0  0  0  0  0  0  0  0  0  0  0
   11.0818    0.6898    1.5320 H   0  0  0  0  0  0  0  0  0  0  0  0
   11.9228   -1.0253   -0.0468 H   0  0  0  0  0  0  0  0  0  0  0  0
   10.5298   -1.7836   -1.9059 H   0  0  0  0  0  0  0  0  0  0  0  0
    8.2599   -0.8418   -2.2136 H   0  0  0  0  0  0  0  0  0  0  0  0
    2.7504    2.6440   -0.8044 H   0  0  0  0  0  0  0  0  0  0  0  0
    0.3384    1.9064   -0.6605 H   0  0  0  0  0  0  0  0  0  0  0  0
    1.6042   -1.8836    0.6663 H   0  0  0  0  0  0  0  0  0  0  0  0
    3.9798   -1.1778    0.5270 H   0  0  0  0  0  0  0  0  0  0  0  0
   -1.0736    0.7257   -1.6390 H   0  0  0  0  0  0  0  0  0  0  0  0
   -3.4848    0.4301   -1.4565 H   0  0  0  0  0  0  0  0  0  0  0  0
   -2.8948   -1.8401    2.1043 H   0  0  0  0  0  0  0  0  0  0  0  0
   -0.4303   -1.5346    1.8804 H   0  0  0  0  0  0  0  0  0  0  0  0
   -5.5995    2.0073    2.0498 H   0  0  0  0  0  0  0  0  0  0  0  0
   -4.2546    1.7240    0.9053 H   0  0  0  0  0  0  0  0  0  0  0  0
   -7.0291    3.5819    1.4168 H   0  0  0  0  0  0  0  0  0  0  0  0
   -8.5302    4.7045   -0.1731 H   0  0  0  0  0  0  0  0  0  0  0  0
   -8.5734    4.0592   -2.5233 H   0  0  0  0  0  0  0  0  0  0  0  0
   -7.0583    2.2447   -3.2602 H   0  0  0  0  0  0  0  0  0  0  0  0
   -5.5744    1.1024   -1.6749 H   0  0  0  0  0  0  0  0  0  0  0  0
   -8.4657   -3.3129    1.4990 H   0  0  0  0  0  0  0  0  0  0  0  0
   -7.4272   -5.5009    0.7790 H   0  0  0  0  0  0  0  0  0  0  0  0
   -5.1010   -5.4920   -0.0403 H   0  0  0  0  0  0  0  0  0  0  0  0
   -3.8626   -3.4317   -0.1382 H   0  0  0  0  0  0  0  0  0  0  0  0
  1  2  1  0
  2  3  2  0
  2  4  1  0
  4  5  1  0
  5  6  1  0
  6  7  2  0
  7  8  1  0
  8  9  2  0
  9 10  1  0
 10 11  2  0
  4 12  1  0
 12 13  1  0
 13 14  2  0
 14 15  1  0
 15 16  2  0
 16 17  1  0
 17 18  2  0
 16 19  1  0
 19 20  2  0
 20 21  1  0
 21 22  2  0
 22 23  1  0
 23 24  2  0
 22 25  1  0
 25 26  2  0
 26 27  1  0
 27 28  1  0
 28 29  2  0
 29 30  1  0
 30 31  2  0
 31 32  1  0
 32 33  2  0
 26 34  1  0
 34 35  1  0
 35 36  2  0
 36 37  1  0
 37 38  2  0
 38 39  1  0
 39 40  2  0
 11  6  1  0
 18 13  1  0
 24 19  1  0
 40 25  1  0
 33 28  1  0
 40 35  1  0
  1 41  1  0
  4 42  1  6
  5 43  1  0
  5 44  1  0
  7 45  1  0
  8 46  1  0
  9 47  1  0
 10 48  1  0
 11 49  1  0
 14 50  1  0
 15 51  1  0
 17 52  1  0
 18 53  1  0
 20 54  1  0
 21 55  1  0
 23 56  1  0
 24 57  1  0
 27 58  1  0
 27 59  1  0
 29 60  1  0
 30 61  1  0
 31 62  1  0
 32 63  1  0
 33 64  1  0
 36 65  1  0
 37 66  1  0
 38 67  1  0
 39 68  1  0
M  END
$$$$
[H]C1=C([H])C([H])(F)C([H])([H])C([H])=C1N([H])C(=O)C1(C(=O)N([H])c2c([H])c([H])c(Oc3c([H])c([H])nc4c([H])c(OC([H])([H])C([H])([H])C([H])([H])N5C([H])([H])C([H])([H])C([H])([H])C5([H])[H])c(OC([H])([H])[H])c([H])c34)c(F)c2[H])C([H])([H])C1([H])[H]
     RDKit          3D

 81 86  0  0  0  0  0  0  0  0999 V2000
   -3.5877    0.0230   -2.5605 C   0  0  0  0  0  0  0  0  0  0  0  0
   -4.4433   -0.0435   -1.4508 O   0  0  0  0  0  0  0  0  0  0  0  0
   -3.9880   -0.2494   -0.1491 C   0  0  0  0  0  0  0  0  0  0  0  0
   -2.6478   -0.3994    0.1096 C   0  0  0  0  0  0  0  0  0  0  0  0
   -2.1587   -0.6042    1.3755 C   0  0  0  0  0  0  0  0  0  0  0  0
   -0.7923   -0.7567    1.6112 C   0  0  0  0  0  0  0  0  0  0  0  0
    0.0250   -0.6916    0.5279 O   0  0  0  0  0  0  0  0  0  0  0  0
    1.3913   -0.8525    0.4754 C   0  0  0  0  0  0  0  0  0  0  0  0
    2.2342    0.1729    0.0692 C   0  0  0  0  0  0  0  0  0  0  0  0
    3.5918   -0.0103    0.0220 C   0  0  0  0  0  0  0  0  0  0  0  0
    4.2120   -1.2204    0.3732 C   0  0  0  0  0  0  0  0  0  0  0  0
    5.6358   -1.3113    0.3171 N   0  0  0  0  0  0  0  0  0  0  0  0
    6.4056   -2.4553    0.1478 C   0  0  0  0  0  0  0  0  0  0  0  0
    5.7718   -3.5663    0.0427 O   0  0  0  0  0  0  0  0  0  0  0  0
    7.8601   -2.5227    0.0895 C   0  0  0  0  0  0  0  0  0  0  0  0
    8.4588   -3.8753   -0.2867 C   0  0  0  0  0  0  0  0  0  0  0  0
    8.4428   -3.4847    1.1392 C   0  0  0  0  0  0  0  0  0  0  0  0
    8.7035   -1.3424   -0.2300 C   0  0  0  0  0  0  0  0  0  0  0  0
    9.9255   -1.4864    0.1717 O   0  0  0  0  0  0  0  0  0  0  0  0
    8.2626   -0.2155   -0.8859 N   0  0  0  0  0  0  0  0  0  0  0  0
    8.9663    0.9916   -1.2279 C   0  0  0  0  0  0  0  0  0  0  0  0
   10.2261    1.1961   -0.9431 C   0  0  0  0  0  0  0  0  0  0  0  0
   10.9546    2.4310   -1.2907 C   0  0  0  0  0  0  0  0  0  0  0  0
   10.1946    3.4846   -1.9837 C   0  0  0  0  0  0  0  0  0  0  0  0
   10.2335    4.6437   -1.1848 F   0  0  0  0  0  0  0  0  0  0  0  0
    8.8021    3.1813   -2.2644 C   0  0  0  0  0  0  0  0  0  0  0  0
    8.2359    2.0634   -1.9301 C   0  0  0  0  0  0  0  0  0  0  0  0
    3.3805   -2.2291    0.7736 C   0  0  0  0  0  0  0  0  0  0  0  0
    1.9865   -2.0377    0.8203 C   0  0  0  0  0  0  0  0  0  0  0  0
    1.2365   -3.0982    1.2142 F   0  0  0  0  0  0  0  0  0  0  0  0
   -0.4287   -0.9581    2.9201 C   0  0  0  0  0  0  0  0  0  0  0  0
   -1.3521   -1.0070    3.9339 C   0  0  0  0  0  0  0  0  0  0  0  0
   -2.6377   -0.8567    3.6575 N   0  0  0  0  0  0  0  0  0  0  0  0
   -3.0892   -0.6527    2.3915 C   0  0  0  0  0  0  0  0  0  0  0  0
   -4.4416   -0.5052    2.1646 C   0  0  0  0  0  0  0  0  0  0  0  0
   -4.8811   -0.3029    0.8827 C   0  0  0  0  0  0  0  0  0  0  0  0
   -6.2490   -0.1596    0.6965 O   0  0  0  0  0  0  0  0  0  0  0  0
   -7.1921   -0.2052    1.7204 C   0  0  0  0  0  0  0  0  0  0  0  0
   -8.5663   -0.0150    1.1322 C   0  0  0  0  0  0  0  0  0  0  0  0
   -8.6955    1.3020    0.4220 C   0  0  0  0  0  0  0  0  0  0  0  0
  -10.0037    1.4621   -0.1281 N   0  0  0  0  0  0  0  0  0  0  0  0
  -10.2287    2.6808   -0.8350 C   0  0  0  0  0  0  0  0  0  0  0  0
  -11.1566    2.3511   -2.0081 C   0  0  0  0  0  0  0  0  0  0  0  0
  -11.7165    1.0092   -1.5741 C   0  0  0  0  0  0  0  0  0  0  0  0
  -10.4689    0.3786   -0.9383 C   0  0  0  0  0  0  0  0  0  0  0  0
   -4.1462    0.4826   -3.4058 H   0  0  0  0  0  0  0  0  0  0  0  0
   -2.7486    0.7305   -2.3481 H   0  0  0  0  0  0  0  0  0  0  0  0
   -3.2042   -0.9751   -2.8684 H   0  0  0  0  0  0  0  0  0  0  0  0
   -1.9172   -0.3599   -0.6920 H   0  0  0  0  0  0  0  0  0  0  0  0
    1.7492    1.1006   -0.1989 H   0  0  0  0  0  0  0  0  0  0  0  0
    4.2444    0.7990   -0.2985 H   0  0  0  0  0  0  0  0  0  0  0  0
    6.1068   -0.3582    0.4880 H   0  0  0  0  0  0  0  0  0  0  0  0
    7.7266   -4.6220   -0.6534 H   0  0  0  0  0  0  0  0  0  0  0  0
    9.4183   -3.8918   -0.8472 H   0  0  0  0  0  0  0  0  0  0  0  0
    9.4104   -3.1476    1.6028 H   0  0  0  0  0  0  0  0  0  0  0  0
    7.7630   -3.9592    1.8454 H   0  0  0  0  0  0  0  0  0  0  0  0
    7.2650   -0.2466   -1.2614 H   0  0  0  0  0  0  0  0  0  0  0  0
   10.8241    0.4296   -0.4110 H   0  0  0  0  0  0  0  0  0  0  0  0
   11.8456    2.1794   -1.9484 H   0  0  0  0  0  0  0  0  0  0  0  0
   11.3908    2.8108   -0.3161 H   0  0  0  0  0  0  0  0  0  0  0  0
   10.6645    3.7949   -2.9610 H   0  0  0  0  0  0  0  0  0  0  0  0
    8.2315    3.9729   -2.7929 H   0  0  0  0  0  0  0  0  0  0  0  0
    7.1670    1.8981   -2.1758 H   0  0  0  0  0  0  0  0  0  0  0  0
    3.7856   -3.1876    1.0764 H   0  0  0  0  0  0  0  0  0  0  0  0
    0.6075   -1.0712    3.1537 H   0  0  0  0  0  0  0  0  0  0  0  0
   -1.0717   -1.1659    4.9745 H   0  0  0  0  0  0  0  0  0  0  0  0
   -5.1120   -0.5552    3.0169 H   0  0  0  0  0  0  0  0  0  0  0  0
   -7.1820   -1.2490    2.1462 H   0  0  0  0  0  0  0  0  0  0  0  0
   -6.9796    0.4646    2.5680 H   0  0  0  0  0  0  0  0  0  0  0  0
   -9.3685   -0.0413    1.9143 H   0  0  0  0  0  0  0  0  0  0  0  0
   -8.7385   -0.8568    0.4359 H   0  0  0  0  0  0  0  0  0  0  0  0
   -8.5595    2.1075    1.1881 H   0  0  0  0  0  0  0  0  0  0  0  0
   -7.8715    1.4342   -0.3151 H   0  0  0  0  0  0  0  0  0  0  0  0
  -10.7856    3.4045   -0.1999 H   0  0  0  0  0  0  0  0  0  0  0  0
   -9.3011    3.1863   -1.1756 H   0  0  0  0  0  0  0  0  0  0  0  0
  -11.9700    3.1048   -2.1030 H   0  0  0  0  0  0  0  0  0  0  0  0
  -10.5960    2.2617   -2.9622 H   0  0  0  0  0  0  0  0  0  0  0  0
  -12.4672    1.2054   -0.7918 H   0  0  0  0  0  0  0  0  0  0  0  0
  -12.0978    0.4163   -2.4102 H   0  0  0  0  0  0  0  0  0  0  0  0
  -10.7030   -0.5229   -0.3684 H   0  0  0  0  0  0  0  0  0  0  0  0
   -9.7919    0.1704   -1.8195 H   0  0  0  0  0  0  0  0  0  0  0  0
  1  2  1  0
  2  3  1  0
  3  4  2  0
  4  5  1  0
  5  6  2  0
  6  7  1  0
  7  8  1  0
  8  9  2  0
  9 10  1  0
 10 11  2  0
 11 12  1  0
 12 13  1  0
 13 14  2  0
 13 15  1  0
 15 16  1  0
 16 17  1  0
 15 18  1  0
 18 19  2  0
 18 20  1  0
 20 21  1  0
 21 22  2  0
 22 23  1  0
 23 24  1  0
 24 25  1  0
 24 26  1  0
 26 27  2  0
 11 28  1  0
 28 29  2  0
 29 30  1  0
  6 31  1  0
 31 32  2  0
 32 33  1  0
 33 34  2  0
 34 35  1  0
 35 36  2  0
 36 37  1  0
 37 38  1  0
 38 39  1  0
 39 40  1  0
 40 41  1  0
 41 42  1  0
 42 43  1  0
 43 44  1  0
 44 45  1  0
 36  3  1  0
 45 41  1  0
 34  5  1  0
 29  8  1  0
 17 15  1  0
 27 21  1  0
  1 46  1  0
  1 47  1  0
  1 48  1  0
  4 49  1  0
  9 50  1  0
 10 51  1  0
 12 52  1  0
 16 53  1  0
 16 54  1  0
 17 55  1  0
 17 56  1  0
 20 57  1  0
 22 58  1  0
 23 59  1  0
 23 60  1  0
 24 61  1  0
 26 62  1  0
 27 63  1  0
 28 64  1  0
 31 65  1  0
 32 66  1  0
 35 67  1  0
 38 68  1  0
 38 69  1  0
 39 70  1  0
 39 71  1  0
 40 72  1  0
 40 73  1  0
 42 74  1  0
 42 75  1  0
 43 76  1  0
 43 77  1  0
 44 78  1  0
 44 79  1  0
 45 80  1  0
 45 81  1  0
M  END
$$$$
[H]Oc1c([H])c([H])c2c(c1[H])C([H])([H])C([H])([H])N(S(=O)(=O)c1c([H])c([H])c(OC([H])([H])[H])c([H])c1[H])C2([H])C(=O)N([H])O[H]
     RDKit          3D

 44 46  0  0  0  0  0  0  0  0999 V2000
    6.7364    1.1346    0.5370 C   0  0  0  0  0  0  0  0  0  0  0  0
    5.9483    0.1367    1.1709 O   0  0  0  0  0  0  0  0  0  0  0  0
    4.7040   -0.2104    0.6346 C   0  0  0  0  0  0  0  0  0  0  0  0
    3.9485   -1.1825    1.2620 C   0  0  0  0  0  0  0  0  0  0  0  0
    2.7244   -1.5371    0.7509 C   0  0  0  0  0  0  0  0  0  0  0  0
    2.2059   -0.9509   -0.3873 C   0  0  0  0  0  0  0  0  0  0  0  0
    2.9776    0.0194   -0.9998 C   0  0  0  0  0  0  0  0  0  0  0  0
    4.2090    0.3896   -0.5025 C   0  0  0  0  0  0  0  0  0  0  0  0
    0.6496   -1.4399   -0.9893 S   0  0  0  0  0  0  0  0  0  0  0  0
    0.3929   -2.8698   -0.6117 O   0  0  0  0  0  0  0  0  0  0  0  0
    0.6562   -1.2996   -2.4889 O   0  0  0  0  0  0  0  0  0  0  0  0
   -0.5807   -0.4687   -0.2843 N   0  0  0  0  0  0  0  0  0  0  0  0
   -0.4608    0.9140   -0.5915 C   0  0  0  0  0  0  0  0  0  0  0  0
   -1.4087    1.6783    0.3469 C   0  0  0  0  0  0  0  0  0  0  0  0
   -2.7634    1.3319   -0.1479 C   0  0  0  0  0  0  0  0  0  0  0  0
   -3.8039    2.2248   -0.2307 C   0  0  0  0  0  0  0  0  0  0  0  0
   -5.0577    1.8297   -0.7126 C   0  0  0  0  0  0  0  0  0  0  0  0
   -6.0825    2.7612   -0.7805 O   0  0  0  0  0  0  0  0  0  0  0  0
   -5.2709    0.5351   -1.1133 C   0  0  0  0  0  0  0  0  0  0  0  0
   -4.2260   -0.3587   -1.0294 C   0  0  0  0  0  0  0  0  0  0  0  0
   -2.9687    0.0312   -0.5477 C   0  0  0  0  0  0  0  0  0  0  0  0
   -1.8888   -0.9819   -0.4799 C   0  0  0  0  0  0  0  0  0  0  0  0
   -2.2109   -1.8340    0.7216 C   0  0  0  0  0  0  0  0  0  0  0  0
   -3.3367   -2.3922    0.6934 O   0  0  0  0  0  0  0  0  0  0  0  0
   -1.3119   -1.9940    1.8029 N   0  0  0  0  0  0  0  0  0  0  0  0
   -1.6801   -2.7678    2.8258 O   0  0  0  0  0  0  0  0  0  0  0  0
    7.5570    1.4848    1.1745 H   0  0  0  0  0  0  0  0  0  0  0  0
    7.1602    0.7940   -0.4227 H   0  0  0  0  0  0  0  0  0  0  0  0
    6.1257    2.0459    0.2984 H   0  0  0  0  0  0  0  0  0  0  0  0
    4.3639   -1.6436    2.1632 H   0  0  0  0  0  0  0  0  0  0  0  0
    2.1519   -2.3098    1.2714 H   0  0  0  0  0  0  0  0  0  0  0  0
    2.5863    0.4832   -1.8855 H   0  0  0  0  0  0  0  0  0  0  0  0
    4.8151    1.1477   -0.9788 H   0  0  0  0  0  0  0  0  0  0  0  0
   -0.8591    1.1200   -1.6201 H   0  0  0  0  0  0  0  0  0  0  0  0
    0.5293    1.3289   -0.4246 H   0  0  0  0  0  0  0  0  0  0  0  0
   -1.1991    2.7482    0.3543 H   0  0  0  0  0  0  0  0  0  0  0  0
   -1.2309    1.2063    1.3579 H   0  0  0  0  0  0  0  0  0  0  0  0
   -3.6448    3.2446    0.0824 H   0  0  0  0  0  0  0  0  0  0  0  0
   -5.9251    3.7159   -0.4849 H   0  0  0  0  0  0  0  0  0  0  0  0
   -6.2593    0.2359   -1.4901 H   0  0  0  0  0  0  0  0  0  0  0  0
   -4.4183   -1.3784   -1.3524 H   0  0  0  0  0  0  0  0  0  0  0  0
   -1.9152   -1.6475   -1.3837 H   0  0  0  0  0  0  0  0  0  0  0  0
   -0.3853   -1.5375    1.8350 H   0  0  0  0  0  0  0  0  0  0  0  0
   -1.5531   -3.7375    2.6570 H   0  0  0  0  0  0  0  0  0  0  0  0
  1  2  1  0
  2  3  1  0
  3  4  2  0
  4  5  1  0
  5  6  2  0
  6  7  1  0
  7  8  2  0
  6  9  1  0
  9 10  2  0
  9 11  2  0
  9 12  1  0
 12 13  1  0
 13 14  1  0
 14 15  1  0
 15 16  2  0
 16 17  1  0
 17 18  1  0
 17 19  2  0
 19 20  1  0
 20 21  2  0
 21 22  1  0
 22 23  1  0
 23 24  2  0
 23 25  1  0
 25 26  1  0
  8  3  1  0
 22 12  1  0
 21 15  1  0
  1 27  1  0
  1 28  1  0
  1 29  1  0
  4 30  1  0
  5 31  1  0
  7 32  1  0
  8 33  1  0
 13 34  1  0
 13 35  1  0
 14 36  1  0
 14 37  1  0
 16 38  1  0
 18 39  1  0
 19 40  1  0
 20 41  1  0
 22 42  1  0
 25 43  1  0
 26 44  1  0
M  END
$$$$
[H]O[C@@]1([H])C([H])=C(C(=O)N([H])C([H])([H])C([H])([H])c2c([H])c([H])c(OC([H])([H])[H])c([H])c2[H])O[C@]([H])(O[C@@]([H])(C(=O)N([H])[H])[C@@]2([H])O[C@@]([H])(n3c([H])c([H])c(=O)n([H])c3=O)[C@]([H])(O[H])[C@]2([H])OC([H])([H])[H])[C@@]1([H])O[H]
     RDKit          3D

 74 77  0  0  0  0  0  0  0  0999 V2000
   -3.6510   -1.7705    4.2475 C   0  0  0  0  0  0  0  0  0  0  0  0
   -4.2288   -0.9332    3.2817 O   0  0  0  0  0  0  0  0  0  0  0  0
   -3.3343   -0.5931    2.3186 C   0  0  1  0  0  0  0  0  0  0  0  0
   -3.7980   -1.3033    1.0015 C   0  0  1  0  0  0  0  0  0  0  0  0
   -5.1730   -1.0945    0.9614 O   0  0  0  0  0  0  0  0  0  0  0  0
   -3.1474   -0.4346   -0.0200 C   0  0  1  0  0  0  0  0  0  0  0  0
   -2.4051    0.5283    0.6763 O   0  0  0  0  0  0  0  0  0  0  0  0
   -3.3059    0.7929    1.7916 C   0  0  2  0  0  0  0  0  0  0  0  0
   -2.6842    1.8637    2.5824 C   0  0  1  0  0  0  0  0  0  0  0  0
   -2.3880    2.9105    1.6560 O   0  0  0  0  0  0  0  0  0  0  0  0
   -1.0506    3.2827    1.7941 C   0  0  1  0  0  0  0  0  0  0  0  0
   -0.2621    2.7535    0.6756 O   0  0  0  0  0  0  0  0  0  0  0  0
    1.0974    3.0281    0.7757 C   0  0  0  0  0  0  0  0  0  0  0  0
    1.5389    4.0499    1.5139 C   0  0  0  0  0  0  0  0  0  0  0  0
    0.6587    4.9618    2.2735 C   0  0  2  0  0  0  0  0  0  0  0  0
    0.6604    4.5687    3.6133 O   0  0  0  0  0  0  0  0  0  0  0  0
   -0.7806    4.7426    1.7730 C   0  0  2  0  0  0  0  0  0  0  0  0
   -1.6380    5.5531    2.4687 O   0  0  0  0  0  0  0  0  0  0  0  0
    2.0953    2.2245    0.0906 C   0  0  0  0  0  0  0  0  0  0  0  0
    3.3363    2.5295    0.2144 O   0  0  0  0  0  0  0  0  0  0  0  0
    1.8066    1.1067   -0.7181 N   0  0  0  0  0  0  0  0  0  0  0  0
    2.8707    0.3656   -1.3507 C   0  0  0  0  0  0  0  0  0  0  0  0
    2.3670   -0.7855   -2.1585 C   0  0  0  0  0  0  0  0  0  0  0  0
    3.4300   -1.5643   -2.7941 C   0  0  0  0  0  0  0  0  0  0  0  0
    3.9854   -2.6237   -2.0996 C   0  0  0  0  0  0  0  0  0  0  0  0
    4.9902   -3.4065   -2.6376 C   0  0  0  0  0  0  0  0  0  0  0  0
    5.4579   -3.1319   -3.9004 C   0  0  0  0  0  0  0  0  0  0  0  0
    6.4607   -3.8980   -4.4612 O   0  0  0  0  0  0  0  0  0  0  0  0
    7.0869   -4.9851   -3.8485 C   0  0  0  0  0  0  0  0  0  0  0  0
    4.9096   -2.0781   -4.5991 C   0  0  0  0  0  0  0  0  0  0  0  0
    3.8924   -1.2830   -4.0577 C   0  0  0  0  0  0  0  0  0  0  0  0
   -3.6003    2.4539    3.5933 C   0  0  0  0  0  0  0  0  0  0  0  0
   -4.0230    1.8286    4.7918 N   0  0  0  0  0  0  0  0  0  0  0  0
   -4.0540    3.6043    3.3970 O   0  0  0  0  0  0  0  0  0  0  0  0
   -2.4036   -1.0833   -1.0327 N   0  0  0  0  0  0  0  0  0  0  0  0
   -1.7525   -2.2368   -0.8497 C   0  0  0  0  0  0  0  0  0  0  0  0
   -1.0686   -2.8494   -1.8777 C   0  0  0  0  0  0  0  0  0  0  0  0
   -1.0225   -2.2949   -3.1588 C   0  0  0  0  0  0  0  0  0  0  0  0
   -0.4039   -2.8553   -4.0783 O   0  0  0  0  0  0  0  0  0  0  0  0
   -1.6975   -1.1194   -3.3025 N   0  0  0  0  0  0  0  0  0  0  0  0
   -2.3587   -0.5371   -2.2897 C   0  0  0  0  0  0  0  0  0  0  0  0
   -2.9674    0.5601   -2.4897 O   0  0  0  0  0  0  0  0  0  0  0  0
   -2.7937   -1.2484    4.7342 H   0  0  0  0  0  0  0  0  0  0  0  0
   -3.3471   -2.7244    3.7725 H   0  0  0  0  0  0  0  0  0  0  0  0
   -4.4384   -2.0122    4.9904 H   0  0  0  0  0  0  0  0  0  0  0  0
   -2.2953   -0.9843    2.5292 H   0  0  0  0  0  0  0  0  0  0  0  0
   -3.5153   -2.3477    1.0219 H   0  0  0  0  0  0  0  0  0  0  0  0
   -5.5181   -0.8321    0.0789 H   0  0  0  0  0  0  0  0  0  0  0  0
   -3.9356    0.1886   -0.5555 H   0  0  0  0  0  0  0  0  0  0  0  0
   -4.2895    1.0308    1.3563 H   0  0  0  0  0  0  0  0  0  0  0  0
   -1.7770    1.5932    3.0702 H   0  0  0  0  0  0  0  0  0  0  0  0
   -0.5808    2.8039    2.6667 H   0  0  0  0  0  0  0  0  0  0  0  0
    2.6171    4.2442    1.5747 H   0  0  0  0  0  0  0  0  0  0  0  0
    0.9403    6.0309    2.1400 H   0  0  0  0  0  0  0  0  0  0  0  0
   -0.1972    4.6900    4.0605 H   0  0  0  0  0  0  0  0  0  0  0  0
   -0.7551    5.1361    0.7098 H   0  0  0  0  0  0  0  0  0  0  0  0
   -2.1411    6.1666    1.8799 H   0  0  0  0  0  0  0  0  0  0  0  0
    0.8306    0.8068   -0.8665 H   0  0  0  0  0  0  0  0  0  0  0  0
    3.6629    0.0657   -0.6253 H   0  0  0  0  0  0  0  0  0  0  0  0
    3.4012    1.0668   -2.0599 H   0  0  0  0  0  0  0  0  0  0  0  0
    1.6942   -0.3533   -2.9403 H   0  0  0  0  0  0  0  0  0  0  0  0
    1.7150   -1.3958   -1.4984 H   0  0  0  0  0  0  0  0  0  0  0  0
    3.6377   -2.8679   -1.0979 H   0  0  0  0  0  0  0  0  0  0  0  0
    5.4229   -4.2283   -2.1032 H   0  0  0  0  0  0  0  0  0  0  0  0
    6.4319   -5.8843   -3.9988 H   0  0  0  0  0  0  0  0  0  0  0  0
    8.0783   -5.1525   -4.3392 H   0  0  0  0  0  0  0  0  0  0  0  0
    7.2321   -4.8719   -2.7603 H   0  0  0  0  0  0  0  0  0  0  0  0
    5.2539   -1.8460   -5.5807 H   0  0  0  0  0  0  0  0  0  0  0  0
    3.4523   -0.4545   -4.5869 H   0  0  0  0  0  0  0  0  0  0  0  0
   -4.9939    1.7108    5.1063 H   0  0  0  0  0  0  0  0  0  0  0  0
   -3.2631    1.4540    5.4114 H   0  0  0  0  0  0  0  0  0  0  0  0
   -1.7581   -2.6967    0.1204 H   0  0  0  0  0  0  0  0  0  0  0  0
   -0.5451   -3.7822   -1.7258 H   0  0  0  0  0  0  0  0  0  0  0  0
   -1.6711   -0.6930   -4.2519 H   0  0  0  0  0  0  0  0  0  0  0  0
  1  2  1  0
  2  3  1  0
  3  4  1  0
  4  5  1  0
  4  6  1  0
  6  7  1  0
  7  8  1  0
  8  9  1  0
  9 10  1  0
 10 11  1  0
 11 12  1  0
 12 13  1  0
 13 14  2  0
 14 15  1  0
 15 16  1  0
 15 17  1  0
 17 18  1  0
 13 19  1  0
 19 20  2  0
 19 21  1  0
 21 22  1  0
 22 23  1  0
 23 24  1  0
 24 25  2  0
 25 26  1  0
 26 27  2  0
 27 28  1  0
 28 29  1  0
 27 30  1  0
 30 31  2  0
  9 32  1  0
 32 33  1  0
 32 34  2  0
  6 35  1  0
 35 36  1  0
 36 37  2  0
 37 38  1  0
 38 39  2  0
 38 40  1  0
 40 41  1  0
 41 42  2  0
  8  3  1  0
 17 11  1  0
 31 24  1  0
 41 35  1  0
  1 43  1  0
  1 44  1  0
  1 45  1  0
  3 46  1  1
  4 47  1  1
  5 48  1  0
  6 49  1  6
  8 50  1  6
  9 51  1  1
 11 52  1  1
 14 53  1  0
 15 54  1  1
 16 55  1  0
 17 56  1  6
 18 57  1  0
 21 58  1  0
 22 59  1  0
 22 60  1  0
 23 61  1  0
 23 62  1  0
 25 63  1  0
 26 64  1  0
 29 65  1  0
 29 66  1  0
 29 67  1  0
 30 68  1  0
 31 69  1  0
 33 70  1  0
 33 71  1  0
 36 72  1  0
 37 73  1  0
 40 74  1  0
M  END
$$$$
[H]c1nc([H])c(-c2c([H])c3nc(N([H])C(=O)N([H])C([H])([H])C([H])([H])[H])sc3n(C([H])(C([H])([H])[H])C([H])([H])[H])c2=O)c([H])c1[H]
     RDKit          3D

 44 46  0  0  0  0  0  0  0  0999 V2000
    7.8051   -1.1162    0.5284 C   0  0  0  0  0  0  0  0  0  0  0  0
    6.3918   -1.5958    0.4545 C   0  0  0  0  0  0  0  0  0  0  0  0
    5.5001   -0.4502    0.3463 N   0  0  0  0  0  0  0  0  0  0  0  0
    4.1017   -0.5917    0.2590 C   0  0  0  0  0  0  0  0  0  0  0  0
    3.5795   -1.7259    0.2724 O   0  0  0  0  0  0  0  0  0  0  0  0
    3.2865    0.5516    0.1560 N   0  0  0  0  0  0  0  0  0  0  0  0
    1.8481    0.3930    0.0667 C   0  0  0  0  0  0  0  0  0  0  0  0
    0.9190    1.3135   -0.0344 N   0  0  0  0  0  0  0  0  0  0  0  0
   -0.3314    0.9789   -0.1036 C   0  0  0  0  0  0  0  0  0  0  0  0
   -1.4408    1.8431   -0.2144 C   0  0  0  0  0  0  0  0  0  0  0  0
   -2.6951    1.3291   -0.2763 C   0  0  0  0  0  0  0  0  0  0  0  0
   -3.8073    2.2611   -0.3938 C   0  0  0  0  0  0  0  0  0  0  0  0
   -3.9290    3.3869    0.3900 C   0  0  0  0  0  0  0  0  0  0  0  0
   -5.0069    4.2580    0.2448 C   0  0  0  0  0  0  0  0  0  0  0  0
   -5.9576    3.9839   -0.6949 C   0  0  0  0  0  0  0  0  0  0  0  0
   -5.8380    2.8824   -1.4614 N   0  0  0  0  0  0  0  0  0  0  0  0
   -4.7843    2.0217   -1.3267 C   0  0  0  0  0  0  0  0  0  0  0  0
   -2.9800   -0.0196   -0.2378 C   0  0  0  0  0  0  0  0  0  0  0  0
   -4.1454   -0.4679   -0.2960 O   0  0  0  0  0  0  0  0  0  0  0  0
   -1.9186   -0.8364   -0.1323 N   0  0  0  0  0  0  0  0  0  0  0  0
   -2.0617   -2.2718   -0.0808 C   0  0  0  0  0  0  0  0  0  0  0  0
   -1.2284   -2.9623   -1.1304 C   0  0  0  0  0  0  0  0  0  0  0  0
   -1.7539   -2.8286    1.2907 C   0  0  0  0  0  0  0  0  0  0  0  0
   -0.6383   -0.3559   -0.0673 C   0  0  0  0  0  0  0  0  0  0  0  0
    0.9219   -1.0454    0.0661 S   0  0  0  0  0  0  0  0  0  0  0  0
    8.2328   -1.1769    1.5511 H   0  0  0  0  0  0  0  0  0  0  0  0
    7.8915   -0.0594    0.2021 H   0  0  0  0  0  0  0  0  0  0  0  0
    8.4539   -1.7084   -0.1497 H   0  0  0  0  0  0  0  0  0  0  0  0
    6.2781   -2.2264   -0.4353 H   0  0  0  0  0  0  0  0  0  0  0  0
    6.1695   -2.1448    1.3996 H   0  0  0  0  0  0  0  0  0  0  0  0
    5.9019    0.5177    0.3319 H   0  0  0  0  0  0  0  0  0  0  0  0
    3.7047    1.5059    0.1433 H   0  0  0  0  0  0  0  0  0  0  0  0
   -1.3062    2.9156   -0.2511 H   0  0  0  0  0  0  0  0  0  0  0  0
   -3.1896    3.6341    1.1473 H   0  0  0  0  0  0  0  0  0  0  0  0
   -5.0897    5.1362    0.8655 H   0  0  0  0  0  0  0  0  0  0  0  0
   -6.8262    4.6231   -0.8607 H   0  0  0  0  0  0  0  0  0  0  0  0
   -4.7888    1.1724   -1.9951 H   0  0  0  0  0  0  0  0  0  0  0  0
   -3.1213   -2.5224   -0.2936 H   0  0  0  0  0  0  0  0  0  0  0  0
   -0.6568   -2.2882   -1.7673 H   0  0  0  0  0  0  0  0  0  0  0  0
   -0.5574   -3.7071   -0.6208 H   0  0  0  0  0  0  0  0  0  0  0  0
   -1.8559   -3.5916   -1.8228 H   0  0  0  0  0  0  0  0  0  0  0  0
   -1.3151   -3.8468    1.1608 H   0  0  0  0  0  0  0  0  0  0  0  0
   -1.0726   -2.2118    1.8778 H   0  0  0  0  0  0  0  0  0  0  0  0
   -2.6899   -2.9566    1.8926 H   0  0  0  0  0  0  0  0  0  0  0  0
  1  2  1  0
  2  3  1  0
  3  4  1  0
  4  5  2  0
  4  6  1  0
  6  7  1  0
  7  8  2  0
  8  9  1  0
  9 10  1  0
 10 11  2  0
 11 12  1  0
 12 13  2  0
 13 14  1  0
 14 15  2  0
 15 16  1  0
 16 17  2  0
 11 18  1  0
 18 19  2  0
 18 20  1  0
 20 21  1  0
 21 22  1  0
 21 23  1  0
 20 24  1  0
 24 25  1  0
 25  7  1  0
 24  9  2  0
 17 12  1  0
  1 26  1  0
  1 27  1  0
  1 28  1  0
  2 29  1  0
  2 30  1  0
  3 31  1  0
  6 32  1  0
 10 33  1  0
 13 34  1  0
 14 35  1  0
 15 36  1  0
 17 37  1  0
 21 38  1  0
 22 39  1  0
 22 40  1  0
 22 41  1  0
 23 42  1  0
 23 43  1  0
 23 44  1  0
M  END
$$$$
[H]O[C@]1([H])C([H])([H])C([H])([H])[C@@]([H])(N([H])[C@]2([H])C([H])([H])C([H])([H])[C@@]([H])(n3c([H])c(-c4c([H])c([H])c(Oc5c([H])c([H])c([H])c([H])c5[H])c([H])c4[H])c4c(N([H])[H])nc([H])nc43)C([H])([H])C2([H])[H])C([H])([H])C1([H])[H]
     RDKit          3D

 72 77  0  0  0  0  0  0  0  0999 V2000
   -3.8672    2.6662    0.8145 N   0  0  0  0  0  0  0  0  0  0  0  0
   -2.4507    2.6608    0.6540 C   0  0  0  0  0  0  0  0  0  0  0  0
   -1.8006    3.8703    0.6877 N   0  0  0  0  0  0  0  0  0  0  0  0
   -0.4806    3.9146    0.5882 C   0  0  0  0  0  0  0  0  0  0  0  0
    0.2056    2.7820    0.4544 N   0  0  0  0  0  0  0  0  0  0  0  0
   -0.3891    1.5767    0.4147 C   0  0  0  0  0  0  0  0  0  0  0  0
    0.0491    0.3103    0.2907 N   0  0  0  0  0  0  0  0  0  0  0  0
   -0.9933   -0.5515    0.3016 C   0  0  0  0  0  0  0  0  0  0  0  0
   -2.1379    0.1387    0.4373 C   0  0  0  0  0  0  0  0  0  0  0  0
   -3.5639   -0.2232    0.4576 C   0  0  0  0  0  0  0  0  0  0  0  0
   -4.2774   -0.5477    1.5658 C   0  0  0  0  0  0  0  0  0  0  0  0
   -5.6520   -0.7005    1.4990 C   0  0  0  0  0  0  0  0  0  0  0  0
   -6.3753   -0.5419    0.3350 C   0  0  0  0  0  0  0  0  0  0  0  0
   -7.6506   -0.6354    0.1498 O   0  0  0  0  0  0  0  0  0  0  0  0
   -8.8895   -0.7277   -0.0303 C   0  0  0  0  0  0  0  0  0  0  0  0
   -9.4061   -0.5526   -1.3344 C   0  0  0  0  0  0  0  0  0  0  0  0
  -10.7372   -0.6240   -1.6166 C   0  0  0  0  0  0  0  0  0  0  0  0
  -11.6096   -0.8734   -0.5942 C   0  0  0  0  0  0  0  0  0  0  0  0
  -11.1735   -1.0564    0.6992 C   0  0  0  0  0  0  0  0  0  0  0  0
   -9.8332   -0.9813    0.9507 C   0  0  0  0  0  0  0  0  0  0  0  0
   -5.5970   -0.2148   -0.8079 C   0  0  0  0  0  0  0  0  0  0  0  0
   -4.2539   -0.0600   -0.7598 C   0  0  0  0  0  0  0  0  0  0  0  0
   -1.7662    1.5026    0.5168 C   0  0  0  0  0  0  0  0  0  0  0  0
    1.4375   -0.0664    0.1771 C   0  0  1  0  0  0  0  0  0  0  0  0
    1.6830   -0.9747   -0.9789 C   0  0  0  0  0  0  0  0  0  0  0  0
    3.1758   -1.4146   -0.8852 C   0  0  0  0  0  0  0  0  0  0  0  0
    3.9673   -0.1311   -1.1816 C   0  0  1  0  0  0  0  0  0  0  0  0
    3.7712    0.7264    0.0731 C   0  0  0  0  0  0  0  0  0  0  0  0
    2.3278    1.1774    0.0881 C   0  0  0  0  0  0  0  0  0  0  0  0
    5.2769   -0.2779   -1.5699 N   0  0  0  0  0  0  0  0  0  0  0  0
    6.3642   -0.7326   -0.8549 C   0  0  1  0  0  0  0  0  0  0  0  0
    7.4354    0.3943   -0.9902 C   0  0  0  0  0  0  0  0  0  0  0  0
    8.7781   -0.2346   -0.6756 C   0  0  0  0  0  0  0  0  0  0  0  0
    8.7769   -0.6325    0.7889 C   0  0  2  0  0  0  0  0  0  0  0  0
    9.9176   -1.4192    0.9956 O   0  0  0  0  0  0  0  0  0  0  0  0
    7.5803   -1.4430    1.1566 C   0  0  0  0  0  0  0  0  0  0  0  0
    6.2663   -0.9091    0.6275 C   0  0  0  0  0  0  0  0  0  0  0  0
   -4.2108    2.4907    1.8066 H   0  0  0  0  0  0  0  0  0  0  0  0
   -4.5533    2.8490    0.0716 H   0  0  0  0  0  0  0  0  0  0  0  0
    0.0738    4.8713    0.6092 H   0  0  0  0  0  0  0  0  0  0  0  0
   -0.9327   -1.6463    0.2196 H   0  0  0  0  0  0  0  0  0  0  0  0
   -3.7407   -0.6825    2.5049 H   0  0  0  0  0  0  0  0  0  0  0  0
   -6.2034   -0.9637    2.4119 H   0  0  0  0  0  0  0  0  0  0  0  0
   -8.7138   -0.3435   -2.1469 H   0  0  0  0  0  0  0  0  0  0  0  0
  -11.1383   -0.4872   -2.6216 H   0  0  0  0  0  0  0  0  0  0  0  0
  -12.6819   -0.9394   -0.7893 H   0  0  0  0  0  0  0  0  0  0  0  0
  -11.9419   -1.2561    1.4573 H   0  0  0  0  0  0  0  0  0  0  0  0
   -9.5301   -1.1316    2.0057 H   0  0  0  0  0  0  0  0  0  0  0  0
   -6.1503   -0.0918   -1.7518 H   0  0  0  0  0  0  0  0  0  0  0  0
   -3.6438    0.1911   -1.6259 H   0  0  0  0  0  0  0  0  0  0  0  0
    1.7668   -0.6402    1.0884 H   0  0  0  0  0  0  0  0  0  0  0  0
    1.0731   -1.8703   -0.8295 H   0  0  0  0  0  0  0  0  0  0  0  0
    1.5259   -0.4775   -1.9919 H   0  0  0  0  0  0  0  0  0  0  0  0
    3.2668   -1.7627    0.1410 H   0  0  0  0  0  0  0  0  0  0  0  0
    3.4014   -2.2188   -1.5955 H   0  0  0  0  0  0  0  0  0  0  0  0
    3.4157    0.3685   -1.9670 H   0  0  0  0  0  0  0  0  0  0  0  0
    4.4651    1.5812    0.0025 H   0  0  0  0  0  0  0  0  0  0  0  0
    3.8627    0.1485    1.0185 H   0  0  0  0  0  0  0  0  0  0  0  0
    2.2280    1.7381    1.0385 H   0  0  0  0  0  0  0  0  0  0  0  0
    2.0735    1.7254   -0.8418 H   0  0  0  0  0  0  0  0  0  0  0  0
    5.5380   -0.1078   -2.5580 H   0  0  0  0  0  0  0  0  0  0  0  0
    6.8484   -1.6169   -1.2992 H   0  0  0  0  0  0  0  0  0  0  0  0
    7.4559    0.8036   -2.0057 H   0  0  0  0  0  0  0  0  0  0  0  0
    7.2524    1.2198   -0.2907 H   0  0  0  0  0  0  0  0  0  0  0  0
    9.0376   -1.0623   -1.3291 H   0  0  0  0  0  0  0  0  0  0  0  0
    9.5937    0.5287   -0.7999 H   0  0  0  0  0  0  0  0  0  0  0  0
    8.8518    0.2121    1.4650 H   0  0  0  0  0  0  0  0  0  0  0  0
   10.6758   -1.1355    0.4619 H   0  0  0  0  0  0  0  0  0  0  0  0
    7.6865   -2.4897    0.7513 H   0  0  0  0  0  0  0  0  0  0  0  0
    7.5638   -1.5025    2.2677 H   0  0  0  0  0  0  0  0  0  0  0  0
    5.4958   -1.6050    0.9608 H   0  0  0  0  0  0  0  0  0  0  0  0
    6.1800    0.1089    1.0836 H   0  0  0  0  0  0  0  0  0  0  0  0
  1  2  1  0
  2  3  2  0
  3  4  1  0
  4  5  2  0
  5  6  1  0
  6  7  1  0
  7  8  1  0
  8  9  2  0
  9 10  1  0
 10 11  2  0
 11 12  1  0
 12 13  2  0
 13 14  1  0
 14 15  1  0
 15 16  2  0
 16 17  1  0
 17 18  2  0
 18 19  1  0
 19 20  2  0
 13 21  1  0
 21 22  2  0
  9 23  1  0
  7 24  1  0
 24 25  1  0
 25 26  1  0
 26 27  1  0
 27 28  1  0
 28 29  1  0
 27 30  1  0
 30 31  1  0
 31 32  1  0
 32 33  1  0
 33 34  1  0
 34 35  1  0
 34 36  1  0
 36 37  1  0
 23  2  1  0
 29 24  1  0
 37 31  1  0
 23  6  2  0
 22 10  1  0
 20 15  1  0
  1 38  1  0
  1 39  1  0
  4 40  1  0
  8 41  1  0
 11 42  1  0
 12 43  1  0
 16 44  1  0
 17 45  1  0
 18 46  1  0
 19 47  1  0
 20 48  1  0
 21 49  1  0
 22 50  1  0
 24 51  1  1
 25 52  1  0
 25 53  1  0
 26 54  1  0
 26 55  1  0
 27 56  1  6
 28 57  1  0
 28 58  1  0
 29 59  1  0
 29 60  1  0
 30 61  1  0
 31 62  1  6
 32 63  1  0
 32 64  1  0
 33 65  1  0
 33 66  1  0
 34 67  1  1
 35 68  1  0
 36 69  1  0
 36 70  1  0
 37 71  1  0
 37 72  1  0
M  END
$$$$
[H]c1nc(N([H])c2c([H])c(OC([H])([H])[H])c(OC([H])([H])[H])c(OC([H])([H])[H])c2[H])nc(N([H])c2nc3c(c([H])c2[H])OC(C([H])([H])[H])(C([H])([H])[H])C(=O)N3[H])c1F
     RDKit          3D

 57 60  0  0  0  0  0  0  0  0999 V2000
   -5.6364    2.1181   -1.8630 C   0  0  0  0  0  0  0  0  0  0  0  0
   -5.8443    0.7587   -1.5880 O   0  0  0  0  0  0  0  0  0  0  0  0
   -4.8072    0.0010   -1.0783 C   0  0  0  0  0  0  0  0  0  0  0  0
   -3.5618    0.6012   -0.8432 C   0  0  0  0  0  0  0  0  0  0  0  0
   -2.5031   -0.0703   -0.3477 C   0  0  0  0  0  0  0  0  0  0  0  0
   -1.2316    0.4626   -0.0655 N   0  0  0  0  0  0  0  0  0  0  0  0
   -0.9067    1.8244    0.0656 C   0  0  0  0  0  0  0  0  0  0  0  0
   -1.7494    2.8585   -0.0431 N   0  0  0  0  0  0  0  0  0  0  0  0
   -1.4116    4.1432    0.0863 C   0  0  0  0  0  0  0  0  0  0  0  0
   -0.1125    4.4539    0.3502 C   0  0  0  0  0  0  0  0  0  0  0  0
    0.3587    5.6995    0.5032 F   0  0  0  0  0  0  0  0  0  0  0  0
    0.8217    3.4140    0.4762 C   0  0  0  0  0  0  0  0  0  0  0  0
    2.1801    3.7060    0.7505 N   0  0  0  0  0  0  0  0  0  0  0  0
    3.1050    2.6399    0.8733 C   0  0  0  0  0  0  0  0  0  0  0  0
    4.4571    2.8965    1.1446 C   0  0  0  0  0  0  0  0  0  0  0  0
    5.3443    1.8517    1.2613 C   0  0  0  0  0  0  0  0  0  0  0  0
    4.9285    0.5481    1.1161 C   0  0  0  0  0  0  0  0  0  0  0  0
    5.7961   -0.5293    1.2273 O   0  0  0  0  0  0  0  0  0  0  0  0
    5.5066   -1.7939    0.6515 C   0  0  0  0  0  0  0  0  0  0  0  0
    6.2846   -2.8749    1.3459 C   0  0  0  0  0  0  0  0  0  0  0  0
    5.8127   -1.7705   -0.8228 C   0  0  0  0  0  0  0  0  0  0  0  0
    4.0556   -2.1122    0.8177 C   0  0  0  0  0  0  0  0  0  0  0  0
    3.6763   -3.3008    1.0572 O   0  0  0  0  0  0  0  0  0  0  0  0
    3.1427   -1.0383    0.6962 N   0  0  0  0  0  0  0  0  0  0  0  0
    3.5828    0.3027    0.8467 C   0  0  0  0  0  0  0  0  0  0  0  0
    2.7547    1.3550    0.7416 N   0  0  0  0  0  0  0  0  0  0  0  0
    0.3826    2.1601    0.3289 N   0  0  0  0  0  0  0  0  0  0  0  0
   -2.7045   -1.4372   -0.0691 C   0  0  0  0  0  0  0  0  0  0  0  0
   -3.9082   -2.0549   -0.2874 C   0  0  0  0  0  0  0  0  0  0  0  0
   -4.0666   -3.3859   -0.0045 O   0  0  0  0  0  0  0  0  0  0  0  0
   -2.9762   -4.1177    0.5153 C   0  0  0  0  0  0  0  0  0  0  0  0
   -4.9761   -1.3425   -0.7952 C   0  0  0  0  0  0  0  0  0  0  0  0
   -6.2188   -1.9257   -1.0338 O   0  0  0  0  0  0  0  0  0  0  0  0
   -7.1743   -1.9137    0.0186 C   0  0  0  0  0  0  0  0  0  0  0  0
   -4.7813    2.3111   -2.5387 H   0  0  0  0  0  0  0  0  0  0  0  0
   -5.4850    2.7232   -0.9417 H   0  0  0  0  0  0  0  0  0  0  0  0
   -6.5386    2.5082   -2.4098 H   0  0  0  0  0  0  0  0  0  0  0  0
   -3.4970    1.6360   -1.0973 H   0  0  0  0  0  0  0  0  0  0  0  0
   -0.4103   -0.2136    0.0641 H   0  0  0  0  0  0  0  0  0  0  0  0
   -2.1604    4.9024   -0.0184 H   0  0  0  0  0  0  0  0  0  0  0  0
    2.4712    4.6872    0.8556 H   0  0  0  0  0  0  0  0  0  0  0  0
    4.7318    3.9285    1.2492 H   0  0  0  0  0  0  0  0  0  0  0  0
    6.3943    2.0780    1.4734 H   0  0  0  0  0  0  0  0  0  0  0  0
    5.7812   -3.1588    2.2953 H   0  0  0  0  0  0  0  0  0  0  0  0
    7.3278   -2.5920    1.5737 H   0  0  0  0  0  0  0  0  0  0  0  0
    6.3119   -3.7970    0.7168 H   0  0  0  0  0  0  0  0  0  0  0  0
    5.5475   -2.7321   -1.2838 H   0  0  0  0  0  0  0  0  0  0  0  0
    5.2428   -0.9509   -1.3072 H   0  0  0  0  0  0  0  0  0  0  0  0
    6.8942   -1.5474   -0.9277 H   0  0  0  0  0  0  0  0  0  0  0  0
    2.1474   -1.2464    0.4955 H   0  0  0  0  0  0  0  0  0  0  0  0
   -1.8577   -2.0119    0.3366 H   0  0  0  0  0  0  0  0  0  0  0  0
   -2.2185   -4.1935   -0.2936 H   0  0  0  0  0  0  0  0  0  0  0  0
   -3.3828   -5.1246    0.7905 H   0  0  0  0  0  0  0  0  0  0  0  0
   -2.5554   -3.6060    1.4036 H   0  0  0  0  0  0  0  0  0  0  0  0
   -7.4919   -2.9486    0.2973 H   0  0  0  0  0  0  0  0  0  0  0  0
   -8.0902   -1.3564   -0.3279 H   0  0  0  0  0  0  0  0  0  0  0  0
   -6.7818   -1.4227    0.9319 H   0  0  0  0  0  0  0  0  0  0  0  0
  1  2  1  0
  2  3  1  0
  3  4  2  0
  4  5  1  0
  5  6  1  0
  6  7  1  0
  7  8  2  0
  8  9  1  0
  9 10  2  0
 10 11  1  0
 10 12  1  0
 12 13  1  0
 13 14  1  0
 14 15  2  0
 15 16  1  0
 16 17  2  0
 17 18  1  0
 18 19  1  0
 19 20  1  0
 19 21  1  0
 19 22  1  0
 22 23  2  0
 22 24  1  0
 24 25  1  0
 25 26  2  0
 12 27  2  0
  5 28  2  0
 28 29  1  0
 29 30  1  0
 30 31  1  0
 29 32  2  0
 32 33  1  0
 33 34  1  0
 32  3  1  0
 27  7  1  0
 26 14  1  0
 25 17  1  0
  1 35  1  0
  1 36  1  0
  1 37  1  0
  4 38  1  0
  6 39  1  0
  9 40  1  0
 13 41  1  0
 15 42  1  0
 16 43  1  0
 20 44  1  0
 20 45  1  0
 20 46  1  0
 21 47  1  0
 21 48  1  0
 21 49  1  0
 24 50  1  0
 28 51  1  0
 31 52  1  0
 31 53  1  0
 31 54  1  0
 34 55  1  0
 34 56  1  0
 34 57  1  0
M  END
$$$$
[H]c1nc(C([H])([H])N2C([H])([H])C([H])([H])C3(C(=O)N(c4c([H])c([H])c(-c5c([H])c([H])c([H])c([H])c5[H])c([H])c4[H])C([H])([H])C3([H])[H])C([H])([H])C2([H])[H])c(C([H])([H])[H])c([H])c1[H]
     RDKit          3D

 60 64  0  0  0  0  0  0  0  0999 V2000
   -6.7733   -1.3408   -1.6108 C   0  0  0  0  0  0  0  0  0  0  0  0
   -6.9369   -0.3870   -0.4515 C   0  0  0  0  0  0  0  0  0  0  0  0
   -8.1678    0.1340   -0.1824 C   0  0  0  0  0  0  0  0  0  0  0  0
   -8.2812    1.0058    0.8904 C   0  0  0  0  0  0  0  0  0  0  0  0
   -7.1840    1.3311    1.6553 C   0  0  0  0  0  0  0  0  0  0  0  0
   -5.9976    0.7988    1.3582 N   0  0  0  0  0  0  0  0  0  0  0  0
   -5.8724   -0.0374    0.3345 C   0  0  0  0  0  0  0  0  0  0  0  0
   -4.5296   -0.6376    0.0054 C   0  0  0  0  0  0  0  0  0  0  0  0
   -3.5074   -0.2152    0.8689 N   0  0  0  0  0  0  0  0  0  0  0  0
   -3.1811    1.1429    0.9549 C   0  0  0  0  0  0  0  0  0  0  0  0
   -1.7142    1.4602    0.9467 C   0  0  0  0  0  0  0  0  0  0  0  0
   -0.8685    0.4155    0.3182 C   0  0  0  0  0  0  0  0  0  0  0  0
   -0.8203    0.5543   -1.1869 C   0  0  0  0  0  0  0  0  0  0  0  0
    0.5461    0.0809   -1.5870 C   0  0  0  0  0  0  0  0  0  0  0  0
    1.3803    0.3159   -0.4466 N   0  0  0  0  0  0  0  0  0  0  0  0
    0.5621    0.7247    0.6617 C   0  0  0  0  0  0  0  0  0  0  0  0
    0.9416    1.2500    1.7389 O   0  0  0  0  0  0  0  0  0  0  0  0
    2.8037    0.1942   -0.3220 C   0  0  0  0  0  0  0  0  0  0  0  0
    3.6601    0.7765   -1.2357 C   0  0  0  0  0  0  0  0  0  0  0  0
    5.0391    0.6485   -1.1025 C   0  0  0  0  0  0  0  0  0  0  0  0
    5.6002   -0.0578   -0.0624 C   0  0  0  0  0  0  0  0  0  0  0  0
    4.7453   -0.6403    0.8519 C   0  0  0  0  0  0  0  0  0  0  0  0
    3.3658   -0.5140    0.7206 C   0  0  0  0  0  0  0  0  0  0  0  0
    7.0505   -0.1960    0.0776 C   0  0  0  0  0  0  0  0  0  0  0  0
    7.8313   -0.2320   -1.0626 C   0  0  0  0  0  0  0  0  0  0  0  0
    9.1989   -0.3599   -0.9971 C   0  0  0  0  0  0  0  0  0  0  0  0
    9.8050   -0.4548    0.2429 C   0  0  0  0  0  0  0  0  0  0  0  0
    9.0342   -0.4198    1.3828 C   0  0  0  0  0  0  0  0  0  0  0  0
    7.6675   -0.2912    1.2987 C   0  0  0  0  0  0  0  0  0  0  0  0
   -1.1710   -0.9858    0.7505 C   0  0  0  0  0  0  0  0  0  0  0  0
   -2.5583   -1.1717    1.2861 C   0  0  0  0  0  0  0  0  0  0  0  0
   -7.6371   -1.1541   -2.2784 H   0  0  0  0  0  0  0  0  0  0  0  0
   -6.7796   -2.3970   -1.2567 H   0  0  0  0  0  0  0  0  0  0  0  0
   -5.8743   -1.1098   -2.1992 H   0  0  0  0  0  0  0  0  0  0  0  0
   -9.0377   -0.0957   -0.7526 H   0  0  0  0  0  0  0  0  0  0  0  0
   -9.2485    1.4379    1.1324 H   0  0  0  0  0  0  0  0  0  0  0  0
   -7.3310    2.0282    2.4963 H   0  0  0  0  0  0  0  0  0  0  0  0
   -4.6302   -1.7358    0.0614 H   0  0  0  0  0  0  0  0  0  0  0  0
   -4.3478   -0.3889   -1.0581 H   0  0  0  0  0  0  0  0  0  0  0  0
   -3.5927    1.5745    1.9092 H   0  0  0  0  0  0  0  0  0  0  0  0
   -3.6607    1.7074    0.1291 H   0  0  0  0  0  0  0  0  0  0  0  0
   -1.3442    1.6260    1.9961 H   0  0  0  0  0  0  0  0  0  0  0  0
   -1.5257    2.4203    0.4186 H   0  0  0  0  0  0  0  0  0  0  0  0
   -0.9948    1.6182   -1.4574 H   0  0  0  0  0  0  0  0  0  0  0  0
   -1.6263   -0.0617   -1.6139 H   0  0  0  0  0  0  0  0  0  0  0  0
    0.9144    0.5853   -2.5108 H   0  0  0  0  0  0  0  0  0  0  0  0
    0.4821   -1.0135   -1.7970 H   0  0  0  0  0  0  0  0  0  0  0  0
    3.2142    1.3290   -2.0484 H   0  0  0  0  0  0  0  0  0  0  0  0
    5.6994    1.1113   -1.8286 H   0  0  0  0  0  0  0  0  0  0  0  0
    5.1940   -1.1948    1.6678 H   0  0  0  0  0  0  0  0  0  0  0  0
    2.7076   -0.9808    1.4511 H   0  0  0  0  0  0  0  0  0  0  0  0
    7.3469   -0.1568   -2.0203 H   0  0  0  0  0  0  0  0  0  0  0  0
    9.8374   -0.3903   -1.8682 H   0  0  0  0  0  0  0  0  0  0  0  0
   10.8906   -0.5563    0.3059 H   0  0  0  0  0  0  0  0  0  0  0  0
    9.5140   -0.4950    2.3398 H   0  0  0  0  0  0  0  0  0  0  0  0
    7.0368   -0.2621    2.2003 H   0  0  0  0  0  0  0  0  0  0  0  0
   -0.9607   -1.6562   -0.1181 H   0  0  0  0  0  0  0  0  0  0  0  0
   -0.4619   -1.3008    1.5470 H   0  0  0  0  0  0  0  0  0  0  0  0
   -2.9050   -2.1750    0.9595 H   0  0  0  0  0  0  0  0  0  0  0  0
   -2.5469   -1.2059    2.3966 H   0  0  0  0  0  0  0  0  0  0  0  0
  1  2  1  0
  2  3  2  0
  3  4  1  0
  4  5  2  0
  5  6  1  0
  6  7  2  0
  7  8  1  0
  8  9  1  0
  9 10  1  0
 10 11  1  0
 11 12  1  0
 12 13  1  0
 13 14  1  0
 14 15  1  0
 15 16  1  0
 16 17  2  0
 15 18  1  0
 18 19  2  0
 19 20  1  0
 20 21  2  0
 21 22  1  0
 22 23  2  0
 21 24  1  0
 24 25  2  0
 25 26  1  0
 26 27  2  0
 27 28  1  0
 28 29  2  0
 12 30  1  0
 30 31  1  0
  7  2  1  0
 31  9  1  0
 16 12  1  0
 23 18  1  0
 29 24  1  0
  1 32  1  0
  1 33  1  0
  1 34  1  0
  3 35  1  0
  4 36  1  0
  5 37  1  0
  8 38  1  0
  8 39  1  0
 10 40  1  0
 10 41  1  0
 11 42  1  0
 11 43  1  0
 13 44  1  0
 13 45  1  0
 14 46  1  0
 14 47  1  0
 19 48  1  0
 20 49  1  0
 22 50  1  0
 23 51  1  0
 25 52  1  0
 26 53  1  0
 27 54  1  0
 28 55  1  0
 29 56  1  0
 30 57  1  0
 30 58  1  0
 31 59  1  0
 31 60  1  0
M  END
$$$$
[H]/C(=C(/[H])C([H])([H])N(C([H])([H])[H])C([H])([H])c1c([H])c2c([H])c(Cl)c([H])c([H])c2n1[H])c1c([H])c([H])c([H])c([H])c1[H].[H]Cl
     RDKit          3D

 43 44  0  0  0  0  0  0  0  0999 V2000
    0.6866    0.0000    0.0000 Cl  0  0  0  0  0  0  0  0  0  0  0  0
    1.2681   -2.8500    0.1897 C   0  0  0  0  0  0  0  0  0  0  0  0
    0.2411   -1.9091   -0.1245 N   0  0  0  0  0  0  0  0  0  0  0  0
   -1.0837   -2.4390   -0.1188 C   0  0  0  0  0  0  0  0  0  0  0  0
   -2.0156   -1.3122   -0.4683 C   0  0  0  0  0  0  0  0  0  0  0  0
   -2.9181   -1.0170    0.4337 C   0  0  0  0  0  0  0  0  0  0  0  0
   -3.8770    0.0470    0.2227 C   0  0  0  0  0  0  0  0  0  0  0  0
   -4.8215    0.3335    1.2016 C   0  0  0  0  0  0  0  0  0  0  0  0
   -5.7318    1.3265    1.0282 C   0  0  0  0  0  0  0  0  0  0  0  0
   -5.7581    2.0870   -0.1173 C   0  0  0  0  0  0  0  0  0  0  0  0
   -4.8284    1.8085   -1.0863 C   0  0  0  0  0  0  0  0  0  0  0  0
   -3.9029    0.7994   -0.9107 C   0  0  0  0  0  0  0  0  0  0  0  0
    0.3935   -0.6873    0.6060 C   0  0  0  0  0  0  0  0  0  0  0  0
    1.7107   -0.0934    0.2567 C   0  0  0  0  0  0  0  0  0  0  0  0
    1.9535    0.7993   -0.7833 C   0  0  0  0  0  0  0  0  0  0  0  0
    3.2862    1.1311   -0.8014 C   0  0  0  0  0  0  0  0  0  0  0  0
    4.0557    1.9479   -1.5908 C   0  0  0  0  0  0  0  0  0  0  0  0
    5.4306    2.0950   -1.3663 C   0  0  0  0  0  0  0  0  0  0  0  0
    6.3834    3.1360   -2.3805 Cl  0  0  0  0  0  0  0  0  0  0  0  0
    6.0068    1.3970   -0.3260 C   0  0  0  0  0  0  0  0  0  0  0  0
    5.2297    0.5790    0.4624 C   0  0  0  0  0  0  0  0  0  0  0  0
    3.8744    0.4425    0.2307 C   0  0  0  0  0  0  0  0  0  0  0  0
    2.9031   -0.2820    0.8453 N   0  0  0  0  0  0  0  0  0  0  0  0
   -0.6866    0.0000    0.0000 H   0  0  0  0  0  0  0  0  0  0  0  0
    0.9659   -3.9103    0.0575 H   0  0  0  0  0  0  0  0  0  0  0  0
    1.6413   -2.7762    1.2402 H   0  0  0  0  0  0  0  0  0  0  0  0
    2.1397   -2.6327   -0.4657 H   0  0  0  0  0  0  0  0  0  0  0  0
   -1.1704   -3.1610   -0.9824 H   0  0  0  0  0  0  0  0  0  0  0  0
   -1.3753   -2.9727    0.7822 H   0  0  0  0  0  0  0  0  0  0  0  0
   -1.9051   -0.8187   -1.4044 H   0  0  0  0  0  0  0  0  0  0  0  0
   -2.9566   -1.5843    1.3758 H   0  0  0  0  0  0  0  0  0  0  0  0
   -4.8043   -0.2579    2.0972 H   0  0  0  0  0  0  0  0  0  0  0  0
   -6.4812    1.5572    1.7996 H   0  0  0  0  0  0  0  0  0  0  0  0
   -6.4755    2.8837   -0.2760 H   0  0  0  0  0  0  0  0  0  0  0  0
   -4.7916    2.3686   -2.0146 H   0  0  0  0  0  0  0  0  0  0  0  0
   -3.1796    0.6151   -1.7150 H   0  0  0  0  0  0  0  0  0  0  0  0
   -0.4341    0.0088    0.4377 H   0  0  0  0  0  0  0  0  0  0  0  0
    0.3726   -0.9459    1.6967 H   0  0  0  0  0  0  0  0  0  0  0  0
    1.1944    1.1614   -1.4594 H   0  0  0  0  0  0  0  0  0  0  0  0
    3.6394    2.5059   -2.4093 H   0  0  0  0  0  0  0  0  0  0  0  0
    7.0737    1.5010   -0.1392 H   0  0  0  0  0  0  0  0  0  0  0  0
    5.6641    0.0232    1.2836 H   0  0  0  0  0  0  0  0  0  0  0  0
    3.0827   -0.9049    1.6744 H   0  0  0  0  0  0  0  0  0  0  0  0
  2  3  1  0
  3  4  1  0
  4  5  1  0
  5  6  2  0
  6  7  1  0
  7  8  2  0
  8  9  1  0
  9 10  2  0
 10 11  1  0
 11 12  2  0
  3 13  1  0
 13 14  1  0
 14 15  2  0
 15 16  1  0
 16 17  2  0
 17 18  1  0
 18 19  1  0
 18 20  2  0
 20 21  1  0
 21 22  2  0
 22 23  1  0
 12  7  1  0
 23 14  1  0
 22 16  1  0
  1 24  1  0
  2 25  1  0
  2 26  1  0
  2 27  1  0
  4 28  1  0
  4 29  1  0
  5 30  1  0
  6 31  1  0
  8 32  1  0
  9 33  1  0
 10 34  1  0
 11 35  1  0
 12 36  1  0
 13 37  1  0
 13 38  1  0
 15 39  1  0
 17 40  1  0
 20 41  1  0
 21 42  1  0
 23 43  1  0
M  END
$$$$
[H]OC(C([H])([H])[H])(C([H])([H])[H])C([H])([H])C([H])([H])C([H])([H])[C@@]([H])(C([H])([H])[H])[C@@]1([H])C([H])([H])C([H])([H])[C@@]2([H])/C(=C([H])/C([H])=C3\C(=C([H])[H])[C@@]([H])(O[H])C([H])([H])[C@]([H])(O[H])C3([H])[H])C([H])([H])C([H])([H])C([H])([H])[C@@]21C([H])([H])[H]
     RDKit          3D

 74 76  0  0  0  0  0  0  0  0999 V2000
   -2.8576   -2.7269   -0.9768 C   0  0  0  0  0  0  0  0  0  0  0  0
   -2.6873   -1.3782   -0.3509 C   0  0  2  0  0  0  0  0  0  0  0  0
   -3.9903   -0.6117   -0.4456 C   0  0  0  0  0  0  0  0  0  0  0  0
   -5.1429   -1.2444    0.2409 C   0  0  0  0  0  0  0  0  0  0  0  0
   -6.4468   -0.5133    0.1488 C   0  0  0  0  0  0  0  0  0  0  0  0
   -6.5081    0.8572    0.6978 C   0  0  0  0  0  0  0  0  0  0  0  0
   -6.1723    0.9561    2.1579 C   0  0  0  0  0  0  0  0  0  0  0  0
   -7.9900    1.3306    0.6273 C   0  0  0  0  0  0  0  0  0  0  0  0
   -5.7407    1.7710   -0.0046 O   0  0  0  0  0  0  0  0  0  0  0  0
   -1.5754   -0.6386   -1.0561 C   0  0  1  0  0  0  0  0  0  0  0  0
   -1.3899    0.7501   -0.4236 C   0  0  0  0  0  0  0  0  0  0  0  0
    0.0928    1.0444   -0.4502 C   0  0  0  0  0  0  0  0  0  0  0  0
    0.6402   -0.0165   -1.2978 C   0  0  1  0  0  0  0  0  0  0  0  0
    2.0648   -0.3216   -1.1596 C   0  0  0  0  0  0  0  0  0  0  0  0
    2.5317   -1.5517   -1.8564 C   0  0  0  0  0  0  0  0  0  0  0  0
    1.3626   -1.9503   -2.7616 C   0  0  0  0  0  0  0  0  0  0  0  0
    0.1324   -2.2686   -1.9542 C   0  0  0  0  0  0  0  0  0  0  0  0
   -0.2281   -1.2200   -0.9401 C   0  0  2  0  0  0  0  0  0  0  0  0
    0.0915   -1.6771    0.4761 C   0  0  0  0  0  0  0  0  0  0  0  0
    2.9495    0.3874   -0.4942 C   0  0  0  0  0  0  0  0  0  0  0  0
    4.3144   -0.0770   -0.4717 C   0  0  0  0  0  0  0  0  0  0  0  0
    5.3054    0.5833    0.1366 C   0  0  0  0  0  0  0  0  0  0  0  0
    6.7062    0.0873    0.1644 C   0  0  0  0  0  0  0  0  0  0  0  0
    7.5094    0.8501    1.1927 C   0  0  1  0  0  0  0  0  0  0  0  0
    8.0822    1.9751    0.6379 O   0  0  0  0  0  0  0  0  0  0  0  0
    6.6960    1.2208    2.4046 C   0  0  0  0  0  0  0  0  0  0  0  0
    5.5397    2.1465    2.1081 C   0  0  2  0  0  0  0  0  0  0  0  0
    4.5071    1.9436    3.0282 O   0  0  0  0  0  0  0  0  0  0  0  0
    5.0303    1.8819    0.7341 C   0  0  0  0  0  0  0  0  0  0  0  0
    4.3725    2.7518   -0.0065 C   0  0  0  0  0  0  0  0  0  0  0  0
   -2.9910   -2.6746   -2.0835 H   0  0  0  0  0  0  0  0  0  0  0  0
   -3.7685   -3.2842   -0.6259 H   0  0  0  0  0  0  0  0  0  0  0  0
   -1.9490   -3.3666   -0.8104 H   0  0  0  0  0  0  0  0  0  0  0  0
   -2.4766   -1.5075    0.7300 H   0  0  0  0  0  0  0  0  0  0  0  0
   -3.8268    0.3994    0.0464 H   0  0  0  0  0  0  0  0  0  0  0  0
   -4.2809   -0.4040   -1.4960 H   0  0  0  0  0  0  0  0  0  0  0  0
   -5.3698   -2.2556   -0.2280 H   0  0  0  0  0  0  0  0  0  0  0  0
   -4.9249   -1.4787    1.3108 H   0  0  0  0  0  0  0  0  0  0  0  0
   -6.8000   -0.4976   -0.9243 H   0  0  0  0  0  0  0  0  0  0  0  0
   -7.2681   -1.1006    0.6637 H   0  0  0  0  0  0  0  0  0  0  0  0
   -6.7215    0.2556    2.7938 H   0  0  0  0  0  0  0  0  0  0  0  0
   -5.0758    0.9217    2.2640 H   0  0  0  0  0  0  0  0  0  0  0  0
   -6.4995    1.9859    2.4862 H   0  0  0  0  0  0  0  0  0  0  0  0
   -8.0762    2.3804    0.9045 H   0  0  0  0  0  0  0  0  0  0  0  0
   -8.5917    0.6320    1.2434 H   0  0  0  0  0  0  0  0  0  0  0  0
   -8.2752    1.1437   -0.4332 H   0  0  0  0  0  0  0  0  0  0  0  0
   -5.2329    2.3875    0.5990 H   0  0  0  0  0  0  0  0  0  0  0  0
   -1.8195   -0.4865   -2.1231 H   0  0  0  0  0  0  0  0  0  0  0  0
   -1.9938    1.5136   -0.9508 H   0  0  0  0  0  0  0  0  0  0  0  0
   -1.6760    0.6501    0.6561 H   0  0  0  0  0  0  0  0  0  0  0  0
    0.2175    2.0374   -0.9693 H   0  0  0  0  0  0  0  0  0  0  0  0
    0.5363    1.1429    0.5577 H   0  0  0  0  0  0  0  0  0  0  0  0
    0.4052    0.2087   -2.3719 H   0  0  0  0  0  0  0  0  0  0  0  0
    3.3573   -1.2906   -2.5462 H   0  0  0  0  0  0  0  0  0  0  0  0
    2.7479   -2.3797   -1.1761 H   0  0  0  0  0  0  0  0  0  0  0  0
    1.2056   -1.2353   -3.5674 H   0  0  0  0  0  0  0  0  0  0  0  0
    1.6809   -2.9155   -3.2389 H   0  0  0  0  0  0  0  0  0  0  0  0
   -0.6674   -2.5213   -2.6497 H   0  0  0  0  0  0  0  0  0  0  0  0
    0.3734   -3.2078   -1.3841 H   0  0  0  0  0  0  0  0  0  0  0  0
   -0.0146   -2.7781    0.5733 H   0  0  0  0  0  0  0  0  0  0  0  0
   -0.5227   -1.1913    1.2351 H   0  0  0  0  0  0  0  0  0  0  0  0
    1.1752   -1.4382    0.6843 H   0  0  0  0  0  0  0  0  0  0  0  0
    2.5891    1.2200    0.0172 H   0  0  0  0  0  0  0  0  0  0  0  0
    4.6140   -1.0184   -0.9663 H   0  0  0  0  0  0  0  0  0  0  0  0
    7.1559    0.2842   -0.8269 H   0  0  0  0  0  0  0  0  0  0  0  0
    6.7542   -1.0095    0.3137 H   0  0  0  0  0  0  0  0  0  0  0  0
    8.3182    0.1806    1.5480 H   0  0  0  0  0  0  0  0  0  0  0  0
    8.4747    1.7960   -0.2460 H   0  0  0  0  0  0  0  0  0  0  0  0
    7.3572    1.7337    3.1303 H   0  0  0  0  0  0  0  0  0  0  0  0
    6.2882    0.3318    2.9267 H   0  0  0  0  0  0  0  0  0  0  0  0
    5.9114    3.1867    2.2109 H   0  0  0  0  0  0  0  0  0  0  0  0
    4.2893    0.9807    3.1081 H   0  0  0  0  0  0  0  0  0  0  0  0
    4.0014    2.6741   -0.9878 H   0  0  0  0  0  0  0  0  0  0  0  0
    4.1702    3.7172    0.4969 H   0  0  0  0  0  0  0  0  0  0  0  0
  1  2  1  0
  2  3  1  0
  3  4  1  0
  4  5  1  0
  5  6  1  0
  6  7  1  0
  6  8  1  0
  6  9  1  0
  2 10  1  0
 10 11  1  0
 11 12  1  0
 12 13  1  0
 13 14  1  0
 14 15  1  0
 15 16  1  0
 16 17  1  0
 17 18  1  0
 18 19  1  1
 14 20  2  0
 20 21  1  0
 21 22  2  0
 22 23  1  0
 23 24  1  0
 24 25  1  0
 24 26  1  0
 26 27  1  0
 27 28  1  0
 27 29  1  0
 29 30  2  3
 18 10  1  0
 29 22  1  0
 18 13  1  0
  1 31  1  0
  1 32  1  0
  1 33  1  0
  2 34  1  1
  3 35  1  0
  3 36  1  0
  4 37  1  0
  4 38  1  0
  5 39  1  0
  5 40  1  0
  7 41  1  0
  7 42  1  0
  7 43  1  0
  8 44  1  0
  8 45  1  0
  8 46  1  0
  9 47  1  0
 10 48  1  6
 11 49  1  0
 11 50  1  0
 12 51  1  0
 12 52  1  0
 13 53  1  6
 15 54  1  0
 15 55  1  0
 16 56  1  0
 16 57  1  0
 17 58  1  0
 17 59  1  0
 19 60  1  0
 19 61  1  0
 19 62  1  0
 20 63  1  0
 21 64  1  0
 23 65  1  0
 23 66  1  0
 24 67  1  1
 25 68  1  0
 26 69  1  0
 26 70  1  0
 27 71  1  6
 28 72  1  0
 30 73  1  0
 30 74  1  0
M  END
$$$$
[H]c1nc(C(=O)[C@@]([H])(N([H])C(=O)[C@@]([H])(N([H])C(=O)[C@@]([H])(N([H])C(=O)[C@@]([H])(N([H])C(=O)C([H])([H])[H])C([H])([H])C([H])([H])C([H])([H])C([H])([H])N([H])[H])C([H])([H])C([H])([H])C(=O)N([H])[H])C([H])([H])C([H])(C([H])([H])[H])C([H])([H])[H])C([H])([H])C([H])([H])C([H])([H])C([H])([H])N([H])[H])sc1[H]
     RDKit          3D

 91 91  0  0  0  0  0  0  0  0999 V2000
    2.2644    3.4505    2.6198 C   0  0  0  0  0  0  0  0  0  0  0  0
    1.4683    3.6801    1.3960 C   0  0  0  0  0  0  0  0  0  0  0  0
    1.9205    5.0670    0.8779 C   0  0  0  0  0  0  0  0  0  0  0  0
    1.6237    2.7630    0.2605 C   0  0  0  0  0  0  0  0  0  0  0  0
    1.3357    1.3400    0.3683 C   0  0  2  0  0  0  0  0  0  0  0  0
    0.0226    0.9233    0.7500 N   0  0  0  0  0  0  0  0  0  0  0  0
   -0.9054    0.2134   -0.0189 C   0  0  0  0  0  0  0  0  0  0  0  0
   -0.6542   -0.1607   -1.2097 O   0  0  0  0  0  0  0  0  0  0  0  0
   -2.2373   -0.1342    0.5063 C   0  0  2  0  0  0  0  0  0  0  0  0
   -2.2355   -1.1479    1.5876 C   0  0  0  0  0  0  0  0  0  0  0  0
   -1.5112   -0.8772    2.8459 C   0  0  0  0  0  0  0  0  0  0  0  0
   -1.7271   -2.0477    3.7720 C   0  0  0  0  0  0  0  0  0  0  0  0
   -1.0830   -2.1869    5.0189 N   0  0  0  0  0  0  0  0  0  0  0  0
   -2.5240   -2.9340    3.3987 O   0  0  0  0  0  0  0  0  0  0  0  0
   -3.0959   -0.6557   -0.5833 N   0  0  0  0  0  0  0  0  0  0  0  0
   -4.0840    0.1916   -1.1095 C   0  0  0  0  0  0  0  0  0  0  0  0
   -4.2171    1.3643   -0.6820 O   0  0  0  0  0  0  0  0  0  0  0  0
   -5.0172   -0.2788   -2.2045 C   0  0  2  0  0  0  0  0  0  0  0  0
   -4.4195   -1.3971   -2.9757 C   0  0  0  0  0  0  0  0  0  0  0  0
   -5.2696   -1.9392   -4.0861 C   0  0  0  0  0  0  0  0  0  0  0  0
   -6.5570   -2.4682   -3.5422 C   0  0  0  0  0  0  0  0  0  0  0  0
   -7.4517   -3.0532   -4.6172 C   0  0  0  0  0  0  0  0  0  0  0  0
   -7.8091   -2.0998   -5.6287 N   0  0  0  0  0  0  0  0  0  0  0  0
   -5.4575    0.8465   -2.9755 N   0  0  0  0  0  0  0  0  0  0  0  0
   -6.7347    1.4504   -2.8889 C   0  0  0  0  0  0  0  0  0  0  0  0
   -7.0596    2.6057   -3.7548 C   0  0  0  0  0  0  0  0  0  0  0  0
   -7.5857    0.9807   -2.0590 O   0  0  0  0  0  0  0  0  0  0  0  0
    2.4169    0.5243    0.8936 C   0  0  0  0  0  0  0  0  0  0  0  0
    2.0896   -0.6088    1.3944 O   0  0  0  0  0  0  0  0  0  0  0  0
    3.7867    0.8273    0.9153 N   0  0  0  0  0  0  0  0  0  0  0  0
    4.7409   -0.1478    1.4446 C   0  0  1  0  0  0  0  0  0  0  0  0
    5.9728   -0.0478    0.6277 C   0  0  0  0  0  0  0  0  0  0  0  0
    5.6664   -0.3221   -0.8106 C   0  0  0  0  0  0  0  0  0  0  0  0
    5.1356   -1.6580   -1.0920 C   0  0  0  0  0  0  0  0  0  0  0  0
    6.0076   -2.8256   -0.8012 C   0  0  0  0  0  0  0  0  0  0  0  0
    6.4051   -3.0250    0.5435 N   0  0  0  0  0  0  0  0  0  0  0  0
    4.8536    0.0130    2.8816 C   0  0  0  0  0  0  0  0  0  0  0  0
    3.8024    0.3783    3.5038 O   0  0  0  0  0  0  0  0  0  0  0  0
    6.0329   -0.1930    3.7258 C   0  0  0  0  0  0  0  0  0  0  0  0
    6.0747   -0.0575    5.0568 N   0  0  0  0  0  0  0  0  0  0  0  0
    7.1824   -0.2582    5.6824 C   0  0  0  0  0  0  0  0  0  0  0  0
    8.2910   -0.6065    4.9563 C   0  0  0  0  0  0  0  0  0  0  0  0
    7.6496   -0.6237    3.3756 S   0  0  0  0  0  0  0  0  0  0  0  0
    1.9673    2.5835    3.2287 H   0  0  0  0  0  0  0  0  0  0  0  0
    2.0852    4.3437    3.2924 H   0  0  0  0  0  0  0  0  0  0  0  0
    3.3456    3.4766    2.3610 H   0  0  0  0  0  0  0  0  0  0  0  0
    0.3721    3.8750    1.6273 H   0  0  0  0  0  0  0  0  0  0  0  0
    1.6410    5.8642    1.5823 H   0  0  0  0  0  0  0  0  0  0  0  0
    3.0228    5.0401    0.7809 H   0  0  0  0  0  0  0  0  0  0  0  0
    1.5003    5.2177   -0.1358 H   0  0  0  0  0  0  0  0  0  0  0  0
    2.6797    2.9027   -0.1373 H   0  0  0  0  0  0  0  0  0  0  0  0
    1.0147    3.2186   -0.5924 H   0  0  0  0  0  0  0  0  0  0  0  0
    1.3401    0.9948   -0.7808 H   0  0  0  0  0  0  0  0  0  0  0  0
   -0.2817    1.2120    1.7281 H   0  0  0  0  0  0  0  0  0  0  0  0
   -2.6627    0.8201    0.8916 H   0  0  0  0  0  0  0  0  0  0  0  0
   -1.8896   -2.1285    1.1355 H   0  0  0  0  0  0  0  0  0  0  0  0
   -3.3176   -1.3928    1.8462 H   0  0  0  0  0  0  0  0  0  0  0  0
   -1.8608    0.0194    3.3565 H   0  0  0  0  0  0  0  0  0  0  0  0
   -0.3949   -0.8427    2.7208 H   0  0  0  0  0  0  0  0  0  0  0  0
   -0.1632   -2.6494    5.0647 H   0  0  0  0  0  0  0  0  0  0  0  0
   -1.5504   -1.8202    5.8694 H   0  0  0  0  0  0  0  0  0  0  0  0
   -2.8867   -1.6298   -0.8735 H   0  0  0  0  0  0  0  0  0  0  0  0
   -5.9471   -0.6940   -1.6700 H   0  0  0  0  0  0  0  0  0  0  0  0
   -3.4100   -1.0743   -3.3430 H   0  0  0  0  0  0  0  0  0  0  0  0
   -4.2422   -2.2331   -2.2245 H   0  0  0  0  0  0  0  0  0  0  0  0
   -4.7003   -2.7500   -4.5774 H   0  0  0  0  0  0  0  0  0  0  0  0
   -5.4190   -1.1253   -4.8265 H   0  0  0  0  0  0  0  0  0  0  0  0
   -6.3285   -3.2639   -2.8041 H   0  0  0  0  0  0  0  0  0  0  0  0
   -7.1199   -1.7003   -2.9765 H   0  0  0  0  0  0  0  0  0  0  0  0
   -8.3726   -3.4569   -4.1569 H   0  0  0  0  0  0  0  0  0  0  0  0
   -6.9454   -3.9324   -5.0853 H   0  0  0  0  0  0  0  0  0  0  0  0
   -7.4183   -2.3870   -6.5635 H   0  0  0  0  0  0  0  0  0  0  0  0
   -8.8646   -2.0183   -5.6881 H   0  0  0  0  0  0  0  0  0  0  0  0
   -4.7689    1.2721   -3.6795 H   0  0  0  0  0  0  0  0  0  0  0  0
   -7.2918    2.1965   -4.7784 H   0  0  0  0  0  0  0  0  0  0  0  0
   -6.1709    3.2644   -3.8117 H   0  0  0  0  0  0  0  0  0  0  0  0
   -7.9589    3.1413   -3.4060 H   0  0  0  0  0  0  0  0  0  0  0  0
    4.1590    1.7304    0.5655 H   0  0  0  0  0  0  0  0  0  0  0  0
    4.2384   -1.1534    1.2725 H   0  0  0  0  0  0  0  0  0  0  0  0
    6.8241   -0.6605    0.9098 H   0  0  0  0  0  0  0  0  0  0  0  0
    6.3039    1.0656    0.6264 H   0  0  0  0  0  0  0  0  0  0  0  0
    6.5239   -0.0314   -1.4784 H   0  0  0  0  0  0  0  0  0  0  0  0
    4.8443    0.4277   -1.0811 H   0  0  0  0  0  0  0  0  0  0  0  0
    4.8006   -1.7407   -2.1926 H   0  0  0  0  0  0  0  0  0  0  0  0
    4.1525   -1.8655   -0.5627 H   0  0  0  0  0  0  0  0  0  0  0  0
    6.9248   -2.7274   -1.4731 H   0  0  0  0  0  0  0  0  0  0  0  0
    5.4793   -3.7556   -1.1391 H   0  0  0  0  0  0  0  0  0  0  0  0
    7.3641   -3.4686    0.6264 H   0  0  0  0  0  0  0  0  0  0  0  0
    5.7149   -3.6269    1.0632 H   0  0  0  0  0  0  0  0  0  0  0  0
    7.2506   -0.1561    6.7945 H   0  0  0  0  0  0  0  0  0  0  0  0
    9.3097   -0.8117    5.3311 H   0  0  0  0  0  0  0  0  0  0  0  0
  1  2  1  0
  2  3  1  0
  2  4  1  0
  4  5  1  0
  5  6  1  0
  6  7  1  0
  7  8  2  0
  7  9  1  0
  9 10  1  0
 10 11  1  0
 11 12  1  0
 12 13  1  0
 12 14  2  0
  9 15  1  0
 15 16  1  0
 16 17  2  0
 16 18  1  0
 18 19  1  0
 19 20  1  0
 20 21  1  0
 21 22  1  0
 22 23  1  0
 18 24  1  0
 24 25  1  0
 25 26  1  0
 25 27  2  0
  5 28  1  0
 28 29  2  0
 28 30  1  0
 30 31  1  0
 31 32  1  0
 32 33  1  0
 33 34  1  0
 34 35  1  0
 35 36  1  0
 31 37  1  0
 37 38  2  0
 37 39  1  0
 39 40  2  0
 40 41  1  0
 41 42  2  0
 42 43  1  0
 43 39  1  0
  1 44  1  0
  1 45  1  0
  1 46  1  0
  2 47  1  0
  3 48  1  0
  3 49  1  0
  3 50  1  0
  4 51  1  0
  4 52  1  0
  5 53  1  6
  6 54  1  0
  9 55  1  1
 10 56  1  0
 10 57  1  0
 11 58  1  0
 11 59  1  0
 13 60  1  0
 13 61  1  0
 15 62  1  0
 18 63  1  1
 19 64  1  0
 19 65  1  0
 20 66  1  0
 20 67  1  0
 21 68  1  0
 21 69  1  0
 22 70  1  0
 22 71  1  0
 23 72  1  0
 23 73  1  0
 24 74  1  0
 26 75  1  0
 26 76  1  0
 26 77  1  0
 30 78  1  0
 31 79  1  1
 32 80  1  0
 32 81  1  0
 33 82  1  0
 33 83  1  0
 34 84  1  0
 34 85  1  0
 35 86  1  0
 35 87  1  0
 36 88  1  0
 36 89  1  0
 41 90  1  0
 42 91  1  0
M  END
$$$$
[H]c1c([H])c([H])c2c(C3=C(c4c([H])n([H])c5c([H])c(Cl)c([H])c([H])c45)C(=O)N([H])C3=O)nc(N3C([H])([H])C([H])([H])N(C([H])([H])[H])C([H])([H])C3([H])[H])nc2c1[H]
     RDKit          3D

 55 60  0  0  0  0  0  0  0  0999 V2000
   -5.5198   -0.3515    2.1840 C   0  0  0  0  0  0  0  0  0  0  0  0
   -4.7620    0.8270    2.4504 N   0  0  0  0  0  0  0  0  0  0  0  0
   -4.8013    1.8236    1.4523 C   0  0  0  0  0  0  0  0  0  0  0  0
   -3.6030    1.9254    0.5805 C   0  0  0  0  0  0  0  0  0  0  0  0
   -2.5504    1.0010    0.9088 N   0  0  0  0  0  0  0  0  0  0  0  0
   -2.3042    0.6920    2.2898 C   0  0  0  0  0  0  0  0  0  0  0  0
   -3.5399    0.6398    3.1331 C   0  0  0  0  0  0  0  0  0  0  0  0
   -1.7562    0.3923   -0.0948 C   0  0  0  0  0  0  0  0  0  0  0  0
   -0.7610   -0.4652    0.1763 N   0  0  0  0  0  0  0  0  0  0  0  0
   -0.0275   -1.0243   -0.8001 C   0  0  0  0  0  0  0  0  0  0  0  0
    1.0705   -1.9650   -0.4775 C   0  0  0  0  0  0  0  0  0  0  0  0
    2.2025   -1.7271    0.1513 C   0  0  0  0  0  0  0  0  0  0  0  0
    2.9683   -2.9943    0.2319 C   0  0  0  0  0  0  0  0  0  0  0  0
    4.0934   -3.0979    0.7735 O   0  0  0  0  0  0  0  0  0  0  0  0
    2.2236   -4.0186   -0.3878 N   0  0  0  0  0  0  0  0  0  0  0  0
    1.0379   -3.3896   -0.8329 C   0  0  0  0  0  0  0  0  0  0  0  0
    0.1302   -4.0259   -1.4378 O   0  0  0  0  0  0  0  0  0  0  0  0
    2.6755   -0.4647    0.7310 C   0  0  0  0  0  0  0  0  0  0  0  0
    2.1258    0.3512    1.6632 C   0  0  0  0  0  0  0  0  0  0  0  0
    2.9297    1.4420    1.8500 N   0  0  0  0  0  0  0  0  0  0  0  0
    3.9964    1.3346    1.0436 C   0  0  0  0  0  0  0  0  0  0  0  0
    5.0644    2.1841    0.8813 C   0  0  0  0  0  0  0  0  0  0  0  0
    6.0460    1.8393   -0.0333 C   0  0  0  0  0  0  0  0  0  0  0  0
    7.4537    2.8527   -0.3187 Cl  0  0  0  0  0  0  0  0  0  0  0  0
    5.9279    0.6701   -0.7471 C   0  0  0  0  0  0  0  0  0  0  0  0
    4.8370   -0.1787   -0.5683 C   0  0  0  0  0  0  0  0  0  0  0  0
    3.8637    0.1459    0.3280 C   0  0  0  0  0  0  0  0  0  0  0  0
   -0.2610   -0.7416   -2.1395 C   0  0  0  0  0  0  0  0  0  0  0  0
    0.4748   -1.2759   -3.1723 C   0  0  0  0  0  0  0  0  0  0  0  0
    0.2036   -0.9451   -4.5066 C   0  0  0  0  0  0  0  0  0  0  0  0
   -0.8278   -0.0633   -4.7427 C   0  0  0  0  0  0  0  0  0  0  0  0
   -1.5658    0.4754   -3.7116 C   0  0  0  0  0  0  0  0  0  0  0  0
   -1.3016    0.1525   -2.3969 C   0  0  0  0  0  0  0  0  0  0  0  0
   -2.0100    0.6866   -1.3827 N   0  0  0  0  0  0  0  0  0  0  0  0
   -6.5828   -0.1392    2.5004 H   0  0  0  0  0  0  0  0  0  0  0  0
   -5.5887   -0.6174    1.1086 H   0  0  0  0  0  0  0  0  0  0  0  0
   -5.1819   -1.2457    2.7127 H   0  0  0  0  0  0  0  0  0  0  0  0
   -4.9653    2.8217    1.9554 H   0  0  0  0  0  0  0  0  0  0  0  0
   -5.7353    1.6785    0.8387 H   0  0  0  0  0  0  0  0  0  0  0  0
   -3.1511    2.9606    0.5790 H   0  0  0  0  0  0  0  0  0  0  0  0
   -3.8774    1.7415   -0.4804 H   0  0  0  0  0  0  0  0  0  0  0  0
   -1.6837   -0.2417    2.3762 H   0  0  0  0  0  0  0  0  0  0  0  0
   -1.6292    1.5125    2.6747 H   0  0  0  0  0  0  0  0  0  0  0  0
   -3.5609   -0.3612    3.6238 H   0  0  0  0  0  0  0  0  0  0  0  0
   -3.4758    1.3923    3.9577 H   0  0  0  0  0  0  0  0  0  0  0  0
    2.4674   -5.0325   -0.5085 H   0  0  0  0  0  0  0  0  0  0  0  0
    1.2181    0.2036    2.2097 H   0  0  0  0  0  0  0  0  0  0  0  0
    2.7628    2.2388    2.5055 H   0  0  0  0  0  0  0  0  0  0  0  0
    5.1656    3.1150    1.4443 H   0  0  0  0  0  0  0  0  0  0  0  0
    6.6568    0.3351   -1.4797 H   0  0  0  0  0  0  0  0  0  0  0  0
    4.7486   -1.0984   -1.1436 H   0  0  0  0  0  0  0  0  0  0  0  0
    1.3001   -1.9549   -2.9651 H   0  0  0  0  0  0  0  0  0  0  0  0
    0.8054   -1.3879   -5.2877 H   0  0  0  0  0  0  0  0  0  0  0  0
   -1.0455    0.1987   -5.7826 H   0  0  0  0  0  0  0  0  0  0  0  0
   -2.3805    1.1734   -3.9174 H   0  0  0  0  0  0  0  0  0  0  0  0
  1  2  1  0
  2  3  1  0
  3  4  1  0
  4  5  1  0
  5  6  1  0
  6  7  1  0
  5  8  1  0
  8  9  2  0
  9 10  1  0
 10 11  1  0
 11 12  2  0
 12 13  1  0
 13 14  2  0
 13 15  1  0
 15 16  1  0
 16 17  2  0
 12 18  1  0
 18 19  2  0
 19 20  1  0
 20 21  1  0
 21 22  2  0
 22 23  1  0
 23 24  1  0
 23 25  2  0
 25 26  1  0
 26 27  2  0
 10 28  2  0
 28 29  1  0
 29 30  2  0
 30 31  1  0
 31 32  2  0
 32 33  1  0
 33 34  2  0
  7  2  1  0
 34  8  1  0
 16 11  1  0
 27 18  1  0
 33 28  1  0
 27 21  1  0
  1 35  1  0
  1 36  1  0
  1 37  1  0
  3 38  1  0
  3 39  1  0
  4 40  1  0
  4 41  1  0
  6 42  1  0
  6 43  1  0
  7 44  1  0
  7 45  1  0
 15 46  1  0
 19 47  1  0
 20 48  1  0
 22 49  1  0
 25 50  1  0
 26 51  1  0
 29 52  1  0
 30 53  1  0
 31 54  1  0
 32 55  1  0
M  END
$$$$
[H]OC1([H])C([H])([H])C([H])([H])N(C([H])([H])c2c([H])c([H])c(C(=O)N([H])c3sc(N([H])c4c([H])c([H])c5c([H])c([H])c([H])c([H])c5c4[H])nc3C(=O)N([H])[H])c([H])c2[H])C([H])([H])C1([H])[H]
     RDKit          3D

 63 67  0  0  0  0  0  0  0  0999 V2000
    2.8737    5.8427   -0.4584 N   0  0  0  0  0  0  0  0  0  0  0  0
    2.0818    4.8048    0.0718 C   0  0  0  0  0  0  0  0  0  0  0  0
    0.9996    5.0862    0.5471 O   0  0  0  0  0  0  0  0  0  0  0  0
    2.5985    3.4118    0.0274 C   0  0  0  0  0  0  0  0  0  0  0  0
    3.8911    3.2467   -0.1804 N   0  0  0  0  0  0  0  0  0  0  0  0
    4.4565    2.0618   -0.0444 C   0  0  0  0  0  0  0  0  0  0  0  0
    5.8467    1.7464   -0.2689 N   0  0  0  0  0  0  0  0  0  0  0  0
    6.3250    0.4448   -0.0367 C   0  0  0  0  0  0  0  0  0  0  0  0
    5.8131   -0.4599    0.8555 C   0  0  0  0  0  0  0  0  0  0  0  0
    6.3630   -1.7456    0.9695 C   0  0  0  0  0  0  0  0  0  0  0  0
    7.4307   -2.1314    0.1899 C   0  0  0  0  0  0  0  0  0  0  0  0
    7.9772   -3.4036    0.3006 C   0  0  0  0  0  0  0  0  0  0  0  0
    9.0463   -3.8198   -0.4660 C   0  0  0  0  0  0  0  0  0  0  0  0
    9.5700   -2.9134   -1.3682 C   0  0  0  0  0  0  0  0  0  0  0  0
    9.0294   -1.6341   -1.4875 C   0  0  0  0  0  0  0  0  0  0  0  0
    7.9595   -1.2348   -0.7123 C   0  0  0  0  0  0  0  0  0  0  0  0
    7.4172    0.0157   -0.8172 C   0  0  0  0  0  0  0  0  0  0  0  0
    3.1308    1.1092    0.3959 S   0  0  0  0  0  0  0  0  0  0  0  0
    1.8706    2.3354    0.3747 C   0  0  0  0  0  0  0  0  0  0  0  0
    0.5279    1.9289    0.5041 N   0  0  0  0  0  0  0  0  0  0  0  0
   -0.6735    2.3572   -0.0127 C   0  0  0  0  0  0  0  0  0  0  0  0
   -0.8298    3.2862   -0.8156 O   0  0  0  0  0  0  0  0  0  0  0  0
   -1.9187    1.6918    0.3877 C   0  0  0  0  0  0  0  0  0  0  0  0
   -1.8911    0.3590    0.7077 C   0  0  0  0  0  0  0  0  0  0  0  0
   -3.0403   -0.3053    1.1008 C   0  0  0  0  0  0  0  0  0  0  0  0
   -4.2209    0.3841    1.1690 C   0  0  0  0  0  0  0  0  0  0  0  0
   -5.4214   -0.3646    1.6019 C   0  0  0  0  0  0  0  0  0  0  0  0
   -5.8522   -1.2459    0.5772 N   0  0  0  0  0  0  0  0  0  0  0  0
   -6.2366   -0.6677   -0.6562 C   0  0  0  0  0  0  0  0  0  0  0  0
   -7.7175   -0.7538   -0.9529 C   0  0  0  0  0  0  0  0  0  0  0  0
   -8.3337   -2.0641   -0.5993 C   0  0  0  0  0  0  0  0  0  0  0  0
   -7.9236   -3.0975   -1.4284 O   0  0  0  0  0  0  0  0  0  0  0  0
   -8.0172   -2.3999    0.8289 C   0  0  0  0  0  0  0  0  0  0  0  0
   -6.5243   -2.4309    0.9838 C   0  0  0  0  0  0  0  0  0  0  0  0
   -4.2796    1.7471    0.8475 C   0  0  0  0  0  0  0  0  0  0  0  0
   -3.1062    2.3833    0.4567 C   0  0  0  0  0  0  0  0  0  0  0  0
    2.5126    6.5985   -1.0797 H   0  0  0  0  0  0  0  0  0  0  0  0
    3.8957    5.8883   -0.2346 H   0  0  0  0  0  0  0  0  0  0  0  0
    6.4655    2.5266   -0.6067 H   0  0  0  0  0  0  0  0  0  0  0  0
    4.9891   -0.2138    1.5133 H   0  0  0  0  0  0  0  0  0  0  0  0
    5.9651   -2.4646    1.6691 H   0  0  0  0  0  0  0  0  0  0  0  0
    7.5595   -4.1097    1.0119 H   0  0  0  0  0  0  0  0  0  0  0  0
    9.4775   -4.8089   -0.3857 H   0  0  0  0  0  0  0  0  0  0  0  0
   10.4163   -3.2152   -1.9881 H   0  0  0  0  0  0  0  0  0  0  0  0
    9.4319   -0.9088   -2.1948 H   0  0  0  0  0  0  0  0  0  0  0  0
    7.8634    0.7049   -1.5462 H   0  0  0  0  0  0  0  0  0  0  0  0
    0.3873    1.0748    1.2093 H   0  0  0  0  0  0  0  0  0  0  0  0
   -0.9683   -0.2426    0.6608 H   0  0  0  0  0  0  0  0  0  0  0  0
   -3.0077   -1.3420    1.3479 H   0  0  0  0  0  0  0  0  0  0  0  0
   -6.2480    0.3259    1.8774 H   0  0  0  0  0  0  0  0  0  0  0  0
   -5.1010   -0.9868    2.4756 H   0  0  0  0  0  0  0  0  0  0  0  0
   -5.6499   -1.0722   -1.5349 H   0  0  0  0  0  0  0  0  0  0  0  0
   -5.9985    0.4138   -0.6486 H   0  0  0  0  0  0  0  0  0  0  0  0
   -8.2760    0.0483   -0.4283 H   0  0  0  0  0  0  0  0  0  0  0  0
   -7.8481   -0.5832   -2.0428 H   0  0  0  0  0  0  0  0  0  0  0  0
   -9.4448   -1.9279   -0.6587 H   0  0  0  0  0  0  0  0  0  0  0  0
   -8.0813   -3.9798   -1.0254 H   0  0  0  0  0  0  0  0  0  0  0  0
   -8.4390   -1.6602    1.5282 H   0  0  0  0  0  0  0  0  0  0  0  0
   -8.3764   -3.4458    1.0376 H   0  0  0  0  0  0  0  0  0  0  0  0
   -6.0890   -3.3469    0.5188 H   0  0  0  0  0  0  0  0  0  0  0  0
   -6.3230   -2.5659    2.0877 H   0  0  0  0  0  0  0  0  0  0  0  0
   -5.1949    2.2851    0.8994 H   0  0  0  0  0  0  0  0  0  0  0  0
   -3.1398    3.4374    0.2056 H   0  0  0  0  0  0  0  0  0  0  0  0
  1  2  1  0
  2  3  2  0
  2  4  1  0
  4  5  1  0
  5  6  2  0
  6  7  1  0
  7  8  1  0
  8  9  2  0
  9 10  1  0
 10 11  2  0
 11 12  1  0
 12 13  2  0
 13 14  1  0
 14 15  2  0
 15 16  1  0
 16 17  2  0
  6 18  1  0
 18 19  1  0
 19 20  1  0
 20 21  1  0
 21 22  2  0
 21 23  1  0
 23 24  2  0
 24 25  1  0
 25 26  2  0
 26 27  1  0
 27 28  1  0
 28 29  1  0
 29 30  1  0
 30 31  1  0
 31 32  1  0
 31 33  1  0
 33 34  1  0
 26 35  1  0
 35 36  2  0
 19  4  2  0
 36 23  1  0
 17  8  1  0
 34 28  1  0
 16 11  1  0
  1 37  1  0
  1 38  1  0
  7 39  1  0
  9 40  1  0
 10 41  1  0
 12 42  1  0
 13 43  1  0
 14 44  1  0
 15 45  1  0
 17 46  1  0
 20 47  1  0
 24 48  1  0
 25 49  1  0
 27 50  1  0
 27 51  1  0
 29 52  1  0
 29 53  1  0
 30 54  1  0
 30 55  1  0
 31 56  1  0
 32 57  1  0
 33 58  1  0
 33 59  1  0
 34 60  1  0
 34 61  1  0
 35 62  1  0
 36 63  1  0
M  END
$$$$
[H]c1c([H])c([H])c(-c2c([H])c3nc(N([H])C(=O)N([H])C([H])([H])C([H])([H])[H])sc3n(C([H])(C([H])([H])[H])C([H])([H])[H])c2=O)c([H])c1[H]
     RDKit          3D

 45 47  0  0  0  0  0  0  0  0999 V2000
    7.4267    1.4017   -0.6684 C   0  0  0  0  0  0  0  0  0  0  0  0
    6.9352    0.0893   -0.0624 C   0  0  0  0  0  0  0  0  0  0  0  0
    5.5246    0.0400   -0.0207 N   0  0  0  0  0  0  0  0  0  0  0  0
    4.8398   -1.1304    0.5484 C   0  0  0  0  0  0  0  0  0  0  0  0
    5.6704   -2.0210    0.9656 O   0  0  0  0  0  0  0  0  0  0  0  0
    3.5098   -1.1341    0.5691 N   0  0  0  0  0  0  0  0  0  0  0  0
    2.1346   -1.1379    0.5906 C   0  0  0  0  0  0  0  0  0  0  0  0
    1.4154   -0.0892    0.0528 N   0  0  0  0  0  0  0  0  0  0  0  0
    0.1431   -0.1284    0.0702 C   0  0  0  0  0  0  0  0  0  0  0  0
   -0.7291    0.8658   -0.4575 C   0  0  0  0  0  0  0  0  0  0  0  0
   -2.0665    0.6606   -0.3702 C   0  0  0  0  0  0  0  0  0  0  0  0
   -2.9372    1.7101   -0.9544 C   0  0  0  0  0  0  0  0  0  0  0  0
   -2.6742    3.0303   -0.6624 C   0  0  0  0  0  0  0  0  0  0  0  0
   -3.4037    4.0702   -1.1577 C   0  0  0  0  0  0  0  0  0  0  0  0
   -4.4651    3.7977   -1.9967 C   0  0  0  0  0  0  0  0  0  0  0  0
   -4.7521    2.4698   -2.3065 C   0  0  0  0  0  0  0  0  0  0  0  0
   -3.9882    1.4323   -1.7850 C   0  0  0  0  0  0  0  0  0  0  0  0
   -2.6798   -0.4417    0.1938 C   0  0  0  0  0  0  0  0  0  0  0  0
   -3.9282   -0.5696    0.2442 O   0  0  0  0  0  0  0  0  0  0  0  0
   -1.8316   -1.3608    0.6829 N   0  0  0  0  0  0  0  0  0  0  0  0
   -2.3506   -2.5599    1.2888 C   0  0  0  0  0  0  0  0  0  0  0  0
   -3.2502   -3.3467    0.3983 C   0  0  0  0  0  0  0  0  0  0  0  0
   -3.0311   -2.2201    2.6101 C   0  0  0  0  0  0  0  0  0  0  0  0
   -0.4923   -1.2061    0.6208 C   0  0  0  0  0  0  0  0  0  0  0  0
    0.8596   -2.1414    1.1032 S   0  0  0  0  0  0  0  0  0  0  0  0
    7.6309    1.2396   -1.7430 H   0  0  0  0  0  0  0  0  0  0  0  0
    6.6237    2.1692   -0.5163 H   0  0  0  0  0  0  0  0  0  0  0  0
    8.3066    1.7509   -0.0894 H   0  0  0  0  0  0  0  0  0  0  0  0
    7.4087   -0.7280   -0.6715 H   0  0  0  0  0  0  0  0  0  0  0  0
    7.3719   -0.0089    0.9510 H   0  0  0  0  0  0  0  0  0  0  0  0
    4.9257    0.7966   -0.3744 H   0  0  0  0  0  0  0  0  0  0  0  0
    3.5292   -2.3361    1.2090 H   0  0  0  0  0  0  0  0  0  0  0  0
   -0.3387    1.7654   -0.9160 H   0  0  0  0  0  0  0  0  0  0  0  0
   -1.8364    3.2861    0.0034 H   0  0  0  0  0  0  0  0  0  0  0  0
   -3.2090    5.1070   -0.9409 H   0  0  0  0  0  0  0  0  0  0  0  0
   -5.0524    4.6116   -2.3964 H   0  0  0  0  0  0  0  0  0  0  0  0
   -5.5891    2.2955   -2.9657 H   0  0  0  0  0  0  0  0  0  0  0  0
   -4.2276    0.4246   -2.0363 H   0  0  0  0  0  0  0  0  0  0  0  0
   -1.5037   -3.2474    1.5833 H   0  0  0  0  0  0  0  0  0  0  0  0
   -2.8928   -3.2882   -0.6513 H   0  0  0  0  0  0  0  0  0  0  0  0
   -4.3240   -3.0826    0.4854 H   0  0  0  0  0  0  0  0  0  0  0  0
   -3.1864   -4.4142    0.6885 H   0  0  0  0  0  0  0  0  0  0  0  0
   -2.5487   -1.2981    3.0052 H   0  0  0  0  0  0  0  0  0  0  0  0
   -4.1270   -2.1233    2.4949 H   0  0  0  0  0  0  0  0  0  0  0  0
   -2.8401   -3.0000    3.3833 H   0  0  0  0  0  0  0  0  0  0  0  0
  1  2  1  0
  2  3  1  0
  3  4  1  0
  4  5  2  0
  4  6  1  0
  6  7  1  0
  7  8  2  0
  8  9  1  0
  9 10  1  0
 10 11  2  0
 11 12  1  0
 12 13  2  0
 13 14  1  0
 14 15  2  0
 15 16  1  0
 16 17  2  0
 11 18  1  0
 18 19  2  0
 18 20  1  0
 20 21  1  0
 21 22  1  0
 21 23  1  0
 20 24  1  0
 24 25  1  0
 25  7  1  0
 24  9  2  0
 17 12  1  0
  1 26  1  0
  1 27  1  0
  1 28  1  0
  2 29  1  0
  2 30  1  0
  3 31  1  0
  6 32  1  0
 10 33  1  0
 13 34  1  0
 14 35  1  0
 15 36  1  0
 16 37  1  0
 17 38  1  0
 21 39  1  0
 22 40  1  0
 22 41  1  0
 22 42  1  0
 23 43  1  0
 23 44  1  0
 23 45  1  0
M  END
$$$$
[H]/C(C(=O)N([H])c1c(OC([H])([H])C([H])([H])[H])c([H])c2nc([H])c(C#N)c(N([H])c3c([H])c([H])c(OC([H])([H])c4c([H])c([H])c([H])c([H])c4[H])c(Cl)c3[H])c2c1[H])=C(/[H])C([H])([H])N1C([H])([H])C([H])([H])N(C([H])([H])[H])C([H])([H])C1([H])[H]
     RDKit          3D

 79 83  0  0  0  0  0  0  0  0999 V2000
    4.2664    3.4549   -3.0743 C   0  0  0  0  0  0  0  0  0  0  0  0
    3.1200    2.6442   -3.6747 C   0  0  0  0  0  0  0  0  0  0  0  0
    2.5984    1.8314   -2.6686 O   0  0  0  0  0  0  0  0  0  0  0  0
    1.5417    0.9531   -2.8463 C   0  0  0  0  0  0  0  0  0  0  0  0
    0.9783    0.8815   -4.0821 C   0  0  0  0  0  0  0  0  0  0  0  0
   -0.0757    0.0134   -4.2835 C   0  0  0  0  0  0  0  0  0  0  0  0
   -0.6441   -0.0697   -5.5006 N   0  0  0  0  0  0  0  0  0  0  0  0
   -1.6823   -0.9209   -5.7124 C   0  0  0  0  0  0  0  0  0  0  0  0
   -2.1901   -1.7213   -4.7131 C   0  0  0  0  0  0  0  0  0  0  0  0
   -3.2878   -2.6237   -4.9284 C   0  0  0  0  0  0  0  0  0  0  0  0
   -4.1713   -3.3552   -5.0857 N   0  0  0  0  0  0  0  0  0  0  0  0
   -1.5792   -1.6128   -3.4606 C   0  0  0  0  0  0  0  0  0  0  0  0
   -2.0784   -2.4289   -2.4359 N   0  0  0  0  0  0  0  0  0  0  0  0
   -3.1306   -1.9986   -1.5855 C   0  0  0  0  0  0  0  0  0  0  0  0
   -3.6983   -0.7287   -1.7071 C   0  0  0  0  0  0  0  0  0  0  0  0
   -4.7225   -0.3066   -0.8870 C   0  0  0  0  0  0  0  0  0  0  0  0
   -5.2077   -1.1555    0.0853 C   0  0  0  0  0  0  0  0  0  0  0  0
   -6.2292   -0.8246    0.9524 O   0  0  0  0  0  0  0  0  0  0  0  0
   -6.9321    0.3709    1.0135 C   0  0  0  0  0  0  0  0  0  0  0  0
   -7.9534    0.2698    2.1130 C   0  0  0  0  0  0  0  0  0  0  0  0
   -9.2378   -0.1832    1.8384 C   0  0  0  0  0  0  0  0  0  0  0  0
  -10.2085   -0.2989    2.8051 C   0  0  0  0  0  0  0  0  0  0  0  0
   -9.9239    0.0425    4.1139 C   0  0  0  0  0  0  0  0  0  0  0  0
   -8.6550    0.4944    4.4069 C   0  0  0  0  0  0  0  0  0  0  0  0
   -7.6798    0.6074    3.4196 C   0  0  0  0  0  0  0  0  0  0  0  0
   -4.6335   -2.4048    0.1890 C   0  0  0  0  0  0  0  0  0  0  0  0
   -5.2352   -3.5161    1.4267 Cl  0  0  0  0  0  0  0  0  0  0  0  0
   -3.6224   -2.8605   -0.5989 C   0  0  0  0  0  0  0  0  0  0  0  0
   -0.5275   -0.7535   -3.2347 C   0  0  0  0  0  0  0  0  0  0  0  0
    0.0789   -0.6516   -1.9755 C   0  0  0  0  0  0  0  0  0  0  0  0
    1.1275    0.1980   -1.7339 C   0  0  0  0  0  0  0  0  0  0  0  0
    1.7998    0.3632   -0.5018 N   0  0  0  0  0  0  0  0  0  0  0  0
    1.5197   -0.2621    0.7105 C   0  0  0  0  0  0  0  0  0  0  0  0
    0.5771   -1.0825    0.8155 O   0  0  0  0  0  0  0  0  0  0  0  0
    2.2953   -0.0076    1.9244 C   0  0  0  0  0  0  0  0  0  0  0  0
    3.3130    0.8165    1.9831 C   0  0  0  0  0  0  0  0  0  0  0  0
    4.0285    0.9863    3.3070 C   0  0  0  0  0  0  0  0  0  0  0  0
    5.4045    0.6059    3.1877 N   0  0  0  0  0  0  0  0  0  0  0  0
    6.1266    1.5203    2.3543 C   0  0  0  0  0  0  0  0  0  0  0  0
    6.9659    0.8353    1.3018 C   0  0  0  0  0  0  0  0  0  0  0  0
    7.6811   -0.3055    1.7812 N   0  0  0  0  0  0  0  0  0  0  0  0
    8.9024    0.0016    2.4614 C   0  0  0  0  0  0  0  0  0  0  0  0
    6.8556   -1.2512    2.4680 C   0  0  0  0  0  0  0  0  0  0  0  0
    5.4442   -0.7185    2.5822 C   0  0  0  0  0  0  0  0  0  0  0  0
    5.0248    2.7789   -2.6458 H   0  0  0  0  0  0  0  0  0  0  0  0
    4.7716    4.0120   -3.9073 H   0  0  0  0  0  0  0  0  0  0  0  0
    3.8526    4.1682   -2.3478 H   0  0  0  0  0  0  0  0  0  0  0  0
    3.5695    1.9536   -4.4476 H   0  0  0  0  0  0  0  0  0  0  0  0
    2.3850    3.3281   -4.1397 H   0  0  0  0  0  0  0  0  0  0  0  0
    1.3213    1.4826   -4.9318 H   0  0  0  0  0  0  0  0  0  0  0  0
   -2.1252   -0.9740   -6.6941 H   0  0  0  0  0  0  0  0  0  0  0  0
   -1.6837   -3.3809   -2.2722 H   0  0  0  0  0  0  0  0  0  0  0  0
   -3.3034   -0.0621   -2.4849 H   0  0  0  0  0  0  0  0  0  0  0  0
   -5.1403    0.6878   -1.0099 H   0  0  0  0  0  0  0  0  0  0  0  0
   -7.4470    0.6585    0.0954 H   0  0  0  0  0  0  0  0  0  0  0  0
   -6.2342    1.1816    1.2885 H   0  0  0  0  0  0  0  0  0  0  0  0
   -9.4417   -0.4453    0.8081 H   0  0  0  0  0  0  0  0  0  0  0  0
  -11.2104   -0.6525    2.5916 H   0  0  0  0  0  0  0  0  0  0  0  0
  -10.6950   -0.0500    4.8803 H   0  0  0  0  0  0  0  0  0  0  0  0
   -8.4413    0.7586    5.4307 H   0  0  0  0  0  0  0  0  0  0  0  0
   -6.6951    0.9647    3.6821 H   0  0  0  0  0  0  0  0  0  0  0  0
   -3.1748   -3.8468   -0.5116 H   0  0  0  0  0  0  0  0  0  0  0  0
   -0.3285   -1.2798   -1.2193 H   0  0  0  0  0  0  0  0  0  0  0  0
    2.6186    1.0439   -0.4941 H   0  0  0  0  0  0  0  0  0  0  0  0
    2.0292   -0.5191    2.8370 H   0  0  0  0  0  0  0  0  0  0  0  0
    3.6525    1.3726    1.1207 H   0  0  0  0  0  0  0  0  0  0  0  0
    3.9910    2.0447    3.6323 H   0  0  0  0  0  0  0  0  0  0  0  0
    3.5368    0.3680    4.0784 H   0  0  0  0  0  0  0  0  0  0  0  0
    6.7769    2.1654    2.9819 H   0  0  0  0  0  0  0  0  0  0  0  0
    5.4150    2.1740    1.8285 H   0  0  0  0  0  0  0  0  0  0  0  0
    7.7032    1.5849    0.9348 H   0  0  0  0  0  0  0  0  0  0  0  0
    6.2855    0.5323    0.4789 H   0  0  0  0  0  0  0  0  0  0  0  0
    9.6597    0.4287    1.7916 H   0  0  0  0  0  0  0  0  0  0  0  0
    9.3200   -0.9792    2.8290 H   0  0  0  0  0  0  0  0  0  0  0  0
    8.7689    0.6668    3.3258 H   0  0  0  0  0  0  0  0  0  0  0  0
    6.7839   -2.1563    1.8052 H   0  0  0  0  0  0  0  0  0  0  0  0
    7.2697   -1.5845    3.4420 H   0  0  0  0  0  0  0  0  0  0  0  0
    4.8287   -1.4483    3.1440 H   0  0  0  0  0  0  0  0  0  0  0  0
    5.0376   -0.6730    1.5488 H   0  0  0  0  0  0  0  0  0  0  0  0
  1  2  1  0
  2  3  1  0
  3  4  1  0
  4  5  2  0
  5  6  1  0
  6  7  2  0
  7  8  1  0
  8  9  2  0
  9 10  1  0
 10 11  3  0
  9 12  1  0
 12 13  1  0
 13 14  1  0
 14 15  2  0
 15 16  1  0
 16 17  2  0
 17 18  1  0
 18 19  1  0
 19 20  1  0
 20 21  2  0
 21 22  1  0
 22 23  2  0
 23 24  1  0
 24 25  2  0
 17 26  1  0
 26 27  1  0
 26 28  2  0
 12 29  2  0
 29 30  1  0
 30 31  2  0
 31 32  1  0
 32 33  1  0
 33 34  2  0
 33 35  1  0
 35 36  2  0
 36 37  1  0
 37 38  1  0
 38 39  1  0
 39 40  1  0
 40 41  1  0
 41 42  1  0
 41 43  1  0
 43 44  1  0
 31  4  1  0
 44 38  1  0
 29  6  1  0
 28 14  1  0
 25 20  1  0
  1 45  1  0
  1 46  1  0
  1 47  1  0
  2 48  1  0
  2 49  1  0
  5 50  1  0
  8 51  1  0
 13 52  1  0
 15 53  1  0
 16 54  1  0
 19 55  1  0
 19 56  1  0
 21 57  1  0
 22 58  1  0
 23 59  1  0
 24 60  1  0
 25 61  1  0
 28 62  1  0
 30 63  1  0
 32 64  1  0
 35 65  1  0
 36 66  1  0
 37 67  1  0
 37 68  1  0
 39 69  1  0
 39 70  1  0
 40 71  1  0
 40 72  1  0
 42 73  1  0
 42 74  1  0
 42 75  1  0
 43 76  1  0
 43 77  1  0
 44 78  1  0
 44 79  1  0
M  END
$$$$
[H]N=C(N([H])[H])N([H])C([H])([H])C([H])([H])C([H])([H])[C@@]([H])(C(=O)N([H])[C@]([H])(C(=O)N([H])[C@]([H])(C(=O)O[H])C([H])([H])C([H])([H])C([H])([H])C([H])([H])N([H])[H])C([H])([H])C([H])(C([H])([H])[H])C([H])([H])[H])N([H])C(=O)[C@@]([H])(N([H])C(=O)[C@@]([H])(N([H])C(=O)OC([H])([H])c1c([H])c([H])c([H])c([H])c1[H])C([H])([H])C(=O)O[H])C([H])([H])C([H])(C([H])([H])[H])C([H])([H])[H]
     RDKit          3D

114114  0  0  0  0  0  0  0  0999 V2000
    3.0866    2.9673    0.1510 C   0  0  0  0  0  0  0  0  0  0  0  0
    3.0853    2.4261   -1.2776 C   0  0  0  0  0  0  0  0  0  0  0  0
    4.3906    2.6512   -1.9445 C   0  0  0  0  0  0  0  0  0  0  0  0
    2.4167    1.1184   -1.3715 C   0  0  0  0  0  0  0  0  0  0  0  0
    2.8130   -0.0717   -0.6661 C   0  0  2  0  0  0  0  0  0  0  0  0
    4.0275   -0.7003   -0.9372 N   0  0  0  0  0  0  0  0  0  0  0  0
    5.1889   -1.3094   -1.1971 C   0  0  0  0  0  0  0  0  0  0  0  0
    5.2595   -2.6215   -1.3597 O   0  0  0  0  0  0  0  0  0  0  0  0
    6.5756   -0.7463   -1.3479 C   0  0  2  0  0  0  0  0  0  0  0  0
    7.1126   -0.7893   -2.7461 C   0  0  0  0  0  0  0  0  0  0  0  0
    6.3701   -0.0089   -3.7497 C   0  0  0  0  0  0  0  0  0  0  0  0
    6.8655    1.2242   -4.1740 O   0  0  0  0  0  0  0  0  0  0  0  0
    5.2626   -0.4607   -4.2521 O   0  0  0  0  0  0  0  0  0  0  0  0
    7.4894   -1.6149   -0.5595 N   0  0  0  0  0  0  0  0  0  0  0  0
    8.3396   -1.0166    0.3759 C   0  0  0  0  0  0  0  0  0  0  0  0
    8.2993    0.2549    0.4945 O   0  0  0  0  0  0  0  0  0  0  0  0
    9.2202   -1.7216    1.1848 O   0  0  0  0  0  0  0  0  0  0  0  0
   10.0148   -0.9035    2.0602 C   0  0  0  0  0  0  0  0  0  0  0  0
   10.8331   -0.0125    1.1979 C   0  0  0  0  0  0  0  0  0  0  0  0
   11.1843    1.2516    1.4962 C   0  0  0  0  0  0  0  0  0  0  0  0
   11.9515    2.0157    0.6293 C   0  0  0  0  0  0  0  0  0  0  0  0
   12.3754    1.4725   -0.5750 C   0  0  0  0  0  0  0  0  0  0  0  0
   12.0085    0.1907   -0.8549 C   0  0  0  0  0  0  0  0  0  0  0  0
   11.2502   -0.5812   -0.0136 C   0  0  0  0  0  0  0  0  0  0  0  0
    1.6106   -0.9877   -0.5279 C   0  0  0  0  0  0  0  0  0  0  0  0
    1.5804   -2.1816   -0.8629 O   0  0  0  0  0  0  0  0  0  0  0  0
    0.4198   -0.4655    0.0280 N   0  0  0  0  0  0  0  0  0  0  0  0
   -0.7571   -1.1741    0.2555 C   0  0  1  0  0  0  0  0  0  0  0  0
   -0.9875   -1.4388    1.7415 C   0  0  0  0  0  0  0  0  0  0  0  0
   -0.9382   -0.2436    2.5795 C   0  0  0  0  0  0  0  0  0  0  0  0
   -1.7857    0.9378    2.3908 C   0  0  0  0  0  0  0  0  0  0  0  0
   -1.3804    1.9128    3.4335 N   0  0  0  0  0  0  0  0  0  0  0  0
   -1.9458    3.2027    3.4292 C   0  0  0  0  0  0  0  0  0  0  0  0
   -1.2499    4.3055    2.8666 N   0  0  0  0  0  0  0  0  0  0  0  0
   -3.0965    3.3654    3.9537 N   0  0  0  0  0  0  0  0  0  0  0  0
   -1.9682   -0.9115   -0.4966 C   0  0  0  0  0  0  0  0  0  0  0  0
   -2.0790    0.1477   -1.1618 O   0  0  0  0  0  0  0  0  0  0  0  0
   -3.0030   -1.9037   -0.4550 N   0  0  0  0  0  0  0  0  0  0  0  0
   -4.2542   -1.8905   -1.1058 C   0  0  1  0  0  0  0  0  0  0  0  0
   -4.9089   -3.1340   -1.4292 C   0  0  0  0  0  0  0  0  0  0  0  0
   -5.3334   -4.1135   -0.4217 C   0  0  0  0  0  0  0  0  0  0  0  0
   -6.0277   -5.3012   -1.1607 C   0  0  0  0  0  0  0  0  0  0  0  0
   -4.2486   -4.7963    0.3763 C   0  0  0  0  0  0  0  0  0  0  0  0
   -5.1521   -0.8735   -0.4401 C   0  0  0  0  0  0  0  0  0  0  0  0
   -4.5830   -0.0211    0.2676 O   0  0  0  0  0  0  0  0  0  0  0  0
   -6.5481   -0.8366   -0.5688 N   0  0  0  0  0  0  0  0  0  0  0  0
   -7.2680    0.2970    0.1613 C   0  0  1  0  0  0  0  0  0  0  0  0
   -7.9272    1.0451   -0.9035 C   0  0  0  0  0  0  0  0  0  0  0  0
   -8.6595    2.2890   -0.7288 C   0  0  0  0  0  0  0  0  0  0  0  0
   -9.8897    2.4841    0.0260 C   0  0  0  0  0  0  0  0  0  0  0  0
  -11.0767    1.6950   -0.5134 C   0  0  0  0  0  0  0  0  0  0  0  0
  -11.3874    2.0635   -1.8615 N   0  0  0  0  0  0  0  0  0  0  0  0
   -7.9855   -0.3861    1.2065 C   0  0  0  0  0  0  0  0  0  0  0  0
   -9.1503   -0.0234    1.7882 O   0  0  0  0  0  0  0  0  0  0  0  0
   -7.4869   -1.4963    1.6793 O   0  0  0  0  0  0  0  0  0  0  0  0
    2.3620    2.4657    0.7731 H   0  0  0  0  0  0  0  0  0  0  0  0
    4.0951    2.8533    0.6022 H   0  0  0  0  0  0  0  0  0  0  0  0
    2.8009    4.0618    0.1590 H   0  0  0  0  0  0  0  0  0  0  0  0
    2.3780    3.1592   -1.8074 H   0  0  0  0  0  0  0  0  0  0  0  0
    4.7402    3.6783   -1.6903 H   0  0  0  0  0  0  0  0  0  0  0  0
    5.1779    1.9871   -1.5693 H   0  0  0  0  0  0  0  0  0  0  0  0
    4.2707    2.5525   -3.0571 H   0  0  0  0  0  0  0  0  0  0  0  0
    2.4017    0.9002   -2.5164 H   0  0  0  0  0  0  0  0  0  0  0  0
    1.2870    1.3088   -1.2273 H   0  0  0  0  0  0  0  0  0  0  0  0
    2.9712    0.2027    0.5062 H   0  0  0  0  0  0  0  0  0  0  0  0
    3.3843   -1.8965   -0.9582 H   0  0  0  0  0  0  0  0  0  0  0  0
    6.6549    0.2581   -0.9434 H   0  0  0  0  0  0  0  0  0  0  0  0
    7.2118   -1.8540   -3.1143 H   0  0  0  0  0  0  0  0  0  0  0  0
    8.1750   -0.4087   -2.7445 H   0  0  0  0  0  0  0  0  0  0  0  0
    7.0354    1.9788   -3.5062 H   0  0  0  0  0  0  0  0  0  0  0  0
    7.4535   -2.6466   -0.7257 H   0  0  0  0  0  0  0  0  0  0  0  0
   10.6943   -1.4994    2.6847 H   0  0  0  0  0  0  0  0  0  0  0  0
    9.3648   -0.2781    2.6979 H   0  0  0  0  0  0  0  0  0  0  0  0
   10.8590    1.6986    2.4302 H   0  0  0  0  0  0  0  0  0  0  0  0
   12.2134    3.0040    0.8727 H   0  0  0  0  0  0  0  0  0  0  0  0
   12.9624    2.0683   -1.2456 H   0  0  0  0  0  0  0  0  0  0  0  0
   12.3186   -0.3172   -1.8040 H   0  0  0  0  0  0  0  0  0  0  0  0
   10.9952   -1.5951   -0.2692 H   0  0  0  0  0  0  0  0  0  0  0  0
    0.4174    0.5667    0.3264 H   0  0  0  0  0  0  0  0  0  0  0  0
   -0.4877   -2.2659   -0.1040 H   0  0  0  0  0  0  0  0  0  0  0  0
   -1.9991   -1.9425    1.7851 H   0  0  0  0  0  0  0  0  0  0  0  0
   -0.2508   -2.1736    2.0947 H   0  0  0  0  0  0  0  0  0  0  0  0
   -1.1000   -0.5812    3.6563 H   0  0  0  0  0  0  0  0  0  0  0  0
    0.1590    0.1351    2.6451 H   0  0  0  0  0  0  0  0  0  0  0  0
   -2.8657    0.8315    2.4998 H   0  0  0  0  0  0  0  0  0  0  0  0
   -1.5045    1.4781    1.4350 H   0  0  0  0  0  0  0  0  0  0  0  0
   -0.6763    1.6189    4.1690 H   0  0  0  0  0  0  0  0  0  0  0  0
   -0.7693    4.9862    3.4861 H   0  0  0  0  0  0  0  0  0  0  0  0
   -1.2137    4.4323    1.8523 H   0  0  0  0  0  0  0  0  0  0  0  0
   -3.5009    4.3268    3.9381 H   0  0  0  0  0  0  0  0  0  0  0  0
   -2.7885   -2.7890    0.1124 H   0  0  0  0  0  0  0  0  0  0  0  0
   -4.0408   -1.3160   -2.1027 H   0  0  0  0  0  0  0  0  0  0  0  0
   -4.1727   -3.7143   -2.1144 H   0  0  0  0  0  0  0  0  0  0  0  0
   -5.7846   -3.0161   -2.1453 H   0  0  0  0  0  0  0  0  0  0  0  0
   -6.1294   -3.7192    0.2640 H   0  0  0  0  0  0  0  0  0  0  0  0
   -5.7421   -5.2462   -2.2229 H   0  0  0  0  0  0  0  0  0  0  0  0
   -5.7735   -6.2443   -0.6480 H   0  0  0  0  0  0  0  0  0  0  0  0
   -7.1227   -5.1538   -1.0422 H   0  0  0  0  0  0  0  0  0  0  0  0
   -3.3576   -4.9993   -0.2522 H   0  0  0  0  0  0  0  0  0  0  0  0
   -4.0231   -4.2540    1.3273 H   0  0  0  0  0  0  0  0  0  0  0  0
   -4.6141   -5.8140    0.7359 H   0  0  0  0  0  0  0  0  0  0  0  0
   -7.0588   -1.5347   -1.1174 H   0  0  0  0  0  0  0  0  0  0  0  0
   -6.3880    0.8897    0.6164 H   0  0  0  0  0  0  0  0  0  0  0  0
   -8.5502    0.2667   -1.4942 H   0  0  0  0  0  0  0  0  0  0  0  0
   -7.1102    1.2500   -1.6947 H   0  0  0  0  0  0  0  0  0  0  0  0
   -7.8903    3.0764   -0.3744 H   0  0  0  0  0  0  0  0  0  0  0  0
   -8.8640    2.6826   -1.7993 H   0  0  0  0  0  0  0  0  0  0  0  0
   -9.8409    2.4903    1.1132 H   0  0  0  0  0  0  0  0  0  0  0  0
  -10.2004    3.5782   -0.1996 H   0  0  0  0  0  0  0  0  0  0  0  0
  -10.8436    0.6102   -0.5046 H   0  0  0  0  0  0  0  0  0  0  0  0
  -11.9815    1.8695    0.0863 H   0  0  0  0  0  0  0  0  0  0  0  0
  -12.1284    2.7715   -1.9899 H   0  0  0  0  0  0  0  0  0  0  0  0
  -11.5984    1.2855   -2.5015 H   0  0  0  0  0  0  0  0  0  0  0  0
   -9.9646   -0.6451    1.9163 H   0  0  0  0  0  0  0  0  0  0  0  0
  1  2  1  0
  2  3  1  0
  2  4  1  0
  4  5  1  0
  5  6  1  0
  6  7  1  0
  7  8  2  0
  7  9  1  0
  9 10  1  0
 10 11  1  0
 11 12  1  0
 11 13  2  0
  9 14  1  0
 14 15  1  0
 15 16  2  0
 15 17  1  0
 17 18  1  0
 18 19  1  0
 19 20  2  0
 20 21  1  0
 21 22  2  0
 22 23  1  0
 23 24  2  0
  5 25  1  0
 25 26  2  0
 25 27  1  0
 27 28  1  0
 28 29  1  0
 29 30  1  0
 30 31  1  0
 31 32  1  0
 32 33  1  0
 33 34  1  0
 33 35  2  3
 28 36  1  0
 36 37  2  0
 36 38  1  0
 38 39  1  0
 39 40  1  0
 40 41  1  0
 41 42  1  0
 41 43  1  0
 39 44  1  0
 44 45  2  0
 44 46  1  0
 46 47  1  0
 47 48  1  0
 48 49  1  0
 49 50  1  0
 50 51  1  0
 51 52  1  0
 47 53  1  0
 53 54  1  0
 53 55  2  0
 24 19  1  0
  1 56  1  0
  1 57  1  0
  1 58  1  0
  2 59  1  0
  3 60  1  0
  3 61  1  0
  3 62  1  0
  4 63  1  0
  4 64  1  0
  5 65  1  1
  6 66  1  0
  9 67  1  1
 10 68  1  0
 10 69  1  0
 12 70  1  0
 14 71  1  0
 18 72  1  0
 18 73  1  0
 20 74  1  0
 21 75  1  0
 22 76  1  0
 23 77  1  0
 24 78  1  0
 27 79  1  0
 28 80  1  6
 29 81  1  0
 29 82  1  0
 30 83  1  0
 30 84  1  0
 31 85  1  0
 31 86  1  0
 32 87  1  0
 34 88  1  0
 34 89  1  0
 35 90  1  0
 38 91  1  0
 39 92  1  6
 40 93  1  0
 40 94  1  0
 41 95  1  0
 42 96  1  0
 42 97  1  0
 42 98  1  0
 43 99  1  0
 43100  1  0
 43101  1  0
 46102  1  0
 47103  1  1
 48104  1  0
 48105  1  0
 49106  1  0
 49107  1  0
 50108  1  0
 50109  1  0
 51110  1  0
 51111  1  0
 52112  1  0
 52113  1  0
 54114  1  0
M  END
$$$$
[H]c1c([H])c([H])c([C@@]([H])(N([H])C(=O)c2[se]c(-c3c([H])c([H])c(OC([H])(C([H])([H])[H])C([H])([H])[H])c(C#N)c3[H])nc2C([H])([H])[H])C([H])([H])[H])c([H])c1[H]
     RDKit          3D

 52 54  0  0  0  0  0  0  0  0999 V2000
    8.0564    1.2012    0.8724 C   0  0  0  0  0  0  0  0  0  0  0  0
    7.3186   -0.0429    0.3336 C   0  0  0  0  0  0  0  0  0  0  0  0
    8.2515   -1.2248    0.6325 C   0  0  0  0  0  0  0  0  0  0  0  0
    6.1371   -0.1736    1.0420 O   0  0  0  0  0  0  0  0  0  0  0  0
    4.8859   -0.1955    0.4858 C   0  0  0  0  0  0  0  0  0  0  0  0
    4.6961   -0.0864   -0.8600 C   0  0  0  0  0  0  0  0  0  0  0  0
    3.3906   -0.1152   -1.3730 C   0  0  0  0  0  0  0  0  0  0  0  0
    2.2937   -0.2483   -0.5834 C   0  0  0  0  0  0  0  0  0  0  0  0
    2.4900   -0.3578    0.7718 C   0  0  0  0  0  0  0  0  0  0  0  0
    3.7569   -0.3334    1.3094 C   0  0  0  0  0  0  0  0  0  0  0  0
    3.9693   -0.4460    2.7096 C   0  0  0  0  0  0  0  0  0  0  0  0
    4.1590   -0.5367    3.8535 N   0  0  0  0  0  0  0  0  0  0  0  0
    0.9698   -0.2730   -1.1545 C   0  0  0  0  0  0  0  0  0  0  0  0
    0.4072   -0.2045   -2.2837 N   0  0  0  0  0  0  0  0  0  0  0  0
   -0.7967   -0.2395   -2.6629 C   0  0  0  0  0  0  0  0  0  0  0  0
   -1.1352   -0.1231   -4.1831 C   0  0  0  0  0  0  0  0  0  0  0  0
   -1.8758   -0.3702   -1.8891 C   0  0  0  0  0  0  0  0  0  0  0  0
   -0.7520   -0.4715   -0.0321 Se  0  0  0  0  0  2  0  0  0  0  0  0
   -3.2877   -0.4507   -1.8923 C   0  0  0  0  0  0  0  0  0  0  0  0
   -4.0139   -0.4007   -2.9200 O   0  0  0  0  0  0  0  0  0  0  0  0
   -4.0089   -0.6008   -0.6703 N   0  0  0  0  0  0  0  0  0  0  0  0
   -5.4470   -0.6907   -0.5838 C   0  0  1  0  0  0  0  0  0  0  0  0
   -5.7706   -2.0468    0.0160 C   0  0  0  0  0  0  0  0  0  0  0  0
   -5.9086    0.4037    0.2970 C   0  0  0  0  0  0  0  0  0  0  0  0
   -5.2927    0.7023    1.4896 C   0  0  0  0  0  0  0  0  0  0  0  0
   -5.7603    1.7357    2.2803 C   0  0  0  0  0  0  0  0  0  0  0  0
   -6.8676    2.4691    1.8461 C   0  0  0  0  0  0  0  0  0  0  0  0
   -7.4945    2.1841    0.6577 C   0  0  0  0  0  0  0  0  0  0  0  0
   -6.9980    1.1514   -0.0950 C   0  0  0  0  0  0  0  0  0  0  0  0
    7.8935    2.0632    0.1967 H   0  0  0  0  0  0  0  0  0  0  0  0
    7.7169    1.3742    1.9062 H   0  0  0  0  0  0  0  0  0  0  0  0
    9.1439    1.0086    0.9045 H   0  0  0  0  0  0  0  0  0  0  0  0
    7.2561    0.0507   -0.7552 H   0  0  0  0  0  0  0  0  0  0  0  0
    8.8845   -1.0017    1.5181 H   0  0  0  0  0  0  0  0  0  0  0  0
    8.9060   -1.4466   -0.2387 H   0  0  0  0  0  0  0  0  0  0  0  0
    7.6636   -2.1291    0.8933 H   0  0  0  0  0  0  0  0  0  0  0  0
    5.5159    0.0231   -1.5630 H   0  0  0  0  0  0  0  0  0  0  0  0
    3.2200   -0.0286   -2.4548 H   0  0  0  0  0  0  0  0  0  0  0  0
    1.6075   -0.4636    1.3935 H   0  0  0  0  0  0  0  0  0  0  0  0
   -1.7408    0.7883   -4.3264 H   0  0  0  0  0  0  0  0  0  0  0  0
   -0.2405   -0.0332   -4.7837 H   0  0  0  0  0  0  0  0  0  0  0  0
   -1.6588   -1.0584   -4.4561 H   0  0  0  0  0  0  0  0  0  0  0  0
   -3.4635   -0.6482    0.2122 H   0  0  0  0  0  0  0  0  0  0  0  0
   -5.9074   -0.6283   -1.5806 H   0  0  0  0  0  0  0  0  0  0  0  0
   -5.5468   -2.8157   -0.7525 H   0  0  0  0  0  0  0  0  0  0  0  0
   -6.8029   -2.1210    0.3623 H   0  0  0  0  0  0  0  0  0  0  0  0
   -5.0494   -2.2239    0.8587 H   0  0  0  0  0  0  0  0  0  0  0  0
   -4.4194    0.1314    1.8422 H   0  0  0  0  0  0  0  0  0  0  0  0
   -5.2668    1.9656    3.2233 H   0  0  0  0  0  0  0  0  0  0  0  0
   -7.2501    3.2780    2.4439 H   0  0  0  0  0  0  0  0  0  0  0  0
   -8.3398    2.7713    0.3630 H   0  0  0  0  0  0  0  0  0  0  0  0
   -7.4942    0.9286   -1.0319 H   0  0  0  0  0  0  0  0  0  0  0  0
  1  2  1  0
  2  3  1  0
  2  4  1  0
  4  5  1  0
  5  6  2  0
  6  7  1  0
  7  8  2  0
  8  9  1  0
  9 10  2  0
 10 11  1  0
 11 12  3  0
  8 13  1  0
 13 14  2  0
 14 15  1  0
 15 16  1  0
 15 17  2  0
 17 18  1  0
 17 19  1  0
 19 20  2  0
 19 21  1  0
 21 22  1  0
 22 23  1  0
 22 24  1  0
 24 25  2  0
 25 26  1  0
 26 27  2  0
 27 28  1  0
 28 29  2  0
 10  5  1  0
 18 13  1  0
 29 24  1  0
  1 30  1  0
  1 31  1  0
  1 32  1  0
  2 33  1  0
  3 34  1  0
  3 35  1  0
  3 36  1  0
  6 37  1  0
  7 38  1  0
  9 39  1  0
 16 40  1  0
 16 41  1  0
 16 42  1  0
 21 43  1  0
 22 44  1  6
 23 45  1  0
 23 46  1  0
 23 47  1  0
 25 48  1  0
 26 49  1  0
 27 50  1  0
 28 51  1  0
 29 52  1  0
M  END
$$$$
[H]c1c([H])c([H])c(C2=NC([H])([H])c3nnc(C([H])([H])[H])n3-c3c([H])c([H])c(Cl)c([H])c32)c(Cl)c1[H]
     RDKit          3D

 35 38  0  0  0  0  0  0  0  0999 V2000
    4.0307   -0.4201   -1.0699 C   0  0  0  0  0  0  0  0  0  0  0  0
    3.3908   -0.6986    0.2265 C   0  0  0  0  0  0  0  0  0  0  0  0
    3.8234   -1.5595    1.2051 N   0  0  0  0  0  0  0  0  0  0  0  0
    2.9220   -1.5902    2.2053 N   0  0  0  0  0  0  0  0  0  0  0  0
    1.9207   -0.7864    1.9220 C   0  0  0  0  0  0  0  0  0  0  0  0
    0.6545   -0.5063    2.7022 C   0  0  0  0  0  0  0  0  0  0  0  0
   -0.5327   -0.7346    1.8842 N   0  0  0  0  0  0  0  0  0  0  0  0
   -0.8154   -0.2721    0.6850 C   0  0  0  0  0  0  0  0  0  0  0  0
   -2.0557   -0.6352    0.0515 C   0  0  0  0  0  0  0  0  0  0  0  0
   -2.4940   -0.4144   -1.2021 C   0  0  0  0  0  0  0  0  0  0  0  0
   -3.7527   -0.7521   -1.6290 C   0  0  0  0  0  0  0  0  0  0  0  0
   -4.6570   -1.3579   -0.7604 C   0  0  0  0  0  0  0  0  0  0  0  0
   -4.2220   -1.5944    0.5302 C   0  0  0  0  0  0  0  0  0  0  0  0
   -2.9726   -1.2503    0.9298 C   0  0  0  0  0  0  0  0  0  0  0  0
   -2.5165   -1.5994    2.6099 Cl  0  0  0  0  0  0  0  0  0  0  0  0
    0.0468    0.6933    0.0256 C   0  0  0  0  0  0  0  0  0  0  0  0
   -0.6131    1.6975   -0.6222 C   0  0  0  0  0  0  0  0  0  0  0  0
    0.0995    2.6784   -1.2750 C   0  0  0  0  0  0  0  0  0  0  0  0
   -0.8060    3.9409   -2.1091 Cl  0  0  0  0  0  0  0  0  0  0  0  0
    1.4992    2.6628   -1.2785 C   0  0  0  0  0  0  0  0  0  0  0  0
    2.2088    1.6488   -0.6171 C   0  0  0  0  0  0  0  0  0  0  0  0
    1.4424    0.7122    0.0016 C   0  0  0  0  0  0  0  0  0  0  0  0
    2.2412   -0.2436    0.6879 N   0  0  0  0  0  0  0  0  0  0  0  0
    4.9499    0.1755   -1.0577 H   0  0  0  0  0  0  0  0  0  0  0  0
    3.3460   -0.2503   -1.9241 H   0  0  0  0  0  0  0  0  0  0  0  0
    4.4545   -1.4385   -1.3788 H   0  0  0  0  0  0  0  0  0  0  0  0
    0.6141   -1.1647    3.5610 H   0  0  0  0  0  0  0  0  0  0  0  0
    0.6815    0.5736    2.9336 H   0  0  0  0  0  0  0  0  0  0  0  0
   -1.8259   -0.0091   -1.9274 H   0  0  0  0  0  0  0  0  0  0  0  0
   -4.1133   -0.5775   -2.6295 H   0  0  0  0  0  0  0  0  0  0  0  0
   -5.6518   -1.6428   -1.0394 H   0  0  0  0  0  0  0  0  0  0  0  0
   -4.9071   -2.0718    1.2437 H   0  0  0  0  0  0  0  0  0  0  0  0
   -1.6955    1.7158   -0.5471 H   0  0  0  0  0  0  0  0  0  0  0  0
    2.0489    3.4174   -1.7815 H   0  0  0  0  0  0  0  0  0  0  0  0
    3.2565    1.6536   -0.5560 H   0  0  0  0  0  0  0  0  0  0  0  0
  1  2  1  0
  2  3  2  0
  3  4  1  0
  4  5  2  0
  5  6  1  0
  6  7  1  0
  7  8  2  0
  8  9  1  0
  9 10  2  0
 10 11  1  0
 11 12  2  0
 12 13  1  0
 13 14  2  0
 14 15  1  0
  8 16  1  0
 16 17  2  0
 17 18  1  0
 18 19  1  0
 18 20  2  0
 20 21  1  0
 21 22  2  0
 22 23  1  0
 23  2  1  0
 23  5  1  0
 14  9  1  0
 22 16  1  0
  1 24  1  0
  1 25  1  0
  1 26  1  0
  6 27  1  0
  6 28  1  0
 10 29  1  0
 11 30  1  0
 12 31  1  0
 13 32  1  0
 17 33  1  0
 20 34  1  0
 21 35  1  0
M  END
$$$$
[H]c1nc2c(C([H])([H])[H])c(C([H])([H])[H])c(-c3c(C([H])(C([H])([H])[H])C([H])([H])[H])c4c([H])c(C5([H])C([H])([H])C([H])([H])N(C6([H])C([H])([H])C([H])([H])OC([H])([H])C6([H])[H])C([H])([H])C5([H])[H])c([H])c([H])c4n3[H])c([H])n2n1
     RDKit          3D

 72 77  0  0  0  0  0  0  0  0999 V2000
    1.7508    1.6055   -2.0815 C   0  0  0  0  0  0  0  0  0  0  0  0
    2.7423    0.5635   -1.6627 C   0  0  0  0  0  0  0  0  0  0  0  0
    2.4211   -0.6727   -2.5913 C   0  0  0  0  0  0  0  0  0  0  0  0
    2.5364    0.1151   -0.2700 C   0  0  0  0  0  0  0  0  0  0  0  0
    3.4741   -0.3775    0.5943 C   0  0  0  0  0  0  0  0  0  0  0  0
    2.8247   -0.8328    1.7197 N   0  0  0  0  0  0  0  0  0  0  0  0
    1.5023   -0.6480    1.6069 C   0  0  0  0  0  0  0  0  0  0  0  0
    0.4444   -0.9649    2.4404 C   0  0  0  0  0  0  0  0  0  0  0  0
   -0.8441   -0.7078    2.0648 C   0  0  0  0  0  0  0  0  0  0  0  0
   -1.1156   -0.1265    0.8498 C   0  0  0  0  0  0  0  0  0  0  0  0
   -0.0187    0.1820    0.0376 C   0  0  0  0  0  0  0  0  0  0  0  0
    1.2950   -0.0527    0.3626 C   0  0  0  0  0  0  0  0  0  0  0  0
   -2.4997    0.0829    0.4464 C   0  0  0  0  0  0  0  0  0  0  0  0
   -2.7777   -0.6588   -0.8526 C   0  0  0  0  0  0  0  0  0  0  0  0
   -4.2851   -0.8293   -0.9012 C   0  0  0  0  0  0  0  0  0  0  0  0
   -4.9818    0.4091   -0.6960 N   0  0  0  0  0  0  0  0  0  0  0  0
   -4.2050    1.5767   -0.5707 C   0  0  0  0  0  0  0  0  0  0  0  0
   -2.9661    1.4826    0.2832 C   0  0  0  0  0  0  0  0  0  0  0  0
   -6.1649    0.2851    0.0724 C   0  0  0  0  0  0  0  0  0  0  0  0
   -7.0263    1.5066    0.0450 C   0  0  0  0  0  0  0  0  0  0  0  0
   -8.4185    1.2118    0.6288 C   0  0  0  0  0  0  0  0  0  0  0  0
   -9.0490    0.1821   -0.0145 O   0  0  0  0  0  0  0  0  0  0  0  0
   -8.3058   -0.9965    0.2301 C   0  0  0  0  0  0  0  0  0  0  0  0
   -7.0126   -0.8323   -0.5539 C   0  0  0  0  0  0  0  0  0  0  0  0
    4.9041   -0.6042    0.4716 C   0  0  0  0  0  0  0  0  0  0  0  0
    5.3843   -1.9112    0.7127 C   0  0  0  0  0  0  0  0  0  0  0  0
    6.6725   -2.2432    0.6951 N   0  0  0  0  0  0  0  0  0  0  0  0
    7.3315   -3.3962    0.8896 N   0  0  0  0  0  0  0  0  0  0  0  0
    8.6377   -3.2049    0.7572 C   0  0  0  0  0  0  0  0  0  0  0  0
    8.7741   -1.8931    0.4736 N   0  0  0  0  0  0  0  0  0  0  0  0
    7.5776   -1.2900    0.4336 C   0  0  0  0  0  0  0  0  0  0  0  0
    7.2043    0.0165    0.1873 C   0  0  0  0  0  0  0  0  0  0  0  0
    8.2451    1.0003   -0.1198 C   0  0  0  0  0  0  0  0  0  0  0  0
    5.8569    0.3424    0.2139 C   0  0  0  0  0  0  0  0  0  0  0  0
    5.5287    1.7851    0.0790 C   0  0  0  0  0  0  0  0  0  0  0  0
    1.3427    2.1777   -1.2253 H   0  0  0  0  0  0  0  0  0  0  0  0
    0.9513    1.2401   -2.7143 H   0  0  0  0  0  0  0  0  0  0  0  0
    2.3015    2.4089   -2.7027 H   0  0  0  0  0  0  0  0  0  0  0  0
    3.7529    0.8152   -1.9347 H   0  0  0  0  0  0  0  0  0  0  0  0
    2.0824   -1.5071   -1.9838 H   0  0  0  0  0  0  0  0  0  0  0  0
    3.3377   -0.9869   -3.1245 H   0  0  0  0  0  0  0  0  0  0  0  0
    1.6696   -0.3791   -3.3499 H   0  0  0  0  0  0  0  0  0  0  0  0
    3.2562   -1.2758    2.5726 H   0  0  0  0  0  0  0  0  0  0  0  0
    0.6205   -1.4236    3.4102 H   0  0  0  0  0  0  0  0  0  0  0  0
   -1.6756   -0.9676    2.7425 H   0  0  0  0  0  0  0  0  0  0  0  0
   -0.2727    0.6138   -0.9029 H   0  0  0  0  0  0  0  0  0  0  0  0
   -3.1646   -0.3812    1.2237 H   0  0  0  0  0  0  0  0  0  0  0  0
   -2.3948   -0.0325   -1.6765 H   0  0  0  0  0  0  0  0  0  0  0  0
   -2.2955   -1.6450   -0.8159 H   0  0  0  0  0  0  0  0  0  0  0  0
   -4.5234   -1.2823   -1.8864 H   0  0  0  0  0  0  0  0  0  0  0  0
   -4.5365   -1.6085   -0.1265 H   0  0  0  0  0  0  0  0  0  0  0  0
   -3.9023    1.9214   -1.6045 H   0  0  0  0  0  0  0  0  0  0  0  0
   -4.8069    2.4069   -0.1767 H   0  0  0  0  0  0  0  0  0  0  0  0
   -2.2147    2.1803   -0.1497 H   0  0  0  0  0  0  0  0  0  0  0  0
   -3.1836    1.9252    1.3017 H   0  0  0  0  0  0  0  0  0  0  0  0
   -6.0233   -0.0068    1.1317 H   0  0  0  0  0  0  0  0  0  0  0  0
   -6.6137    2.2850    0.7070 H   0  0  0  0  0  0  0  0  0  0  0  0
   -7.2177    1.8273   -0.9908 H   0  0  0  0  0  0  0  0  0  0  0  0
   -8.3577    0.9755    1.7035 H   0  0  0  0  0  0  0  0  0  0  0  0
   -8.9752    2.1682    0.5525 H   0  0  0  0  0  0  0  0  0  0  0  0
   -8.8059   -1.8960   -0.1293 H   0  0  0  0  0  0  0  0  0  0  0  0
   -8.0264   -1.0083    1.3049 H   0  0  0  0  0  0  0  0  0  0  0  0
   -6.5039   -1.7944   -0.5965 H   0  0  0  0  0  0  0  0  0  0  0  0
   -7.2167   -0.5018   -1.6001 H   0  0  0  0  0  0  0  0  0  0  0  0
    4.6221   -2.6676    0.9209 H   0  0  0  0  0  0  0  0  0  0  0  0
    9.3913   -3.9743    0.8633 H   0  0  0  0  0  0  0  0  0  0  0  0
    9.2063    0.7868    0.4039 H   0  0  0  0  0  0  0  0  0  0  0  0
    8.4741    0.8812   -1.2277 H   0  0  0  0  0  0  0  0  0  0  0  0
    7.9583    2.0427   -0.0086 H   0  0  0  0  0  0  0  0  0  0  0  0
    5.6177    2.1324   -0.9602 H   0  0  0  0  0  0  0  0  0  0  0  0
    6.2173    2.4305    0.7190 H   0  0  0  0  0  0  0  0  0  0  0  0
    4.4722    2.0148    0.4076 H   0  0  0  0  0  0  0  0  0  0  0  0
  1  2  1  0
  2  3  1  0
  2  4  1  0
  4  5  2  0
  5  6  1  0
  6  7  1  0
  7  8  2  0
  8  9  1  0
  9 10  2  0
 10 11  1  0
 11 12  2  0
 10 13  1  0
 13 14  1  0
 14 15  1  0
 15 16  1  0
 16 17  1  0
 17 18  1  0
 16 19  1  0
 19 20  1  0
 20 21  1  0
 21 22  1  0
 22 23  1  0
 23 24  1  0
  5 25  1  0
 25 26  2  0
 26 27  1  0
 27 28  1  0
 28 29  2  0
 29 30  1  0
 30 31  2  0
 31 32  1  0
 32 33  1  0
 32 34  2  0
 34 35  1  0
 12  4  1  0
 18 13  1  0
 24 19  1  0
 34 25  1  0
 12  7  1  0
 31 27  1  0
  1 36  1  0
  1 37  1  0
  1 38  1  0
  2 39  1  0
  3 40  1  0
  3 41  1  0
  3 42  1  0
  6 43  1  0
  8 44  1  0
  9 45  1  0
 11 46  1  0
 13 47  1  0
 14 48  1  0
 14 49  1  0
 15 50  1  0
 15 51  1  0
 17 52  1  0
 17 53  1  0
 18 54  1  0
 18 55  1  0
 19 56  1  0
 20 57  1  0
 20 58  1  0
 21 59  1  0
 21 60  1  0
 23 61  1  0
 23 62  1  0
 24 63  1  0
 24 64  1  0
 26 65  1  0
 29 66  1  0
 33 67  1  0
 33 68  1  0
 33 69  1  0
 35 70  1  0
 35 71  1  0
 35 72  1  0
M  END
$$$$
[H]c1nc([H])c(-c2c([H])c([H])c3c(c(C([H])([H])[H])nn3[H])c2[H])c([H])c1OC([H])([H])[C@@]([H])(N([H])[H])C([H])([H])c1c([H])c([H])c([H])c([H])c1[H]
     RDKit          3D

 49 52  0  0  0  0  0  0  0  0999 V2000
    7.7900   -0.8290    0.9525 C   0  0  0  0  0  0  0  0  0  0  0  0
    7.0578    0.4008    0.6031 C   0  0  0  0  0  0  0  0  0  0  0  0
    7.5223    1.6552    0.6620 N   0  0  0  0  0  0  0  0  0  0  0  0
    6.5745    2.5037    0.2693 N   0  0  0  0  0  0  0  0  0  0  0  0
    5.4521    1.8296   -0.0614 C   0  0  0  0  0  0  0  0  0  0  0  0
    4.2039    2.1962   -0.5184 C   0  0  0  0  0  0  0  0  0  0  0  0
    3.2371    1.2385   -0.7731 C   0  0  0  0  0  0  0  0  0  0  0  0
    3.5084   -0.1020   -0.5729 C   0  0  0  0  0  0  0  0  0  0  0  0
    4.7651   -0.4369   -0.1155 C   0  0  0  0  0  0  0  0  0  0  0  0
    5.7617    0.4832    0.1523 C   0  0  0  0  0  0  0  0  0  0  0  0
    2.4836   -1.1075   -0.8438 C   0  0  0  0  0  0  0  0  0  0  0  0
    2.7843   -2.3796   -1.2731 C   0  0  0  0  0  0  0  0  0  0  0  0
    1.8429   -3.3029   -1.5220 N   0  0  0  0  0  0  0  0  0  0  0  0
    0.5591   -2.9804   -1.3480 C   0  0  0  0  0  0  0  0  0  0  0  0
    0.1444   -1.7218   -0.9169 C   0  0  0  0  0  0  0  0  0  0  0  0
   -1.1846   -1.5050   -0.7747 O   0  0  0  0  0  0  0  0  0  0  0  0
   -1.8265   -0.3392   -0.3616 C   0  0  0  0  0  0  0  0  0  0  0  0
   -3.3194   -0.4336   -0.3115 C   0  0  1  0  0  0  0  0  0  0  0  0
   -3.8152   -1.4394    0.5800 N   0  0  0  0  0  0  0  0  0  0  0  0
   -3.8667    0.9021    0.1518 C   0  0  0  0  0  0  0  0  0  0  0  0
   -5.3386    0.9020    0.2315 C   0  0  0  0  0  0  0  0  0  0  0  0
   -6.0849    1.2688   -0.8654 C   0  0  0  0  0  0  0  0  0  0  0  0
   -7.4639    1.2802   -0.8263 C   0  0  0  0  0  0  0  0  0  0  0  0
   -8.1050    0.9127    0.3477 C   0  0  0  0  0  0  0  0  0  0  0  0
   -7.3717    0.5426    1.4553 C   0  0  0  0  0  0  0  0  0  0  0  0
   -5.9761    0.5428    1.3793 C   0  0  0  0  0  0  0  0  0  0  0  0
    1.1448   -0.8078   -0.6742 C   0  0  0  0  0  0  0  0  0  0  0  0
    8.2942   -0.7417    1.9572 H   0  0  0  0  0  0  0  0  0  0  0  0
    7.1239   -1.7125    1.0331 H   0  0  0  0  0  0  0  0  0  0  0  0
    8.5574   -1.0982    0.1744 H   0  0  0  0  0  0  0  0  0  0  0  0
    6.7135    3.5430    0.2338 H   0  0  0  0  0  0  0  0  0  0  0  0
    4.0143    3.2422   -0.6670 H   0  0  0  0  0  0  0  0  0  0  0  0
    2.2527    1.5116   -1.1321 H   0  0  0  0  0  0  0  0  0  0  0  0
    4.9815   -1.4826    0.0423 H   0  0  0  0  0  0  0  0  0  0  0  0
    3.8133   -2.6552   -1.4181 H   0  0  0  0  0  0  0  0  0  0  0  0
   -0.1744   -3.7494   -1.5580 H   0  0  0  0  0  0  0  0  0  0  0  0
   -1.5657    0.4657   -1.0805 H   0  0  0  0  0  0  0  0  0  0  0  0
   -1.4157   -0.0216    0.6185 H   0  0  0  0  0  0  0  0  0  0  0  0
   -3.7498   -0.6163   -1.3163 H   0  0  0  0  0  0  0  0  0  0  0  0
   -3.5654   -1.2206    1.5870 H   0  0  0  0  0  0  0  0  0  0  0  0
   -3.4155   -2.3844    0.3933 H   0  0  0  0  0  0  0  0  0  0  0  0
   -3.4726    1.1857    1.1554 H   0  0  0  0  0  0  0  0  0  0  0  0
   -3.5831    1.7269   -0.5514 H   0  0  0  0  0  0  0  0  0  0  0  0
   -5.6182    1.5612   -1.7972 H   0  0  0  0  0  0  0  0  0  0  0  0
   -8.0448    1.5694   -1.6916 H   0  0  0  0  0  0  0  0  0  0  0  0
   -9.1816    0.9202    0.3824 H   0  0  0  0  0  0  0  0  0  0  0  0
   -7.8680    0.2618    2.3522 H   0  0  0  0  0  0  0  0  0  0  0  0
   -5.4389    0.2508    2.2560 H   0  0  0  0  0  0  0  0  0  0  0  0
    0.8633    0.1702   -0.3414 H   0  0  0  0  0  0  0  0  0  0  0  0
  1  2  1  0
  2  3  2  0
  3  4  1  0
  4  5  1  0
  5  6  2  0
  6  7  1  0
  7  8  2  0
  8  9  1  0
  9 10  2  0
  8 11  1  0
 11 12  2  0
 12 13  1  0
 13 14  2  0
 14 15  1  0
 15 16  1  0
 16 17  1  0
 17 18  1  0
 18 19  1  0
 18 20  1  0
 20 21  1  0
 21 22  2  0
 22 23  1  0
 23 24  2  0
 24 25  1  0
 25 26  2  0
 15 27  2  0
 10  2  1  0
 27 11  1  0
 10  5  1  0
 26 21  1  0
  1 28  1  0
  1 29  1  0
  1 30  1  0
  4 31  1  0
  6 32  1  0
  7 33  1  0
  9 34  1  0
 12 35  1  0
 14 36  1  0
 17 37  1  0
 17 38  1  0
 18 39  1  6
 19 40  1  0
 19 41  1  0
 20 42  1  0
 20 43  1  0
 22 44  1  0
 23 45  1  0
 24 46  1  0
 25 47  1  0
 26 48  1  0
 27 49  1  0
M  END
$$$$
[H]c1nnc2c(nc([H])n2C([H])([H])[H])c1-c1c([H])c([H])c(F)c(-c2c([H])c([H])c(C#N)c([H])c2[H])c1[H]
     RDKit          3D

 37 40  0  0  0  0  0  0  0  0999 V2000
   -6.4920    0.4229    0.1984 C   0  0  0  0  0  0  0  0  0  0  0  0
   -5.1195    0.0412   -0.0743 N   0  0  0  0  0  0  0  0  0  0  0  0
   -4.6717   -0.5371   -1.1979 C   0  0  0  0  0  0  0  0  0  0  0  0
   -3.3352   -0.7490   -1.0992 N   0  0  0  0  0  0  0  0  0  0  0  0
   -2.9182   -0.2986    0.1093 C   0  0  0  0  0  0  0  0  0  0  0  0
   -1.7037   -0.2431    0.7647 C   0  0  0  0  0  0  0  0  0  0  0  0
   -1.6455    0.3060    2.0420 C   0  0  0  0  0  0  0  0  0  0  0  0
   -2.7919    0.7612    2.5808 N   0  0  0  0  0  0  0  0  0  0  0  0
   -3.9567    0.7104    1.9578 N   0  0  0  0  0  0  0  0  0  0  0  0
   -4.0529    0.1872    0.7230 C   0  0  0  0  0  0  0  0  0  0  0  0
   -0.5293   -0.7541    0.1110 C   0  0  0  0  0  0  0  0  0  0  0  0
   -0.6060   -1.9715   -0.5349 C   0  0  0  0  0  0  0  0  0  0  0  0
    0.4909   -2.5067   -1.1774 C   0  0  0  0  0  0  0  0  0  0  0  0
    1.6977   -1.8079   -1.1752 C   0  0  0  0  0  0  0  0  0  0  0  0
    2.7621   -2.3517   -1.8107 F   0  0  0  0  0  0  0  0  0  0  0  0
    1.7949   -0.6045   -0.5436 C   0  0  0  0  0  0  0  0  0  0  0  0
    0.6804   -0.0819    0.0975 C   0  0  0  0  0  0  0  0  0  0  0  0
    3.0555    0.1283   -0.5413 C   0  0  0  0  0  0  0  0  0  0  0  0
    3.5530    0.7038    0.6220 C   0  0  0  0  0  0  0  0  0  0  0  0
    4.7440    1.3990    0.6291 C   0  0  0  0  0  0  0  0  0  0  0  0
    5.4957    1.5552   -0.5171 C   0  0  0  0  0  0  0  0  0  0  0  0
    5.0092    0.9878   -1.6739 C   0  0  0  0  0  0  0  0  0  0  0  0
    3.8175    0.2927   -1.6789 C   0  0  0  0  0  0  0  0  0  0  0  0
    6.7410    2.2796   -0.5201 C   0  0  0  0  0  0  0  0  0  0  0  0
    7.7359    2.8657   -0.5389 N   0  0  0  0  0  0  0  0  0  0  0  0
   -6.7414    0.3315    1.2717 H   0  0  0  0  0  0  0  0  0  0  0  0
   -7.1939   -0.2727   -0.3314 H   0  0  0  0  0  0  0  0  0  0  0  0
   -6.7118    1.4314   -0.2085 H   0  0  0  0  0  0  0  0  0  0  0  0
   -5.2190   -0.8255   -2.0938 H   0  0  0  0  0  0  0  0  0  0  0  0
   -0.6945    0.3373    2.5276 H   0  0  0  0  0  0  0  0  0  0  0  0
   -1.5385   -2.5518   -0.5587 H   0  0  0  0  0  0  0  0  0  0  0  0
    0.3973   -3.4657   -1.6757 H   0  0  0  0  0  0  0  0  0  0  0  0
    0.7674    0.8720    0.5951 H   0  0  0  0  0  0  0  0  0  0  0  0
    2.9443    0.5678    1.5114 H   0  0  0  0  0  0  0  0  0  0  0  0
    5.1168    1.8410    1.5447 H   0  0  0  0  0  0  0  0  0  0  0  0
    5.6178    1.1227   -2.5672 H   0  0  0  0  0  0  0  0  0  0  0  0
    3.5002   -0.1229   -2.6230 H   0  0  0  0  0  0  0  0  0  0  0  0
  1  2  1  0
  2  3  1  0
  3  4  2  0
  4  5  1  0
  5  6  2  0
  6  7  1  0
  7  8  2  0
  8  9  1  0
  9 10  2  0
  6 11  1  0
 11 12  2  0
 12 13  1  0
 13 14  2  0
 14 15  1  0
 14 16  1  0
 16 17  2  0
 16 18  1  0
 18 19  2  0
 19 20  1  0
 20 21  2  0
 21 22  1  0
 22 23  2  0
 21 24  1  0
 24 25  3  0
 10  2  1  0
 17 11  1  0
 23 18  1  0
 10  5  1  0
  1 26  1  0
  1 27  1  0
  1 28  1  0
  3 29  1  0
  7 30  1  0
 12 31  1  0
 13 32  1  0
 17 33  1  0
 19 34  1  0
 20 35  1  0
 22 36  1  0
 23 37  1  0
M  END
$$$$
[H]OC(=O)[C@@]1([H])N(C(=O)[C@@]([H])(C([H])([H])N(O[H])C([H])=O)C([H])([H])C2([H])C([H])([H])C([H])([H])C([H])([H])C2([H])[H])C([H])([H])C([H])([H])C1([H])[H]
     RDKit          3D

 46 47  0  0  0  0  0  0  0  0999 V2000
    0.8211    2.7838    1.9930 O   0  0  0  0  0  0  0  0  0  0  0  0
   -0.0174    2.4580    0.9896 N   0  0  0  0  0  0  0  0  0  0  0  0
   -0.8404    1.2655    1.1209 C   0  0  0  0  0  0  0  0  0  0  0  0
   -0.1863    0.0315    0.5919 C   0  0  1  0  0  0  0  0  0  0  0  0
   -0.9374   -1.2291    0.6944 C   0  0  0  0  0  0  0  0  0  0  0  0
   -2.2423   -1.4005    0.0435 C   0  0  0  0  0  0  0  0  0  0  0  0
   -3.3688   -0.5248    0.4425 C   0  0  0  0  0  0  0  0  0  0  0  0
   -4.6251   -1.3877    0.4350 C   0  0  0  0  0  0  0  0  0  0  0  0
   -4.2090   -2.7798    0.0545 C   0  0  0  0  0  0  0  0  0  0  0  0
   -2.7513   -2.7982    0.4621 C   0  0  0  0  0  0  0  0  0  0  0  0
    0.4834    0.2342   -0.7147 C   0  0  0  0  0  0  0  0  0  0  0  0
   -0.3178    0.2485   -1.7159 O   0  0  0  0  0  0  0  0  0  0  0  0
    1.8395    0.4043   -0.9565 N   0  0  0  0  0  0  0  0  0  0  0  0
    2.4597    0.6122   -2.2463 C   0  0  0  0  0  0  0  0  0  0  0  0
    3.8054   -0.0945   -2.1523 C   0  0  0  0  0  0  0  0  0  0  0  0
    3.8050   -0.7000   -0.7376 C   0  0  0  0  0  0  0  0  0  0  0  0
    2.9516    0.3852   -0.0381 C   0  0  1  0  0  0  0  0  0  0  0  0
    3.7027    1.6268    0.0862 C   0  0  0  0  0  0  0  0  0  0  0  0
    4.7394    1.6470    1.0200 O   0  0  0  0  0  0  0  0  0  0  0  0
    3.4998    2.6543   -0.5608 O   0  0  0  0  0  0  0  0  0  0  0  0
   -0.0971    3.2637   -0.1471 C   0  0  0  0  0  0  0  0  0  0  0  0
    0.6047    4.3076   -0.2364 O   0  0  0  0  0  0  0  0  0  0  0  0
    0.2713    2.8594    2.8101 H   0  0  0  0  0  0  0  0  0  0  0  0
   -1.7674    1.5258    0.5381 H   0  0  0  0  0  0  0  0  0  0  0  0
   -1.1049    1.1637    2.1992 H   0  0  0  0  0  0  0  0  0  0  0  0
    0.7101   -0.1178    1.3112 H   0  0  0  0  0  0  0  0  0  0  0  0
   -0.2242   -2.0480    0.3506 H   0  0  0  0  0  0  0  0  0  0  0  0
   -1.0300   -1.4658    1.7998 H   0  0  0  0  0  0  0  0  0  0  0  0
   -2.1932   -1.3680   -1.0783 H   0  0  0  0  0  0  0  0  0  0  0  0
   -3.2646   -0.0436    1.4359 H   0  0  0  0  0  0  0  0  0  0  0  0
   -3.5907    0.2909   -0.2867 H   0  0  0  0  0  0  0  0  0  0  0  0
   -5.3759   -1.0587   -0.3015 H   0  0  0  0  0  0  0  0  0  0  0  0
   -5.0438   -1.3732    1.4526 H   0  0  0  0  0  0  0  0  0  0  0  0
   -4.3260   -2.9745   -1.0289 H   0  0  0  0  0  0  0  0  0  0  0  0
   -4.7359   -3.5195    0.6811 H   0  0  0  0  0  0  0  0  0  0  0  0
   -2.6873   -2.8162    1.5641 H   0  0  0  0  0  0  0  0  0  0  0  0
   -2.1694   -3.5721   -0.0368 H   0  0  0  0  0  0  0  0  0  0  0  0
    2.5312    1.6499   -2.5689 H   0  0  0  0  0  0  0  0  0  0  0  0
    1.8050    0.0734   -2.9961 H   0  0  0  0  0  0  0  0  0  0  0  0
    3.7914   -0.9451   -2.8396 H   0  0  0  0  0  0  0  0  0  0  0  0
    4.6391    0.5949   -2.2998 H   0  0  0  0  0  0  0  0  0  0  0  0
    3.3173   -1.6719   -0.7182 H   0  0  0  0  0  0  0  0  0  0  0  0
    4.8371   -0.6776   -0.3838 H   0  0  0  0  0  0  0  0  0  0  0  0
    2.6895   -0.0584    0.9282 H   0  0  0  0  0  0  0  0  0  0  0  0
    4.5741    1.5487    2.0130 H   0  0  0  0  0  0  0  0  0  0  0  0
   -0.7721    2.9954   -0.9733 H   0  0  0  0  0  0  0  0  0  0  0  0
  1  2  1  0
  2  3  1  0
  3  4  1  0
  4  5  1  0
  5  6  1  0
  6  7  1  0
  7  8  1  0
  8  9  1  0
  9 10  1  0
  4 11  1  0
 11 12  2  0
 11 13  1  0
 13 14  1  0
 14 15  1  0
 15 16  1  0
 16 17  1  0
 17 18  1  0
 18 19  1  0
 18 20  2  0
  2 21  1  0
 21 22  2  0
 10  6  1  0
 17 13  1  0
  1 23  1  0
  3 24  1  0
  3 25  1  0
  4 26  1  1
  5 27  1  0
  5 28  1  0
  6 29  1  0
  7 30  1  0
  7 31  1  0
  8 32  1  0
  8 33  1  0
  9 34  1  0
  9 35  1  0
 10 36  1  0
 10 37  1  0
 14 38  1  0
 14 39  1  0
 15 40  1  0
 15 41  1  0
 16 42  1  0
 16 43  1  0
 17 44  1  1
 19 45  1  0
 21 46  1  0
M  END
$$$$
[H]Oc1c([H])c([H])c(C([H])([H])[C@]2([H])C(=O)N([H])[C@]([H])(C([H])([H])c3c([H])n([H])c4c([H])c([H])c([H])c([H])c34)C(=O)N([H])[C@@]([H])(C([H])([H])C([H])([H])C([H])([H])C([H])([H])N([H])[H])C(=O)N([H])[C@@]([H])(C([H])(C([H])([H])[H])C([H])([H])[H])C(=O)N([H])[C@@]([H])(C([H])([H])c3c([H])c([H])c([H])c([H])c3[H])C(=O)N2[H])c([H])c1[H]
     RDKit          3D

102106  0  0  0  0  0  0  0  0999 V2000
   -2.3962   -5.1805   -1.6640 C   0  0  0  0  0  0  0  0  0  0  0  0
   -2.4778   -4.3382   -0.4013 C   0  0  0  0  0  0  0  0  0  0  0  0
   -1.9342   -5.0639    0.7624 C   0  0  0  0  0  0  0  0  0  0  0  0
   -1.8546   -2.9522   -0.6550 C   0  0  2  0  0  0  0  0  0  0  0  0
   -0.4823   -3.0877   -1.0347 N   0  0  0  0  0  0  0  0  0  0  0  0
    0.6593   -2.3273   -0.8764 C   0  0  0  0  0  0  0  0  0  0  0  0
    1.1044   -1.7454   -1.9667 O   0  0  0  0  0  0  0  0  0  0  0  0
    1.5247   -2.0100    0.2763 C   0  0  2  0  0  0  0  0  0  0  0  0
    1.6130   -3.1671    1.3009 C   0  0  0  0  0  0  0  0  0  0  0  0
    2.1821   -4.3802    0.6099 C   0  0  0  0  0  0  0  0  0  0  0  0
    2.2565   -5.4990    1.6275 C   0  0  0  0  0  0  0  0  0  0  0  0
    2.8121   -6.7712    1.0449 C   0  0  0  0  0  0  0  0  0  0  0  0
    2.8281   -7.7568    2.1212 N   0  0  0  0  0  0  0  0  0  0  0  0
    1.2744   -0.7725    0.9429 N   0  0  0  0  0  0  0  0  0  0  0  0
    2.0371    0.3934    1.0512 C   0  0  0  0  0  0  0  0  0  0  0  0
    2.3825    0.7966    2.2414 O   0  0  0  0  0  0  0  0  0  0  0  0
    2.5192    1.2610   -0.0371 C   0  0  1  0  0  0  0  0  0  0  0  0
    3.7502    0.6922   -0.7529 C   0  0  0  0  0  0  0  0  0  0  0  0
    4.1498    1.6770   -1.8225 C   0  0  0  0  0  0  0  0  0  0  0  0
    3.9228    1.5953   -3.1771 C   0  0  0  0  0  0  0  0  0  0  0  0
    4.4312    2.6813   -3.7955 N   0  0  0  0  0  0  0  0  0  0  0  0
    4.9926    3.4860   -2.8846 C   0  0  0  0  0  0  0  0  0  0  0  0
    5.6373    4.7001   -3.0142 C   0  0  0  0  0  0  0  0  0  0  0  0
    6.1341    5.3353   -1.8989 C   0  0  0  0  0  0  0  0  0  0  0  0
    5.9735    4.7366   -0.6684 C   0  0  0  0  0  0  0  0  0  0  0  0
    5.3297    3.5222   -0.5312 C   0  0  0  0  0  0  0  0  0  0  0  0
    4.8236    2.8704   -1.6470 C   0  0  0  0  0  0  0  0  0  0  0  0
    1.5127    1.6255   -1.0022 N   0  0  0  0  0  0  0  0  0  0  0  0
    0.4676    2.5548   -0.8265 C   0  0  0  0  0  0  0  0  0  0  0  0
    0.1197    3.3393   -1.7789 O   0  0  0  0  0  0  0  0  0  0  0  0
   -0.3212    2.7299    0.4254 C   0  0  1  0  0  0  0  0  0  0  0  0
    0.0847    4.0761    1.0219 C   0  0  0  0  0  0  0  0  0  0  0  0
   -0.6185    4.3848    2.2800 C   0  0  0  0  0  0  0  0  0  0  0  0
   -0.0980    3.9363    3.4828 C   0  0  0  0  0  0  0  0  0  0  0  0
   -0.7607    4.2413    4.6443 C   0  0  0  0  0  0  0  0  0  0  0  0
   -1.9273    4.9748    4.6981 C   0  0  0  0  0  0  0  0  0  0  0  0
   -2.5501    5.2477    5.9312 O   0  0  0  0  0  0  0  0  0  0  0  0
   -2.4380    5.4164    3.5023 C   0  0  0  0  0  0  0  0  0  0  0  0
   -1.7831    5.1193    2.3126 C   0  0  0  0  0  0  0  0  0  0  0  0
   -1.7484    2.7341    0.1418 N   0  0  0  0  0  0  0  0  0  0  0  0
   -2.5839    1.6039    0.1479 C   0  0  0  0  0  0  0  0  0  0  0  0
   -3.6784    1.6736    0.7960 O   0  0  0  0  0  0  0  0  0  0  0  0
   -2.2788    0.3137   -0.5587 C   0  0  2  0  0  0  0  0  0  0  0  0
   -2.9234    0.3138   -1.9306 C   0  0  0  0  0  0  0  0  0  0  0  0
   -4.3729    0.4302   -1.9288 C   0  0  0  0  0  0  0  0  0  0  0  0
   -5.1854   -0.6811   -1.8702 C   0  0  0  0  0  0  0  0  0  0  0  0
   -6.5739   -0.5523   -1.8755 C   0  0  0  0  0  0  0  0  0  0  0  0
   -7.1538    0.6830   -1.9390 C   0  0  0  0  0  0  0  0  0  0  0  0
   -6.3593    1.7991   -1.9977 C   0  0  0  0  0  0  0  0  0  0  0  0
   -4.9908    1.6542   -1.9916 C   0  0  0  0  0  0  0  0  0  0  0  0
   -2.7587   -0.7520    0.2747 N   0  0  0  0  0  0  0  0  0  0  0  0
   -2.2284   -2.0586    0.3997 C   0  0  0  0  0  0  0  0  0  0  0  0
   -2.0814   -2.4532    1.6151 O   0  0  0  0  0  0  0  0  0  0  0  0
   -3.2532   -5.8808   -1.7306 H   0  0  0  0  0  0  0  0  0  0  0  0
   -2.3604   -4.5503   -2.5754 H   0  0  0  0  0  0  0  0  0  0  0  0
   -1.4815   -5.8216   -1.5723 H   0  0  0  0  0  0  0  0  0  0  0  0
   -3.5872   -4.1564   -0.2635 H   0  0  0  0  0  0  0  0  0  0  0  0
   -2.4690   -4.8640    1.7383 H   0  0  0  0  0  0  0  0  0  0  0  0
   -2.1814   -6.1608    0.5923 H   0  0  0  0  0  0  0  0  0  0  0  0
   -0.8543   -5.0417    0.8669 H   0  0  0  0  0  0  0  0  0  0  0  0
   -2.4805   -2.6475   -1.5773 H   0  0  0  0  0  0  0  0  0  0  0  0
   -0.3364   -4.0031   -1.6026 H   0  0  0  0  0  0  0  0  0  0  0  0
    2.6261   -2.0071   -0.0572 H   0  0  0  0  0  0  0  0  0  0  0  0
    0.6428   -3.3930    1.7289 H   0  0  0  0  0  0  0  0  0  0  0  0
    2.3653   -2.7877    2.0510 H   0  0  0  0  0  0  0  0  0  0  0  0
    1.4744   -4.6964   -0.1795 H   0  0  0  0  0  0  0  0  0  0  0  0
    3.1472   -4.1901    0.1314 H   0  0  0  0  0  0  0  0  0  0  0  0
    2.8614   -5.2213    2.5068 H   0  0  0  0  0  0  0  0  0  0  0  0
    1.2101   -5.7317    1.9523 H   0  0  0  0  0  0  0  0  0  0  0  0
    2.0790   -7.1657    0.2990 H   0  0  0  0  0  0  0  0  0  0  0  0
    3.8169   -6.6654    0.6317 H   0  0  0  0  0  0  0  0  0  0  0  0
    1.8298   -7.7963    2.4699 H   0  0  0  0  0  0  0  0  0  0  0  0
    3.3689   -7.3333    2.9187 H   0  0  0  0  0  0  0  0  0  0  0  0
    0.3399   -0.7392    1.4702 H   0  0  0  0  0  0  0  0  0  0  0  0
    2.9211    2.2429    0.3685 H   0  0  0  0  0  0  0  0  0  0  0  0
    3.4574   -0.2102   -1.3025 H   0  0  0  0  0  0  0  0  0  0  0  0
    4.5873    0.5647   -0.0630 H   0  0  0  0  0  0  0  0  0  0  0  0
    3.4141    0.7931   -3.7121 H   0  0  0  0  0  0  0  0  0  0  0  0
    4.4095    2.8946   -4.8171 H   0  0  0  0  0  0  0  0  0  0  0  0
    5.7710    5.1862   -3.9920 H   0  0  0  0  0  0  0  0  0  0  0  0
    6.6439    6.2926   -1.9843 H   0  0  0  0  0  0  0  0  0  0  0  0
    6.3693    5.2490    0.1928 H   0  0  0  0  0  0  0  0  0  0  0  0
    5.2182    3.0774    0.4371 H   0  0  0  0  0  0  0  0  0  0  0  0
    1.5633    1.1428   -1.9474 H   0  0  0  0  0  0  0  0  0  0  0  0
   -0.0483    1.9873    1.2077 H   0  0  0  0  0  0  0  0  0  0  0  0
   -0.2082    4.8365    0.2520 H   0  0  0  0  0  0  0  0  0  0  0  0
    1.1842    4.1266    1.0984 H   0  0  0  0  0  0  0  0  0  0  0  0
    0.8299    3.3454    3.5134 H   0  0  0  0  0  0  0  0  0  0  0  0
   -0.3637    3.8951    5.5985 H   0  0  0  0  0  0  0  0  0  0  0  0
   -3.4045    5.7903    5.9108 H   0  0  0  0  0  0  0  0  0  0  0  0
   -3.3564    5.9951    3.5354 H   0  0  0  0  0  0  0  0  0  0  0  0
   -2.2496    5.5111    1.4065 H   0  0  0  0  0  0  0  0  0  0  0  0
   -2.1719    3.6837   -0.0909 H   0  0  0  0  0  0  0  0  0  0  0  0
   -1.2013    0.2092   -0.7071 H   0  0  0  0  0  0  0  0  0  0  0  0
   -2.5396    1.2303   -2.4962 H   0  0  0  0  0  0  0  0  0  0  0  0
   -2.5215   -0.5250   -2.5199 H   0  0  0  0  0  0  0  0  0  0  0  0
   -4.7620   -1.6723   -1.8190 H   0  0  0  0  0  0  0  0  0  0  0  0
   -7.2167   -1.4239   -1.8291 H   0  0  0  0  0  0  0  0  0  0  0  0
   -8.2491    0.7526   -1.9410 H   0  0  0  0  0  0  0  0  0  0  0  0
   -6.8376    2.7783   -2.0483 H   0  0  0  0  0  0  0  0  0  0  0  0
   -4.3297    2.5272   -2.0377 H   0  0  0  0  0  0  0  0  0  0  0  0
   -3.6303   -0.4770    0.8621 H   0  0  0  0  0  0  0  0  0  0  0  0
  1  2  1  0
  2  3  1  0
  2  4  1  0
  4  5  1  0
  5  6  1  0
  6  7  2  0
  6  8  1  0
  8  9  1  0
  9 10  1  0
 10 11  1  0
 11 12  1  0
 12 13  1  0
  8 14  1  0
 14 15  1  0
 15 16  2  0
 15 17  1  0
 17 18  1  0
 18 19  1  0
 19 20  2  0
 20 21  1  0
 21 22  1  0
 22 23  2  0
 23 24  1  0
 24 25  2  0
 25 26  1  0
 26 27  2  0
 17 28  1  0
 28 29  1  0
 29 30  2  0
 29 31  1  0
 31 32  1  0
 32 33  1  0
 33 34  2  0
 34 35  1  0
 35 36  2  0
 36 37  1  0
 36 38  1  0
 38 39  2  0
 31 40  1  0
 40 41  1  0
 41 42  2  0
 41 43  1  0
 43 44  1  0
 44 45  1  0
 45 46  2  0
 46 47  1  0
 47 48  2  0
 48 49  1  0
 49 50  2  0
 43 51  1  0
 51 52  1  0
 52 53  2  0
 52  4  1  0
 27 19  1  0
 39 33  1  0
 50 45  1  0
 27 22  1  0
  1 54  1  0
  1 55  1  0
  1 56  1  0
  2 57  1  0
  3 58  1  0
  3 59  1  0
  3 60  1  0
  4 61  1  6
  5 62  1  0
  8 63  1  6
  9 64  1  0
  9 65  1  0
 10 66  1  0
 10 67  1  0
 11 68  1  0
 11 69  1  0
 12 70  1  0
 12 71  1  0
 13 72  1  0
 13 73  1  0
 14 74  1  0
 17 75  1  1
 18 76  1  0
 18 77  1  0
 20 78  1  0
 21 79  1  0
 23 80  1  0
 24 81  1  0
 25 82  1  0
 26 83  1  0
 28 84  1  0
 31 85  1  1
 32 86  1  0
 32 87  1  0
 34 88  1  0
 35 89  1  0
 37 90  1  0
 38 91  1  0
 39 92  1  0
 40 93  1  0
 43 94  1  6
 44 95  1  0
 44 96  1  0
 46 97  1  0
 47 98  1  0
 48 99  1  0
 49100  1  0
 50101  1  0
 51102  1  0
M  END
$$$$
[H]c1c([H])c(C2=NN(C3([H])C([H])([H])C([H])([H])N(C(=O)C([H])([H])N4C(=O)C([H])([H])C([H])([H])C4=O)C([H])([H])C3([H])[H])C(=O)C2(C([H])([H])[H])C([H])([H])[H])c([H])c(OC([H])([H])[H])c1OC([H])([H])[H]
     RDKit          3D

 64 67  0  0  0  0  0  0  0  0999 V2000
    9.2009   -0.5555    0.0854 C   0  0  0  0  0  0  0  0  0  0  0  0
    8.0187   -1.2520   -0.1745 O   0  0  0  0  0  0  0  0  0  0  0  0
    6.7431   -0.7287   -0.0327 C   0  0  0  0  0  0  0  0  0  0  0  0
    6.5154    0.5662    0.3906 C   0  0  0  0  0  0  0  0  0  0  0  0
    5.1962    1.0016    0.5023 C   0  0  0  0  0  0  0  0  0  0  0  0
    4.1112    0.2046    0.2115 C   0  0  0  0  0  0  0  0  0  0  0  0
    4.3800   -1.1045   -0.2155 C   0  0  0  0  0  0  0  0  0  0  0  0
    5.6748   -1.5472   -0.3302 C   0  0  0  0  0  0  0  0  0  0  0  0
    5.9181   -2.8439   -0.7537 O   0  0  0  0  0  0  0  0  0  0  0  0
    4.8548   -3.7401   -1.0768 C   0  0  0  0  0  0  0  0  0  0  0  0
    2.7397    0.6757    0.3337 C   0  0  0  0  0  0  0  0  0  0  0  0
    1.7045   -0.0389    0.0719 N   0  0  0  0  0  0  0  0  0  0  0  0
    0.5288    0.6450    0.2693 N   0  0  0  0  0  0  0  0  0  0  0  0
   -0.8455    0.1825    0.0823 C   0  0  0  0  0  0  0  0  0  0  0  0
   -1.5708    0.2721    1.3769 C   0  0  0  0  0  0  0  0  0  0  0  0
   -2.8536    1.0589    1.3048 C   0  0  0  0  0  0  0  0  0  0  0  0
   -3.5802    0.6204    0.1397 N   0  0  0  0  0  0  0  0  0  0  0  0
   -2.9289    0.8375   -1.1521 C   0  0  0  0  0  0  0  0  0  0  0  0
   -1.4447    1.0034   -1.0217 C   0  0  0  0  0  0  0  0  0  0  0  0
   -4.8537    0.0103    0.1999 C   0  0  0  0  0  0  0  0  0  0  0  0
   -5.3871   -0.1628    1.3193 O   0  0  0  0  0  0  0  0  0  0  0  0
   -5.5694   -0.4263   -1.0112 C   0  0  0  0  0  0  0  0  0  0  0  0
   -6.8489   -1.0190   -0.6805 N   0  0  0  0  0  0  0  0  0  0  0  0
   -7.1287   -2.3872   -0.4056 C   0  0  0  0  0  0  0  0  0  0  0  0
   -6.2725   -3.3146   -0.3875 O   0  0  0  0  0  0  0  0  0  0  0  0
   -8.5697   -2.5920   -0.1392 C   0  0  0  0  0  0  0  0  0  0  0  0
   -9.2149   -1.2654   -0.4166 C   0  0  0  0  0  0  0  0  0  0  0  0
   -8.1003   -0.3203   -0.5664 C   0  0  0  0  0  0  0  0  0  0  0  0
   -8.2219    0.9384   -0.5917 O   0  0  0  0  0  0  0  0  0  0  0  0
    0.8405    1.9553    0.7105 C   0  0  0  0  0  0  0  0  0  0  0  0
    0.0908    2.9165    1.0107 O   0  0  0  0  0  0  0  0  0  0  0  0
    2.3300    2.0222    0.7684 C   0  0  0  0  0  0  0  0  0  0  0  0
    2.8187    3.1173   -0.1602 C   0  0  0  0  0  0  0  0  0  0  0  0
    2.7567    2.2624    2.2028 C   0  0  0  0  0  0  0  0  0  0  0  0
    9.4800    0.1260   -0.7383 H   0  0  0  0  0  0  0  0  0  0  0  0
   10.0219   -1.3154    0.1911 H   0  0  0  0  0  0  0  0  0  0  0  0
    9.1889    0.0095    1.0325 H   0  0  0  0  0  0  0  0  0  0  0  0
    7.3247    1.2329    0.6316 H   0  0  0  0  0  0  0  0  0  0  0  0
    5.0234    2.0207    0.8357 H   0  0  0  0  0  0  0  0  0  0  0  0
    3.5343   -1.7381   -0.4464 H   0  0  0  0  0  0  0  0  0  0  0  0
    4.2409   -3.1900   -1.8467 H   0  0  0  0  0  0  0  0  0  0  0  0
    5.2309   -4.6345   -1.5823 H   0  0  0  0  0  0  0  0  0  0  0  0
    4.1876   -3.9266   -0.2250 H   0  0  0  0  0  0  0  0  0  0  0  0
   -0.7805   -0.8741   -0.2657 H   0  0  0  0  0  0  0  0  0  0  0  0
   -1.8431   -0.7588    1.7395 H   0  0  0  0  0  0  0  0  0  0  0  0
   -0.9641    0.7155    2.2038 H   0  0  0  0  0  0  0  0  0  0  0  0
   -2.7032    2.1447    1.2297 H   0  0  0  0  0  0  0  0  0  0  0  0
   -3.4104    0.8706    2.2448 H   0  0  0  0  0  0  0  0  0  0  0  0
   -3.3388    1.8044   -1.5361 H   0  0  0  0  0  0  0  0  0  0  0  0
   -3.2289    0.0605   -1.8785 H   0  0  0  0  0  0  0  0  0  0  0  0
   -0.9958    0.6187   -1.9837 H   0  0  0  0  0  0  0  0  0  0  0  0
   -1.1215    2.0579   -0.9565 H   0  0  0  0  0  0  0  0  0  0  0  0
   -4.9377   -1.1231   -1.6342 H   0  0  0  0  0  0  0  0  0  0  0  0
   -5.7723    0.4441   -1.6997 H   0  0  0  0  0  0  0  0  0  0  0  0
   -8.7647   -2.9390    0.9078 H   0  0  0  0  0  0  0  0  0  0  0  0
   -8.9565   -3.3824   -0.8436 H   0  0  0  0  0  0  0  0  0  0  0  0
   -9.8590   -0.9628    0.4573 H   0  0  0  0  0  0  0  0  0  0  0  0
   -9.8962   -1.2829   -1.2877 H   0  0  0  0  0  0  0  0  0  0  0  0
    1.9570    3.5931   -0.6626 H   0  0  0  0  0  0  0  0  0  0  0  0
    3.3253    3.8764    0.4756 H   0  0  0  0  0  0  0  0  0  0  0  0
    3.4651    2.6778   -0.9198 H   0  0  0  0  0  0  0  0  0  0  0  0
    1.8719    2.2345    2.8597 H   0  0  0  0  0  0  0  0  0  0  0  0
    3.4270    1.4149    2.5212 H   0  0  0  0  0  0  0  0  0  0  0  0
    3.2615    3.2337    2.2656 H   0  0  0  0  0  0  0  0  0  0  0  0
  1  2  1  0
  2  3  1  0
  3  4  2  0
  4  5  1  0
  5  6  2  0
  6  7  1  0
  7  8  2  0
  8  9  1  0
  9 10  1  0
  6 11  1  0
 11 12  2  0
 12 13  1  0
 13 14  1  0
 14 15  1  0
 15 16  1  0
 16 17  1  0
 17 18  1  0
 18 19  1  0
 17 20  1  0
 20 21  2  0
 20 22  1  0
 22 23  1  0
 23 24  1  0
 24 25  2  0
 24 26  1  0
 26 27  1  0
 27 28  1  0
 28 29  2  0
 13 30  1  0
 30 31  2  0
 30 32  1  0
 32 33  1  0
 32 34  1  0
  8  3  1  0
 32 11  1  0
 19 14  1  0
 28 23  1  0
  1 35  1  0
  1 36  1  0
  1 37  1  0
  4 38  1  0
  5 39  1  0
  7 40  1  0
 10 41  1  0
 10 42  1  0
 10 43  1  0
 14 44  1  0
 15 45  1  0
 15 46  1  0
 16 47  1  0
 16 48  1  0
 18 49  1  0
 18 50  1  0
 19 51  1  0
 19 52  1  0
 22 53  1  0
 22 54  1  0
 26 55  1  0
 26 56  1  0
 27 57  1  0
 27 58  1  0
 33 59  1  0
 33 60  1  0
 33 61  1  0
 34 62  1  0
 34 63  1  0
 34 64  1  0
M  END
$$$$
[H]O[C@]1([H])[C@@]([H])(C([H])([H])OS(=O)(=O)N([H])C(=O)C([H])(N([H])[H])C([H])(C([H])([H])[H])C([H])([H])C([H])([H])[H])O[C@@]([H])(n2c([H])nc3c(N([H])[H])nc([H])nc32)[C@]1([H])O[H]
     RDKit          3D

 56 58  0  0  0  0  0  0  0  0999 V2000
    7.8923    1.6812    0.6165 C   0  0  0  0  0  0  0  0  0  0  0  0
    7.2847    0.5615   -0.1867 C   0  0  0  0  0  0  0  0  0  0  0  0
    5.8122    0.3558    0.1067 C   0  0  0  0  0  0  0  0  0  0  0  0
    5.6293    0.0217    1.5719 C   0  0  0  0  0  0  0  0  0  0  0  0
    5.3532   -0.8289   -0.7214 C   0  0  0  0  0  0  0  0  0  0  0  0
    5.5567   -0.5600   -2.1434 N   0  0  0  0  0  0  0  0  0  0  0  0
    3.9702   -1.2432   -0.4435 C   0  0  0  0  0  0  0  0  0  0  0  0
    3.6294   -1.5383    0.7219 O   0  0  0  0  0  0  0  0  0  0  0  0
    3.0119   -1.3149   -1.4783 N   0  0  0  0  0  0  0  0  0  0  0  0
    1.3948   -1.8035   -1.1493 S   0  0  0  0  0  0  0  0  0  0  0  0
    0.9383   -2.6929   -2.2690 O   0  0  0  0  0  0  0  0  0  0  0  0
    1.3840   -2.6396    0.1124 O   0  0  0  0  0  0  0  0  0  0  0  0
    0.3655   -0.4725   -0.9791 O   0  0  0  0  0  0  0  0  0  0  0  0
   -0.9350   -0.8646   -0.7752 C   0  0  0  0  0  0  0  0  0  0  0  0
   -1.8401    0.3269   -0.6190 C   0  0  1  0  0  0  0  0  0  0  0  0
   -3.1737   -0.0637   -0.4113 O   0  0  0  0  0  0  0  0  0  0  0  0
   -3.7613    1.1973   -0.1572 C   0  0  2  0  0  0  0  0  0  0  0  0
   -2.8446    1.8861    0.8176 C   0  0  2  0  0  0  0  0  0  0  0  0
   -2.5492    3.1917    0.4141 O   0  0  0  0  0  0  0  0  0  0  0  0
   -1.5648    1.0807    0.6715 C   0  0  2  0  0  0  0  0  0  0  0  0
   -0.4375    1.8672    0.6075 O   0  0  0  0  0  0  0  0  0  0  0  0
   -5.0996    1.0562    0.3152 N   0  0  0  0  0  0  0  0  0  0  0  0
   -5.7988    1.9063    1.0768 C   0  0  0  0  0  0  0  0  0  0  0  0
   -7.0136    1.4027    1.2971 N   0  0  0  0  0  0  0  0  0  0  0  0
   -7.1312    0.2073    0.6807 C   0  0  0  0  0  0  0  0  0  0  0  0
   -8.1530   -0.7144    0.5876 C   0  0  0  0  0  0  0  0  0  0  0  0
   -9.4123   -0.5152    1.2184 N   0  0  0  0  0  0  0  0  0  0  0  0
   -7.9122   -1.8275   -0.1324 N   0  0  0  0  0  0  0  0  0  0  0  0
   -6.7123   -2.0204   -0.7336 C   0  0  0  0  0  0  0  0  0  0  0  0
   -5.7154   -1.1227   -0.6437 N   0  0  0  0  0  0  0  0  0  0  0  0
   -5.9002    0.0083    0.0623 C   0  0  0  0  0  0  0  0  0  0  0  0
    8.1888    1.3379    1.6448 H   0  0  0  0  0  0  0  0  0  0  0  0
    7.2393    2.5630    0.6321 H   0  0  0  0  0  0  0  0  0  0  0  0
    8.8438    1.9868    0.0934 H   0  0  0  0  0  0  0  0  0  0  0  0
    7.3666    0.8323   -1.2658 H   0  0  0  0  0  0  0  0  0  0  0  0
    7.8464   -0.3810    0.0079 H   0  0  0  0  0  0  0  0  0  0  0  0
    5.2491    1.2566   -0.1457 H   0  0  0  0  0  0  0  0  0  0  0  0
    5.8333   -1.0601    1.6871 H   0  0  0  0  0  0  0  0  0  0  0  0
    6.3833    0.5523    2.2003 H   0  0  0  0  0  0  0  0  0  0  0  0
    4.6421    0.3317    1.9385 H   0  0  0  0  0  0  0  0  0  0  0  0
    6.0166   -1.7037   -0.4899 H   0  0  0  0  0  0  0  0  0  0  0  0
    5.3748   -1.4175   -2.7033 H   0  0  0  0  0  0  0  0  0  0  0  0
    4.9310    0.1903   -2.5024 H   0  0  0  0  0  0  0  0  0  0  0  0
    3.3260   -1.0612   -2.4581 H   0  0  0  0  0  0  0  0  0  0  0  0
   -1.2835   -1.4120   -1.6871 H   0  0  0  0  0  0  0  0  0  0  0  0
   -1.0557   -1.5374    0.0960 H   0  0  0  0  0  0  0  0  0  0  0  0
   -1.8218    1.0061   -1.4680 H   0  0  0  0  0  0  0  0  0  0  0  0
   -3.6841    1.7503   -1.1273 H   0  0  0  0  0  0  0  0  0  0  0  0
   -3.2046    1.8485    1.8611 H   0  0  0  0  0  0  0  0  0  0  0  0
   -2.9319    3.3173   -0.5083 H   0  0  0  0  0  0  0  0  0  0  0  0
   -1.5439    0.3618    1.5256 H   0  0  0  0  0  0  0  0  0  0  0  0
   -0.1720    2.0680    1.5493 H   0  0  0  0  0  0  0  0  0  0  0  0
   -5.4231    2.8448    1.4454 H   0  0  0  0  0  0  0  0  0  0  0  0
   -9.8437    0.4056    1.4178 H   0  0  0  0  0  0  0  0  0  0  0  0
   -9.9759   -1.3559    1.5196 H   0  0  0  0  0  0  0  0  0  0  0  0
   -6.5691   -2.9257   -1.2981 H   0  0  0  0  0  0  0  0  0  0  0  0
  1  2  1  0
  2  3  1  0
  3  4  1  0
  3  5  1  0
  5  6  1  0
  5  7  1  0
  7  8  2  0
  7  9  1  0
  9 10  1  0
 10 11  2  0
 10 12  2  0
 10 13  1  0
 13 14  1  0
 14 15  1  0
 15 16  1  0
 16 17  1  0
 17 18  1  0
 18 19  1  0
 18 20  1  0
 20 21  1  0
 17 22  1  0
 22 23  1  0
 23 24  2  0
 24 25  1  0
 25 26  2  0
 26 27  1  0
 26 28  1  0
 28 29  2  0
 29 30  1  0
 30 31  2  0
 20 15  1  0
 31 22  1  0
 31 25  1  0
  1 32  1  0
  1 33  1  0
  1 34  1  0
  2 35  1  0
  2 36  1  0
  3 37  1  0
  4 38  1  0
  4 39  1  0
  4 40  1  0
  5 41  1  0
  6 42  1  0
  6 43  1  0
  9 44  1  0
 14 45  1  0
 14 46  1  0
 15 47  1  6
 17 48  1  6
 18 49  1  1
 19 50  1  0
 20 51  1  1
 21 52  1  0
 23 53  1  0
 27 54  1  0
 27 55  1  0
 29 56  1  0
M  END
$$$$
