[H]C1=C(C(=O)[O-])N2C(=O)/C(=C(\[H])c3sc4c(c3[H])C(=O)OC4([H])[H])[C@@]2([H])S1
     RDKit          3D

 27 30  0  0  0  0  0  0  0  0999 V2000
   -5.9387    2.0425    0.3881 O   0  0  0  0  0  0  0  0  0  0  0  0
   -5.1581    1.1420   -0.3177 C   0  0  0  0  0  0  0  0  0  0  0  0
   -5.6437    0.6323   -1.3435 O   0  0  0  0  0  0  0  0  0  0  0  0
   -3.8042    0.7869    0.1074 C   0  0  0  0  0  0  0  0  0  0  0  0
   -3.3252    1.3361    1.1941 C   0  0  0  0  0  0  0  0  0  0  0  0
   -1.6765    0.6981    1.4254 S   0  0  0  0  0  0  0  0  0  0  0  0
   -1.8540   -0.6177    0.2270 C   0  0  1  0  0  0  0  0  0  0  0  0
   -2.9598   -0.0919   -0.5690 N   0  0  0  0  0  0  0  0  0  0  0  0
   -2.4395   -0.8646   -1.6269 C   0  0  0  0  0  0  0  0  0  0  0  0
   -2.7980   -1.4916   -2.6522 O   0  0  0  0  0  0  0  0  0  0  0  0
   -1.1058   -0.6398   -0.9965 C   0  0  0  0  0  0  0  0  0  0  0  0
    0.0906   -0.5436   -1.4936 C   0  0  0  0  0  0  0  0  0  0  0  0
    1.2358   -0.3225   -0.6086 C   0  0  0  0  0  0  0  0  0  0  0  0
    2.4503   -0.9840   -0.6209 C   0  0  0  0  0  0  0  0  0  0  0  0
    3.3816   -0.5901    0.2617 C   0  0  0  0  0  0  0  0  0  0  0  0
    4.7745   -0.9578    0.6384 C   0  0  0  0  0  0  0  0  0  0  0  0
    5.4976   -1.8674    0.1237 O   0  0  0  0  0  0  0  0  0  0  0  0
    5.1912   -0.1450    1.6619 O   0  0  0  0  0  0  0  0  0  0  0  0
    4.2020    0.7540    2.0339 C   0  0  0  0  0  0  0  0  0  0  0  0
    3.0627    0.4328    1.1043 C   0  0  0  0  0  0  0  0  0  0  0  0
    1.4687    0.8194    0.6446 S   0  0  0  0  0  0  0  0  0  0  0  0
   -3.7485    2.0486    1.8916 H   0  0  0  0  0  0  0  0  0  0  0  0
   -2.1447   -1.6135    0.6562 H   0  0  0  0  0  0  0  0  0  0  0  0
    0.2279   -0.6262   -2.5814 H   0  0  0  0  0  0  0  0  0  0  0  0
    2.5716   -1.8123   -1.3634 H   0  0  0  0  0  0  0  0  0  0  0  0
    3.8667    0.6881    3.0916 H   0  0  0  0  0  0  0  0  0  0  0  0
    4.5753    1.7873    1.8796 H   0  0  0  0  0  0  0  0  0  0  0  0
  1  2  1  0
  2  3  2  0
  2  4  1  0
  4  5  2  0
  5  6  1  0
  6  7  1  0
  7  8  1  0
  8  9  1  0
  9 10  2  0
  9 11  1  0
 11 12  2  0
 12 13  1  0
 13 14  2  0
 14 15  1  0
 15 16  1  0
 16 17  2  0
 16 18  1  0
 18 19  1  0
 19 20  1  0
 20 21  1  0
  8  4  1  0
 21 13  1  0
 11  7  1  0
 20 15  2  0
  5 22  1  0
  7 23  1  1
 12 24  1  0
 14 25  1  0
 19 26  1  0
 19 27  1  0
M  CHG  1   1  -1
M  END
$$$$
[H]c1nc(N2C([H])([H])[C@@]3([H])N(C([H])([H])[H])C([H])([H])[C@@]2([H])C3([H])[H])c([H])c([H])c1-c1c([H])c([H])c2c(c1[H])c([H])c(C(=O)N([H])[H])n2[H]
     RDKit          2D

 47 51  0  0  0  0  0  0  0  0999 V2000
   -9.4692   10.7184    0.0000 C   0  0  0  0  0  0  0  0  0  0  0  0
   -8.3544    9.7147    0.0000 N   0  0  0  0  0  0  0  0  0  0  0  0
   -6.8872   10.0265    0.0000 C   0  0  0  0  0  0  0  0  0  0  0  0
   -6.1372    8.7275    0.0000 C   0  0  0  0  0  0  0  0  0  0  0  0
   -7.1409    7.6128    0.0000 C   0  0  0  0  0  0  0  0  0  0  0  0
   -8.5112    8.2229    0.0000 C   0  0  0  0  0  0  0  0  0  0  0  0
   -7.7612    6.9238    0.0000 C   0  0  0  0  0  0  0  0  0  0  0  0
   -6.2940    7.2357    0.0000 N   0  0  0  0  0  0  0  0  0  0  0  0
   -5.1793    6.2320    0.0000 C   0  0  0  0  0  0  0  0  0  0  0  0
   -5.4912    4.7648    0.0000 C   0  0  0  0  0  0  0  0  0  0  0  0
   -4.3764    3.7611    0.0000 C   0  0  0  0  0  0  0  0  0  0  0  0
   -2.9499    4.2246    0.0000 C   0  0  0  0  0  0  0  0  0  0  0  0
   -2.6380    5.6918    0.0000 C   0  0  0  0  0  0  0  0  0  0  0  0
   -3.7527    6.6955    0.0000 N   0  0  0  0  0  0  0  0  0  0  0  0
   -1.8351    3.2209    0.0000 C   0  0  0  0  0  0  0  0  0  0  0  0
   -0.4086    3.6844    0.0000 C   0  0  0  0  0  0  0  0  0  0  0  0
    0.7062    2.6807    0.0000 C   0  0  0  0  0  0  0  0  0  0  0  0
    0.3943    1.2135    0.0000 C   0  0  0  0  0  0  0  0  0  0  0  0
    1.2760    0.0000    0.0000 N   0  0  0  0  0  0  0  0  0  0  0  0
    0.3943   -1.2135    0.0000 C   0  0  0  0  0  0  0  0  0  0  0  0
   -1.0323   -0.7500    0.0000 C   0  0  0  0  0  0  0  0  0  0  0  0
   -1.0323    0.7500    0.0000 C   0  0  0  0  0  0  0  0  0  0  0  0
   -2.1470    1.7537    0.0000 C   0  0  0  0  0  0  0  0  0  0  0  0
    0.8578   -2.6401    0.0000 C   0  0  0  0  0  0  0  0  0  0  0  0
   -0.1459   -3.7548    0.0000 N   0  0  0  0  0  0  0  0  0  0  0  0
    2.3250   -2.9520    0.0000 O   0  0  0  0  0  0  0  0  0  0  0  0
  -10.5839   11.7220    0.0000 H   0  0  0  0  0  0  0  0  0  0  0  0
   -8.4655   11.8331    0.0000 H   0  0  0  0  0  0  0  0  0  0  0  0
  -10.4728    9.6036    0.0000 H   0  0  0  0  0  0  0  0  0  0  0  0
   -5.5169   10.6366    0.0000 H   0  0  0  0  0  0  0  0  0  0  0  0
   -7.3507   11.4531    0.0000 H   0  0  0  0  0  0  0  0  0  0  0  0
   -4.6454    8.5707    0.0000 H   0  0  0  0  0  0  0  0  0  0  0  0
   -7.3606    6.8465    0.0000 H   0  0  0  0  0  0  0  0  0  0  0  0
   -6.1768    6.4636    0.0000 H   0  0  0  0  0  0  0  0  0  0  0  0
   -9.8103    7.4729    0.0000 H   0  0  0  0  0  0  0  0  0  0  0  0
   -9.1315    6.3137    0.0000 H   0  0  0  0  0  0  0  0  0  0  0  0
   -7.2977    5.4972    0.0000 H   0  0  0  0  0  0  0  0  0  0  0  0
   -6.9177    4.3013    0.0000 H   0  0  0  0  0  0  0  0  0  0  0  0
   -4.6883    2.2939    0.0000 H   0  0  0  0  0  0  0  0  0  0  0  0
   -1.2114    6.1554    0.0000 H   0  0  0  0  0  0  0  0  0  0  0  0
   -0.0967    5.1517    0.0000 H   0  0  0  0  0  0  0  0  0  0  0  0
    2.1328    3.1443    0.0000 H   0  0  0  0  0  0  0  0  0  0  0  0
    2.7760    0.0000    0.0000 H   0  0  0  0  0  0  0  0  0  0  0  0
   -2.2458   -1.6317    0.0000 H   0  0  0  0  0  0  0  0  0  0  0  0
   -3.5736    1.2902    0.0000 H   0  0  0  0  0  0  0  0  0  0  0  0
    0.3177   -5.1814    0.0000 H   0  0  0  0  0  0  0  0  0  0  0  0
   -1.6131   -3.4430    0.0000 H   0  0  0  0  0  0  0  0  0  0  0  0
  1  2  1  0
  2  3  1  0
  3  4  1  0
  4  5  1  0
  5  6  1  0
  6  7  1  0
  7  8  1  0
  8  9  1  0
  9 10  2  0
 10 11  1  0
 11 12  2  0
 12 13  1  0
 13 14  2  0
 12 15  1  0
 15 16  2  0
 16 17  1  0
 17 18  2  0
 18 19  1  0
 19 20  1  0
 20 21  2  0
 21 22  1  0
 22 23  2  0
 20 24  1  0
 24 25  1  0
 24 26  2  0
  6  2  1  0
 14  9  1  0
 23 15  1  0
  8  4  1  0
 22 18  1  0
  1 27  1  0
  1 28  1  0
  1 29  1  0
  3 30  1  0
  3 31  1  0
  4 32  1  1
  5 33  1  0
  5 34  1  0
  6 35  1  6
  7 36  1  0
  7 37  1  0
 10 38  1  0
 11 39  1  0
 13 40  1  0
 16 41  1  0
 17 42  1  0
 19 43  1  0
 21 44  1  0
 23 45  1  0
 25 46  1  0
 25 47  1  0
M  END
$$$$
[H]OC(=O)c1nc([H])c(N([H])C(=O)c2c([H])c(Cl)c(Cl)c([H])c2Oc2c([H])c([H])c(F)c([H])c2OC([H])([H])[H])c([H])c1[H]
     RDKit          3D

 43 45  0  0  0  0  0  0  0  0999 V2000
   -4.6264    0.1277    1.4229 C   0  0  0  0  0  0  0  0  0  0  0  0
   -3.4466    0.0135    0.6878 O   0  0  0  0  0  0  0  0  0  0  0  0
   -3.2610    0.7166   -0.5182 C   0  0  0  0  0  0  0  0  0  0  0  0
   -4.2898    1.5395   -0.9709 C   0  0  0  0  0  0  0  0  0  0  0  0
   -4.1274    2.2375   -2.1445 C   0  0  0  0  0  0  0  0  0  0  0  0
   -5.1382    3.0346   -2.5721 F   0  0  0  0  0  0  0  0  0  0  0  0
   -2.9646    2.1462   -2.8942 C   0  0  0  0  0  0  0  0  0  0  0  0
   -1.9717    1.3215   -2.4122 C   0  0  0  0  0  0  0  0  0  0  0  0
   -2.0986    0.6069   -1.2414 C   0  0  0  0  0  0  0  0  0  0  0  0
   -1.0650   -0.1790   -0.8447 O   0  0  0  0  0  0  0  0  0  0  0  0
   -1.0243   -1.5435   -0.6995 C   0  0  0  0  0  0  0  0  0  0  0  0
   -2.1596   -2.2957   -1.0534 C   0  0  0  0  0  0  0  0  0  0  0  0
   -2.1686   -3.6561   -0.9233 C   0  0  0  0  0  0  0  0  0  0  0  0
   -3.5923   -4.5632   -1.3696 Cl  0  0  0  0  0  0  0  0  0  0  0  0
   -1.0338   -4.2570   -0.4376 C   0  0  0  0  0  0  0  0  0  0  0  0
   -1.0231   -6.0124   -0.2612 Cl  0  0  0  0  0  0  0  0  0  0  0  0
    0.0830   -3.5488   -0.0871 C   0  0  0  0  0  0  0  0  0  0  0  0
    0.1099   -2.1349   -0.2154 C   0  0  0  0  0  0  0  0  0  0  0  0
    1.3411   -1.4824    0.1802 C   0  0  0  0  0  0  0  0  0  0  0  0
    2.2949   -2.2435    0.6170 O   0  0  0  0  0  0  0  0  0  0  0  0
    1.5812   -0.1149    0.1301 N   0  0  0  0  0  0  0  0  0  0  0  0
    2.8002    0.5428    0.5341 C   0  0  0  0  0  0  0  0  0  0  0  0
    3.7131    0.0469    1.4041 C   0  0  0  0  0  0  0  0  0  0  0  0
    4.8941    0.7572    1.7129 C   0  0  0  0  0  0  0  0  0  0  0  0
    5.1290    1.9735    1.1259 C   0  0  0  0  0  0  0  0  0  0  0  0
    4.2198    2.4575    0.2666 N   0  0  0  0  0  0  0  0  0  0  0  0
    3.0927    1.7926   -0.0365 C   0  0  0  0  0  0  0  0  0  0  0  0
    6.3616    2.7261    1.4407 C   0  0  0  0  0  0  0  0  0  0  0  0
    7.2957    2.2177    2.3298 O   0  0  0  0  0  0  0  0  0  0  0  0
    6.5960    3.8392    0.9157 O   0  0  0  0  0  0  0  0  0  0  0  0
   -4.5984   -0.6742    2.2160 H   0  0  0  0  0  0  0  0  0  0  0  0
   -5.5337   -0.0479    0.7900 H   0  0  0  0  0  0  0  0  0  0  0  0
   -4.7043    1.0790    1.9674 H   0  0  0  0  0  0  0  0  0  0  0  0
   -5.1894    1.5960   -0.3696 H   0  0  0  0  0  0  0  0  0  0  0  0
   -2.8242    2.6952   -3.8263 H   0  0  0  0  0  0  0  0  0  0  0  0
   -1.0542    1.2543   -3.0110 H   0  0  0  0  0  0  0  0  0  0  0  0
   -3.0333   -1.7727   -1.4497 H   0  0  0  0  0  0  0  0  0  0  0  0
    0.9730   -4.0676    0.2982 H   0  0  0  0  0  0  0  0  0  0  0  0
    0.8151    0.5281   -0.2337 H   0  0  0  0  0  0  0  0  0  0  0  0
    3.5588   -0.8953    1.9018 H   0  0  0  0  0  0  0  0  0  0  0  0
    5.5966    0.3218    2.4140 H   0  0  0  0  0  0  0  0  0  0  0  0
    2.3627    2.1983   -0.7373 H   0  0  0  0  0  0  0  0  0  0  0  0
    8.1098    1.7191    1.9818 H   0  0  0  0  0  0  0  0  0  0  0  0
  1  2  1  0
  2  3  1  0
  3  4  2  0
  4  5  1  0
  5  6  1  0
  5  7  2  0
  7  8  1  0
  8  9  2  0
  9 10  1  0
 10 11  1  0
 11 12  2  0
 12 13  1  0
 13 14  1  0
 13 15  2  0
 15 16  1  0
 15 17  1  0
 17 18  2  0
 18 19  1  0
 19 20  2  0
 19 21  1  0
 21 22  1  0
 22 23  2  0
 23 24  1  0
 24 25  2  0
 25 26  1  0
 26 27  2  0
 25 28  1  0
 28 29  1  0
 28 30  2  0
  9  3  1  0
 18 11  1  0
 27 22  1  0
  1 31  1  0
  1 32  1  0
  1 33  1  0
  4 34  1  0
  7 35  1  0
  8 36  1  0
 12 37  1  0
 17 38  1  0
 21 39  1  0
 23 40  1  0
 24 41  1  0
 27 42  1  0
 29 43  1  0
M  END
$$$$
[H]C([H])([H])C1(C([H])([H])[H])C(=O)C([H])([H])C([H])([H])[C@]2(C([H])([H])[H])[C@@]3([H])C([H])([H])C([H])([H])[C@]4(C([H])([H])[H])[C@@]([H])(C([H])([H])[H])C([H])([H])C([H])([H])C([H])([H])[C@@]4([H])[C@]3([H])C([H])([H])[C@@]([H])(C([H])([H])[H])[C@]2(C([H])([H])[H])[C@]1([H])C([H])([H])[H]
     RDKit          3D

 74 77  0  0  0  0  0  0  0  0999 V2000
   -1.3277    1.7729   -2.1844 C   0  0  0  0  0  0  0  0  0  0  0  0
   -1.3629    1.1982   -0.7564 C   0  0  2  0  0  0  0  0  0  0  0  0
    0.0102    1.4698   -0.2053 C   0  0  0  0  0  0  0  0  0  0  0  0
    0.9540    0.3564   -0.3496 C   0  0  1  0  0  0  0  0  0  0  0  0
    2.2544    0.7153    0.3662 C   0  0  2  0  0  0  0  0  0  0  0  0
    2.6983    2.1103    0.0773 C   0  0  0  0  0  0  0  0  0  0  0  0
    4.0071    2.3504    0.7930 C   0  0  0  0  0  0  0  0  0  0  0  0
    5.0429    1.3186    0.5159 C   0  0  0  0  0  0  0  0  0  0  0  0
    4.5234   -0.0909    0.7640 C   0  0  2  0  0  0  0  0  0  0  0  0
    5.6290   -1.0419    0.4643 C   0  0  0  0  0  0  0  0  0  0  0  0
    3.2659   -0.3380   -0.0253 C   0  0  2  0  0  0  0  0  0  0  0  0
    3.6194   -0.2737   -1.4902 C   0  0  0  0  0  0  0  0  0  0  0  0
    2.7526   -1.6828    0.3258 C   0  0  0  0  0  0  0  0  0  0  0  0
    1.3486   -1.9728   -0.2270 C   0  0  0  0  0  0  0  0  0  0  0  0
    0.4160   -0.8727    0.3017 C   0  0  2  0  0  0  0  0  0  0  0  0
   -1.0252   -1.1502    0.1774 C   0  0  1  0  0  0  0  0  0  0  0  0
   -1.1022   -2.5879   -0.3965 C   0  0  0  0  0  0  0  0  0  0  0  0
   -1.6172   -1.3766    1.5621 C   0  0  0  0  0  0  0  0  0  0  0  0
   -1.9303   -0.1794    2.3484 C   0  0  0  0  0  0  0  0  0  0  0  0
   -3.0242    0.6519    1.8601 C   0  0  0  0  0  0  0  0  0  0  0  0
   -3.2461    1.6755    2.4614 O   0  0  0  0  0  0  0  0  0  0  0  0
   -3.9216    0.4110    0.7035 C   0  0  0  0  0  0  0  0  0  0  0  0
   -4.6069    1.6988    0.3112 C   0  0  0  0  0  0  0  0  0  0  0  0
   -5.0714   -0.4307    1.3099 C   0  0  0  0  0  0  0  0  0  0  0  0
   -3.3083   -0.3631   -0.3942 C   0  0  1  0  0  0  0  0  0  0  0  0
   -4.1966   -0.3246   -1.6080 C   0  0  0  0  0  0  0  0  0  0  0  0
   -1.8409   -0.1980   -0.6715 C   0  0  1  0  0  0  0  0  0  0  0  0
   -1.6938   -0.7282   -2.1171 C   0  0  0  0  0  0  0  0  0  0  0  0
   -0.7876    2.7639   -2.0721 H   0  0  0  0  0  0  0  0  0  0  0  0
   -2.3108    2.0344   -2.5605 H   0  0  0  0  0  0  0  0  0  0  0  0
   -0.6924    1.1811   -2.8493 H   0  0  0  0  0  0  0  0  0  0  0  0
   -2.0138    1.9580   -0.2313 H   0  0  0  0  0  0  0  0  0  0  0  0
    0.4685    2.3693   -0.7194 H   0  0  0  0  0  0  0  0  0  0  0  0
    0.0003    1.7970    0.8700 H   0  0  0  0  0  0  0  0  0  0  0  0
    1.2806    0.1839   -1.4181 H   0  0  0  0  0  0  0  0  0  0  0  0
    2.0600    0.6026    1.4457 H   0  0  0  0  0  0  0  0  0  0  0  0
    2.7581    2.3193   -1.0014 H   0  0  0  0  0  0  0  0  0  0  0  0
    1.9620    2.7905    0.5999 H   0  0  0  0  0  0  0  0  0  0  0  0
    3.7662    2.3120    1.8935 H   0  0  0  0  0  0  0  0  0  0  0  0
    4.4186    3.3387    0.5236 H   0  0  0  0  0  0  0  0  0  0  0  0
    5.4591    1.4070   -0.5082 H   0  0  0  0  0  0  0  0  0  0  0  0
    5.8744    1.4660    1.2356 H   0  0  0  0  0  0  0  0  0  0  0  0
    4.2689   -0.1645    1.8470 H   0  0  0  0  0  0  0  0  0  0  0  0
    6.2379   -0.6433   -0.3936 H   0  0  0  0  0  0  0  0  0  0  0  0
    6.3435   -1.0018    1.3383 H   0  0  0  0  0  0  0  0  0  0  0  0
    5.3421   -2.0838    0.3424 H   0  0  0  0  0  0  0  0  0  0  0  0
    3.8350    0.7741   -1.7897 H   0  0  0  0  0  0  0  0  0  0  0  0
    4.6044   -0.8137   -1.6036 H   0  0  0  0  0  0  0  0  0  0  0  0
    2.9169   -0.7949   -2.1437 H   0  0  0  0  0  0  0  0  0  0  0  0
    3.4024   -2.4707   -0.1556 H   0  0  0  0  0  0  0  0  0  0  0  0
    2.7967   -1.9061    1.4167 H   0  0  0  0  0  0  0  0  0  0  0  0
    1.4248   -1.9238   -1.3285 H   0  0  0  0  0  0  0  0  0  0  0  0
    1.1199   -2.9670    0.1273 H   0  0  0  0  0  0  0  0  0  0  0  0
    0.7065   -0.8073    1.3960 H   0  0  0  0  0  0  0  0  0  0  0  0
   -0.8306   -3.3275    0.4198 H   0  0  0  0  0  0  0  0  0  0  0  0
   -2.1291   -2.9029   -0.6290 H   0  0  0  0  0  0  0  0  0  0  0  0
   -0.4859   -2.6951   -1.2879 H   0  0  0  0  0  0  0  0  0  0  0  0
   -2.4415   -2.1111    1.5720 H   0  0  0  0  0  0  0  0  0  0  0  0
   -0.7869   -1.9205    2.1166 H   0  0  0  0  0  0  0  0  0  0  0  0
   -2.2424   -0.5521    3.3714 H   0  0  0  0  0  0  0  0  0  0  0  0
   -0.9974    0.4124    2.5805 H   0  0  0  0  0  0  0  0  0  0  0  0
   -4.6613    1.8511   -0.7853 H   0  0  0  0  0  0  0  0  0  0  0  0
   -5.6590    1.7786    0.6635 H   0  0  0  0  0  0  0  0  0  0  0  0
   -4.1088    2.5946    0.7445 H   0  0  0  0  0  0  0  0  0  0  0  0
   -6.0128   -0.2459    0.7442 H   0  0  0  0  0  0  0  0  0  0  0  0
   -5.2571   -0.1128    2.3637 H   0  0  0  0  0  0  0  0  0  0  0  0
   -4.8585   -1.4967    1.2443 H   0  0  0  0  0  0  0  0  0  0  0  0
   -3.4071   -1.4515   -0.0779 H   0  0  0  0  0  0  0  0  0  0  0  0
   -5.2496   -0.3587   -1.1960 H   0  0  0  0  0  0  0  0  0  0  0  0
   -4.1435    0.5397   -2.2392 H   0  0  0  0  0  0  0  0  0  0  0  0
   -4.1234   -1.2325   -2.2413 H   0  0  0  0  0  0  0  0  0  0  0  0
   -0.6501   -0.8093   -2.4186 H   0  0  0  0  0  0  0  0  0  0  0  0
   -2.2968   -0.0765   -2.8075 H   0  0  0  0  0  0  0  0  0  0  0  0
   -2.1471   -1.7218   -2.2525 H   0  0  0  0  0  0  0  0  0  0  0  0
  1  2  1  0
  2  3  1  0
  3  4  1  0
  4  5  1  0
  5  6  1  0
  6  7  1  0
  7  8  1  0
  8  9  1  0
  9 10  1  0
  9 11  1  0
 11 12  1  6
 11 13  1  0
 13 14  1  0
 14 15  1  0
 15 16  1  0
 16 17  1  6
 16 18  1  0
 18 19  1  0
 19 20  1  0
 20 21  2  0
 20 22  1  0
 22 23  1  0
 22 24  1  0
 22 25  1  0
 25 26  1  0
 25 27  1  0
 27 28  1  6
 27  2  1  0
 15  4  1  0
 27 16  1  0
 11  5  1  0
  1 29  1  0
  1 30  1  0
  1 31  1  0
  2 32  1  1
  3 33  1  0
  3 34  1  0
  4 35  1  6
  5 36  1  1
  6 37  1  0
  6 38  1  0
  7 39  1  0
  7 40  1  0
  8 41  1  0
  8 42  1  0
  9 43  1  1
 10 44  1  0
 10 45  1  0
 10 46  1  0
 12 47  1  0
 12 48  1  0
 12 49  1  0
 13 50  1  0
 13 51  1  0
 14 52  1  0
 14 53  1  0
 15 54  1  1
 17 55  1  0
 17 56  1  0
 17 57  1  0
 18 58  1  0
 18 59  1  0
 19 60  1  0
 19 61  1  0
 23 62  1  0
 23 63  1  0
 23 64  1  0
 24 65  1  0
 24 66  1  0
 24 67  1  0
 25 68  1  1
 26 69  1  0
 26 70  1  0
 26 71  1  0
 28 72  1  0
 28 73  1  0
 28 74  1  0
M  END
$$$$
[H]OC(=O)[C@@]([H])(N([H])C(=O)[C@@]([H])(N([H])C(=O)[C@@]([H])(N([H])C(=O)[C@@]([H])(N([H])C(=O)[C@@]([H])(N([H])C(=O)[C@@]([H])(N([H])C(=O)c1c(O[H])c2c([H])c([H])c([H])c([H])c2n1[H])C([H])([H])c1c([H])c([H])c([H])c([H])c1[H])C([H])([H])C([H])(C([H])([H])[H])C([H])([H])[H])C([H])(C([H])([H])[H])C([H])([H])[H])C([H])(C([H])([H])[H])C([H])([H])[H])C([H])(C([H])([H])[H])C([H])([H])[H])C([H])([H])c1c([H])c([H])c([H])c([H])c1[H]
     RDKit          3D

127130  0  0  0  0  0  0  0  0999 V2000
   -3.8652   -3.4409   -2.7483 C   0  0  0  0  0  0  0  0  0  0  0  0
   -4.0395   -3.4049   -1.1941 C   0  0  0  0  0  0  0  0  0  0  0  0
   -5.4908   -3.6394   -0.9876 C   0  0  0  0  0  0  0  0  0  0  0  0
   -3.4521   -2.1353   -0.7677 C   0  0  0  0  0  0  0  0  0  0  0  0
   -3.3893   -1.6971    0.6280 C   0  0  2  0  0  0  0  0  0  0  0  0
   -4.5961   -1.4884    1.3383 N   0  0  0  0  0  0  0  0  0  0  0  0
   -5.6763   -0.7016    0.8892 C   0  0  0  0  0  0  0  0  0  0  0  0
   -5.5710   -0.1711   -0.2721 O   0  0  0  0  0  0  0  0  0  0  0  0
   -6.8999   -0.4163    1.6102 C   0  0  2  0  0  0  0  0  0  0  0  0
   -7.5215   -1.3168    2.5707 C   0  0  0  0  0  0  0  0  0  0  0  0
   -7.9745   -2.6428    2.2282 C   0  0  0  0  0  0  0  0  0  0  0  0
   -7.2452   -3.7568    2.5501 C   0  0  0  0  0  0  0  0  0  0  0  0
   -7.6385   -5.0375    2.2490 C   0  0  0  0  0  0  0  0  0  0  0  0
   -8.8305   -5.2576    1.5838 C   0  0  0  0  0  0  0  0  0  0  0  0
   -9.5756   -4.1622    1.2516 C   0  0  0  0  0  0  0  0  0  0  0  0
   -9.1786   -2.8807    1.5554 C   0  0  0  0  0  0  0  0  0  0  0  0
   -7.8798    0.3032    0.7773 N   0  0  0  0  0  0  0  0  0  0  0  0
   -8.1336    1.6707    0.9569 C   0  0  0  0  0  0  0  0  0  0  0  0
   -7.5399    2.3356    1.8376 O   0  0  0  0  0  0  0  0  0  0  0  0
   -9.1048    2.3578    0.1083 C   0  0  0  0  0  0  0  0  0  0  0  0
   -9.8324    1.8035   -0.8842 N   0  0  0  0  0  0  0  0  0  0  0  0
  -10.6185    2.7220   -1.4563 C   0  0  0  0  0  0  0  0  0  0  0  0
  -11.5429    2.6629   -2.5081 C   0  0  0  0  0  0  0  0  0  0  0  0
  -12.2229    3.7938   -2.8972 C   0  0  0  0  0  0  0  0  0  0  0  0
  -11.9986    4.9915   -2.2563 C   0  0  0  0  0  0  0  0  0  0  0  0
  -11.0793    5.0361   -1.2133 C   0  0  0  0  0  0  0  0  0  0  0  0
  -10.4049    3.9121   -0.8277 C   0  0  0  0  0  0  0  0  0  0  0  0
   -9.4485    3.6887    0.1631 C   0  0  0  0  0  0  0  0  0  0  0  0
   -9.0026    4.6889    0.9889 O   0  0  0  0  0  0  0  0  0  0  0  0
   -2.5615   -0.4164    0.6273 C   0  0  0  0  0  0  0  0  0  0  0  0
   -3.1095    0.6535    0.9348 O   0  0  0  0  0  0  0  0  0  0  0  0
   -1.2132   -0.5939    0.2651 N   0  0  0  0  0  0  0  0  0  0  0  0
   -0.2386    0.5138    0.1669 C   0  0  1  0  0  0  0  0  0  0  0  0
    0.0936    0.9240    1.6311 C   0  0  0  0  0  0  0  0  0  0  0  0
    0.6859   -0.2204    2.3819 C   0  0  0  0  0  0  0  0  0  0  0  0
    1.0311    2.0933    1.5601 C   0  0  0  0  0  0  0  0  0  0  0  0
    0.9579    0.0198   -0.4934 C   0  0  0  0  0  0  0  0  0  0  0  0
    1.0700   -1.2493   -0.6181 O   0  0  0  0  0  0  0  0  0  0  0  0
    2.0283    0.7970   -1.0176 N   0  0  0  0  0  0  0  0  0  0  0  0
    3.1863    0.0925   -1.6089 C   0  0  1  0  0  0  0  0  0  0  0  0
    3.0958    0.2535   -3.1017 C   0  0  0  0  0  0  0  0  0  0  0  0
    3.1472    1.6849   -3.5069 C   0  0  0  0  0  0  0  0  0  0  0  0
    4.0760   -0.6220   -3.8278 C   0  0  0  0  0  0  0  0  0  0  0  0
    4.4439    0.6615   -1.0578 C   0  0  0  0  0  0  0  0  0  0  0  0
    4.4667    1.9297   -0.9689 O   0  0  0  0  0  0  0  0  0  0  0  0
    5.5347   -0.1409   -0.6546 N   0  0  0  0  0  0  0  0  0  0  0  0
    6.7464    0.3933   -0.1203 C   0  0  1  0  0  0  0  0  0  0  0  0
    6.7125    0.4579    1.4044 C   0  0  0  0  0  0  0  0  0  0  0  0
    6.5174   -0.8558    2.0675 C   0  0  0  0  0  0  0  0  0  0  0  0
    5.8298    1.5712    1.8887 C   0  0  0  0  0  0  0  0  0  0  0  0
    7.9536   -0.3158   -0.5823 C   0  0  0  0  0  0  0  0  0  0  0  0
    7.8532   -1.2782   -1.3930 O   0  0  0  0  0  0  0  0  0  0  0  0
    9.2658    0.0194   -0.1601 N   0  0  0  0  0  0  0  0  0  0  0  0
   10.4417   -0.6899   -0.6135 C   0  0  1  0  0  0  0  0  0  0  0  0
   11.4796    0.2041   -1.1995 C   0  0  0  0  0  0  0  0  0  0  0  0
   11.9797    1.2255   -0.2706 C   0  0  0  0  0  0  0  0  0  0  0  0
   13.0465    0.9827    0.5543 C   0  0  0  0  0  0  0  0  0  0  0  0
   13.4817    1.9805    1.4156 C   0  0  0  0  0  0  0  0  0  0  0  0
   12.8593    3.2085    1.4534 C   0  0  0  0  0  0  0  0  0  0  0  0
   11.7903    3.4231    0.6126 C   0  0  0  0  0  0  0  0  0  0  0  0
   11.3594    2.4387   -0.2386 C   0  0  0  0  0  0  0  0  0  0  0  0
   10.9605   -1.5944    0.4545 C   0  0  0  0  0  0  0  0  0  0  0  0
   12.0683   -2.4066    0.2710 O   0  0  0  0  0  0  0  0  0  0  0  0
   10.4050   -1.6621    1.5909 O   0  0  0  0  0  0  0  0  0  0  0  0
   -4.4078   -2.5438   -3.0951 H   0  0  0  0  0  0  0  0  0  0  0  0
   -4.3232   -4.3744   -3.0763 H   0  0  0  0  0  0  0  0  0  0  0  0
   -2.8014   -3.3190   -2.9564 H   0  0  0  0  0  0  0  0  0  0  0  0
   -3.4820   -4.3130   -0.8699 H   0  0  0  0  0  0  0  0  0  0  0  0
   -5.7325   -4.5977   -1.5446 H   0  0  0  0  0  0  0  0  0  0  0  0
   -5.7867   -3.8094    0.0314 H   0  0  0  0  0  0  0  0  0  0  0  0
   -6.0526   -2.8619   -1.5488 H   0  0  0  0  0  0  0  0  0  0  0  0
   -3.8494   -1.3300   -1.4643 H   0  0  0  0  0  0  0  0  0  0  0  0
   -2.3563   -2.1735   -1.1263 H   0  0  0  0  0  0  0  0  0  0  0  0
   -2.7581   -2.3839    1.2681 H   0  0  0  0  0  0  0  0  0  0  0  0
   -4.7300   -1.9494    2.3186 H   0  0  0  0  0  0  0  0  0  0  0  0
   -6.5471    0.4877    2.3083 H   0  0  0  0  0  0  0  0  0  0  0  0
   -6.8672   -1.3462    3.5181 H   0  0  0  0  0  0  0  0  0  0  0  0
   -8.4371   -0.7532    2.9896 H   0  0  0  0  0  0  0  0  0  0  0  0
   -6.3084   -3.6231    3.0710 H   0  0  0  0  0  0  0  0  0  0  0  0
   -7.0036   -5.8814    2.5385 H   0  0  0  0  0  0  0  0  0  0  0  0
   -9.1076   -6.2846    1.3633 H   0  0  0  0  0  0  0  0  0  0  0  0
  -10.5099   -4.3428    0.7271 H   0  0  0  0  0  0  0  0  0  0  0  0
   -9.8220   -2.0612    1.2573 H   0  0  0  0  0  0  0  0  0  0  0  0
   -8.3955   -0.2179    0.0396 H   0  0  0  0  0  0  0  0  0  0  0  0
   -9.7886    0.7993   -1.1673 H   0  0  0  0  0  0  0  0  0  0  0  0
  -11.7052    1.7268   -2.9923 H   0  0  0  0  0  0  0  0  0  0  0  0
  -12.9529    3.7478   -3.7192 H   0  0  0  0  0  0  0  0  0  0  0  0
  -12.5241    5.8746   -2.5510 H   0  0  0  0  0  0  0  0  0  0  0  0
  -10.9212    5.9748   -0.7290 H   0  0  0  0  0  0  0  0  0  0  0  0
   -8.3312    4.6290    1.7157 H   0  0  0  0  0  0  0  0  0  0  0  0
   -0.8420   -1.5369    0.0522 H   0  0  0  0  0  0  0  0  0  0  0  0
   -0.7618    1.3819   -0.2202 H   0  0  0  0  0  0  0  0  0  0  0  0
   -0.8413    1.2552    2.1071 H   0  0  0  0  0  0  0  0  0  0  0  0
    0.3859   -0.1082    3.4523 H   0  0  0  0  0  0  0  0  0  0  0  0
    1.7968   -0.1769    2.3328 H   0  0  0  0  0  0  0  0  0  0  0  0
    0.2909   -1.1842    2.0000 H   0  0  0  0  0  0  0  0  0  0  0  0
    0.7310    2.8409    0.8271 H   0  0  0  0  0  0  0  0  0  0  0  0
    1.0679    2.5976    2.5793 H   0  0  0  0  0  0  0  0  0  0  0  0
    2.0651    1.7631    1.3492 H   0  0  0  0  0  0  0  0  0  0  0  0
    1.9542    1.8273   -0.9722 H   0  0  0  0  0  0  0  0  0  0  0  0
    3.1200   -0.9785   -1.3927 H   0  0  0  0  0  0  0  0  0  0  0  0
    2.0718   -0.1226   -3.4144 H   0  0  0  0  0  0  0  0  0  0  0  0
    4.1849    2.0174   -3.7607 H   0  0  0  0  0  0  0  0  0  0  0  0
    2.7616    2.3476   -2.7151 H   0  0  0  0  0  0  0  0  0  0  0  0
    2.4621    1.8655   -4.3879 H   0  0  0  0  0  0  0  0  0  0  0  0
    3.5923   -1.2884   -4.5992 H   0  0  0  0  0  0  0  0  0  0  0  0
    4.7761    0.0099   -4.3997 H   0  0  0  0  0  0  0  0  0  0  0  0
    4.6370   -1.3050   -3.1640 H   0  0  0  0  0  0  0  0  0  0  0  0
    5.4221   -1.1802   -0.7629 H   0  0  0  0  0  0  0  0  0  0  0  0
    6.8172    1.4630   -0.4317 H   0  0  0  0  0  0  0  0  0  0  0  0
    7.7638    0.7884    1.6776 H   0  0  0  0  0  0  0  0  0  0  0  0
    7.4944   -1.3702    2.3039 H   0  0  0  0  0  0  0  0  0  0  0  0
    5.9374   -1.5831    1.4881 H   0  0  0  0  0  0  0  0  0  0  0  0
    6.0872   -0.6587    3.0864 H   0  0  0  0  0  0  0  0  0  0  0  0
    6.1484    2.4849    1.3052 H   0  0  0  0  0  0  0  0  0  0  0  0
    6.0894    1.8594    2.9495 H   0  0  0  0  0  0  0  0  0  0  0  0
    4.7596    1.3842    1.8577 H   0  0  0  0  0  0  0  0  0  0  0  0
    9.3888    0.8045    0.4975 H   0  0  0  0  0  0  0  0  0  0  0  0
   10.0950   -1.3933   -1.4216 H   0  0  0  0  0  0  0  0  0  0  0  0
   12.3766   -0.3595   -1.5666 H   0  0  0  0  0  0  0  0  0  0  0  0
   11.0291    0.6566   -2.1204 H   0  0  0  0  0  0  0  0  0  0  0  0
   13.5803    0.0337    0.5667 H   0  0  0  0  0  0  0  0  0  0  0  0
   14.3180    1.8317    2.0853 H   0  0  0  0  0  0  0  0  0  0  0  0
   13.2050    4.0027    2.1367 H   0  0  0  0  0  0  0  0  0  0  0  0
   11.2987    4.4097    0.6510 H   0  0  0  0  0  0  0  0  0  0  0  0
   10.5158    2.6636   -0.8769 H   0  0  0  0  0  0  0  0  0  0  0  0
   12.0303   -3.4168    0.2988 H   0  0  0  0  0  0  0  0  0  0  0  0
  1  2  1  0
  2  3  1  0
  2  4  1  0
  4  5  1  0
  5  6  1  0
  6  7  1  0
  7  8  2  0
  7  9  1  0
  9 10  1  0
 10 11  1  0
 11 12  2  0
 12 13  1  0
 13 14  2  0
 14 15  1  0
 15 16  2  0
  9 17  1  0
 17 18  1  0
 18 19  2  0
 18 20  1  0
 20 21  1  0
 21 22  1  0
 22 23  2  0
 23 24  1  0
 24 25  2  0
 25 26  1  0
 26 27  2  0
 27 28  1  0
 28 29  1  0
  5 30  1  0
 30 31  2  0
 30 32  1  0
 32 33  1  0
 33 34  1  0
 34 35  1  0
 34 36  1  0
 33 37  1  0
 37 38  2  0
 37 39  1  0
 39 40  1  0
 40 41  1  0
 41 42  1  0
 41 43  1  0
 40 44  1  0
 44 45  2  0
 44 46  1  0
 46 47  1  0
 47 48  1  0
 48 49  1  0
 48 50  1  0
 47 51  1  0
 51 52  2  0
 51 53  1  0
 53 54  1  0
 54 55  1  0
 55 56  1  0
 56 57  2  0
 57 58  1  0
 58 59  2  0
 59 60  1  0
 60 61  2  0
 54 62  1  0
 62 63  1  0
 62 64  2  0
 16 11  1  0
 28 20  2  0
 61 56  1  0
 27 22  1  0
  1 65  1  0
  1 66  1  0
  1 67  1  0
  2 68  1  0
  3 69  1  0
  3 70  1  0
  3 71  1  0
  4 72  1  0
  4 73  1  0
  5 74  1  1
  6 75  1  0
  9 76  1  1
 10 77  1  0
 10 78  1  0
 12 79  1  0
 13 80  1  0
 14 81  1  0
 15 82  1  0
 16 83  1  0
 17 84  1  0
 21 85  1  0
 23 86  1  0
 24 87  1  0
 25 88  1  0
 26 89  1  0
 29 90  1  0
 32 91  1  0
 33 92  1  6
 34 93  1  0
 35 94  1  0
 35 95  1  0
 35 96  1  0
 36 97  1  0
 36 98  1  0
 36 99  1  0
 39100  1  0
 40101  1  6
 41102  1  0
 42103  1  0
 42104  1  0
 42105  1  0
 43106  1  0
 43107  1  0
 43108  1  0
 46109  1  0
 47110  1  6
 48111  1  0
 49112  1  0
 49113  1  0
 49114  1  0
 50115  1  0
 50116  1  0
 50117  1  0
 53118  1  0
 54119  1  6
 55120  1  0
 55121  1  0
 57122  1  0
 58123  1  0
 59124  1  0
 60125  1  0
 61126  1  0
 63127  1  0
M  END
$$$$
[H]c1c([H])c(N([H])C(=O)c2c(C([H])([H])[H])c(C(=O)C(=O)N([H])C3(C(=O)N([H])C([H])([H])[H])C([H])([H])C(F)(F)C3([H])[H])c3n2C([H])([H])C([H])([H])C3([H])[H])c([H])c(F)c1F
     RDKit          3D

 57 60  0  0  0  0  0  0  0  0999 V2000
   -8.2776   -0.4539    0.6538 C   0  0  0  0  0  0  0  0  0  0  0  0
   -7.0533    0.3359    0.5156 N   0  0  0  0  0  0  0  0  0  0  0  0
   -5.8763   -0.2038    0.0245 C   0  0  0  0  0  0  0  0  0  0  0  0
   -5.9080   -1.4439   -0.3006 O   0  0  0  0  0  0  0  0  0  0  0  0
   -4.5583    0.4489   -0.1841 C   0  0  0  0  0  0  0  0  0  0  0  0
   -4.4838    1.0465   -1.5845 C   0  0  0  0  0  0  0  0  0  0  0  0
   -4.7378    2.4137   -1.0005 C   0  0  0  0  0  0  0  0  0  0  0  0
   -6.0145    2.8850   -1.2421 F   0  0  0  0  0  0  0  0  0  0  0  0
   -3.7829    3.3458   -1.4035 F   0  0  0  0  0  0  0  0  0  0  0  0
   -4.5213    1.8239    0.3712 C   0  0  0  0  0  0  0  0  0  0  0  0
   -3.5128   -0.4694    0.1205 N   0  0  0  0  0  0  0  0  0  0  0  0
   -2.0977   -0.2267    0.0463 C   0  0  0  0  0  0  0  0  0  0  0  0
   -1.7880    0.9068   -0.3251 O   0  0  0  0  0  0  0  0  0  0  0  0
   -1.1759   -1.2516    0.3878 C   0  0  0  0  0  0  0  0  0  0  0  0
   -1.7735   -2.4051    0.6059 O   0  0  0  0  0  0  0  0  0  0  0  0
    0.2446   -1.2856    0.5336 C   0  0  0  0  0  0  0  0  0  0  0  0
    1.2304   -0.3227    0.5094 C   0  0  0  0  0  0  0  0  0  0  0  0
    1.0051    1.1572    0.5729 C   0  0  0  0  0  0  0  0  0  0  0  0
    2.4933   -0.8775    0.5612 C   0  0  0  0  0  0  0  0  0  0  0  0
    3.7849   -0.2170    0.4635 C   0  0  0  0  0  0  0  0  0  0  0  0
    4.7934   -0.7958    1.0206 O   0  0  0  0  0  0  0  0  0  0  0  0
    4.0191    0.9927   -0.1934 N   0  0  0  0  0  0  0  0  0  0  0  0
    5.3141    1.6167   -0.2761 C   0  0  0  0  0  0  0  0  0  0  0  0
    6.4752    0.9179   -0.3070 C   0  0  0  0  0  0  0  0  0  0  0  0
    7.6932    1.6035   -0.3539 C   0  0  0  0  0  0  0  0  0  0  0  0
    7.7614    2.9631   -0.3711 C   0  0  0  0  0  0  0  0  0  0  0  0
    8.9166    3.6512   -0.4167 F   0  0  0  0  0  0  0  0  0  0  0  0
    6.5569    3.6516   -0.3398 C   0  0  0  0  0  0  0  0  0  0  0  0
    6.5645    5.0172   -0.3559 F   0  0  0  0  0  0  0  0  0  0  0  0
    5.3560    3.0186   -0.2935 C   0  0  0  0  0  0  0  0  0  0  0  0
    2.2778   -2.2025    0.6277 N   0  0  0  0  0  0  0  0  0  0  0  0
    3.1208   -3.4037    0.7103 C   0  0  0  0  0  0  0  0  0  0  0  0
    2.1458   -4.4929    1.0080 C   0  0  0  0  0  0  0  0  0  0  0  0
    0.7841   -3.9732    0.6895 C   0  0  0  0  0  0  0  0  0  0  0  0
    1.0041   -2.4972    0.6157 C   0  0  0  0  0  0  0  0  0  0  0  0
   -9.0722   -0.0847   -0.0557 H   0  0  0  0  0  0  0  0  0  0  0  0
   -8.7036   -0.3369    1.6714 H   0  0  0  0  0  0  0  0  0  0  0  0
   -8.0442   -1.5148    0.4979 H   0  0  0  0  0  0  0  0  0  0  0  0
   -7.1226    1.3173    0.8198 H   0  0  0  0  0  0  0  0  0  0  0  0
   -3.5110    0.9069   -2.0480 H   0  0  0  0  0  0  0  0  0  0  0  0
   -5.3607    0.7066   -2.2009 H   0  0  0  0  0  0  0  0  0  0  0  0
   -5.3293    2.1141    1.0832 H   0  0  0  0  0  0  0  0  0  0  0  0
   -3.5463    2.1418    0.8062 H   0  0  0  0  0  0  0  0  0  0  0  0
   -3.7802   -1.4394    0.4370 H   0  0  0  0  0  0  0  0  0  0  0  0
    0.2032    1.3898    1.3231 H   0  0  0  0  0  0  0  0  0  0  0  0
    0.9117    1.6692   -0.3551 H   0  0  0  0  0  0  0  0  0  0  0  0
    1.9116    1.6361    1.0973 H   0  0  0  0  0  0  0  0  0  0  0  0
    3.2679    1.5234   -0.7054 H   0  0  0  0  0  0  0  0  0  0  0  0
    6.5017   -0.1823   -0.3201 H   0  0  0  0  0  0  0  0  0  0  0  0
    8.6066    1.0240   -0.3774 H   0  0  0  0  0  0  0  0  0  0  0  0
    4.4125    3.5490   -0.2690 H   0  0  0  0  0  0  0  0  0  0  0  0
    3.6520   -3.5309   -0.2443 H   0  0  0  0  0  0  0  0  0  0  0  0
    3.8904   -3.2755    1.5010 H   0  0  0  0  0  0  0  0  0  0  0  0
    2.2209   -4.8625    2.0696 H   0  0  0  0  0  0  0  0  0  0  0  0
    2.4415   -5.3797    0.3835 H   0  0  0  0  0  0  0  0  0  0  0  0
    0.0197   -4.2480    1.4392 H   0  0  0  0  0  0  0  0  0  0  0  0
    0.4507   -4.3970   -0.2732 H   0  0  0  0  0  0  0  0  0  0  0  0
  1  2  1  0
  2  3  1  0
  3  4  2  0
  3  5  1  0
  5  6  1  0
  6  7  1  0
  7  8  1  0
  7  9  1  0
  7 10  1  0
  5 11  1  0
 11 12  1  0
 12 13  2  0
 12 14  1  0
 14 15  2  0
 14 16  1  0
 16 17  1  0
 17 18  1  0
 17 19  2  0
 19 20  1  0
 20 21  2  0
 20 22  1  0
 22 23  1  0
 23 24  2  0
 24 25  1  0
 25 26  2  0
 26 27  1  0
 26 28  1  0
 28 29  1  0
 28 30  2  0
 19 31  1  0
 31 32  1  0
 32 33  1  0
 33 34  1  0
 34 35  1  0
 10  5  1  0
 35 16  2  0
 30 23  1  0
 35 31  1  0
  1 36  1  0
  1 37  1  0
  1 38  1  0
  2 39  1  0
  6 40  1  0
  6 41  1  0
 10 42  1  0
 10 43  1  0
 11 44  1  0
 18 45  1  0
 18 46  1  0
 18 47  1  0
 22 48  1  0
 24 49  1  0
 25 50  1  0
 30 51  1  0
 32 52  1  0
 32 53  1  0
 33 54  1  0
 33 55  1  0
 34 56  1  0
 34 57  1  0
M  END
$$$$
[H]c1c([H])c(C(=O)N2C([H])([H])C([H])([H])N(C3([H])C([H])([H])C([H])([H])C([H])([H])C([H])([H])C3([H])[H])C([H])([H])C2([H])[H])c([H])c([H])c1Cl
     RDKit          3D

 44 46  0  0  0  0  0  0  0  0999 V2000
    7.9705    2.3902    0.0522 Cl  0  0  0  0  0  0  0  0  0  0  0  0
    6.4494    1.5171   -0.0292 C   0  0  0  0  0  0  0  0  0  0  0  0
    6.4447    0.2218   -0.4835 C   0  0  0  0  0  0  0  0  0  0  0  0
    5.2805   -0.4885   -0.5611 C   0  0  0  0  0  0  0  0  0  0  0  0
    4.0416    0.0625   -0.1846 C   0  0  0  0  0  0  0  0  0  0  0  0
    4.1049    1.3567    0.2613 C   0  0  0  0  0  0  0  0  0  0  0  0
    5.2824    2.1043    0.3500 C   0  0  0  0  0  0  0  0  0  0  0  0
    2.8460   -0.7345   -0.2892 C   0  0  0  0  0  0  0  0  0  0  0  0
    3.1041   -1.9510   -0.7383 O   0  0  0  0  0  0  0  0  0  0  0  0
    1.5035   -0.5129   -0.0276 N   0  0  0  0  0  0  0  0  0  0  0  0
    0.9415    0.6904    0.4564 C   0  0  0  0  0  0  0  0  0  0  0  0
   -0.5661    0.7152    0.6040 C   0  0  0  0  0  0  0  0  0  0  0  0
   -1.2123   -0.5002    0.4849 N   0  0  0  0  0  0  0  0  0  0  0  0
   -0.4609   -1.6825    0.7525 C   0  0  0  0  0  0  0  0  0  0  0  0
    0.6241   -1.6929   -0.3062 C   0  0  0  0  0  0  0  0  0  0  0  0
   -2.5694   -0.6221    0.2300 C   0  0  0  0  0  0  0  0  0  0  0  0
   -2.9506   -0.0367   -1.0991 C   0  0  0  0  0  0  0  0  0  0  0  0
   -4.4429   -0.1205   -1.3552 C   0  0  0  0  0  0  0  0  0  0  0  0
   -5.2467    0.3963   -0.2011 C   0  0  0  0  0  0  0  0  0  0  0  0
   -4.8281   -0.3385    1.0744 C   0  0  0  0  0  0  0  0  0  0  0  0
   -3.3789    0.0415    1.3288 C   0  0  0  0  0  0  0  0  0  0  0  0
    7.4072   -0.2151   -0.7792 H   0  0  0  0  0  0  0  0  0  0  0  0
    5.3132   -1.5146   -0.9260 H   0  0  0  0  0  0  0  0  0  0  0  0
    3.2462    1.8870    0.5784 H   0  0  0  0  0  0  0  0  0  0  0  0
    5.2923    3.1237    0.7062 H   0  0  0  0  0  0  0  0  0  0  0  0
    1.4130    0.9298    1.4402 H   0  0  0  0  0  0  0  0  0  0  0  0
    1.2242    1.4975   -0.2542 H   0  0  0  0  0  0  0  0  0  0  0  0
   -0.7730    1.1358    1.6367 H   0  0  0  0  0  0  0  0  0  0  0  0
   -0.9772    1.4537   -0.1319 H   0  0  0  0  0  0  0  0  0  0  0  0
   -1.1159   -2.5494    0.6974 H   0  0  0  0  0  0  0  0  0  0  0  0
    0.0467   -1.5784    1.7296 H   0  0  0  0  0  0  0  0  0  0  0  0
    1.1862   -2.6190   -0.2361 H   0  0  0  0  0  0  0  0  0  0  0  0
    0.1312   -1.5279   -1.2784 H   0  0  0  0  0  0  0  0  0  0  0  0
   -2.8683   -1.6997    0.2367 H   0  0  0  0  0  0  0  0  0  0  0  0
   -2.4773   -0.6352   -1.9228 H   0  0  0  0  0  0  0  0  0  0  0  0
   -2.5962    1.0027   -1.2259 H   0  0  0  0  0  0  0  0  0  0  0  0
   -4.6438    0.5767   -2.2219 H   0  0  0  0  0  0  0  0  0  0  0  0
   -4.7606   -1.1138   -1.6890 H   0  0  0  0  0  0  0  0  0  0  0  0
   -6.3033    0.1975   -0.3774 H   0  0  0  0  0  0  0  0  0  0  0  0
   -4.9925    1.4717   -0.0685 H   0  0  0  0  0  0  0  0  0  0  0  0
   -4.8700   -1.4358    0.8658 H   0  0  0  0  0  0  0  0  0  0  0  0
   -5.4666   -0.0210    1.9010 H   0  0  0  0  0  0  0  0  0  0  0  0
   -3.3189    1.1384    1.3165 H   0  0  0  0  0  0  0  0  0  0  0  0
   -3.0337   -0.3204    2.3202 H   0  0  0  0  0  0  0  0  0  0  0  0
  1  2  1  0
  2  3  2  0
  3  4  1  0
  4  5  2  0
  5  6  1  0
  6  7  2  0
  5  8  1  0
  8  9  2  0
  8 10  1  0
 10 11  1  0
 11 12  1  0
 12 13  1  0
 13 14  1  0
 14 15  1  0
 13 16  1  0
 16 17  1  0
 17 18  1  0
 18 19  1  0
 19 20  1  0
 20 21  1  0
  7  2  1  0
 15 10  1  0
 21 16  1  0
  3 22  1  0
  4 23  1  0
  6 24  1  0
  7 25  1  0
 11 26  1  0
 11 27  1  0
 12 28  1  0
 12 29  1  0
 14 30  1  0
 14 31  1  0
 15 32  1  0
 15 33  1  0
 16 34  1  0
 17 35  1  0
 17 36  1  0
 18 37  1  0
 18 38  1  0
 19 39  1  0
 19 40  1  0
 20 41  1  0
 20 42  1  0
 21 43  1  0
 21 44  1  0
M  END
$$$$
[H]c1c([H])c([H])c(N2C([H])([H])C([H])([H])N(c3nc4c(nc([H])n4C([H])([H])[H])c(=O)n3[H])C([H])([H])C2([H])[H])c(OC([H])([H])[H])c1[H]
     RDKit          3D

 45 48  0  0  0  0  0  0  0  0999 V2000
   -5.0605   -0.8548   -2.2643 C   0  0  0  0  0  0  0  0  0  0  0  0
   -3.9410   -0.5205   -1.4610 O   0  0  0  0  0  0  0  0  0  0  0  0
   -4.1624   -0.1183   -0.1513 C   0  0  0  0  0  0  0  0  0  0  0  0
   -5.4127   -0.0231    0.4209 C   0  0  0  0  0  0  0  0  0  0  0  0
   -5.5986    0.3818    1.7309 C   0  0  0  0  0  0  0  0  0  0  0  0
   -4.4966    0.7045    2.5014 C   0  0  0  0  0  0  0  0  0  0  0  0
   -3.2455    0.6105    1.9327 C   0  0  0  0  0  0  0  0  0  0  0  0
   -3.0561    0.2010    0.6075 C   0  0  0  0  0  0  0  0  0  0  0  0
   -1.7749    0.1142    0.0576 N   0  0  0  0  0  0  0  0  0  0  0  0
   -1.3129   -1.1718   -0.4293 C   0  0  0  0  0  0  0  0  0  0  0  0
    0.0081   -1.4722    0.1937 C   0  0  0  0  0  0  0  0  0  0  0  0
    0.9366   -0.4205   -0.1374 N   0  0  0  0  0  0  0  0  0  0  0  0
    0.4398    0.8037   -0.6841 C   0  0  0  0  0  0  0  0  0  0  0  0
   -0.8761    1.2311   -0.0587 C   0  0  0  0  0  0  0  0  0  0  0  0
    2.3431   -0.5517    0.0628 C   0  0  0  0  0  0  0  0  0  0  0  0
    3.2021    0.4362   -0.2667 N   0  0  0  0  0  0  0  0  0  0  0  0
    4.5214    0.2794   -0.0633 C   0  0  0  0  0  0  0  0  0  0  0  0
    5.5708    1.0898   -0.2981 N   0  0  0  0  0  0  0  0  0  0  0  0
    5.5450    2.4379   -0.8722 C   0  0  0  0  0  0  0  0  0  0  0  0
    6.6591    0.4092    0.1031 C   0  0  0  0  0  0  0  0  0  0  0  0
    6.2952   -0.8072    0.5811 N   0  0  0  0  0  0  0  0  0  0  0  0
    4.9678   -0.9141    0.4890 C   0  0  0  0  0  0  0  0  0  0  0  0
    4.0967   -1.9266    0.8277 C   0  0  0  0  0  0  0  0  0  0  0  0
    4.4431   -3.0206    1.3273 O   0  0  0  0  0  0  0  0  0  0  0  0
    2.7885   -1.7156    0.6025 N   0  0  0  0  0  0  0  0  0  0  0  0
   -4.6560   -0.9512   -3.3103 H   0  0  0  0  0  0  0  0  0  0  0  0
   -5.4827   -1.8381   -2.0180 H   0  0  0  0  0  0  0  0  0  0  0  0
   -5.8052   -0.0385   -2.2460 H   0  0  0  0  0  0  0  0  0  0  0  0
   -6.2611   -0.2771   -0.1897 H   0  0  0  0  0  0  0  0  0  0  0  0
   -6.5705    0.4617    2.1944 H   0  0  0  0  0  0  0  0  0  0  0  0
   -4.6413    1.0188    3.5176 H   0  0  0  0  0  0  0  0  0  0  0  0
   -2.3965    0.8660    2.5478 H   0  0  0  0  0  0  0  0  0  0  0  0
   -1.2843   -1.0963   -1.5302 H   0  0  0  0  0  0  0  0  0  0  0  0
   -2.0168   -1.9904   -0.1776 H   0  0  0  0  0  0  0  0  0  0  0  0
    0.3303   -2.4673   -0.1820 H   0  0  0  0  0  0  0  0  0  0  0  0
   -0.1460   -1.4832    1.3029 H   0  0  0  0  0  0  0  0  0  0  0  0
    1.1612    1.6182   -0.4728 H   0  0  0  0  0  0  0  0  0  0  0  0
    0.3665    0.7154   -1.7812 H   0  0  0  0  0  0  0  0  0  0  0  0
   -0.6194    1.5908    0.9704 H   0  0  0  0  0  0  0  0  0  0  0  0
   -1.2635    2.0453   -0.7057 H   0  0  0  0  0  0  0  0  0  0  0  0
    4.6879    3.0247   -0.5021 H   0  0  0  0  0  0  0  0  0  0  0  0
    6.5206    2.9022   -0.6714 H   0  0  0  0  0  0  0  0  0  0  0  0
    5.4343    2.3969   -1.9882 H   0  0  0  0  0  0  0  0  0  0  0  0
    7.6886    0.7849    0.0503 H   0  0  0  0  0  0  0  0  0  0  0  0
    2.0737   -2.4649    0.8472 H   0  0  0  0  0  0  0  0  0  0  0  0
  1  2  1  0
  2  3  1  0
  3  4  2  0
  4  5  1  0
  5  6  2  0
  6  7  1  0
  7  8  2  0
  8  9  1  0
  9 10  1  0
 10 11  1  0
 11 12  1  0
 12 13  1  0
 13 14  1  0
 12 15  1  0
 15 16  2  0
 16 17  1  0
 17 18  1  0
 18 19  1  0
 18 20  1  0
 20 21  2  0
 21 22  1  0
 22 23  1  0
 23 24  2  0
 23 25  1  0
  8  3  1  0
 14  9  1  0
 25 15  1  0
 22 17  2  0
  1 26  1  0
  1 27  1  0
  1 28  1  0
  4 29  1  0
  5 30  1  0
  6 31  1  0
  7 32  1  0
 10 33  1  0
 10 34  1  0
 11 35  1  0
 11 36  1  0
 13 37  1  0
 13 38  1  0
 14 39  1  0
 14 40  1  0
 19 41  1  0
 19 42  1  0
 19 43  1  0
 20 44  1  0
 25 45  1  0
M  END
$$$$
[H]Oc1c([H])c([H])c(C([H])([H])[C@@]([H])(C(=O)N2C([H])([H])C([H])([H])C([H])([H])[C@@]2([H])C(=O)N([H])C([H])([H])C(=O)N([H])[C@]([H])(C(=O)N([H])[C@]([H])(C(=O)N([H])[C@]([H])(C(=O)N([H])[H])C([H])([H])c2c([H])n([H])c3c([H])c([H])c([H])c([H])c23)C([H])([H])C([H])(C([H])([H])[H])C([H])([H])[H])C([H])([H])c2c([H])c([H])c([H])c([H])c2[H])N([H])[H])c([H])c1[H]
     RDKit          3D

109113  0  0  0  0  0  0  0  0999 V2000
   -0.8329    3.8007    2.2141 C   0  0  0  0  0  0  0  0  0  0  0  0
   -1.8301    2.6189    2.0402 C   0  0  0  0  0  0  0  0  0  0  0  0
   -3.1937    3.1426    2.3132 C   0  0  0  0  0  0  0  0  0  0  0  0
   -1.5490    2.0532    0.7192 C   0  0  0  0  0  0  0  0  0  0  0  0
   -2.2436    0.8951    0.1674 C   0  0  2  0  0  0  0  0  0  0  0  0
   -1.5946    0.6478   -1.2045 N   0  0  0  0  0  0  0  0  0  0  0  0
   -0.5929   -0.2944   -1.2988 C   0  0  0  0  0  0  0  0  0  0  0  0
   -0.2791   -0.8889   -0.1838 O   0  0  0  0  0  0  0  0  0  0  0  0
    0.1752   -0.7326   -2.4544 C   0  0  2  0  0  0  0  0  0  0  0  0
   -0.6588   -1.7028   -3.3361 C   0  0  0  0  0  0  0  0  0  0  0  0
   -1.8877   -1.1308   -3.8788 C   0  0  0  0  0  0  0  0  0  0  0  0
   -3.1032   -1.3121   -3.2620 C   0  0  0  0  0  0  0  0  0  0  0  0
   -4.2706   -0.7759   -3.8192 C   0  0  0  0  0  0  0  0  0  0  0  0
   -4.2437   -0.0568   -4.9904 C   0  0  0  0  0  0  0  0  0  0  0  0
   -3.0193    0.1263   -5.6114 C   0  0  0  0  0  0  0  0  0  0  0  0
   -1.9000   -0.4069   -5.0452 C   0  0  0  0  0  0  0  0  0  0  0  0
    1.3418   -1.5149   -2.0094 N   0  0  0  0  0  0  0  0  0  0  0  0
    2.3053   -2.1022   -2.8496 C   0  0  0  0  0  0  0  0  0  0  0  0
    2.2276   -1.9987   -4.0836 O   0  0  0  0  0  0  0  0  0  0  0  0
    3.4594   -2.8928   -2.3189 C   0  0  0  0  0  0  0  0  0  0  0  0
    3.5462   -2.6892   -0.8510 N   0  0  0  0  0  0  0  0  0  0  0  0
    3.9746   -1.3789   -0.4173 C   0  0  0  0  0  0  0  0  0  0  0  0
    4.2790   -0.5199   -1.3248 O   0  0  0  0  0  0  0  0  0  0  0  0
    4.0771   -0.9818    0.9635 C   0  0  2  0  0  0  0  0  0  0  0  0
    3.1400    0.2680    1.1974 C   0  0  0  0  0  0  0  0  0  0  0  0
    3.9872    1.4061    0.6646 C   0  0  0  0  0  0  0  0  0  0  0  0
    5.4074    0.9297    0.7819 C   0  0  0  0  0  0  0  0  0  0  0  0
    5.3044   -0.3588    1.3928 N   0  0  0  0  0  0  0  0  0  0  0  0
    6.2245   -0.9657    2.3015 C   0  0  0  0  0  0  0  0  0  0  0  0
    5.9447   -2.1316    2.7540 O   0  0  0  0  0  0  0  0  0  0  0  0
    7.4734   -0.3704    2.7731 C   0  0  1  0  0  0  0  0  0  0  0  0
    8.0343   -1.1633    3.8319 N   0  0  0  0  0  0  0  0  0  0  0  0
    8.5017   -0.3966    1.6181 C   0  0  0  0  0  0  0  0  0  0  0  0
    9.7868    0.2011    2.1324 C   0  0  0  0  0  0  0  0  0  0  0  0
   10.7198   -0.6437    2.7042 C   0  0  0  0  0  0  0  0  0  0  0  0
   11.8743   -0.0587    3.2009 C   0  0  0  0  0  0  0  0  0  0  0  0
   12.0805    1.3107    3.1244 C   0  0  0  0  0  0  0  0  0  0  0  0
   13.2678    1.8162    3.6535 O   0  0  0  0  0  0  0  0  0  0  0  0
   11.1465    2.1041    2.5573 C   0  0  0  0  0  0  0  0  0  0  0  0
    9.9651    1.5406    2.0444 C   0  0  0  0  0  0  0  0  0  0  0  0
   -3.6769    0.8324   -0.0483 C   0  0  0  0  0  0  0  0  0  0  0  0
   -4.1377    1.4712   -1.0694 O   0  0  0  0  0  0  0  0  0  0  0  0
   -4.5993    0.1221    0.7372 N   0  0  0  0  0  0  0  0  0  0  0  0
   -6.0195   -0.0253    0.4908 C   0  0  1  0  0  0  0  0  0  0  0  0
   -6.3705   -1.4892    0.4040 C   0  0  0  0  0  0  0  0  0  0  0  0
   -7.7397   -1.8704    0.1972 C   0  0  0  0  0  0  0  0  0  0  0  0
   -8.5227   -2.4867    1.1654 C   0  0  0  0  0  0  0  0  0  0  0  0
   -9.7206   -2.7831    0.6737 N   0  0  0  0  0  0  0  0  0  0  0  0
   -9.7316   -2.3607   -0.6207 C   0  0  0  0  0  0  0  0  0  0  0  0
  -10.7543   -2.4418   -1.5710 C   0  0  0  0  0  0  0  0  0  0  0  0
  -10.5300   -1.9403   -2.8363 C   0  0  0  0  0  0  0  0  0  0  0  0
   -9.3175   -1.3782   -3.1355 C   0  0  0  0  0  0  0  0  0  0  0  0
   -8.2914   -1.2868   -2.2157 C   0  0  0  0  0  0  0  0  0  0  0  0
   -8.5188   -1.7908   -0.9424 C   0  0  0  0  0  0  0  0  0  0  0  0
   -6.8289    0.7656    1.4019 C   0  0  0  0  0  0  0  0  0  0  0  0
   -8.2569    0.8273    1.2215 N   0  0  0  0  0  0  0  0  0  0  0  0
   -6.3075    1.3996    2.3399 O   0  0  0  0  0  0  0  0  0  0  0  0
   -0.6853    3.9415    3.2921 H   0  0  0  0  0  0  0  0  0  0  0  0
    0.0867    3.5761    1.6816 H   0  0  0  0  0  0  0  0  0  0  0  0
   -1.3410    4.7212    1.8178 H   0  0  0  0  0  0  0  0  0  0  0  0
   -1.5713    1.9204    2.8877 H   0  0  0  0  0  0  0  0  0  0  0  0
   -3.1405    4.1674    2.7915 H   0  0  0  0  0  0  0  0  0  0  0  0
   -3.8017    2.4620    2.9509 H   0  0  0  0  0  0  0  0  0  0  0  0
   -3.7413    3.2792    1.3671 H   0  0  0  0  0  0  0  0  0  0  0  0
   -0.4310    1.7635    0.7431 H   0  0  0  0  0  0  0  0  0  0  0  0
   -1.5348    2.8682   -0.0925 H   0  0  0  0  0  0  0  0  0  0  0  0
   -1.9210   -0.0179    0.7347 H   0  0  0  0  0  0  0  0  0  0  0  0
   -1.9436    1.2091   -1.9745 H   0  0  0  0  0  0  0  0  0  0  0  0
    0.5342   -0.0052   -3.1723 H   0  0  0  0  0  0  0  0  0  0  0  0
   -0.0433   -2.1587   -4.1225 H   0  0  0  0  0  0  0  0  0  0  0  0
   -0.9819   -2.5702   -2.6624 H   0  0  0  0  0  0  0  0  0  0  0  0
   -3.2350   -1.8515   -2.3423 H   0  0  0  0  0  0  0  0  0  0  0  0
   -5.2066   -0.9316   -3.3232 H   0  0  0  0  0  0  0  0  0  0  0  0
   -5.1516    0.3667   -5.4367 H   0  0  0  0  0  0  0  0  0  0  0  0
   -2.9892    0.6846   -6.5292 H   0  0  0  0  0  0  0  0  0  0  0  0
   -0.9384   -0.2699   -5.5242 H   0  0  0  0  0  0  0  0  0  0  0  0
    1.4374   -1.6472   -0.9630 H   0  0  0  0  0  0  0  0  0  0  0  0
    3.4031   -3.9552   -2.5025 H   0  0  0  0  0  0  0  0  0  0  0  0
    4.4170   -2.5279   -2.7310 H   0  0  0  0  0  0  0  0  0  0  0  0
    3.2969   -3.4678   -0.2483 H   0  0  0  0  0  0  0  0  0  0  0  0
    3.7190   -1.7129    1.6872 H   0  0  0  0  0  0  0  0  0  0  0  0
    2.9763    0.3557    2.2754 H   0  0  0  0  0  0  0  0  0  0  0  0
    2.2593    0.1040    0.5757 H   0  0  0  0  0  0  0  0  0  0  0  0
    3.7880    2.3404    1.2441 H   0  0  0  0  0  0  0  0  0  0  0  0
    3.7339    1.6038   -0.4066 H   0  0  0  0  0  0  0  0  0  0  0  0
    5.9768    0.9458   -0.1724 H   0  0  0  0  0  0  0  0  0  0  0  0
    5.9569    1.6232    1.4806 H   0  0  0  0  0  0  0  0  0  0  0  0
    7.4067    0.7180    3.0255 H   0  0  0  0  0  0  0  0  0  0  0  0
    7.3548   -1.7754    4.3015 H   0  0  0  0  0  0  0  0  0  0  0  0
    8.4669   -0.5360    4.5389 H   0  0  0  0  0  0  0  0  0  0  0  0
    8.1670    0.2545    0.8018 H   0  0  0  0  0  0  0  0  0  0  0  0
    8.6644   -1.4140    1.2632 H   0  0  0  0  0  0  0  0  0  0  0  0
   10.6038   -1.6952    2.7778 H   0  0  0  0  0  0  0  0  0  0  0  0
   12.5941   -0.7013    3.6371 H   0  0  0  0  0  0  0  0  0  0  0  0
   13.4035    2.8219    3.5959 H   0  0  0  0  0  0  0  0  0  0  0  0
   11.3104    3.1725    2.5036 H   0  0  0  0  0  0  0  0  0  0  0  0
    9.2809    2.2415    1.6097 H   0  0  0  0  0  0  0  0  0  0  0  0
   -4.2158   -0.3548    1.5808 H   0  0  0  0  0  0  0  0  0  0  0  0
   -6.1856    0.3788   -0.5612 H   0  0  0  0  0  0  0  0  0  0  0  0
   -5.7374   -1.9456   -0.4148 H   0  0  0  0  0  0  0  0  0  0  0  0
   -5.9773   -1.9317    1.3704 H   0  0  0  0  0  0  0  0  0  0  0  0
   -8.2081   -2.7087    2.2047 H   0  0  0  0  0  0  0  0  0  0  0  0
  -10.5272   -3.2494    1.1473 H   0  0  0  0  0  0  0  0  0  0  0  0
  -11.6905   -2.8902   -1.3163 H   0  0  0  0  0  0  0  0  0  0  0  0
  -11.3441   -2.0192   -3.5471 H   0  0  0  0  0  0  0  0  0  0  0  0
   -9.1553   -0.9737   -4.1380 H   0  0  0  0  0  0  0  0  0  0  0  0
   -7.3385   -0.8507   -2.4180 H   0  0  0  0  0  0  0  0  0  0  0  0
   -8.8694    0.6291    2.0118 H   0  0  0  0  0  0  0  0  0  0  0  0
   -8.6530    1.0674    0.2960 H   0  0  0  0  0  0  0  0  0  0  0  0
  1  2  1  0
  2  3  1  0
  2  4  1  0
  4  5  1  0
  5  6  1  0
  6  7  1  0
  7  8  2  0
  7  9  1  0
  9 10  1  0
 10 11  1  0
 11 12  2  0
 12 13  1  0
 13 14  2  0
 14 15  1  0
 15 16  2  0
  9 17  1  0
 17 18  1  0
 18 19  2  0
 18 20  1  0
 20 21  1  0
 21 22  1  0
 22 23  2  0
 22 24  1  0
 24 25  1  0
 25 26  1  0
 26 27  1  0
 27 28  1  0
 28 29  1  0
 29 30  2  0
 29 31  1  0
 31 32  1  0
 31 33  1  0
 33 34  1  0
 34 35  2  0
 35 36  1  0
 36 37  2  0
 37 38  1  0
 37 39  1  0
 39 40  2  0
  5 41  1  0
 41 42  2  0
 41 43  1  0
 43 44  1  0
 44 45  1  0
 45 46  1  0
 46 47  2  0
 47 48  1  0
 48 49  1  0
 49 50  2  0
 50 51  1  0
 51 52  2  0
 52 53  1  0
 53 54  2  0
 44 55  1  0
 55 56  1  0
 55 57  2  0
 16 11  1  0
 28 24  1  0
 40 34  1  0
 54 46  1  0
 54 49  1  0
  1 58  1  0
  1 59  1  0
  1 60  1  0
  2 61  1  0
  3 62  1  0
  3 63  1  0
  3 64  1  0
  4 65  1  0
  4 66  1  0
  5 67  1  1
  6 68  1  0
  9 69  1  6
 10 70  1  0
 10 71  1  0
 12 72  1  0
 13 73  1  0
 14 74  1  0
 15 75  1  0
 16 76  1  0
 17 77  1  0
 20 78  1  0
 20 79  1  0
 21 80  1  0
 24 81  1  1
 25 82  1  0
 25 83  1  0
 26 84  1  0
 26 85  1  0
 27 86  1  0
 27 87  1  0
 31 88  1  1
 32 89  1  0
 32 90  1  0
 33 91  1  0
 33 92  1  0
 35 93  1  0
 36 94  1  0
 38 95  1  0
 39 96  1  0
 40 97  1  0
 43 98  1  0
 44 99  1  6
 45100  1  0
 45101  1  0
 47102  1  0
 48103  1  0
 50104  1  0
 51105  1  0
 52106  1  0
 53107  1  0
 56108  1  0
 56109  1  0
M  END
$$$$
[H]/C(=C1/C(=O)N([H])c2c([H])c([H])c(N([H])S(=O)(=O)c3c([H])c([H])c(N4C([H])([H])C([H])([H])N(C([H])([H])[H])C([H])([H])C4([H])[H])c([H])c3[H])c([H])c21)c1c([H])c([H])c([H])c([H])c1[H]
     RDKit          3D

 60 64  0  0  0  0  0  0  0  0999 V2000
   -6.3518    0.7791   -2.9199 C   0  0  0  0  0  0  0  0  0  0  0  0
   -6.1616   -0.3669   -2.0863 N   0  0  0  0  0  0  0  0  0  0  0  0
   -6.5918   -0.1520   -0.7522 C   0  0  0  0  0  0  0  0  0  0  0  0
   -5.5131   -0.1447    0.2796 C   0  0  0  0  0  0  0  0  0  0  0  0
   -4.1934    0.0845   -0.2056 N   0  0  0  0  0  0  0  0  0  0  0  0
   -3.8462   -0.0548   -1.5954 C   0  0  0  0  0  0  0  0  0  0  0  0
   -4.8792   -0.9693   -2.2277 C   0  0  0  0  0  0  0  0  0  0  0  0
   -3.1789    0.4633    0.7240 C   0  0  0  0  0  0  0  0  0  0  0  0
   -1.9205    0.7665    0.2878 C   0  0  0  0  0  0  0  0  0  0  0  0
   -0.9059    1.1379    1.1777 C   0  0  0  0  0  0  0  0  0  0  0  0
   -1.1605    1.2053    2.5241 C   0  0  0  0  0  0  0  0  0  0  0  0
   -2.4211    0.9022    2.9665 C   0  0  0  0  0  0  0  0  0  0  0  0
   -3.4346    0.5315    2.0816 C   0  0  0  0  0  0  0  0  0  0  0  0
    0.0985    1.6653    3.6187 S   0  0  0  0  0  0  0  0  0  0  0  0
   -0.4597    2.3851    4.8350 O   0  0  0  0  0  0  0  0  0  0  0  0
    1.0371    2.6469    2.9699 O   0  0  0  0  0  0  0  0  0  0  0  0
    0.9226    0.2405    4.1086 N   0  0  0  0  0  0  0  0  0  0  0  0
    1.6094   -0.6086    3.2046 C   0  0  0  0  0  0  0  0  0  0  0  0
    1.4315   -1.9721    3.3098 C   0  0  0  0  0  0  0  0  0  0  0  0
    2.0795   -2.8385    2.4500 C   0  0  0  0  0  0  0  0  0  0  0  0
    2.9159   -2.3263    1.4733 C   0  0  0  0  0  0  0  0  0  0  0  0
    3.6781   -3.0081    0.4898 N   0  0  0  0  0  0  0  0  0  0  0  0
    4.3919   -2.0291   -0.2986 C   0  0  0  0  0  0  0  0  0  0  0  0
    5.1570   -2.3288   -1.2485 O   0  0  0  0  0  0  0  0  0  0  0  0
    4.0453   -0.7310    0.2277 C   0  0  0  0  0  0  0  0  0  0  0  0
    4.4236    0.4515   -0.1772 C   0  0  0  0  0  0  0  0  0  0  0  0
    5.3014    0.6622   -1.2955 C   0  0  0  0  0  0  0  0  0  0  0  0
    4.9914    0.2615   -2.5709 C   0  0  0  0  0  0  0  0  0  0  0  0
    5.8543    0.4579   -3.6249 C   0  0  0  0  0  0  0  0  0  0  0  0
    7.0662    1.0703   -3.4227 C   0  0  0  0  0  0  0  0  0  0  0  0
    7.3795    1.4742   -2.1426 C   0  0  0  0  0  0  0  0  0  0  0  0
    6.5244    1.2801   -1.0942 C   0  0  0  0  0  0  0  0  0  0  0  0
    3.1230   -0.9659    1.3324 C   0  0  0  0  0  0  0  0  0  0  0  0
    2.4500   -0.1381    2.2195 C   0  0  0  0  0  0  0  0  0  0  0  0
   -5.6927    0.7596   -3.8153 H   0  0  0  0  0  0  0  0  0  0  0  0
   -7.4234    0.9150   -3.2070 H   0  0  0  0  0  0  0  0  0  0  0  0
   -6.0758    1.6856   -2.3445 H   0  0  0  0  0  0  0  0  0  0  0  0
   -7.2461    0.7597   -0.7163 H   0  0  0  0  0  0  0  0  0  0  0  0
   -7.2940   -0.9961   -0.4849 H   0  0  0  0  0  0  0  0  0  0  0  0
   -5.7566    0.7158    0.9718 H   0  0  0  0  0  0  0  0  0  0  0  0
   -5.5600   -1.0465    0.9542 H   0  0  0  0  0  0  0  0  0  0  0  0
   -2.8690   -0.5558   -1.7623 H   0  0  0  0  0  0  0  0  0  0  0  0
   -3.9190    0.9383   -2.0570 H   0  0  0  0  0  0  0  0  0  0  0  0
   -4.8409   -1.9866   -1.8193 H   0  0  0  0  0  0  0  0  0  0  0  0
   -4.6438   -1.0475   -3.3100 H   0  0  0  0  0  0  0  0  0  0  0  0
   -1.6709    0.7300   -0.7556 H   0  0  0  0  0  0  0  0  0  0  0  0
    0.0554    1.3594    0.7459 H   0  0  0  0  0  0  0  0  0  0  0  0
   -2.6939    0.9345    4.0185 H   0  0  0  0  0  0  0  0  0  0  0  0
   -4.4136    0.2960    2.4347 H   0  0  0  0  0  0  0  0  0  0  0  0
    0.9186   -0.0134    5.1162 H   0  0  0  0  0  0  0  0  0  0  0  0
    0.7750   -2.3714    4.0766 H   0  0  0  0  0  0  0  0  0  0  0  0
    1.9308   -3.9084    2.5436 H   0  0  0  0  0  0  0  0  0  0  0  0
    3.7489   -4.0323    0.3196 H   0  0  0  0  0  0  0  0  0  0  0  0
    4.0626    1.3674    0.3536 H   0  0  0  0  0  0  0  0  0  0  0  0
    4.0135   -0.2199   -2.7497 H   0  0  0  0  0  0  0  0  0  0  0  0
    5.5920    0.1351   -4.6201 H   0  0  0  0  0  0  0  0  0  0  0  0
    7.7701    1.2364   -4.2530 H   0  0  0  0  0  0  0  0  0  0  0  0
    8.3593    1.9664   -1.9950 H   0  0  0  0  0  0  0  0  0  0  0  0
    6.8194    1.6189   -0.0971 H   0  0  0  0  0  0  0  0  0  0  0  0
    2.5921    0.9280    2.1342 H   0  0  0  0  0  0  0  0  0  0  0  0
  1  2  1  0
  2  3  1  0
  3  4  1  0
  4  5  1  0
  5  6  1  0
  6  7  1  0
  5  8  1  0
  8  9  2  0
  9 10  1  0
 10 11  2  0
 11 12  1  0
 12 13  2  0
 11 14  1  0
 14 15  2  0
 14 16  2  0
 14 17  1  0
 17 18  1  0
 18 19  2  0
 19 20  1  0
 20 21  2  0
 21 22  1  0
 22 23  1  0
 23 24  2  0
 23 25  1  0
 25 26  2  0
 26 27  1  0
 27 28  2  0
 28 29  1  0
 29 30  2  0
 30 31  1  0
 31 32  2  0
 25 33  1  0
 33 34  2  0
  7  2  1  0
 13  8  1  0
 34 18  1  0
 33 21  1  0
 32 27  1  0
  1 35  1  0
  1 36  1  0
  1 37  1  0
  3 38  1  0
  3 39  1  0
  4 40  1  0
  4 41  1  0
  6 42  1  0
  6 43  1  0
  7 44  1  0
  7 45  1  0
  9 46  1  0
 10 47  1  0
 12 48  1  0
 13 49  1  0
 17 50  1  0
 19 51  1  0
 20 52  1  0
 22 53  1  0
 26 54  1  0
 28 55  1  0
 29 56  1  0
 30 57  1  0
 31 58  1  0
 32 59  1  0
 34 60  1  0
M  END
$$$$
[H]c1c([H])c([H])c2c(c1[H])c1c3c(c4c5c([H])c([H])c([H])c([H])c5n5c4c1n2[C@@]1(C([H])([H])[H])O[C@]5([H])C([H])([H])[C@]([H])(N([H])C([H])([H])[H])[C@]1([H])OC([H])([H])[H])C(=O)N([H])C3([H])[H]
     RDKit          3D

 61 68  0  0  0  0  0  0  0  0999 V2000
   -4.0469   -1.7704    1.7208 C   0  0  0  0  0  0  0  0  0  0  0  0
   -2.8051   -1.1267    1.8532 N   0  0  0  0  0  0  0  0  0  0  0  0
   -2.0631   -0.7295    0.7453 C   0  0  1  0  0  0  0  0  0  0  0  0
   -1.6837   -1.8762   -0.1711 C   0  0  0  0  0  0  0  0  0  0  0  0
   -0.8984   -1.4098   -1.3642 C   0  0  1  0  0  0  0  0  0  0  0  0
   -1.1746   -0.2090   -1.8664 O   0  0  0  0  0  0  0  0  0  0  0  0
   -1.4577    0.8633   -1.0142 C   0  0  1  0  0  0  0  0  0  0  0  0
   -2.0247    1.8974   -1.9699 C   0  0  0  0  0  0  0  0  0  0  0  0
   -2.5753    0.3728   -0.1181 C   0  0  1  0  0  0  0  0  0  0  0  0
   -3.5198   -0.1711   -0.9735 O   0  0  0  0  0  0  0  0  0  0  0  0
   -4.7628    0.3638   -0.9969 C   0  0  0  0  0  0  0  0  0  0  0  0
   -0.2701    1.3169   -0.3284 N   0  0  0  0  0  0  0  0  0  0  0  0
   -0.0959    2.5647    0.1722 C   0  0  0  0  0  0  0  0  0  0  0  0
   -0.9035    3.6566    0.2781 C   0  0  0  0  0  0  0  0  0  0  0  0
   -0.4867    4.8568    0.8587 C   0  0  0  0  0  0  0  0  0  0  0  0
    0.7815    4.9813    1.3559 C   0  0  0  0  0  0  0  0  0  0  0  0
    1.6018    3.8897    1.2562 C   0  0  0  0  0  0  0  0  0  0  0  0
    1.2013    2.7011    0.6855 C   0  0  0  0  0  0  0  0  0  0  0  0
    1.8231    1.4953    0.4914 C   0  0  0  0  0  0  0  0  0  0  0  0
    3.0935    1.0534    0.7971 C   0  0  0  0  0  0  0  0  0  0  0  0
    4.2347    1.7462    1.4443 C   0  0  0  0  0  0  0  0  0  0  0  0
    5.2812    0.7805    1.4850 N   0  0  0  0  0  0  0  0  0  0  0  0
    4.8379   -0.4605    0.9036 C   0  0  0  0  0  0  0  0  0  0  0  0
    5.5848   -1.4446    0.8345 O   0  0  0  0  0  0  0  0  0  0  0  0
    3.4679   -0.2585    0.4835 C   0  0  0  0  0  0  0  0  0  0  0  0
    2.5253   -1.0802   -0.1335 C   0  0  0  0  0  0  0  0  0  0  0  0
    2.5255   -2.4091   -0.5522 C   0  0  0  0  0  0  0  0  0  0  0  0
    3.4661   -3.3824   -0.5335 C   0  0  0  0  0  0  0  0  0  0  0  0
    3.1394   -4.6508   -1.0457 C   0  0  0  0  0  0  0  0  0  0  0  0
    1.8931   -4.8946   -1.5532 C   0  0  0  0  0  0  0  0  0  0  0  0
    0.9234   -3.9194   -1.5814 C   0  0  0  0  0  0  0  0  0  0  0  0
    1.2579   -2.6757   -1.0743 C   0  0  0  0  0  0  0  0  0  0  0  0
    0.5170   -1.5633   -0.9812 N   0  0  0  0  0  0  0  0  0  0  0  0
    1.2574   -0.6011   -0.4262 C   0  0  0  0  0  0  0  0  0  0  0  0
    0.9293    0.6883   -0.1091 C   0  0  0  0  0  0  0  0  0  0  0  0
   -4.8662   -1.0159    1.9108 H   0  0  0  0  0  0  0  0  0  0  0  0
   -4.1813   -2.6236    2.4398 H   0  0  0  0  0  0  0  0  0  0  0  0
   -4.2705   -2.2084    0.7307 H   0  0  0  0  0  0  0  0  0  0  0  0
   -2.8232   -0.4664    2.6590 H   0  0  0  0  0  0  0  0  0  0  0  0
   -1.0753   -0.3131    1.1783 H   0  0  0  0  0  0  0  0  0  0  0  0
   -1.0881   -2.5934    0.4138 H   0  0  0  0  0  0  0  0  0  0  0  0
   -2.6116   -2.3396   -0.5348 H   0  0  0  0  0  0  0  0  0  0  0  0
   -1.0616   -2.1696   -2.1624 H   0  0  0  0  0  0  0  0  0  0  0  0
   -2.9480    2.3656   -1.6768 H   0  0  0  0  0  0  0  0  0  0  0  0
   -1.2023    2.6448   -2.1814 H   0  0  0  0  0  0  0  0  0  0  0  0
   -2.2291    1.4720   -2.9983 H   0  0  0  0  0  0  0  0  0  0  0  0
   -3.0338    1.1533    0.4695 H   0  0  0  0  0  0  0  0  0  0  0  0
   -5.2481    0.3628   -0.0036 H   0  0  0  0  0  0  0  0  0  0  0  0
   -4.9197    1.3034   -1.5454 H   0  0  0  0  0  0  0  0  0  0  0  0
   -5.3837   -0.3816   -1.6336 H   0  0  0  0  0  0  0  0  0  0  0  0
   -1.9195    3.5996   -0.0805 H   0  0  0  0  0  0  0  0  0  0  0  0
   -1.1927    5.6764    0.9018 H   0  0  0  0  0  0  0  0  0  0  0  0
    1.1278    5.9226    1.8176 H   0  0  0  0  0  0  0  0  0  0  0  0
    2.6056    3.9573    1.6392 H   0  0  0  0  0  0  0  0  0  0  0  0
    4.5809    2.6270    0.8499 H   0  0  0  0  0  0  0  0  0  0  0  0
    3.9928    2.1189    2.4526 H   0  0  0  0  0  0  0  0  0  0  0  0
    6.2242    0.9648    1.8822 H   0  0  0  0  0  0  0  0  0  0  0  0
    4.4453   -3.2357   -0.1500 H   0  0  0  0  0  0  0  0  0  0  0  0
    3.9157   -5.4107   -1.0164 H   0  0  0  0  0  0  0  0  0  0  0  0
    1.6559   -5.8901   -1.9485 H   0  0  0  0  0  0  0  0  0  0  0  0
   -0.0671   -4.1156   -1.9855 H   0  0  0  0  0  0  0  0  0  0  0  0
  1  2  1  0
  2  3  1  0
  3  4  1  0
  4  5  1  0
  5  6  1  0
  6  7  1  0
  7  8  1  6
  7  9  1  0
  9 10  1  0
 10 11  1  0
  7 12  1  0
 12 13  1  0
 13 14  2  0
 14 15  1  0
 15 16  2  0
 16 17  1  0
 17 18  2  0
 18 19  1  0
 19 20  2  0
 20 21  1  0
 21 22  1  0
 22 23  1  0
 23 24  2  0
 23 25  1  0
 25 26  2  0
 26 27  1  0
 27 28  2  0
 28 29  1  0
 29 30  2  0
 30 31  1  0
 31 32  2  0
 32 33  1  0
 33 34  1  0
 34 35  2  0
  9  3  1  0
 35 12  1  0
 33  5  1  0
 18 13  1  0
 35 19  1  0
 25 20  1  0
 34 26  1  0
 32 27  1  0
  1 36  1  0
  1 37  1  0
  1 38  1  0
  2 39  1  0
  3 40  1  1
  4 41  1  0
  4 42  1  0
  5 43  1  6
  8 44  1  0
  8 45  1  0
  8 46  1  0
  9 47  1  1
 11 48  1  0
 11 49  1  0
 11 50  1  0
 14 51  1  0
 15 52  1  0
 16 53  1  0
 17 54  1  0
 21 55  1  0
 21 56  1  0
 22 57  1  0
 28 58  1  0
 29 59  1  0
 30 60  1  0
 31 61  1  0
M  END
$$$$
[H]OC(=O)c1c([H])c([H])c(-c2c([H])c([H])c(N3C(=O)N(c4c([H])c([H])c(C#N)c([H])c4[H])C4(C3=O)C([H])([H])C([H])([H])N(C([H])([H])c3nc([H])c([H])c([H])c3C([H])([H])[H])C([H])([H])C4([H])[H])c([H])c2[H])c([H])c1[H]
     RDKit          3D

 72 77  0  0  0  0  0  0  0  0999 V2000
    6.9349   -0.1831    0.8367 C   0  0  0  0  0  0  0  0  0  0  0  0
    6.6222   -1.4782    0.1895 C   0  0  0  0  0  0  0  0  0  0  0  0
    7.3490   -2.6145    0.4315 C   0  0  0  0  0  0  0  0  0  0  0  0
    7.0799   -3.8352   -0.1541 C   0  0  0  0  0  0  0  0  0  0  0  0
    6.0087   -3.8763   -1.0296 C   0  0  0  0  0  0  0  0  0  0  0  0
    5.2965   -2.7649   -1.2674 N   0  0  0  0  0  0  0  0  0  0  0  0
    5.5416   -1.5694   -0.7089 C   0  0  0  0  0  0  0  0  0  0  0  0
    4.7820   -0.3419   -0.9881 C   0  0  0  0  0  0  0  0  0  0  0  0
    3.6704   -0.4622   -1.8819 N   0  0  0  0  0  0  0  0  0  0  0  0
    3.1719    0.8783   -2.2113 C   0  0  0  0  0  0  0  0  0  0  0  0
    1.6893    0.9770   -2.2775 C   0  0  0  0  0  0  0  0  0  0  0  0
    1.0086    0.5608   -0.9948 C   0  0  0  0  0  0  0  0  0  0  0  0
    1.7749   -0.5219   -0.2964 C   0  0  0  0  0  0  0  0  0  0  0  0
    2.5751   -1.2623   -1.3564 C   0  0  0  0  0  0  0  0  0  0  0  0
    0.7598    1.6572   -0.0888 N   0  0  0  0  0  0  0  0  0  0  0  0
   -0.5561    1.4606    0.4575 C   0  0  0  0  0  0  0  0  0  0  0  0
   -1.0561    2.0087    1.4683 O   0  0  0  0  0  0  0  0  0  0  0  0
   -1.2810    0.5030   -0.3373 N   0  0  0  0  0  0  0  0  0  0  0  0
   -0.3832    0.1229   -1.3703 C   0  0  0  0  0  0  0  0  0  0  0  0
   -0.6398   -0.4748   -2.4353 O   0  0  0  0  0  0  0  0  0  0  0  0
   -2.6140    0.0662   -0.1124 C   0  0  0  0  0  0  0  0  0  0  0  0
   -3.6067    0.9763    0.2608 C   0  0  0  0  0  0  0  0  0  0  0  0
   -4.9011    0.6382    0.4887 C   0  0  0  0  0  0  0  0  0  0  0  0
   -5.3010   -0.6768    0.3530 C   0  0  0  0  0  0  0  0  0  0  0  0
   -4.3601   -1.6059   -0.0117 C   0  0  0  0  0  0  0  0  0  0  0  0
   -3.0291   -1.2368   -0.2418 C   0  0  0  0  0  0  0  0  0  0  0  0
   -6.6681   -1.1030    0.5854 C   0  0  0  0  0  0  0  0  0  0  0  0
   -7.2264   -2.1574   -0.0984 C   0  0  0  0  0  0  0  0  0  0  0  0
   -8.5366   -2.5568    0.1353 C   0  0  0  0  0  0  0  0  0  0  0  0
   -9.3358   -1.9209    1.0563 C   0  0  0  0  0  0  0  0  0  0  0  0
   -8.7642   -0.8497    1.7481 C   0  0  0  0  0  0  0  0  0  0  0  0
   -7.4685   -0.4539    1.5185 C   0  0  0  0  0  0  0  0  0  0  0  0
  -10.6987   -2.3297    1.3079 C   0  0  0  0  0  0  0  0  0  0  0  0
  -11.2320   -3.3890    0.6105 O   0  0  0  0  0  0  0  0  0  0  0  0
  -11.4025   -1.7341    2.1514 O   0  0  0  0  0  0  0  0  0  0  0  0
    1.5946    2.7516    0.2349 C   0  0  0  0  0  0  0  0  0  0  0  0
    1.4365    3.9550   -0.4508 C   0  0  0  0  0  0  0  0  0  0  0  0
    2.1893    5.0686   -0.2107 C   0  0  0  0  0  0  0  0  0  0  0  0
    3.1813    5.0159    0.7755 C   0  0  0  0  0  0  0  0  0  0  0  0
    3.3632    3.8371    1.4734 C   0  0  0  0  0  0  0  0  0  0  0  0
    2.5733    2.7187    1.2007 C   0  0  0  0  0  0  0  0  0  0  0  0
    3.9649    6.1931    1.0156 C   0  0  0  0  0  0  0  0  0  0  0  0
    4.5881    7.1663    1.2068 N   0  0  0  0  0  0  0  0  0  0  0  0
    7.5211    0.4415    0.1627 H   0  0  0  0  0  0  0  0  0  0  0  0
    7.5043   -0.4228    1.7827 H   0  0  0  0  0  0  0  0  0  0  0  0
    6.0342    0.3717    1.1782 H   0  0  0  0  0  0  0  0  0  0  0  0
    8.1888   -2.5752    1.1195 H   0  0  0  0  0  0  0  0  0  0  0  0
    7.6915   -4.7150    0.0709 H   0  0  0  0  0  0  0  0  0  0  0  0
    5.8082   -4.8419   -1.4831 H   0  0  0  0  0  0  0  0  0  0  0  0
    4.3756    0.0963   -0.0385 H   0  0  0  0  0  0  0  0  0  0  0  0
    5.5288    0.4021   -1.3834 H   0  0  0  0  0  0  0  0  0  0  0  0
    3.5546    1.0620   -3.2561 H   0  0  0  0  0  0  0  0  0  0  0  0
    3.6578    1.5816   -1.5235 H   0  0  0  0  0  0  0  0  0  0  0  0
    1.3367    0.3039   -3.1114 H   0  0  0  0  0  0  0  0  0  0  0  0
    1.4253    2.0239   -2.5462 H   0  0  0  0  0  0  0  0  0  0  0  0
    1.0547   -1.2798    0.1002 H   0  0  0  0  0  0  0  0  0  0  0  0
    2.4026   -0.0958    0.4848 H   0  0  0  0  0  0  0  0  0  0  0  0
    2.9360   -2.2268   -1.0030 H   0  0  0  0  0  0  0  0  0  0  0  0
    1.8666   -1.4288   -2.2192 H   0  0  0  0  0  0  0  0  0  0  0  0
   -3.2585    2.0187    0.3610 H   0  0  0  0  0  0  0  0  0  0  0  0
   -5.6364    1.3570    0.7732 H   0  0  0  0  0  0  0  0  0  0  0  0
   -4.6205   -2.6452   -0.1310 H   0  0  0  0  0  0  0  0  0  0  0  0
   -2.3081   -1.9828   -0.5262 H   0  0  0  0  0  0  0  0  0  0  0  0
   -6.6564   -2.6981   -0.8327 H   0  0  0  0  0  0  0  0  0  0  0  0
   -8.9815   -3.3954   -0.4098 H   0  0  0  0  0  0  0  0  0  0  0  0
   -9.3939   -0.3466    2.4735 H   0  0  0  0  0  0  0  0  0  0  0  0
   -7.0203    0.3813    2.0555 H   0  0  0  0  0  0  0  0  0  0  0  0
  -10.7103   -4.2131    0.3392 H   0  0  0  0  0  0  0  0  0  0  0  0
    0.6724    4.0059   -1.2140 H   0  0  0  0  0  0  0  0  0  0  0  0
    2.0171    5.9831   -0.7808 H   0  0  0  0  0  0  0  0  0  0  0  0
    4.1392    3.8410    2.2249 H   0  0  0  0  0  0  0  0  0  0  0  0
    2.7753    1.8404    1.7892 H   0  0  0  0  0  0  0  0  0  0  0  0
  1  2  1  0
  2  3  2  0
  3  4  1  0
  4  5  2  0
  5  6  1  0
  6  7  2  0
  7  8  1  0
  8  9  1  0
  9 10  1  0
 10 11  1  0
 11 12  1  0
 12 13  1  0
 13 14  1  0
 12 15  1  0
 15 16  1  0
 16 17  2  0
 16 18  1  0
 18 19  1  0
 19 20  2  0
 18 21  1  0
 21 22  2  0
 22 23  1  0
 23 24  2  0
 24 25  1  0
 25 26  2  0
 24 27  1  0
 27 28  2  0
 28 29  1  0
 29 30  2  0
 30 31  1  0
 31 32  2  0
 30 33  1  0
 33 34  1  0
 33 35  2  0
 15 36  1  0
 36 37  2  0
 37 38  1  0
 38 39  2  0
 39 40  1  0
 40 41  2  0
 39 42  1  0
 42 43  3  0
  7  2  1  0
 14  9  1  0
 26 21  1  0
 32 27  1  0
 41 36  1  0
 19 12  1  0
  1 44  1  0
  1 45  1  0
  1 46  1  0
  3 47  1  0
  4 48  1  0
  5 49  1  0
  8 50  1  0
  8 51  1  0
 10 52  1  0
 10 53  1  0
 11 54  1  0
 11 55  1  0
 13 56  1  0
 13 57  1  0
 14 58  1  0
 14 59  1  0
 22 60  1  0
 23 61  1  0
 25 62  1  0
 26 63  1  0
 28 64  1  0
 29 65  1  0
 31 66  1  0
 32 67  1  0
 34 68  1  0
 37 69  1  0
 38 70  1  0
 40 71  1  0
 41 72  1  0
M  END
$$$$
[H]ON([H])C(=O)C([H])([H])C([H])([H])C([H])([H])C([H])([H])C([H])([H])C([H])([H])C(=O)N([H])c1c([H])c([H])c([H])c(-c2nnn(-c3c([H])c([H])c([H])c(F)c3[H])c2[H])c1[H]
     RDKit          3D

 55 57  0  0  0  0  0  0  0  0999 V2000
    5.3369   -2.2423   -3.4650 O   0  0  0  0  0  0  0  0  0  0  0  0
    6.1436   -2.3111   -2.3823 N   0  0  0  0  0  0  0  0  0  0  0  0
    6.1790   -1.2038   -1.4417 C   0  0  0  0  0  0  0  0  0  0  0  0
    5.4541   -0.2505   -1.6963 O   0  0  0  0  0  0  0  0  0  0  0  0
    7.0584   -1.3364   -0.3102 C   0  0  0  0  0  0  0  0  0  0  0  0
    6.8994   -0.4890    0.8787 C   0  0  0  0  0  0  0  0  0  0  0  0
    5.7270   -0.5826    1.7435 C   0  0  0  0  0  0  0  0  0  0  0  0
    4.3695   -0.2133    1.3568 C   0  0  0  0  0  0  0  0  0  0  0  0
    4.1057    1.2398    1.0677 C   0  0  0  0  0  0  0  0  0  0  0  0
    2.7244    1.5601    0.6432 C   0  0  0  0  0  0  0  0  0  0  0  0
    1.6472    1.2830    1.6044 C   0  0  0  0  0  0  0  0  0  0  0  0
    1.8785    0.9558    2.7877 O   0  0  0  0  0  0  0  0  0  0  0  0
    0.3123    1.3924    1.1617 N   0  0  0  0  0  0  0  0  0  0  0  0
   -0.8630    1.1814    1.8896 C   0  0  0  0  0  0  0  0  0  0  0  0
   -0.9144    1.2080    3.2549 C   0  0  0  0  0  0  0  0  0  0  0  0
   -2.1138    0.9549    3.8914 C   0  0  0  0  0  0  0  0  0  0  0  0
   -3.2437    0.6797    3.1580 C   0  0  0  0  0  0  0  0  0  0  0  0
   -3.2437    0.6415    1.7805 C   0  0  0  0  0  0  0  0  0  0  0  0
   -2.0348    0.8977    1.1778 C   0  0  0  0  0  0  0  0  0  0  0  0
   -4.4533    0.3359    1.0261 C   0  0  0  0  0  0  0  0  0  0  0  0
   -4.6551    0.2460   -0.3128 C   0  0  0  0  0  0  0  0  0  0  0  0
   -5.9522   -0.0697   -0.5034 N   0  0  0  0  0  0  0  0  0  0  0  0
   -6.5662   -0.1791    0.6848 N   0  0  0  0  0  0  0  0  0  0  0  0
   -5.6469    0.0690    1.6027 N   0  0  0  0  0  0  0  0  0  0  0  0
   -6.6080   -0.2673   -1.7475 C   0  0  0  0  0  0  0  0  0  0  0  0
   -6.3727   -1.4164   -2.4919 C   0  0  0  0  0  0  0  0  0  0  0  0
   -7.0223   -1.5789   -3.6926 C   0  0  0  0  0  0  0  0  0  0  0  0
   -7.9044   -0.6319   -4.1834 C   0  0  0  0  0  0  0  0  0  0  0  0
   -8.1153    0.4963   -3.4211 C   0  0  0  0  0  0  0  0  0  0  0  0
   -8.9925    1.4140   -3.9328 F   0  0  0  0  0  0  0  0  0  0  0  0
   -7.4788    0.6771   -2.2232 C   0  0  0  0  0  0  0  0  0  0  0  0
    4.6154   -1.5903   -3.2434 H   0  0  0  0  0  0  0  0  0  0  0  0
    6.7337   -3.1263   -2.2054 H   0  0  0  0  0  0  0  0  0  0  0  0
    7.1583   -2.4483   -0.0018 H   0  0  0  0  0  0  0  0  0  0  0  0
    8.1252   -1.1951   -0.7476 H   0  0  0  0  0  0  0  0  0  0  0  0
    7.8691   -0.6364    1.4854 H   0  0  0  0  0  0  0  0  0  0  0  0
    7.0383    0.5966    0.5482 H   0  0  0  0  0  0  0  0  0  0  0  0
    5.6822   -1.6448    2.2142 H   0  0  0  0  0  0  0  0  0  0  0  0
    5.9968    0.0020    2.7098 H   0  0  0  0  0  0  0  0  0  0  0  0
    3.9515   -0.8895    0.5813 H   0  0  0  0  0  0  0  0  0  0  0  0
    3.7016   -0.4457    2.2579 H   0  0  0  0  0  0  0  0  0  0  0  0
    4.8292    1.6045    0.3332 H   0  0  0  0  0  0  0  0  0  0  0  0
    4.2538    1.7733    2.0671 H   0  0  0  0  0  0  0  0  0  0  0  0
    2.4908    0.9238   -0.2667 H   0  0  0  0  0  0  0  0  0  0  0  0
    2.5899    2.5959    0.2817 H   0  0  0  0  0  0  0  0  0  0  0  0
    0.1842    1.6792    0.1359 H   0  0  0  0  0  0  0  0  0  0  0  0
   -0.0839    1.4246    3.8948 H   0  0  0  0  0  0  0  0  0  0  0  0
   -2.1323    0.9811    4.9849 H   0  0  0  0  0  0  0  0  0  0  0  0
   -4.1666    0.4865    3.6788 H   0  0  0  0  0  0  0  0  0  0  0  0
   -1.9917    0.8788    0.0990 H   0  0  0  0  0  0  0  0  0  0  0  0
   -3.8917    0.4051   -1.0611 H   0  0  0  0  0  0  0  0  0  0  0  0
   -5.6828   -2.1668   -2.1162 H   0  0  0  0  0  0  0  0  0  0  0  0
   -6.8555   -2.4675   -4.2941 H   0  0  0  0  0  0  0  0  0  0  0  0
   -8.4077   -0.7703   -5.1261 H   0  0  0  0  0  0  0  0  0  0  0  0
   -7.6628    1.5694   -1.6518 H   0  0  0  0  0  0  0  0  0  0  0  0
  1  2  1  0
  2  3  1  0
  3  4  2  0
  3  5  1  0
  5  6  1  0
  6  7  1  0
  7  8  1  0
  8  9  1  0
  9 10  1  0
 10 11  1  0
 11 12  2  0
 11 13  1  0
 13 14  1  0
 14 15  2  0
 15 16  1  0
 16 17  2  0
 17 18  1  0
 18 19  2  0
 18 20  1  0
 20 21  2  0
 21 22  1  0
 22 23  1  0
 23 24  2  0
 22 25  1  0
 25 26  2  0
 26 27  1  0
 27 28  2  0
 28 29  1  0
 29 30  1  0
 29 31  2  0
 19 14  1  0
 24 20  1  0
 31 25  1  0
  1 32  1  0
  2 33  1  0
  5 34  1  0
  5 35  1  0
  6 36  1  0
  6 37  1  0
  7 38  1  0
  7 39  1  0
  8 40  1  0
  8 41  1  0
  9 42  1  0
  9 43  1  0
 10 44  1  0
 10 45  1  0
 13 46  1  0
 15 47  1  0
 16 48  1  0
 17 49  1  0
 19 50  1  0
 21 51  1  0
 26 52  1  0
 27 53  1  0
 28 54  1  0
 31 55  1  0
M  END
$$$$
[H]OC(=O)c1c([H])c([H])c(N2C([H])([H])C([H])([H])N(c3c([H])c([H])c([H])c([H])c3[H])C([H])([H])[C@@]2([H])C([H])(C([H])([H])[H])C([H])([H])[H])c([H])c1C(F)(F)F
     RDKit          3D

 51 53  0  0  0  0  0  0  0  0999 V2000
    1.8116   -2.2740   -1.6267 C   0  0  0  0  0  0  0  0  0  0  0  0
    0.9689   -1.8725   -0.4341 C   0  0  0  0  0  0  0  0  0  0  0  0
    0.0422   -2.9754   -0.0680 C   0  0  0  0  0  0  0  0  0  0  0  0
    0.3000   -0.5543   -0.6872 C   0  0  2  0  0  0  0  0  0  0  0  0
    1.3910    0.4926   -0.9250 C   0  0  0  0  0  0  0  0  0  0  0  0
    1.9894    0.9292    0.3149 N   0  0  0  0  0  0  0  0  0  0  0  0
    1.0893    1.3587    1.3565 C   0  0  0  0  0  0  0  0  0  0  0  0
    0.1251    0.2002    1.6249 C   0  0  0  0  0  0  0  0  0  0  0  0
   -0.5492   -0.1120    0.3776 N   0  0  0  0  0  0  0  0  0  0  0  0
   -1.9513    0.0553    0.2948 C   0  0  0  0  0  0  0  0  0  0  0  0
   -2.7921   -0.0033    1.3850 C   0  0  0  0  0  0  0  0  0  0  0  0
   -4.1444    0.1785    1.2950 C   0  0  0  0  0  0  0  0  0  0  0  0
   -4.7682    0.4405    0.0614 C   0  0  0  0  0  0  0  0  0  0  0  0
   -6.2129    0.6441    0.0476 C   0  0  0  0  0  0  0  0  0  0  0  0
   -6.9056    0.4228    1.2800 O   0  0  0  0  0  0  0  0  0  0  0  0
   -6.9546    0.9807   -0.8633 O   0  0  0  0  0  0  0  0  0  0  0  0
   -3.9436    0.5000   -1.0283 C   0  0  0  0  0  0  0  0  0  0  0  0
   -2.5480    0.3104   -0.9178 C   0  0  0  0  0  0  0  0  0  0  0  0
   -4.5250    0.7560   -2.3733 C   0  0  0  0  0  0  0  0  0  0  0  0
   -5.4343   -0.2048   -2.7653 F   0  0  0  0  0  0  0  0  0  0  0  0
   -3.4612    0.5741   -3.2962 F   0  0  0  0  0  0  0  0  0  0  0  0
   -4.9783    2.0354   -2.4546 F   0  0  0  0  0  0  0  0  0  0  0  0
    3.3788    0.9565    0.4916 C   0  0  0  0  0  0  0  0  0  0  0  0
    4.0003    0.9353    1.7257 C   0  0  0  0  0  0  0  0  0  0  0  0
    5.3838    0.9809    1.8803 C   0  0  0  0  0  0  0  0  0  0  0  0
    6.1985    1.0504    0.7754 C   0  0  0  0  0  0  0  0  0  0  0  0
    5.5867    1.0716   -0.4516 C   0  0  0  0  0  0  0  0  0  0  0  0
    4.2203    1.0272   -0.6165 C   0  0  0  0  0  0  0  0  0  0  0  0
    1.4454   -1.6874   -2.4944 H   0  0  0  0  0  0  0  0  0  0  0  0
    2.8850   -1.9962   -1.4916 H   0  0  0  0  0  0  0  0  0  0  0  0
    1.7038   -3.3551   -1.8604 H   0  0  0  0  0  0  0  0  0  0  0  0
    1.6964   -1.7490    0.4174 H   0  0  0  0  0  0  0  0  0  0  0  0
   -0.0212   -3.1468    1.0137 H   0  0  0  0  0  0  0  0  0  0  0  0
    0.4458   -3.9329   -0.5049 H   0  0  0  0  0  0  0  0  0  0  0  0
   -0.9749   -2.8703   -0.5415 H   0  0  0  0  0  0  0  0  0  0  0  0
   -0.2714   -0.6487   -1.6216 H   0  0  0  0  0  0  0  0  0  0  0  0
    2.1887   -0.0792   -1.4846 H   0  0  0  0  0  0  0  0  0  0  0  0
    1.0293    1.3282   -1.5433 H   0  0  0  0  0  0  0  0  0  0  0  0
    1.5750    1.6318    2.3067 H   0  0  0  0  0  0  0  0  0  0  0  0
    0.4464    2.2073    1.0187 H   0  0  0  0  0  0  0  0  0  0  0  0
   -0.5078    0.5244    2.4403 H   0  0  0  0  0  0  0  0  0  0  0  0
    0.6748   -0.7084    1.9401 H   0  0  0  0  0  0  0  0  0  0  0  0
   -2.3076   -0.2184    2.3523 H   0  0  0  0  0  0  0  0  0  0  0  0
   -4.7525    0.1227    2.1785 H   0  0  0  0  0  0  0  0  0  0  0  0
   -7.0536    1.1918    1.9207 H   0  0  0  0  0  0  0  0  0  0  0  0
   -1.9644    0.3774   -1.8173 H   0  0  0  0  0  0  0  0  0  0  0  0
    3.3805    0.8755    2.6158 H   0  0  0  0  0  0  0  0  0  0  0  0
    5.7955    0.9607    2.8785 H   0  0  0  0  0  0  0  0  0  0  0  0
    7.2686    1.0875    0.8415 H   0  0  0  0  0  0  0  0  0  0  0  0
    6.1995    1.1263   -1.3533 H   0  0  0  0  0  0  0  0  0  0  0  0
    3.8014    1.0546   -1.6141 H   0  0  0  0  0  0  0  0  0  0  0  0
  1  2  1  0
  2  3  1  0
  2  4  1  0
  4  5  1  0
  5  6  1  0
  6  7  1  0
  7  8  1  0
  8  9  1  0
  9 10  1  0
 10 11  2  0
 11 12  1  0
 12 13  2  0
 13 14  1  0
 14 15  1  0
 14 16  2  0
 13 17  1  0
 17 18  2  0
 17 19  1  0
 19 20  1  0
 19 21  1  0
 19 22  1  0
  6 23  1  0
 23 24  2  0
 24 25  1  0
 25 26  2  0
 26 27  1  0
 27 28  2  0
  9  4  1  0
 18 10  1  0
 28 23  1  0
  1 29  1  0
  1 30  1  0
  1 31  1  0
  2 32  1  0
  3 33  1  0
  3 34  1  0
  3 35  1  0
  4 36  1  6
  5 37  1  0
  5 38  1  0
  7 39  1  0
  7 40  1  0
  8 41  1  0
  8 42  1  0
 11 43  1  0
 12 44  1  0
 15 45  1  0
 18 46  1  0
 24 47  1  0
 25 48  1  0
 26 49  1  0
 27 50  1  0
 28 51  1  0
M  END
$$$$
[H]OC(=O)c1[se]c(-c2c([H])c([H])c(C([H])([H])[H])c(C#N)c2[H])nc1C([H])([H])[H]
     RDKit          3D

 28 29  0  0  0  0  0  0  0  0999 V2000
   -5.0226   -0.4617   -0.0154 C   0  0  0  0  0  0  0  0  0  0  0  0
   -3.5407   -0.3436   -0.0368 C   0  0  0  0  0  0  0  0  0  0  0  0
   -2.7534   -1.3758    0.4102 C   0  0  0  0  0  0  0  0  0  0  0  0
   -1.3913   -1.2500    0.3833 C   0  0  0  0  0  0  0  0  0  0  0  0
   -0.8062   -0.1195   -0.0789 C   0  0  0  0  0  0  0  0  0  0  0  0
   -1.6019    0.9090   -0.5246 C   0  0  0  0  0  0  0  0  0  0  0  0
   -2.9772    0.8204   -0.5135 C   0  0  0  0  0  0  0  0  0  0  0  0
   -3.7844    1.8974   -0.9796 C   0  0  0  0  0  0  0  0  0  0  0  0
   -4.4457    2.7639   -1.3691 N   0  0  0  0  0  0  0  0  0  0  0  0
    0.6281   -0.0806   -0.0680 C   0  0  0  0  0  0  0  0  0  0  0  0
    1.6796   -0.7081    0.2147 N   0  0  0  0  0  0  0  0  0  0  0  0
    2.9047   -0.4794    0.1421 C   0  0  0  0  0  0  0  0  0  0  0  0
    3.9581   -1.5058    0.5922 C   0  0  0  0  0  0  0  0  0  0  0  0
    3.4576    0.6643   -0.3264 C   0  0  0  0  0  0  0  0  0  0  0  0
    1.6725    1.6513   -0.7736 Se  0  0  0  0  0  2  0  0  0  0  0  0
    4.7626    1.2111   -0.5307 C   0  0  0  0  0  0  0  0  0  0  0  0
    4.9966    2.4817   -1.0583 O   0  0  0  0  0  0  0  0  0  0  0  0
    5.7723    0.5365   -0.2290 O   0  0  0  0  0  0  0  0  0  0  0  0
   -5.4484    0.3363    0.6310 H   0  0  0  0  0  0  0  0  0  0  0  0
   -5.4682   -0.3158   -1.0222 H   0  0  0  0  0  0  0  0  0  0  0  0
   -5.3128   -1.4311    0.4348 H   0  0  0  0  0  0  0  0  0  0  0  0
   -3.2318   -2.2631    0.7726 H   0  0  0  0  0  0  0  0  0  0  0  0
   -0.7893   -2.0884    0.7457 H   0  0  0  0  0  0  0  0  0  0  0  0
   -1.1084    1.8051   -0.8904 H   0  0  0  0  0  0  0  0  0  0  0  0
    4.6708   -1.7012   -0.2238 H   0  0  0  0  0  0  0  0  0  0  0  0
    4.4963   -1.0378    1.4386 H   0  0  0  0  0  0  0  0  0  0  0  0
    3.5239   -2.4485    0.8943 H   0  0  0  0  0  0  0  0  0  0  0  0
    5.1593    2.5334   -2.0635 H   0  0  0  0  0  0  0  0  0  0  0  0
  1  2  1  0
  2  3  2  0
  3  4  1  0
  4  5  2  0
  5  6  1  0
  6  7  2  0
  7  8  1  0
  8  9  3  0
  5 10  1  0
 10 11  2  0
 11 12  1  0
 12 13  1  0
 12 14  2  0
 14 15  1  0
 14 16  1  0
 16 17  1  0
 16 18  2  0
  7  2  1  0
 15 10  1  0
  1 19  1  0
  1 20  1  0
  1 21  1  0
  3 22  1  0
  4 23  1  0
  6 24  1  0
 13 25  1  0
 13 26  1  0
 13 27  1  0
 17 28  1  0
M  END
$$$$
[H]c1c([H])c([H])c2c(c1[H])c1c3c(c4c5c([H])c([H])c([H])c([H])c5n5c4c1n2[C@@]1([H])O[C@]5(C([H])([H])[H])[C@@]([H])(OC([H])([H])[H])[C@@]([H])(N([H])C([H])([H])[H])C1([H])[H])C([H])([H])N([H])C3=O
     RDKit          3D

 61 68  0  0  0  0  0  0  0  0999 V2000
   -2.5900    1.1246    2.6909 C   0  0  0  0  0  0  0  0  0  0  0  0
   -2.2701    0.1494    1.6691 N   0  0  0  0  0  0  0  0  0  0  0  0
   -2.7037    0.7256    0.3894 C   0  0  1  0  0  0  0  0  0  0  0  0
   -1.9693    1.9591    0.0600 C   0  0  0  0  0  0  0  0  0  0  0  0
   -1.0374    1.8542   -1.1025 C   0  0  2  0  0  0  0  0  0  0  0  0
   -1.1108    0.8211   -1.8978 O   0  0  0  0  0  0  0  0  0  0  0  0
   -1.4719   -0.4453   -1.4993 C   0  0  2  0  0  0  0  0  0  0  0  0
   -1.8587   -1.0747   -2.8537 C   0  0  0  0  0  0  0  0  0  0  0  0
   -2.6627   -0.3659   -0.6565 C   0  0  1  0  0  0  0  0  0  0  0  0
   -3.0555   -1.5061    0.0270 O   0  0  0  0  0  0  0  0  0  0  0  0
   -4.3079   -1.9695   -0.2639 C   0  0  0  0  0  0  0  0  0  0  0  0
   -0.3020   -1.1026   -0.9411 N   0  0  0  0  0  0  0  0  0  0  0  0
   -0.0368   -2.4107   -0.8661 C   0  0  0  0  0  0  0  0  0  0  0  0
   -0.7505   -3.5118   -1.2342 C   0  0  0  0  0  0  0  0  0  0  0  0
   -0.2313   -4.7829   -1.0386 C   0  0  0  0  0  0  0  0  0  0  0  0
    1.0025   -5.0019   -0.4761 C   0  0  0  0  0  0  0  0  0  0  0  0
    1.7444   -3.8826   -0.0939 C   0  0  0  0  0  0  0  0  0  0  0  0
    1.2038   -2.6348   -0.3003 C   0  0  0  0  0  0  0  0  0  0  0  0
    1.7282   -1.3877   -0.0109 C   0  0  0  0  0  0  0  0  0  0  0  0
    2.9250   -0.9637    0.5498 C   0  0  0  0  0  0  0  0  0  0  0  0
    4.0703   -1.7821    1.0519 C   0  0  0  0  0  0  0  0  0  0  0  0
    5.0490   -0.8360    1.5052 N   0  0  0  0  0  0  0  0  0  0  0  0
    4.5511    0.4878    1.3292 C   0  0  0  0  0  0  0  0  0  0  0  0
    5.2116    1.4752    1.6612 O   0  0  0  0  0  0  0  0  0  0  0  0
    3.2325    0.3685    0.7340 C   0  0  0  0  0  0  0  0  0  0  0  0
    2.2736    1.2731    0.3281 C   0  0  0  0  0  0  0  0  0  0  0  0
    2.1943    2.6494    0.3519 C   0  0  0  0  0  0  0  0  0  0  0  0
    3.0346    3.6410    0.7719 C   0  0  0  0  0  0  0  0  0  0  0  0
    2.6237    4.9672    0.6424 C   0  0  0  0  0  0  0  0  0  0  0  0
    1.4040    5.3207    0.1079 C   0  0  0  0  0  0  0  0  0  0  0  0
    0.5569    4.3176   -0.3154 C   0  0  0  0  0  0  0  0  0  0  0  0
    0.9564    3.0255   -0.1896 C   0  0  0  0  0  0  0  0  0  0  0  0
    0.3179    1.9031   -0.5262 N   0  0  0  0  0  0  0  0  0  0  0  0
    1.0813    0.8475   -0.2300 C   0  0  0  0  0  0  0  0  0  0  0  0
    0.8029   -0.4946   -0.4048 C   0  0  0  0  0  0  0  0  0  0  0  0
   -1.7275    1.7656    2.9459 H   0  0  0  0  0  0  0  0  0  0  0  0
   -3.4000    1.7830    2.2910 H   0  0  0  0  0  0  0  0  0  0  0  0
   -3.0290    0.6437    3.5924 H   0  0  0  0  0  0  0  0  0  0  0  0
   -2.7602   -0.7186    1.9035 H   0  0  0  0  0  0  0  0  0  0  0  0
   -3.7998    0.9480    0.5957 H   0  0  0  0  0  0  0  0  0  0  0  0
   -1.4594    2.3204    1.0029 H   0  0  0  0  0  0  0  0  0  0  0  0
   -2.7065    2.7776   -0.1658 H   0  0  0  0  0  0  0  0  0  0  0  0
   -1.0912    2.7965   -1.7221 H   0  0  0  0  0  0  0  0  0  0  0  0
   -2.0056   -0.3257   -3.6573 H   0  0  0  0  0  0  0  0  0  0  0  0
   -1.0068   -1.6950   -3.1940 H   0  0  0  0  0  0  0  0  0  0  0  0
   -2.8277   -1.6039   -2.8044 H   0  0  0  0  0  0  0  0  0  0  0  0
   -3.5358   -0.1252   -1.3381 H   0  0  0  0  0  0  0  0  0  0  0  0
   -4.4650   -2.8889    0.3782 H   0  0  0  0  0  0  0  0  0  0  0  0
   -4.4865   -2.3125   -1.2897 H   0  0  0  0  0  0  0  0  0  0  0  0
   -5.1216   -1.2643    0.0633 H   0  0  0  0  0  0  0  0  0  0  0  0
   -1.7208   -3.3825   -1.6725 H   0  0  0  0  0  0  0  0  0  0  0  0
   -0.8491   -5.6109   -1.3524 H   0  0  0  0  0  0  0  0  0  0  0  0
    1.4213   -5.9802   -0.3168 H   0  0  0  0  0  0  0  0  0  0  0  0
    2.7206   -4.0420    0.3513 H   0  0  0  0  0  0  0  0  0  0  0  0
    3.7648   -2.4865    1.8473 H   0  0  0  0  0  0  0  0  0  0  0  0
    4.5351   -2.3717    0.2322 H   0  0  0  0  0  0  0  0  0  0  0  0
    5.9960   -1.0989    1.9084 H   0  0  0  0  0  0  0  0  0  0  0  0
    3.9823    3.4684    1.1903 H   0  0  0  0  0  0  0  0  0  0  0  0
    3.2909    5.7541    0.9750 H   0  0  0  0  0  0  0  0  0  0  0  0
    1.0902    6.3566    0.0099 H   0  0  0  0  0  0  0  0  0  0  0  0
   -0.4140    4.5350   -0.7434 H   0  0  0  0  0  0  0  0  0  0  0  0
  1  2  1  0
  2  3  1  0
  3  4  1  0
  4  5  1  0
  5  6  1  0
  6  7  1  0
  7  8  1  6
  7  9  1  0
  9 10  1  0
 10 11  1  0
  7 12  1  0
 12 13  1  0
 13 14  2  0
 14 15  1  0
 15 16  2  0
 16 17  1  0
 17 18  2  0
 18 19  1  0
 19 20  2  0
 20 21  1  0
 21 22  1  0
 22 23  1  0
 23 24  2  0
 23 25  1  0
 25 26  2  0
 26 27  1  0
 27 28  2  0
 28 29  1  0
 29 30  2  0
 30 31  1  0
 31 32  2  0
 32 33  1  0
 33 34  1  0
 34 35  2  0
  9  3  1  0
 35 12  1  0
 33  5  1  0
 18 13  1  0
 35 19  1  0
 25 20  1  0
 34 26  1  0
 32 27  1  0
  1 36  1  0
  1 37  1  0
  1 38  1  0
  2 39  1  0
  3 40  1  1
  4 41  1  0
  4 42  1  0
  5 43  1  6
  8 44  1  0
  8 45  1  0
  8 46  1  0
  9 47  1  6
 11 48  1  0
 11 49  1  0
 11 50  1  0
 14 51  1  0
 15 52  1  0
 16 53  1  0
 17 54  1  0
 21 55  1  0
 21 56  1  0
 22 57  1  0
 28 58  1  0
 29 59  1  0
 30 60  1  0
 31 61  1  0
M  END
$$$$
[H]OC(=O)[C@]([H])(N([H])C(=O)[C@@]([H])(N([H])C(=O)c1c([H])c(OC([H])([H])[H])c(OC([H])([H])[H])c(OC([H])([H])[H])c1[H])C([H])([H])c1c([H])c([H])c([H])c([H])c1[H])C([H])([H])c1c([H])c([H])c(O[H])c([H])c1[H]
     RDKit          3D

 68 70  0  0  0  0  0  0  0  0999 V2000
   -4.4339   -1.6151   -5.3784 C   0  0  0  0  0  0  0  0  0  0  0  0
   -5.1009   -2.0364   -4.2081 O   0  0  0  0  0  0  0  0  0  0  0  0
   -4.7459   -1.5330   -2.9714 C   0  0  0  0  0  0  0  0  0  0  0  0
   -3.7560   -0.6111   -2.7535 C   0  0  0  0  0  0  0  0  0  0  0  0
   -3.4449   -0.1451   -1.5035 C   0  0  0  0  0  0  0  0  0  0  0  0
   -4.1687   -0.6286   -0.4148 C   0  0  0  0  0  0  0  0  0  0  0  0
   -5.1705   -1.5517   -0.5880 C   0  0  0  0  0  0  0  0  0  0  0  0
   -5.9048   -2.0375    0.5114 O   0  0  0  0  0  0  0  0  0  0  0  0
   -5.5555   -1.5222    1.8000 C   0  0  0  0  0  0  0  0  0  0  0  0
   -5.4443   -1.9870   -1.8463 C   0  0  0  0  0  0  0  0  0  0  0  0
   -6.4522   -2.9299   -2.0372 O   0  0  0  0  0  0  0  0  0  0  0  0
   -5.9845   -4.2968   -1.9611 C   0  0  0  0  0  0  0  0  0  0  0  0
   -2.3880    0.8424   -1.3138 C   0  0  0  0  0  0  0  0  0  0  0  0
   -2.2424    1.7392   -2.1549 O   0  0  0  0  0  0  0  0  0  0  0  0
   -1.5849    0.7352   -0.1882 N   0  0  0  0  0  0  0  0  0  0  0  0
   -0.4604    1.6692    0.1620 C   0  0  1  0  0  0  0  0  0  0  0  0
   -0.8217    2.3693    1.4018 C   0  0  0  0  0  0  0  0  0  0  0  0
    0.1307    3.3589    1.8773 C   0  0  0  0  0  0  0  0  0  0  0  0
    0.2419    4.5383    1.1549 C   0  0  0  0  0  0  0  0  0  0  0  0
    1.0248    5.5785    1.5944 C   0  0  0  0  0  0  0  0  0  0  0  0
    1.7342    5.4694    2.7857 C   0  0  0  0  0  0  0  0  0  0  0  0
    1.6272    4.3064    3.4990 C   0  0  0  0  0  0  0  0  0  0  0  0
    0.8365    3.2614    3.0553 C   0  0  0  0  0  0  0  0  0  0  0  0
    0.7819    0.9943   -0.0350 C   0  0  0  0  0  0  0  0  0  0  0  0
    0.7138   -0.1819   -0.6622 O   0  0  0  0  0  0  0  0  0  0  0  0
    2.0853    1.3373    0.3059 N   0  0  0  0  0  0  0  0  0  0  0  0
    3.2132    0.4289   -0.0635 C   0  0  2  0  0  0  0  0  0  0  0  0
    3.5358   -0.3443    1.1774 C   0  0  0  0  0  0  0  0  0  0  0  0
    4.6207   -1.3191    1.0423 C   0  0  0  0  0  0  0  0  0  0  0  0
    4.3397   -2.5856    0.5993 C   0  0  0  0  0  0  0  0  0  0  0  0
    5.3631   -3.5083    0.4935 C   0  0  0  0  0  0  0  0  0  0  0  0
    6.6689   -3.1796    0.8280 C   0  0  0  0  0  0  0  0  0  0  0  0
    7.6458   -4.1664    0.6970 O   0  0  0  0  0  0  0  0  0  0  0  0
    6.9411   -1.9074    1.2725 C   0  0  0  0  0  0  0  0  0  0  0  0
    5.9099   -1.0089    1.3672 C   0  0  0  0  0  0  0  0  0  0  0  0
    4.3299    1.2087   -0.5721 C   0  0  0  0  0  0  0  0  0  0  0  0
    5.4904    0.6987   -1.0972 O   0  0  0  0  0  0  0  0  0  0  0  0
    4.2647    2.5021   -0.5493 O   0  0  0  0  0  0  0  0  0  0  0  0
   -3.3268   -1.4703   -5.2175 H   0  0  0  0  0  0  0  0  0  0  0  0
   -4.8216   -0.5754   -5.6288 H   0  0  0  0  0  0  0  0  0  0  0  0
   -4.6507   -2.2533   -6.2592 H   0  0  0  0  0  0  0  0  0  0  0  0
   -3.1830   -0.2361   -3.6229 H   0  0  0  0  0  0  0  0  0  0  0  0
   -3.8921   -0.2277    0.5572 H   0  0  0  0  0  0  0  0  0  0  0  0
   -6.3732   -1.7104    2.5241 H   0  0  0  0  0  0  0  0  0  0  0  0
   -5.5281   -0.3943    1.6480 H   0  0  0  0  0  0  0  0  0  0  0  0
   -4.5576   -1.8645    2.1440 H   0  0  0  0  0  0  0  0  0  0  0  0
   -5.3200   -4.4513   -2.8054 H   0  0  0  0  0  0  0  0  0  0  0  0
   -5.3706   -4.4164   -1.0227 H   0  0  0  0  0  0  0  0  0  0  0  0
   -6.8138   -4.9929   -1.9075 H   0  0  0  0  0  0  0  0  0  0  0  0
   -1.6966   -0.0092    0.5184 H   0  0  0  0  0  0  0  0  0  0  0  0
   -0.6216    2.4682   -0.6769 H   0  0  0  0  0  0  0  0  0  0  0  0
   -1.8550    2.8645    1.2826 H   0  0  0  0  0  0  0  0  0  0  0  0
   -1.0135    1.6552    2.2670 H   0  0  0  0  0  0  0  0  0  0  0  0
   -0.2960    4.6501    0.2140 H   0  0  0  0  0  0  0  0  0  0  0  0
    1.0856    6.4776    1.0029 H   0  0  0  0  0  0  0  0  0  0  0  0
    2.3530    6.3049    3.1181 H   0  0  0  0  0  0  0  0  0  0  0  0
    2.1811    4.2135    4.4416 H   0  0  0  0  0  0  0  0  0  0  0  0
    0.7873    2.3597    3.6732 H   0  0  0  0  0  0  0  0  0  0  0  0
    2.3280    2.2032    0.8057 H   0  0  0  0  0  0  0  0  0  0  0  0
    2.8072   -0.2571   -0.8364 H   0  0  0  0  0  0  0  0  0  0  0  0
    2.5692   -0.8528    1.5028 H   0  0  0  0  0  0  0  0  0  0  0  0
    3.7544    0.3724    2.0146 H   0  0  0  0  0  0  0  0  0  0  0  0
    3.3435   -2.9328    0.3144 H   0  0  0  0  0  0  0  0  0  0  0  0
    5.1912   -4.5195    0.1397 H   0  0  0  0  0  0  0  0  0  0  0  0
    8.5998   -3.8737    0.9515 H   0  0  0  0  0  0  0  0  0  0  0  0
    7.9566   -1.6090    1.5412 H   0  0  0  0  0  0  0  0  0  0  0  0
    6.1425   -0.0054    1.7229 H   0  0  0  0  0  0  0  0  0  0  0  0
    6.3809    1.1401   -1.0473 H   0  0  0  0  0  0  0  0  0  0  0  0
  1  2  1  0
  2  3  1  0
  3  4  2  0
  4  5  1  0
  5  6  2  0
  6  7  1  0
  7  8  1  0
  8  9  1  0
  7 10  2  0
 10 11  1  0
 11 12  1  0
  5 13  1  0
 13 14  2  0
 13 15  1  0
 15 16  1  0
 16 17  1  0
 17 18  1  0
 18 19  2  0
 19 20  1  0
 20 21  2  0
 21 22  1  0
 22 23  2  0
 16 24  1  0
 24 25  2  0
 24 26  1  0
 26 27  1  0
 27 28  1  0
 28 29  1  0
 29 30  2  0
 30 31  1  0
 31 32  2  0
 32 33  1  0
 32 34  1  0
 34 35  2  0
 27 36  1  0
 36 37  1  0
 36 38  2  0
 10  3  1  0
 23 18  1  0
 35 29  1  0
  1 39  1  0
  1 40  1  0
  1 41  1  0
  4 42  1  0
  6 43  1  0
  9 44  1  0
  9 45  1  0
  9 46  1  0
 12 47  1  0
 12 48  1  0
 12 49  1  0
 15 50  1  0
 16 51  1  6
 17 52  1  0
 17 53  1  0
 19 54  1  0
 20 55  1  0
 21 56  1  0
 22 57  1  0
 23 58  1  0
 26 59  1  0
 27 60  1  6
 28 61  1  0
 28 62  1  0
 30 63  1  0
 31 64  1  0
 33 65  1  0
 34 66  1  0
 35 67  1  0
 37 68  1  0
M  END
$$$$
[H]c1c([H])c([H])c(-c2c([H])c([H])c([H])c(-c3c([H])c([H])c([H])c([H])c3N([H])S(=O)(=O)c3c([H])c([H])c(OC([H])([H])[H])c([H])c3[H])c2[H])c([H])c1[H]
     RDKit          3D

 51 54  0  0  0  0  0  0  0  0999 V2000
    7.6385    0.5916    1.9131 C   0  0  0  0  0  0  0  0  0  0  0  0
    7.1215    0.2643    0.6422 O   0  0  0  0  0  0  0  0  0  0  0  0
    5.7946   -0.1129    0.5452 C   0  0  0  0  0  0  0  0  0  0  0  0
    5.2576   -0.4395   -0.6817 C   0  0  0  0  0  0  0  0  0  0  0  0
    3.9229   -0.8187   -0.7777 C   0  0  0  0  0  0  0  0  0  0  0  0
    3.1132   -0.8772    0.3355 C   0  0  0  0  0  0  0  0  0  0  0  0
    3.6624   -0.5489    1.5515 C   0  0  0  0  0  0  0  0  0  0  0  0
    4.9905   -0.1660    1.6851 C   0  0  0  0  0  0  0  0  0  0  0  0
    1.4481   -1.3484    0.2277 S   0  0  0  0  0  0  0  0  0  0  0  0
    1.0853   -2.2057    1.4311 O   0  0  0  0  0  0  0  0  0  0  0  0
    1.3273   -2.2094   -1.0180 O   0  0  0  0  0  0  0  0  0  0  0  0
    0.3388   -0.0590    0.1415 N   0  0  0  0  0  0  0  0  0  0  0  0
    0.2905    0.9212   -0.8934 C   0  0  0  0  0  0  0  0  0  0  0  0
    1.3555    1.7862   -1.0365 C   0  0  0  0  0  0  0  0  0  0  0  0
    1.3969    2.7620   -2.0069 C   0  0  0  0  0  0  0  0  0  0  0  0
    0.3469    2.9010   -2.8807 C   0  0  0  0  0  0  0  0  0  0  0  0
   -0.7021    2.0611   -2.7508 C   0  0  0  0  0  0  0  0  0  0  0  0
   -0.7680    1.0574   -1.7687 C   0  0  0  0  0  0  0  0  0  0  0  0
   -1.9339    0.2064   -1.6790 C   0  0  0  0  0  0  0  0  0  0  0  0
   -2.3058   -0.5466   -2.7622 C   0  0  0  0  0  0  0  0  0  0  0  0
   -3.4467   -1.3622   -2.7219 C   0  0  0  0  0  0  0  0  0  0  0  0
   -4.1915   -1.3906   -1.5613 C   0  0  0  0  0  0  0  0  0  0  0  0
   -3.8314   -0.6375   -0.4596 C   0  0  0  0  0  0  0  0  0  0  0  0
   -2.6840    0.1662   -0.5386 C   0  0  0  0  0  0  0  0  0  0  0  0
   -4.6119   -0.6641    0.7653 C   0  0  0  0  0  0  0  0  0  0  0  0
   -5.2847   -1.7944    1.1630 C   0  0  0  0  0  0  0  0  0  0  0  0
   -6.0163   -1.7884    2.3288 C   0  0  0  0  0  0  0  0  0  0  0  0
   -6.0955   -0.6537    3.1284 C   0  0  0  0  0  0  0  0  0  0  0  0
   -5.4230    0.4810    2.7338 C   0  0  0  0  0  0  0  0  0  0  0  0
   -4.6838    0.4751    1.5559 C   0  0  0  0  0  0  0  0  0  0  0  0
    7.0704    1.4675    2.2752 H   0  0  0  0  0  0  0  0  0  0  0  0
    7.5090   -0.2477    2.6363 H   0  0  0  0  0  0  0  0  0  0  0  0
    8.7311    0.8127    1.8615 H   0  0  0  0  0  0  0  0  0  0  0  0
    5.8925   -0.3930   -1.5493 H   0  0  0  0  0  0  0  0  0  0  0  0
    3.5588   -1.0641   -1.7727 H   0  0  0  0  0  0  0  0  0  0  0  0
    3.0149   -0.5986    2.4213 H   0  0  0  0  0  0  0  0  0  0  0  0
    5.3975    0.0873    2.6538 H   0  0  0  0  0  0  0  0  0  0  0  0
   -0.3614    0.0419    0.9053 H   0  0  0  0  0  0  0  0  0  0  0  0
    2.2136    1.7183   -0.3509 H   0  0  0  0  0  0  0  0  0  0  0  0
    2.2598    3.4245   -2.0840 H   0  0  0  0  0  0  0  0  0  0  0  0
    0.3389    3.6633   -3.6677 H   0  0  0  0  0  0  0  0  0  0  0  0
   -1.5584    2.1273   -3.4146 H   0  0  0  0  0  0  0  0  0  0  0  0
   -1.7498   -0.5529   -3.6899 H   0  0  0  0  0  0  0  0  0  0  0  0
   -3.7323   -1.9510   -3.5771 H   0  0  0  0  0  0  0  0  0  0  0  0
   -5.0859   -2.0180   -1.5016 H   0  0  0  0  0  0  0  0  0  0  0  0
   -2.4833    0.7315    0.3532 H   0  0  0  0  0  0  0  0  0  0  0  0
   -5.2538   -2.6954    0.5790 H   0  0  0  0  0  0  0  0  0  0  0  0
   -6.5396   -2.6779    2.6317 H   0  0  0  0  0  0  0  0  0  0  0  0
   -6.6770   -0.6850    4.0340 H   0  0  0  0  0  0  0  0  0  0  0  0
   -5.4815    1.3688    3.3540 H   0  0  0  0  0  0  0  0  0  0  0  0
   -4.1753    1.3900    1.2913 H   0  0  0  0  0  0  0  0  0  0  0  0
  1  2  1  0
  2  3  1  0
  3  4  2  0
  4  5  1  0
  5  6  2  0
  6  7  1  0
  7  8  2  0
  6  9  1  0
  9 10  2  0
  9 11  2  0
  9 12  1  0
 12 13  1  0
 13 14  2  0
 14 15  1  0
 15 16  2  0
 16 17  1  0
 17 18  2  0
 18 19  1  0
 19 20  2  0
 20 21  1  0
 21 22  2  0
 22 23  1  0
 23 24  2  0
 23 25  1  0
 25 26  2  0
 26 27  1  0
 27 28  2  0
 28 29  1  0
 29 30  2  0
  8  3  1  0
 18 13  1  0
 24 19  1  0
 30 25  1  0
  1 31  1  0
  1 32  1  0
  1 33  1  0
  4 34  1  0
  5 35  1  0
  7 36  1  0
  8 37  1  0
 12 38  1  0
 14 39  1  0
 15 40  1  0
 16 41  1  0
 17 42  1  0
 20 43  1  0
 21 44  1  0
 22 45  1  0
 24 46  1  0
 26 47  1  0
 27 48  1  0
 28 49  1  0
 29 50  1  0
 30 51  1  0
M  END
$$$$
[H]C([H])=C([H])C(=O)N([H])[C@@]1([H])C([H])([H])N(c2nc(N([H])c3c([H])c([H])c(C4([H])C([H])([H])C([H])([H])N(C5([H])C([H])([H])C([H])([H])C([H])([H])C5([H])[H])C([H])([H])C4([H])[H])c([H])c3[H])c(C(=O)N([H])[H])nc2[H])C([H])([H])C([H])([H])C1([H])[H]
     RDKit          3D

 77 81  0  0  0  0  0  0  0  0999 V2000
   -4.6516    0.5756    5.8383 N   0  0  0  0  0  0  0  0  0  0  0  0
   -3.3835    0.4589    5.1416 C   0  0  0  0  0  0  0  0  0  0  0  0
   -2.4230    0.2785    5.8771 O   0  0  0  0  0  0  0  0  0  0  0  0
   -3.4612    0.5750    3.6950 C   0  0  0  0  0  0  0  0  0  0  0  0
   -4.6955    0.7390    3.1143 N   0  0  0  0  0  0  0  0  0  0  0  0
   -4.8471    0.8316    1.7952 C   0  0  0  0  0  0  0  0  0  0  0  0
   -3.7574    0.7661    0.9591 C   0  0  0  0  0  0  0  0  0  0  0  0
   -2.5470    0.6064    1.5031 N   0  0  0  0  0  0  0  0  0  0  0  0
   -2.3637    0.5086    2.8585 C   0  0  0  0  0  0  0  0  0  0  0  0
   -1.0718    0.4036    3.3838 N   0  0  0  0  0  0  0  0  0  0  0  0
    0.1297    0.2803    2.5952 C   0  0  0  0  0  0  0  0  0  0  0  0
    0.1981   -0.3580    1.3902 C   0  0  0  0  0  0  0  0  0  0  0  0
    1.3944   -0.4032    0.6670 C   0  0  0  0  0  0  0  0  0  0  0  0
    2.5380    0.1923    1.1464 C   0  0  0  0  0  0  0  0  0  0  0  0
    2.4637    0.8336    2.3626 C   0  0  0  0  0  0  0  0  0  0  0  0
    1.3007    0.8853    3.0791 C   0  0  0  0  0  0  0  0  0  0  0  0
    3.8187    0.1422    0.3620 C   0  0  0  0  0  0  0  0  0  0  0  0
    4.3881   -1.2459    0.3478 C   0  0  0  0  0  0  0  0  0  0  0  0
    4.8950   -1.6748   -0.9967 C   0  0  0  0  0  0  0  0  0  0  0  0
    5.5303   -0.6256   -1.7275 N   0  0  0  0  0  0  0  0  0  0  0  0
    4.5619    0.3706   -2.0544 C   0  0  0  0  0  0  0  0  0  0  0  0
    3.6218    0.7453   -0.9819 C   0  0  0  0  0  0  0  0  0  0  0  0
    6.7480   -0.1241   -1.1834 C   0  0  0  0  0  0  0  0  0  0  0  0
    7.3788    0.8318   -2.1623 C   0  0  0  0  0  0  0  0  0  0  0  0
    8.7907    0.3968   -2.4114 C   0  0  0  0  0  0  0  0  0  0  0  0
    9.0853   -0.6736   -1.4048 C   0  0  0  0  0  0  0  0  0  0  0  0
    7.7364   -1.2517   -0.9994 C   0  0  0  0  0  0  0  0  0  0  0  0
   -3.9005    0.8853   -0.4456 N   0  0  0  0  0  0  0  0  0  0  0  0
   -2.8460    0.4211   -1.3591 C   0  0  0  0  0  0  0  0  0  0  0  0
   -3.4821   -0.7713   -2.0870 C   0  0  0  0  0  0  0  0  0  0  0  0
   -4.7356   -0.3758   -2.7970 C   0  0  0  0  0  0  0  0  0  0  0  0
   -5.7058    0.4156   -1.9711 C   0  0  2  0  0  0  0  0  0  0  0  0
   -5.0428    1.4722   -1.1099 C   0  0  0  0  0  0  0  0  0  0  0  0
   -6.6280   -0.4137   -1.2377 N   0  0  0  0  0  0  0  0  0  0  0  0
   -8.0238   -0.3738   -1.5061 C   0  0  0  0  0  0  0  0  0  0  0  0
   -8.4416    0.4041   -2.4026 O   0  0  0  0  0  0  0  0  0  0  0  0
   -8.9837   -1.1888   -0.7941 C   0  0  0  0  0  0  0  0  0  0  0  0
  -10.2701   -1.1219   -1.0718 C   0  0  0  0  0  0  0  0  0  0  0  0
   -5.2390    1.3958    5.6219 H   0  0  0  0  0  0  0  0  0  0  0  0
   -4.9765   -0.1194    6.5284 H   0  0  0  0  0  0  0  0  0  0  0  0
   -5.8284    0.9522    1.3523 H   0  0  0  0  0  0  0  0  0  0  0  0
   -0.8922    0.4146    4.4057 H   0  0  0  0  0  0  0  0  0  0  0  0
   -0.6659   -0.8655    0.9659 H   0  0  0  0  0  0  0  0  0  0  0  0
    1.4448   -0.9014   -0.2715 H   0  0  0  0  0  0  0  0  0  0  0  0
    3.3853    1.3097    2.7453 H   0  0  0  0  0  0  0  0  0  0  0  0
    1.2397    1.3865    4.0344 H   0  0  0  0  0  0  0  0  0  0  0  0
    4.5386    0.7751    0.9188 H   0  0  0  0  0  0  0  0  0  0  0  0
    3.5939   -1.9491    0.6655 H   0  0  0  0  0  0  0  0  0  0  0  0
    5.2351   -1.3732    1.0766 H   0  0  0  0  0  0  0  0  0  0  0  0
    4.1027   -2.1128   -1.6488 H   0  0  0  0  0  0  0  0  0  0  0  0
    5.6057   -2.5347   -0.8184 H   0  0  0  0  0  0  0  0  0  0  0  0
    5.0487    1.3085   -2.4445 H   0  0  0  0  0  0  0  0  0  0  0  0
    3.9927   -0.0147   -2.9504 H   0  0  0  0  0  0  0  0  0  0  0  0
    3.5478    1.8694   -0.9347 H   0  0  0  0  0  0  0  0  0  0  0  0
    2.5750    0.4481   -1.3034 H   0  0  0  0  0  0  0  0  0  0  0  0
    6.6107    0.4546   -0.2323 H   0  0  0  0  0  0  0  0  0  0  0  0
    7.4018    1.8849   -1.7877 H   0  0  0  0  0  0  0  0  0  0  0  0
    6.8712    0.8314   -3.1644 H   0  0  0  0  0  0  0  0  0  0  0  0
    8.9056   -0.0686   -3.4223 H   0  0  0  0  0  0  0  0  0  0  0  0
    9.5314    1.2137   -2.3448 H   0  0  0  0  0  0  0  0  0  0  0  0
    9.7809   -1.4558   -1.7691 H   0  0  0  0  0  0  0  0  0  0  0  0
    9.5897   -0.1849   -0.5343 H   0  0  0  0  0  0  0  0  0  0  0  0
    7.5471   -2.1171   -1.6309 H   0  0  0  0  0  0  0  0  0  0  0  0
    7.7844   -1.4682    0.0947 H   0  0  0  0  0  0  0  0  0  0  0  0
   -2.0095    0.0978   -0.7502 H   0  0  0  0  0  0  0  0  0  0  0  0
   -2.5242    1.1915   -2.0588 H   0  0  0  0  0  0  0  0  0  0  0  0
   -2.7414   -1.0670   -2.8664 H   0  0  0  0  0  0  0  0  0  0  0  0
   -3.6058   -1.6259   -1.4049 H   0  0  0  0  0  0  0  0  0  0  0  0
   -4.5239    0.1469   -3.7492 H   0  0  0  0  0  0  0  0  0  0  0  0
   -5.2821   -1.3103   -3.1060 H   0  0  0  0  0  0  0  0  0  0  0  0
   -6.3234    1.0094   -2.7126 H   0  0  0  0  0  0  0  0  0  0  0  0
   -4.6938    2.3265   -1.7486 H   0  0  0  0  0  0  0  0  0  0  0  0
   -5.7637    1.8526   -0.3734 H   0  0  0  0  0  0  0  0  0  0  0  0
   -6.2654   -1.0660   -0.4855 H   0  0  0  0  0  0  0  0  0  0  0  0
   -8.6862   -1.8854   -0.0070 H   0  0  0  0  0  0  0  0  0  0  0  0
  -10.6207   -0.4510   -1.8419 H   0  0  0  0  0  0  0  0  0  0  0  0
  -11.0085   -1.7157   -0.5587 H   0  0  0  0  0  0  0  0  0  0  0  0
  1  2  1  0
  2  3  2  0
  2  4  1  0
  4  5  2  0
  5  6  1  0
  6  7  2  0
  7  8  1  0
  8  9  2  0
  9 10  1  0
 10 11  1  0
 11 12  2  0
 12 13  1  0
 13 14  2  0
 14 15  1  0
 15 16  2  0
 14 17  1  0
 17 18  1  0
 18 19  1  0
 19 20  1  0
 20 21  1  0
 21 22  1  0
 20 23  1  0
 23 24  1  0
 24 25  1  0
 25 26  1  0
 26 27  1  0
  7 28  1  0
 28 29  1  0
 29 30  1  0
 30 31  1  0
 31 32  1  0
 32 33  1  0
 32 34  1  0
 34 35  1  0
 35 36  2  0
 35 37  1  0
 37 38  2  3
  9  4  1  0
 16 11  1  0
 22 17  1  0
 27 23  1  0
 33 28  1  0
  1 39  1  0
  1 40  1  0
  6 41  1  0
 10 42  1  0
 12 43  1  0
 13 44  1  0
 15 45  1  0
 16 46  1  0
 17 47  1  0
 18 48  1  0
 18 49  1  0
 19 50  1  0
 19 51  1  0
 21 52  1  0
 21 53  1  0
 22 54  1  0
 22 55  1  0
 23 56  1  0
 24 57  1  0
 24 58  1  0
 25 59  1  0
 25 60  1  0
 26 61  1  0
 26 62  1  0
 27 63  1  0
 27 64  1  0
 29 65  1  0
 29 66  1  0
 30 67  1  0
 30 68  1  0
 31 69  1  0
 31 70  1  0
 32 71  1  6
 33 72  1  0
 33 73  1  0
 34 74  1  0
 37 75  1  0
 38 76  1  0
 38 77  1  0
M  END
$$$$
[H]c1nc([H])c(-c2c([H])c([H])c([H])c([H])c2[H])c([H])c1C#Cc1nc(C([H])([H])[H])sc1[H]
     RDKit          3D

 32 34  0  0  0  0  0  0  0  0999 V2000
    6.9064    1.7880    0.4242 C   0  0  0  0  0  0  0  0  0  0  0  0
    5.8933    0.9725   -0.3388 C   0  0  0  0  0  0  0  0  0  0  0  0
    4.6857    0.5883    0.0278 N   0  0  0  0  0  0  0  0  0  0  0  0
    3.9553   -0.1206   -0.7810 C   0  0  0  0  0  0  0  0  0  0  0  0
    4.4991   -0.4359   -2.0026 C   0  0  0  0  0  0  0  0  0  0  0  0
    6.0324    0.3125   -1.9033 S   0  0  0  0  0  0  0  0  0  0  0  0
    2.6062   -0.5628   -0.4064 C   0  0  0  0  0  0  0  0  0  0  0  0
    1.4952   -0.9306   -0.1229 C   0  0  0  0  0  0  0  0  0  0  0  0
    0.1527   -1.3723    0.1900 C   0  0  0  0  0  0  0  0  0  0  0  0
   -0.1033   -2.6564    0.6259 C   0  0  0  0  0  0  0  0  0  0  0  0
   -1.3280   -3.0983    0.9181 N   0  0  0  0  0  0  0  0  0  0  0  0
   -2.3637   -2.2435    0.7786 C   0  0  0  0  0  0  0  0  0  0  0  0
   -2.1965   -0.9433    0.3489 C   0  0  0  0  0  0  0  0  0  0  0  0
   -0.9228   -0.5204    0.0568 C   0  0  0  0  0  0  0  0  0  0  0  0
   -3.3531   -0.0745    0.2120 C   0  0  0  0  0  0  0  0  0  0  0  0
   -4.5852   -0.5893   -0.1511 C   0  0  0  0  0  0  0  0  0  0  0  0
   -5.7111    0.2202   -0.2864 C   0  0  0  0  0  0  0  0  0  0  0  0
   -5.6004    1.5665   -0.0541 C   0  0  0  0  0  0  0  0  0  0  0  0
   -4.3796    2.0819    0.3068 C   0  0  0  0  0  0  0  0  0  0  0  0
   -3.2592    1.2782    0.4415 C   0  0  0  0  0  0  0  0  0  0  0  0
    6.4256    2.2993    1.2655 H   0  0  0  0  0  0  0  0  0  0  0  0
    7.2774    2.5486   -0.3257 H   0  0  0  0  0  0  0  0  0  0  0  0
    7.7800    1.1679    0.6945 H   0  0  0  0  0  0  0  0  0  0  0  0
    4.0367   -1.0233   -2.8147 H   0  0  0  0  0  0  0  0  0  0  0  0
    0.7260   -3.3750    0.7465 H   0  0  0  0  0  0  0  0  0  0  0  0
   -3.3456   -2.6538    1.0309 H   0  0  0  0  0  0  0  0  0  0  0  0
   -0.7833    0.4864   -0.2746 H   0  0  0  0  0  0  0  0  0  0  0  0
   -4.7376   -1.6433   -0.3480 H   0  0  0  0  0  0  0  0  0  0  0  0
   -6.6682   -0.1767   -0.5690 H   0  0  0  0  0  0  0  0  0  0  0  0
   -6.4602    2.1990   -0.1541 H   0  0  0  0  0  0  0  0  0  0  0  0
   -4.3260    3.1521    0.4845 H   0  0  0  0  0  0  0  0  0  0  0  0
   -2.3480    1.7583    0.7240 H   0  0  0  0  0  0  0  0  0  0  0  0
  1  2  1  0
  2  3  2  0
  3  4  1  0
  4  5  2  0
  5  6  1  0
  4  7  1  0
  7  8  3  0
  8  9  1  0
  9 10  2  0
 10 11  1  0
 11 12  2  0
 12 13  1  0
 13 14  2  0
 13 15  1  0
 15 16  2  0
 16 17  1  0
 17 18  2  0
 18 19  1  0
 19 20  2  0
  6  2  1  0
 14  9  1  0
 20 15  1  0
  1 21  1  0
  1 22  1  0
  1 23  1  0
  5 24  1  0
 10 25  1  0
 12 26  1  0
 14 27  1  0
 16 28  1  0
 17 29  1  0
 18 30  1  0
 19 31  1  0
 20 32  1  0
M  END
$$$$
[H]OC(=O)c1c([H])c([H])c(-c2c([H])c([H])c(C([H])([H])[H])c(C#N)c2[H])c(C#N)c1[H]
     RDKit          3D

 30 31  0  0  0  0  0  0  0  0999 V2000
   -4.8303    0.4652   -0.5209 C   0  0  0  0  0  0  0  0  0  0  0  0
   -3.3518    0.3266   -0.3838 C   0  0  0  0  0  0  0  0  0  0  0  0
   -2.7094   -0.5420   -1.2174 C   0  0  0  0  0  0  0  0  0  0  0  0
   -1.3279   -0.6790   -1.0976 C   0  0  0  0  0  0  0  0  0  0  0  0
   -0.6508    0.0566   -0.1513 C   0  0  0  0  0  0  0  0  0  0  0  0
   -1.3560    0.9350    0.6805 C   0  0  0  0  0  0  0  0  0  0  0  0
   -2.7214    1.0825    0.5751 C   0  0  0  0  0  0  0  0  0  0  0  0
   -3.4722    1.9840    1.4234 C   0  0  0  0  0  0  0  0  0  0  0  0
   -4.0557    2.7045    2.1008 N   0  0  0  0  0  0  0  0  0  0  0  0
    0.7867   -0.0757    0.0028 C   0  0  0  0  0  0  0  0  0  0  0  0
    1.6260    1.0423    0.0048 C   0  0  0  0  0  0  0  0  0  0  0  0
    2.9937    0.9418    0.1351 C   0  0  0  0  0  0  0  0  0  0  0  0
    3.5792   -0.2980    0.2700 C   0  0  0  0  0  0  0  0  0  0  0  0
    2.7604   -1.4042    0.2694 C   0  0  0  0  0  0  0  0  0  0  0  0
    1.3726   -1.3137    0.1383 C   0  0  0  0  0  0  0  0  0  0  0  0
    0.5866   -2.5410    0.1649 C   0  0  0  0  0  0  0  0  0  0  0  0
   -0.0308   -3.5155    0.2079 N   0  0  0  0  0  0  0  0  0  0  0  0
    5.0236   -0.4695    0.4117 C   0  0  0  0  0  0  0  0  0  0  0  0
    5.8957    0.6057    0.4191 O   0  0  0  0  0  0  0  0  0  0  0  0
    5.5119   -1.6209    0.5320 O   0  0  0  0  0  0  0  0  0  0  0  0
   -5.2723   -0.4027    0.0346 H   0  0  0  0  0  0  0  0  0  0  0  0
   -5.1937    1.3978   -0.0774 H   0  0  0  0  0  0  0  0  0  0  0  0
   -5.1132    0.3254   -1.5795 H   0  0  0  0  0  0  0  0  0  0  0  0
   -3.2261   -1.1310   -1.9696 H   0  0  0  0  0  0  0  0  0  0  0  0
   -0.8031   -1.3719   -1.7738 H   0  0  0  0  0  0  0  0  0  0  0  0
   -0.8399    1.5099    1.4169 H   0  0  0  0  0  0  0  0  0  0  0  0
    1.1664    2.0172   -0.1013 H   0  0  0  0  0  0  0  0  0  0  0  0
    3.6345    1.8365    0.1338 H   0  0  0  0  0  0  0  0  0  0  0  0
    3.1755   -2.4172    0.3740 H   0  0  0  0  0  0  0  0  0  0  0  0
    6.8419    0.5511    0.0435 H   0  0  0  0  0  0  0  0  0  0  0  0
  1  2  1  0
  2  3  2  0
  3  4  1  0
  4  5  2  0
  5  6  1  0
  6  7  2  0
  7  8  1  0
  8  9  3  0
  5 10  1  0
 10 11  2  0
 11 12  1  0
 12 13  2  0
 13 14  1  0
 14 15  2  0
 15 16  1  0
 16 17  3  0
 13 18  1  0
 18 19  1  0
 18 20  2  0
  7  2  1  0
 15 10  1  0
  1 21  1  0
  1 22  1  0
  1 23  1  0
  3 24  1  0
  4 25  1  0
  6 26  1  0
 11 27  1  0
 12 28  1  0
 14 29  1  0
 19 30  1  0
M  END
$$$$
[H]OC(=O)c1c(O[H])c([H])c2c([H])c(O[H])c(O[H])c([H])c2c1[H]
     RDKit          3D

 24 25  0  0  0  0  0  0  0  0999 V2000
   -4.3422    1.1946    0.1196 O   0  0  0  0  0  0  0  0  0  0  0  0
   -3.0555    1.5607   -0.2028 C   0  0  0  0  0  0  0  0  0  0  0  0
   -2.9216    2.7331   -0.7127 O   0  0  0  0  0  0  0  0  0  0  0  0
   -1.8788    0.7333   -0.0096 C   0  0  0  0  0  0  0  0  0  0  0  0
   -0.6295    1.2534   -0.3918 C   0  0  0  0  0  0  0  0  0  0  0  0
    0.4888    0.4720   -0.2103 C   0  0  0  0  0  0  0  0  0  0  0  0
    1.7199    1.0072   -0.5964 C   0  0  0  0  0  0  0  0  0  0  0  0
    2.8482    0.2487   -0.4258 C   0  0  0  0  0  0  0  0  0  0  0  0
    4.0962    0.7345   -0.7934 O   0  0  0  0  0  0  0  0  0  0  0  0
    2.7668   -1.0316    0.1225 C   0  0  0  0  0  0  0  0  0  0  0  0
    3.9196   -1.7975    0.2930 O   0  0  0  0  0  0  0  0  0  0  0  0
    1.5626   -1.5554    0.5003 C   0  0  0  0  0  0  0  0  0  0  0  0
    0.4128   -0.7922    0.3306 C   0  0  0  0  0  0  0  0  0  0  0  0
   -0.8041   -1.3094    0.7073 C   0  0  0  0  0  0  0  0  0  0  0  0
   -1.9524   -0.5160    0.5247 C   0  0  0  0  0  0  0  0  0  0  0  0
   -3.1134   -1.1073    0.9251 O   0  0  0  0  0  0  0  0  0  0  0  0
   -4.8753    0.7178   -0.6152 H   0  0  0  0  0  0  0  0  0  0  0  0
   -0.5343    2.2371   -0.8173 H   0  0  0  0  0  0  0  0  0  0  0  0
    1.7379    2.0064   -1.0184 H   0  0  0  0  0  0  0  0  0  0  0  0
    4.2021    1.6552   -1.1939 H   0  0  0  0  0  0  0  0  0  0  0  0
    3.8182   -2.7163    0.6921 H   0  0  0  0  0  0  0  0  0  0  0  0
    1.4343   -2.5381    0.9298 H   0  0  0  0  0  0  0  0  0  0  0  0
   -0.8499   -2.2941    1.1268 H   0  0  0  0  0  0  0  0  0  0  0  0
   -4.0505   -0.8962    0.9594 H   0  0  0  0  0  0  0  0  0  0  0  0
  1  2  1  0
  2  3  2  0
  2  4  1  0
  4  5  2  0
  5  6  1  0
  6  7  2  0
  7  8  1  0
  8  9  1  0
  8 10  2  0
 10 11  1  0
 10 12  1  0
 12 13  2  0
 13 14  1  0
 14 15  2  0
 15 16  1  0
 15  4  1  0
 13  6  1  0
  1 17  1  0
  5 18  1  0
  7 19  1  0
  9 20  1  0
 11 21  1  0
 12 22  1  0
 14 23  1  0
 16 24  1  0
M  END
$$$$
[H]c1c(OC([H])([H])[H])c(OC([H])([H])[H])c(OC([H])([H])[H])c([H])c1C(=O)N([H])[C@@]1([H])C([H])([H])[C@@]2([H])N([H])[C@]([H])(C([H])([H])C2([H])[H])C1([H])[H]
     RDKit          3D

 47 49  0  0  0  0  0  0  0  0999 V2000
   -4.0623   -3.8961    0.3752 C   0  0  0  0  0  0  0  0  0  0  0  0
   -4.4583   -2.6133   -0.0215 O   0  0  0  0  0  0  0  0  0  0  0  0
   -3.5914   -1.5475   -0.1713 C   0  0  0  0  0  0  0  0  0  0  0  0
   -2.2529   -1.7540    0.0837 C   0  0  0  0  0  0  0  0  0  0  0  0
   -1.3086   -0.7267   -0.0444 C   0  0  0  0  0  0  0  0  0  0  0  0
   -1.7473    0.5117   -0.4354 C   0  0  0  0  0  0  0  0  0  0  0  0
   -3.1062    0.6938   -0.6872 C   0  0  0  0  0  0  0  0  0  0  0  0
   -3.5542    1.9403   -1.0818 O   0  0  0  0  0  0  0  0  0  0  0  0
   -2.6475    3.0145   -1.2278 C   0  0  0  0  0  0  0  0  0  0  0  0
   -4.0425   -0.3055   -0.5652 C   0  0  0  0  0  0  0  0  0  0  0  0
   -5.3735   -0.0592   -0.8296 O   0  0  0  0  0  0  0  0  0  0  0  0
   -6.2952    0.3764    0.1498 C   0  0  0  0  0  0  0  0  0  0  0  0
    0.0782   -0.9494    0.2228 C   0  0  0  0  0  0  0  0  0  0  0  0
    0.4414   -2.0849    0.6017 O   0  0  0  0  0  0  0  0  0  0  0  0
    1.0383    0.0589    0.0745 N   0  0  0  0  0  0  0  0  0  0  0  0
    2.4687   -0.1567    0.3462 C   0  0  1  0  0  0  0  0  0  0  0  0
    3.1714   -0.0441   -0.9783 C   0  0  0  0  0  0  0  0  0  0  0  0
    4.5611    0.5091   -0.8755 C   0  0  2  0  0  0  0  0  0  0  0  0
    5.3267   -0.3165    0.1166 C   0  0  0  0  0  0  0  0  0  0  0  0
    5.4176    0.5591    1.3482 C   0  0  0  0  0  0  0  0  0  0  0  0
    4.2222    1.4856    1.1145 C   0  0  2  0  0  0  0  0  0  0  0  0
    2.9870    0.7221    1.4105 C   0  0  0  0  0  0  0  0  0  0  0  0
    4.4076    1.8380   -0.2621 N   0  0  0  0  0  0  0  0  0  0  0  0
   -4.8935   -4.5446    0.6643 H   0  0  0  0  0  0  0  0  0  0  0  0
   -3.5454   -4.3661   -0.4898 H   0  0  0  0  0  0  0  0  0  0  0  0
   -3.3170   -3.8636    1.2049 H   0  0  0  0  0  0  0  0  0  0  0  0
   -1.8532   -2.7020    0.3925 H   0  0  0  0  0  0  0  0  0  0  0  0
   -1.1078    1.3846   -0.5683 H   0  0  0  0  0  0  0  0  0  0  0  0
   -3.2581    3.9223   -1.4977 H   0  0  0  0  0  0  0  0  0  0  0  0
   -1.8728    2.8123   -1.9955 H   0  0  0  0  0  0  0  0  0  0  0  0
   -2.1638    3.1717   -0.2301 H   0  0  0  0  0  0  0  0  0  0  0  0
   -6.7795    1.3324   -0.1236 H   0  0  0  0  0  0  0  0  0  0  0  0
   -5.8665    0.3721    1.1651 H   0  0  0  0  0  0  0  0  0  0  0  0
   -7.1123   -0.3923    0.1631 H   0  0  0  0  0  0  0  0  0  0  0  0
    0.7982    1.0353   -0.2413 H   0  0  0  0  0  0  0  0  0  0  0  0
    2.5458   -1.2177    0.6621 H   0  0  0  0  0  0  0  0  0  0  0  0
    2.5950    0.6598   -1.6427 H   0  0  0  0  0  0  0  0  0  0  0  0
    3.1684   -1.0146   -1.5405 H   0  0  0  0  0  0  0  0  0  0  0  0
    5.0001    0.5614   -1.8679 H   0  0  0  0  0  0  0  0  0  0  0  0
    4.7479   -1.2323    0.4303 H   0  0  0  0  0  0  0  0  0  0  0  0
    6.3089   -0.6550   -0.2362 H   0  0  0  0  0  0  0  0  0  0  0  0
    5.3240    0.0094    2.2875 H   0  0  0  0  0  0  0  0  0  0  0  0
    6.3306    1.1774    1.2717 H   0  0  0  0  0  0  0  0  0  0  0  0
    4.3106    2.3894    1.7451 H   0  0  0  0  0  0  0  0  0  0  0  0
    3.1787    0.1304    2.3552 H   0  0  0  0  0  0  0  0  0  0  0  0
    2.1995    1.4677    1.7286 H   0  0  0  0  0  0  0  0  0  0  0  0
    3.5817    2.3065   -0.6894 H   0  0  0  0  0  0  0  0  0  0  0  0
  1  2  1  0
  2  3  1  0
  3  4  2  0
  4  5  1  0
  5  6  2  0
  6  7  1  0
  7  8  1  0
  8  9  1  0
  7 10  2  0
 10 11  1  0
 11 12  1  0
  5 13  1  0
 13 14  2  0
 13 15  1  0
 15 16  1  0
 16 17  1  0
 17 18  1  0
 18 19  1  0
 19 20  1  0
 20 21  1  0
 21 22  1  0
 21 23  1  0
 10  3  1  0
 22 16  1  0
 23 18  1  0
  1 24  1  0
  1 25  1  0
  1 26  1  0
  4 27  1  0
  6 28  1  0
  9 29  1  0
  9 30  1  0
  9 31  1  0
 12 32  1  0
 12 33  1  0
 12 34  1  0
 15 35  1  0
 16 36  1  1
 17 37  1  0
 17 38  1  0
 18 39  1  6
 19 40  1  0
 19 41  1  0
 20 42  1  0
 20 43  1  0
 21 44  1  1
 22 45  1  0
 22 46  1  0
 23 47  1  0
M  END
$$$$
[H]O[C@@]([H])(C([H])([H])C(=O)N([H])[C@]([H])(C([H])(C([H])([H])[H])C([H])([H])[H])[C@@]([H])(C([H])([H])[H])C([H])([H])C([H])([H])[H])[C@@]([H])(N([H])C(=O)[C@@]([H])(N([H])C(=O)C([H])([H])C([H])(C([H])([H])[H])C([H])([H])[H])C([H])(C([H])([H])[H])C([H])([H])[H])C([H])([H])C([H])(C([H])([H])[H])C([H])([H])[H]
     RDKit          3D

 84 83  0  0  0  0  0  0  0  0999 V2000
   -8.1115    1.0168   -1.8113 C   0  0  0  0  0  0  0  0  0  0  0  0
   -7.0783    0.7376   -0.7272 C   0  0  0  0  0  0  0  0  0  0  0  0
   -6.1446    1.9099   -0.6267 C   0  0  2  0  0  0  0  0  0  0  0  0
   -5.4692    2.0654   -1.9906 C   0  0  0  0  0  0  0  0  0  0  0  0
   -5.0431    1.7057    0.3825 C   0  0  2  0  0  0  0  0  0  0  0  0
   -4.2706    0.5591   -0.0114 N   0  0  0  0  0  0  0  0  0  0  0  0
   -2.8304    0.5800   -0.1059 C   0  0  0  0  0  0  0  0  0  0  0  0
   -2.2867    1.6479    0.1858 O   0  0  0  0  0  0  0  0  0  0  0  0
   -2.0860   -0.6117   -0.5264 C   0  0  0  0  0  0  0  0  0  0  0  0
   -0.6275   -0.4091   -0.4858 C   0  0  2  0  0  0  0  0  0  0  0  0
   -0.2352    0.6300   -1.3105 O   0  0  0  0  0  0  0  0  0  0  0  0
    0.1462   -1.6461   -1.0290 C   0  0  2  0  0  0  0  0  0  0  0  0
   -0.5834   -2.8498   -0.6086 C   0  0  0  0  0  0  0  0  0  0  0  0
   -0.0863   -4.2031   -0.9588 C   0  0  0  0  0  0  0  0  0  0  0  0
    1.2447   -4.6089   -0.4124 C   0  0  0  0  0  0  0  0  0  0  0  0
   -1.1076   -5.2616   -0.4764 C   0  0  0  0  0  0  0  0  0  0  0  0
    1.5332   -1.5861   -0.9148 N   0  0  0  0  0  0  0  0  0  0  0  0
    2.4351   -0.7028   -0.3299 C   0  0  0  0  0  0  0  0  0  0  0  0
    2.0180    0.3013    0.2709 O   0  0  0  0  0  0  0  0  0  0  0  0
    3.9175   -0.8495   -0.3571 C   0  0  1  0  0  0  0  0  0  0  0  0
    4.5207    0.2742    0.3492 N   0  0  0  0  0  0  0  0  0  0  0  0
    5.3212    1.2669   -0.2780 C   0  0  0  0  0  0  0  0  0  0  0  0
    5.5582    1.2240   -1.5068 O   0  0  0  0  0  0  0  0  0  0  0  0
    5.9116    2.3998    0.4864 C   0  0  0  0  0  0  0  0  0  0  0  0
    6.6646    3.3446   -0.4313 C   0  0  0  0  0  0  0  0  0  0  0  0
    7.7940    2.6387   -1.1410 C   0  0  0  0  0  0  0  0  0  0  0  0
    7.1585    4.5511    0.2962 C   0  0  0  0  0  0  0  0  0  0  0  0
    4.4263   -2.1598    0.1346 C   0  0  0  0  0  0  0  0  0  0  0  0
    5.9544   -2.1027    0.0115 C   0  0  0  0  0  0  0  0  0  0  0  0
    4.1145   -2.4464    1.5732 C   0  0  0  0  0  0  0  0  0  0  0  0
   -5.6050    1.5512    1.7911 C   0  0  0  0  0  0  0  0  0  0  0  0
   -4.4174    1.3575    2.7348 C   0  0  0  0  0  0  0  0  0  0  0  0
   -6.2793    2.8323    2.2378 C   0  0  0  0  0  0  0  0  0  0  0  0
   -9.1151    0.7973   -1.3435 H   0  0  0  0  0  0  0  0  0  0  0  0
   -8.1350    2.0714   -2.1257 H   0  0  0  0  0  0  0  0  0  0  0  0
   -7.9900    0.3829   -2.7063 H   0  0  0  0  0  0  0  0  0  0  0  0
   -7.5351    0.4731    0.2494 H   0  0  0  0  0  0  0  0  0  0  0  0
   -6.5346   -0.1621   -1.0854 H   0  0  0  0  0  0  0  0  0  0  0  0
   -6.7297    2.8326   -0.4521 H   0  0  0  0  0  0  0  0  0  0  0  0
   -6.2086    2.2870   -2.7881 H   0  0  0  0  0  0  0  0  0  0  0  0
   -4.9751    1.0983   -2.2333 H   0  0  0  0  0  0  0  0  0  0  0  0
   -4.6503    2.8237   -1.9275 H   0  0  0  0  0  0  0  0  0  0  0  0
   -4.4382    2.6341    0.4280 H   0  0  0  0  0  0  0  0  0  0  0  0
   -4.7112   -0.3515   -0.2536 H   0  0  0  0  0  0  0  0  0  0  0  0
   -2.3320   -1.4888    0.1333 H   0  0  0  0  0  0  0  0  0  0  0  0
   -2.4882   -0.8970   -1.5246 H   0  0  0  0  0  0  0  0  0  0  0  0
   -0.3289   -0.2229    0.5635 H   0  0  0  0  0  0  0  0  0  0  0  0
   -0.2311    1.4749   -0.8497 H   0  0  0  0  0  0  0  0  0  0  0  0
   -0.0831   -1.4209   -2.1737 H   0  0  0  0  0  0  0  0  0  0  0  0
   -0.8925   -2.8187    0.4751 H   0  0  0  0  0  0  0  0  0  0  0  0
   -1.6155   -2.8020   -1.1239 H   0  0  0  0  0  0  0  0  0  0  0  0
   -0.0603   -4.3901   -2.0634 H   0  0  0  0  0  0  0  0  0  0  0  0
    1.1609   -5.5721    0.1517 H   0  0  0  0  0  0  0  0  0  0  0  0
    1.9643   -4.7156   -1.2477 H   0  0  0  0  0  0  0  0  0  0  0  0
    1.6536   -3.8824    0.3206 H   0  0  0  0  0  0  0  0  0  0  0  0
   -0.9946   -6.1722   -1.0642 H   0  0  0  0  0  0  0  0  0  0  0  0
   -2.0958   -4.7959   -0.5673 H   0  0  0  0  0  0  0  0  0  0  0  0
   -0.8689   -5.4123    0.6001 H   0  0  0  0  0  0  0  0  0  0  0  0
    2.0502   -2.3965   -1.4375 H   0  0  0  0  0  0  0  0  0  0  0  0
    4.2162   -0.7503   -1.4176 H   0  0  0  0  0  0  0  0  0  0  0  0
    4.3736    0.3881    1.3754 H   0  0  0  0  0  0  0  0  0  0  0  0
    6.6747    1.9607    1.1660 H   0  0  0  0  0  0  0  0  0  0  0  0
    5.1777    2.9143    1.1088 H   0  0  0  0  0  0  0  0  0  0  0  0
    5.9204    3.6555   -1.1957 H   0  0  0  0  0  0  0  0  0  0  0  0
    7.8900    1.5693   -0.8328 H   0  0  0  0  0  0  0  0  0  0  0  0
    7.6271    2.6451   -2.2217 H   0  0  0  0  0  0  0  0  0  0  0  0
    8.7790    3.1040   -0.9040 H   0  0  0  0  0  0  0  0  0  0  0  0
    6.5043    5.4245    0.1021 H   0  0  0  0  0  0  0  0  0  0  0  0
    8.2078    4.7630    0.0241 H   0  0  0  0  0  0  0  0  0  0  0  0
    7.0418    4.3346    1.3921 H   0  0  0  0  0  0  0  0  0  0  0  0
    4.0842   -2.9747   -0.4857 H   0  0  0  0  0  0  0  0  0  0  0  0
    6.4252   -3.0693    0.1888 H   0  0  0  0  0  0  0  0  0  0  0  0
    6.1604   -1.7580   -1.0184 H   0  0  0  0  0  0  0  0  0  0  0  0
    6.3476   -1.3059    0.7047 H   0  0  0  0  0  0  0  0  0  0  0  0
    4.3123   -3.5467    1.7420 H   0  0  0  0  0  0  0  0  0  0  0  0
    4.8311   -1.9135    2.2067 H   0  0  0  0  0  0  0  0  0  0  0  0
    3.0534   -2.3015    1.8332 H   0  0  0  0  0  0  0  0  0  0  0  0
   -6.2975    0.6992    1.8663 H   0  0  0  0  0  0  0  0  0  0  0  0
   -3.7859    2.2843    2.5805 H   0  0  0  0  0  0  0  0  0  0  0  0
   -3.7973    0.5006    2.4899 H   0  0  0  0  0  0  0  0  0  0  0  0
   -4.7450    1.4134    3.8033 H   0  0  0  0  0  0  0  0  0  0  0  0
   -6.3574    2.7898    3.3584 H   0  0  0  0  0  0  0  0  0  0  0  0
   -5.6247    3.7014    2.0319 H   0  0  0  0  0  0  0  0  0  0  0  0
   -7.2908    2.9416    1.8445 H   0  0  0  0  0  0  0  0  0  0  0  0
  1  2  1  0
  2  3  1  0
  3  4  1  0
  3  5  1  0
  5  6  1  0
  6  7  1  0
  7  8  2  0
  7  9  1  0
  9 10  1  0
 10 11  1  0
 10 12  1  0
 12 13  1  0
 13 14  1  0
 14 15  1  0
 14 16  1  0
 12 17  1  0
 17 18  1  0
 18 19  2  0
 18 20  1  0
 20 21  1  0
 21 22  1  0
 22 23  2  0
 22 24  1  0
 24 25  1  0
 25 26  1  0
 25 27  1  0
 20 28  1  0
 28 29  1  0
 28 30  1  0
  5 31  1  0
 31 32  1  0
 31 33  1  0
  1 34  1  0
  1 35  1  0
  1 36  1  0
  2 37  1  0
  2 38  1  0
  3 39  1  1
  4 40  1  0
  4 41  1  0
  4 42  1  0
  5 43  1  1
  6 44  1  0
  9 45  1  0
  9 46  1  0
 10 47  1  1
 11 48  1  0
 12 49  1  6
 13 50  1  0
 13 51  1  0
 14 52  1  0
 15 53  1  0
 15 54  1  0
 15 55  1  0
 16 56  1  0
 16 57  1  0
 16 58  1  0
 17 59  1  0
 20 60  1  6
 21 61  1  0
 24 62  1  0
 24 63  1  0
 25 64  1  0
 26 65  1  0
 26 66  1  0
 26 67  1  0
 27 68  1  0
 27 69  1  0
 27 70  1  0
 28 71  1  0
 29 72  1  0
 29 73  1  0
 29 74  1  0
 30 75  1  0
 30 76  1  0
 30 77  1  0
 31 78  1  0
 32 79  1  0
 32 80  1  0
 32 81  1  0
 33 82  1  0
 33 83  1  0
 33 84  1  0
M  END
$$$$
[H]OC(=O)[C@@]([H])(N([H])C(=O)[C@@]([H])(N([H])C(=O)[C@@]([H])(N([H])C(=O)[C@@]1([H])N(C(=O)[C@@]([H])(N([H])[H])C([H])([H])c2c([H])c([H])c(O[H])c([H])c2[H])C([H])([H])C([H])([H])C1([H])[H])C([H])([H])c1c([H])c([H])c([H])c([H])c1[H])C([H])([H])C([H])(C([H])([H])[H])C([H])([H])[H])C([H])([H])c1c([H])n([H])c2c([H])c([H])c([H])c([H])c12
     RDKit          3D

101105  0  0  0  0  0  0  0  0999 V2000
   -3.4245    2.9739    1.3018 C   0  0  0  0  0  0  0  0  0  0  0  0
   -2.6889    1.9201    2.0442 C   0  0  0  0  0  0  0  0  0  0  0  0
   -1.2053    2.2778    2.1476 C   0  0  0  0  0  0  0  0  0  0  0  0
   -2.8982    0.5218    1.6883 C   0  0  0  0  0  0  0  0  0  0  0  0
   -2.5751    0.0682    0.2899 C   0  0  2  0  0  0  0  0  0  0  0  0
   -1.2063    0.2654   -0.0691 N   0  0  0  0  0  0  0  0  0  0  0  0
   -0.1798   -0.6957    0.1216 C   0  0  0  0  0  0  0  0  0  0  0  0
   -0.5303   -1.7840    0.6491 O   0  0  0  0  0  0  0  0  0  0  0  0
    1.2219   -0.5024   -0.2402 C   0  0  2  0  0  0  0  0  0  0  0  0
    1.5180   -1.2390   -1.5290 C   0  0  0  0  0  0  0  0  0  0  0  0
    0.7034   -0.7844   -2.6511 C   0  0  0  0  0  0  0  0  0  0  0  0
   -0.4765   -1.4329   -2.9581 C   0  0  0  0  0  0  0  0  0  0  0  0
   -1.2599   -1.0593   -4.0021 C   0  0  0  0  0  0  0  0  0  0  0  0
   -0.9078   -0.0071   -4.8061 C   0  0  0  0  0  0  0  0  0  0  0  0
    0.2648    0.6561   -4.5190 C   0  0  0  0  0  0  0  0  0  0  0  0
    1.0598    0.2774   -3.4606 C   0  0  0  0  0  0  0  0  0  0  0  0
    2.1137   -1.0051    0.7962 N   0  0  0  0  0  0  0  0  0  0  0  0
    3.1054   -0.1445    1.3100 C   0  0  0  0  0  0  0  0  0  0  0  0
    3.2069    1.0247    0.8725 O   0  0  0  0  0  0  0  0  0  0  0  0
    4.0724   -0.5514    2.3768 C   0  0  2  0  0  0  0  0  0  0  0  0
    3.2197   -0.7942    3.6272 C   0  0  0  0  0  0  0  0  0  0  0  0
    3.0844    0.6229    4.1701 C   0  0  0  0  0  0  0  0  0  0  0  0
    4.1591    1.4314    3.5273 C   0  0  0  0  0  0  0  0  0  0  0  0
    4.9773    0.4920    2.7195 N   0  0  0  0  0  0  0  0  0  0  0  0
    6.3304    0.7446    2.4579 C   0  0  0  0  0  0  0  0  0  0  0  0
    6.8419    1.8266    2.9471 O   0  0  0  0  0  0  0  0  0  0  0  0
    7.2851   -0.0641    1.6871 C   0  0  1  0  0  0  0  0  0  0  0  0
    6.7474   -1.2086    1.0386 N   0  0  0  0  0  0  0  0  0  0  0  0
    7.8978    0.8175    0.5874 C   0  0  0  0  0  0  0  0  0  0  0  0
    8.8830    0.0425   -0.2120 C   0  0  0  0  0  0  0  0  0  0  0  0
    8.5671   -0.6694   -1.3436 C   0  0  0  0  0  0  0  0  0  0  0  0
    9.5101   -1.3890   -2.0723 C   0  0  0  0  0  0  0  0  0  0  0  0
   10.8328   -1.4010   -1.6549 C   0  0  0  0  0  0  0  0  0  0  0  0
   11.7744   -2.1179   -2.3799 O   0  0  0  0  0  0  0  0  0  0  0  0
   11.1574   -0.6932   -0.5271 C   0  0  0  0  0  0  0  0  0  0  0  0
   10.2255    0.0164    0.1910 C   0  0  0  0  0  0  0  0  0  0  0  0
   -3.5282    0.5393   -0.7232 C   0  0  0  0  0  0  0  0  0  0  0  0
   -3.0807    1.0777   -1.7684 O   0  0  0  0  0  0  0  0  0  0  0  0
   -4.9223    0.4330   -0.6110 N   0  0  0  0  0  0  0  0  0  0  0  0
   -5.8454    0.9089   -1.6296 C   0  0  1  0  0  0  0  0  0  0  0  0
   -6.5735   -0.2705   -2.2174 C   0  0  0  0  0  0  0  0  0  0  0  0
   -7.3225   -1.0757   -1.2609 C   0  0  0  0  0  0  0  0  0  0  0  0
   -6.7851   -2.1913   -0.5989 C   0  0  0  0  0  0  0  0  0  0  0  0
   -7.6714   -2.6832    0.2416 N   0  0  0  0  0  0  0  0  0  0  0  0
   -8.7887   -1.9533    0.1808 C   0  0  0  0  0  0  0  0  0  0  0  0
   -9.9774   -2.0783    0.8456 C   0  0  0  0  0  0  0  0  0  0  0  0
  -10.9909   -1.1751    0.5677 C   0  0  0  0  0  0  0  0  0  0  0  0
  -10.8098   -0.1791   -0.3517 C   0  0  0  0  0  0  0  0  0  0  0  0
   -9.6160   -0.0675   -1.0070 C   0  0  0  0  0  0  0  0  0  0  0  0
   -8.5805   -0.9436   -0.7590 C   0  0  0  0  0  0  0  0  0  0  0  0
   -6.7401    1.9767   -1.2091 C   0  0  0  0  0  0  0  0  0  0  0  0
   -7.5172    2.6056   -2.2039 O   0  0  0  0  0  0  0  0  0  0  0  0
   -6.8986    2.4146   -0.0425 O   0  0  0  0  0  0  0  0  0  0  0  0
   -4.5132    2.9085    1.4991 H   0  0  0  0  0  0  0  0  0  0  0  0
   -3.1935    3.1081    0.2516 H   0  0  0  0  0  0  0  0  0  0  0  0
   -3.1258    3.9546    1.7879 H   0  0  0  0  0  0  0  0  0  0  0  0
   -3.0390    2.0291    3.1244 H   0  0  0  0  0  0  0  0  0  0  0  0
   -1.0294    3.0068    2.9926 H   0  0  0  0  0  0  0  0  0  0  0  0
   -0.6734    1.3541    2.4473 H   0  0  0  0  0  0  0  0  0  0  0  0
   -0.8206    2.7679    1.2511 H   0  0  0  0  0  0  0  0  0  0  0  0
   -2.2724   -0.1227    2.3701 H   0  0  0  0  0  0  0  0  0  0  0  0
   -3.9487    0.2025    1.8925 H   0  0  0  0  0  0  0  0  0  0  0  0
   -2.7140   -1.0557    0.3615 H   0  0  0  0  0  0  0  0  0  0  0  0
   -0.9164    1.1603   -0.5016 H   0  0  0  0  0  0  0  0  0  0  0  0
    1.4481    0.5549   -0.4347 H   0  0  0  0  0  0  0  0  0  0  0  0
    1.2631   -2.3067   -1.3251 H   0  0  0  0  0  0  0  0  0  0  0  0
    2.5849   -1.1265   -1.8251 H   0  0  0  0  0  0  0  0  0  0  0  0
   -0.8000   -2.2774   -2.3464 H   0  0  0  0  0  0  0  0  0  0  0  0
   -2.1886   -1.5703   -4.2449 H   0  0  0  0  0  0  0  0  0  0  0  0
   -1.5505    0.2842   -5.6465 H   0  0  0  0  0  0  0  0  0  0  0  0
    0.5370    1.4822   -5.1520 H   0  0  0  0  0  0  0  0  0  0  0  0
    1.9760    0.8173   -3.2582 H   0  0  0  0  0  0  0  0  0  0  0  0
    2.0212   -1.9692    1.1458 H   0  0  0  0  0  0  0  0  0  0  0  0
    4.5066   -1.5190    2.0921 H   0  0  0  0  0  0  0  0  0  0  0  0
    3.7178   -1.4646    4.3365 H   0  0  0  0  0  0  0  0  0  0  0  0
    2.2175   -1.1739    3.3537 H   0  0  0  0  0  0  0  0  0  0  0  0
    2.0616    1.0464    3.9604 H   0  0  0  0  0  0  0  0  0  0  0  0
    3.1997    0.5361    5.2811 H   0  0  0  0  0  0  0  0  0  0  0  0
    4.7881    1.8901    4.3277 H   0  0  0  0  0  0  0  0  0  0  0  0
    3.8104    2.2700    2.9011 H   0  0  0  0  0  0  0  0  0  0  0  0
    8.1369   -0.4077    2.3311 H   0  0  0  0  0  0  0  0  0  0  0  0
    7.4078   -1.9713    0.8675 H   0  0  0  0  0  0  0  0  0  0  0  0
    6.1366   -0.9484    0.2526 H   0  0  0  0  0  0  0  0  0  0  0  0
    8.4424    1.6441    1.0783 H   0  0  0  0  0  0  0  0  0  0  0  0
    7.1085    1.1847   -0.0812 H   0  0  0  0  0  0  0  0  0  0  0  0
    7.5325   -0.6693   -1.6838 H   0  0  0  0  0  0  0  0  0  0  0  0
    9.2603   -1.9435   -2.9573 H   0  0  0  0  0  0  0  0  0  0  0  0
   11.9162   -3.0935   -2.1067 H   0  0  0  0  0  0  0  0  0  0  0  0
   12.1919   -0.6898   -0.1829 H   0  0  0  0  0  0  0  0  0  0  0  0
   10.4860    0.5720    1.0779 H   0  0  0  0  0  0  0  0  0  0  0  0
   -5.3382   -0.0019    0.2319 H   0  0  0  0  0  0  0  0  0  0  0  0
   -5.2576    1.3362   -2.4961 H   0  0  0  0  0  0  0  0  0  0  0  0
   -5.8513   -0.9563   -2.7591 H   0  0  0  0  0  0  0  0  0  0  0  0
   -7.2564    0.0590   -3.0600 H   0  0  0  0  0  0  0  0  0  0  0  0
   -5.7913   -2.5530   -0.7842 H   0  0  0  0  0  0  0  0  0  0  0  0
   -7.5419   -3.5122    0.8664 H   0  0  0  0  0  0  0  0  0  0  0  0
  -10.1560   -2.8593    1.5822 H   0  0  0  0  0  0  0  0  0  0  0  0
  -11.9254   -1.2612    1.0814 H   0  0  0  0  0  0  0  0  0  0  0  0
  -11.6078    0.5229   -0.5637 H   0  0  0  0  0  0  0  0  0  0  0  0
   -9.4919    0.6983   -1.7370 H   0  0  0  0  0  0  0  0  0  0  0  0
   -7.5068    2.2956   -3.1785 H   0  0  0  0  0  0  0  0  0  0  0  0
  1  2  1  0
  2  3  1  0
  2  4  1  0
  4  5  1  0
  5  6  1  0
  6  7  1  0
  7  8  2  0
  7  9  1  0
  9 10  1  0
 10 11  1  0
 11 12  2  0
 12 13  1  0
 13 14  2  0
 14 15  1  0
 15 16  2  0
  9 17  1  0
 17 18  1  0
 18 19  2  0
 18 20  1  0
 20 21  1  0
 21 22  1  0
 22 23  1  0
 23 24  1  0
 24 25  1  0
 25 26  2  0
 25 27  1  0
 27 28  1  0
 27 29  1  0
 29 30  1  0
 30 31  2  0
 31 32  1  0
 32 33  2  0
 33 34  1  0
 33 35  1  0
 35 36  2  0
  5 37  1  0
 37 38  2  0
 37 39  1  0
 39 40  1  0
 40 41  1  0
 41 42  1  0
 42 43  2  0
 43 44  1  0
 44 45  1  0
 45 46  2  0
 46 47  1  0
 47 48  2  0
 48 49  1  0
 49 50  2  0
 40 51  1  0
 51 52  1  0
 51 53  2  0
 16 11  1  0
 24 20  1  0
 36 30  1  0
 50 42  1  0
 50 45  1  0
  1 54  1  0
  1 55  1  0
  1 56  1  0
  2 57  1  0
  3 58  1  0
  3 59  1  0
  3 60  1  0
  4 61  1  0
  4 62  1  0
  5 63  1  1
  6 64  1  0
  9 65  1  6
 10 66  1  0
 10 67  1  0
 12 68  1  0
 13 69  1  0
 14 70  1  0
 15 71  1  0
 16 72  1  0
 17 73  1  0
 20 74  1  6
 21 75  1  0
 21 76  1  0
 22 77  1  0
 22 78  1  0
 23 79  1  0
 23 80  1  0
 27 81  1  1
 28 82  1  0
 28 83  1  0
 29 84  1  0
 29 85  1  0
 31 86  1  0
 32 87  1  0
 34 88  1  0
 35 89  1  0
 36 90  1  0
 39 91  1  0
 40 92  1  6
 41 93  1  0
 41 94  1  0
 43 95  1  0
 44 96  1  0
 46 97  1  0
 47 98  1  0
 48 99  1  0
 49100  1  0
 52101  1  0
M  END
$$$$
[H]c1c([H])c([H])c2c(c1[H])c1c3c(c4c5c([H])c([H])c([H])c([H])c5n5c4c1n2[C@@]1(C([H])([H])[H])O[C@]5([H])C([H])([H])[C@]([H])(N([H])C([H])([H])[H])[C@]1([H])OC([H])([H])[H])C(=O)N([H])C3([H])[H]
     RDKit          3D

 61 68  0  0  0  0  0  0  0  0999 V2000
   -4.0469   -1.7704    1.7208 C   0  0  0  0  0  0  0  0  0  0  0  0
   -2.8051   -1.1267    1.8532 N   0  0  0  0  0  0  0  0  0  0  0  0
   -2.0631   -0.7295    0.7453 C   0  0  1  0  0  0  0  0  0  0  0  0
   -1.6837   -1.8762   -0.1711 C   0  0  0  0  0  0  0  0  0  0  0  0
   -0.8984   -1.4098   -1.3642 C   0  0  1  0  0  0  0  0  0  0  0  0
   -1.1746   -0.2090   -1.8664 O   0  0  0  0  0  0  0  0  0  0  0  0
   -1.4577    0.8633   -1.0142 C   0  0  1  0  0  0  0  0  0  0  0  0
   -2.0247    1.8974   -1.9699 C   0  0  0  0  0  0  0  0  0  0  0  0
   -2.5753    0.3728   -0.1181 C   0  0  1  0  0  0  0  0  0  0  0  0
   -3.5198   -0.1711   -0.9735 O   0  0  0  0  0  0  0  0  0  0  0  0
   -4.7628    0.3638   -0.9969 C   0  0  0  0  0  0  0  0  0  0  0  0
   -0.2701    1.3169   -0.3284 N   0  0  0  0  0  0  0  0  0  0  0  0
   -0.0959    2.5647    0.1722 C   0  0  0  0  0  0  0  0  0  0  0  0
   -0.9035    3.6566    0.2781 C   0  0  0  0  0  0  0  0  0  0  0  0
   -0.4867    4.8568    0.8587 C   0  0  0  0  0  0  0  0  0  0  0  0
    0.7815    4.9813    1.3559 C   0  0  0  0  0  0  0  0  0  0  0  0
    1.6018    3.8897    1.2562 C   0  0  0  0  0  0  0  0  0  0  0  0
    1.2013    2.7011    0.6855 C   0  0  0  0  0  0  0  0  0  0  0  0
    1.8231    1.4953    0.4914 C   0  0  0  0  0  0  0  0  0  0  0  0
    3.0935    1.0534    0.7971 C   0  0  0  0  0  0  0  0  0  0  0  0
    4.2347    1.7462    1.4443 C   0  0  0  0  0  0  0  0  0  0  0  0
    5.2812    0.7805    1.4850 N   0  0  0  0  0  0  0  0  0  0  0  0
    4.8379   -0.4605    0.9036 C   0  0  0  0  0  0  0  0  0  0  0  0
    5.5848   -1.4446    0.8345 O   0  0  0  0  0  0  0  0  0  0  0  0
    3.4679   -0.2585    0.4835 C   0  0  0  0  0  0  0  0  0  0  0  0
    2.5253   -1.0802   -0.1335 C   0  0  0  0  0  0  0  0  0  0  0  0
    2.5255   -2.4091   -0.5522 C   0  0  0  0  0  0  0  0  0  0  0  0
    3.4661   -3.3824   -0.5335 C   0  0  0  0  0  0  0  0  0  0  0  0
    3.1394   -4.6508   -1.0457 C   0  0  0  0  0  0  0  0  0  0  0  0
    1.8931   -4.8946   -1.5532 C   0  0  0  0  0  0  0  0  0  0  0  0
    0.9234   -3.9194   -1.5814 C   0  0  0  0  0  0  0  0  0  0  0  0
    1.2579   -2.6757   -1.0743 C   0  0  0  0  0  0  0  0  0  0  0  0
    0.5170   -1.5633   -0.9812 N   0  0  0  0  0  0  0  0  0  0  0  0
    1.2574   -0.6011   -0.4262 C   0  0  0  0  0  0  0  0  0  0  0  0
    0.9293    0.6883   -0.1091 C   0  0  0  0  0  0  0  0  0  0  0  0
   -4.8662   -1.0159    1.9108 H   0  0  0  0  0  0  0  0  0  0  0  0
   -4.1813   -2.6236    2.4398 H   0  0  0  0  0  0  0  0  0  0  0  0
   -4.2705   -2.2084    0.7307 H   0  0  0  0  0  0  0  0  0  0  0  0
   -2.8232   -0.4664    2.6590 H   0  0  0  0  0  0  0  0  0  0  0  0
   -1.0753   -0.3131    1.1783 H   0  0  0  0  0  0  0  0  0  0  0  0
   -1.0881   -2.5934    0.4138 H   0  0  0  0  0  0  0  0  0  0  0  0
   -2.6116   -2.3396   -0.5348 H   0  0  0  0  0  0  0  0  0  0  0  0
   -1.0616   -2.1696   -2.1624 H   0  0  0  0  0  0  0  0  0  0  0  0
   -2.9480    2.3656   -1.6768 H   0  0  0  0  0  0  0  0  0  0  0  0
   -1.2023    2.6448   -2.1814 H   0  0  0  0  0  0  0  0  0  0  0  0
   -2.2291    1.4720   -2.9983 H   0  0  0  0  0  0  0  0  0  0  0  0
   -3.0338    1.1533    0.4695 H   0  0  0  0  0  0  0  0  0  0  0  0
   -5.2481    0.3628   -0.0036 H   0  0  0  0  0  0  0  0  0  0  0  0
   -4.9197    1.3034   -1.5454 H   0  0  0  0  0  0  0  0  0  0  0  0
   -5.3837   -0.3816   -1.6336 H   0  0  0  0  0  0  0  0  0  0  0  0
   -1.9195    3.5996   -0.0805 H   0  0  0  0  0  0  0  0  0  0  0  0
   -1.1927    5.6764    0.9018 H   0  0  0  0  0  0  0  0  0  0  0  0
    1.1278    5.9226    1.8176 H   0  0  0  0  0  0  0  0  0  0  0  0
    2.6056    3.9573    1.6392 H   0  0  0  0  0  0  0  0  0  0  0  0
    4.5809    2.6270    0.8499 H   0  0  0  0  0  0  0  0  0  0  0  0
    3.9928    2.1189    2.4526 H   0  0  0  0  0  0  0  0  0  0  0  0
    6.2242    0.9648    1.8822 H   0  0  0  0  0  0  0  0  0  0  0  0
    4.4453   -3.2357   -0.1500 H   0  0  0  0  0  0  0  0  0  0  0  0
    3.9157   -5.4107   -1.0164 H   0  0  0  0  0  0  0  0  0  0  0  0
    1.6559   -5.8901   -1.9485 H   0  0  0  0  0  0  0  0  0  0  0  0
   -0.0671   -4.1156   -1.9855 H   0  0  0  0  0  0  0  0  0  0  0  0
  1  2  1  0
  2  3  1  0
  3  4  1  0
  4  5  1  0
  5  6  1  0
  6  7  1  0
  7  8  1  6
  7  9  1  0
  9 10  1  0
 10 11  1  0
  7 12  1  0
 12 13  1  0
 13 14  2  0
 14 15  1  0
 15 16  2  0
 16 17  1  0
 17 18  2  0
 18 19  1  0
 19 20  2  0
 20 21  1  0
 21 22  1  0
 22 23  1  0
 23 24  2  0
 23 25  1  0
 25 26  2  0
 26 27  1  0
 27 28  2  0
 28 29  1  0
 29 30  2  0
 30 31  1  0
 31 32  2  0
 32 33  1  0
 33 34  1  0
 34 35  2  0
  9  3  1  0
 35 12  1  0
 33  5  1  0
 18 13  1  0
 35 19  1  0
 25 20  1  0
 34 26  1  0
 32 27  1  0
  1 36  1  0
  1 37  1  0
  1 38  1  0
  2 39  1  0
  3 40  1  1
  4 41  1  0
  4 42  1  0
  5 43  1  6
  8 44  1  0
  8 45  1  0
  8 46  1  0
  9 47  1  1
 11 48  1  0
 11 49  1  0
 11 50  1  0
 14 51  1  0
 15 52  1  0
 16 53  1  0
 17 54  1  0
 21 55  1  0
 21 56  1  0
 22 57  1  0
 28 58  1  0
 29 59  1  0
 30 60  1  0
 31 61  1  0
M  END
$$$$
[H]c1c([H])c(S(=O)(=O)N([H])C(=O)N2C([H])([H])C([H])([H])N(c3c([H])c([H])c([N+](=O)[O-])c([H])c3[H])C([H])([H])C2([H])[H])c([H])c([H])c1Br
     RDKit          3D

 45 47  0  0  0  0  0  0  0  0999 V2000
   -8.1384   -1.1469    2.4127 O   0  0  0  0  0  0  0  0  0  0  0  0
   -7.8194   -0.3962    1.3188 N   0  0  0  0  0  0  0  0  0  0  0  0
   -8.7165    0.1184    0.6570 O   0  0  0  0  0  0  0  0  0  0  0  0
   -6.4620   -0.2063    0.9410 C   0  0  0  0  0  0  0  0  0  0  0  0
   -6.1382    0.5491   -0.1661 C   0  0  0  0  0  0  0  0  0  0  0  0
   -4.8055    0.7234   -0.5180 C   0  0  0  0  0  0  0  0  0  0  0  0
   -3.7976    0.1637    0.2052 C   0  0  0  0  0  0  0  0  0  0  0  0
   -4.1168   -0.5964    1.3189 C   0  0  0  0  0  0  0  0  0  0  0  0
   -5.4332   -0.7809    1.6845 C   0  0  0  0  0  0  0  0  0  0  0  0
   -2.4501    0.3199   -0.1489 N   0  0  0  0  0  0  0  0  0  0  0  0
   -1.4451   -0.0841    0.8406 C   0  0  0  0  0  0  0  0  0  0  0  0
   -0.0999    0.4254    0.3065 C   0  0  0  0  0  0  0  0  0  0  0  0
    0.1309   -0.0737   -1.0276 N   0  0  0  0  0  0  0  0  0  0  0  0
   -0.9752   -0.0273   -1.9970 C   0  0  0  0  0  0  0  0  0  0  0  0
   -2.0799    0.8427   -1.4293 C   0  0  0  0  0  0  0  0  0  0  0  0
    1.3513   -0.6058   -1.4584 C   0  0  0  0  0  0  0  0  0  0  0  0
    1.4214   -1.0199   -2.6710 O   0  0  0  0  0  0  0  0  0  0  0  0
    2.4625   -0.6887   -0.6028 N   0  0  0  0  0  0  0  0  0  0  0  0
    3.9830   -1.3488   -1.1065 S   0  0  0  0  0  0  0  0  0  0  0  0
    4.0797   -1.4017   -2.6032 O   0  0  0  0  0  0  0  0  0  0  0  0
    4.0012   -2.7799   -0.6250 O   0  0  0  0  0  0  0  0  0  0  0  0
    5.2833   -0.4217   -0.4061 C   0  0  0  0  0  0  0  0  0  0  0  0
    5.8048   -0.7455    0.8327 C   0  0  0  0  0  0  0  0  0  0  0  0
    6.8353   -0.0396    1.4174 C   0  0  0  0  0  0  0  0  0  0  0  0
    7.3958    1.0431    0.7680 C   0  0  0  0  0  0  0  0  0  0  0  0
    8.8289    2.0320    1.5641 Br  0  0  0  0  0  0  0  0  0  0  0  0
    6.8878    1.3795   -0.4680 C   0  0  0  0  0  0  0  0  0  0  0  0
    5.8569    0.6623   -1.0372 C   0  0  0  0  0  0  0  0  0  0  0  0
   -6.9087    1.0133   -0.7694 H   0  0  0  0  0  0  0  0  0  0  0  0
   -4.6025    1.3187   -1.3770 H   0  0  0  0  0  0  0  0  0  0  0  0
   -3.3506   -1.0674    1.9355 H   0  0  0  0  0  0  0  0  0  0  0  0
   -5.7358   -1.3670    2.5446 H   0  0  0  0  0  0  0  0  0  0  0  0
   -1.6712    0.4885    1.7566 H   0  0  0  0  0  0  0  0  0  0  0  0
   -1.4029   -1.1621    0.9992 H   0  0  0  0  0  0  0  0  0  0  0  0
    0.6635    0.2011    1.0392 H   0  0  0  0  0  0  0  0  0  0  0  0
   -0.2474    1.5371    0.2118 H   0  0  0  0  0  0  0  0  0  0  0  0
   -0.5619    0.5269   -2.8859 H   0  0  0  0  0  0  0  0  0  0  0  0
   -1.3178   -1.0271   -2.2748 H   0  0  0  0  0  0  0  0  0  0  0  0
   -2.8703    0.8656   -2.1741 H   0  0  0  0  0  0  0  0  0  0  0  0
   -1.6441    1.8554   -1.3059 H   0  0  0  0  0  0  0  0  0  0  0  0
    2.4147   -0.3535    0.3650 H   0  0  0  0  0  0  0  0  0  0  0  0
    5.3608   -1.6065    1.3536 H   0  0  0  0  0  0  0  0  0  0  0  0
    7.2431   -0.2923    2.3858 H   0  0  0  0  0  0  0  0  0  0  0  0
    7.3074    2.2221   -0.9951 H   0  0  0  0  0  0  0  0  0  0  0  0
    5.4786    0.9513   -2.0091 H   0  0  0  0  0  0  0  0  0  0  0  0
  1  2  1  0
  2  3  2  0
  2  4  1  0
  4  5  2  0
  5  6  1  0
  6  7  2  0
  7  8  1  0
  8  9  2  0
  7 10  1  0
 10 11  1  0
 11 12  1  0
 12 13  1  0
 13 14  1  0
 14 15  1  0
 13 16  1  0
 16 17  2  0
 16 18  1  0
 18 19  1  0
 19 20  2  0
 19 21  2  0
 19 22  1  0
 22 23  2  0
 23 24  1  0
 24 25  2  0
 25 26  1  0
 25 27  1  0
 27 28  2  0
  9  4  1  0
 15 10  1  0
 28 22  1  0
  5 29  1  0
  6 30  1  0
  8 31  1  0
  9 32  1  0
 11 33  1  0
 11 34  1  0
 12 35  1  0
 12 36  1  0
 14 37  1  0
 14 38  1  0
 15 39  1  0
 15 40  1  0
 18 41  1  0
 23 42  1  0
 24 43  1  0
 27 44  1  0
 28 45  1  0
M  CHG  2   1  -1   2   1
M  END
$$$$
[H]c1nc2c([H])c(OC([H])([H])[H])c(OC([H])([H])[H])c([H])c2c(Oc2c([H])c([H])c(N([H])C(=O)N([H])c3c([H])c([H])c([H])c(Cl)c3[H])c([H])c2[H])c1[H]
     RDKit          3D

 52 55  0  0  0  0  0  0  0  0999 V2000
   -7.3754    1.1424   -0.1104 C   0  0  0  0  0  0  0  0  0  0  0  0
   -6.1058    0.9592    0.4977 O   0  0  0  0  0  0  0  0  0  0  0  0
   -5.2522   -0.0954    0.2054 C   0  0  0  0  0  0  0  0  0  0  0  0
   -5.4908   -1.0615   -0.7296 C   0  0  0  0  0  0  0  0  0  0  0  0
   -4.6243   -2.1056   -1.0073 C   0  0  0  0  0  0  0  0  0  0  0  0
   -4.9163   -3.0240   -1.9446 N   0  0  0  0  0  0  0  0  0  0  0  0
   -4.1050   -4.0523   -2.2523 C   0  0  0  0  0  0  0  0  0  0  0  0
   -2.9320   -4.1234   -1.5447 C   0  0  0  0  0  0  0  0  0  0  0  0
   -2.5799   -3.1893   -0.5556 C   0  0  0  0  0  0  0  0  0  0  0  0
   -1.3966   -3.3037    0.1241 O   0  0  0  0  0  0  0  0  0  0  0  0
   -0.3106   -2.5047    0.1664 C   0  0  0  0  0  0  0  0  0  0  0  0
    0.6551   -2.7537    1.1025 C   0  0  0  0  0  0  0  0  0  0  0  0
    1.7846   -1.9744    1.2031 C   0  0  0  0  0  0  0  0  0  0  0  0
    2.0298   -0.9129    0.3955 C   0  0  0  0  0  0  0  0  0  0  0  0
    3.0760   -0.0550    0.4381 N   0  0  0  0  0  0  0  0  0  0  0  0
    4.1266    0.8063    0.4811 C   0  0  0  0  0  0  0  0  0  0  0  0
    4.8482    1.1120    1.5070 O   0  0  0  0  0  0  0  0  0  0  0  0
    4.5678    1.5104   -0.7029 N   0  0  0  0  0  0  0  0  0  0  0  0
    5.6280    2.3968   -0.8178 C   0  0  0  0  0  0  0  0  0  0  0  0
    5.5781    3.3089   -1.8968 C   0  0  0  0  0  0  0  0  0  0  0  0
    6.5769    4.2120   -2.1352 C   0  0  0  0  0  0  0  0  0  0  0  0
    7.6733    4.2485   -1.3095 C   0  0  0  0  0  0  0  0  0  0  0  0
    7.7765    3.3876   -0.2469 C   0  0  0  0  0  0  0  0  0  0  0  0
    9.1699    3.4341    0.7931 Cl  0  0  0  0  0  0  0  0  0  0  0  0
    6.7392    2.4806   -0.0342 C   0  0  0  0  0  0  0  0  0  0  0  0
    1.0151   -0.6558   -0.5887 C   0  0  0  0  0  0  0  0  0  0  0  0
   -0.0892   -1.4310   -0.6729 C   0  0  0  0  0  0  0  0  0  0  0  0
   -3.4433   -2.1508   -0.2725 C   0  0  0  0  0  0  0  0  0  0  0  0
   -3.2040   -1.1743    0.6764 C   0  0  0  0  0  0  0  0  0  0  0  0
   -4.0656   -0.1310    0.9538 C   0  0  0  0  0  0  0  0  0  0  0  0
   -3.8425    0.8505    1.8903 O   0  0  0  0  0  0  0  0  0  0  0  0
   -2.7221    0.9567    2.7128 C   0  0  0  0  0  0  0  0  0  0  0  0
   -8.1792    0.6548    0.4563 H   0  0  0  0  0  0  0  0  0  0  0  0
   -7.6591    2.2196   -0.1897 H   0  0  0  0  0  0  0  0  0  0  0  0
   -7.3071    0.7689   -1.1473 H   0  0  0  0  0  0  0  0  0  0  0  0
   -6.4076   -1.0416   -1.3103 H   0  0  0  0  0  0  0  0  0  0  0  0
   -4.3916   -4.7623   -3.0166 H   0  0  0  0  0  0  0  0  0  0  0  0
   -2.2748   -4.9443   -1.7907 H   0  0  0  0  0  0  0  0  0  0  0  0
    0.5361   -3.5825    1.7815 H   0  0  0  0  0  0  0  0  0  0  0  0
    2.5082   -2.2682    1.9790 H   0  0  0  0  0  0  0  0  0  0  0  0
    3.1311   -0.1486    1.7887 H   0  0  0  0  0  0  0  0  0  0  0  0
    3.9689    1.2888   -1.5648 H   0  0  0  0  0  0  0  0  0  0  0  0
    4.7221    3.2815   -2.5392 H   0  0  0  0  0  0  0  0  0  0  0  0
    6.4883    4.8946   -2.9805 H   0  0  0  0  0  0  0  0  0  0  0  0
    8.4307    4.9675   -1.5312 H   0  0  0  0  0  0  0  0  0  0  0  0
    6.8631    1.8111    0.7977 H   0  0  0  0  0  0  0  0  0  0  0  0
    1.2118    0.1864   -1.2392 H   0  0  0  0  0  0  0  0  0  0  0  0
   -0.8541   -1.2101   -1.4377 H   0  0  0  0  0  0  0  0  0  0  0  0
   -2.3107   -1.2295    1.2694 H   0  0  0  0  0  0  0  0  0  0  0  0
   -3.0594    0.8876    3.7949 H   0  0  0  0  0  0  0  0  0  0  0  0
   -1.9672    0.1605    2.6215 H   0  0  0  0  0  0  0  0  0  0  0  0
   -2.2388    1.9586    2.6376 H   0  0  0  0  0  0  0  0  0  0  0  0
  1  2  1  0
  2  3  1  0
  3  4  2  0
  4  5  1  0
  5  6  2  0
  6  7  1  0
  7  8  2  0
  8  9  1  0
  9 10  1  0
 10 11  1  0
 11 12  2  0
 12 13  1  0
 13 14  2  0
 14 15  1  0
 15 16  1  0
 16 17  2  0
 16 18  1  0
 18 19  1  0
 19 20  2  0
 20 21  1  0
 21 22  2  0
 22 23  1  0
 23 24  1  0
 23 25  2  0
 14 26  1  0
 26 27  2  0
  9 28  2  0
 28 29  1  0
 29 30  2  0
 30 31  1  0
 31 32  1  0
 30  3  1  0
 28  5  1  0
 27 11  1  0
 25 19  1  0
  1 33  1  0
  1 34  1  0
  1 35  1  0
  4 36  1  0
  7 37  1  0
  8 38  1  0
 12 39  1  0
 13 40  1  0
 15 41  1  0
 18 42  1  0
 20 43  1  0
 21 44  1  0
 22 45  1  0
 25 46  1  0
 26 47  1  0
 27 48  1  0
 29 49  1  0
 32 50  1  0
 32 51  1  0
 32 52  1  0
M  END
$$$$
[H]c1c([H])c([H])c2c(c1[H])C([H])([H])N(C1([H])C([H])([H])C([H])([H])N(C(=O)c3c([H])c(OC([H])([H])[H])c(OC([H])([H])[H])c(OC([H])([H])[H])c3[H])C([H])([H])C1([H])[H])C([H])([H])C2([H])[H]
     RDKit          3D

 60 63  0  0  0  0  0  0  0  0999 V2000
    6.3532   -1.8817   -2.8182 C   0  0  0  0  0  0  0  0  0  0  0  0
    6.2875   -1.7927   -1.4086 O   0  0  0  0  0  0  0  0  0  0  0  0
    5.1334   -1.2929   -0.8402 C   0  0  0  0  0  0  0  0  0  0  0  0
    4.0631   -0.8858   -1.5778 C   0  0  0  0  0  0  0  0  0  0  0  0
    2.8731   -0.3716   -1.0263 C   0  0  0  0  0  0  0  0  0  0  0  0
    2.8675   -0.3094    0.3388 C   0  0  0  0  0  0  0  0  0  0  0  0
    3.9274   -0.7082    1.1576 C   0  0  0  0  0  0  0  0  0  0  0  0
    3.8731   -0.6252    2.5404 O   0  0  0  0  0  0  0  0  0  0  0  0
    2.6831   -0.1154    3.1128 C   0  0  0  0  0  0  0  0  0  0  0  0
    5.0544   -1.1992    0.5291 C   0  0  0  0  0  0  0  0  0  0  0  0
    6.1292   -1.6049    1.3162 O   0  0  0  0  0  0  0  0  0  0  0  0
    7.1618   -0.7233    1.6984 C   0  0  0  0  0  0  0  0  0  0  0  0
    1.7742    0.0209   -1.8737 C   0  0  0  0  0  0  0  0  0  0  0  0
    1.9845   -0.2647   -3.1345 O   0  0  0  0  0  0  0  0  0  0  0  0
    0.5658    0.6366   -1.5693 N   0  0  0  0  0  0  0  0  0  0  0  0
    0.0322    1.0981   -0.3375 C   0  0  0  0  0  0  0  0  0  0  0  0
   -1.1795    2.0215   -0.5339 C   0  0  0  0  0  0  0  0  0  0  0  0
   -2.2495    1.4219   -1.3764 C   0  0  0  0  0  0  0  0  0  0  0  0
   -1.6967    0.2784   -2.2304 C   0  0  0  0  0  0  0  0  0  0  0  0
   -0.3488    0.8481   -2.7307 C   0  0  0  0  0  0  0  0  0  0  0  0
   -3.3640    0.9992   -0.6087 N   0  0  0  0  0  0  0  0  0  0  0  0
   -3.9789    2.1171    0.0457 C   0  0  0  0  0  0  0  0  0  0  0  0
   -5.4485    1.8320    0.2994 C   0  0  0  0  0  0  0  0  0  0  0  0
   -5.5780    0.4246    0.7894 C   0  0  0  0  0  0  0  0  0  0  0  0
   -6.8127    0.0559    1.2997 C   0  0  0  0  0  0  0  0  0  0  0  0
   -6.9975   -1.2312    1.7705 C   0  0  0  0  0  0  0  0  0  0  0  0
   -6.0019   -2.1620    1.7521 C   0  0  0  0  0  0  0  0  0  0  0  0
   -4.7721   -1.7650    1.2341 C   0  0  0  0  0  0  0  0  0  0  0  0
   -4.5704   -0.4888    0.7616 C   0  0  0  0  0  0  0  0  0  0  0  0
   -3.2295   -0.1336    0.2214 C   0  0  0  0  0  0  0  0  0  0  0  0
    7.3329   -2.2184   -3.1821 H   0  0  0  0  0  0  0  0  0  0  0  0
    6.1580   -0.8561   -3.2477 H   0  0  0  0  0  0  0  0  0  0  0  0
    5.5199   -2.5094   -3.2253 H   0  0  0  0  0  0  0  0  0  0  0  0
    4.1116   -0.9528   -2.6495 H   0  0  0  0  0  0  0  0  0  0  0  0
    2.0192    0.0493    0.8806 H   0  0  0  0  0  0  0  0  0  0  0  0
    2.4200    0.8797    2.7226 H   0  0  0  0  0  0  0  0  0  0  0  0
    1.8678   -0.8006    2.7359 H   0  0  0  0  0  0  0  0  0  0  0  0
    2.7406   -0.1194    4.2225 H   0  0  0  0  0  0  0  0  0  0  0  0
    6.9185   -0.2597    2.6988 H   0  0  0  0  0  0  0  0  0  0  0  0
    7.2858    0.1262    0.9936 H   0  0  0  0  0  0  0  0  0  0  0  0
    8.1252   -1.2521    1.8333 H   0  0  0  0  0  0  0  0  0  0  0  0
   -0.2685    0.3427    0.3824 H   0  0  0  0  0  0  0  0  0  0  0  0
    0.8073    1.8179    0.0820 H   0  0  0  0  0  0  0  0  0  0  0  0
   -0.7606    2.9114   -1.0918 H   0  0  0  0  0  0  0  0  0  0  0  0
   -1.5564    2.3437    0.4440 H   0  0  0  0  0  0  0  0  0  0  0  0
   -2.5714    2.1862   -2.1599 H   0  0  0  0  0  0  0  0  0  0  0  0
   -2.3205    0.1617   -3.1108 H   0  0  0  0  0  0  0  0  0  0  0  0
   -1.4579   -0.6136   -1.6547 H   0  0  0  0  0  0  0  0  0  0  0  0
   -0.0459    0.2623   -3.5947 H   0  0  0  0  0  0  0  0  0  0  0  0
   -0.4554    1.9299   -2.9339 H   0  0  0  0  0  0  0  0  0  0  0  0
   -3.4745    2.2351    1.0498 H   0  0  0  0  0  0  0  0  0  0  0  0
   -3.8852    3.0518   -0.5264 H   0  0  0  0  0  0  0  0  0  0  0  0
   -6.0615    1.9470   -0.5910 H   0  0  0  0  0  0  0  0  0  0  0  0
   -5.8030    2.4866    1.1223 H   0  0  0  0  0  0  0  0  0  0  0  0
   -7.6277    0.7694    1.3312 H   0  0  0  0  0  0  0  0  0  0  0  0
   -7.9790   -1.5035    2.1711 H   0  0  0  0  0  0  0  0  0  0  0  0
   -6.1546   -3.1504    2.1156 H   0  0  0  0  0  0  0  0  0  0  0  0
   -3.9862   -2.5086    1.2227 H   0  0  0  0  0  0  0  0  0  0  0  0
   -2.5286    0.0629    1.0622 H   0  0  0  0  0  0  0  0  0  0  0  0
   -2.9053   -1.0179   -0.3642 H   0  0  0  0  0  0  0  0  0  0  0  0
  1  2  1  0
  2  3  1  0
  3  4  2  0
  4  5  1  0
  5  6  2  0
  6  7  1  0
  7  8  1  0
  8  9  1  0
  7 10  2  0
 10 11  1  0
 11 12  1  0
  5 13  1  0
 13 14  2  0
 13 15  1  0
 15 16  1  0
 16 17  1  0
 17 18  1  0
 18 19  1  0
 19 20  1  0
 18 21  1  0
 21 22  1  0
 22 23  1  0
 23 24  1  0
 24 25  2  0
 25 26  1  0
 26 27  2  0
 27 28  1  0
 28 29  2  0
 29 30  1  0
 10  3  1  0
 20 15  1  0
 30 21  1  0
 29 24  1  0
  1 31  1  0
  1 32  1  0
  1 33  1  0
  4 34  1  0
  6 35  1  0
  9 36  1  0
  9 37  1  0
  9 38  1  0
 12 39  1  0
 12 40  1  0
 12 41  1  0
 16 42  1  0
 16 43  1  0
 17 44  1  0
 17 45  1  0
 18 46  1  0
 19 47  1  0
 19 48  1  0
 20 49  1  0
 20 50  1  0
 22 51  1  0
 22 52  1  0
 23 53  1  0
 23 54  1  0
 25 55  1  0
 26 56  1  0
 27 57  1  0
 28 58  1  0
 30 59  1  0
 30 60  1  0
M  END
$$$$
[H]c1nc(N([H])c2c([H])c(OC([H])([H])[H])c(OC([H])([H])[H])c(OC([H])([H])[H])c2[H])nc(N([H])c2nc3c(c([H])c2[H])OC(C([H])([H])[H])(C([H])([H])[H])C(=O)N3[H])c1F
     RDKit          3D

 57 60  0  0  0  0  0  0  0  0999 V2000
   -5.6364    2.1181   -1.8630 C   0  0  0  0  0  0  0  0  0  0  0  0
   -5.8443    0.7587   -1.5880 O   0  0  0  0  0  0  0  0  0  0  0  0
   -4.8072    0.0010   -1.0783 C   0  0  0  0  0  0  0  0  0  0  0  0
   -3.5618    0.6012   -0.8432 C   0  0  0  0  0  0  0  0  0  0  0  0
   -2.5031   -0.0703   -0.3477 C   0  0  0  0  0  0  0  0  0  0  0  0
   -1.2316    0.4626   -0.0655 N   0  0  0  0  0  0  0  0  0  0  0  0
   -0.9067    1.8244    0.0656 C   0  0  0  0  0  0  0  0  0  0  0  0
   -1.7494    2.8585   -0.0431 N   0  0  0  0  0  0  0  0  0  0  0  0
   -1.4116    4.1432    0.0863 C   0  0  0  0  0  0  0  0  0  0  0  0
   -0.1125    4.4539    0.3502 C   0  0  0  0  0  0  0  0  0  0  0  0
    0.3587    5.6995    0.5032 F   0  0  0  0  0  0  0  0  0  0  0  0
    0.8217    3.4140    0.4762 C   0  0  0  0  0  0  0  0  0  0  0  0
    2.1801    3.7060    0.7505 N   0  0  0  0  0  0  0  0  0  0  0  0
    3.1050    2.6399    0.8733 C   0  0  0  0  0  0  0  0  0  0  0  0
    4.4571    2.8965    1.1446 C   0  0  0  0  0  0  0  0  0  0  0  0
    5.3443    1.8517    1.2613 C   0  0  0  0  0  0  0  0  0  0  0  0
    4.9285    0.5481    1.1161 C   0  0  0  0  0  0  0  0  0  0  0  0
    5.7961   -0.5293    1.2273 O   0  0  0  0  0  0  0  0  0  0  0  0
    5.5066   -1.7939    0.6515 C   0  0  0  0  0  0  0  0  0  0  0  0
    6.2846   -2.8749    1.3459 C   0  0  0  0  0  0  0  0  0  0  0  0
    5.8127   -1.7705   -0.8228 C   0  0  0  0  0  0  0  0  0  0  0  0
    4.0556   -2.1122    0.8177 C   0  0  0  0  0  0  0  0  0  0  0  0
    3.6763   -3.3008    1.0572 O   0  0  0  0  0  0  0  0  0  0  0  0
    3.1427   -1.0383    0.6962 N   0  0  0  0  0  0  0  0  0  0  0  0
    3.5828    0.3027    0.8467 C   0  0  0  0  0  0  0  0  0  0  0  0
    2.7547    1.3550    0.7416 N   0  0  0  0  0  0  0  0  0  0  0  0
    0.3826    2.1601    0.3289 N   0  0  0  0  0  0  0  0  0  0  0  0
   -2.7045   -1.4372   -0.0691 C   0  0  0  0  0  0  0  0  0  0  0  0
   -3.9082   -2.0549   -0.2874 C   0  0  0  0  0  0  0  0  0  0  0  0
   -4.0666   -3.3859   -0.0045 O   0  0  0  0  0  0  0  0  0  0  0  0
   -2.9762   -4.1177    0.5153 C   0  0  0  0  0  0  0  0  0  0  0  0
   -4.9761   -1.3425   -0.7952 C   0  0  0  0  0  0  0  0  0  0  0  0
   -6.2188   -1.9257   -1.0338 O   0  0  0  0  0  0  0  0  0  0  0  0
   -7.1743   -1.9137    0.0186 C   0  0  0  0  0  0  0  0  0  0  0  0
   -4.7813    2.3111   -2.5387 H   0  0  0  0  0  0  0  0  0  0  0  0
   -5.4850    2.7232   -0.9417 H   0  0  0  0  0  0  0  0  0  0  0  0
   -6.5386    2.5082   -2.4098 H   0  0  0  0  0  0  0  0  0  0  0  0
   -3.4970    1.6360   -1.0973 H   0  0  0  0  0  0  0  0  0  0  0  0
   -0.4103   -0.2136    0.0641 H   0  0  0  0  0  0  0  0  0  0  0  0
   -2.1604    4.9024   -0.0184 H   0  0  0  0  0  0  0  0  0  0  0  0
    2.4712    4.6872    0.8556 H   0  0  0  0  0  0  0  0  0  0  0  0
    4.7318    3.9285    1.2492 H   0  0  0  0  0  0  0  0  0  0  0  0
    6.3943    2.0780    1.4734 H   0  0  0  0  0  0  0  0  0  0  0  0
    5.7812   -3.1588    2.2953 H   0  0  0  0  0  0  0  0  0  0  0  0
    7.3278   -2.5920    1.5737 H   0  0  0  0  0  0  0  0  0  0  0  0
    6.3119   -3.7970    0.7168 H   0  0  0  0  0  0  0  0  0  0  0  0
    5.5475   -2.7321   -1.2838 H   0  0  0  0  0  0  0  0  0  0  0  0
    5.2428   -0.9509   -1.3072 H   0  0  0  0  0  0  0  0  0  0  0  0
    6.8942   -1.5474   -0.9277 H   0  0  0  0  0  0  0  0  0  0  0  0
    2.1474   -1.2464    0.4955 H   0  0  0  0  0  0  0  0  0  0  0  0
   -1.8577   -2.0119    0.3366 H   0  0  0  0  0  0  0  0  0  0  0  0
   -2.2185   -4.1935   -0.2936 H   0  0  0  0  0  0  0  0  0  0  0  0
   -3.3828   -5.1246    0.7905 H   0  0  0  0  0  0  0  0  0  0  0  0
   -2.5554   -3.6060    1.4036 H   0  0  0  0  0  0  0  0  0  0  0  0
   -7.4919   -2.9486    0.2973 H   0  0  0  0  0  0  0  0  0  0  0  0
   -8.0902   -1.3564   -0.3279 H   0  0  0  0  0  0  0  0  0  0  0  0
   -6.7818   -1.4227    0.9319 H   0  0  0  0  0  0  0  0  0  0  0  0
  1  2  1  0
  2  3  1  0
  3  4  2  0
  4  5  1  0
  5  6  1  0
  6  7  1  0
  7  8  2  0
  8  9  1  0
  9 10  2  0
 10 11  1  0
 10 12  1  0
 12 13  1  0
 13 14  1  0
 14 15  2  0
 15 16  1  0
 16 17  2  0
 17 18  1  0
 18 19  1  0
 19 20  1  0
 19 21  1  0
 19 22  1  0
 22 23  2  0
 22 24  1  0
 24 25  1  0
 25 26  2  0
 12 27  2  0
  5 28  2  0
 28 29  1  0
 29 30  1  0
 30 31  1  0
 29 32  2  0
 32 33  1  0
 33 34  1  0
 32  3  1  0
 27  7  1  0
 26 14  1  0
 25 17  1  0
  1 35  1  0
  1 36  1  0
  1 37  1  0
  4 38  1  0
  6 39  1  0
  9 40  1  0
 13 41  1  0
 15 42  1  0
 16 43  1  0
 20 44  1  0
 20 45  1  0
 20 46  1  0
 21 47  1  0
 21 48  1  0
 21 49  1  0
 24 50  1  0
 28 51  1  0
 31 52  1  0
 31 53  1  0
 31 54  1  0
 34 55  1  0
 34 56  1  0
 34 57  1  0
M  END
$$$$
[H]N=C(N([H])[H])N([H])C([H])([H])C([H])([H])C([H])([H])[C@@]1([H])C(=O)N([H])[C@]([H])(C([H])([H])c2c([H])c([H])c(O[H])c([H])c2[H])C(=O)N2C([H])([H])C([H])([H])C([H])([H])[C@@]2([H])C(=O)N1[H]
     RDKit          3D

 58 60  0  0  0  0  0  0  0  0999 V2000
   -6.5117    2.6688   -0.9735 N   0  0  0  0  0  0  0  0  0  0  0  0
   -5.5723    1.5957   -0.9282 C   0  0  0  0  0  0  0  0  0  0  0  0
   -5.9735    0.4647   -1.4243 N   0  0  0  0  0  0  0  0  0  0  0  0
   -4.2850    1.7861   -0.3681 N   0  0  0  0  0  0  0  0  0  0  0  0
   -3.0775    1.9689   -1.1655 C   0  0  0  0  0  0  0  0  0  0  0  0
   -1.8707    2.1462   -0.3118 C   0  0  0  0  0  0  0  0  0  0  0  0
   -1.5408    1.0294    0.6035 C   0  0  0  0  0  0  0  0  0  0  0  0
   -1.2370   -0.2896   -0.0424 C   0  0  2  0  0  0  0  0  0  0  0  0
   -0.9554   -1.2812    0.9888 N   0  0  0  0  0  0  0  0  0  0  0  0
   -0.7330   -2.6487    0.7823 C   0  0  0  0  0  0  0  0  0  0  0  0
   -1.4073   -3.4855    1.4820 O   0  0  0  0  0  0  0  0  0  0  0  0
    0.2272   -3.2385   -0.1870 C   0  0  2  0  0  0  0  0  0  0  0  0
   -0.0538   -4.7122   -0.3909 C   0  0  0  0  0  0  0  0  0  0  0  0
    1.1452   -5.4082    0.1615 C   0  0  0  0  0  0  0  0  0  0  0  0
    2.2576   -4.4226   -0.1053 C   0  0  0  0  0  0  0  0  0  0  0  0
    1.6002   -3.1648    0.2929 N   0  0  0  0  0  0  0  0  0  0  0  0
    2.1217   -2.0501    1.0034 C   0  0  0  0  0  0  0  0  0  0  0  0
    2.8645   -2.2418    2.0013 O   0  0  0  0  0  0  0  0  0  0  0  0
    1.8484   -0.6295    0.6461 C   0  0  1  0  0  0  0  0  0  0  0  0
    3.2421    0.0271    0.6301 C   0  0  0  0  0  0  0  0  0  0  0  0
    3.1752    1.4455    0.2937 C   0  0  0  0  0  0  0  0  0  0  0  0
    3.2567    1.8460   -1.0177 C   0  0  0  0  0  0  0  0  0  0  0  0
    3.1940    3.1853   -1.3411 C   0  0  0  0  0  0  0  0  0  0  0  0
    3.0475    4.1598   -0.3552 C   0  0  0  0  0  0  0  0  0  0  0  0
    2.9863    5.5029   -0.6990 O   0  0  0  0  0  0  0  0  0  0  0  0
    2.9665    3.7634    0.9472 C   0  0  0  0  0  0  0  0  0  0  0  0
    3.0307    2.4169    1.2580 C   0  0  0  0  0  0  0  0  0  0  0  0
    1.2531   -0.5380   -0.6555 N   0  0  0  0  0  0  0  0  0  0  0  0
   -0.0553   -0.1283   -0.9435 C   0  0  0  0  0  0  0  0  0  0  0  0
   -0.2348    0.4268   -2.0742 O   0  0  0  0  0  0  0  0  0  0  0  0
   -7.0081    2.8909   -1.8725 H   0  0  0  0  0  0  0  0  0  0  0  0
   -6.7442    3.2605   -0.1573 H   0  0  0  0  0  0  0  0  0  0  0  0
   -5.2909   -0.3170   -1.3920 H   0  0  0  0  0  0  0  0  0  0  0  0
   -4.1780    1.7987    0.6628 H   0  0  0  0  0  0  0  0  0  0  0  0
   -3.2400    2.9522   -1.6986 H   0  0  0  0  0  0  0  0  0  0  0  0
   -2.9761    1.1966   -1.9334 H   0  0  0  0  0  0  0  0  0  0  0  0
   -2.0757    3.0400    0.3494 H   0  0  0  0  0  0  0  0  0  0  0  0
   -1.0333    2.4704   -0.9610 H   0  0  0  0  0  0  0  0  0  0  0  0
   -2.4481    0.8592    1.2547 H   0  0  0  0  0  0  0  0  0  0  0  0
   -0.7507    1.3604    1.3011 H   0  0  0  0  0  0  0  0  0  0  0  0
   -2.0918   -0.5619   -0.6915 H   0  0  0  0  0  0  0  0  0  0  0  0
   -0.9155   -0.9398    1.9976 H   0  0  0  0  0  0  0  0  0  0  0  0
    0.0917   -2.7801   -1.1861 H   0  0  0  0  0  0  0  0  0  0  0  0
   -0.9434   -5.0417    0.2030 H   0  0  0  0  0  0  0  0  0  0  0  0
   -0.1773   -5.0009   -1.4397 H   0  0  0  0  0  0  0  0  0  0  0  0
    1.0962   -5.6531    1.2208 H   0  0  0  0  0  0  0  0  0  0  0  0
    1.3507   -6.3404   -0.4097 H   0  0  0  0  0  0  0  0  0  0  0  0
    2.5105   -4.4267   -1.1670 H   0  0  0  0  0  0  0  0  0  0  0  0
    3.0949   -4.6713    0.5542 H   0  0  0  0  0  0  0  0  0  0  0  0
    1.2770   -0.0822    1.4047 H   0  0  0  0  0  0  0  0  0  0  0  0
    3.9037   -0.5579   -0.0660 H   0  0  0  0  0  0  0  0  0  0  0  0
    3.6575   -0.1582    1.6534 H   0  0  0  0  0  0  0  0  0  0  0  0
    3.3700    1.1064   -1.7913 H   0  0  0  0  0  0  0  0  0  0  0  0
    3.2554    3.5377   -2.3687 H   0  0  0  0  0  0  0  0  0  0  0  0
    3.8466    6.0534   -0.7519 H   0  0  0  0  0  0  0  0  0  0  0  0
    2.8529    4.5250    1.7071 H   0  0  0  0  0  0  0  0  0  0  0  0
    2.9662    2.1005    2.2948 H   0  0  0  0  0  0  0  0  0  0  0  0
    1.8912   -0.8149   -1.4658 H   0  0  0  0  0  0  0  0  0  0  0  0
  1  2  1  0
  2  3  2  3
  2  4  1  0
  4  5  1  0
  5  6  1  0
  6  7  1  0
  7  8  1  0
  8  9  1  0
  9 10  1  0
 10 11  2  0
 10 12  1  0
 12 13  1  0
 13 14  1  0
 14 15  1  0
 15 16  1  0
 16 17  1  0
 17 18  2  0
 17 19  1  0
 19 20  1  0
 20 21  1  0
 21 22  2  0
 22 23  1  0
 23 24  2  0
 24 25  1  0
 24 26  1  0
 26 27  2  0
 19 28  1  0
 28 29  1  0
 29 30  2  0
 29  8  1  0
 16 12  1  0
 27 21  1  0
  1 31  1  0
  1 32  1  0
  3 33  1  0
  4 34  1  0
  5 35  1  0
  5 36  1  0
  6 37  1  0
  6 38  1  0
  7 39  1  0
  7 40  1  0
  8 41  1  6
  9 42  1  0
 12 43  1  6
 13 44  1  0
 13 45  1  0
 14 46  1  0
 14 47  1  0
 15 48  1  0
 15 49  1  0
 19 50  1  1
 20 51  1  0
 20 52  1  0
 22 53  1  0
 23 54  1  0
 25 55  1  0
 26 56  1  0
 27 57  1  0
 28 58  1  0
M  END
$$$$
[H]c1nc2c([H])c(C(=O)N([H])C([H])([H])C([H])([H])N3C([H])([H])C([H])([H])C([H])([H])C([H])([H])C3([H])[H])sc2c(Oc2c([H])c([H])c(N([H])C(=O)N([H])c3c([H])c(C([H])([H])[H])c([H])c([H])c3F)c(F)c2[H])c1[H]
     RDKit          3D

 69 73  0  0  0  0  0  0  0  0999 V2000
  -11.9047    1.4382    1.0624 C   0  0  0  0  0  0  0  0  0  0  0  0
  -11.5644    0.3826    0.0730 C   0  0  0  0  0  0  0  0  0  0  0  0
  -12.5882   -0.2541   -0.5617 C   0  0  0  0  0  0  0  0  0  0  0  0
  -12.3054   -1.2343   -1.4809 C   0  0  0  0  0  0  0  0  0  0  0  0
  -11.0175   -1.5698   -1.7585 C   0  0  0  0  0  0  0  0  0  0  0  0
  -10.7740   -2.5441   -2.6750 F   0  0  0  0  0  0  0  0  0  0  0  0
   -9.9662   -0.9138   -1.1048 C   0  0  0  0  0  0  0  0  0  0  0  0
   -8.6576   -1.3056   -1.4380 N   0  0  0  0  0  0  0  0  0  0  0  0
   -7.4299   -0.8061   -0.9218 C   0  0  0  0  0  0  0  0  0  0  0  0
   -7.3808    0.0763   -0.0694 O   0  0  0  0  0  0  0  0  0  0  0  0
   -6.2465   -1.3831   -1.4455 N   0  0  0  0  0  0  0  0  0  0  0  0
   -4.9480   -1.0602   -1.0848 C   0  0  0  0  0  0  0  0  0  0  0  0
   -4.6122   -0.2222   -0.0553 C   0  0  0  0  0  0  0  0  0  0  0  0
   -3.2672    0.0528    0.2855 C   0  0  0  0  0  0  0  0  0  0  0  0
   -2.2734   -0.5386   -0.4375 C   0  0  0  0  0  0  0  0  0  0  0  0
   -0.9560   -0.3030   -0.1432 O   0  0  0  0  0  0  0  0  0  0  0  0
   -0.2865    0.7838   -0.6748 C   0  0  0  0  0  0  0  0  0  0  0  0
   -0.9673    1.6785   -1.4917 C   0  0  0  0  0  0  0  0  0  0  0  0
   -0.1678    2.7291   -1.9594 C   0  0  0  0  0  0  0  0  0  0  0  0
    1.1098    2.8943   -1.6792 N   0  0  0  0  0  0  0  0  0  0  0  0
    1.7900    2.0090   -0.8700 C   0  0  0  0  0  0  0  0  0  0  0  0
    3.0974    2.0661   -0.5175 C   0  0  0  0  0  0  0  0  0  0  0  0
    3.5706    1.0747    0.2920 C   0  0  0  0  0  0  0  0  0  0  0  0
    2.1992    0.0963    0.5418 S   0  0  0  0  0  0  0  0  0  0  0  0
    1.0609    0.9650   -0.3842 C   0  0  0  0  0  0  0  0  0  0  0  0
    4.9284    0.8800    0.8179 C   0  0  0  0  0  0  0  0  0  0  0  0
    5.1038   -0.1243    1.5420 O   0  0  0  0  0  0  0  0  0  0  0  0
    5.9589    1.7583    0.5281 N   0  0  0  0  0  0  0  0  0  0  0  0
    7.2946    1.5803    1.0174 C   0  0  0  0  0  0  0  0  0  0  0  0
    7.8791    0.3129    0.5052 C   0  0  0  0  0  0  0  0  0  0  0  0
    9.2440    0.0603    0.9499 N   0  0  0  0  0  0  0  0  0  0  0  0
    9.6052   -1.2167    0.3050 C   0  0  0  0  0  0  0  0  0  0  0  0
   11.0559   -1.5557    0.5008 C   0  0  0  0  0  0  0  0  0  0  0  0
   11.4436   -1.3072    1.9453 C   0  0  0  0  0  0  0  0  0  0  0  0
   10.1951   -1.2978    2.7664 C   0  0  0  0  0  0  0  0  0  0  0  0
    9.2708   -0.1855    2.3975 C   0  0  0  0  0  0  0  0  0  0  0  0
   -2.5884   -1.3934   -1.4876 C   0  0  0  0  0  0  0  0  0  0  0  0
   -3.8805   -1.6418   -1.7963 C   0  0  0  0  0  0  0  0  0  0  0  0
   -4.1897   -2.4697   -2.8168 F   0  0  0  0  0  0  0  0  0  0  0  0
  -10.2676    0.0599   -0.1922 C   0  0  0  0  0  0  0  0  0  0  0  0
  -12.8720    1.2086    1.5302 H   0  0  0  0  0  0  0  0  0  0  0  0
  -11.9481    2.4301    0.5605 H   0  0  0  0  0  0  0  0  0  0  0  0
  -11.1062    1.4603    1.8570 H   0  0  0  0  0  0  0  0  0  0  0  0
  -13.6189   -0.0109   -0.3625 H   0  0  0  0  0  0  0  0  0  0  0  0
  -13.1506   -1.7274   -1.9736 H   0  0  0  0  0  0  0  0  0  0  0  0
   -8.5419   -2.0776   -2.1703 H   0  0  0  0  0  0  0  0  0  0  0  0
   -6.3500   -2.1516   -2.1938 H   0  0  0  0  0  0  0  0  0  0  0  0
   -5.3383    0.2633    0.5552 H   0  0  0  0  0  0  0  0  0  0  0  0
   -3.0152    0.7113    1.0951 H   0  0  0  0  0  0  0  0  0  0  0  0
   -1.9975    1.5952   -1.7534 H   0  0  0  0  0  0  0  0  0  0  0  0
   -0.7037    3.4330   -2.6020 H   0  0  0  0  0  0  0  0  0  0  0  0
    3.8110    2.8662   -0.8421 H   0  0  0  0  0  0  0  0  0  0  0  0
    5.7688    2.5924   -0.0729 H   0  0  0  0  0  0  0  0  0  0  0  0
    7.9332    2.4720    0.8132 H   0  0  0  0  0  0  0  0  0  0  0  0
    7.2143    1.4799    2.1376 H   0  0  0  0  0  0  0  0  0  0  0  0
    7.2993   -0.5495    0.8076 H   0  0  0  0  0  0  0  0  0  0  0  0
    7.9650    0.4197   -0.6096 H   0  0  0  0  0  0  0  0  0  0  0  0
    9.3848   -1.1076   -0.7649 H   0  0  0  0  0  0  0  0  0  0  0  0
    8.9289   -2.0106    0.6874 H   0  0  0  0  0  0  0  0  0  0  0  0
   11.7065   -0.9914   -0.1813 H   0  0  0  0  0  0  0  0  0  0  0  0
   11.1693   -2.6619    0.3124 H   0  0  0  0  0  0  0  0  0  0  0  0
   12.0437   -0.3917    2.0428 H   0  0  0  0  0  0  0  0  0  0  0  0
   12.0998   -2.1367    2.2784 H   0  0  0  0  0  0  0  0  0  0  0  0
   10.5049   -1.2737    3.8319 H   0  0  0  0  0  0  0  0  0  0  0  0
    9.6746   -2.2740    2.6016 H   0  0  0  0  0  0  0  0  0  0  0  0
    9.6422    0.7471    2.8666 H   0  0  0  0  0  0  0  0  0  0  0  0
    8.2442   -0.4672    2.7541 H   0  0  0  0  0  0  0  0  0  0  0  0
   -1.7936   -1.8529   -2.0457 H   0  0  0  0  0  0  0  0  0  0  0  0
   -9.5224    0.6163    0.3570 H   0  0  0  0  0  0  0  0  0  0  0  0
  1  2  1  0
  2  3  2  0
  3  4  1  0
  4  5  2  0
  5  6  1  0
  5  7  1  0
  7  8  1  0
  8  9  1  0
  9 10  2  0
  9 11  1  0
 11 12  1  0
 12 13  2  0
 13 14  1  0
 14 15  2  0
 15 16  1  0
 16 17  1  0
 17 18  2  0
 18 19  1  0
 19 20  2  0
 20 21  1  0
 21 22  1  0
 22 23  2  0
 23 24  1  0
 24 25  1  0
 23 26  1  0
 26 27  2  0
 26 28  1  0
 28 29  1  0
 29 30  1  0
 30 31  1  0
 31 32  1  0
 32 33  1  0
 33 34  1  0
 34 35  1  0
 35 36  1  0
 15 37  1  0
 37 38  2  0
 38 39  1  0
  7 40  2  0
 40  2  1  0
 38 12  1  0
 25 17  1  0
 36 31  1  0
 25 21  2  0
  1 41  1  0
  1 42  1  0
  1 43  1  0
  3 44  1  0
  4 45  1  0
  8 46  1  0
 11 47  1  0
 13 48  1  0
 14 49  1  0
 18 50  1  0
 19 51  1  0
 22 52  1  0
 28 53  1  0
 29 54  1  0
 29 55  1  0
 30 56  1  0
 30 57  1  0
 32 58  1  0
 32 59  1  0
 33 60  1  0
 33 61  1  0
 34 62  1  0
 34 63  1  0
 35 64  1  0
 35 65  1  0
 36 66  1  0
 36 67  1  0
 37 68  1  0
 40 69  1  0
M  END
$$$$
[H]OC(=O)[C@@]([H])(N([H])C(=O)[C@@]([H])(N([H])C(=O)[C@@]1([H])N(C(=O)[C@@]([H])(N([H])C(=O)[C@@]([H])(N([H])[H])C([H])([H])c2c([H])c([H])c(O[H])c([H])c2[H])C([H])(C([H])([H])[H])C([H])([H])[H])C([H])([H])C([H])([H])C1([H])[H])C([H])([H])c1c([H])c([H])c([H])c([H])c1[H])C([H])([H])C([H])(C([H])([H])[H])C([H])([H])[H]
     RDKit          3D

 93 95  0  0  0  0  0  0  0  0999 V2000
    4.7425    5.4691    2.1230 C   0  0  0  0  0  0  0  0  0  0  0  0
    5.0984    4.1503    1.4018 C   0  0  0  0  0  0  0  0  0  0  0  0
    6.6248    4.0990    1.5074 C   0  0  0  0  0  0  0  0  0  0  0  0
    4.6026    4.3065    0.0105 C   0  0  0  0  0  0  0  0  0  0  0  0
    4.7987    3.1664   -0.9122 C   0  0  2  0  0  0  0  0  0  0  0  0
    4.1516    1.9432   -0.4736 N   0  0  0  0  0  0  0  0  0  0  0  0
    3.2198    1.2186   -1.2222 C   0  0  0  0  0  0  0  0  0  0  0  0
    2.8852    1.6169   -2.3602 O   0  0  0  0  0  0  0  0  0  0  0  0
    2.5969   -0.0327   -0.7142 C   0  0  2  0  0  0  0  0  0  0  0  0
    3.6492   -0.9109   -0.1645 C   0  0  0  0  0  0  0  0  0  0  0  0
    3.2395   -2.2040    0.3828 C   0  0  0  0  0  0  0  0  0  0  0  0
    3.2175   -3.3103   -0.4588 C   0  0  0  0  0  0  0  0  0  0  0  0
    2.8641   -4.5605   -0.0318 C   0  0  0  0  0  0  0  0  0  0  0  0
    2.5084   -4.7767    1.2767 C   0  0  0  0  0  0  0  0  0  0  0  0
    2.5182   -3.7042    2.1400 C   0  0  0  0  0  0  0  0  0  0  0  0
    2.8815   -2.4285    1.6941 C   0  0  0  0  0  0  0  0  0  0  0  0
    1.7115   -0.6203   -1.6801 N   0  0  0  0  0  0  0  0  0  0  0  0
    0.2970   -0.4976   -1.6680 C   0  0  0  0  0  0  0  0  0  0  0  0
   -0.2517    0.1522   -0.7843 O   0  0  0  0  0  0  0  0  0  0  0  0
   -0.4590   -1.1759   -2.7512 C   0  0  2  0  0  0  0  0  0  0  0  0
   -0.1139   -0.4610   -4.0739 C   0  0  0  0  0  0  0  0  0  0  0  0
   -1.3935    0.3659   -4.3148 C   0  0  0  0  0  0  0  0  0  0  0  0
   -2.4076   -0.6836   -3.9347 C   0  0  0  0  0  0  0  0  0  0  0  0
   -1.8616   -1.1805   -2.6535 N   0  0  0  0  0  0  0  0  0  0  0  0
   -2.7957   -1.5755   -1.6605 C   0  0  0  0  0  0  0  0  0  0  0  0
   -4.0410   -1.3190   -2.0280 O   0  0  0  0  0  0  0  0  0  0  0  0
   -2.6557   -2.1842   -0.3628 C   0  0  1  0  0  0  0  0  0  0  0  0
   -3.9580   -2.1144    0.3749 N   0  0  0  0  0  0  0  0  0  0  0  0
   -4.0455   -1.5669    1.6756 C   0  0  0  0  0  0  0  0  0  0  0  0
   -3.0099   -1.1314    2.2176 O   0  0  0  0  0  0  0  0  0  0  0  0
   -5.3240   -1.5001    2.4052 C   0  0  1  0  0  0  0  0  0  0  0  0
   -5.0490   -1.0370    3.7697 N   0  0  0  0  0  0  0  0  0  0  0  0
   -6.3214   -0.5397    1.7806 C   0  0  0  0  0  0  0  0  0  0  0  0
   -5.8585    0.8502    1.7334 C   0  0  0  0  0  0  0  0  0  0  0  0
   -5.1667    1.3084    0.6436 C   0  0  0  0  0  0  0  0  0  0  0  0
   -4.7305    2.6316    0.6142 C   0  0  0  0  0  0  0  0  0  0  0  0
   -4.9802    3.4928    1.6557 C   0  0  0  0  0  0  0  0  0  0  0  0
   -4.5373    4.8284    1.6218 O   0  0  0  0  0  0  0  0  0  0  0  0
   -5.6758    3.0446    2.7607 C   0  0  0  0  0  0  0  0  0  0  0  0
   -6.1013    1.7271    2.7725 C   0  0  0  0  0  0  0  0  0  0  0  0
   -2.3179   -3.6617   -0.3279 C   0  0  0  0  0  0  0  0  0  0  0  0
   -3.3338   -4.5288   -1.0139 C   0  0  0  0  0  0  0  0  0  0  0  0
   -0.9216   -4.0348   -0.6484 C   0  0  0  0  0  0  0  0  0  0  0  0
    6.1925    2.9616   -1.2930 C   0  0  0  0  0  0  0  0  0  0  0  0
    7.0827    3.8997   -1.7309 O   0  0  0  0  0  0  0  0  0  0  0  0
    6.6464    1.7648   -1.2150 O   0  0  0  0  0  0  0  0  0  0  0  0
    3.6668    5.4256    2.3908 H   0  0  0  0  0  0  0  0  0  0  0  0
    5.3900    5.5994    2.9979 H   0  0  0  0  0  0  0  0  0  0  0  0
    4.9754    6.2833    1.4125 H   0  0  0  0  0  0  0  0  0  0  0  0
    4.6141    3.3562    1.9884 H   0  0  0  0  0  0  0  0  0  0  0  0
    6.9199    4.2835    2.5822 H   0  0  0  0  0  0  0  0  0  0  0  0
    7.0657    4.9316    0.9524 H   0  0  0  0  0  0  0  0  0  0  0  0
    7.0343    3.0996    1.2868 H   0  0  0  0  0  0  0  0  0  0  0  0
    3.5135    4.5301    0.0645 H   0  0  0  0  0  0  0  0  0  0  0  0
    5.1338    5.1851   -0.4226 H   0  0  0  0  0  0  0  0  0  0  0  0
    4.2641    3.4199   -1.8806 H   0  0  0  0  0  0  0  0  0  0  0  0
    4.4217    1.6070    0.4828 H   0  0  0  0  0  0  0  0  0  0  0  0
    1.9386    0.3237    0.1336 H   0  0  0  0  0  0  0  0  0  0  0  0
    4.4892   -1.0006   -0.8887 H   0  0  0  0  0  0  0  0  0  0  0  0
    4.1123   -0.3522    0.7096 H   0  0  0  0  0  0  0  0  0  0  0  0
    3.4896   -3.1874   -1.5000 H   0  0  0  0  0  0  0  0  0  0  0  0
    2.8468   -5.4320   -0.6988 H   0  0  0  0  0  0  0  0  0  0  0  0
    2.2202   -5.7746    1.6419 H   0  0  0  0  0  0  0  0  0  0  0  0
    2.2451   -3.8449    3.1722 H   0  0  0  0  0  0  0  0  0  0  0  0
    2.8883   -1.5974    2.3774 H   0  0  0  0  0  0  0  0  0  0  0  0
    2.1815   -1.1840   -2.4446 H   0  0  0  0  0  0  0  0  0  0  0  0
   -0.0906   -2.2349   -2.8438 H   0  0  0  0  0  0  0  0  0  0  0  0
    0.7718    0.1594   -3.9636 H   0  0  0  0  0  0  0  0  0  0  0  0
   -0.0500   -1.2514   -4.8430 H   0  0  0  0  0  0  0  0  0  0  0  0
   -1.4768    0.6887   -5.3578 H   0  0  0  0  0  0  0  0  0  0  0  0
   -1.3986    1.2063   -3.5908 H   0  0  0  0  0  0  0  0  0  0  0  0
   -2.3096   -1.5379   -4.6307 H   0  0  0  0  0  0  0  0  0  0  0  0
   -3.4209   -0.2925   -3.8422 H   0  0  0  0  0  0  0  0  0  0  0  0
   -1.9508   -1.6802    0.2841 H   0  0  0  0  0  0  0  0  0  0  0  0
   -4.8301   -2.4706   -0.0627 H   0  0  0  0  0  0  0  0  0  0  0  0
   -5.8292   -2.4698    2.5134 H   0  0  0  0  0  0  0  0  0  0  0  0
   -4.3577   -1.6665    4.2133 H   0  0  0  0  0  0  0  0  0  0  0  0
   -5.9579   -0.9981    4.2708 H   0  0  0  0  0  0  0  0  0  0  0  0
   -7.2929   -0.6183    2.3043 H   0  0  0  0  0  0  0  0  0  0  0  0
   -6.5130   -0.9283    0.7395 H   0  0  0  0  0  0  0  0  0  0  0  0
   -4.9288    0.7068   -0.2186 H   0  0  0  0  0  0  0  0  0  0  0  0
   -4.1847    2.9826   -0.2498 H   0  0  0  0  0  0  0  0  0  0  0  0
   -3.6257    5.0132    1.9983 H   0  0  0  0  0  0  0  0  0  0  0  0
   -5.8726    3.7227    3.5839 H   0  0  0  0  0  0  0  0  0  0  0  0
   -6.6456    1.4078    3.6576 H   0  0  0  0  0  0  0  0  0  0  0  0
   -2.4367   -3.9158    0.7919 H   0  0  0  0  0  0  0  0  0  0  0  0
   -3.8061   -4.0552   -1.8906 H   0  0  0  0  0  0  0  0  0  0  0  0
   -4.1903   -4.7671   -0.3194 H   0  0  0  0  0  0  0  0  0  0  0  0
   -2.8908   -5.5250   -1.2555 H   0  0  0  0  0  0  0  0  0  0  0  0
   -0.7744   -4.2607   -1.7277 H   0  0  0  0  0  0  0  0  0  0  0  0
   -0.6744   -4.9893   -0.1087 H   0  0  0  0  0  0  0  0  0  0  0  0
   -0.2092   -3.2792   -0.2846 H   0  0  0  0  0  0  0  0  0  0  0  0
    7.3165    4.1242   -2.6871 H   0  0  0  0  0  0  0  0  0  0  0  0
  1  2  1  0
  2  3  1  0
  2  4  1  0
  4  5  1  0
  5  6  1  0
  6  7  1  0
  7  8  2  0
  7  9  1  0
  9 10  1  0
 10 11  1  0
 11 12  2  0
 12 13  1  0
 13 14  2  0
 14 15  1  0
 15 16  2  0
  9 17  1  0
 17 18  1  0
 18 19  2  0
 18 20  1  0
 20 21  1  0
 21 22  1  0
 22 23  1  0
 23 24  1  0
 24 25  1  0
 25 26  2  0
 25 27  1  0
 27 28  1  0
 28 29  1  0
 29 30  2  0
 29 31  1  0
 31 32  1  0
 31 33  1  0
 33 34  1  0
 34 35  2  0
 35 36  1  0
 36 37  2  0
 37 38  1  0
 37 39  1  0
 39 40  2  0
 27 41  1  0
 41 42  1  0
 41 43  1  0
  5 44  1  0
 44 45  1  0
 44 46  2  0
 16 11  1  0
 24 20  1  0
 40 34  1  0
  1 47  1  0
  1 48  1  0
  1 49  1  0
  2 50  1  0
  3 51  1  0
  3 52  1  0
  3 53  1  0
  4 54  1  0
  4 55  1  0
  5 56  1  6
  6 57  1  0
  9 58  1  1
 10 59  1  0
 10 60  1  0
 12 61  1  0
 13 62  1  0
 14 63  1  0
 15 64  1  0
 16 65  1  0
 17 66  1  0
 20 67  1  6
 21 68  1  0
 21 69  1  0
 22 70  1  0
 22 71  1  0
 23 72  1  0
 23 73  1  0
 27 74  1  1
 28 75  1  0
 31 76  1  1
 32 77  1  0
 32 78  1  0
 33 79  1  0
 33 80  1  0
 35 81  1  0
 36 82  1  0
 38 83  1  0
 39 84  1  0
 40 85  1  0
 41 86  1  0
 42 87  1  0
 42 88  1  0
 42 89  1  0
 43 90  1  0
 43 91  1  0
 43 92  1  0
 45 93  1  0
M  END
$$$$
[H]c1c([H])c([H])c(C([H])([H])OC(=O)[C@@]([H])(N([H])C(=O)[C@@]([H])(N([H])C(=O)[C@]2([H])OC(=O)[C@@]2([H])[C@@]([H])(C([H])([H])[H])C([H])([H])C([H])([H])[H])C([H])(C([H])([H])[H])C([H])([H])[H])C([H])([H])C([H])(C([H])([H])[H])C([H])([H])[H])c([H])c1[H]
     RDKit          3D

 72 73  0  0  0  0  0  0  0  0999 V2000
    7.7799    0.6420   -0.4670 C   0  0  0  0  0  0  0  0  0  0  0  0
    7.6737   -0.6265   -1.2478 C   0  0  0  0  0  0  0  0  0  0  0  0
    6.2682   -1.2047   -1.2602 C   0  0  2  0  0  0  0  0  0  0  0  0
    5.3940   -0.1551   -1.8879 C   0  0  0  0  0  0  0  0  0  0  0  0
    5.7940   -1.5576    0.1141 C   0  0  1  0  0  0  0  0  0  0  0  0
    4.4450   -2.1444    0.2719 C   0  0  1  0  0  0  0  0  0  0  0  0
    5.0556   -2.9102    1.3358 O   0  0  0  0  0  0  0  0  0  0  0  0
    6.1973   -2.9127    0.5730 C   0  0  0  0  0  0  0  0  0  0  0  0
    7.1054   -3.7526    0.4168 O   0  0  0  0  0  0  0  0  0  0  0  0
    3.3405   -1.3603    0.7976 C   0  0  0  0  0  0  0  0  0  0  0  0
    3.1710   -1.3864    2.0595 O   0  0  0  0  0  0  0  0  0  0  0  0
    2.4157   -0.5637    0.0901 N   0  0  0  0  0  0  0  0  0  0  0  0
    1.3491    0.1845    0.7222 C   0  0  1  0  0  0  0  0  0  0  0  0
    1.5138    1.6728    0.5335 C   0  0  0  0  0  0  0  0  0  0  0  0
    1.5171    2.0808   -0.9163 C   0  0  0  0  0  0  0  0  0  0  0  0
    2.8132    2.0778    1.1741 C   0  0  0  0  0  0  0  0  0  0  0  0
    0.0082   -0.2956    0.3300 C   0  0  0  0  0  0  0  0  0  0  0  0
   -0.0746   -1.2503   -0.4725 O   0  0  0  0  0  0  0  0  0  0  0  0
   -1.2077    0.2494    0.7990 N   0  0  0  0  0  0  0  0  0  0  0  0
   -2.5122   -0.1788    0.4494 C   0  0  1  0  0  0  0  0  0  0  0  0
   -3.3706   -0.5743    1.6180 C   0  0  0  0  0  0  0  0  0  0  0  0
   -2.7902   -1.7108    2.4164 C   0  0  0  0  0  0  0  0  0  0  0  0
   -3.6972   -2.0710    3.5910 C   0  0  0  0  0  0  0  0  0  0  0  0
   -2.6579   -2.9825    1.6028 C   0  0  0  0  0  0  0  0  0  0  0  0
   -3.1996    0.9741   -0.2379 C   0  0  0  0  0  0  0  0  0  0  0  0
   -2.6001    2.0832   -0.4089 O   0  0  0  0  0  0  0  0  0  0  0  0
   -4.4928    0.8822   -0.7072 O   0  0  0  0  0  0  0  0  0  0  0  0
   -5.0896    1.9918   -1.3433 C   0  0  0  0  0  0  0  0  0  0  0  0
   -6.4658    1.7356   -1.7860 C   0  0  0  0  0  0  0  0  0  0  0  0
   -7.1454    2.7768   -2.3857 C   0  0  0  0  0  0  0  0  0  0  0  0
   -8.4514    2.6442   -2.8423 C   0  0  0  0  0  0  0  0  0  0  0  0
   -9.0961    1.4498   -2.6997 C   0  0  0  0  0  0  0  0  0  0  0  0
   -8.4223    0.4012   -2.0999 C   0  0  0  0  0  0  0  0  0  0  0  0
   -7.1217    0.5412   -1.6477 C   0  0  0  0  0  0  0  0  0  0  0  0
    8.3775    0.5502    0.4607 H   0  0  0  0  0  0  0  0  0  0  0  0
    8.2978    1.4412   -1.0677 H   0  0  0  0  0  0  0  0  0  0  0  0
    6.7703    0.9734   -0.1791 H   0  0  0  0  0  0  0  0  0  0  0  0
    7.9206   -0.4032   -2.3070 H   0  0  0  0  0  0  0  0  0  0  0  0
    8.4219   -1.4046   -0.9356 H   0  0  0  0  0  0  0  0  0  0  0  0
    6.2861   -2.1093   -1.8856 H   0  0  0  0  0  0  0  0  0  0  0  0
    5.9966    0.4194   -2.6387 H   0  0  0  0  0  0  0  0  0  0  0  0
    4.5539   -0.5946   -2.4692 H   0  0  0  0  0  0  0  0  0  0  0  0
    5.0142    0.5936   -1.1487 H   0  0  0  0  0  0  0  0  0  0  0  0
    6.0661   -0.8273    0.9107 H   0  0  0  0  0  0  0  0  0  0  0  0
    4.1597   -2.7764   -0.5961 H   0  0  0  0  0  0  0  0  0  0  0  0
    2.4939   -0.5145   -0.9440 H   0  0  0  0  0  0  0  0  0  0  0  0
    1.4400    0.0006    1.8181 H   0  0  0  0  0  0  0  0  0  0  0  0
    0.7039    2.1733    1.0954 H   0  0  0  0  0  0  0  0  0  0  0  0
    2.4557    2.6089   -1.2173 H   0  0  0  0  0  0  0  0  0  0  0  0
    1.2859    1.2214   -1.5774 H   0  0  0  0  0  0  0  0  0  0  0  0
    0.6990    2.8194   -1.0639 H   0  0  0  0  0  0  0  0  0  0  0  0
    3.6869    1.9320    0.4911 H   0  0  0  0  0  0  0  0  0  0  0  0
    2.8299    3.1487    1.4637 H   0  0  0  0  0  0  0  0  0  0  0  0
    3.0494    1.5087    2.0964 H   0  0  0  0  0  0  0  0  0  0  0  0
   -1.1199    1.0583    1.4794 H   0  0  0  0  0  0  0  0  0  0  0  0
   -2.4712   -1.0164   -0.2540 H   0  0  0  0  0  0  0  0  0  0  0  0
   -3.5258    0.2689    2.3257 H   0  0  0  0  0  0  0  0  0  0  0  0
   -4.3796   -0.8812    1.2757 H   0  0  0  0  0  0  0  0  0  0  0  0
   -1.7995   -1.4943    2.8335 H   0  0  0  0  0  0  0  0  0  0  0  0
   -4.3562   -1.1812    3.7502 H   0  0  0  0  0  0  0  0  0  0  0  0
   -3.1200   -2.2840    4.5010 H   0  0  0  0  0  0  0  0  0  0  0  0
   -4.3401   -2.9251    3.3761 H   0  0  0  0  0  0  0  0  0  0  0  0
   -2.0363   -3.6837    2.2199 H   0  0  0  0  0  0  0  0  0  0  0  0
   -2.2416   -2.8432    0.6072 H   0  0  0  0  0  0  0  0  0  0  0  0
   -3.6714   -3.4616    1.5755 H   0  0  0  0  0  0  0  0  0  0  0  0
   -5.1004    2.8982   -0.6984 H   0  0  0  0  0  0  0  0  0  0  0  0
   -4.4881    2.2246   -2.2609 H   0  0  0  0  0  0  0  0  0  0  0  0
   -6.6915    3.7600   -2.5318 H   0  0  0  0  0  0  0  0  0  0  0  0
   -8.9496    3.4875   -3.3080 H   0  0  0  0  0  0  0  0  0  0  0  0
  -10.1183    1.3618   -3.0619 H   0  0  0  0  0  0  0  0  0  0  0  0
   -8.9566   -0.5305   -2.0008 H   0  0  0  0  0  0  0  0  0  0  0  0
   -6.5899   -0.2687   -1.1801 H   0  0  0  0  0  0  0  0  0  0  0  0
  1  2  1  0
  2  3  1  0
  3  4  1  0
  3  5  1  0
  5  6  1  0
  6  7  1  0
  7  8  1  0
  8  9  2  0
  6 10  1  0
 10 11  2  0
 10 12  1  0
 12 13  1  0
 13 14  1  0
 14 15  1  0
 14 16  1  0
 13 17  1  0
 17 18  2  0
 17 19  1  0
 19 20  1  0
 20 21  1  0
 21 22  1  0
 22 23  1  0
 22 24  1  0
 20 25  1  0
 25 26  2  0
 25 27  1  0
 27 28  1  0
 28 29  1  0
 29 30  2  0
 30 31  1  0
 31 32  2  0
 32 33  1  0
 33 34  2  0
  8  5  1  0
 34 29  1  0
  1 35  1  0
  1 36  1  0
  1 37  1  0
  2 38  1  0
  2 39  1  0
  3 40  1  6
  4 41  1  0
  4 42  1  0
  4 43  1  0
  5 44  1  1
  6 45  1  6
 12 46  1  0
 13 47  1  1
 14 48  1  0
 15 49  1  0
 15 50  1  0
 15 51  1  0
 16 52  1  0
 16 53  1  0
 16 54  1  0
 19 55  1  0
 20 56  1  6
 21 57  1  0
 21 58  1  0
 22 59  1  0
 23 60  1  0
 23 61  1  0
 23 62  1  0
 24 63  1  0
 24 64  1  0
 24 65  1  0
 28 66  1  0
 28 67  1  0
 30 68  1  0
 31 69  1  0
 32 70  1  0
 33 71  1  0
 34 72  1  0
M  END
$$$$
[H]c1nc2c([H])c(OC([H])([H])C([H])([H])C([H])([H])N3C([H])([H])C([H])([H])OC([H])([H])C3([H])[H])c(OC([H])([H])[H])c([H])c2c(Oc2c([H])c([H])c(N([H])C(=O)C3(C(=O)N([H])c4c([H])c([H])c(F)c([H])c4[H])C([H])([H])C3([H])[H])c([H])c2F)c1[H]
     RDKit          3D

 80 85  0  0  0  0  0  0  0  0999 V2000
   -3.8348   -0.7830   -2.5268 C   0  0  0  0  0  0  0  0  0  0  0  0
   -4.4085   -0.0831   -1.4692 O   0  0  0  0  0  0  0  0  0  0  0  0
   -3.7050    0.3915   -0.3940 C   0  0  0  0  0  0  0  0  0  0  0  0
   -2.3426    0.2299   -0.2625 C   0  0  0  0  0  0  0  0  0  0  0  0
   -1.6750    0.7344    0.8625 C   0  0  0  0  0  0  0  0  0  0  0  0
   -0.2898    0.5501    0.9662 C   0  0  0  0  0  0  0  0  0  0  0  0
    0.3435   -0.1256   -0.0602 O   0  0  0  0  0  0  0  0  0  0  0  0
    1.7161   -0.3803   -0.1332 C   0  0  0  0  0  0  0  0  0  0  0  0
    2.1597   -1.6934   -0.1033 C   0  0  0  0  0  0  0  0  0  0  0  0
    3.5189   -2.0068   -0.1774 C   0  0  0  0  0  0  0  0  0  0  0  0
    4.4887   -1.0391   -0.2815 C   0  0  0  0  0  0  0  0  0  0  0  0
    5.8792   -1.3421   -0.3734 N   0  0  0  0  0  0  0  0  0  0  0  0
    6.4824   -2.5462    0.0493 C   0  0  0  0  0  0  0  0  0  0  0  0
    5.8571   -3.4761    0.5938 O   0  0  0  0  0  0  0  0  0  0  0  0
    7.9663   -2.7108   -0.2057 C   0  0  0  0  0  0  0  0  0  0  0  0
    8.3768   -4.0792   -0.7264 C   0  0  0  0  0  0  0  0  0  0  0  0
    8.5635   -3.7277    0.7383 C   0  0  0  0  0  0  0  0  0  0  0  0
    8.7412   -1.5075   -0.5379 C   0  0  0  0  0  0  0  0  0  0  0  0
    9.2658   -1.4618   -1.7261 O   0  0  0  0  0  0  0  0  0  0  0  0
    8.9847   -0.4096    0.2987 N   0  0  0  0  0  0  0  0  0  0  0  0
    9.7265    0.7540   -0.0941 C   0  0  0  0  0  0  0  0  0  0  0  0
   10.8357    1.1147    0.5958 C   0  0  0  0  0  0  0  0  0  0  0  0
   11.5248    2.2599    0.2548 C   0  0  0  0  0  0  0  0  0  0  0  0
   11.0639    3.0368   -0.8057 C   0  0  0  0  0  0  0  0  0  0  0  0
   11.7002    4.1760   -1.1980 F   0  0  0  0  0  0  0  0  0  0  0  0
    9.9259    2.6771   -1.5228 C   0  0  0  0  0  0  0  0  0  0  0  0
    9.2822    1.5333   -1.1426 C   0  0  0  0  0  0  0  0  0  0  0  0
    4.0405    0.2679   -0.3104 C   0  0  0  0  0  0  0  0  0  0  0  0
    2.6818    0.5942   -0.2385 C   0  0  0  0  0  0  0  0  0  0  0  0
    2.2895    1.9005   -0.2942 F   0  0  0  0  0  0  0  0  0  0  0  0
    0.3644    1.0374    2.0620 C   0  0  0  0  0  0  0  0  0  0  0  0
   -0.3737    1.7049    3.0395 C   0  0  0  0  0  0  0  0  0  0  0  0
   -1.7048    1.8658    2.9116 N   0  0  0  0  0  0  0  0  0  0  0  0
   -2.3620    1.3966    1.8519 C   0  0  0  0  0  0  0  0  0  0  0  0
   -3.7219    1.5655    1.7321 C   0  0  0  0  0  0  0  0  0  0  0  0
   -4.3695    1.0741    0.6362 C   0  0  0  0  0  0  0  0  0  0  0  0
   -5.7174    1.2662    0.5493 O   0  0  0  0  0  0  0  0  0  0  0  0
   -6.4811    1.9426    1.5276 C   0  0  0  0  0  0  0  0  0  0  0  0
   -7.9347    2.0328    1.1448 C   0  0  0  0  0  0  0  0  0  0  0  0
   -8.4979    0.6486    1.0445 C   0  0  0  0  0  0  0  0  0  0  0  0
   -9.9036    0.6228    0.6831 N   0  0  0  0  0  0  0  0  0  0  0  0
  -10.3079   -0.7910    0.8619 C   0  0  0  0  0  0  0  0  0  0  0  0
  -11.6524   -1.0829    0.2872 C   0  0  0  0  0  0  0  0  0  0  0  0
  -11.9057   -0.4129   -0.9237 O   0  0  0  0  0  0  0  0  0  0  0  0
  -10.6875   -0.1604   -1.5210 C   0  0  0  0  0  0  0  0  0  0  0  0
   -9.9805    0.9527   -0.7449 C   0  0  0  0  0  0  0  0  0  0  0  0
   -3.5752   -1.8606   -2.2552 H   0  0  0  0  0  0  0  0  0  0  0  0
   -4.5499   -0.8738   -3.3932 H   0  0  0  0  0  0  0  0  0  0  0  0
   -2.9103   -0.3554   -2.9443 H   0  0  0  0  0  0  0  0  0  0  0  0
   -1.7881   -0.2915   -1.0522 H   0  0  0  0  0  0  0  0  0  0  0  0
    1.4435   -2.4997   -0.0192 H   0  0  0  0  0  0  0  0  0  0  0  0
    3.8115   -3.0467   -0.1742 H   0  0  0  0  0  0  0  0  0  0  0  0
    6.5102   -0.6145   -0.7952 H   0  0  0  0  0  0  0  0  0  0  0  0
    9.3550   -4.1910   -1.2604 H   0  0  0  0  0  0  0  0  0  0  0  0
    7.5489   -4.7822   -0.9962 H   0  0  0  0  0  0  0  0  0  0  0  0
    7.9285   -4.2048    1.5021 H   0  0  0  0  0  0  0  0  0  0  0  0
    9.5761   -3.4402    1.0968 H   0  0  0  0  0  0  0  0  0  0  0  0
    8.6269   -0.4382    1.3024 H   0  0  0  0  0  0  0  0  0  0  0  0
   11.2158    0.5228    1.4404 H   0  0  0  0  0  0  0  0  0  0  0  0
   12.4267    2.5904    0.7817 H   0  0  0  0  0  0  0  0  0  0  0  0
    9.5578    3.2991   -2.3588 H   0  0  0  0  0  0  0  0  0  0  0  0
    8.3940    1.2002   -1.6567 H   0  0  0  0  0  0  0  0  0  0  0  0
    4.7885    1.0431   -0.3850 H   0  0  0  0  0  0  0  0  0  0  0  0
    1.4077    0.9219    2.2023 H   0  0  0  0  0  0  0  0  0  0  0  0
    0.1267    2.1033    3.9130 H   0  0  0  0  0  0  0  0  0  0  0  0
   -4.2450    2.0957    2.5441 H   0  0  0  0  0  0  0  0  0  0  0  0
   -6.0816    2.9259    1.7614 H   0  0  0  0  0  0  0  0  0  0  0  0
   -6.4223    1.2583    2.4406 H   0  0  0  0  0  0  0  0  0  0  0  0
   -8.0945    2.6326    0.2433 H   0  0  0  0  0  0  0  0  0  0  0  0
   -8.4948    2.5991    1.9539 H   0  0  0  0  0  0  0  0  0  0  0  0
   -7.8870    0.1130    0.2654 H   0  0  0  0  0  0  0  0  0  0  0  0
   -8.3089    0.1370    2.0005 H   0  0  0  0  0  0  0  0  0  0  0  0
   -9.4878   -1.3997    0.4459 H   0  0  0  0  0  0  0  0  0  0  0  0
  -10.2930   -0.9120    1.9864 H   0  0  0  0  0  0  0  0  0  0  0  0
  -11.6772   -2.1790    0.0299 H   0  0  0  0  0  0  0  0  0  0  0  0
  -12.4398   -0.9525    1.0381 H   0  0  0  0  0  0  0  0  0  0  0  0
  -10.0219   -1.0279   -1.4792 H   0  0  0  0  0  0  0  0  0  0  0  0
  -10.8743    0.1453   -2.5500 H   0  0  0  0  0  0  0  0  0  0  0  0
  -10.5228    1.8993   -0.8854 H   0  0  0  0  0  0  0  0  0  0  0  0
   -8.9666    1.0724   -1.1712 H   0  0  0  0  0  0  0  0  0  0  0  0
  1  2  1  0
  2  3  1  0
  3  4  2  0
  4  5  1  0
  5  6  2  0
  6  7  1  0
  7  8  1  0
  8  9  2  0
  9 10  1  0
 10 11  2  0
 11 12  1  0
 12 13  1  0
 13 14  2  0
 13 15  1  0
 15 16  1  0
 16 17  1  0
 15 18  1  0
 18 19  2  0
 18 20  1  0
 20 21  1  0
 21 22  2  0
 22 23  1  0
 23 24  2  0
 24 25  1  0
 24 26  1  0
 26 27  2  0
 11 28  1  0
 28 29  2  0
 29 30  1  0
  6 31  1  0
 31 32  2  0
 32 33  1  0
 33 34  2  0
 34 35  1  0
 35 36  2  0
 36 37  1  0
 37 38  1  0
 38 39  1  0
 39 40  1  0
 40 41  1  0
 41 42  1  0
 42 43  1  0
 43 44  1  0
 44 45  1  0
 45 46  1  0
 36  3  1  0
 46 41  1  0
 34  5  1  0
 29  8  1  0
 17 15  1  0
 27 21  1  0
  1 47  1  0
  1 48  1  0
  1 49  1  0
  4 50  1  0
  9 51  1  0
 10 52  1  0
 12 53  1  0
 16 54  1  0
 16 55  1  0
 17 56  1  0
 17 57  1  0
 20 58  1  0
 22 59  1  0
 23 60  1  0
 26 61  1  0
 27 62  1  0
 28 63  1  0
 31 64  1  0
 32 65  1  0
 35 66  1  0
 38 67  1  0
 38 68  1  0
 39 69  1  0
 39 70  1  0
 40 71  1  0
 40 72  1  0
 42 73  1  0
 42 74  1  0
 43 75  1  0
 43 76  1  0
 45 77  1  0
 45 78  1  0
 46 79  1  0
 46 80  1  0
M  END
$$$$
[H]C1=C([H])C([H])(F)C([H])([H])C([H])=C1N([H])C(=O)C1(C(=O)N([H])c2c([H])c([H])c(Oc3c([H])c([H])nc4c([H])c(OC([H])([H])C([H])([H])C([H])([H])N5C([H])([H])C([H])([H])C([H])([H])C5([H])[H])c(OC([H])([H])[H])c([H])c34)c(F)c2[H])C([H])([H])C1([H])[H]
     RDKit          3D

 81 86  0  0  0  0  0  0  0  0999 V2000
   -3.5877    0.0230   -2.5605 C   0  0  0  0  0  0  0  0  0  0  0  0
   -4.4433   -0.0435   -1.4508 O   0  0  0  0  0  0  0  0  0  0  0  0
   -3.9880   -0.2494   -0.1491 C   0  0  0  0  0  0  0  0  0  0  0  0
   -2.6478   -0.3994    0.1096 C   0  0  0  0  0  0  0  0  0  0  0  0
   -2.1587   -0.6042    1.3755 C   0  0  0  0  0  0  0  0  0  0  0  0
   -0.7923   -0.7567    1.6112 C   0  0  0  0  0  0  0  0  0  0  0  0
    0.0250   -0.6916    0.5279 O   0  0  0  0  0  0  0  0  0  0  0  0
    1.3913   -0.8525    0.4754 C   0  0  0  0  0  0  0  0  0  0  0  0
    2.2342    0.1729    0.0692 C   0  0  0  0  0  0  0  0  0  0  0  0
    3.5918   -0.0103    0.0220 C   0  0  0  0  0  0  0  0  0  0  0  0
    4.2120   -1.2204    0.3732 C   0  0  0  0  0  0  0  0  0  0  0  0
    5.6358   -1.3113    0.3171 N   0  0  0  0  0  0  0  0  0  0  0  0
    6.4056   -2.4553    0.1478 C   0  0  0  0  0  0  0  0  0  0  0  0
    5.7718   -3.5663    0.0427 O   0  0  0  0  0  0  0  0  0  0  0  0
    7.8601   -2.5227    0.0895 C   0  0  0  0  0  0  0  0  0  0  0  0
    8.4588   -3.8753   -0.2867 C   0  0  0  0  0  0  0  0  0  0  0  0
    8.4428   -3.4847    1.1392 C   0  0  0  0  0  0  0  0  0  0  0  0
    8.7035   -1.3424   -0.2300 C   0  0  0  0  0  0  0  0  0  0  0  0
    9.9255   -1.4864    0.1717 O   0  0  0  0  0  0  0  0  0  0  0  0
    8.2626   -0.2155   -0.8859 N   0  0  0  0  0  0  0  0  0  0  0  0
    8.9663    0.9916   -1.2279 C   0  0  0  0  0  0  0  0  0  0  0  0
   10.2261    1.1961   -0.9431 C   0  0  0  0  0  0  0  0  0  0  0  0
   10.9546    2.4310   -1.2907 C   0  0  0  0  0  0  0  0  0  0  0  0
   10.1946    3.4846   -1.9837 C   0  0  0  0  0  0  0  0  0  0  0  0
   10.2335    4.6437   -1.1848 F   0  0  0  0  0  0  0  0  0  0  0  0
    8.8021    3.1813   -2.2644 C   0  0  0  0  0  0  0  0  0  0  0  0
    8.2359    2.0634   -1.9301 C   0  0  0  0  0  0  0  0  0  0  0  0
    3.3805   -2.2291    0.7736 C   0  0  0  0  0  0  0  0  0  0  0  0
    1.9865   -2.0377    0.8203 C   0  0  0  0  0  0  0  0  0  0  0  0
    1.2365   -3.0982    1.2142 F   0  0  0  0  0  0  0  0  0  0  0  0
   -0.4287   -0.9581    2.9201 C   0  0  0  0  0  0  0  0  0  0  0  0
   -1.3521   -1.0070    3.9339 C   0  0  0  0  0  0  0  0  0  0  0  0
   -2.6377   -0.8567    3.6575 N   0  0  0  0  0  0  0  0  0  0  0  0
   -3.0892   -0.6527    2.3915 C   0  0  0  0  0  0  0  0  0  0  0  0
   -4.4416   -0.5052    2.1646 C   0  0  0  0  0  0  0  0  0  0  0  0
   -4.8811   -0.3029    0.8827 C   0  0  0  0  0  0  0  0  0  0  0  0
   -6.2490   -0.1596    0.6965 O   0  0  0  0  0  0  0  0  0  0  0  0
   -7.1921   -0.2052    1.7204 C   0  0  0  0  0  0  0  0  0  0  0  0
   -8.5663   -0.0150    1.1322 C   0  0  0  0  0  0  0  0  0  0  0  0
   -8.6955    1.3020    0.4220 C   0  0  0  0  0  0  0  0  0  0  0  0
  -10.0037    1.4621   -0.1281 N   0  0  0  0  0  0  0  0  0  0  0  0
  -10.2287    2.6808   -0.8350 C   0  0  0  0  0  0  0  0  0  0  0  0
  -11.1566    2.3511   -2.0081 C   0  0  0  0  0  0  0  0  0  0  0  0
  -11.7165    1.0092   -1.5741 C   0  0  0  0  0  0  0  0  0  0  0  0
  -10.4689    0.3786   -0.9383 C   0  0  0  0  0  0  0  0  0  0  0  0
   -4.1462    0.4826   -3.4058 H   0  0  0  0  0  0  0  0  0  0  0  0
   -2.7486    0.7305   -2.3481 H   0  0  0  0  0  0  0  0  0  0  0  0
   -3.2042   -0.9751   -2.8684 H   0  0  0  0  0  0  0  0  0  0  0  0
   -1.9172   -0.3599   -0.6920 H   0  0  0  0  0  0  0  0  0  0  0  0
    1.7492    1.1006   -0.1989 H   0  0  0  0  0  0  0  0  0  0  0  0
    4.2444    0.7990   -0.2985 H   0  0  0  0  0  0  0  0  0  0  0  0
    6.1068   -0.3582    0.4880 H   0  0  0  0  0  0  0  0  0  0  0  0
    7.7266   -4.6220   -0.6534 H   0  0  0  0  0  0  0  0  0  0  0  0
    9.4183   -3.8918   -0.8472 H   0  0  0  0  0  0  0  0  0  0  0  0
    9.4104   -3.1476    1.6028 H   0  0  0  0  0  0  0  0  0  0  0  0
    7.7630   -3.9592    1.8454 H   0  0  0  0  0  0  0  0  0  0  0  0
    7.2650   -0.2466   -1.2614 H   0  0  0  0  0  0  0  0  0  0  0  0
   10.8241    0.4296   -0.4110 H   0  0  0  0  0  0  0  0  0  0  0  0
   11.8456    2.1794   -1.9484 H   0  0  0  0  0  0  0  0  0  0  0  0
   11.3908    2.8108   -0.3161 H   0  0  0  0  0  0  0  0  0  0  0  0
   10.6645    3.7949   -2.9610 H   0  0  0  0  0  0  0  0  0  0  0  0
    8.2315    3.9729   -2.7929 H   0  0  0  0  0  0  0  0  0  0  0  0
    7.1670    1.8981   -2.1758 H   0  0  0  0  0  0  0  0  0  0  0  0
    3.7856   -3.1876    1.0764 H   0  0  0  0  0  0  0  0  0  0  0  0
    0.6075   -1.0712    3.1537 H   0  0  0  0  0  0  0  0  0  0  0  0
   -1.0717   -1.1659    4.9745 H   0  0  0  0  0  0  0  0  0  0  0  0
   -5.1120   -0.5552    3.0169 H   0  0  0  0  0  0  0  0  0  0  0  0
   -7.1820   -1.2490    2.1462 H   0  0  0  0  0  0  0  0  0  0  0  0
   -6.9796    0.4646    2.5680 H   0  0  0  0  0  0  0  0  0  0  0  0
   -9.3685   -0.0413    1.9143 H   0  0  0  0  0  0  0  0  0  0  0  0
   -8.7385   -0.8568    0.4359 H   0  0  0  0  0  0  0  0  0  0  0  0
   -8.5595    2.1075    1.1881 H   0  0  0  0  0  0  0  0  0  0  0  0
   -7.8715    1.4342   -0.3151 H   0  0  0  0  0  0  0  0  0  0  0  0
  -10.7856    3.4045   -0.1999 H   0  0  0  0  0  0  0  0  0  0  0  0
   -9.3011    3.1863   -1.1756 H   0  0  0  0  0  0  0  0  0  0  0  0
  -11.9700    3.1048   -2.1030 H   0  0  0  0  0  0  0  0  0  0  0  0
  -10.5960    2.2617   -2.9622 H   0  0  0  0  0  0  0  0  0  0  0  0
  -12.4672    1.2054   -0.7918 H   0  0  0  0  0  0  0  0  0  0  0  0
  -12.0978    0.4163   -2.4102 H   0  0  0  0  0  0  0  0  0  0  0  0
  -10.7030   -0.5229   -0.3684 H   0  0  0  0  0  0  0  0  0  0  0  0
   -9.7919    0.1704   -1.8195 H   0  0  0  0  0  0  0  0  0  0  0  0
  1  2  1  0
  2  3  1  0
  3  4  2  0
  4  5  1  0
  5  6  2  0
  6  7  1  0
  7  8  1  0
  8  9  2  0
  9 10  1  0
 10 11  2  0
 11 12  1  0
 12 13  1  0
 13 14  2  0
 13 15  1  0
 15 16  1  0
 16 17  1  0
 15 18  1  0
 18 19  2  0
 18 20  1  0
 20 21  1  0
 21 22  2  0
 22 23  1  0
 23 24  1  0
 24 25  1  0
 24 26  1  0
 26 27  2  0
 11 28  1  0
 28 29  2  0
 29 30  1  0
  6 31  1  0
 31 32  2  0
 32 33  1  0
 33 34  2  0
 34 35  1  0
 35 36  2  0
 36 37  1  0
 37 38  1  0
 38 39  1  0
 39 40  1  0
 40 41  1  0
 41 42  1  0
 42 43  1  0
 43 44  1  0
 44 45  1  0
 36  3  1  0
 45 41  1  0
 34  5  1  0
 29  8  1  0
 17 15  1  0
 27 21  1  0
  1 46  1  0
  1 47  1  0
  1 48  1  0
  4 49  1  0
  9 50  1  0
 10 51  1  0
 12 52  1  0
 16 53  1  0
 16 54  1  0
 17 55  1  0
 17 56  1  0
 20 57  1  0
 22 58  1  0
 23 59  1  0
 23 60  1  0
 24 61  1  0
 26 62  1  0
 27 63  1  0
 28 64  1  0
 31 65  1  0
 32 66  1  0
 35 67  1  0
 38 68  1  0
 38 69  1  0
 39 70  1  0
 39 71  1  0
 40 72  1  0
 40 73  1  0
 42 74  1  0
 42 75  1  0
 43 76  1  0
 43 77  1  0
 44 78  1  0
 44 79  1  0
 45 80  1  0
 45 81  1  0
M  END
$$$$
[H]/C(=C1/C(=O)N([H])c2c([H])c([H])c(C([H])([H])[H])c([H])c21)c1c([H])c([H])c(N2C([H])([H])C([H])([H])N(C([H])([H])[H])C([H])([H])C2([H])[H])c([H])c1[H]
     RDKit          3D

 48 51  0  0  0  0  0  0  0  0999 V2000
    6.6027   -0.4508    1.2207 C   0  0  0  0  0  0  0  0  0  0  0  0
    6.3159   -0.0611   -0.1455 N   0  0  0  0  0  0  0  0  0  0  0  0
    5.7609    1.2558   -0.1483 C   0  0  0  0  0  0  0  0  0  0  0  0
    4.3449    1.1658    0.4255 C   0  0  0  0  0  0  0  0  0  0  0  0
    3.5662    0.3891   -0.5165 N   0  0  0  0  0  0  0  0  0  0  0  0
    4.2859   -0.4224   -1.4727 C   0  0  0  0  0  0  0  0  0  0  0  0
    5.4668   -1.0520   -0.7332 C   0  0  0  0  0  0  0  0  0  0  0  0
    2.1478    0.4446   -0.4691 C   0  0  0  0  0  0  0  0  0  0  0  0
    1.3207   -0.1732   -1.3837 C   0  0  0  0  0  0  0  0  0  0  0  0
   -0.0471   -0.1009   -1.3024 C   0  0  0  0  0  0  0  0  0  0  0  0
   -0.6592    0.5931   -0.3013 C   0  0  0  0  0  0  0  0  0  0  0  0
   -2.1022    0.6656   -0.1953 C   0  0  0  0  0  0  0  0  0  0  0  0
   -2.8448   -0.3826   -0.0242 C   0  0  0  0  0  0  0  0  0  0  0  0
   -2.4917   -1.7831    0.1059 C   0  0  0  0  0  0  0  0  0  0  0  0
   -1.3182   -2.2857    0.1062 O   0  0  0  0  0  0  0  0  0  0  0  0
   -3.7119   -2.4991    0.2384 N   0  0  0  0  0  0  0  0  0  0  0  0
   -4.8232   -1.6216    0.2002 C   0  0  0  0  0  0  0  0  0  0  0  0
   -6.2030   -1.8240    0.2875 C   0  0  0  0  0  0  0  0  0  0  0  0
   -7.0755   -0.7743    0.2200 C   0  0  0  0  0  0  0  0  0  0  0  0
   -6.5807    0.5072    0.0629 C   0  0  0  0  0  0  0  0  0  0  0  0
   -7.5621    1.6202   -0.0058 C   0  0  0  0  0  0  0  0  0  0  0  0
   -5.2185    0.7074   -0.0234 C   0  0  0  0  0  0  0  0  0  0  0  0
   -4.3321   -0.3489    0.0440 C   0  0  0  0  0  0  0  0  0  0  0  0
    0.1524    1.2318    0.6429 C   0  0  0  0  0  0  0  0  0  0  0  0
    1.5152    1.1394    0.5321 C   0  0  0  0  0  0  0  0  0  0  0  0
    7.3982   -1.2344    1.2340 H   0  0  0  0  0  0  0  0  0  0  0  0
    5.6838   -0.8851    1.6524 H   0  0  0  0  0  0  0  0  0  0  0  0
    6.8848    0.4171    1.8577 H   0  0  0  0  0  0  0  0  0  0  0  0
    5.6371    1.6087   -1.2012 H   0  0  0  0  0  0  0  0  0  0  0  0
    6.3636    1.9738    0.4085 H   0  0  0  0  0  0  0  0  0  0  0  0
    3.9481    2.1965    0.5445 H   0  0  0  0  0  0  0  0  0  0  0  0
    4.3357    0.6206    1.3899 H   0  0  0  0  0  0  0  0  0  0  0  0
    4.7225    0.1622   -2.3064 H   0  0  0  0  0  0  0  0  0  0  0  0
    3.6614   -1.2559   -1.8049 H   0  0  0  0  0  0  0  0  0  0  0  0
    6.0582   -1.5934   -1.5035 H   0  0  0  0  0  0  0  0  0  0  0  0
    5.1292   -1.8082   -0.0079 H   0  0  0  0  0  0  0  0  0  0  0  0
    1.7532   -0.7326   -2.1937 H   0  0  0  0  0  0  0  0  0  0  0  0
   -0.6247   -0.6159   -2.0837 H   0  0  0  0  0  0  0  0  0  0  0  0
   -2.5677    1.6581   -0.2651 H   0  0  0  0  0  0  0  0  0  0  0  0
   -3.7271   -3.5410    0.3473 H   0  0  0  0  0  0  0  0  0  0  0  0
   -6.5834   -2.8205    0.4095 H   0  0  0  0  0  0  0  0  0  0  0  0
   -8.1679   -0.9183    0.2875 H   0  0  0  0  0  0  0  0  0  0  0  0
   -8.0789    1.5915   -0.9829 H   0  0  0  0  0  0  0  0  0  0  0  0
   -7.0028    2.5707    0.1288 H   0  0  0  0  0  0  0  0  0  0  0  0
   -8.2718    1.5217    0.8341 H   0  0  0  0  0  0  0  0  0  0  0  0
   -4.8657    1.7186   -0.1455 H   0  0  0  0  0  0  0  0  0  0  0  0
   -0.3402    1.7872    1.4432 H   0  0  0  0  0  0  0  0  0  0  0  0
    2.1452    1.6384    1.2727 H   0  0  0  0  0  0  0  0  0  0  0  0
  1  2  1  0
  2  3  1  0
  3  4  1  0
  4  5  1  0
  5  6  1  0
  6  7  1  0
  5  8  1  0
  8  9  2  0
  9 10  1  0
 10 11  2  0
 11 12  1  0
 12 13  2  0
 13 14  1  0
 14 15  2  0
 14 16  1  0
 16 17  1  0
 17 18  2  0
 18 19  1  0
 19 20  2  0
 20 21  1  0
 20 22  1  0
 22 23  2  0
 11 24  1  0
 24 25  2  0
  7  2  1  0
 25  8  1  0
 23 13  1  0
 23 17  1  0
  1 26  1  0
  1 27  1  0
  1 28  1  0
  3 29  1  0
  3 30  1  0
  4 31  1  0
  4 32  1  0
  6 33  1  0
  6 34  1  0
  7 35  1  0
  7 36  1  0
  9 37  1  0
 10 38  1  0
 12 39  1  0
 16 40  1  0
 18 41  1  0
 19 42  1  0
 21 43  1  0
 21 44  1  0
 21 45  1  0
 22 46  1  0
 24 47  1  0
 25 48  1  0
M  END
$$$$
[H]c1nc2c([H])c(OC([H])([H])C([H])([H])C([H])([H])N3C([H])([H])C([H])([H])C([H])([H])C([H])([H])C3([H])[H])c(OC([H])([H])[H])c([H])c2c(Oc2c([H])c([H])c(N([H])C(=O)C3(C(=O)N([H])c4c([H])c([H])c(F)c([H])c4[H])C([H])([H])C3([H])[H])c([H])c2F)c1[H]
     RDKit          3D

 82 87  0  0  0  0  0  0  0  0999 V2000
   -1.9209   -1.3333    3.0451 C   0  0  0  0  0  0  0  0  0  0  0  0
   -2.9832   -1.7818    2.2281 O   0  0  0  0  0  0  0  0  0  0  0  0
   -2.8786   -1.6448    0.8580 C   0  0  0  0  0  0  0  0  0  0  0  0
   -1.7316   -1.0680    0.2922 C   0  0  0  0  0  0  0  0  0  0  0  0
   -1.6665   -0.9491   -1.0819 C   0  0  0  0  0  0  0  0  0  0  0  0
   -0.4802   -0.3771   -1.6175 C   0  0  0  0  0  0  0  0  0  0  0  0
    0.4285   -0.0147   -0.7289 O   0  0  0  0  0  0  0  0  0  0  0  0
    1.6944    0.3930   -0.6360 C   0  0  0  0  0  0  0  0  0  0  0  0
    2.6188    0.4301   -1.6541 C   0  0  0  0  0  0  0  0  0  0  0  0
    3.9313    0.8745   -1.4820 C   0  0  0  0  0  0  0  0  0  0  0  0
    4.3763    1.3085   -0.2501 C   0  0  0  0  0  0  0  0  0  0  0  0
    5.7351    1.7029   -0.0852 N   0  0  0  0  0  0  0  0  0  0  0  0
    6.2268    2.6374    0.8165 C   0  0  0  0  0  0  0  0  0  0  0  0
    5.4560    3.2770    1.5746 O   0  0  0  0  0  0  0  0  0  0  0  0
    7.6644    2.9391    0.9238 C   0  0  0  0  0  0  0  0  0  0  0  0
    8.1038    4.3298    0.5798 C   0  0  0  0  0  0  0  0  0  0  0  0
    8.0915    3.9269    1.9833 C   0  0  0  0  0  0  0  0  0  0  0  0
    8.6209    1.8678    0.5623 C   0  0  0  0  0  0  0  0  0  0  0  0
    9.7692    2.2424    0.1832 O   0  0  0  0  0  0  0  0  0  0  0  0
    8.2825    0.5106    0.6434 N   0  0  0  0  0  0  0  0  0  0  0  0
    9.0724   -0.5986    0.3022 C   0  0  0  0  0  0  0  0  0  0  0  0
   10.2084   -0.5630   -0.4349 C   0  0  0  0  0  0  0  0  0  0  0  0
   10.9465   -1.7016   -0.7351 C   0  0  0  0  0  0  0  0  0  0  0  0
   10.4906   -2.9056   -0.2570 C   0  0  0  0  0  0  0  0  0  0  0  0
   11.1446   -4.0908   -0.4983 F   0  0  0  0  0  0  0  0  0  0  0  0
    9.3451   -2.9715    0.4910 C   0  0  0  0  0  0  0  0  0  0  0  0
    8.6479   -1.8328    0.7652 C   0  0  0  0  0  0  0  0  0  0  0  0
    3.4672    1.2778    0.7745 C   0  0  0  0  0  0  0  0  0  0  0  0
    2.1764    0.8442    0.6174 C   0  0  0  0  0  0  0  0  0  0  0  0
    1.3271    0.8450    1.6680 F   0  0  0  0  0  0  0  0  0  0  0  0
   -0.4426   -0.2893   -2.9832 C   0  0  0  0  0  0  0  0  0  0  0  0
   -1.5048   -0.7395   -3.7466 C   0  0  0  0  0  0  0  0  0  0  0  0
   -2.6043   -1.2729   -3.2053 N   0  0  0  0  0  0  0  0  0  0  0  0
   -2.6929   -1.3815   -1.8816 C   0  0  0  0  0  0  0  0  0  0  0  0
   -3.8279   -1.9550   -1.2977 C   0  0  0  0  0  0  0  0  0  0  0  0
   -3.9356   -2.0931    0.0657 C   0  0  0  0  0  0  0  0  0  0  0  0
   -4.9932   -2.6329    0.7070 O   0  0  0  0  0  0  0  0  0  0  0  0
   -6.1911   -3.1449    0.2709 C   0  0  0  0  0  0  0  0  0  0  0  0
   -7.1260   -2.1894   -0.4224 C   0  0  0  0  0  0  0  0  0  0  0  0
   -7.4688   -1.0934    0.5689 C   0  0  0  0  0  0  0  0  0  0  0  0
   -8.3291   -0.1089    0.0669 N   0  0  0  0  0  0  0  0  0  0  0  0
   -9.6473   -0.4624   -0.2620 C   0  0  0  0  0  0  0  0  0  0  0  0
  -10.5141    0.6511   -0.7176 C   0  0  0  0  0  0  0  0  0  0  0  0
  -10.0079    2.0229   -0.4173 C   0  0  0  0  0  0  0  0  0  0  0  0
   -8.5212    2.1759   -0.4928 C   0  0  0  0  0  0  0  0  0  0  0  0
   -7.8145    0.8762   -0.8225 C   0  0  0  0  0  0  0  0  0  0  0  0
   -0.9571   -1.8306    2.8366 H   0  0  0  0  0  0  0  0  0  0  0  0
   -2.2135   -1.4052    4.1324 H   0  0  0  0  0  0  0  0  0  0  0  0
   -1.7526   -0.2336    2.8951 H   0  0  0  0  0  0  0  0  0  0  0  0
   -0.9452   -0.7395    0.9402 H   0  0  0  0  0  0  0  0  0  0  0  0
    2.3175    0.0736   -2.6345 H   0  0  0  0  0  0  0  0  0  0  0  0
    4.6112    0.8751   -2.3332 H   0  0  0  0  0  0  0  0  0  0  0  0
    6.4199    1.2451   -0.7758 H   0  0  0  0  0  0  0  0  0  0  0  0
    9.0682    4.4257    0.0505 H   0  0  0  0  0  0  0  0  0  0  0  0
    7.3407    5.0399    0.2003 H   0  0  0  0  0  0  0  0  0  0  0  0
    7.3090    4.4067    2.6322 H   0  0  0  0  0  0  0  0  0  0  0  0
    8.9944    3.6337    2.5414 H   0  0  0  0  0  0  0  0  0  0  0  0
    7.3081    0.3234    1.0716 H   0  0  0  0  0  0  0  0  0  0  0  0
   10.5935    0.3593   -0.8357 H   0  0  0  0  0  0  0  0  0  0  0  0
   11.8477   -1.6521   -1.3218 H   0  0  0  0  0  0  0  0  0  0  0  0
    8.9858   -3.9396    0.8697 H   0  0  0  0  0  0  0  0  0  0  0  0
    7.7562   -1.9196    1.3508 H   0  0  0  0  0  0  0  0  0  0  0  0
    3.8168    1.6119    1.7731 H   0  0  0  0  0  0  0  0  0  0  0  0
    0.4064    0.1533   -3.4882 H   0  0  0  0  0  0  0  0  0  0  0  0
   -1.4365   -0.6527   -4.8218 H   0  0  0  0  0  0  0  0  0  0  0  0
   -4.5800   -2.2798   -1.9924 H   0  0  0  0  0  0  0  0  0  0  0  0
   -6.7356   -3.7231    1.0795 H   0  0  0  0  0  0  0  0  0  0  0  0
   -5.9359   -3.9712   -0.4667 H   0  0  0  0  0  0  0  0  0  0  0  0
   -8.0475   -2.8031   -0.6508 H   0  0  0  0  0  0  0  0  0  0  0  0
   -6.6975   -1.7771   -1.3246 H   0  0  0  0  0  0  0  0  0  0  0  0
   -6.4817   -0.5989    0.7986 H   0  0  0  0  0  0  0  0  0  0  0  0
   -7.8063   -1.5547    1.4933 H   0  0  0  0  0  0  0  0  0  0  0  0
   -9.6087   -1.2635   -1.0545 H   0  0  0  0  0  0  0  0  0  0  0  0
  -10.1067   -0.9890    0.6209 H   0  0  0  0  0  0  0  0  0  0  0  0
  -10.6583    0.5452   -1.8287 H   0  0  0  0  0  0  0  0  0  0  0  0
  -11.5245    0.5130   -0.2789 H   0  0  0  0  0  0  0  0  0  0  0  0
  -10.4700    2.7394   -1.1272 H   0  0  0  0  0  0  0  0  0  0  0  0
  -10.3387    2.3502    0.5933 H   0  0  0  0  0  0  0  0  0  0  0  0
   -8.2030    2.9114   -1.2614 H   0  0  0  0  0  0  0  0  0  0  0  0
   -8.0896    2.5269    0.4664 H   0  0  0  0  0  0  0  0  0  0  0  0
   -6.7254    1.0838   -0.6488 H   0  0  0  0  0  0  0  0  0  0  0  0
   -8.0046    0.5785   -1.8753 H   0  0  0  0  0  0  0  0  0  0  0  0
  1  2  1  0
  2  3  1  0
  3  4  2  0
  4  5  1  0
  5  6  2  0
  6  7  1  0
  7  8  1  0
  8  9  2  0
  9 10  1  0
 10 11  2  0
 11 12  1  0
 12 13  1  0
 13 14  2  0
 13 15  1  0
 15 16  1  0
 16 17  1  0
 15 18  1  0
 18 19  2  0
 18 20  1  0
 20 21  1  0
 21 22  2  0
 22 23  1  0
 23 24  2  0
 24 25  1  0
 24 26  1  0
 26 27  2  0
 11 28  1  0
 28 29  2  0
 29 30  1  0
  6 31  1  0
 31 32  2  0
 32 33  1  0
 33 34  2  0
 34 35  1  0
 35 36  2  0
 36 37  1  0
 37 38  1  0
 38 39  1  0
 39 40  1  0
 40 41  1  0
 41 42  1  0
 42 43  1  0
 43 44  1  0
 44 45  1  0
 45 46  1  0
 36  3  1  0
 46 41  1  0
 34  5  1  0
 29  8  1  0
 17 15  1  0
 27 21  1  0
  1 47  1  0
  1 48  1  0
  1 49  1  0
  4 50  1  0
  9 51  1  0
 10 52  1  0
 12 53  1  0
 16 54  1  0
 16 55  1  0
 17 56  1  0
 17 57  1  0
 20 58  1  0
 22 59  1  0
 23 60  1  0
 26 61  1  0
 27 62  1  0
 28 63  1  0
 31 64  1  0
 32 65  1  0
 35 66  1  0
 38 67  1  0
 38 68  1  0
 39 69  1  0
 39 70  1  0
 40 71  1  0
 40 72  1  0
 42 73  1  0
 42 74  1  0
 43 75  1  0
 43 76  1  0
 44 77  1  0
 44 78  1  0
 45 79  1  0
 45 80  1  0
 46 81  1  0
 46 82  1  0
M  END
$$$$
[H]c1nc(C([H])([H])[H])oc1-c1c(N([H])[H])nc([H])c(-c2c([H])c(C(=O)N([H])c3c([H])c([H])c([H])c(C(=O)N([H])[H])c3[H])c([H])c([H])c2C([H])([H])[H])c1[H]
     RDKit          3D

 53 56  0  0  0  0  0  0  0  0999 V2000
   -7.1238    2.4690   -3.1881 C   0  0  0  0  0  0  0  0  0  0  0  0
   -5.8663    1.7947   -2.7534 C   0  0  0  0  0  0  0  0  0  0  0  0
   -4.6864    1.8823   -3.3742 N   0  0  0  0  0  0  0  0  0  0  0  0
   -3.8462    1.1197   -2.6378 C   0  0  0  0  0  0  0  0  0  0  0  0
   -4.5296    0.5797   -1.5793 C   0  0  0  0  0  0  0  0  0  0  0  0
   -5.7595    1.0208   -1.6939 O   0  0  0  0  0  0  0  0  0  0  0  0
   -4.0282   -0.2968   -0.5372 C   0  0  0  0  0  0  0  0  0  0  0  0
   -2.7211   -0.7067   -0.4610 C   0  0  0  0  0  0  0  0  0  0  0  0
   -2.2345   -1.5468    0.5381 C   0  0  0  0  0  0  0  0  0  0  0  0
   -3.1180   -1.9946    1.5096 C   0  0  0  0  0  0  0  0  0  0  0  0
   -4.3920   -1.5884    1.4265 N   0  0  0  0  0  0  0  0  0  0  0  0
   -4.8709   -0.7830    0.4737 C   0  0  0  0  0  0  0  0  0  0  0  0
   -6.2290   -0.3622    0.4041 N   0  0  0  0  0  0  0  0  0  0  0  0
   -0.8315   -1.9078    0.5520 C   0  0  0  0  0  0  0  0  0  0  0  0
    0.1622   -0.9364    0.4321 C   0  0  0  0  0  0  0  0  0  0  0  0
    1.4874   -1.2321    0.4570 C   0  0  0  0  0  0  0  0  0  0  0  0
    1.8890   -2.5380    0.6058 C   0  0  0  0  0  0  0  0  0  0  0  0
    0.9460   -3.5212    0.7263 C   0  0  0  0  0  0  0  0  0  0  0  0
   -0.4263   -3.1978    0.6979 C   0  0  0  0  0  0  0  0  0  0  0  0
   -1.3739   -4.3204    0.8187 C   0  0  0  0  0  0  0  0  0  0  0  0
    2.5203   -0.1821    0.3130 C   0  0  0  0  0  0  0  0  0  0  0  0
    2.1997    0.8032   -0.3692 O   0  0  0  0  0  0  0  0  0  0  0  0
    3.7580   -0.3220    0.9176 N   0  0  0  0  0  0  0  0  0  0  0  0
    4.8459    0.5791    0.8627 C   0  0  0  0  0  0  0  0  0  0  0  0
    5.8839    0.3697    1.7822 C   0  0  0  0  0  0  0  0  0  0  0  0
    6.9816    1.1909    1.7850 C   0  0  0  0  0  0  0  0  0  0  0  0
    7.0844    2.2223    0.8980 C   0  0  0  0  0  0  0  0  0  0  0  0
    6.0851    2.4358    0.0022 C   0  0  0  0  0  0  0  0  0  0  0  0
    4.9579    1.6044   -0.0119 C   0  0  0  0  0  0  0  0  0  0  0  0
    6.1614    3.5201   -0.9616 C   0  0  0  0  0  0  0  0  0  0  0  0
    5.0801    3.7493   -1.8521 N   0  0  0  0  0  0  0  0  0  0  0  0
    7.1905    4.2400   -0.9869 O   0  0  0  0  0  0  0  0  0  0  0  0
   -6.8923    3.4433   -3.6785 H   0  0  0  0  0  0  0  0  0  0  0  0
   -7.6888    1.8363   -3.9070 H   0  0  0  0  0  0  0  0  0  0  0  0
   -7.8077    2.6799   -2.3436 H   0  0  0  0  0  0  0  0  0  0  0  0
   -2.8006    0.9566   -2.8465 H   0  0  0  0  0  0  0  0  0  0  0  0
   -2.0308   -0.3443   -1.2421 H   0  0  0  0  0  0  0  0  0  0  0  0
   -2.7725   -2.6465    2.3088 H   0  0  0  0  0  0  0  0  0  0  0  0
   -6.9308   -0.8587   -0.2104 H   0  0  0  0  0  0  0  0  0  0  0  0
   -6.5955    0.4473    0.9471 H   0  0  0  0  0  0  0  0  0  0  0  0
   -0.1898    0.0841    0.3180 H   0  0  0  0  0  0  0  0  0  0  0  0
    2.9525   -2.8208    0.6308 H   0  0  0  0  0  0  0  0  0  0  0  0
    1.2317   -4.5653    0.8428 H   0  0  0  0  0  0  0  0  0  0  0  0
   -2.3160   -4.1986    0.2662 H   0  0  0  0  0  0  0  0  0  0  0  0
   -0.9019   -5.2461    0.3612 H   0  0  0  0  0  0  0  0  0  0  0  0
   -1.5240   -4.6365    1.8944 H   0  0  0  0  0  0  0  0  0  0  0  0
    3.8903   -1.2251    1.4872 H   0  0  0  0  0  0  0  0  0  0  0  0
    5.8298   -0.4542    2.5121 H   0  0  0  0  0  0  0  0  0  0  0  0
    7.8089    1.0427    2.4981 H   0  0  0  0  0  0  0  0  0  0  0  0
    7.9450    2.8638    0.9045 H   0  0  0  0  0  0  0  0  0  0  0  0
    4.2127    1.8136   -0.7432 H   0  0  0  0  0  0  0  0  0  0  0  0
    4.9124    3.1028   -2.6508 H   0  0  0  0  0  0  0  0  0  0  0  0
    4.4713    4.5808   -1.6745 H   0  0  0  0  0  0  0  0  0  0  0  0
  1  2  1  0
  2  3  2  0
  3  4  1  0
  4  5  2  0
  5  6  1  0
  5  7  1  0
  7  8  2  0
  8  9  1  0
  9 10  2  0
 10 11  1  0
 11 12  2  0
 12 13  1  0
  9 14  1  0
 14 15  2  0
 15 16  1  0
 16 17  2  0
 17 18  1  0
 18 19  2  0
 19 20  1  0
 16 21  1  0
 21 22  2  0
 21 23  1  0
 23 24  1  0
 24 25  2  0
 25 26  1  0
 26 27  2  0
 27 28  1  0
 28 29  2  0
 28 30  1  0
 30 31  1  0
 30 32  2  0
  6  2  1  0
 12  7  1  0
 19 14  1  0
 29 24  1  0
  1 33  1  0
  1 34  1  0
  1 35  1  0
  4 36  1  0
  8 37  1  0
 10 38  1  0
 13 39  1  0
 13 40  1  0
 15 41  1  0
 17 42  1  0
 18 43  1  0
 20 44  1  0
 20 45  1  0
 20 46  1  0
 23 47  1  0
 25 48  1  0
 26 49  1  0
 27 50  1  0
 29 51  1  0
 31 52  1  0
 31 53  1  0
M  END
$$$$
[H]OC(C([H])([H])[H])(C([H])([H])[H])C([H])([H])N([H])S(=O)(=O)c1c([H])c([H])c(C([H])([H])[H])c(-c2c([H])nc(N([H])[H])c(-c3oc(C([H])([H])[H])nc3[H])c2[H])c1[H]
     RDKit          3D

 53 55  0  0  0  0  0  0  0  0999 V2000
   -8.0092    1.2442   -1.3329 C   0  0  0  0  0  0  0  0  0  0  0  0
   -6.6181    0.7463   -1.1276 C   0  0  0  0  0  0  0  0  0  0  0  0
   -5.8855    0.1221   -2.0770 N   0  0  0  0  0  0  0  0  0  0  0  0
   -4.6849   -0.1898   -1.5550 C   0  0  0  0  0  0  0  0  0  0  0  0
   -4.7083    0.2646   -0.2552 C   0  0  0  0  0  0  0  0  0  0  0  0
   -5.8746    0.8084   -0.0585 O   0  0  0  0  0  0  0  0  0  0  0  0
   -3.5956    0.1411    0.7126 C   0  0  0  0  0  0  0  0  0  0  0  0
   -2.4329   -0.4707    0.3140 C   0  0  0  0  0  0  0  0  0  0  0  0
   -1.4052   -0.5665    1.2644 C   0  0  0  0  0  0  0  0  0  0  0  0
   -1.6276   -0.0453    2.5230 C   0  0  0  0  0  0  0  0  0  0  0  0
   -2.7760    0.5401    2.8618 N   0  0  0  0  0  0  0  0  0  0  0  0
   -3.7808    0.6527    1.9884 C   0  0  0  0  0  0  0  0  0  0  0  0
   -5.0197    1.2641    2.2955 N   0  0  0  0  0  0  0  0  0  0  0  0
   -0.1702   -1.1953    0.8373 C   0  0  0  0  0  0  0  0  0  0  0  0
    0.4793   -0.7533   -0.3034 C   0  0  0  0  0  0  0  0  0  0  0  0
    1.6670   -1.3134   -0.7345 C   0  0  0  0  0  0  0  0  0  0  0  0
    2.2065   -2.3505    0.0161 C   0  0  0  0  0  0  0  0  0  0  0  0
    1.5863   -2.8158    1.1569 C   0  0  0  0  0  0  0  0  0  0  0  0
    0.3778   -2.2132    1.5554 C   0  0  0  0  0  0  0  0  0  0  0  0
   -0.3145   -2.7112    2.7665 C   0  0  0  0  0  0  0  0  0  0  0  0
    2.4662   -0.7291   -2.1869 S   0  0  0  0  0  0  0  0  0  0  0  0
    3.1537   -1.8508   -2.9081 O   0  0  0  0  0  0  0  0  0  0  0  0
    1.4273   -0.1704   -3.1030 O   0  0  0  0  0  0  0  0  0  0  0  0
    3.5310    0.5221   -1.7344 N   0  0  0  0  0  0  0  0  0  0  0  0
    4.5642    0.0877   -0.8253 C   0  0  0  0  0  0  0  0  0  0  0  0
    5.4614    1.2488   -0.4744 C   0  0  0  0  0  0  0  0  0  0  0  0
    6.0677    1.8257   -1.7191 C   0  0  0  0  0  0  0  0  0  0  0  0
    4.7250    2.3456    0.2428 C   0  0  0  0  0  0  0  0  0  0  0  0
    6.4372    0.7647    0.4041 O   0  0  0  0  0  0  0  0  0  0  0  0
   -8.6873    0.3834   -1.2138 H   0  0  0  0  0  0  0  0  0  0  0  0
   -8.2396    1.9592   -0.5261 H   0  0  0  0  0  0  0  0  0  0  0  0
   -8.0746    1.7272   -2.3311 H   0  0  0  0  0  0  0  0  0  0  0  0
   -3.8899   -0.6923   -2.0748 H   0  0  0  0  0  0  0  0  0  0  0  0
   -2.2842   -0.8737   -0.6884 H   0  0  0  0  0  0  0  0  0  0  0  0
   -0.7895   -0.1380    3.2292 H   0  0  0  0  0  0  0  0  0  0  0  0
   -5.7395    0.8004    2.8863 H   0  0  0  0  0  0  0  0  0  0  0  0
   -5.2197    2.2151    1.9160 H   0  0  0  0  0  0  0  0  0  0  0  0
    0.0441    0.0566   -0.8764 H   0  0  0  0  0  0  0  0  0  0  0  0
    3.1413   -2.7646   -0.3553 H   0  0  0  0  0  0  0  0  0  0  0  0
    2.0288   -3.6240    1.7211 H   0  0  0  0  0  0  0  0  0  0  0  0
    0.1317   -2.2701    3.7061 H   0  0  0  0  0  0  0  0  0  0  0  0
   -0.0692   -3.8154    2.8963 H   0  0  0  0  0  0  0  0  0  0  0  0
   -1.4030   -2.6707    2.7283 H   0  0  0  0  0  0  0  0  0  0  0  0
    2.9832    1.3235   -1.4042 H   0  0  0  0  0  0  0  0  0  0  0  0
    4.0788   -0.3472    0.0541 H   0  0  0  0  0  0  0  0  0  0  0  0
    5.1573   -0.6976   -1.3314 H   0  0  0  0  0  0  0  0  0  0  0  0
    5.3691    1.7912   -2.5806 H   0  0  0  0  0  0  0  0  0  0  0  0
    6.3463    2.9001   -1.5906 H   0  0  0  0  0  0  0  0  0  0  0  0
    6.9960    1.2619   -1.9496 H   0  0  0  0  0  0  0  0  0  0  0  0
    5.4551    3.0493    0.6873 H   0  0  0  0  0  0  0  0  0  0  0  0
    4.1567    1.9328    1.1284 H   0  0  0  0  0  0  0  0  0  0  0  0
    4.0577    2.9238   -0.4123 H   0  0  0  0  0  0  0  0  0  0  0  0
    7.2029    0.3663   -0.0657 H   0  0  0  0  0  0  0  0  0  0  0  0
  1  2  1  0
  2  3  2  0
  3  4  1  0
  4  5  2  0
  5  6  1  0
  5  7  1  0
  7  8  2  0
  8  9  1  0
  9 10  2  0
 10 11  1  0
 11 12  2  0
 12 13  1  0
  9 14  1  0
 14 15  2  0
 15 16  1  0
 16 17  2  0
 17 18  1  0
 18 19  2  0
 19 20  1  0
 16 21  1  0
 21 22  2  0
 21 23  2  0
 21 24  1  0
 24 25  1  0
 25 26  1  0
 26 27  1  0
 26 28  1  0
 26 29  1  0
  6  2  1  0
 12  7  1  0
 19 14  1  0
  1 30  1  0
  1 31  1  0
  1 32  1  0
  4 33  1  0
  8 34  1  0
 10 35  1  0
 13 36  1  0
 13 37  1  0
 15 38  1  0
 17 39  1  0
 18 40  1  0
 20 41  1  0
 20 42  1  0
 20 43  1  0
 24 44  1  0
 25 45  1  0
 25 46  1  0
 27 47  1  0
 27 48  1  0
 27 49  1  0
 28 50  1  0
 28 51  1  0
 28 52  1  0
 29 53  1  0
M  END
$$$$
[H]c1c([H])c([H])c2c(c1[H])c(C(=O)OC1([H])C([H])([H])C3([H])N(C([H])([H])[H])C([H])(C([H])([H])C3([H])[H])C1([H])[H])c([H])n2[H]
     RDKit          3D

 41 44  0  0  0  0  0  0  0  0999 V2000
   -5.2682    1.0423   -0.1017 C   0  0  0  0  0  0  0  0  0  0  0  0
   -3.8393    1.0029   -0.3151 N   0  0  0  0  0  0  0  0  0  0  0  0
   -3.1452    1.0980    0.9711 C   0  0  0  0  0  0  0  0  0  0  0  0
   -3.4633   -0.2168    1.6044 C   0  0  0  0  0  0  0  0  0  0  0  0
   -3.7039   -1.2142    0.4963 C   0  0  0  0  0  0  0  0  0  0  0  0
   -3.4760   -0.3338   -0.7393 C   0  0  0  0  0  0  0  0  0  0  0  0
   -2.0127   -0.4477   -1.0775 C   0  0  0  0  0  0  0  0  0  0  0  0
   -1.1120   -0.0252    0.0548 C   0  0  0  0  0  0  0  0  0  0  0  0
   -1.6757    1.2535    0.6485 C   0  0  0  0  0  0  0  0  0  0  0  0
    0.1787    0.2847   -0.4381 O   0  0  0  0  0  0  0  0  0  0  0  0
    1.3299   -0.3265    0.0282 C   0  0  0  0  0  0  0  0  0  0  0  0
    1.1992   -1.1892    0.9267 O   0  0  0  0  0  0  0  0  0  0  0  0
    2.6396    0.0067   -0.4910 C   0  0  0  0  0  0  0  0  0  0  0  0
    2.8876    0.9514   -1.4892 C   0  0  0  0  0  0  0  0  0  0  0  0
    4.1983    1.0180   -1.7364 N   0  0  0  0  0  0  0  0  0  0  0  0
    4.8463    0.1519   -0.9410 C   0  0  0  0  0  0  0  0  0  0  0  0
    6.1660   -0.1934   -0.7690 C   0  0  0  0  0  0  0  0  0  0  0  0
    6.5185   -1.1386    0.1475 C   0  0  0  0  0  0  0  0  0  0  0  0
    5.5761   -1.7718    0.9228 C   0  0  0  0  0  0  0  0  0  0  0  0
    4.2529   -1.4304    0.7553 C   0  0  0  0  0  0  0  0  0  0  0  0
    3.8793   -0.4880   -0.1555 C   0  0  0  0  0  0  0  0  0  0  0  0
   -5.7857    0.2039   -0.6547 H   0  0  0  0  0  0  0  0  0  0  0  0
   -5.7285    1.9793   -0.5323 H   0  0  0  0  0  0  0  0  0  0  0  0
   -5.5633    0.9204    0.9506 H   0  0  0  0  0  0  0  0  0  0  0  0
   -3.4805    1.9573    1.5665 H   0  0  0  0  0  0  0  0  0  0  0  0
   -2.6497   -0.6056    2.2487 H   0  0  0  0  0  0  0  0  0  0  0  0
   -4.3499   -0.0726    2.2557 H   0  0  0  0  0  0  0  0  0  0  0  0
   -4.7151   -1.6365    0.5073 H   0  0  0  0  0  0  0  0  0  0  0  0
   -2.9871   -2.0567    0.5135 H   0  0  0  0  0  0  0  0  0  0  0  0
   -4.0497   -0.6806   -1.6018 H   0  0  0  0  0  0  0  0  0  0  0  0
   -1.8151   -1.5440   -1.2388 H   0  0  0  0  0  0  0  0  0  0  0  0
   -1.7564    0.0423   -2.0265 H   0  0  0  0  0  0  0  0  0  0  0  0
   -1.0798   -0.8070    0.8484 H   0  0  0  0  0  0  0  0  0  0  0  0
   -1.0848    1.6264    1.4997 H   0  0  0  0  0  0  0  0  0  0  0  0
   -1.6081    2.0208   -0.1527 H   0  0  0  0  0  0  0  0  0  0  0  0
    2.1222    1.5298   -1.9749 H   0  0  0  0  0  0  0  0  0  0  0  0
    4.7122    1.6225   -2.4238 H   0  0  0  0  0  0  0  0  0  0  0  0
    6.9354    0.3006   -1.3785 H   0  0  0  0  0  0  0  0  0  0  0  0
    7.5679   -1.4047    0.2757 H   0  0  0  0  0  0  0  0  0  0  0  0
    5.8630   -2.5229    1.6503 H   0  0  0  0  0  0  0  0  0  0  0  0
    3.4772   -1.9245    1.3658 H   0  0  0  0  0  0  0  0  0  0  0  0
  1  2  1  0
  2  3  1  0
  3  4  1  0
  4  5  1  0
  5  6  1  0
  6  7  1  0
  7  8  1  0
  8  9  1  0
  8 10  1  0
 10 11  1  0
 11 12  2  0
 11 13  1  0
 13 14  2  0
 14 15  1  0
 15 16  1  0
 16 17  2  0
 17 18  1  0
 18 19  2  0
 19 20  1  0
 20 21  2  0
  6  2  1  0
 21 13  1  0
  9  3  1  0
 21 16  1  0
  1 22  1  0
  1 23  1  0
  1 24  1  0
  3 25  1  0
  4 26  1  0
  4 27  1  0
  5 28  1  0
  5 29  1  0
  6 30  1  0
  7 31  1  0
  7 32  1  0
  8 33  1  0
  9 34  1  0
  9 35  1  0
 14 36  1  0
 15 37  1  0
 17 38  1  0
 18 39  1  0
 19 40  1  0
 20 41  1  0
M  END
$$$$
[H]OC(=O)C([H])([H])Oc1c([H])c([H])c([H])c2c1c(C(=O)C(=O)N([H])[H])c(C([H])([H])C([H])([H])[H])n2C([H])([H])c1c([H])c([H])c([H])c([H])c1-c1c([H])c([H])c([H])c([H])c1[H]
     RDKit          3D

 58 61  0  0  0  0  0  0  0  0999 V2000
    0.7479    3.7915    0.2409 C   0  0  0  0  0  0  0  0  0  0  0  0
    0.5358    3.0724   -1.0721 C   0  0  0  0  0  0  0  0  0  0  0  0
    0.5763    1.6043   -0.8856 C   0  0  0  0  0  0  0  0  0  0  0  0
    1.8196    1.0005   -0.6474 C   0  0  0  0  0  0  0  0  0  0  0  0
    3.1187    1.6774   -0.5118 C   0  0  0  0  0  0  0  0  0  0  0  0
    3.5074    2.0560    0.6168 O   0  0  0  0  0  0  0  0  0  0  0  0
    3.9717    1.9213   -1.6582 C   0  0  0  0  0  0  0  0  0  0  0  0
    5.2263    2.5673   -1.5279 N   0  0  0  0  0  0  0  0  0  0  0  0
    3.6533    1.5752   -2.8393 O   0  0  0  0  0  0  0  0  0  0  0  0
    1.6013   -0.3327   -0.5791 C   0  0  0  0  0  0  0  0  0  0  0  0
    2.5349   -1.3449   -0.3888 C   0  0  0  0  0  0  0  0  0  0  0  0
    3.8666   -1.0535   -0.2012 O   0  0  0  0  0  0  0  0  0  0  0  0
    4.9287   -1.8964    0.0132 C   0  0  0  0  0  0  0  0  0  0  0  0
    4.9018   -2.7164    1.2299 C   0  0  0  0  0  0  0  0  0  0  0  0
    3.9144   -2.6531    2.2165 O   0  0  0  0  0  0  0  0  0  0  0  0
    5.8501   -3.5349    1.3856 O   0  0  0  0  0  0  0  0  0  0  0  0
    2.1193   -2.6388   -0.3918 C   0  0  0  0  0  0  0  0  0  0  0  0
    0.7859   -2.8988   -0.5841 C   0  0  0  0  0  0  0  0  0  0  0  0
   -0.1133   -1.8759   -0.7687 C   0  0  0  0  0  0  0  0  0  0  0  0
    0.2546   -0.5239   -0.7724 C   0  0  0  0  0  0  0  0  0  0  0  0
   -0.3987    0.6437   -0.9598 N   0  0  0  0  0  0  0  0  0  0  0  0
   -1.7768    0.8912   -1.2486 C   0  0  0  0  0  0  0  0  0  0  0  0
   -2.7399    1.2579   -0.2141 C   0  0  0  0  0  0  0  0  0  0  0  0
   -2.8642    2.6495    0.0880 C   0  0  0  0  0  0  0  0  0  0  0  0
   -3.6623    3.1229    1.0861 C   0  0  0  0  0  0  0  0  0  0  0  0
   -4.3809    2.2235    1.8345 C   0  0  0  0  0  0  0  0  0  0  0  0
   -4.2819    0.8854    1.5609 C   0  0  0  0  0  0  0  0  0  0  0  0
   -3.4579    0.3816    0.5251 C   0  0  0  0  0  0  0  0  0  0  0  0
   -3.6251   -1.0637    0.2711 C   0  0  0  0  0  0  0  0  0  0  0  0
   -4.0834   -1.5740   -0.9226 C   0  0  0  0  0  0  0  0  0  0  0  0
   -4.2471   -2.9417   -1.1236 C   0  0  0  0  0  0  0  0  0  0  0  0
   -3.9514   -3.8357   -0.1187 C   0  0  0  0  0  0  0  0  0  0  0  0
   -3.4930   -3.3294    1.0768 C   0  0  0  0  0  0  0  0  0  0  0  0
   -3.3286   -1.9549    1.2775 C   0  0  0  0  0  0  0  0  0  0  0  0
    0.6495    3.0877    1.1085 H   0  0  0  0  0  0  0  0  0  0  0  0
   -0.0878    4.5369    0.3843 H   0  0  0  0  0  0  0  0  0  0  0  0
    1.6931    4.3657    0.2914 H   0  0  0  0  0  0  0  0  0  0  0  0
   -0.3149    3.4373   -1.6637 H   0  0  0  0  0  0  0  0  0  0  0  0
    1.4348    3.3844   -1.7031 H   0  0  0  0  0  0  0  0  0  0  0  0
    5.3033    3.5971   -1.4607 H   0  0  0  0  0  0  0  0  0  0  0  0
    6.1200    1.9986   -1.4974 H   0  0  0  0  0  0  0  0  0  0  0  0
    5.1222   -2.5362   -0.8825 H   0  0  0  0  0  0  0  0  0  0  0  0
    5.8706   -1.2722    0.0943 H   0  0  0  0  0  0  0  0  0  0  0  0
    3.7433   -3.4753    2.8120 H   0  0  0  0  0  0  0  0  0  0  0  0
    2.8136   -3.4731   -0.2571 H   0  0  0  0  0  0  0  0  0  0  0  0
    0.4671   -3.9320   -0.5847 H   0  0  0  0  0  0  0  0  0  0  0  0
   -1.1324   -2.1097   -0.9458 H   0  0  0  0  0  0  0  0  0  0  0  0
   -2.1943    0.0341   -1.8869 H   0  0  0  0  0  0  0  0  0  0  0  0
   -1.8002    1.7369   -2.0300 H   0  0  0  0  0  0  0  0  0  0  0  0
   -2.3261    3.3724   -0.5241 H   0  0  0  0  0  0  0  0  0  0  0  0
   -3.7516    4.1750    1.3092 H   0  0  0  0  0  0  0  0  0  0  0  0
   -5.0162    2.5606    2.6277 H   0  0  0  0  0  0  0  0  0  0  0  0
   -4.8443    0.1655    2.1440 H   0  0  0  0  0  0  0  0  0  0  0  0
   -4.3298   -0.9039   -1.7136 H   0  0  0  0  0  0  0  0  0  0  0  0
   -4.6067   -3.3398   -2.0619 H   0  0  0  0  0  0  0  0  0  0  0  0
   -4.0866   -4.9003   -0.2935 H   0  0  0  0  0  0  0  0  0  0  0  0
   -3.2696   -4.0568    1.8501 H   0  0  0  0  0  0  0  0  0  0  0  0
   -2.9671   -1.6057    2.2348 H   0  0  0  0  0  0  0  0  0  0  0  0
  1  2  1  0
  2  3  1  0
  3  4  2  0
  4  5  1  0
  5  6  2  0
  5  7  1  0
  7  8  1  0
  7  9  2  0
  4 10  1  0
 10 11  2  0
 11 12  1  0
 12 13  1  0
 13 14  1  0
 14 15  1  0
 14 16  2  0
 11 17  1  0
 17 18  2  0
 18 19  1  0
 19 20  2  0
 20 21  1  0
 21 22  1  0
 22 23  1  0
 23 24  2  0
 24 25  1  0
 25 26  2  0
 26 27  1  0
 27 28  2  0
 28 29  1  0
 29 30  2  0
 30 31  1  0
 31 32  2  0
 32 33  1  0
 33 34  2  0
 21  3  1  0
 28 23  1  0
 34 29  1  0
 20 10  1  0
  1 35  1  0
  1 36  1  0
  1 37  1  0
  2 38  1  0
  2 39  1  0
  8 40  1  0
  8 41  1  0
 13 42  1  0
 13 43  1  0
 15 44  1  0
 17 45  1  0
 18 46  1  0
 19 47  1  0
 22 48  1  0
 22 49  1  0
 24 50  1  0
 25 51  1  0
 26 52  1  0
 27 53  1  0
 30 54  1  0
 31 55  1  0
 32 56  1  0
 33 57  1  0
 34 58  1  0
M  END
$$$$
[H]N=C(N([H])[H])N([H])C([H])([H])C([H])([H])C([H])([H])[C@@]([H])(C(=O)c1nc([H])c([H])s1)N([H])C(=O)[C@@]1([H])N(C(=O)[C@]([H])(N([H])C(=O)OC([H])([H])c2c([H])c([H])c([H])c([H])c2[H])C([H])([H])c2c([H])c([H])c([H])c([H])c2[H])C([H])([H])C([H])([H])C1([H])[H]
     RDKit          3D

 81 84  0  0  0  0  0  0  0  0999 V2000
    7.9115    1.8550   -2.0745 N   0  0  0  0  0  0  0  0  0  0  0  0
    7.8249    0.7892   -1.1475 C   0  0  0  0  0  0  0  0  0  0  0  0
    8.3891   -0.3309   -1.4123 N   0  0  0  0  0  0  0  0  0  0  0  0
    7.1217    0.9418    0.0713 N   0  0  0  0  0  0  0  0  0  0  0  0
    6.9333   -0.1395    0.9865 C   0  0  0  0  0  0  0  0  0  0  0  0
    6.1250    0.3038    2.2152 C   0  0  0  0  0  0  0  0  0  0  0  0
    4.7944    0.8055    1.8679 C   0  0  0  0  0  0  0  0  0  0  0  0
    3.8028    0.0220    1.1359 C   0  0  2  0  0  0  0  0  0  0  0  0
    2.6105    0.8981    0.8962 N   0  0  0  0  0  0  0  0  0  0  0  0
    2.1743    1.3147   -0.3554 C   0  0  0  0  0  0  0  0  0  0  0  0
    2.8709    0.8503   -1.3463 O   0  0  0  0  0  0  0  0  0  0  0  0
    1.0778    2.1848   -0.6848 C   0  0  2  0  0  0  0  0  0  0  0  0
    0.6881    3.1858    0.4046 C   0  0  0  0  0  0  0  0  0  0  0  0
   -0.5444    3.8159   -0.2470 C   0  0  0  0  0  0  0  0  0  0  0  0
   -0.8920    2.9389   -1.4462 C   0  0  0  0  0  0  0  0  0  0  0  0
   -0.2017    1.6851   -1.0302 N   0  0  0  0  0  0  0  0  0  0  0  0
   -0.8884    0.4665   -1.0320 C   0  0  0  0  0  0  0  0  0  0  0  0
   -0.3330   -0.5597   -0.5954 O   0  0  0  0  0  0  0  0  0  0  0  0
   -2.2766    0.2870   -1.5263 C   0  0  1  0  0  0  0  0  0  0  0  0
   -2.1962    0.3856   -3.0364 C   0  0  0  0  0  0  0  0  0  0  0  0
   -3.5164    0.2274   -3.6882 C   0  0  0  0  0  0  0  0  0  0  0  0
   -3.9598   -1.0304   -4.0542 C   0  0  0  0  0  0  0  0  0  0  0  0
   -5.1868   -1.1847   -4.6619 C   0  0  0  0  0  0  0  0  0  0  0  0
   -6.0054   -0.0938   -4.9217 C   0  0  0  0  0  0  0  0  0  0  0  0
   -5.5866    1.1557   -4.5685 C   0  0  0  0  0  0  0  0  0  0  0  0
   -4.3484    1.2940   -3.9576 C   0  0  0  0  0  0  0  0  0  0  0  0
   -2.7639   -1.0586   -1.2339 N   0  0  0  0  0  0  0  0  0  0  0  0
   -4.0247   -1.2265   -0.5747 C   0  0  0  0  0  0  0  0  0  0  0  0
   -4.6774   -0.1670   -0.2813 O   0  0  0  0  0  0  0  0  0  0  0  0
   -4.5863   -2.4256   -0.2335 O   0  0  0  0  0  0  0  0  0  0  0  0
   -5.8248   -2.5573    0.4080 C   0  0  0  0  0  0  0  0  0  0  0  0
   -5.9078   -1.8968    1.7300 C   0  0  0  0  0  0  0  0  0  0  0  0
   -7.1280   -1.5826    2.3185 C   0  0  0  0  0  0  0  0  0  0  0  0
   -7.2023   -0.9677    3.5652 C   0  0  0  0  0  0  0  0  0  0  0  0
   -6.0512   -0.6468    4.2643 C   0  0  0  0  0  0  0  0  0  0  0  0
   -4.8455   -0.9532    3.6918 C   0  0  0  0  0  0  0  0  0  0  0  0
   -4.7846   -1.5647    2.4515 C   0  0  0  0  0  0  0  0  0  0  0  0
    3.3930   -1.3110    1.4437 C   0  0  0  0  0  0  0  0  0  0  0  0
    2.3998   -1.7175    0.6684 O   0  0  0  0  0  0  0  0  0  0  0  0
    3.7912   -2.3262    2.3919 C   0  0  0  0  0  0  0  0  0  0  0  0
    4.6479   -2.4490    3.3567 N   0  0  0  0  0  0  0  0  0  0  0  0
    4.7878   -3.5238    4.0479 C   0  0  0  0  0  0  0  0  0  0  0  0
    3.9792   -4.5848    3.7328 C   0  0  0  0  0  0  0  0  0  0  0  0
    3.0736   -3.9252    2.4456 S   0  0  0  0  0  0  0  0  0  0  0  0
    8.8257    2.3349   -2.2517 H   0  0  0  0  0  0  0  0  0  0  0  0
    7.1030    2.2195   -2.6210 H   0  0  0  0  0  0  0  0  0  0  0  0
    8.3872   -1.1684   -0.8088 H   0  0  0  0  0  0  0  0  0  0  0  0
    6.7320    1.8767    0.3014 H   0  0  0  0  0  0  0  0  0  0  0  0
    7.9200   -0.5464    1.2900 H   0  0  0  0  0  0  0  0  0  0  0  0
    6.4157   -0.9668    0.4461 H   0  0  0  0  0  0  0  0  0  0  0  0
    6.7629    1.2492    2.5322 H   0  0  0  0  0  0  0  0  0  0  0  0
    6.3187   -0.3559    3.0183 H   0  0  0  0  0  0  0  0  0  0  0  0
    4.8729    1.8757    1.4335 H   0  0  0  0  0  0  0  0  0  0  0  0
    4.2905    1.0722    2.8772 H   0  0  0  0  0  0  0  0  0  0  0  0
    4.2131   -0.0485    0.0529 H   0  0  0  0  0  0  0  0  0  0  0  0
    2.1167    1.1845    1.7568 H   0  0  0  0  0  0  0  0  0  0  0  0
    1.3504    2.8817   -1.5562 H   0  0  0  0  0  0  0  0  0  0  0  0
    0.3918    2.6598    1.3250 H   0  0  0  0  0  0  0  0  0  0  0  0
    1.4784    3.9262    0.5823 H   0  0  0  0  0  0  0  0  0  0  0  0
   -0.2939    4.8081   -0.6239 H   0  0  0  0  0  0  0  0  0  0  0  0
   -1.3822    3.8905    0.4591 H   0  0  0  0  0  0  0  0  0  0  0  0
   -1.9629    2.8066   -1.5633 H   0  0  0  0  0  0  0  0  0  0  0  0
   -0.4350    3.3181   -2.3780 H   0  0  0  0  0  0  0  0  0  0  0  0
   -2.9486    0.9999   -1.0775 H   0  0  0  0  0  0  0  0  0  0  0  0
   -1.6956    1.3047   -3.3793 H   0  0  0  0  0  0  0  0  0  0  0  0
   -1.5355   -0.4489   -3.3638 H   0  0  0  0  0  0  0  0  0  0  0  0
   -3.3285   -1.8720   -3.8529 H   0  0  0  0  0  0  0  0  0  0  0  0
   -5.5260   -2.1608   -4.9437 H   0  0  0  0  0  0  0  0  0  0  0  0
   -6.9838   -0.2085   -5.4037 H   0  0  0  0  0  0  0  0  0  0  0  0
   -6.2135    2.0350   -4.7627 H   0  0  0  0  0  0  0  0  0  0  0  0
   -4.0613    2.2874   -3.6980 H   0  0  0  0  0  0  0  0  0  0  0  0
   -2.2323   -1.8997   -1.4847 H   0  0  0  0  0  0  0  0  0  0  0  0
   -6.6702   -2.2326   -0.2668 H   0  0  0  0  0  0  0  0  0  0  0  0
   -6.0336   -3.6469    0.6115 H   0  0  0  0  0  0  0  0  0  0  0  0
   -8.0557   -1.8052    1.8256 H   0  0  0  0  0  0  0  0  0  0  0  0
   -8.1422   -0.7190    4.0331 H   0  0  0  0  0  0  0  0  0  0  0  0
   -6.0931   -0.1669    5.2383 H   0  0  0  0  0  0  0  0  0  0  0  0
   -3.9540   -0.6947    4.2550 H   0  0  0  0  0  0  0  0  0  0  0  0
   -3.7727   -1.7728    2.0691 H   0  0  0  0  0  0  0  0  0  0  0  0
    5.5277   -3.6208    4.8751 H   0  0  0  0  0  0  0  0  0  0  0  0
    3.9492   -5.5802    4.2027 H   0  0  0  0  0  0  0  0  0  0  0  0
  1  2  1  0
  2  3  2  3
  2  4  1  0
  4  5  1  0
  5  6  1  0
  6  7  1  0
  7  8  1  0
  8  9  1  0
  9 10  1  0
 10 11  2  0
 10 12  1  0
 12 13  1  0
 13 14  1  0
 14 15  1  0
 15 16  1  0
 16 17  1  0
 17 18  2  0
 17 19  1  0
 19 20  1  0
 20 21  1  0
 21 22  2  0
 22 23  1  0
 23 24  2  0
 24 25  1  0
 25 26  2  0
 19 27  1  0
 27 28  1  0
 28 29  2  0
 28 30  1  0
 30 31  1  0
 31 32  1  0
 32 33  2  0
 33 34  1  0
 34 35  2  0
 35 36  1  0
 36 37  2  0
  8 38  1  0
 38 39  2  0
 38 40  1  0
 40 41  2  0
 41 42  1  0
 42 43  2  0
 43 44  1  0
 16 12  1  0
 26 21  1  0
 37 32  1  0
 44 40  1  0
  1 45  1  0
  1 46  1  0
  3 47  1  0
  4 48  1  0
  5 49  1  0
  5 50  1  0
  6 51  1  0
  6 52  1  0
  7 53  1  0
  7 54  1  0
  8 55  1  6
  9 56  1  0
 12 57  1  6
 13 58  1  0
 13 59  1  0
 14 60  1  0
 14 61  1  0
 15 62  1  0
 15 63  1  0
 19 64  1  1
 20 65  1  0
 20 66  1  0
 22 67  1  0
 23 68  1  0
 24 69  1  0
 25 70  1  0
 26 71  1  0
 27 72  1  0
 31 73  1  0
 31 74  1  0
 33 75  1  0
 34 76  1  0
 35 77  1  0
 36 78  1  0
 37 79  1  0
 42 80  1  0
 43 81  1  0
M  END
$$$$
[H]c1nc(N([H])c2c([H])c([H])c(N3C([H])([H])C([H])([H])C([H])(N(C([H])([H])[H])C([H])([H])[H])C([H])([H])C3([H])[H])c([H])c2OC([H])([H])[H])nc(N([H])c2c([H])c([H])c([H])c([H])c2S(=O)(=O)C([H])(C([H])([H])[H])C([H])([H])[H])c1Cl
     RDKit          3D

 73 76  0  0  0  0  0  0  0  0999 V2000
   -1.4887   -3.5880    1.2680 C   0  0  0  0  0  0  0  0  0  0  0  0
   -0.7608   -2.5452    0.6863 O   0  0  0  0  0  0  0  0  0  0  0  0
   -1.4161   -1.4468    0.1649 C   0  0  0  0  0  0  0  0  0  0  0  0
   -2.7697   -1.3138    0.1835 C   0  0  0  0  0  0  0  0  0  0  0  0
   -3.4310   -0.2298   -0.3300 C   0  0  0  0  0  0  0  0  0  0  0  0
   -2.6699    0.7643   -0.8887 C   0  0  0  0  0  0  0  0  0  0  0  0
   -1.2837    0.6857   -0.9374 C   0  0  0  0  0  0  0  0  0  0  0  0
   -0.6456   -0.4090   -0.4169 C   0  0  0  0  0  0  0  0  0  0  0  0
    0.7306   -0.5530   -0.4331 N   0  0  0  0  0  0  0  0  0  0  0  0
    1.7028    0.3458   -0.9492 C   0  0  0  0  0  0  0  0  0  0  0  0
    1.4800    1.5214   -1.5269 N   0  0  0  0  0  0  0  0  0  0  0  0
    2.4593    2.3096   -1.9876 C   0  0  0  0  0  0  0  0  0  0  0  0
    3.7698    1.9304   -1.8818 C   0  0  0  0  0  0  0  0  0  0  0  0
    5.0878    2.9156   -2.4745 Cl  0  0  0  0  0  0  0  0  0  0  0  0
    4.0678    0.6884   -1.2753 C   0  0  0  0  0  0  0  0  0  0  0  0
    5.4172    0.3014   -1.1217 N   0  0  0  0  0  0  0  0  0  0  0  0
    5.8705   -0.9049   -0.5954 C   0  0  0  0  0  0  0  0  0  0  0  0
    5.0906   -2.0601   -0.5353 C   0  0  0  0  0  0  0  0  0  0  0  0
    5.6105   -3.2759   -0.1172 C   0  0  0  0  0  0  0  0  0  0  0  0
    6.9209   -3.3878    0.2545 C   0  0  0  0  0  0  0  0  0  0  0  0
    7.6858   -2.2549    0.1966 C   0  0  0  0  0  0  0  0  0  0  0  0
    7.2100   -1.0030   -0.2158 C   0  0  0  0  0  0  0  0  0  0  0  0
    8.2797    0.3289   -0.1092 S   0  0  0  0  0  0  0  0  0  0  0  0
    9.7039   -0.2341    0.1061 O   0  0  0  0  0  0  0  0  0  0  0  0
    8.4312    1.1263   -1.3815 O   0  0  0  0  0  0  0  0  0  0  0  0
    8.0255    1.4139    1.2573 C   0  0  0  0  0  0  0  0  0  0  0  0
    9.1794    2.4149    1.3719 C   0  0  0  0  0  0  0  0  0  0  0  0
    6.7769    2.1937    1.2396 C   0  0  0  0  0  0  0  0  0  0  0  0
    3.0226    0.0056   -0.8635 N   0  0  0  0  0  0  0  0  0  0  0  0
   -4.8624   -0.0923   -0.3072 N   0  0  0  0  0  0  0  0  0  0  0  0
   -5.5849   -1.1673    0.3276 C   0  0  0  0  0  0  0  0  0  0  0  0
   -7.0407   -0.9434    0.5155 C   0  0  0  0  0  0  0  0  0  0  0  0
   -7.4356    0.4949    0.3818 C   0  0  0  0  0  0  0  0  0  0  0  0
   -6.9640    0.9951   -0.9680 C   0  0  0  0  0  0  0  0  0  0  0  0
   -5.4597    1.0612   -0.8960 C   0  0  0  0  0  0  0  0  0  0  0  0
   -8.8564    0.6589    0.5708 N   0  0  0  0  0  0  0  0  0  0  0  0
   -9.2782    2.0230    0.4605 C   0  0  0  0  0  0  0  0  0  0  0  0
   -9.6390   -0.2430   -0.2416 C   0  0  0  0  0  0  0  0  0  0  0  0
   -0.7931   -4.1921    1.9054 H   0  0  0  0  0  0  0  0  0  0  0  0
   -1.9544   -4.2113    0.4616 H   0  0  0  0  0  0  0  0  0  0  0  0
   -2.2604   -3.2007    1.9817 H   0  0  0  0  0  0  0  0  0  0  0  0
   -3.3514   -2.1246    0.6360 H   0  0  0  0  0  0  0  0  0  0  0  0
   -3.1295    1.6488   -1.3125 H   0  0  0  0  0  0  0  0  0  0  0  0
   -0.7832    1.5103   -1.3929 H   0  0  0  0  0  0  0  0  0  0  0  0
    1.1068   -1.4691    0.0044 H   0  0  0  0  0  0  0  0  0  0  0  0
    2.2213    3.2667   -2.4541 H   0  0  0  0  0  0  0  0  0  0  0  0
    6.1140    0.9939   -1.4647 H   0  0  0  0  0  0  0  0  0  0  0  0
    4.0603   -2.0188   -0.8381 H   0  0  0  0  0  0  0  0  0  0  0  0
    4.9515   -4.1295   -0.0940 H   0  0  0  0  0  0  0  0  0  0  0  0
    7.3564   -4.3431    0.5885 H   0  0  0  0  0  0  0  0  0  0  0  0
    8.7315   -2.3610    0.4975 H   0  0  0  0  0  0  0  0  0  0  0  0
    8.1309    0.7711    2.1790 H   0  0  0  0  0  0  0  0  0  0  0  0
    9.2341    2.9999    0.4280 H   0  0  0  0  0  0  0  0  0  0  0  0
    8.8903    3.1190    2.1704 H   0  0  0  0  0  0  0  0  0  0  0  0
   10.1385    1.9091    1.5465 H   0  0  0  0  0  0  0  0  0  0  0  0
    6.6586    2.6546    0.2401 H   0  0  0  0  0  0  0  0  0  0  0  0
    5.9200    1.5461    1.5414 H   0  0  0  0  0  0  0  0  0  0  0  0
    6.8570    3.0425    1.9945 H   0  0  0  0  0  0  0  0  0  0  0  0
   -5.4057   -2.0834   -0.2985 H   0  0  0  0  0  0  0  0  0  0  0  0
   -5.1129   -1.3839    1.3330 H   0  0  0  0  0  0  0  0  0  0  0  0
   -7.3369   -1.2598    1.5530 H   0  0  0  0  0  0  0  0  0  0  0  0
   -7.5857   -1.5404   -0.2484 H   0  0  0  0  0  0  0  0  0  0  0  0
   -6.9204    1.0822    1.1579 H   0  0  0  0  0  0  0  0  0  0  0  0
   -7.3716    2.0047   -1.1693 H   0  0  0  0  0  0  0  0  0  0  0  0
   -7.2424    0.3151   -1.7855 H   0  0  0  0  0  0  0  0  0  0  0  0
   -5.0229    1.2094   -1.9181 H   0  0  0  0  0  0  0  0  0  0  0  0
   -5.2243    1.9555   -0.2465 H   0  0  0  0  0  0  0  0  0  0  0  0
   -9.3583    2.3936   -0.5797 H   0  0  0  0  0  0  0  0  0  0  0  0
   -8.5425    2.6556    1.0032 H   0  0  0  0  0  0  0  0  0  0  0  0
  -10.3018    2.1167    0.9062 H   0  0  0  0  0  0  0  0  0  0  0  0
  -10.5738    0.3178   -0.5167 H   0  0  0  0  0  0  0  0  0  0  0  0
   -9.1485   -0.5590   -1.1630 H   0  0  0  0  0  0  0  0  0  0  0  0
   -9.8879   -1.1629    0.3397 H   0  0  0  0  0  0  0  0  0  0  0  0
  1  2  1  0
  2  3  1  0
  3  4  2  0
  4  5  1  0
  5  6  2  0
  6  7  1  0
  7  8  2  0
  8  9  1  0
  9 10  1  0
 10 11  2  0
 11 12  1  0
 12 13  2  0
 13 14  1  0
 13 15  1  0
 15 16  1  0
 16 17  1  0
 17 18  2  0
 18 19  1  0
 19 20  2  0
 20 21  1  0
 21 22  2  0
 22 23  1  0
 23 24  2  0
 23 25  2  0
 23 26  1  0
 26 27  1  0
 26 28  1  0
 15 29  2  0
  5 30  1  0
 30 31  1  0
 31 32  1  0
 32 33  1  0
 33 34  1  0
 34 35  1  0
 33 36  1  0
 36 37  1  0
 36 38  1  0
  8  3  1  0
 29 10  1  0
 35 30  1  0
 22 17  1  0
  1 39  1  0
  1 40  1  0
  1 41  1  0
  4 42  1  0
  6 43  1  0
  7 44  1  0
  9 45  1  0
 12 46  1  0
 16 47  1  0
 18 48  1  0
 19 49  1  0
 20 50  1  0
 21 51  1  0
 26 52  1  0
 27 53  1  0
 27 54  1  0
 27 55  1  0
 28 56  1  0
 28 57  1  0
 28 58  1  0
 31 59  1  0
 31 60  1  0
 32 61  1  0
 32 62  1  0
 33 63  1  0
 34 64  1  0
 34 65  1  0
 35 66  1  0
 35 67  1  0
 37 68  1  0
 37 69  1  0
 37 70  1  0
 38 71  1  0
 38 72  1  0
 38 73  1  0
M  END
$$$$
[H]N=C(N([H])[H])N([H])C([H])([H])C([H])([H])C([H])([H])[C@@]([H])(C(=O)N([H])[C@]([H])(C(=O)N([H])[H])C([H])([H])c1c([H])n([H])c2c([H])c([H])c([H])c([H])c12)N([H])C(=O)[C@@]([H])(N([H])C(=O)[C@]([H])(N([H])[H])[C@]([H])(O[H])C([H])([H])[H])C([H])([H])c1c([H])c([H])c([H])c([H])c1[H]
     RDKit          3D

 85 87  0  0  0  0  0  0  0  0999 V2000
    6.8052   -0.9480    0.5419 C   0  0  0  0  0  0  0  0  0  0  0  0
    5.9174   -0.6134    1.7145 C   0  0  1  0  0  0  0  0  0  0  0  0
    5.7192    0.7557    1.8920 O   0  0  0  0  0  0  0  0  0  0  0  0
    4.6971   -1.4373    1.8453 C   0  0  1  0  0  0  0  0  0  0  0  0
    4.1498   -1.2989    3.2071 N   0  0  0  0  0  0  0  0  0  0  0  0
    3.5987   -1.1833    0.9166 C   0  0  0  0  0  0  0  0  0  0  0  0
    2.4497   -1.6012    1.3012 O   0  0  0  0  0  0  0  0  0  0  0  0
    3.6767   -0.5395   -0.3193 N   0  0  0  0  0  0  0  0  0  0  0  0
    2.5303   -0.3332   -1.1626 C   0  0  1  0  0  0  0  0  0  0  0  0
    1.9781   -1.6047   -1.7708 C   0  0  0  0  0  0  0  0  0  0  0  0
    3.0259   -2.2487   -2.5939 C   0  0  0  0  0  0  0  0  0  0  0  0
    3.8382   -3.2277   -2.0688 C   0  0  0  0  0  0  0  0  0  0  0  0
    4.8525   -3.8497   -2.8002 C   0  0  0  0  0  0  0  0  0  0  0  0
    5.0746   -3.4826   -4.1242 C   0  0  0  0  0  0  0  0  0  0  0  0
    4.2650   -2.5047   -4.6547 C   0  0  0  0  0  0  0  0  0  0  0  0
    3.2712   -1.9056   -3.9131 C   0  0  0  0  0  0  0  0  0  0  0  0
    1.4646    0.4762   -0.5126 C   0  0  0  0  0  0  0  0  0  0  0  0
    1.7170    0.9340    0.6434 O   0  0  0  0  0  0  0  0  0  0  0  0
    0.2023    0.7438   -1.1248 N   0  0  0  0  0  0  0  0  0  0  0  0
   -0.8139    1.5237   -0.4224 C   0  0  1  0  0  0  0  0  0  0  0  0
   -1.2377    2.7203   -1.2114 C   0  0  0  0  0  0  0  0  0  0  0  0
   -0.1727    3.7133   -1.5201 C   0  0  0  0  0  0  0  0  0  0  0  0
    0.4425    4.3459   -0.2911 C   0  0  0  0  0  0  0  0  0  0  0  0
    1.4646    5.2921   -0.7460 N   0  0  0  0  0  0  0  0  0  0  0  0
    1.1613    6.4761   -1.4350 C   0  0  0  0  0  0  0  0  0  0  0  0
   -0.0419    7.2114   -1.1951 N   0  0  0  0  0  0  0  0  0  0  0  0
    1.9960    6.9213   -2.3190 N   0  0  0  0  0  0  0  0  0  0  0  0
   -2.0264    0.7065   -0.1890 C   0  0  0  0  0  0  0  0  0  0  0  0
   -2.1241   -0.4376   -0.6855 O   0  0  0  0  0  0  0  0  0  0  0  0
   -3.0792    1.2090    0.5990 N   0  0  0  0  0  0  0  0  0  0  0  0
   -4.2976    0.3910    0.8237 C   0  0  1  0  0  0  0  0  0  0  0  0
   -4.0052   -0.3509    2.1159 C   0  0  0  0  0  0  0  0  0  0  0  0
   -5.0760   -1.2506    2.5458 C   0  0  0  0  0  0  0  0  0  0  0  0
   -5.9775   -1.0856    3.5654 C   0  0  0  0  0  0  0  0  0  0  0  0
   -6.7872   -2.1491    3.6503 N   0  0  0  0  0  0  0  0  0  0  0  0
   -6.4148   -3.0191    2.6795 C   0  0  0  0  0  0  0  0  0  0  0  0
   -6.8574   -4.2618    2.2784 C   0  0  0  0  0  0  0  0  0  0  0  0
   -6.2762   -4.9406    1.2331 C   0  0  0  0  0  0  0  0  0  0  0  0
   -5.2091   -4.3839    0.5407 C   0  0  0  0  0  0  0  0  0  0  0  0
   -4.7388   -3.1345    0.9192 C   0  0  0  0  0  0  0  0  0  0  0  0
   -5.3511   -2.4840    1.9768 C   0  0  0  0  0  0  0  0  0  0  0  0
   -5.4306    1.2941    0.8752 C   0  0  0  0  0  0  0  0  0  0  0  0
   -6.7473    0.7994    1.0381 N   0  0  0  0  0  0  0  0  0  0  0  0
   -5.3344    2.5607    0.7796 O   0  0  0  0  0  0  0  0  0  0  0  0
    7.0120   -0.0340   -0.0522 H   0  0  0  0  0  0  0  0  0  0  0  0
    6.3151   -1.7208   -0.1216 H   0  0  0  0  0  0  0  0  0  0  0  0
    7.7979   -1.3707    0.8489 H   0  0  0  0  0  0  0  0  0  0  0  0
    6.5641   -0.8887    2.6235 H   0  0  0  0  0  0  0  0  0  0  0  0
    5.7755    1.1743    0.9967 H   0  0  0  0  0  0  0  0  0  0  0  0
    5.0310   -2.5226    1.8175 H   0  0  0  0  0  0  0  0  0  0  0  0
    4.2214   -0.2551    3.4273 H   0  0  0  0  0  0  0  0  0  0  0  0
    3.1690   -1.6333    3.2569 H   0  0  0  0  0  0  0  0  0  0  0  0
    4.5900   -0.1822   -0.6594 H   0  0  0  0  0  0  0  0  0  0  0  0
    2.8232    0.2975   -2.0666 H   0  0  0  0  0  0  0  0  0  0  0  0
    1.5601   -2.2793   -1.0185 H   0  0  0  0  0  0  0  0  0  0  0  0
    1.1685   -1.2951   -2.4717 H   0  0  0  0  0  0  0  0  0  0  0  0
    3.6945   -3.5581   -1.0297 H   0  0  0  0  0  0  0  0  0  0  0  0
    5.4705   -4.6108   -2.3603 H   0  0  0  0  0  0  0  0  0  0  0  0
    5.8715   -3.9823   -4.6676 H   0  0  0  0  0  0  0  0  0  0  0  0
    4.4352   -2.2188   -5.6821 H   0  0  0  0  0  0  0  0  0  0  0  0
    2.6277   -1.1270   -4.3365 H   0  0  0  0  0  0  0  0  0  0  0  0
    0.0378    0.3685   -2.0716 H   0  0  0  0  0  0  0  0  0  0  0  0
   -0.4150    1.8373    0.5402 H   0  0  0  0  0  0  0  0  0  0  0  0
   -1.8182    2.4226   -2.1349 H   0  0  0  0  0  0  0  0  0  0  0  0
   -2.0053    3.2578   -0.5782 H   0  0  0  0  0  0  0  0  0  0  0  0
   -0.5655    4.5446   -2.1467 H   0  0  0  0  0  0  0  0  0  0  0  0
    0.6490    3.1677   -2.0421 H   0  0  0  0  0  0  0  0  0  0  0  0
    0.8406    3.6469    0.4394 H   0  0  0  0  0  0  0  0  0  0  0  0
   -0.3122    4.9844    0.2598 H   0  0  0  0  0  0  0  0  0  0  0  0
    2.4489    5.0658   -0.5452 H   0  0  0  0  0  0  0  0  0  0  0  0
   -0.0175    7.9342   -0.4498 H   0  0  0  0  0  0  0  0  0  0  0  0
   -0.9152    7.0462   -1.7322 H   0  0  0  0  0  0  0  0  0  0  0  0
    2.8773    6.4092   -2.5151 H   0  0  0  0  0  0  0  0  0  0  0  0
   -3.0050    2.1605    1.0230 H   0  0  0  0  0  0  0  0  0  0  0  0
   -4.3737   -0.3121   -0.0107 H   0  0  0  0  0  0  0  0  0  0  0  0
   -3.1050   -0.9963    1.9128 H   0  0  0  0  0  0  0  0  0  0  0  0
   -3.7319    0.4045    2.8852 H   0  0  0  0  0  0  0  0  0  0  0  0
   -6.0059   -0.1902    4.2103 H   0  0  0  0  0  0  0  0  0  0  0  0
   -7.5757   -2.3166    4.3285 H   0  0  0  0  0  0  0  0  0  0  0  0
   -7.6845   -4.7161    2.8017 H   0  0  0  0  0  0  0  0  0  0  0  0
   -6.6368   -5.9212    0.9271 H   0  0  0  0  0  0  0  0  0  0  0  0
   -4.7401   -4.9118   -0.2885 H   0  0  0  0  0  0  0  0  0  0  0  0
   -3.9041   -2.6877    0.3827 H   0  0  0  0  0  0  0  0  0  0  0  0
   -7.3562    1.0850    1.8204 H   0  0  0  0  0  0  0  0  0  0  0  0
   -7.1121    0.1255    0.3369 H   0  0  0  0  0  0  0  0  0  0  0  0
  1  2  1  0
  2  3  1  0
  2  4  1  0
  4  5  1  0
  4  6  1  0
  6  7  2  0
  6  8  1  0
  8  9  1  0
  9 10  1  0
 10 11  1  0
 11 12  2  0
 12 13  1  0
 13 14  2  0
 14 15  1  0
 15 16  2  0
  9 17  1  0
 17 18  2  0
 17 19  1  0
 19 20  1  0
 20 21  1  0
 21 22  1  0
 22 23  1  0
 23 24  1  0
 24 25  1  0
 25 26  1  0
 25 27  2  3
 20 28  1  0
 28 29  2  0
 28 30  1  0
 30 31  1  0
 31 32  1  0
 32 33  1  0
 33 34  2  0
 34 35  1  0
 35 36  1  0
 36 37  2  0
 37 38  1  0
 38 39  2  0
 39 40  1  0
 40 41  2  0
 31 42  1  0
 42 43  1  0
 42 44  2  0
 16 11  1  0
 41 33  1  0
 41 36  1  0
  1 45  1  0
  1 46  1  0
  1 47  1  0
  2 48  1  1
  3 49  1  0
  4 50  1  1
  5 51  1  0
  5 52  1  0
  8 53  1  0
  9 54  1  6
 10 55  1  0
 10 56  1  0
 12 57  1  0
 13 58  1  0
 14 59  1  0
 15 60  1  0
 16 61  1  0
 19 62  1  0
 20 63  1  1
 21 64  1  0
 21 65  1  0
 22 66  1  0
 22 67  1  0
 23 68  1  0
 23 69  1  0
 24 70  1  0
 26 71  1  0
 26 72  1  0
 27 73  1  0
 30 74  1  0
 31 75  1  6
 32 76  1  0
 32 77  1  0
 34 78  1  0
 35 79  1  0
 37 80  1  0
 38 81  1  0
 39 82  1  0
 40 83  1  0
 43 84  1  0
 43 85  1  0
M  END
$$$$
[H]c1c([H])c([H])c2c(c1[H])C([H])([H])[C@@]1([H])O[C@]2(C([H])([H])[H])[C@]1([H])N([H])C(=O)c1c([H])c(OC([H])([H])[H])c(OC([H])([H])[H])c(OC([H])([H])[H])c1[H]
     RDKit          3D

 50 53  0  0  0  0  0  0  0  0999 V2000
   -3.1343    3.0484    1.0795 C   0  0  0  0  0  0  0  0  0  0  0  0
   -4.0173    2.1108    0.5077 O   0  0  0  0  0  0  0  0  0  0  0  0
   -3.5728    0.8900   -0.0075 C   0  0  0  0  0  0  0  0  0  0  0  0
   -2.2213    0.6175    0.0577 C   0  0  0  0  0  0  0  0  0  0  0  0
   -1.7632   -0.5724   -0.4407 C   0  0  0  0  0  0  0  0  0  0  0  0
   -2.6817   -1.4554   -0.9918 C   0  0  0  0  0  0  0  0  0  0  0  0
   -4.0309   -1.1909   -1.0604 C   0  0  0  0  0  0  0  0  0  0  0  0
   -4.9609   -2.0527   -1.6030 O   0  0  0  0  0  0  0  0  0  0  0  0
   -4.5269   -3.2915   -2.1282 C   0  0  0  0  0  0  0  0  0  0  0  0
   -4.4618    0.0097   -0.5529 C   0  0  0  0  0  0  0  0  0  0  0  0
   -5.8261    0.3566   -0.5847 O   0  0  0  0  0  0  0  0  0  0  0  0
   -6.6465   -0.0087    0.5235 C   0  0  0  0  0  0  0  0  0  0  0  0
   -0.3711   -0.8982   -0.3935 C   0  0  0  0  0  0  0  0  0  0  0  0
    0.0195   -1.9751   -0.9090 O   0  0  0  0  0  0  0  0  0  0  0  0
    0.5763   -0.0520    0.2119 N   0  0  0  0  0  0  0  0  0  0  0  0
    1.9944   -0.3723    0.2660 C   0  0  2  0  0  0  0  0  0  0  0  0
    2.5425   -0.0612    1.6412 C   0  0  1  0  0  0  0  0  0  0  0  0
    3.8429   -0.7904    1.8380 C   0  0  0  0  0  0  0  0  0  0  0  0
    4.7932   -0.3147    0.7979 C   0  0  0  0  0  0  0  0  0  0  0  0
    6.1102   -0.6939    0.8032 C   0  0  0  0  0  0  0  0  0  0  0  0
    6.9516   -0.2269   -0.1817 C   0  0  0  0  0  0  0  0  0  0  0  0
    6.4343    0.6106   -1.1431 C   0  0  0  0  0  0  0  0  0  0  0  0
    5.0837    0.9926   -1.1389 C   0  0  0  0  0  0  0  0  0  0  0  0
    4.2585    0.5238   -0.1579 C   0  0  0  0  0  0  0  0  0  0  0  0
    2.8267    0.8522   -0.0466 C   0  0  1  0  0  0  0  0  0  0  0  0
    2.2232    1.6990   -1.1012 C   0  0  0  0  0  0  0  0  0  0  0  0
    2.6049    1.2708    1.2873 O   0  0  0  0  0  0  0  0  0  0  0  0
   -3.7664    3.8822    1.4664 H   0  0  0  0  0  0  0  0  0  0  0  0
   -2.4314    3.4209    0.3096 H   0  0  0  0  0  0  0  0  0  0  0  0
   -2.5592    2.6512    1.9233 H   0  0  0  0  0  0  0  0  0  0  0  0
   -1.5957    1.3822    0.5095 H   0  0  0  0  0  0  0  0  0  0  0  0
   -2.3572   -2.4205   -1.4028 H   0  0  0  0  0  0  0  0  0  0  0  0
   -3.8841   -3.7728   -1.3738 H   0  0  0  0  0  0  0  0  0  0  0  0
   -5.4304   -3.9609   -2.2199 H   0  0  0  0  0  0  0  0  0  0  0  0
   -4.0632   -3.1757   -3.1173 H   0  0  0  0  0  0  0  0  0  0  0  0
   -6.2647    0.4707    1.4651 H   0  0  0  0  0  0  0  0  0  0  0  0
   -7.6556    0.4164    0.3475 H   0  0  0  0  0  0  0  0  0  0  0  0
   -6.6848   -1.1007    0.5989 H   0  0  0  0  0  0  0  0  0  0  0  0
    0.2894    0.8465    0.6495 H   0  0  0  0  0  0  0  0  0  0  0  0
    2.3030   -1.3105   -0.1890 H   0  0  0  0  0  0  0  0  0  0  0  0
    1.8178   -0.2788    2.4655 H   0  0  0  0  0  0  0  0  0  0  0  0
    3.6463   -1.8683    1.5985 H   0  0  0  0  0  0  0  0  0  0  0  0
    4.2415   -0.7099    2.8495 H   0  0  0  0  0  0  0  0  0  0  0  0
    6.5319   -1.3505    1.5504 H   0  0  0  0  0  0  0  0  0  0  0  0
    8.0087   -0.5041   -0.2154 H   0  0  0  0  0  0  0  0  0  0  0  0
    7.0897    0.9781   -1.9155 H   0  0  0  0  0  0  0  0  0  0  0  0
    4.6967    1.6444   -1.8933 H   0  0  0  0  0  0  0  0  0  0  0  0
    1.9465    1.0797   -1.9953 H   0  0  0  0  0  0  0  0  0  0  0  0
    2.8202    2.5515   -1.4137 H   0  0  0  0  0  0  0  0  0  0  0  0
    1.2536    2.1031   -0.7068 H   0  0  0  0  0  0  0  0  0  0  0  0
  1  2  1  0
  2  3  1  0
  3  4  2  0
  4  5  1  0
  5  6  2  0
  6  7  1  0
  7  8  1  0
  8  9  1  0
  7 10  2  0
 10 11  1  0
 11 12  1  0
  5 13  1  0
 13 14  2  0
 13 15  1  0
 15 16  1  0
 16 17  1  0
 17 18  1  0
 18 19  1  0
 19 20  2  0
 20 21  1  0
 21 22  2  0
 22 23  1  0
 23 24  2  0
 24 25  1  0
 25 26  1  6
 25 27  1  0
 10  3  1  0
 25 16  1  0
 27 17  1  0
 24 19  1  0
  1 28  1  0
  1 29  1  0
  1 30  1  0
  4 31  1  0
  6 32  1  0
  9 33  1  0
  9 34  1  0
  9 35  1  0
 12 36  1  0
 12 37  1  0
 12 38  1  0
 15 39  1  0
 16 40  1  6
 17 41  1  1
 18 42  1  0
 18 43  1  0
 20 44  1  0
 21 45  1  0
 22 46  1  0
 23 47  1  0
 26 48  1  0
 26 49  1  0
 26 50  1  0
M  END
$$$$
[H]OC(=O)c1c([H])c([H])c(-c2sc(N([H])C(=O)c3c([H])c([H])c(OC([H])([H])[H])c([H])c3[H])nc2[H])c(OC([H])([H])c2c([H])c([H])c([H])c([H])c2OC([H])([H])[H])c1[H]
     RDKit          3D

 57 60  0  0  0  0  0  0  0  0999 V2000
   10.8229    0.4359    0.8262 C   0  0  0  0  0  0  0  0  0  0  0  0
    9.9685   -0.6574    1.1141 O   0  0  0  0  0  0  0  0  0  0  0  0
    8.5896   -0.5703    0.9868 C   0  0  0  0  0  0  0  0  0  0  0  0
    7.7677   -1.6485    1.2681 C   0  0  0  0  0  0  0  0  0  0  0  0
    6.3844   -1.5766    1.1399 C   0  0  0  0  0  0  0  0  0  0  0  0
    5.7813   -0.4091    0.7215 C   0  0  0  0  0  0  0  0  0  0  0  0
    6.5733    0.6721    0.4391 C   0  0  0  0  0  0  0  0  0  0  0  0
    7.9403    0.5770    0.5734 C   0  0  0  0  0  0  0  0  0  0  0  0
    4.3490   -0.3383    0.5356 C   0  0  0  0  0  0  0  0  0  0  0  0
    3.6895   -1.4474    0.6836 O   0  0  0  0  0  0  0  0  0  0  0  0
    3.6254    0.8106    0.2064 N   0  0  0  0  0  0  0  0  0  0  0  0
    2.1986    0.7333   -0.0385 C   0  0  0  0  0  0  0  0  0  0  0  0
    1.4413   -0.3507    0.0105 N   0  0  0  0  0  0  0  0  0  0  0  0
    0.1792   -0.2657   -0.2888 C   0  0  0  0  0  0  0  0  0  0  0  0
   -0.3314    0.9379   -0.6441 C   0  0  0  0  0  0  0  0  0  0  0  0
    1.1101    1.9311   -0.5179 S   0  0  0  0  0  0  0  0  0  0  0  0
   -1.6506    1.4137   -1.0535 C   0  0  0  0  0  0  0  0  0  0  0  0
   -1.8277    2.7796   -1.3198 C   0  0  0  0  0  0  0  0  0  0  0  0
   -3.0430    3.2823   -1.7648 C   0  0  0  0  0  0  0  0  0  0  0  0
   -4.1013    2.4398   -1.9521 C   0  0  0  0  0  0  0  0  0  0  0  0
   -3.9443    1.0843   -1.6936 C   0  0  0  0  0  0  0  0  0  0  0  0
   -2.7070    0.5717   -1.2401 C   0  0  0  0  0  0  0  0  0  0  0  0
   -2.5628   -0.7505   -0.9811 O   0  0  0  0  0  0  0  0  0  0  0  0
   -3.3395   -1.8673   -1.0580 C   0  0  0  0  0  0  0  0  0  0  0  0
   -4.6404   -1.8423   -0.3636 C   0  0  0  0  0  0  0  0  0  0  0  0
   -5.7582   -2.2247   -1.0775 C   0  0  0  0  0  0  0  0  0  0  0  0
   -7.0271   -2.2923   -0.5404 C   0  0  0  0  0  0  0  0  0  0  0  0
   -7.1784   -1.9551    0.7912 C   0  0  0  0  0  0  0  0  0  0  0  0
   -6.0791   -1.5701    1.5299 C   0  0  0  0  0  0  0  0  0  0  0  0
   -4.8326   -1.5167    0.9573 C   0  0  0  0  0  0  0  0  0  0  0  0
   -3.7393   -1.1301    1.7038 O   0  0  0  0  0  0  0  0  0  0  0  0
   -3.8299   -0.7641    3.0736 C   0  0  0  0  0  0  0  0  0  0  0  0
   -5.3767    2.9655   -2.3897 C   0  0  0  0  0  0  0  0  0  0  0  0
   -6.4846    2.1067   -2.5179 O   0  0  0  0  0  0  0  0  0  0  0  0
   -5.5331    4.1788   -2.6613 O   0  0  0  0  0  0  0  0  0  0  0  0
   11.8831    0.1031    0.7430 H   0  0  0  0  0  0  0  0  0  0  0  0
   10.5252    0.9608   -0.1104 H   0  0  0  0  0  0  0  0  0  0  0  0
   10.7278    1.1617    1.6563 H   0  0  0  0  0  0  0  0  0  0  0  0
    8.2318   -2.5600    1.5952 H   0  0  0  0  0  0  0  0  0  0  0  0
    5.8263   -2.4888    1.3860 H   0  0  0  0  0  0  0  0  0  0  0  0
    6.1805    1.6408    0.0963 H   0  0  0  0  0  0  0  0  0  0  0  0
    8.5700    1.4320    0.3498 H   0  0  0  0  0  0  0  0  0  0  0  0
    4.0904    1.7387    0.0824 H   0  0  0  0  0  0  0  0  0  0  0  0
   -0.4392   -1.1880   -0.2481 H   0  0  0  0  0  0  0  0  0  0  0  0
   -0.9849    3.4274   -1.1666 H   0  0  0  0  0  0  0  0  0  0  0  0
   -3.1155    4.3499   -1.9462 H   0  0  0  0  0  0  0  0  0  0  0  0
   -4.7893    0.4485   -1.8613 H   0  0  0  0  0  0  0  0  0  0  0  0
   -3.4795   -2.2231   -2.1192 H   0  0  0  0  0  0  0  0  0  0  0  0
   -2.7621   -2.7250   -0.5958 H   0  0  0  0  0  0  0  0  0  0  0  0
   -5.6369   -2.4949   -2.1253 H   0  0  0  0  0  0  0  0  0  0  0  0
   -7.8776   -2.6040   -1.1428 H   0  0  0  0  0  0  0  0  0  0  0  0
   -8.1543   -1.9952    1.2618 H   0  0  0  0  0  0  0  0  0  0  0  0
   -6.2282   -1.3150    2.5827 H   0  0  0  0  0  0  0  0  0  0  0  0
   -4.6980   -0.0281    3.1133 H   0  0  0  0  0  0  0  0  0  0  0  0
   -2.9331   -0.1875    3.3131 H   0  0  0  0  0  0  0  0  0  0  0  0
   -4.0688   -1.5799    3.7507 H   0  0  0  0  0  0  0  0  0  0  0  0
   -7.3024    2.3834   -2.0160 H   0  0  0  0  0  0  0  0  0  0  0  0
  1  2  1  0
  2  3  1  0
  3  4  2  0
  4  5  1  0
  5  6  2  0
  6  7  1  0
  7  8  2  0
  6  9  1  0
  9 10  2  0
  9 11  1  0
 11 12  1  0
 12 13  2  0
 13 14  1  0
 14 15  2  0
 15 16  1  0
 15 17  1  0
 17 18  2  0
 18 19  1  0
 19 20  2  0
 20 21  1  0
 21 22  2  0
 22 23  1  0
 23 24  1  0
 24 25  1  0
 25 26  2  0
 26 27  1  0
 27 28  2  0
 28 29  1  0
 29 30  2  0
 30 31  1  0
 31 32  1  0
 20 33  1  0
 33 34  1  0
 33 35  2  0
  8  3  1  0
 16 12  1  0
 22 17  1  0
 30 25  1  0
  1 36  1  0
  1 37  1  0
  1 38  1  0
  4 39  1  0
  5 40  1  0
  7 41  1  0
  8 42  1  0
 11 43  1  0
 14 44  1  0
 18 45  1  0
 19 46  1  0
 21 47  1  0
 24 48  1  0
 24 49  1  0
 26 50  1  0
 27 51  1  0
 28 52  1  0
 29 53  1  0
 32 54  1  0
 32 55  1  0
 32 56  1  0
 34 57  1  0
M  END
$$$$
[H]c1nc(Oc2c([H])c([H])c(N([H])c3nc4c([H])c([H])c([H])c([H])c4s3)c([H])c2[H])c(C2([H])C([H])([H])C([H])([H])N(C(=O)C([H])([H])[H])C([H])([H])C2([H])[H])c([H])c1[H]
     RDKit          3D

 56 60  0  0  0  0  0  0  0  0999 V2000
   -6.6690    3.1459   -1.5144 C   0  0  0  0  0  0  0  0  0  0  0  0
   -5.9226    2.5977   -0.3574 C   0  0  0  0  0  0  0  0  0  0  0  0
   -5.6537    3.2984    0.6562 O   0  0  0  0  0  0  0  0  0  0  0  0
   -5.4956    1.2595   -0.3766 N   0  0  0  0  0  0  0  0  0  0  0  0
   -5.7940    0.4358   -1.5285 C   0  0  0  0  0  0  0  0  0  0  0  0
   -4.8776   -0.7705   -1.5988 C   0  0  0  0  0  0  0  0  0  0  0  0
   -3.4706   -0.4285   -1.1894 C   0  0  0  0  0  0  0  0  0  0  0  0
   -3.4160    0.2176    0.1758 C   0  0  0  0  0  0  0  0  0  0  0  0
   -4.7620    0.6302    0.7015 C   0  0  0  0  0  0  0  0  0  0  0  0
   -2.6434   -1.6601   -1.2157 C   0  0  0  0  0  0  0  0  0  0  0  0
   -3.1373   -2.8696   -1.6328 C   0  0  0  0  0  0  0  0  0  0  0  0
   -2.3312   -3.9875   -1.6391 C   0  0  0  0  0  0  0  0  0  0  0  0
   -1.0180   -3.9081   -1.2272 C   0  0  0  0  0  0  0  0  0  0  0  0
   -0.5447   -2.7263   -0.8226 N   0  0  0  0  0  0  0  0  0  0  0  0
   -1.2967   -1.6209   -0.8029 C   0  0  0  0  0  0  0  0  0  0  0  0
   -0.7934   -0.4438   -0.3914 O   0  0  0  0  0  0  0  0  0  0  0  0
    0.3522    0.0619    0.0691 C   0  0  0  0  0  0  0  0  0  0  0  0
    1.4685   -0.7175    0.2733 C   0  0  0  0  0  0  0  0  0  0  0  0
    2.6356   -0.1432    0.7533 C   0  0  0  0  0  0  0  0  0  0  0  0
    2.7151    1.1875    1.0331 C   0  0  0  0  0  0  0  0  0  0  0  0
    3.8515    1.8356    1.4946 N   0  0  0  0  0  0  0  0  0  0  0  0
    5.1673    1.2984    1.4257 C   0  0  0  0  0  0  0  0  0  0  0  0
    5.6505    0.1871    0.9490 N   0  0  0  0  0  0  0  0  0  0  0  0
    6.9261   -0.0882    1.0040 C   0  0  0  0  0  0  0  0  0  0  0  0
    7.5383   -1.2629    0.5159 C   0  0  0  0  0  0  0  0  0  0  0  0
    8.8777   -1.4068    0.6456 C   0  0  0  0  0  0  0  0  0  0  0  0
    9.7384   -0.4935    1.2256 C   0  0  0  0  0  0  0  0  0  0  0  0
    9.1286    0.6579    1.7027 C   0  0  0  0  0  0  0  0  0  0  0  0
    7.7409    0.8424    1.5857 C   0  0  0  0  0  0  0  0  0  0  0  0
    6.6251    2.0581    2.0194 S   0  0  0  0  0  0  0  0  0  0  0  0
    1.5704    1.9713    0.8212 C   0  0  0  0  0  0  0  0  0  0  0  0
    0.4235    1.4441    0.3569 C   0  0  0  0  0  0  0  0  0  0  0  0
   -7.3397    3.9903   -1.1875 H   0  0  0  0  0  0  0  0  0  0  0  0
   -5.9321    3.5597   -2.2350 H   0  0  0  0  0  0  0  0  0  0  0  0
   -7.2770    2.3219   -1.9435 H   0  0  0  0  0  0  0  0  0  0  0  0
   -5.7950    1.0262   -2.4676 H   0  0  0  0  0  0  0  0  0  0  0  0
   -6.8249    0.0484   -1.3925 H   0  0  0  0  0  0  0  0  0  0  0  0
   -5.2568   -1.6117   -0.9974 H   0  0  0  0  0  0  0  0  0  0  0  0
   -4.8563   -1.0924   -2.6560 H   0  0  0  0  0  0  0  0  0  0  0  0
   -3.0402    0.2590   -1.9547 H   0  0  0  0  0  0  0  0  0  0  0  0
   -2.7914    1.1333    0.1076 H   0  0  0  0  0  0  0  0  0  0  0  0
   -2.8790   -0.4454    0.9124 H   0  0  0  0  0  0  0  0  0  0  0  0
   -4.5938    1.4003    1.4819 H   0  0  0  0  0  0  0  0  0  0  0  0
   -5.3750   -0.2011    1.0720 H   0  0  0  0  0  0  0  0  0  0  0  0
   -4.1583   -2.9893   -1.9686 H   0  0  0  0  0  0  0  0  0  0  0  0
   -2.7445   -4.9262   -1.9718 H   0  0  0  0  0  0  0  0  0  0  0  0
   -0.3928   -4.8028   -1.2380 H   0  0  0  0  0  0  0  0  0  0  0  0
    1.5086   -1.7843    0.0823 H   0  0  0  0  0  0  0  0  0  0  0  0
    3.4844   -0.8196    0.9085 H   0  0  0  0  0  0  0  0  0  0  0  0
    3.7341    2.8075    1.9388 H   0  0  0  0  0  0  0  0  0  0  0  0
    6.9753   -2.0493    0.0429 H   0  0  0  0  0  0  0  0  0  0  0  0
    9.3597   -2.3158    0.2693 H   0  0  0  0  0  0  0  0  0  0  0  0
   10.7971   -0.6217    1.3204 H   0  0  0  0  0  0  0  0  0  0  0  0
    9.6774    1.4547    2.1788 H   0  0  0  0  0  0  0  0  0  0  0  0
    1.6093    3.0426    1.0382 H   0  0  0  0  0  0  0  0  0  0  0  0
   -0.4727    2.0134    0.1822 H   0  0  0  0  0  0  0  0  0  0  0  0
  1  2  1  0
  2  3  2  0
  2  4  1  0
  4  5  1  0
  5  6  1  0
  6  7  1  0
  7  8  1  0
  8  9  1  0
  7 10  1  0
 10 11  2  0
 11 12  1  0
 12 13  2  0
 13 14  1  0
 14 15  2  0
 15 16  1  0
 16 17  1  0
 17 18  2  0
 18 19  1  0
 19 20  2  0
 20 21  1  0
 21 22  1  0
 22 23  2  0
 23 24  1  0
 24 25  2  0
 25 26  1  0
 26 27  2  0
 27 28  1  0
 28 29  2  0
 29 30  1  0
 20 31  1  0
 31 32  2  0
  9  4  1  0
 15 10  1  0
 32 17  1  0
 30 22  1  0
 29 24  1  0
  1 33  1  0
  1 34  1  0
  1 35  1  0
  5 36  1  0
  5 37  1  0
  6 38  1  0
  6 39  1  0
  7 40  1  0
  8 41  1  0
  8 42  1  0
  9 43  1  0
  9 44  1  0
 11 45  1  0
 12 46  1  0
 13 47  1  0
 18 48  1  0
 19 49  1  0
 21 50  1  0
 25 51  1  0
 26 52  1  0
 27 53  1  0
 28 54  1  0
 31 55  1  0
 32 56  1  0
M  END
$$$$
[H]c1nc(N([H])c2c([H])c([H])c(N3C([H])([H])C([H])([H])N(C([H])([H])[H])C([H])([H])C3([H])[H])c([H])c2OC([H])([H])[H])nc(N([H])c2c([H])c([H])c([H])c([H])c2S(=O)(=O)C([H])(C([H])([H])[H])C([H])([H])[H])c1Cl
     RDKit          3D

 67 70  0  0  0  0  0  0  0  0999 V2000
    2.7980   -3.3310   -1.2288 C   0  0  0  0  0  0  0  0  0  0  0  0
    1.9415   -2.2352   -0.9986 O   0  0  0  0  0  0  0  0  0  0  0  0
    2.4816   -1.0407   -0.5265 C   0  0  0  0  0  0  0  0  0  0  0  0
    3.8274   -0.9244   -0.2865 C   0  0  0  0  0  0  0  0  0  0  0  0
    4.4213    0.2145    0.1751 C   0  0  0  0  0  0  0  0  0  0  0  0
    3.5861    1.2917    0.4024 C   0  0  0  0  0  0  0  0  0  0  0  0
    2.2085    1.1836    0.1606 C   0  0  0  0  0  0  0  0  0  0  0  0
    1.6255    0.0523   -0.2972 C   0  0  0  0  0  0  0  0  0  0  0  0
    0.2667   -0.0963   -0.5497 N   0  0  0  0  0  0  0  0  0  0  0  0
   -0.7485    0.8732   -0.3847 C   0  0  0  0  0  0  0  0  0  0  0  0
   -0.5976    2.1249    0.0475 N   0  0  0  0  0  0  0  0  0  0  0  0
   -1.5696    3.0148    0.1930 C   0  0  0  0  0  0  0  0  0  0  0  0
   -2.8553    2.6370   -0.1234 C   0  0  0  0  0  0  0  0  0  0  0  0
   -4.1874    3.7633    0.0449 Cl  0  0  0  0  0  0  0  0  0  0  0  0
   -3.1059    1.3214   -0.5915 C   0  0  0  0  0  0  0  0  0  0  0  0
   -4.4442    0.9705   -0.8839 N   0  0  0  0  0  0  0  0  0  0  0  0
   -4.8563   -0.2771   -1.3763 C   0  0  0  0  0  0  0  0  0  0  0  0
   -4.0250   -1.2445   -1.8945 C   0  0  0  0  0  0  0  0  0  0  0  0
   -4.4990   -2.4531   -2.4340 C   0  0  0  0  0  0  0  0  0  0  0  0
   -5.8636   -2.6532   -2.4324 C   0  0  0  0  0  0  0  0  0  0  0  0
   -6.7143   -1.7053   -1.9218 C   0  0  0  0  0  0  0  0  0  0  0  0
   -6.2437   -0.5196   -1.3917 C   0  0  0  0  0  0  0  0  0  0  0  0
   -7.3164    0.6608   -0.6987 S   0  0  0  0  0  0  0  0  0  0  0  0
   -7.3933    1.9371   -1.4847 O   0  0  0  0  0  0  0  0  0  0  0  0
   -8.7283    0.0574   -0.8397 O   0  0  0  0  0  0  0  0  0  0  0  0
   -7.0890    0.8939    1.0249 C   0  0  0  0  0  0  0  0  0  0  0  0
   -7.3480   -0.4235    1.7701 C   0  0  0  0  0  0  0  0  0  0  0  0
   -8.1301    1.8608    1.6013 C   0  0  0  0  0  0  0  0  0  0  0  0
   -2.0417    0.5457   -0.6857 N   0  0  0  0  0  0  0  0  0  0  0  0
    5.8136    0.2932    0.3958 N   0  0  0  0  0  0  0  0  0  0  0  0
    6.4498    1.3219    1.2076 C   0  0  0  0  0  0  0  0  0  0  0  0
    7.4716    0.7173    2.1500 C   0  0  0  0  0  0  0  0  0  0  0  0
    8.2281   -0.3570    1.5914 N   0  0  0  0  0  0  0  0  0  0  0  0
    9.2895    0.0606    0.7233 C   0  0  0  0  0  0  0  0  0  0  0  0
    7.3758   -1.3808    0.9847 C   0  0  0  0  0  0  0  0  0  0  0  0
    6.7127   -0.6643   -0.2033 C   0  0  0  0  0  0  0  0  0  0  0  0
    2.1978   -4.1742   -1.5940 H   0  0  0  0  0  0  0  0  0  0  0  0
    3.3465   -3.6080   -0.3147 H   0  0  0  0  0  0  0  0  0  0  0  0
    3.5586   -2.9887   -1.9679 H   0  0  0  0  0  0  0  0  0  0  0  0
    4.4382   -1.8245   -0.4810 H   0  0  0  0  0  0  0  0  0  0  0  0
    4.0232    2.2148    0.7675 H   0  0  0  0  0  0  0  0  0  0  0  0
    1.6829    2.0994    0.3817 H   0  0  0  0  0  0  0  0  0  0  0  0
   -0.0953   -1.0472   -0.9152 H   0  0  0  0  0  0  0  0  0  0  0  0
   -1.3686    4.0319    0.5559 H   0  0  0  0  0  0  0  0  0  0  0  0
   -5.1553    1.7451   -0.7241 H   0  0  0  0  0  0  0  0  0  0  0  0
   -2.9519   -1.1300   -1.9331 H   0  0  0  0  0  0  0  0  0  0  0  0
   -3.8051   -3.1751   -2.8254 H   0  0  0  0  0  0  0  0  0  0  0  0
   -6.2117   -3.5899   -2.8525 H   0  0  0  0  0  0  0  0  0  0  0  0
   -7.7729   -1.8830   -1.9315 H   0  0  0  0  0  0  0  0  0  0  0  0
   -6.0945    1.2164    1.2893 H   0  0  0  0  0  0  0  0  0  0  0  0
   -7.0459   -0.2515    2.8164 H   0  0  0  0  0  0  0  0  0  0  0  0
   -6.7761   -1.2538    1.3513 H   0  0  0  0  0  0  0  0  0  0  0  0
   -8.4409   -0.6809    1.6975 H   0  0  0  0  0  0  0  0  0  0  0  0
   -8.1469    1.6683    2.6953 H   0  0  0  0  0  0  0  0  0  0  0  0
   -7.8558    2.8834    1.3399 H   0  0  0  0  0  0  0  0  0  0  0  0
   -9.1318    1.5480    1.2224 H   0  0  0  0  0  0  0  0  0  0  0  0
    5.6986    1.8496    1.8178 H   0  0  0  0  0  0  0  0  0  0  0  0
    6.9306    2.0340    0.5190 H   0  0  0  0  0  0  0  0  0  0  0  0
    6.9661    0.3984    3.0955 H   0  0  0  0  0  0  0  0  0  0  0  0
    8.1853    1.5113    2.4512 H   0  0  0  0  0  0  0  0  0  0  0  0
    9.0845    1.0803    0.3255 H   0  0  0  0  0  0  0  0  0  0  0  0
   10.2479    0.0559    1.3173 H   0  0  0  0  0  0  0  0  0  0  0  0
    9.3924   -0.6645   -0.1011 H   0  0  0  0  0  0  0  0  0  0  0  0
    6.5706   -1.6106    1.6897 H   0  0  0  0  0  0  0  0  0  0  0  0
    7.9791   -2.2304    0.6689 H   0  0  0  0  0  0  0  0  0  0  0  0
    6.2815   -1.3420   -0.9293 H   0  0  0  0  0  0  0  0  0  0  0  0
    7.5281   -0.0532   -0.6714 H   0  0  0  0  0  0  0  0  0  0  0  0
  1  2  1  0
  2  3  1  0
  3  4  2  0
  4  5  1  0
  5  6  2  0
  6  7  1  0
  7  8  2  0
  8  9  1  0
  9 10  1  0
 10 11  2  0
 11 12  1  0
 12 13  2  0
 13 14  1  0
 13 15  1  0
 15 16  1  0
 16 17  1  0
 17 18  2  0
 18 19  1  0
 19 20  2  0
 20 21  1  0
 21 22  2  0
 22 23  1  0
 23 24  2  0
 23 25  2  0
 23 26  1  0
 26 27  1  0
 26 28  1  0
 15 29  2  0
  5 30  1  0
 30 31  1  0
 31 32  1  0
 32 33  1  0
 33 34  1  0
 33 35  1  0
 35 36  1  0
  8  3  1  0
 29 10  1  0
 36 30  1  0
 22 17  1  0
  1 37  1  0
  1 38  1  0
  1 39  1  0
  4 40  1  0
  6 41  1  0
  7 42  1  0
  9 43  1  0
 12 44  1  0
 16 45  1  0
 18 46  1  0
 19 47  1  0
 20 48  1  0
 21 49  1  0
 26 50  1  0
 27 51  1  0
 27 52  1  0
 27 53  1  0
 28 54  1  0
 28 55  1  0
 28 56  1  0
 31 57  1  0
 31 58  1  0
 32 59  1  0
 32 60  1  0
 34 61  1  0
 34 62  1  0
 34 63  1  0
 35 64  1  0
 35 65  1  0
 36 66  1  0
 36 67  1  0
M  END
$$$$
[H]C([H])([H])C([H])([H])[C@@]1([H])[C]2[C@](C([H])([H])[H])(C([H])([H])C([H])([H])C(=O)C([H])([H])[C@]([H])(C([H])([H])[H])[C@]2([H])C([H])([H])[H])[C@@]2([H])C([H])([H])C([H])([H])[C@]3(C([H])([H])[H])[C@@]([H])(C([H])([H])[H])C([H])([H])C([H])([H])C([H])([H])[C@@]3([H])[C@]2([H])C1([H])[H]
     RDKit          3D

 73 76  0  0  0  0  0  0  0  0999 V2000
   -2.3345   -3.1381    1.1555 C   0  0  0  0  0  0  0  0  0  0  0  0
   -1.0892   -2.6679    0.4943 C   0  0  0  0  0  0  0  0  0  0  0  0
   -1.2218   -1.5694   -0.5109 C   0  0  2  0  0  0  0  0  0  0  0  0
    0.2108   -1.2929   -1.0263 C   0  0  0  0  0  0  0  0  0  0  0  0
    1.0164   -0.6111   -0.0156 C   0  0  1  0  0  0  0  0  0  0  0  0
    2.3344   -0.1991   -0.6976 C   0  0  2  0  0  0  0  0  0  0  0  0
    2.9188   -1.2741   -1.5361 C   0  0  0  0  0  0  0  0  0  0  0  0
    4.0677   -0.6673   -2.3177 C   0  0  0  0  0  0  0  0  0  0  0  0
    4.3386    0.7600   -1.9233 C   0  0  0  0  0  0  0  0  0  0  0  0
    4.5082    0.8926   -0.4438 C   0  0  2  0  0  0  0  0  0  0  0  0
    5.7504    0.1451   -0.0417 C   0  0  0  0  0  0  0  0  0  0  0  0
    3.2670    0.4207    0.2868 C   0  0  2  0  0  0  0  0  0  0  0  0
    3.7021   -0.4640    1.3969 C   0  0  0  0  0  0  0  0  0  0  0  0
    2.5479    1.6780    0.7977 C   0  0  0  0  0  0  0  0  0  0  0  0
    1.2275    1.2471    1.4634 C   0  0  0  0  0  0  0  0  0  0  0  0
    0.3691    0.6570    0.3833 C   0  0  2  0  0  0  0  0  0  0  0  0
   -1.1114    0.6100    0.7173 C   0  0  1  0  0  0  0  0  0  0  0  0
   -1.1252    0.3148    2.2203 C   0  0  0  0  0  0  0  0  0  0  0  0
   -1.5232    2.0630    0.6150 C   0  0  0  0  0  0  0  0  0  0  0  0
   -2.6110    2.4971    1.5114 C   0  0  0  0  0  0  0  0  0  0  0  0
   -3.7318    1.5865    1.7038 C   0  0  0  0  0  0  0  0  0  0  0  0
   -4.1897    1.6287    2.8158 O   0  0  0  0  0  0  0  0  0  0  0  0
   -4.4840    0.5953    0.8838 C   0  0  0  0  0  0  0  0  0  0  0  0
   -4.1075    0.8590   -0.5598 C   0  0  2  0  0  0  0  0  0  0  0  0
   -5.3789    0.6437   -1.3465 C   0  0  0  0  0  0  0  0  0  0  0  0
   -2.9134    0.1077   -1.0322 C   0  0  2  0  0  0  0  0  0  0  0  0
   -3.3744   -0.9760   -1.9530 C   0  0  0  0  0  0  0  0  0  0  0  0
   -1.9121   -0.3328   -0.0824 C   0  0  0  0  0  3  0  0  0  0  0  0
   -2.5472   -4.2322    0.9594 H   0  0  0  0  0  0  0  0  0  0  0  0
   -2.2938   -3.0746    2.2715 H   0  0  0  0  0  0  0  0  0  0  0  0
   -3.2651   -2.6261    0.7706 H   0  0  0  0  0  0  0  0  0  0  0  0
   -0.3830   -2.3942    1.3074 H   0  0  0  0  0  0  0  0  0  0  0  0
   -0.6223   -3.5554    0.0107 H   0  0  0  0  0  0  0  0  0  0  0  0
   -1.5892   -2.0581   -1.4351 H   0  0  0  0  0  0  0  0  0  0  0  0
    0.6133   -2.3383   -1.1840 H   0  0  0  0  0  0  0  0  0  0  0  0
    0.1725   -0.7212   -1.9554 H   0  0  0  0  0  0  0  0  0  0  0  0
    1.2257   -1.2695    0.8493 H   0  0  0  0  0  0  0  0  0  0  0  0
    2.0189    0.6281   -1.4023 H   0  0  0  0  0  0  0  0  0  0  0  0
    3.2464   -2.1599   -0.9592 H   0  0  0  0  0  0  0  0  0  0  0  0
    2.1803   -1.6114   -2.2643 H   0  0  0  0  0  0  0  0  0  0  0  0
    4.9976   -1.2780   -2.2415 H   0  0  0  0  0  0  0  0  0  0  0  0
    3.8467   -0.6416   -3.4258 H   0  0  0  0  0  0  0  0  0  0  0  0
    3.6195    1.4701   -2.3442 H   0  0  0  0  0  0  0  0  0  0  0  0
    5.3327    1.0243   -2.3858 H   0  0  0  0  0  0  0  0  0  0  0  0
    4.7104    1.9718   -0.2264 H   0  0  0  0  0  0  0  0  0  0  0  0
    6.6062    0.7075   -0.5183 H   0  0  0  0  0  0  0  0  0  0  0  0
    5.9572    0.1436    1.0279 H   0  0  0  0  0  0  0  0  0  0  0  0
    5.8152   -0.8731   -0.4188 H   0  0  0  0  0  0  0  0  0  0  0  0
    4.2490    0.1538    2.1381 H   0  0  0  0  0  0  0  0  0  0  0  0
    2.9182   -0.9912    1.9416 H   0  0  0  0  0  0  0  0  0  0  0  0
    4.3743   -1.2396    0.9754 H   0  0  0  0  0  0  0  0  0  0  0  0
    3.1950    2.0828    1.5970 H   0  0  0  0  0  0  0  0  0  0  0  0
    2.3798    2.3576   -0.0354 H   0  0  0  0  0  0  0  0  0  0  0  0
    1.5766    0.5142    2.2190 H   0  0  0  0  0  0  0  0  0  0  0  0
    0.8468    2.1047    1.9940 H   0  0  0  0  0  0  0  0  0  0  0  0
    0.4930    1.3500   -0.5061 H   0  0  0  0  0  0  0  0  0  0  0  0
   -1.9845   -0.2516    2.5593 H   0  0  0  0  0  0  0  0  0  0  0  0
   -1.0162    1.2235    2.8262 H   0  0  0  0  0  0  0  0  0  0  0  0
   -0.2400   -0.3280    2.5049 H   0  0  0  0  0  0  0  0  0  0  0  0
   -0.6831    2.7664    0.8719 H   0  0  0  0  0  0  0  0  0  0  0  0
   -1.6439    2.2773   -0.4669 H   0  0  0  0  0  0  0  0  0  0  0  0
   -3.0351    3.4446    1.0589 H   0  0  0  0  0  0  0  0  0  0  0  0
   -2.2364    2.8185    2.5043 H   0  0  0  0  0  0  0  0  0  0  0  0
   -5.5810    0.6668    1.0612 H   0  0  0  0  0  0  0  0  0  0  0  0
   -4.1966   -0.4441    1.1204 H   0  0  0  0  0  0  0  0  0  0  0  0
   -3.9929    1.9858   -0.6344 H   0  0  0  0  0  0  0  0  0  0  0  0
   -6.2161    1.2952   -0.9467 H   0  0  0  0  0  0  0  0  0  0  0  0
   -5.3017    0.9778   -2.4062 H   0  0  0  0  0  0  0  0  0  0  0  0
   -5.8038   -0.3779   -1.2272 H   0  0  0  0  0  0  0  0  0  0  0  0
   -2.3826    0.8555   -1.7174 H   0  0  0  0  0  0  0  0  0  0  0  0
   -3.5732   -1.9498   -1.5084 H   0  0  0  0  0  0  0  0  0  0  0  0
   -4.3054   -0.7691   -2.5171 H   0  0  0  0  0  0  0  0  0  0  0  0
   -2.6327   -1.1484   -2.8007 H   0  0  0  0  0  0  0  0  0  0  0  0
  1  2  1  0
  2  3  1  0
  3  4  1  0
  4  5  1  0
  5  6  1  0
  6  7  1  0
  7  8  1  0
  8  9  1  0
  9 10  1  0
 10 11  1  0
 10 12  1  0
 12 13  1  1
 12 14  1  0
 14 15  1  0
 15 16  1  0
 16 17  1  0
 17 18  1  1
 17 19  1  0
 19 20  1  0
 20 21  1  0
 21 22  2  0
 21 23  1  0
 23 24  1  0
 24 25  1  0
 24 26  1  0
 26 27  1  0
 26 28  1  0
 28  3  1  0
 16  5  1  0
 28 17  1  0
 12  6  1  0
  1 29  1  0
  1 30  1  0
  1 31  1  0
  2 32  1  0
  2 33  1  0
  3 34  1  6
  4 35  1  0
  4 36  1  0
  5 37  1  1
  6 38  1  6
  7 39  1  0
  7 40  1  0
  8 41  1  0
  8 42  1  0
  9 43  1  0
  9 44  1  0
 10 45  1  6
 11 46  1  0
 11 47  1  0
 11 48  1  0
 13 49  1  0
 13 50  1  0
 13 51  1  0
 14 52  1  0
 14 53  1  0
 15 54  1  0
 15 55  1  0
 16 56  1  6
 18 57  1  0
 18 58  1  0
 18 59  1  0
 19 60  1  0
 19 61  1  0
 20 62  1  0
 20 63  1  0
 23 64  1  0
 23 65  1  0
 24 66  1  1
 25 67  1  0
 25 68  1  0
 25 69  1  0
 26 70  1  6
 27 71  1  0
 27 72  1  0
 27 73  1  0
M  RAD  1  28   2
M  END
$$$$
[H]c1nc(N([H])c2c([H])c([H])c(C(=O)N3C([H])([H])C([H])([H])N(C([H])([H])[H])C([H])([H])C3([H])[H])c([H])c2OC([H])([H])[H])nc2c1N(C([H])([H])[H])C(=O)[C@@]([H])(C([H])([H])[H])N2C1([H])C([H])([H])C([H])([H])C([H])([H])C1([H])[H]
     RDKit          3D

 71 75  0  0  0  0  0  0  0  0999 V2000
    1.7894   -3.7072    2.4448 C   0  0  0  0  0  0  0  0  0  0  0  0
    1.0168   -2.7545    1.7625 O   0  0  0  0  0  0  0  0  0  0  0  0
    1.6377   -1.7299    1.0422 C   0  0  0  0  0  0  0  0  0  0  0  0
    2.9919   -1.6337    0.9869 C   0  0  0  0  0  0  0  0  0  0  0  0
    3.6650   -0.6190    0.2737 C   0  0  0  0  0  0  0  0  0  0  0  0
    2.8753    0.2874   -0.3769 C   0  0  0  0  0  0  0  0  0  0  0  0
    1.4865    0.1796   -0.3136 C   0  0  0  0  0  0  0  0  0  0  0  0
    0.8279   -0.7957    0.3717 C   0  0  0  0  0  0  0  0  0  0  0  0
   -0.5610   -0.9313    0.4632 N   0  0  0  0  0  0  0  0  0  0  0  0
   -1.5681   -0.1539   -0.1344 C   0  0  0  0  0  0  0  0  0  0  0  0
   -1.3359    0.8923   -0.9330 N   0  0  0  0  0  0  0  0  0  0  0  0
   -2.2610    1.6618   -1.5232 C   0  0  0  0  0  0  0  0  0  0  0  0
   -3.5773    1.3036   -1.2527 C   0  0  0  0  0  0  0  0  0  0  0  0
   -4.6665    2.0179   -1.8045 N   0  0  0  0  0  0  0  0  0  0  0  0
   -4.4854    3.1621   -2.6835 C   0  0  0  0  0  0  0  0  0  0  0  0
   -5.9928    1.5740   -1.4709 C   0  0  0  0  0  0  0  0  0  0  0  0
   -6.9545    2.3505   -1.5035 O   0  0  0  0  0  0  0  0  0  0  0  0
   -6.2158    0.1396   -1.0760 C   0  0  1  0  0  0  0  0  0  0  0  0
   -5.9653   -0.6821   -2.3439 C   0  0  0  0  0  0  0  0  0  0  0  0
   -5.1802   -0.1828   -0.1108 N   0  0  0  0  0  0  0  0  0  0  0  0
   -5.5790   -0.8677    1.0596 C   0  0  0  0  0  0  0  0  0  0  0  0
   -4.5661   -1.2481    2.0520 C   0  0  0  0  0  0  0  0  0  0  0  0
   -5.4504   -1.7452    3.2120 C   0  0  0  0  0  0  0  0  0  0  0  0
   -6.7462   -0.9701    3.0881 C   0  0  0  0  0  0  0  0  0  0  0  0
   -6.5546   -0.0365    1.9109 C   0  0  0  0  0  0  0  0  0  0  0  0
   -3.8385    0.2292   -0.4316 C   0  0  0  0  0  0  0  0  0  0  0  0
   -2.8789   -0.4993    0.1270 N   0  0  0  0  0  0  0  0  0  0  0  0
    5.1011   -0.6151    0.2732 C   0  0  0  0  0  0  0  0  0  0  0  0
    5.6671   -1.6011    0.9156 O   0  0  0  0  0  0  0  0  0  0  0  0
    6.0043    0.2662   -0.2985 N   0  0  0  0  0  0  0  0  0  0  0  0
    5.7890    1.4617   -1.0659 C   0  0  0  0  0  0  0  0  0  0  0  0
    7.1338    2.1476   -1.3101 C   0  0  0  0  0  0  0  0  0  0  0  0
    8.0618    1.3078   -2.0296 N   0  0  0  0  0  0  0  0  0  0  0  0
    9.4065    1.8333   -1.7673 C   0  0  0  0  0  0  0  0  0  0  0  0
    8.0444   -0.0545   -1.5108 C   0  0  0  0  0  0  0  0  0  0  0  0
    7.4685   -0.0339   -0.1204 C   0  0  0  0  0  0  0  0  0  0  0  0
    1.0946   -4.4522    2.8979 H   0  0  0  0  0  0  0  0  0  0  0  0
    2.3478   -3.1800    3.2527 H   0  0  0  0  0  0  0  0  0  0  0  0
    2.4753   -4.2774    1.7945 H   0  0  0  0  0  0  0  0  0  0  0  0
    3.6116   -2.3638    1.5119 H   0  0  0  0  0  0  0  0  0  0  0  0
    3.2954    1.0879   -0.9463 H   0  0  0  0  0  0  0  0  0  0  0  0
    0.9636    0.9481   -0.8607 H   0  0  0  0  0  0  0  0  0  0  0  0
   -0.9220   -1.7357    1.0698 H   0  0  0  0  0  0  0  0  0  0  0  0
   -2.0834    2.4964   -2.1600 H   0  0  0  0  0  0  0  0  0  0  0  0
   -5.4019    3.7811   -2.6011 H   0  0  0  0  0  0  0  0  0  0  0  0
   -3.6332    3.7986   -2.4018 H   0  0  0  0  0  0  0  0  0  0  0  0
   -4.4336    2.8080   -3.7343 H   0  0  0  0  0  0  0  0  0  0  0  0
   -7.2264    0.0115   -0.6944 H   0  0  0  0  0  0  0  0  0  0  0  0
   -6.2598   -0.0888   -3.2340 H   0  0  0  0  0  0  0  0  0  0  0  0
   -4.9127   -0.9928   -2.4251 H   0  0  0  0  0  0  0  0  0  0  0  0
   -6.6317   -1.5906   -2.3565 H   0  0  0  0  0  0  0  0  0  0  0  0
   -6.1679   -1.7825    0.7880 H   0  0  0  0  0  0  0  0  0  0  0  0
   -3.9611   -2.1428    1.7917 H   0  0  0  0  0  0  0  0  0  0  0  0
   -3.9824   -0.4218    2.4826 H   0  0  0  0  0  0  0  0  0  0  0  0
   -5.0004   -1.5309    4.1870 H   0  0  0  0  0  0  0  0  0  0  0  0
   -5.6843   -2.8372    3.0707 H   0  0  0  0  0  0  0  0  0  0  0  0
   -6.9877   -0.4350    4.0295 H   0  0  0  0  0  0  0  0  0  0  0  0
   -7.6003   -1.6515    2.8110 H   0  0  0  0  0  0  0  0  0  0  0  0
   -7.4863    0.1632    1.3555 H   0  0  0  0  0  0  0  0  0  0  0  0
   -6.0086    0.8837    2.1874 H   0  0  0  0  0  0  0  0  0  0  0  0
    5.3008    1.3012   -2.0460 H   0  0  0  0  0  0  0  0  0  0  0  0
    5.2188    2.2263   -0.4670 H   0  0  0  0  0  0  0  0  0  0  0  0
    6.9119    3.0361   -1.9631 H   0  0  0  0  0  0  0  0  0  0  0  0
    7.5039    2.5485   -0.3709 H   0  0  0  0  0  0  0  0  0  0  0  0
    9.5747    2.7083   -2.4191 H   0  0  0  0  0  0  0  0  0  0  0  0
    9.4326    2.0864   -0.6859 H   0  0  0  0  0  0  0  0  0  0  0  0
   10.1671    1.0301   -1.9362 H   0  0  0  0  0  0  0  0  0  0  0  0
    9.0491   -0.5015   -1.5174 H   0  0  0  0  0  0  0  0  0  0  0  0
    7.3627   -0.6318   -2.1719 H   0  0  0  0  0  0  0  0  0  0  0  0
    7.5908   -1.0192    0.3605 H   0  0  0  0  0  0  0  0  0  0  0  0
    7.8932    0.7670    0.4733 H   0  0  0  0  0  0  0  0  0  0  0  0
  1  2  1  0
  2  3  1  0
  3  4  2  0
  4  5  1  0
  5  6  2  0
  6  7  1  0
  7  8  2  0
  8  9  1  0
  9 10  1  0
 10 11  2  0
 11 12  1  0
 12 13  2  0
 13 14  1  0
 14 15  1  0
 14 16  1  0
 16 17  2  0
 16 18  1  0
 18 19  1  0
 18 20  1  0
 20 21  1  0
 21 22  1  0
 22 23  1  0
 23 24  1  0
 24 25  1  0
 20 26  1  0
 26 27  2  0
  5 28  1  0
 28 29  2  0
 28 30  1  0
 30 31  1  0
 31 32  1  0
 32 33  1  0
 33 34  1  0
 33 35  1  0
 35 36  1  0
  8  3  1  0
 27 10  1  0
 36 30  1  0
 26 13  1  0
 25 21  1  0
  1 37  1  0
  1 38  1  0
  1 39  1  0
  4 40  1  0
  6 41  1  0
  7 42  1  0
  9 43  1  0
 12 44  1  0
 15 45  1  0
 15 46  1  0
 15 47  1  0
 18 48  1  1
 19 49  1  0
 19 50  1  0
 19 51  1  0
 21 52  1  0
 22 53  1  0
 22 54  1  0
 23 55  1  0
 23 56  1  0
 24 57  1  0
 24 58  1  0
 25 59  1  0
 25 60  1  0
 31 61  1  0
 31 62  1  0
 32 63  1  0
 32 64  1  0
 34 65  1  0
 34 66  1  0
 34 67  1  0
 35 68  1  0
 35 69  1  0
 36 70  1  0
 36 71  1  0
M  END
$$$$
[H]c1c([H])c([H])c2c(c1[H])c(C(=O)OC1([H])C([H])([H])C3([H])N(C([H])([H])[H])C([H])(C([H])([H])C3([H])[H])C1([H])[H])c([H])n2C([H])([H])[H]
     RDKit          3D

 44 47  0  0  0  0  0  0  0  0999 V2000
   -5.4970   -0.4475   -0.0240 C   0  0  0  0  0  0  0  0  0  0  0  0
   -4.0838   -0.5354    0.1557 N   0  0  0  0  0  0  0  0  0  0  0  0
   -3.3767   -0.3601   -1.0998 C   0  0  0  0  0  0  0  0  0  0  0  0
   -3.2702    1.1285   -1.3340 C   0  0  0  0  0  0  0  0  0  0  0  0
   -3.8161    1.7373   -0.0430 C   0  0  0  0  0  0  0  0  0  0  0  0
   -3.5825    0.5909    0.9243 C   0  0  0  0  0  0  0  0  0  0  0  0
   -2.1069    0.4797    1.1664 C   0  0  0  0  0  0  0  0  0  0  0  0
   -1.4520   -0.6739    0.4769 C   0  0  0  0  0  0  0  0  0  0  0  0
   -1.9973   -0.9845   -0.8779 C   0  0  0  0  0  0  0  0  0  0  0  0
   -0.0593   -0.4450    0.3491 O   0  0  0  0  0  0  0  0  0  0  0  0
    0.9061   -1.2225    0.9248 C   0  0  0  0  0  0  0  0  0  0  0  0
    0.5344   -2.2067    1.6141 O   0  0  0  0  0  0  0  0  0  0  0  0
    2.3337   -0.9560    0.7712 C   0  0  0  0  0  0  0  0  0  0  0  0
    3.3668   -1.6889    1.3170 C   0  0  0  0  0  0  0  0  0  0  0  0
    4.5423   -1.1582    0.9696 N   0  0  0  0  0  0  0  0  0  0  0  0
    5.8322   -1.6796    1.3717 C   0  0  0  0  0  0  0  0  0  0  0  0
    4.3275   -0.0679    0.1904 C   0  0  0  0  0  0  0  0  0  0  0  0
    5.1679    0.8342   -0.4289 C   0  0  0  0  0  0  0  0  0  0  0  0
    4.6816    1.8814   -1.1842 C   0  0  0  0  0  0  0  0  0  0  0  0
    3.3143    2.0102   -1.3096 C   0  0  0  0  0  0  0  0  0  0  0  0
    2.4727    1.0936   -0.6800 C   0  0  0  0  0  0  0  0  0  0  0  0
    2.9475    0.0581    0.0667 C   0  0  0  0  0  0  0  0  0  0  0  0
   -5.9265   -1.4595    0.2226 H   0  0  0  0  0  0  0  0  0  0  0  0
   -5.7931   -0.2607   -1.0849 H   0  0  0  0  0  0  0  0  0  0  0  0
   -5.9915    0.2612    0.6773 H   0  0  0  0  0  0  0  0  0  0  0  0
   -3.8696   -0.8711   -1.9462 H   0  0  0  0  0  0  0  0  0  0  0  0
   -2.2379    1.4775   -1.4413 H   0  0  0  0  0  0  0  0  0  0  0  0
   -3.8839    1.4831   -2.1777 H   0  0  0  0  0  0  0  0  0  0  0  0
   -4.9026    1.9482   -0.1627 H   0  0  0  0  0  0  0  0  0  0  0  0
   -3.2362    2.6050    0.2795 H   0  0  0  0  0  0  0  0  0  0  0  0
   -4.1859    0.6668    1.8358 H   0  0  0  0  0  0  0  0  0  0  0  0
   -1.9645    0.3777    2.2668 H   0  0  0  0  0  0  0  0  0  0  0  0
   -1.5989    1.4237    0.8746 H   0  0  0  0  0  0  0  0  0  0  0  0
   -1.6311   -1.5830    1.1177 H   0  0  0  0  0  0  0  0  0  0  0  0
   -1.3170   -0.6297   -1.7041 H   0  0  0  0  0  0  0  0  0  0  0  0
   -2.1301   -2.0731   -1.0716 H   0  0  0  0  0  0  0  0  0  0  0  0
    3.2067   -2.5649    1.9348 H   0  0  0  0  0  0  0  0  0  0  0  0
    5.8093   -1.7502    2.4831 H   0  0  0  0  0  0  0  0  0  0  0  0
    6.6651   -1.0655    1.0302 H   0  0  0  0  0  0  0  0  0  0  0  0
    5.8754   -2.7313    1.0067 H   0  0  0  0  0  0  0  0  0  0  0  0
    6.2422    0.7497   -0.3422 H   0  0  0  0  0  0  0  0  0  0  0  0
    5.3658    2.5862   -1.6674 H   0  0  0  0  0  0  0  0  0  0  0  0
    2.9273    2.8295   -1.9007 H   0  0  0  0  0  0  0  0  0  0  0  0
    1.3917    1.1926   -0.7772 H   0  0  0  0  0  0  0  0  0  0  0  0
  1  2  1  0
  2  3  1  0
  3  4  1  0
  4  5  1  0
  5  6  1  0
  6  7  1  0
  7  8  1  0
  8  9  1  0
  8 10  1  0
 10 11  1  0
 11 12  2  0
 11 13  1  0
 13 14  2  0
 14 15  1  0
 15 16  1  0
 15 17  1  0
 17 18  2  0
 18 19  1  0
 19 20  2  0
 20 21  1  0
 21 22  2  0
  6  2  1  0
 22 13  1  0
  9  3  1  0
 22 17  1  0
  1 23  1  0
  1 24  1  0
  1 25  1  0
  3 26  1  0
  4 27  1  0
  4 28  1  0
  5 29  1  0
  5 30  1  0
  6 31  1  0
  7 32  1  0
  7 33  1  0
  8 34  1  0
  9 35  1  0
  9 36  1  0
 14 37  1  0
 16 38  1  0
 16 39  1  0
 16 40  1  0
 18 41  1  0
 19 42  1  0
 20 43  1  0
 21 44  1  0
M  END
$$$$
[H]c1c([H])c(C2=C(c3c([H])n(C([H])([H])[H])c4c([H])c([H])c([H])c([H])c34)C(=O)N([H])C2=O)c([H])c(C(F)(F)F)c1[H]
     RDKit          3D

 40 43  0  0  0  0  0  0  0  0999 V2000
   -4.2414    2.3438    0.4544 C   0  0  0  0  0  0  0  0  0  0  0  0
   -3.1190    1.3904    0.3842 N   0  0  0  0  0  0  0  0  0  0  0  0
   -2.1903    1.1177    1.3093 C   0  0  0  0  0  0  0  0  0  0  0  0
   -1.3697    0.0905    0.8880 C   0  0  0  0  0  0  0  0  0  0  0  0
   -0.2743   -0.5209    1.6644 C   0  0  0  0  0  0  0  0  0  0  0  0
    0.9144   -0.8976    1.3706 C   0  0  0  0  0  0  0  0  0  0  0  0
    1.5957   -1.4691    2.6038 C   0  0  0  0  0  0  0  0  0  0  0  0
    2.7709   -1.9259    2.5766 O   0  0  0  0  0  0  0  0  0  0  0  0
    0.7009   -1.3848    3.6603 N   0  0  0  0  0  0  0  0  0  0  0  0
   -0.4737   -0.8037    3.1244 C   0  0  0  0  0  0  0  0  0  0  0  0
   -1.4897   -0.5804    3.8164 O   0  0  0  0  0  0  0  0  0  0  0  0
    1.8268   -0.7123    0.2190 C   0  0  0  0  0  0  0  0  0  0  0  0
    2.2643   -1.7665   -0.5036 C   0  0  0  0  0  0  0  0  0  0  0  0
    3.3674   -1.6677   -1.3682 C   0  0  0  0  0  0  0  0  0  0  0  0
    4.0000   -0.4583   -1.4673 C   0  0  0  0  0  0  0  0  0  0  0  0
    3.5728    0.6355   -0.7564 C   0  0  0  0  0  0  0  0  0  0  0  0
    2.4838    0.5105    0.0855 C   0  0  0  0  0  0  0  0  0  0  0  0
    4.3277    1.9346   -0.7815 C   0  0  0  0  0  0  0  0  0  0  0  0
    4.3135    2.3774    0.5650 F   0  0  0  0  0  0  0  0  0  0  0  0
    3.7308    2.8208   -1.6053 F   0  0  0  0  0  0  0  0  0  0  0  0
    5.6488    1.6413   -1.0715 F   0  0  0  0  0  0  0  0  0  0  0  0
   -1.8239   -0.2730   -0.3599 C   0  0  0  0  0  0  0  0  0  0  0  0
   -1.4750   -1.2161   -1.2999 C   0  0  0  0  0  0  0  0  0  0  0  0
   -2.1615   -1.3281   -2.4844 C   0  0  0  0  0  0  0  0  0  0  0  0
   -3.2146   -0.5275   -2.7948 C   0  0  0  0  0  0  0  0  0  0  0  0
   -3.5705    0.4174   -1.8403 C   0  0  0  0  0  0  0  0  0  0  0  0
   -2.9095    0.5575   -0.6402 C   0  0  0  0  0  0  0  0  0  0  0  0
   -4.2490    2.8907    1.3891 H   0  0  0  0  0  0  0  0  0  0  0  0
   -5.1922    1.6914    0.4514 H   0  0  0  0  0  0  0  0  0  0  0  0
   -4.3382    2.9136   -0.4744 H   0  0  0  0  0  0  0  0  0  0  0  0
   -2.1572    1.6577    2.2559 H   0  0  0  0  0  0  0  0  0  0  0  0
    0.9184   -1.6983    4.6448 H   0  0  0  0  0  0  0  0  0  0  0  0
    1.7757   -2.7235   -0.4565 H   0  0  0  0  0  0  0  0  0  0  0  0
    3.7123   -2.4993   -1.9296 H   0  0  0  0  0  0  0  0  0  0  0  0
    4.8822   -0.3190   -2.1269 H   0  0  0  0  0  0  0  0  0  0  0  0
    2.1223    1.3439    0.6309 H   0  0  0  0  0  0  0  0  0  0  0  0
   -0.6573   -1.9054   -1.0877 H   0  0  0  0  0  0  0  0  0  0  0  0
   -1.8375   -2.0850   -3.1723 H   0  0  0  0  0  0  0  0  0  0  0  0
   -3.7600   -0.6249   -3.7406 H   0  0  0  0  0  0  0  0  0  0  0  0
   -4.4244    1.0526   -2.1326 H   0  0  0  0  0  0  0  0  0  0  0  0
  1  2  1  0
  2  3  1  0
  3  4  2  0
  4  5  1  0
  5  6  2  0
  6  7  1  0
  7  8  2  0
  7  9  1  0
  9 10  1  0
 10 11  2  0
  6 12  1  0
 12 13  2  0
 13 14  1  0
 14 15  2  0
 15 16  1  0
 16 17  2  0
 16 18  1  0
 18 19  1  0
 18 20  1  0
 18 21  1  0
  4 22  1  0
 22 23  2  0
 23 24  1  0
 24 25  2  0
 25 26  1  0
 26 27  2  0
 27  2  1  0
 10  5  1  0
 17 12  1  0
 27 22  1  0
  1 28  1  0
  1 29  1  0
  1 30  1  0
  3 31  1  0
  9 32  1  0
 13 33  1  0
 14 34  1  0
 15 35  1  0
 17 36  1  0
 23 37  1  0
 24 38  1  0
 25 39  1  0
 26 40  1  0
M  END
$$$$
[H]c1c(N([H])C(=O)[C@]2([H])N(C(=O)c3c([H])c([H])c([H])c(C(F)(F)F)c3[H])C([H])([H])c3c([H])c([H])c([H])c([H])c3C2([H])[H])noc1C(C([H])([H])[H])(C([H])([H])[H])C([H])([H])[H]
     RDKit          3D

 58 61  0  0  0  0  0  0  0  0999 V2000
    5.9199    2.0454    1.2424 C   0  0  0  0  0  0  0  0  0  0  0  0
    5.7951    0.7020    0.5284 C   0  0  0  0  0  0  0  0  0  0  0  0
    6.1858    0.9196   -0.9057 C   0  0  0  0  0  0  0  0  0  0  0  0
    6.7725   -0.2490    1.2183 C   0  0  0  0  0  0  0  0  0  0  0  0
    4.3977    0.2311    0.6972 C   0  0  0  0  0  0  0  0  0  0  0  0
    3.2921    0.7618    0.0805 C   0  0  0  0  0  0  0  0  0  0  0  0
    2.1635    0.0742    0.4572 C   0  0  0  0  0  0  0  0  0  0  0  0
    0.8275    0.2620    0.0141 N   0  0  0  0  0  0  0  0  0  0  0  0
   -0.2617   -0.5090    0.5393 C   0  0  0  0  0  0  0  0  0  0  0  0
   -0.0088   -1.2893    1.4643 O   0  0  0  0  0  0  0  0  0  0  0  0
   -1.5783   -0.2903   -0.1143 C   0  0  1  0  0  0  0  0  0  0  0  0
   -1.3202   -0.9105   -1.5384 C   0  0  0  0  0  0  0  0  0  0  0  0
   -1.2641   -2.3715   -1.4270 C   0  0  0  0  0  0  0  0  0  0  0  0
   -0.6409   -3.0936   -2.4738 C   0  0  0  0  0  0  0  0  0  0  0  0
   -0.5653   -4.4545   -2.4502 C   0  0  0  0  0  0  0  0  0  0  0  0
   -1.1262   -5.1291   -1.3504 C   0  0  0  0  0  0  0  0  0  0  0  0
   -1.7281   -4.4408   -0.3337 C   0  0  0  0  0  0  0  0  0  0  0  0
   -1.8015   -3.0572   -0.3634 C   0  0  0  0  0  0  0  0  0  0  0  0
   -2.4985   -2.4122    0.7594 C   0  0  0  0  0  0  0  0  0  0  0  0
   -2.6888   -0.9741    0.4268 N   0  0  0  0  0  0  0  0  0  0  0  0
   -3.9613   -0.4861    0.6354 C   0  0  0  0  0  0  0  0  0  0  0  0
   -4.8840   -1.3209    1.0674 O   0  0  0  0  0  0  0  0  0  0  0  0
   -4.4552    0.8466    0.4361 C   0  0  0  0  0  0  0  0  0  0  0  0
   -5.8241    1.0245    0.1137 C   0  0  0  0  0  0  0  0  0  0  0  0
   -6.4068    2.2559   -0.0329 C   0  0  0  0  0  0  0  0  0  0  0  0
   -5.6646    3.3973    0.1354 C   0  0  0  0  0  0  0  0  0  0  0  0
   -4.3419    3.2801    0.4507 C   0  0  0  0  0  0  0  0  0  0  0  0
   -3.7563    2.0125    0.5968 C   0  0  0  0  0  0  0  0  0  0  0  0
   -3.4522    4.4667    0.6591 C   0  0  0  0  0  0  0  0  0  0  0  0
   -2.1448    4.0445    0.7986 F   0  0  0  0  0  0  0  0  0  0  0  0
   -3.5233    5.3083   -0.4215 F   0  0  0  0  0  0  0  0  0  0  0  0
   -3.8834    5.1502    1.7802 F   0  0  0  0  0  0  0  0  0  0  0  0
    2.6364   -0.8703    1.3128 N   0  0  0  0  0  0  0  0  0  0  0  0
    3.9363   -0.7648    1.4423 O   0  0  0  0  0  0  0  0  0  0  0  0
    5.3940    2.7671    0.5549 H   0  0  0  0  0  0  0  0  0  0  0  0
    5.3670    1.9966    2.1847 H   0  0  0  0  0  0  0  0  0  0  0  0
    6.9493    2.3720    1.3468 H   0  0  0  0  0  0  0  0  0  0  0  0
    5.9628    0.0611   -1.5687 H   0  0  0  0  0  0  0  0  0  0  0  0
    5.8109    1.8892   -1.2939 H   0  0  0  0  0  0  0  0  0  0  0  0
    7.3100    1.0150   -0.9182 H   0  0  0  0  0  0  0  0  0  0  0  0
    6.5103   -1.2823    0.9081 H   0  0  0  0  0  0  0  0  0  0  0  0
    6.6316   -0.0887    2.3257 H   0  0  0  0  0  0  0  0  0  0  0  0
    7.7905    0.0243    0.9116 H   0  0  0  0  0  0  0  0  0  0  0  0
    3.3420    1.6185   -0.5960 H   0  0  0  0  0  0  0  0  0  0  0  0
    0.6562    0.9397   -0.7548 H   0  0  0  0  0  0  0  0  0  0  0  0
   -1.6754    0.7572   -0.3558 H   0  0  0  0  0  0  0  0  0  0  0  0
   -0.3572   -0.4447   -1.8212 H   0  0  0  0  0  0  0  0  0  0  0  0
   -2.1438   -0.5140   -2.1535 H   0  0  0  0  0  0  0  0  0  0  0  0
   -0.2211   -2.4992   -3.2989 H   0  0  0  0  0  0  0  0  0  0  0  0
   -0.0912   -5.0154   -3.2523 H   0  0  0  0  0  0  0  0  0  0  0  0
   -1.0397   -6.2120   -1.3963 H   0  0  0  0  0  0  0  0  0  0  0  0
   -2.1573   -4.9761    0.5098 H   0  0  0  0  0  0  0  0  0  0  0  0
   -3.4873   -2.9071    0.8701 H   0  0  0  0  0  0  0  0  0  0  0  0
   -1.9967   -2.5074    1.7288 H   0  0  0  0  0  0  0  0  0  0  0  0
   -6.4110    0.1137   -0.0227 H   0  0  0  0  0  0  0  0  0  0  0  0
   -7.4564    2.3513   -0.2740 H   0  0  0  0  0  0  0  0  0  0  0  0
   -6.1279    4.3930    0.0140 H   0  0  0  0  0  0  0  0  0  0  0  0
   -2.7061    1.9891    0.9066 H   0  0  0  0  0  0  0  0  0  0  0  0
  1  2  1  0
  2  3  1  0
  2  4  1  0
  2  5  1  0
  5  6  2  0
  6  7  1  0
  7  8  1  0
  8  9  1  0
  9 10  2  0
  9 11  1  0
 11 12  1  0
 12 13  1  0
 13 14  2  0
 14 15  1  0
 15 16  2  0
 16 17  1  0
 17 18  2  0
 18 19  1  0
 19 20  1  0
 20 21  1  0
 21 22  2  0
 21 23  1  0
 23 24  2  0
 24 25  1  0
 25 26  2  0
 26 27  1  0
 27 28  2  0
 27 29  1  0
 29 30  1  0
 29 31  1  0
 29 32  1  0
  7 33  2  0
 33 34  1  0
 34  5  1  0
 20 11  1  0
 28 23  1  0
 18 13  1  0
  1 35  1  0
  1 36  1  0
  1 37  1  0
  3 38  1  0
  3 39  1  0
  3 40  1  0
  4 41  1  0
  4 42  1  0
  4 43  1  0
  6 44  1  0
  8 45  1  0
 11 46  1  6
 12 47  1  0
 12 48  1  0
 14 49  1  0
 15 50  1  0
 16 51  1  0
 17 52  1  0
 19 53  1  0
 19 54  1  0
 24 55  1  0
 25 56  1  0
 26 57  1  0
 28 58  1  0
M  END
$$$$
[H]N=C(N([H])[H])N([H])C([H])([H])C([H])([H])C([H])([H])[C@@]1([H])C(=O)N2C([H])([H])C([H])([H])C([H])([H])[C@@]2([H])C(=O)N([H])[C@@]([H])(C([H])([H])c2c([H])c([H])c([H])c([H])c2[H])C(=O)N([H])[C@]([H])(C([H])([H])c2c([H])c([H])c([H])c([H])c2[H])C(=O)N2C([H])([H])C([H])([H])C([H])([H])[C@@]2([H])C(=O)N1[H]
     RDKit          3D

 91 95  0  0  0  0  0  0  0  0999 V2000
    6.7604    1.4236   -1.7513 N   0  0  0  0  0  0  0  0  0  0  0  0
    5.9714    0.8173   -2.7708 C   0  0  0  0  0  0  0  0  0  0  0  0
    5.6350    1.5353   -3.7820 N   0  0  0  0  0  0  0  0  0  0  0  0
    5.5497   -0.5265   -2.7159 N   0  0  0  0  0  0  0  0  0  0  0  0
    4.7842   -1.0727   -1.6187 C   0  0  0  0  0  0  0  0  0  0  0  0
    3.3781   -0.4854   -1.5863 C   0  0  0  0  0  0  0  0  0  0  0  0
    2.5915   -1.0766   -0.4436 C   0  0  0  0  0  0  0  0  0  0  0  0
    3.1528   -0.8518    0.9138 C   0  0  2  0  0  0  0  0  0  0  0  0
    2.3966   -1.4555    1.9794 N   0  0  0  0  0  0  0  0  0  0  0  0
    1.1369   -1.3564    2.4956 C   0  0  0  0  0  0  0  0  0  0  0  0
    1.1557   -0.9062    3.7487 O   0  0  0  0  0  0  0  0  0  0  0  0
   -0.2492   -1.5738    2.1577 C   0  0  2  0  0  0  0  0  0  0  0  0
   -0.6923   -2.6733    3.1926 C   0  0  0  0  0  0  0  0  0  0  0  0
   -0.1602   -3.9388    2.5697 C   0  0  0  0  0  0  0  0  0  0  0  0
    0.0565   -3.5517    1.1338 C   0  0  0  0  0  0  0  0  0  0  0  0
   -0.6671   -2.2680    0.9785 N   0  0  0  0  0  0  0  0  0  0  0  0
   -1.5627   -1.7806   -0.0292 C   0  0  0  0  0  0  0  0  0  0  0  0
   -0.9956   -1.8316   -1.2020 O   0  0  0  0  0  0  0  0  0  0  0  0
   -2.8996   -1.2688   -0.0331 C   0  0  1  0  0  0  0  0  0  0  0  0
   -3.9981   -2.0897    0.6369 C   0  0  0  0  0  0  0  0  0  0  0  0
   -4.2055   -3.4134    0.0326 C   0  0  0  0  0  0  0  0  0  0  0  0
   -5.0438   -3.5218   -1.0594 C   0  0  0  0  0  0  0  0  0  0  0  0
   -5.2903   -4.7552   -1.6678 C   0  0  0  0  0  0  0  0  0  0  0  0
   -4.6759   -5.8774   -1.1553 C   0  0  0  0  0  0  0  0  0  0  0  0
   -3.8347   -5.7947   -0.0665 C   0  0  0  0  0  0  0  0  0  0  0  0
   -3.6140   -4.5463    0.5135 C   0  0  0  0  0  0  0  0  0  0  0  0
   -3.1588    0.1355    0.0781 N   0  0  0  0  0  0  0  0  0  0  0  0
   -2.6635    1.1791    0.8550 C   0  0  0  0  0  0  0  0  0  0  0  0
   -3.3365    1.4490    1.9587 O   0  0  0  0  0  0  0  0  0  0  0  0
   -1.5112    2.0842    0.7047 C   0  0  2  0  0  0  0  0  0  0  0  0
   -1.9834    3.5044    0.5074 C   0  0  0  0  0  0  0  0  0  0  0  0
   -2.8161    3.7569   -0.6507 C   0  0  0  0  0  0  0  0  0  0  0  0
   -4.1861    3.6798   -0.5234 C   0  0  0  0  0  0  0  0  0  0  0  0
   -5.0311    3.9106   -1.6169 C   0  0  0  0  0  0  0  0  0  0  0  0
   -4.5039    4.2206   -2.8491 C   0  0  0  0  0  0  0  0  0  0  0  0
   -3.1429    4.3007   -2.9933 C   0  0  0  0  0  0  0  0  0  0  0  0
   -2.3397    4.0721   -1.9139 C   0  0  0  0  0  0  0  0  0  0  0  0
   -0.5190    1.6935   -0.2446 N   0  0  0  0  0  0  0  0  0  0  0  0
    0.8489    2.1308   -0.1643 C   0  0  0  0  0  0  0  0  0  0  0  0
    1.3085    2.4997   -1.2969 O   0  0  0  0  0  0  0  0  0  0  0  0
    1.6725    2.1744    1.0323 C   0  0  2  0  0  0  0  0  0  0  0  0
    1.8218    3.6029    1.5833 C   0  0  0  0  0  0  0  0  0  0  0  0
    3.1880    4.0852    1.2193 C   0  0  0  0  0  0  0  0  0  0  0  0
    3.7346    2.9597    0.4072 C   0  0  0  0  0  0  0  0  0  0  0  0
    3.0405    1.7566    0.9126 N   0  0  0  0  0  0  0  0  0  0  0  0
    3.6263    0.5124    1.2203 C   0  0  0  0  0  0  0  0  0  0  0  0
    4.7581    0.5540    1.8756 O   0  0  0  0  0  0  0  0  0  0  0  0
    7.6188    0.9489   -1.4059 H   0  0  0  0  0  0  0  0  0  0  0  0
    6.5039    2.3342   -1.3367 H   0  0  0  0  0  0  0  0  0  0  0  0
    5.9349    2.5184   -3.8364 H   0  0  0  0  0  0  0  0  0  0  0  0
    5.8003   -1.1598   -3.5023 H   0  0  0  0  0  0  0  0  0  0  0  0
    4.7534   -2.1801   -1.6396 H   0  0  0  0  0  0  0  0  0  0  0  0
    5.3072   -0.7987   -0.6605 H   0  0  0  0  0  0  0  0  0  0  0  0
    3.5092    0.6051   -1.5154 H   0  0  0  0  0  0  0  0  0  0  0  0
    2.8969   -0.7482   -2.5614 H   0  0  0  0  0  0  0  0  0  0  0  0
    2.6195   -2.1966   -0.6242 H   0  0  0  0  0  0  0  0  0  0  0  0
    1.5141   -0.8459   -0.5255 H   0  0  0  0  0  0  0  0  0  0  0  0
    4.1279   -1.4599    0.8128 H   0  0  0  0  0  0  0  0  0  0  0  0
    2.9901   -2.1934    2.5398 H   0  0  0  0  0  0  0  0  0  0  0  0
   -0.8023   -0.6470    2.3853 H   0  0  0  0  0  0  0  0  0  0  0  0
   -1.7834   -2.6427    3.3174 H   0  0  0  0  0  0  0  0  0  0  0  0
   -0.2171   -2.5024    4.1615 H   0  0  0  0  0  0  0  0  0  0  0  0
   -0.9305   -4.7307    2.6486 H   0  0  0  0  0  0  0  0  0  0  0  0
    0.7745   -4.2876    3.0522 H   0  0  0  0  0  0  0  0  0  0  0  0
   -0.2617   -4.3429    0.4557 H   0  0  0  0  0  0  0  0  0  0  0  0
    1.1275   -3.4457    0.9785 H   0  0  0  0  0  0  0  0  0  0  0  0
   -3.2425   -1.5211   -1.1387 H   0  0  0  0  0  0  0  0  0  0  0  0
   -4.9244   -1.5077    0.4446 H   0  0  0  0  0  0  0  0  0  0  0  0
   -3.8950   -2.1126    1.7321 H   0  0  0  0  0  0  0  0  0  0  0  0
   -5.5520   -2.6718   -1.5004 H   0  0  0  0  0  0  0  0  0  0  0  0
   -5.9479   -4.8065   -2.5167 H   0  0  0  0  0  0  0  0  0  0  0  0
   -4.8670   -6.8346   -1.6263 H   0  0  0  0  0  0  0  0  0  0  0  0
   -3.3556   -6.6568    0.3377 H   0  0  0  0  0  0  0  0  0  0  0  0
   -2.9634   -4.4645    1.3712 H   0  0  0  0  0  0  0  0  0  0  0  0
   -3.9711    0.5029   -0.5785 H   0  0  0  0  0  0  0  0  0  0  0  0
   -0.9871    2.0867    1.7040 H   0  0  0  0  0  0  0  0  0  0  0  0
   -1.1716    4.2557    0.5089 H   0  0  0  0  0  0  0  0  0  0  0  0
   -2.5842    3.7480    1.4323 H   0  0  0  0  0  0  0  0  0  0  0  0
   -4.6855    3.4458    0.4112 H   0  0  0  0  0  0  0  0  0  0  0  0
   -6.1060    3.8528   -1.5327 H   0  0  0  0  0  0  0  0  0  0  0  0
   -5.1386    4.4072   -3.7277 H   0  0  0  0  0  0  0  0  0  0  0  0
   -2.7420    4.5507   -3.9868 H   0  0  0  0  0  0  0  0  0  0  0  0
   -1.2666    4.1313   -2.0111 H   0  0  0  0  0  0  0  0  0  0  0  0
   -0.8153    1.0672   -1.0339 H   0  0  0  0  0  0  0  0  0  0  0  0
    1.1129    1.6612    1.8379 H   0  0  0  0  0  0  0  0  0  0  0  0
    1.6558    3.6294    2.6802 H   0  0  0  0  0  0  0  0  0  0  0  0
    1.0967    4.2945    1.1477 H   0  0  0  0  0  0  0  0  0  0  0  0
    3.7666    4.2551    2.1563 H   0  0  0  0  0  0  0  0  0  0  0  0
    3.1652    5.0484    0.6536 H   0  0  0  0  0  0  0  0  0  0  0  0
    4.8286    2.9241    0.5954 H   0  0  0  0  0  0  0  0  0  0  0  0
    3.6204    3.0674   -0.6765 H   0  0  0  0  0  0  0  0  0  0  0  0
  1  2  1  0
  2  3  2  3
  2  4  1  0
  4  5  1  0
  5  6  1  0
  6  7  1  0
  7  8  1  0
  8  9  1  0
  9 10  1  0
 10 11  2  0
 10 12  1  0
 12 13  1  0
 13 14  1  0
 14 15  1  0
 15 16  1  0
 16 17  1  0
 17 18  2  0
 17 19  1  0
 19 20  1  0
 20 21  1  0
 21 22  2  0
 22 23  1  0
 23 24  2  0
 24 25  1  0
 25 26  2  0
 19 27  1  0
 27 28  1  0
 28 29  2  0
 28 30  1  0
 30 31  1  0
 31 32  1  0
 32 33  2  0
 33 34  1  0
 34 35  2  0
 35 36  1  0
 36 37  2  0
 30 38  1  0
 38 39  1  0
 39 40  2  0
 39 41  1  0
 41 42  1  0
 42 43  1  0
 43 44  1  0
 44 45  1  0
 45 46  1  0
 46 47  2  0
 46  8  1  0
 16 12  1  0
 26 21  1  0
 37 32  1  0
 45 41  1  0
  1 48  1  0
  1 49  1  0
  3 50  1  0
  4 51  1  0
  5 52  1  0
  5 53  1  0
  6 54  1  0
  6 55  1  0
  7 56  1  0
  7 57  1  0
  8 58  1  6
  9 59  1  0
 12 60  1  1
 13 61  1  0
 13 62  1  0
 14 63  1  0
 14 64  1  0
 15 65  1  0
 15 66  1  0
 19 67  1  6
 20 68  1  0
 20 69  1  0
 22 70  1  0
 23 71  1  0
 24 72  1  0
 25 73  1  0
 26 74  1  0
 27 75  1  0
 30 76  1  1
 31 77  1  0
 31 78  1  0
 33 79  1  0
 34 80  1  0
 35 81  1  0
 36 82  1  0
 37 83  1  0
 38 84  1  0
 41 85  1  1
 42 86  1  0
 42 87  1  0
 43 88  1  0
 43 89  1  0
 44 90  1  0
 44 91  1  0
M  END
$$$$
[H]OC(=O)c1nc(C(=O)c2c([H])c([H])c(Br)c([H])c2[H])c2c([H])c(O[H])c(O[H])c([H])c2c1[H]
     RDKit          3D

 34 36  0  0  0  0  0  0  0  0999 V2000
   -2.7430    3.8402   -1.8466 O   0  0  0  0  0  0  0  0  0  0  0  0
   -1.5702    3.3911   -1.3111 C   0  0  0  0  0  0  0  0  0  0  0  0
   -0.5643    4.1574   -1.3874 O   0  0  0  0  0  0  0  0  0  0  0  0
   -1.3854    2.1064   -0.6619 C   0  0  0  0  0  0  0  0  0  0  0  0
   -2.4703    1.2656   -0.5730 C   0  0  0  0  0  0  0  0  0  0  0  0
   -2.3521    0.0305    0.0335 C   0  0  0  0  0  0  0  0  0  0  0  0
   -3.4613   -0.7931    0.0955 C   0  0  0  0  0  0  0  0  0  0  0  0
   -3.3935   -2.0247    0.6731 C   0  0  0  0  0  0  0  0  0  0  0  0
   -4.4926   -2.8695    0.7479 O   0  0  0  0  0  0  0  0  0  0  0  0
   -2.1905   -2.4194    1.1896 C   0  0  0  0  0  0  0  0  0  0  0  0
   -2.1014   -3.6734    1.7827 O   0  0  0  0  0  0  0  0  0  0  0  0
   -1.0531   -1.6138    1.1440 C   0  0  0  0  0  0  0  0  0  0  0  0
   -1.1133   -0.3636    0.5617 C   0  0  0  0  0  0  0  0  0  0  0  0
   -0.0490    0.5028    0.4568 C   0  0  0  0  0  0  0  0  0  0  0  0
   -0.2409    1.6943   -0.1512 N   0  0  0  0  0  0  0  0  0  0  0  0
    1.2231    0.1366    1.0468 C   0  0  0  0  0  0  0  0  0  0  0  0
    1.1870   -0.2151    2.2803 O   0  0  0  0  0  0  0  0  0  0  0  0
    2.5054    0.1413    0.3458 C   0  0  0  0  0  0  0  0  0  0  0  0
    2.7388    0.7884   -0.8390 C   0  0  0  0  0  0  0  0  0  0  0  0
    4.0099    0.7220   -1.4182 C   0  0  0  0  0  0  0  0  0  0  0  0
    5.0507    0.0278   -0.8460 C   0  0  0  0  0  0  0  0  0  0  0  0
    6.7818   -0.0360   -1.6787 Br  0  0  0  0  0  0  0  0  0  0  0  0
    4.8115   -0.6173    0.3383 C   0  0  0  0  0  0  0  0  0  0  0  0
    3.5535   -0.5569    0.9203 C   0  0  0  0  0  0  0  0  0  0  0  0
   -3.1685    3.5638   -2.6979 H   0  0  0  0  0  0  0  0  0  0  0  0
   -3.4499    1.5387   -0.9724 H   0  0  0  0  0  0  0  0  0  0  0  0
   -4.4251   -0.4783   -0.3179 H   0  0  0  0  0  0  0  0  0  0  0  0
   -5.3968   -2.6465    0.3931 H   0  0  0  0  0  0  0  0  0  0  0  0
   -1.2310   -3.9892    2.1699 H   0  0  0  0  0  0  0  0  0  0  0  0
   -0.1208   -1.9609    1.5466 H   0  0  0  0  0  0  0  0  0  0  0  0
    1.9606    1.3461   -1.3323 H   0  0  0  0  0  0  0  0  0  0  0  0
    4.1921    1.2423   -2.3676 H   0  0  0  0  0  0  0  0  0  0  0  0
    5.6035   -1.1751    0.8219 H   0  0  0  0  0  0  0  0  0  0  0  0
    3.3550   -1.0625    1.8532 H   0  0  0  0  0  0  0  0  0  0  0  0
  1  2  1  0
  2  3  2  0
  2  4  1  0
  4  5  2  0
  5  6  1  0
  6  7  2  0
  7  8  1  0
  8  9  1  0
  8 10  2  0
 10 11  1  0
 10 12  1  0
 12 13  2  0
 13 14  1  0
 14 15  2  0
 14 16  1  0
 16 17  2  0
 16 18  1  0
 18 19  2  0
 19 20  1  0
 20 21  2  0
 21 22  1  0
 21 23  1  0
 23 24  2  0
 15  4  1  0
 24 18  1  0
 13  6  1  0
  1 25  1  0
  5 26  1  0
  7 27  1  0
  9 28  1  0
 11 29  1  0
 12 30  1  0
 19 31  1  0
 20 32  1  0
 23 33  1  0
 24 34  1  0
M  END
$$$$
[H]OC(=O)[C@@]([H])(N([H])C(=O)[C@@]([H])(N([H])C(=O)[C@@]([H])(N([H])C(=O)OC([H])([H])c1c([H])c([H])c([H])c([H])c1[H])C([H])([H])C([H])(C([H])([H])[H])C([H])([H])[H])C([H])([H])C([H])(C([H])([H])[H])C([H])([H])[H])C([H])([H])C([H])(C([H])([H])[H])C([H])([H])[H]
     RDKit          3D

 76 76  0  0  0  0  0  0  0  0999 V2000
   -5.0472    2.1480    3.6394 C   0  0  0  0  0  0  0  0  0  0  0  0
   -5.6737    2.2687    2.2658 C   0  0  0  0  0  0  0  0  0  0  0  0
   -7.1397    2.1489    2.3543 C   0  0  0  0  0  0  0  0  0  0  0  0
   -4.9474    1.5531    1.2081 C   0  0  0  0  0  0  0  0  0  0  0  0
   -4.7149    0.0949    1.3067 C   0  0  2  0  0  0  0  0  0  0  0  0
   -3.9516   -0.2473    0.0622 N   0  0  0  0  0  0  0  0  0  0  0  0
   -2.6342   -0.7265    0.1759 C   0  0  0  0  0  0  0  0  0  0  0  0
   -2.1528   -0.8359    1.3758 O   0  0  0  0  0  0  0  0  0  0  0  0
   -1.7377   -1.1146   -0.9118 C   0  0  2  0  0  0  0  0  0  0  0  0
   -2.1328   -2.2870   -1.7341 C   0  0  0  0  0  0  0  0  0  0  0  0
   -3.3900   -2.2422   -2.5019 C   0  0  0  0  0  0  0  0  0  0  0  0
   -3.4530   -1.1400   -3.5404 C   0  0  0  0  0  0  0  0  0  0  0  0
   -3.5533   -3.5739   -3.2655 C   0  0  0  0  0  0  0  0  0  0  0  0
   -0.4165   -1.3522   -0.3101 N   0  0  0  0  0  0  0  0  0  0  0  0
    0.6943   -0.5165   -0.4890 C   0  0  0  0  0  0  0  0  0  0  0  0
    0.6025    0.5088   -1.1957 O   0  0  0  0  0  0  0  0  0  0  0  0
    2.0000   -0.8199    0.1495 C   0  0  2  0  0  0  0  0  0  0  0  0
    1.7845   -0.9926    1.6382 C   0  0  0  0  0  0  0  0  0  0  0  0
    3.0639   -1.3070    2.3622 C   0  0  0  0  0  0  0  0  0  0  0  0
    2.7477   -1.4615    3.8407 C   0  0  0  0  0  0  0  0  0  0  0  0
    3.6178   -2.6149    1.8137 C   0  0  0  0  0  0  0  0  0  0  0  0
    2.9901    0.1749   -0.1195 N   0  0  0  0  0  0  0  0  0  0  0  0
    4.1584   -0.0110   -0.9134 C   0  0  0  0  0  0  0  0  0  0  0  0
    4.4276   -1.1096   -1.4686 O   0  0  0  0  0  0  0  0  0  0  0  0
    5.0656    1.0170   -1.1171 O   0  0  0  0  0  0  0  0  0  0  0  0
    6.2187    0.8166   -1.9119 C   0  0  0  0  0  0  0  0  0  0  0  0
    7.0461    2.0429   -1.9874 C   0  0  0  0  0  0  0  0  0  0  0  0
    8.0410    2.1314   -2.9340 C   0  0  0  0  0  0  0  0  0  0  0  0
    8.8018    3.2677   -2.9901 C   0  0  0  0  0  0  0  0  0  0  0  0
    8.6029    4.3234   -2.1314 C   0  0  0  0  0  0  0  0  0  0  0  0
    7.6116    4.2111   -1.2035 C   0  0  0  0  0  0  0  0  0  0  0  0
    6.8267    3.0712   -1.1252 C   0  0  0  0  0  0  0  0  0  0  0  0
   -5.8789   -0.7912    1.2790 C   0  0  0  0  0  0  0  0  0  0  0  0
   -6.7836   -0.8737    2.3167 O   0  0  0  0  0  0  0  0  0  0  0  0
   -6.1190   -1.5437    0.2871 O   0  0  0  0  0  0  0  0  0  0  0  0
   -5.3563    3.0321    4.2287 H   0  0  0  0  0  0  0  0  0  0  0  0
   -5.4358    1.2621    4.2018 H   0  0  0  0  0  0  0  0  0  0  0  0
   -3.9435    2.1540    3.5979 H   0  0  0  0  0  0  0  0  0  0  0  0
   -5.4844    3.3914    2.0157 H   0  0  0  0  0  0  0  0  0  0  0  0
   -7.5168    1.6904    3.3027 H   0  0  0  0  0  0  0  0  0  0  0  0
   -7.6358    1.7150    1.4422 H   0  0  0  0  0  0  0  0  0  0  0  0
   -7.5884    3.1914    2.3977 H   0  0  0  0  0  0  0  0  0  0  0  0
   -5.4378    1.7362    0.2136 H   0  0  0  0  0  0  0  0  0  0  0  0
   -3.9357    2.0378    1.0963 H   0  0  0  0  0  0  0  0  0  0  0  0
   -4.0357   -0.1747    2.1569 H   0  0  0  0  0  0  0  0  0  0  0  0
   -4.4298   -0.1002   -0.8404 H   0  0  0  0  0  0  0  0  0  0  0  0
   -1.5824   -0.2278   -1.5900 H   0  0  0  0  0  0  0  0  0  0  0  0
   -1.2849   -2.4500   -2.4712 H   0  0  0  0  0  0  0  0  0  0  0  0
   -2.1380   -3.2415   -1.1440 H   0  0  0  0  0  0  0  0  0  0  0  0
   -4.2811   -2.1767   -1.8557 H   0  0  0  0  0  0  0  0  0  0  0  0
   -3.2298   -1.5603   -4.5402 H   0  0  0  0  0  0  0  0  0  0  0  0
   -4.4712   -0.6946   -3.5748 H   0  0  0  0  0  0  0  0  0  0  0  0
   -2.7108   -0.3383   -3.3702 H   0  0  0  0  0  0  0  0  0  0  0  0
   -2.5937   -3.9293   -3.6456 H   0  0  0  0  0  0  0  0  0  0  0  0
   -3.9839   -4.3040   -2.5230 H   0  0  0  0  0  0  0  0  0  0  0  0
   -4.2467   -3.3789   -4.0953 H   0  0  0  0  0  0  0  0  0  0  0  0
   -0.3326   -2.1990    0.2790 H   0  0  0  0  0  0  0  0  0  0  0  0
    2.3201   -1.7968   -0.3172 H   0  0  0  0  0  0  0  0  0  0  0  0
    1.2564   -0.1522    2.0872 H   0  0  0  0  0  0  0  0  0  0  0  0
    1.1033   -1.8827    1.7748 H   0  0  0  0  0  0  0  0  0  0  0  0
    3.7956   -0.4854    2.2338 H   0  0  0  0  0  0  0  0  0  0  0  0
    1.8400   -2.0718    3.9943 H   0  0  0  0  0  0  0  0  0  0  0  0
    2.6153   -0.4797    4.3322 H   0  0  0  0  0  0  0  0  0  0  0  0
    3.6174   -1.9533    4.3596 H   0  0  0  0  0  0  0  0  0  0  0  0
    4.4545   -2.4094    1.1270 H   0  0  0  0  0  0  0  0  0  0  0  0
    2.8016   -3.1803    1.3021 H   0  0  0  0  0  0  0  0  0  0  0  0
    3.9192   -3.2339    2.6877 H   0  0  0  0  0  0  0  0  0  0  0  0
    2.8495    1.1325    0.3043 H   0  0  0  0  0  0  0  0  0  0  0  0
    6.8409    0.0452   -1.3806 H   0  0  0  0  0  0  0  0  0  0  0  0
    5.9939    0.4033   -2.9125 H   0  0  0  0  0  0  0  0  0  0  0  0
    8.2213    1.3269   -3.6184 H   0  0  0  0  0  0  0  0  0  0  0  0
    9.6017    3.3865   -3.7225 H   0  0  0  0  0  0  0  0  0  0  0  0
    9.2058    5.2389   -2.1684 H   0  0  0  0  0  0  0  0  0  0  0  0
    7.4146    5.0205   -0.5000 H   0  0  0  0  0  0  0  0  0  0  0  0
    6.0612    3.0420   -0.3727 H   0  0  0  0  0  0  0  0  0  0  0  0
   -6.8324   -1.6031    2.9979 H   0  0  0  0  0  0  0  0  0  0  0  0
  1  2  1  0
  2  3  1  0
  2  4  1  0
  4  5  1  0
  5  6  1  0
  6  7  1  0
  7  8  2  0
  7  9  1  0
  9 10  1  0
 10 11  1  0
 11 12  1  0
 11 13  1  0
  9 14  1  0
 14 15  1  0
 15 16  2  0
 15 17  1  0
 17 18  1  0
 18 19  1  0
 19 20  1  0
 19 21  1  0
 17 22  1  0
 22 23  1  0
 23 24  2  0
 23 25  1  0
 25 26  1  0
 26 27  1  0
 27 28  2  0
 28 29  1  0
 29 30  2  0
 30 31  1  0
 31 32  2  0
  5 33  1  0
 33 34  1  0
 33 35  2  0
 32 27  1  0
  1 36  1  0
  1 37  1  0
  1 38  1  0
  2 39  1  0
  3 40  1  0
  3 41  1  0
  3 42  1  0
  4 43  1  0
  4 44  1  0
  5 45  1  1
  6 46  1  0
  9 47  1  6
 10 48  1  0
 10 49  1  0
 11 50  1  0
 12 51  1  0
 12 52  1  0
 12 53  1  0
 13 54  1  0
 13 55  1  0
 13 56  1  0
 14 57  1  0
 17 58  1  6
 18 59  1  0
 18 60  1  0
 19 61  1  0
 20 62  1  0
 20 63  1  0
 20 64  1  0
 21 65  1  0
 21 66  1  0
 21 67  1  0
 22 68  1  0
 26 69  1  0
 26 70  1  0
 28 71  1  0
 29 72  1  0
 30 73  1  0
 31 74  1  0
 32 75  1  0
 34 76  1  0
M  END
$$$$
[H]OC([H])([H])C([H])([H])N1C([H])([H])C([H])([H])N(c2nc(N([H])c3nc([H])c(C(=O)N([H])c4c(Cl)c([H])c([H])c([H])c4C([H])([H])[H])s3)c([H])c(C([H])([H])[H])n2)C([H])([H])C1([H])[H]
     RDKit          3D

 59 62  0  0  0  0  0  0  0  0999 V2000
    0.9540   -0.4980   -3.7359 C   0  0  0  0  0  0  0  0  0  0  0  0
    1.3699   -0.4038   -2.3217 C   0  0  0  0  0  0  0  0  0  0  0  0
    0.4481   -0.2202   -1.2863 C   0  0  0  0  0  0  0  0  0  0  0  0
    0.8139   -0.1316    0.0179 C   0  0  0  0  0  0  0  0  0  0  0  0
   -0.0472    0.0522    1.1044 N   0  0  0  0  0  0  0  0  0  0  0  0
   -1.4587    0.1821    1.0453 C   0  0  0  0  0  0  0  0  0  0  0  0
   -2.2682    0.3588    2.1173 N   0  0  0  0  0  0  0  0  0  0  0  0
   -3.5250    0.4641    1.9450 C   0  0  0  0  0  0  0  0  0  0  0  0
   -4.0389    0.3968    0.6775 C   0  0  0  0  0  0  0  0  0  0  0  0
   -2.6080    0.1765   -0.2171 S   0  0  0  0  0  0  0  0  0  0  0  0
   -5.4355    0.4924    0.2463 C   0  0  0  0  0  0  0  0  0  0  0  0
   -5.7215    0.4085   -0.9759 O   0  0  0  0  0  0  0  0  0  0  0  0
   -6.4984    0.6790    1.1660 N   0  0  0  0  0  0  0  0  0  0  0  0
   -7.8323    0.7676    0.7229 C   0  0  0  0  0  0  0  0  0  0  0  0
   -8.5787   -0.3814    0.6193 C   0  0  0  0  0  0  0  0  0  0  0  0
   -8.0007   -1.7005    0.9649 C   0  0  0  0  0  0  0  0  0  0  0  0
   -9.8885   -0.3231    0.1878 C   0  0  0  0  0  0  0  0  0  0  0  0
  -10.4430    0.8894   -0.1378 C   0  0  0  0  0  0  0  0  0  0  0  0
   -9.6745    2.0388   -0.0270 C   0  0  0  0  0  0  0  0  0  0  0  0
   -8.3704    1.9851    0.4021 C   0  0  0  0  0  0  0  0  0  0  0  0
   -7.4690    3.4736    0.5153 Cl  0  0  0  0  0  0  0  0  0  0  0  0
    2.1648   -0.2358    0.2522 N   0  0  0  0  0  0  0  0  0  0  0  0
    3.0740   -0.4099   -0.6947 C   0  0  0  0  0  0  0  0  0  0  0  0
    2.6565   -0.4929   -1.9906 N   0  0  0  0  0  0  0  0  0  0  0  0
    4.4539   -0.5149   -0.4495 N   0  0  0  0  0  0  0  0  0  0  0  0
    5.3765   -0.7037   -1.5423 C   0  0  0  0  0  0  0  0  0  0  0  0
    6.5147    0.2642   -1.2959 C   0  0  0  0  0  0  0  0  0  0  0  0
    7.2525   -0.1869   -0.1644 N   0  0  0  0  0  0  0  0  0  0  0  0
    8.2414    0.7345    0.3036 C   0  0  0  0  0  0  0  0  0  0  0  0
    9.0210    0.2700    1.4824 C   0  0  0  0  0  0  0  0  0  0  0  0
    9.6973   -0.9131    1.1710 O   0  0  0  0  0  0  0  0  0  0  0  0
    6.4896   -0.8619    0.8216 C   0  0  0  0  0  0  0  0  0  0  0  0
    5.0240   -0.4417    0.8791 C   0  0  0  0  0  0  0  0  0  0  0  0
    0.1570    0.2680   -3.9264 H   0  0  0  0  0  0  0  0  0  0  0  0
    1.7895   -0.2509   -4.3935 H   0  0  0  0  0  0  0  0  0  0  0  0
    0.5565   -1.5292   -3.9400 H   0  0  0  0  0  0  0  0  0  0  0  0
   -0.5585   -0.1560   -1.6022 H   0  0  0  0  0  0  0  0  0  0  0  0
    0.3712    0.1033    2.0835 H   0  0  0  0  0  0  0  0  0  0  0  0
   -4.2385    0.6113    2.7952 H   0  0  0  0  0  0  0  0  0  0  0  0
   -6.2224    0.7446    2.1767 H   0  0  0  0  0  0  0  0  0  0  0  0
   -7.8126   -2.2838    0.0432 H   0  0  0  0  0  0  0  0  0  0  0  0
   -8.7526   -2.2881    1.5542 H   0  0  0  0  0  0  0  0  0  0  0  0
   -7.0363   -1.6081    1.4971 H   0  0  0  0  0  0  0  0  0  0  0  0
  -10.4704   -1.2070    0.1056 H   0  0  0  0  0  0  0  0  0  0  0  0
  -11.4810    0.9580   -0.4824 H   0  0  0  0  0  0  0  0  0  0  0  0
  -10.1684    2.9726   -0.2993 H   0  0  0  0  0  0  0  0  0  0  0  0
    5.8067   -1.7371   -1.4022 H   0  0  0  0  0  0  0  0  0  0  0  0
    4.9134   -0.5918   -2.5315 H   0  0  0  0  0  0  0  0  0  0  0  0
    6.0690    1.2564   -1.0777 H   0  0  0  0  0  0  0  0  0  0  0  0
    7.1585    0.3557   -2.1934 H   0  0  0  0  0  0  0  0  0  0  0  0
    7.7440    1.7138    0.4579 H   0  0  0  0  0  0  0  0  0  0  0  0
    8.9622    0.9091   -0.5422 H   0  0  0  0  0  0  0  0  0  0  0  0
    9.8457    1.0305    1.6339 H   0  0  0  0  0  0  0  0  0  0  0  0
    8.4851    0.2427    2.4293 H   0  0  0  0  0  0  0  0  0  0  0  0
   10.4511   -0.6650    0.5548 H   0  0  0  0  0  0  0  0  0  0  0  0
    6.4569   -1.9515    0.5204 H   0  0  0  0  0  0  0  0  0  0  0  0
    6.8820   -0.8532    1.8364 H   0  0  0  0  0  0  0  0  0  0  0  0
    4.8711    0.5113    1.3830 H   0  0  0  0  0  0  0  0  0  0  0  0
    4.5270   -1.2274    1.5172 H   0  0  0  0  0  0  0  0  0  0  0  0
  1  2  1  0
  2  3  2  0
  3  4  1  0
  4  5  1  0
  5  6  1  0
  6  7  2  0
  7  8  1  0
  8  9  2  0
  9 10  1  0
  9 11  1  0
 11 12  2  0
 11 13  1  0
 13 14  1  0
 14 15  2  0
 15 16  1  0
 15 17  1  0
 17 18  2  0
 18 19  1  0
 19 20  2  0
 20 21  1  0
  4 22  2  0
 22 23  1  0
 23 24  2  0
 23 25  1  0
 25 26  1  0
 26 27  1  0
 27 28  1  0
 28 29  1  0
 29 30  1  0
 30 31  1  0
 28 32  1  0
 32 33  1  0
 24  2  1  0
 33 25  1  0
 10  6  1  0
 20 14  1  0
  1 34  1  0
  1 35  1  0
  1 36  1  0
  3 37  1  0
  5 38  1  0
  8 39  1  0
 13 40  1  0
 16 41  1  0
 16 42  1  0
 16 43  1  0
 17 44  1  0
 18 45  1  0
 19 46  1  0
 26 47  1  0
 26 48  1  0
 27 49  1  0
 27 50  1  0
 29 51  1  0
 29 52  1  0
 30 53  1  0
 30 54  1  0
 31 55  1  0
 32 56  1  0
 32 57  1  0
 33 58  1  0
 33 59  1  0
M  END
$$$$
[H]c1c([H])c([H])c(C([H])([H])[C@@]2([H])C(=O)N([H])[C@@]([H])(C([H])(C([H])([H])[H])C([H])([H])[H])C(=O)N([H])[C@@]([H])(C([H])(C([H])([H])[H])C([H])([H])[H])C(=O)N([H])[C@]([H])(C([H])([H])c3c([H])c([H])c([H])c([H])c3[H])C(=O)N2[H])c([H])c1[H]
     RDKit          3D

 72 74  0  0  0  0  0  0  0  0999 V2000
   -2.0147   -4.8673   -0.6860 C   0  0  0  0  0  0  0  0  0  0  0  0
   -0.5212   -4.7591   -0.6972 C   0  0  0  0  0  0  0  0  0  0  0  0
   -0.0211   -5.4265   -1.9559 C   0  0  0  0  0  0  0  0  0  0  0  0
   -0.0356   -3.2998   -0.6112 C   0  0  2  0  0  0  0  0  0  0  0  0
    1.4099   -3.3509   -0.6337 N   0  0  0  0  0  0  0  0  0  0  0  0
    2.3158   -2.5648    0.0918 C   0  0  0  0  0  0  0  0  0  0  0  0
    3.1863   -3.1160    0.8154 O   0  0  0  0  0  0  0  0  0  0  0  0
    2.3599   -1.0519    0.0955 C   0  0  2  0  0  0  0  0  0  0  0  0
    3.7954   -0.6265   -0.2777 C   0  0  0  0  0  0  0  0  0  0  0  0
    3.9693    0.8316   -0.3159 C   0  0  0  0  0  0  0  0  0  0  0  0
    3.7283    1.5256   -1.4842 C   0  0  0  0  0  0  0  0  0  0  0  0
    3.8871    2.8974   -1.5703 C   0  0  0  0  0  0  0  0  0  0  0  0
    4.2975    3.6212   -0.4727 C   0  0  0  0  0  0  0  0  0  0  0  0
    4.5416    2.9535    0.6943 C   0  0  0  0  0  0  0  0  0  0  0  0
    4.3785    1.5791    0.7666 C   0  0  0  0  0  0  0  0  0  0  0  0
    2.0001   -0.5826    1.4082 N   0  0  0  0  0  0  0  0  0  0  0  0
    1.2216    0.4979    1.8042 C   0  0  0  0  0  0  0  0  0  0  0  0
    1.5627    0.9960    2.9543 O   0  0  0  0  0  0  0  0  0  0  0  0
    0.0889    1.1966    1.1942 C   0  0  1  0  0  0  0  0  0  0  0  0
    0.3716    2.7068    1.3960 C   0  0  0  0  0  0  0  0  0  0  0  0
   -0.6480    3.5769    0.8550 C   0  0  0  0  0  0  0  0  0  0  0  0
   -0.5798    4.0820   -0.4212 C   0  0  0  0  0  0  0  0  0  0  0  0
   -1.5718    4.9185   -0.9183 C   0  0  0  0  0  0  0  0  0  0  0  0
   -2.6508    5.2609   -0.1372 C   0  0  0  0  0  0  0  0  0  0  0  0
   -2.7277    4.7614    1.1388 C   0  0  0  0  0  0  0  0  0  0  0  0
   -1.7393    3.9411    1.6037 C   0  0  0  0  0  0  0  0  0  0  0  0
   -0.1145    1.0399   -0.2097 N   0  0  0  0  0  0  0  0  0  0  0  0
   -1.1826    0.4290   -0.8867 C   0  0  0  0  0  0  0  0  0  0  0  0
   -1.6315    0.9982   -1.9512 O   0  0  0  0  0  0  0  0  0  0  0  0
   -1.8973   -0.8162   -0.5519 C   0  0  1  0  0  0  0  0  0  0  0  0
   -1.4505   -1.5175    0.5980 N   0  0  0  0  0  0  0  0  0  0  0  0
   -0.6150   -2.6853    0.5803 C   0  0  0  0  0  0  0  0  0  0  0  0
   -0.3684   -3.2149    1.6940 O   0  0  0  0  0  0  0  0  0  0  0  0
   -3.3791   -0.4604   -0.4619 C   0  0  0  0  0  0  0  0  0  0  0  0
   -3.6852    0.5709    0.5754 C   0  0  0  0  0  0  0  0  0  0  0  0
   -4.1670   -1.6918   -0.1378 C   0  0  0  0  0  0  0  0  0  0  0  0
   -2.3936   -4.0060   -1.3114 H   0  0  0  0  0  0  0  0  0  0  0  0
   -2.4517   -4.7399    0.3143 H   0  0  0  0  0  0  0  0  0  0  0  0
   -2.3870   -5.7676   -1.2146 H   0  0  0  0  0  0  0  0  0  0  0  0
   -0.1393   -5.2583    0.2150 H   0  0  0  0  0  0  0  0  0  0  0  0
    0.9651   -5.8987   -1.6940 H   0  0  0  0  0  0  0  0  0  0  0  0
   -0.7093   -6.2502   -2.2407 H   0  0  0  0  0  0  0  0  0  0  0  0
    0.0413   -4.7508   -2.8131 H   0  0  0  0  0  0  0  0  0  0  0  0
   -0.3545   -2.8416   -1.5663 H   0  0  0  0  0  0  0  0  0  0  0  0
    1.8146   -4.0920   -1.2907 H   0  0  0  0  0  0  0  0  0  0  0  0
    1.7306   -0.6303   -0.6675 H   0  0  0  0  0  0  0  0  0  0  0  0
    4.4404   -1.0888    0.5274 H   0  0  0  0  0  0  0  0  0  0  0  0
    4.1082   -1.1349   -1.2113 H   0  0  0  0  0  0  0  0  0  0  0  0
    3.4001    1.0269   -2.3980 H   0  0  0  0  0  0  0  0  0  0  0  0
    3.7022    3.4552   -2.4777 H   0  0  0  0  0  0  0  0  0  0  0  0
    4.4177    4.7130   -0.5625 H   0  0  0  0  0  0  0  0  0  0  0  0
    4.8658    3.5227    1.5638 H   0  0  0  0  0  0  0  0  0  0  0  0
    4.5859    1.1097    1.7142 H   0  0  0  0  0  0  0  0  0  0  0  0
    2.4417   -1.2194    2.1805 H   0  0  0  0  0  0  0  0  0  0  0  0
   -0.8573    1.0494    1.7807 H   0  0  0  0  0  0  0  0  0  0  0  0
    1.3988    2.9036    0.9915 H   0  0  0  0  0  0  0  0  0  0  0  0
    0.4774    2.8439    2.5119 H   0  0  0  0  0  0  0  0  0  0  0  0
    0.2427    3.8550   -1.0950 H   0  0  0  0  0  0  0  0  0  0  0  0
   -1.5067    5.3119   -1.9287 H   0  0  0  0  0  0  0  0  0  0  0  0
   -3.4442    5.9209   -0.5136 H   0  0  0  0  0  0  0  0  0  0  0  0
   -3.5765    5.0140    1.7934 H   0  0  0  0  0  0  0  0  0  0  0  0
   -1.8159    3.5556    2.6139 H   0  0  0  0  0  0  0  0  0  0  0  0
    0.6591    1.4608   -0.8173 H   0  0  0  0  0  0  0  0  0  0  0  0
   -1.8303   -1.4463   -1.4819 H   0  0  0  0  0  0  0  0  0  0  0  0
   -1.7681   -1.1401    1.5409 H   0  0  0  0  0  0  0  0  0  0  0  0
   -3.7266   -0.0986   -1.4542 H   0  0  0  0  0  0  0  0  0  0  0  0
   -3.2685    0.2428    1.5661 H   0  0  0  0  0  0  0  0  0  0  0  0
   -4.7954    0.5481    0.7264 H   0  0  0  0  0  0  0  0  0  0  0  0
   -3.3540    1.5864    0.2906 H   0  0  0  0  0  0  0  0  0  0  0  0
   -4.1967   -2.4327   -0.9635 H   0  0  0  0  0  0  0  0  0  0  0  0
   -5.1778   -1.4478    0.2520 H   0  0  0  0  0  0  0  0  0  0  0  0
   -3.6514   -2.2290    0.7122 H   0  0  0  0  0  0  0  0  0  0  0  0
  1  2  1  0
  2  3  1  0
  2  4  1  0
  4  5  1  0
  5  6  1  0
  6  7  2  0
  6  8  1  0
  8  9  1  0
  9 10  1  0
 10 11  2  0
 11 12  1  0
 12 13  2  0
 13 14  1  0
 14 15  2  0
  8 16  1  0
 16 17  1  0
 17 18  2  0
 17 19  1  0
 19 20  1  0
 20 21  1  0
 21 22  2  0
 22 23  1  0
 23 24  2  0
 24 25  1  0
 25 26  2  0
 19 27  1  0
 27 28  1  0
 28 29  2  0
 28 30  1  0
 30 31  1  0
 31 32  1  0
 32 33  2  0
 30 34  1  0
 34 35  1  0
 34 36  1  0
 32  4  1  0
 15 10  1  0
 26 21  1  0
  1 37  1  0
  1 38  1  0
  1 39  1  0
  2 40  1  0
  3 41  1  0
  3 42  1  0
  3 43  1  0
  4 44  1  6
  5 45  1  0
  8 46  1  6
  9 47  1  0
  9 48  1  0
 11 49  1  0
 12 50  1  0
 13 51  1  0
 14 52  1  0
 15 53  1  0
 16 54  1  0
 19 55  1  1
 20 56  1  0
 20 57  1  0
 22 58  1  0
 23 59  1  0
 24 60  1  0
 25 61  1  0
 26 62  1  0
 27 63  1  0
 30 64  1  6
 31 65  1  0
 34 66  1  0
 35 67  1  0
 35 68  1  0
 35 69  1  0
 36 70  1  0
 36 71  1  0
 36 72  1  0
M  END
$$$$
[H]c1nc(N2C([H])([H])[C@@]3([H])N(C([H])([H])[H])C([H])([H])[C@]2([H])C3([H])[H])c([H])nc1-c1c([H])c([H])c([H])c([H])c1[H]
     RDKit          3D

 38 41  0  0  0  0  0  0  0  0999 V2000
   -5.6813   -0.2374    0.5568 C   0  0  0  0  0  0  0  0  0  0  0  0
   -4.3397   -0.8117    0.6072 N   0  0  0  0  0  0  0  0  0  0  0  0
   -3.4816    0.1925    1.2502 C   0  0  0  0  0  0  0  0  0  0  0  0
   -2.6041    0.7513    0.1496 C   0  0  2  0  0  0  0  0  0  0  0  0
   -3.5636    0.5585   -1.0421 C   0  0  0  0  0  0  0  0  0  0  0  0
   -3.8078   -0.9295   -0.7260 C   0  0  1  0  0  0  0  0  0  0  0  0
   -2.3780   -1.4062   -0.6235 C   0  0  0  0  0  0  0  0  0  0  0  0
   -1.6317   -0.2502   -0.1599 N   0  0  0  0  0  0  0  0  0  0  0  0
   -0.2279   -0.0923   -0.0228 C   0  0  0  0  0  0  0  0  0  0  0  0
    0.6340   -1.1192   -0.3477 C   0  0  0  0  0  0  0  0  0  0  0  0
    1.9607   -0.9513   -0.2115 N   0  0  0  0  0  0  0  0  0  0  0  0
    2.5242    0.1878    0.2350 C   0  0  0  0  0  0  0  0  0  0  0  0
    1.6645    1.2111    0.5587 C   0  0  0  0  0  0  0  0  0  0  0  0
    0.3214    1.0484    0.4235 N   0  0  0  0  0  0  0  0  0  0  0  0
    3.9774    0.2635    0.3448 C   0  0  0  0  0  0  0  0  0  0  0  0
    4.6343    1.3868    0.7908 C   0  0  0  0  0  0  0  0  0  0  0  0
    6.0312    1.4239    0.8834 C   0  0  0  0  0  0  0  0  0  0  0  0
    6.7928    0.3325    0.5293 C   0  0  0  0  0  0  0  0  0  0  0  0
    6.1417   -0.7918    0.0833 C   0  0  0  0  0  0  0  0  0  0  0  0
    4.7671   -0.8173   -0.0038 C   0  0  0  0  0  0  0  0  0  0  0  0
   -5.6707    0.8598    0.7216 H   0  0  0  0  0  0  0  0  0  0  0  0
   -6.1575   -0.4127   -0.4299 H   0  0  0  0  0  0  0  0  0  0  0  0
   -6.2922   -0.6599    1.3993 H   0  0  0  0  0  0  0  0  0  0  0  0
   -4.0582    0.9551    1.7810 H   0  0  0  0  0  0  0  0  0  0  0  0
   -2.8096   -0.3869    1.9210 H   0  0  0  0  0  0  0  0  0  0  0  0
   -2.2690    1.7536    0.2780 H   0  0  0  0  0  0  0  0  0  0  0  0
   -4.4856    1.1250   -0.9175 H   0  0  0  0  0  0  0  0  0  0  0  0
   -3.0440    0.6854   -1.9914 H   0  0  0  0  0  0  0  0  0  0  0  0
   -4.4187   -1.4262   -1.4447 H   0  0  0  0  0  0  0  0  0  0  0  0
   -2.3706   -2.1652    0.2128 H   0  0  0  0  0  0  0  0  0  0  0  0
   -1.9887   -1.8387   -1.5435 H   0  0  0  0  0  0  0  0  0  0  0  0
    0.2409   -2.0788   -0.7191 H   0  0  0  0  0  0  0  0  0  0  0  0
    2.0874    2.1378    0.9199 H   0  0  0  0  0  0  0  0  0  0  0  0
    4.0984    2.2630    1.0793 H   0  0  0  0  0  0  0  0  0  0  0  0
    6.5538    2.3038    1.2331 H   0  0  0  0  0  0  0  0  0  0  0  0
    7.8707    0.3214    0.5863 H   0  0  0  0  0  0  0  0  0  0  0  0
    6.7289   -1.6711   -0.2035 H   0  0  0  0  0  0  0  0  0  0  0  0
    4.2510   -1.7148   -0.3596 H   0  0  0  0  0  0  0  0  0  0  0  0
  1  2  1  0
  2  3  1  0
  3  4  1  0
  4  5  1  0
  5  6  1  0
  6  7  1  0
  7  8  1  0
  8  9  1  0
  9 10  2  0
 10 11  1  0
 11 12  2  0
 12 13  1  0
 13 14  2  0
 12 15  1  0
 15 16  2  0
 16 17  1  0
 17 18  2  0
 18 19  1  0
 19 20  2  0
  6  2  1  0
 14  9  1  0
 20 15  1  0
  8  4  1  0
  1 21  1  0
  1 22  1  0
  1 23  1  0
  3 24  1  0
  3 25  1  0
  4 26  1  1
  5 27  1  0
  5 28  1  0
  6 29  1  6
  7 30  1  0
  7 31  1  0
 10 32  1  0
 13 33  1  0
 16 34  1  0
 17 35  1  0
 18 36  1  0
 19 37  1  0
 20 38  1  0
M  END
$$$$
[H]OC(=O)[C@]1([H])O[C@]([H])([C@@]([H])(O[C@@]2([H])OC(C(=O)N([H])[C@]3([H])[C@]([H])(O[H])[C@@]([H])(O[H])[C@]3([H])O[H])=C([H])[C@]([H])(O[H])[C@]2([H])O[H])n2c([H])c([H])c(=O)n([H])c2=O)[C@@]([H])(OC([H])([H])[H])[C@@]1([H])O[H]
     RDKit          3D

 66 69  0  0  0  0  0  0  0  0999 V2000
   -6.1688   -0.1588   -0.8623 C   0  0  0  0  0  0  0  0  0  0  0  0
   -4.9961   -0.8929   -1.0053 O   0  0  0  0  0  0  0  0  0  0  0  0
   -4.1712   -0.7815    0.1043 C   0  0  1  0  0  0  0  0  0  0  0  0
   -4.0625   -2.1931    0.7045 C   0  0  1  0  0  0  0  0  0  0  0  0
   -5.0417   -3.0253    0.1934 O   0  0  0  0  0  0  0  0  0  0  0  0
   -2.7313   -2.6454    0.1476 C   0  0  1  0  0  0  0  0  0  0  0  0
   -1.9763   -1.5085    0.2646 O   0  0  0  0  0  0  0  0  0  0  0  0
   -2.7679   -0.5140   -0.3048 C   0  0  2  0  0  0  0  0  0  0  0  0
   -2.2576    0.8458    0.1220 C   0  0  1  0  0  0  0  0  0  0  0  0
   -0.9454    1.0531   -0.2720 O   0  0  0  0  0  0  0  0  0  0  0  0
   -0.0566    1.2224    0.7851 C   0  0  1  0  0  0  0  0  0  0  0  0
    0.8946    0.1871    0.7275 O   0  0  0  0  0  0  0  0  0  0  0  0
    2.2118    0.2887    0.3785 C   0  0  0  0  0  0  0  0  0  0  0  0
    2.6352    1.3878   -0.2218 C   0  0  0  0  0  0  0  0  0  0  0  0
    1.6554    2.4694   -0.4921 C   0  0  2  0  0  0  0  0  0  0  0  0
    2.2776    3.7138   -0.5672 O   0  0  0  0  0  0  0  0  0  0  0  0
    0.6983    2.5273    0.6856 C   0  0  2  0  0  0  0  0  0  0  0  0
    1.4699    2.6638    1.8391 O   0  0  0  0  0  0  0  0  0  0  0  0
    3.1763   -0.8006    0.6553 C   0  0  0  0  0  0  0  0  0  0  0  0
    2.7039   -1.8143    1.2305 O   0  0  0  0  0  0  0  0  0  0  0  0
    4.5377   -0.7531    0.3173 N   0  0  0  0  0  0  0  0  0  0  0  0
    5.3996   -1.8733    0.6314 C   0  0  2  0  0  0  0  0  0  0  0  0
    6.7350   -1.3797    1.1409 C   0  0  2  0  0  0  0  0  0  0  0  0
    6.7102   -0.1279    1.7505 O   0  0  0  0  0  0  0  0  0  0  0  0
    7.2106   -1.3568   -0.3008 C   0  0  1  0  0  0  0  0  0  0  0  0
    8.5216   -1.7966   -0.4644 O   0  0  0  0  0  0  0  0  0  0  0  0
    6.1532   -2.4005   -0.6025 C   0  0  2  0  0  0  0  0  0  0  0  0
    5.4446   -2.1886   -1.7887 O   0  0  0  0  0  0  0  0  0  0  0  0
   -3.0312    1.9368   -0.4282 N   0  0  0  0  0  0  0  0  0  0  0  0
   -3.1284    2.1001   -1.7520 C   0  0  0  0  0  0  0  0  0  0  0  0
   -3.8687    3.1461   -2.2449 C   0  0  0  0  0  0  0  0  0  0  0  0
   -4.4982    4.0093   -1.3783 C   0  0  0  0  0  0  0  0  0  0  0  0
   -5.1835    4.9781   -1.8547 O   0  0  0  0  0  0  0  0  0  0  0  0
   -4.3949    3.8373   -0.0498 N   0  0  0  0  0  0  0  0  0  0  0  0
   -3.6594    2.7991    0.3803 C   0  0  0  0  0  0  0  0  0  0  0  0
   -3.5716    2.6501    1.6407 O   0  0  0  0  0  0  0  0  0  0  0  0
   -2.1580   -3.7837    0.8811 C   0  0  0  0  0  0  0  0  0  0  0  0
   -2.7653   -5.0288    0.8959 O   0  0  0  0  0  0  0  0  0  0  0  0
   -1.0907   -3.6389    1.5160 O   0  0  0  0  0  0  0  0  0  0  0  0
   -5.9159    0.9123   -0.7261 H   0  0  0  0  0  0  0  0  0  0  0  0
   -6.7276   -0.4790    0.0520 H   0  0  0  0  0  0  0  0  0  0  0  0
   -6.8069   -0.2094   -1.7657 H   0  0  0  0  0  0  0  0  0  0  0  0
   -4.5753   -0.1304    0.8963 H   0  0  0  0  0  0  0  0  0  0  0  0
   -4.0375   -2.1771    1.7937 H   0  0  0  0  0  0  0  0  0  0  0  0
   -4.7038   -3.5344   -0.5841 H   0  0  0  0  0  0  0  0  0  0  0  0
   -2.8324   -2.8777   -0.9518 H   0  0  0  0  0  0  0  0  0  0  0  0
   -2.6817   -0.6442   -1.4180 H   0  0  0  0  0  0  0  0  0  0  0  0
   -2.2731    0.8696    1.2318 H   0  0  0  0  0  0  0  0  0  0  0  0
   -0.5331    1.1692    1.7787 H   0  0  0  0  0  0  0  0  0  0  0  0
    3.6719    1.5126   -0.5171 H   0  0  0  0  0  0  0  0  0  0  0  0
    1.0657    2.2462   -1.4066 H   0  0  0  0  0  0  0  0  0  0  0  0
    2.5537    3.9308    0.3780 H   0  0  0  0  0  0  0  0  0  0  0  0
    0.0386    3.4023    0.6285 H   0  0  0  0  0  0  0  0  0  0  0  0
    0.9282    2.4802    2.6674 H   0  0  0  0  0  0  0  0  0  0  0  0
    4.9815    0.0542   -0.1566 H   0  0  0  0  0  0  0  0  0  0  0  0
    4.9267   -2.6972    1.1688 H   0  0  0  0  0  0  0  0  0  0  0  0
    7.2839   -2.1545    1.7196 H   0  0  0  0  0  0  0  0  0  0  0  0
    6.9128    0.5373    1.0439 H   0  0  0  0  0  0  0  0  0  0  0  0
    6.9671   -0.4055   -0.7954 H   0  0  0  0  0  0  0  0  0  0  0  0
    8.5727   -2.2586   -1.3336 H   0  0  0  0  0  0  0  0  0  0  0  0
    6.4841   -3.4299   -0.4106 H   0  0  0  0  0  0  0  0  0  0  0  0
    4.5487   -2.6202   -1.6728 H   0  0  0  0  0  0  0  0  0  0  0  0
   -2.6321    1.4206   -2.4585 H   0  0  0  0  0  0  0  0  0  0  0  0
   -3.9531    3.2871   -3.3394 H   0  0  0  0  0  0  0  0  0  0  0  0
   -4.8848    4.5081    0.5839 H   0  0  0  0  0  0  0  0  0  0  0  0
   -2.2884   -5.8665    1.1912 H   0  0  0  0  0  0  0  0  0  0  0  0
  1  2  1  0
  2  3  1  0
  3  4  1  0
  4  5  1  0
  4  6  1  0
  6  7  1  0
  7  8  1  0
  8  9  1  0
  9 10  1  0
 10 11  1  0
 11 12  1  0
 12 13  1  0
 13 14  2  0
 14 15  1  0
 15 16  1  0
 15 17  1  0
 17 18  1  0
 13 19  1  0
 19 20  2  0
 19 21  1  0
 21 22  1  0
 22 23  1  0
 23 24  1  0
 23 25  1  0
 25 26  1  0
 25 27  1  0
 27 28  1  0
  9 29  1  0
 29 30  1  0
 30 31  2  0
 31 32  1  0
 32 33  2  0
 32 34  1  0
 34 35  1  0
 35 36  2  0
  6 37  1  0
 37 38  1  0
 37 39  2  0
  8  3  1  0
 17 11  1  0
 27 22  1  0
 35 29  1  0
  1 40  1  0
  1 41  1  0
  1 42  1  0
  3 43  1  1
  4 44  1  1
  5 45  1  0
  6 46  1  6
  8 47  1  6
  9 48  1  1
 11 49  1  1
 14 50  1  0
 15 51  1  6
 16 52  1  0
 17 53  1  6
 18 54  1  0
 21 55  1  0
 22 56  1  1
 23 57  1  1
 24 58  1  0
 25 59  1  6
 26 60  1  0
 27 61  1  1
 28 62  1  0
 30 63  1  0
 31 64  1  0
 34 65  1  0
 38 66  1  0
M  END
$$$$
[H]/C(=C1/C(=O)N([H])c2c([H])c([H])c(Cl)c([H])c21)c1c(C([H])([H])[H])c(C(=O)N([H])C([H])([H])C([H])([H])N(C([H])([H])C([H])([H])[H])C([H])([H])C([H])([H])[H])c(C([H])([H])[H])n1[H]
     RDKit          3D

 56 58  0  0  0  0  0  0  0  0999 V2000
   -5.1364    1.4765   -1.7877 C   0  0  0  0  0  0  0  0  0  0  0  0
   -5.1759    0.1288   -1.1643 C   0  0  0  0  0  0  0  0  0  0  0  0
   -4.3600   -0.0416    0.0128 N   0  0  0  0  0  0  0  0  0  0  0  0
   -4.8263    0.6798    1.1664 C   0  0  0  0  0  0  0  0  0  0  0  0
   -4.7321    2.1658    1.0820 C   0  0  0  0  0  0  0  0  0  0  0  0
   -4.3872   -1.4616    0.3136 C   0  0  0  0  0  0  0  0  0  0  0  0
   -3.5535   -1.8724    1.4757 C   0  0  0  0  0  0  0  0  0  0  0  0
   -2.1441   -1.5521    1.3550 N   0  0  0  0  0  0  0  0  0  0  0  0
   -1.3254   -2.0808    0.3419 C   0  0  0  0  0  0  0  0  0  0  0  0
   -1.9189   -2.8829   -0.4659 O   0  0  0  0  0  0  0  0  0  0  0  0
    0.0750   -1.8275    0.1140 C   0  0  0  0  0  0  0  0  0  0  0  0
    0.8247   -2.4907   -0.8673 C   0  0  0  0  0  0  0  0  0  0  0  0
    0.3549   -3.5400   -1.8009 C   0  0  0  0  0  0  0  0  0  0  0  0
    2.0792   -2.0254   -0.8411 N   0  0  0  0  0  0  0  0  0  0  0  0
    2.2049   -1.0960    0.0955 C   0  0  0  0  0  0  0  0  0  0  0  0
    3.3613   -0.3037    0.4625 C   0  0  0  0  0  0  0  0  0  0  0  0
    4.0323    0.4734   -0.3718 C   0  0  0  0  0  0  0  0  0  0  0  0
    3.7859    0.7162   -1.7786 C   0  0  0  0  0  0  0  0  0  0  0  0
    2.8527    0.2384   -2.4706 O   0  0  0  0  0  0  0  0  0  0  0  0
    4.8178    1.6036   -2.1964 N   0  0  0  0  0  0  0  0  0  0  0  0
    5.6920    1.9281   -1.1299 C   0  0  0  0  0  0  0  0  0  0  0  0
    6.8208    2.7211   -0.9947 C   0  0  0  0  0  0  0  0  0  0  0  0
    7.5024    2.8693    0.1840 C   0  0  0  0  0  0  0  0  0  0  0  0
    7.0409    2.1936    1.2954 C   0  0  0  0  0  0  0  0  0  0  0  0
    7.9282    2.4023    2.7823 Cl  0  0  0  0  0  0  0  0  0  0  0  0
    5.9243    1.4046    1.1780 C   0  0  0  0  0  0  0  0  0  0  0  0
    5.2396    1.2559   -0.0081 C   0  0  0  0  0  0  0  0  0  0  0  0
    0.9489   -0.9540    0.7139 C   0  0  0  0  0  0  0  0  0  0  0  0
    0.6294   -0.0154    1.8212 C   0  0  0  0  0  0  0  0  0  0  0  0
   -5.8978    2.1464   -1.3515 H   0  0  0  0  0  0  0  0  0  0  0  0
   -4.1244    1.9159   -1.8549 H   0  0  0  0  0  0  0  0  0  0  0  0
   -5.4644    1.3792   -2.8721 H   0  0  0  0  0  0  0  0  0  0  0  0
   -4.7517   -0.5946   -1.9225 H   0  0  0  0  0  0  0  0  0  0  0  0
   -6.2233   -0.1964   -1.0073 H   0  0  0  0  0  0  0  0  0  0  0  0
   -5.9073    0.3755    1.2981 H   0  0  0  0  0  0  0  0  0  0  0  0
   -4.2404    0.3048    2.0376 H   0  0  0  0  0  0  0  0  0  0  0  0
   -3.9739    2.5698    0.4126 H   0  0  0  0  0  0  0  0  0  0  0  0
   -4.4150    2.5248    2.1141 H   0  0  0  0  0  0  0  0  0  0  0  0
   -5.7502    2.5942    0.9664 H   0  0  0  0  0  0  0  0  0  0  0  0
   -5.4539   -1.7600    0.5940 H   0  0  0  0  0  0  0  0  0  0  0  0
   -4.1807   -2.0733   -0.5805 H   0  0  0  0  0  0  0  0  0  0  0  0
   -3.9273   -1.5748    2.4614 H   0  0  0  0  0  0  0  0  0  0  0  0
   -3.5592   -3.0181    1.5318 H   0  0  0  0  0  0  0  0  0  0  0  0
   -1.7990   -0.8868    2.1021 H   0  0  0  0  0  0  0  0  0  0  0  0
    1.1682   -3.9491   -2.4203 H   0  0  0  0  0  0  0  0  0  0  0  0
   -0.4577   -3.1966   -2.4747 H   0  0  0  0  0  0  0  0  0  0  0  0
   -0.0643   -4.3567   -1.1808 H   0  0  0  0  0  0  0  0  0  0  0  0
    2.8648   -2.3745   -1.4798 H   0  0  0  0  0  0  0  0  0  0  0  0
    3.7352   -0.3279    1.5076 H   0  0  0  0  0  0  0  0  0  0  0  0
    4.9087    1.9624   -3.1651 H   0  0  0  0  0  0  0  0  0  0  0  0
    7.1706    3.2434   -1.8724 H   0  0  0  0  0  0  0  0  0  0  0  0
    8.3801    3.5101    0.2087 H   0  0  0  0  0  0  0  0  0  0  0  0
    5.5661    0.8746    2.0610 H   0  0  0  0  0  0  0  0  0  0  0  0
    1.5477    0.6197    2.0148 H   0  0  0  0  0  0  0  0  0  0  0  0
    0.4430   -0.5476    2.7863 H   0  0  0  0  0  0  0  0  0  0  0  0
   -0.1492    0.7221    1.5680 H   0  0  0  0  0  0  0  0  0  0  0  0
  1  2  1  0
  2  3  1  0
  3  4  1  0
  4  5  1  0
  3  6  1  0
  6  7  1  0
  7  8  1  0
  8  9  1  0
  9 10  2  0
  9 11  1  0
 11 12  2  0
 12 13  1  0
 12 14  1  0
 14 15  1  0
 15 16  1  0
 16 17  2  0
 17 18  1  0
 18 19  2  0
 18 20  1  0
 20 21  1  0
 21 22  2  0
 22 23  1  0
 23 24  2  0
 24 25  1  0
 24 26  1  0
 26 27  2  0
 15 28  2  0
 28 29  1  0
 28 11  1  0
 27 17  1  0
 27 21  1  0
  1 30  1  0
  1 31  1  0
  1 32  1  0
  2 33  1  0
  2 34  1  0
  4 35  1  0
  4 36  1  0
  5 37  1  0
  5 38  1  0
  5 39  1  0
  6 40  1  0
  6 41  1  0
  7 42  1  0
  7 43  1  0
  8 44  1  0
 13 45  1  0
 13 46  1  0
 13 47  1  0
 14 48  1  0
 16 49  1  0
 20 50  1  0
 22 51  1  0
 23 52  1  0
 26 53  1  0
 29 54  1  0
 29 55  1  0
 29 56  1  0
M  END
$$$$
[H]Oc1c([H])c([H])c(C([H])([H])[C@@]2([H])C(=O)N([H])[C@@]([H])(C([H])([H])c3c([H])c([H])c(O[H])c([H])c3[H])C(=O)N([H])[C@@]([H])(C([H])([H])c3c([H])n([H])c4c([H])c([H])c([H])c([H])c34)C(=O)N([H])[C@@]([H])(C([H])(C([H])([H])[H])C([H])([H])[H])C(=O)N([H])[C@@]([H])(C([H])(C([H])([H])[H])C([H])([H])[H])C(=O)N([H])[C@@]([H])(C([H])([H])c3c([H])nc([H])n3[H])C(=O)N2[H])c([H])c1[H]
     RDKit          3D

115120  0  0  0  0  0  0  0  0999 V2000
    2.5993    4.5021    2.7001 C   0  0  0  0  0  0  0  0  0  0  0  0
    1.5733    3.7735    1.8777 C   0  0  0  0  0  0  0  0  0  0  0  0
    0.1996    3.9642    2.4822 C   0  0  0  0  0  0  0  0  0  0  0  0
    1.6151    4.0957    0.3963 C   0  0  2  0  0  0  0  0  0  0  0  0
    0.6036    3.3904   -0.3140 N   0  0  0  0  0  0  0  0  0  0  0  0
   -0.2494    3.6325   -1.3833 C   0  0  0  0  0  0  0  0  0  0  0  0
    0.1431    3.1700   -2.5646 O   0  0  0  0  0  0  0  0  0  0  0  0
   -1.5405    4.3001   -1.5355 C   0  0  1  0  0  0  0  0  0  0  0  0
   -2.6273    3.4454   -2.0389 N   0  0  0  0  0  0  0  0  0  0  0  0
   -2.7625    2.1100   -2.2311 C   0  0  0  0  0  0  0  0  0  0  0  0
   -2.9526    1.6950   -3.4420 O   0  0  0  0  0  0  0  0  0  0  0  0
   -2.7376    0.9367   -1.2748 C   0  0  2  0  0  0  0  0  0  0  0  0
   -3.0213    1.4086    0.1315 C   0  0  0  0  0  0  0  0  0  0  0  0
   -3.0494    0.3877    1.1639 C   0  0  0  0  0  0  0  0  0  0  0  0
   -2.0882    0.0671    2.1086 C   0  0  0  0  0  0  0  0  0  0  0  0
   -2.5075   -0.9440    2.8889 N   0  0  0  0  0  0  0  0  0  0  0  0
   -3.7339   -1.2874    2.4634 C   0  0  0  0  0  0  0  0  0  0  0  0
   -4.6294   -2.2537    2.8955 C   0  0  0  0  0  0  0  0  0  0  0  0
   -5.8611   -2.4430    2.3086 C   0  0  0  0  0  0  0  0  0  0  0  0
   -6.1998   -1.6133    1.2333 C   0  0  0  0  0  0  0  0  0  0  0  0
   -5.3347   -0.6537    0.7885 C   0  0  0  0  0  0  0  0  0  0  0  0
   -4.1113   -0.4862    1.3928 C   0  0  0  0  0  0  0  0  0  0  0  0
   -1.4665    0.2507   -1.3376 N   0  0  0  0  0  0  0  0  0  0  0  0
   -0.9581   -0.7624   -2.1248 C   0  0  0  0  0  0  0  0  0  0  0  0
   -0.1803   -0.4407   -3.1196 O   0  0  0  0  0  0  0  0  0  0  0  0
   -1.1531   -2.2339   -2.0275 C   0  0  2  0  0  0  0  0  0  0  0  0
   -2.6280   -2.5778   -1.8936 C   0  0  0  0  0  0  0  0  0  0  0  0
   -2.8492   -4.0587   -1.7960 C   0  0  0  0  0  0  0  0  0  0  0  0
   -2.9834   -4.8412   -2.9229 C   0  0  0  0  0  0  0  0  0  0  0  0
   -3.2042   -6.1972   -2.8854 C   0  0  0  0  0  0  0  0  0  0  0  0
   -3.2913   -6.7767   -1.6321 C   0  0  0  0  0  0  0  0  0  0  0  0
   -3.5124   -8.1374   -1.5677 O   0  0  0  0  0  0  0  0  0  0  0  0
   -3.1579   -5.9992   -0.4822 C   0  0  0  0  0  0  0  0  0  0  0  0
   -2.9391   -4.6536   -0.5667 C   0  0  0  0  0  0  0  0  0  0  0  0
   -0.3141   -2.8692   -1.0350 N   0  0  0  0  0  0  0  0  0  0  0  0
    0.6526   -2.3081   -0.1907 C   0  0  0  0  0  0  0  0  0  0  0  0
    0.4210   -2.3308    1.0735 O   0  0  0  0  0  0  0  0  0  0  0  0
    1.9448   -1.6723   -0.5324 C   0  0  2  0  0  0  0  0  0  0  0  0
    3.0321   -2.7639   -0.5236 C   0  0  0  0  0  0  0  0  0  0  0  0
    3.1849   -3.4356    0.7574 C   0  0  0  0  0  0  0  0  0  0  0  0
    4.0354   -2.9343    1.7115 C   0  0  0  0  0  0  0  0  0  0  0  0
    4.1789   -3.5988    2.9323 C   0  0  0  0  0  0  0  0  0  0  0  0
    3.4835   -4.7499    3.2011 C   0  0  0  0  0  0  0  0  0  0  0  0
    3.6362   -5.4062    4.4285 O   0  0  0  0  0  0  0  0  0  0  0  0
    2.6252   -5.2588    2.2428 C   0  0  0  0  0  0  0  0  0  0  0  0
    2.4878   -4.5908    1.0287 C   0  0  0  0  0  0  0  0  0  0  0  0
    2.2488   -0.5982    0.3519 N   0  0  0  0  0  0  0  0  0  0  0  0
    3.0633    0.5415    0.0906 C   0  0  0  0  0  0  0  0  0  0  0  0
    3.8183    0.8995    1.0591 O   0  0  0  0  0  0  0  0  0  0  0  0
    3.1115    1.3096   -1.1373 C   0  0  2  0  0  0  0  0  0  0  0  0
    4.2248    0.7066   -2.0083 C   0  0  0  0  0  0  0  0  0  0  0  0
    5.5469    0.7801   -1.3535 C   0  0  0  0  0  0  0  0  0  0  0  0
    6.2025   -0.1130   -0.5438 C   0  0  0  0  0  0  0  0  0  0  0  0
    7.3934    0.3984   -0.1861 N   0  0  0  0  0  0  0  0  0  0  0  0
    7.4844    1.6039   -0.7674 C   0  0  0  0  0  0  0  0  0  0  0  0
    6.3807    1.8433   -1.4710 N   0  0  0  0  0  0  0  0  0  0  0  0
    3.3158    2.7250   -1.0366 N   0  0  0  0  0  0  0  0  0  0  0  0
    2.9936    3.6711   -0.0865 C   0  0  0  0  0  0  0  0  0  0  0  0
    3.9247    4.2977    0.4859 O   0  0  0  0  0  0  0  0  0  0  0  0
   -2.0200    5.2045   -0.4601 C   0  0  0  0  0  0  0  0  0  0  0  0
   -1.1507    6.3994   -0.2094 C   0  0  0  0  0  0  0  0  0  0  0  0
   -3.4210    5.7190   -0.8149 C   0  0  0  0  0  0  0  0  0  0  0  0
    2.8136    5.5035    2.2429 H   0  0  0  0  0  0  0  0  0  0  0  0
    3.5471    3.9846    2.8419 H   0  0  0  0  0  0  0  0  0  0  0  0
    2.1995    4.6949    3.7436 H   0  0  0  0  0  0  0  0  0  0  0  0
    1.7916    2.6744    2.0471 H   0  0  0  0  0  0  0  0  0  0  0  0
   -0.5913    3.4675    1.9066 H   0  0  0  0  0  0  0  0  0  0  0  0
    0.1462    3.5642    3.5127 H   0  0  0  0  0  0  0  0  0  0  0  0
   -0.0542    5.0414    2.5280 H   0  0  0  0  0  0  0  0  0  0  0  0
    1.5207    5.1831    0.3211 H   0  0  0  0  0  0  0  0  0  0  0  0
    0.5114    2.3846    0.0964 H   0  0  0  0  0  0  0  0  0  0  0  0
   -1.3423    5.0463   -2.4157 H   0  0  0  0  0  0  0  0  0  0  0  0
   -3.4687    4.0659   -2.3069 H   0  0  0  0  0  0  0  0  0  0  0  0
   -3.5472    0.2218   -1.5288 H   0  0  0  0  0  0  0  0  0  0  0  0
   -4.0456    1.8936    0.1165 H   0  0  0  0  0  0  0  0  0  0  0  0
   -2.3483    2.2365    0.4568 H   0  0  0  0  0  0  0  0  0  0  0  0
   -1.1323    0.5701    2.1961 H   0  0  0  0  0  0  0  0  0  0  0  0
   -2.0036   -1.4074    3.6897 H   0  0  0  0  0  0  0  0  0  0  0  0
   -4.3490   -2.8819    3.7245 H   0  0  0  0  0  0  0  0  0  0  0  0
   -6.5486   -3.2112    2.6681 H   0  0  0  0  0  0  0  0  0  0  0  0
   -7.1754   -1.7938    0.8005 H   0  0  0  0  0  0  0  0  0  0  0  0
   -5.5947   -0.0177   -0.0358 H   0  0  0  0  0  0  0  0  0  0  0  0
   -0.7801    0.6505   -0.6140 H   0  0  0  0  0  0  0  0  0  0  0  0
   -0.8686   -2.7341   -2.9895 H   0  0  0  0  0  0  0  0  0  0  0  0
   -3.1025   -2.0556   -1.0661 H   0  0  0  0  0  0  0  0  0  0  0  0
   -3.0861   -2.2798   -2.8829 H   0  0  0  0  0  0  0  0  0  0  0  0
   -2.9091   -4.3507   -3.8979 H   0  0  0  0  0  0  0  0  0  0  0  0
   -3.2958   -6.7269   -3.8055 H   0  0  0  0  0  0  0  0  0  0  0  0
   -2.6963   -8.7420   -1.5515 H   0  0  0  0  0  0  0  0  0  0  0  0
   -3.2320   -6.4902    0.4880 H   0  0  0  0  0  0  0  0  0  0  0  0
   -2.8296   -4.0145    0.3216 H   0  0  0  0  0  0  0  0  0  0  0  0
   -0.4715   -3.9230   -0.9494 H   0  0  0  0  0  0  0  0  0  0  0  0
    1.9885   -1.2990   -1.5664 H   0  0  0  0  0  0  0  0  0  0  0  0
    3.9711   -2.3317   -0.9422 H   0  0  0  0  0  0  0  0  0  0  0  0
    2.6879   -3.4657   -1.3431 H   0  0  0  0  0  0  0  0  0  0  0  0
    4.6157   -2.0327    1.5732 H   0  0  0  0  0  0  0  0  0  0  0  0
    4.8452   -3.2121    3.6875 H   0  0  0  0  0  0  0  0  0  0  0  0
    3.1064   -6.2520    4.5902 H   0  0  0  0  0  0  0  0  0  0  0  0
    2.0952   -6.1657    2.4904 H   0  0  0  0  0  0  0  0  0  0  0  0
    1.8008   -5.0382    0.3196 H   0  0  0  0  0  0  0  0  0  0  0  0
    1.8208   -0.6460    1.3244 H   0  0  0  0  0  0  0  0  0  0  0  0
    2.1750    1.0950   -1.7389 H   0  0  0  0  0  0  0  0  0  0  0  0
    4.0050   -0.3241   -2.2987 H   0  0  0  0  0  0  0  0  0  0  0  0
    4.2245    1.2938   -2.9626 H   0  0  0  0  0  0  0  0  0  0  0  0
    5.8580   -1.0729   -0.2252 H   0  0  0  0  0  0  0  0  0  0  0  0
    8.3486    2.2681   -0.6609 H   0  0  0  0  0  0  0  0  0  0  0  0
    6.2035    2.7294   -2.0266 H   0  0  0  0  0  0  0  0  0  0  0  0
    3.8433    3.1245   -1.9004 H   0  0  0  0  0  0  0  0  0  0  0  0
   -2.1429    4.6839    0.5201 H   0  0  0  0  0  0  0  0  0  0  0  0
   -0.9298    6.5375    0.8686 H   0  0  0  0  0  0  0  0  0  0  0  0
   -0.2102    6.3707   -0.8188 H   0  0  0  0  0  0  0  0  0  0  0  0
   -1.6779    7.3102   -0.5665 H   0  0  0  0  0  0  0  0  0  0  0  0
   -4.1721    4.9546   -0.6113 H   0  0  0  0  0  0  0  0  0  0  0  0
   -3.5666    6.6195   -0.1869 H   0  0  0  0  0  0  0  0  0  0  0  0
   -3.4370    6.0596   -1.8812 H   0  0  0  0  0  0  0  0  0  0  0  0
  1  2  1  0
  2  3  1  0
  2  4  1  0
  4  5  1  0
  5  6  1  0
  6  7  2  0
  6  8  1  0
  8  9  1  0
  9 10  1  0
 10 11  2  0
 10 12  1  0
 12 13  1  0
 13 14  1  0
 14 15  2  0
 15 16  1  0
 16 17  1  0
 17 18  2  0
 18 19  1  0
 19 20  2  0
 20 21  1  0
 21 22  2  0
 12 23  1  0
 23 24  1  0
 24 25  2  0
 24 26  1  0
 26 27  1  0
 27 28  1  0
 28 29  2  0
 29 30  1  0
 30 31  2  0
 31 32  1  0
 31 33  1  0
 33 34  2  0
 26 35  1  0
 35 36  1  0
 36 37  2  0
 36 38  1  0
 38 39  1  0
 39 40  1  0
 40 41  2  0
 41 42  1  0
 42 43  2  0
 43 44  1  0
 43 45  1  0
 45 46  2  0
 38 47  1  0
 47 48  1  0
 48 49  2  0
 48 50  1  0
 50 51  1  0
 51 52  1  0
 52 53  2  0
 53 54  1  0
 54 55  2  0
 55 56  1  0
 50 57  1  0
 57 58  1  0
 58 59  2  0
  8 60  1  0
 60 61  1  0
 60 62  1  0
 58  4  1  0
 22 14  1  0
 34 28  1  0
 46 40  1  0
 56 52  1  0
 22 17  1  0
  1 63  1  0
  1 64  1  0
  1 65  1  0
  2 66  1  0
  3 67  1  0
  3 68  1  0
  3 69  1  0
  4 70  1  1
  5 71  1  0
  8 72  1  6
  9 73  1  0
 12 74  1  6
 13 75  1  0
 13 76  1  0
 15 77  1  0
 16 78  1  0
 18 79  1  0
 19 80  1  0
 20 81  1  0
 21 82  1  0
 23 83  1  0
 26 84  1  6
 27 85  1  0
 27 86  1  0
 29 87  1  0
 30 88  1  0
 32 89  1  0
 33 90  1  0
 34 91  1  0
 35 92  1  0
 38 93  1  6
 39 94  1  0
 39 95  1  0
 41 96  1  0
 42 97  1  0
 44 98  1  0
 45 99  1  0
 46100  1  0
 47101  1  0
 50102  1  6
 51103  1  0
 51104  1  0
 53105  1  0
 55106  1  0
 56107  1  0
 57108  1  0
 60109  1  0
 61110  1  0
 61111  1  0
 61112  1  0
 62113  1  0
 62114  1  0
 62115  1  0
M  END
$$$$
[H]N=C(N([H])[H])N([H])C([H])([H])C([H])([H])C([H])([H])[C@@]([H])(C(=O)c1nc([H])c([H])s1)N([H])C(=O)[C@@]1([H])N(C(=O)[C@]([H])(N([H])S(=O)(=O)C([H])([H])c2c([H])c([H])c([H])c([H])c2[H])C([H])([H])c2c([H])c([H])c([H])c([H])c2[H])C([H])([H])C([H])([H])C1([H])[H]
     RDKit          3D

 81 84  0  0  0  0  0  0  0  0999 V2000
    7.1169    3.7601    2.1088 N   0  0  0  0  0  0  0  0  0  0  0  0
    6.9650    3.1159    0.8634 C   0  0  0  0  0  0  0  0  0  0  0  0
    6.9835    3.7880   -0.2257 N   0  0  0  0  0  0  0  0  0  0  0  0
    6.7907    1.7125    0.8260 N   0  0  0  0  0  0  0  0  0  0  0  0
    5.4426    1.1285    0.7274 C   0  0  0  0  0  0  0  0  0  0  0  0
    5.7040   -0.4149    0.7303 C   0  0  0  0  0  0  0  0  0  0  0  0
    4.3930   -1.1156    0.6577 C   0  0  0  0  0  0  0  0  0  0  0  0
    3.6761   -0.9046   -0.5786 C   0  0  2  0  0  0  0  0  0  0  0  0
    2.2729   -1.4184   -0.6076 N   0  0  0  0  0  0  0  0  0  0  0  0
    1.2082   -0.6853   -1.1600 C   0  0  0  0  0  0  0  0  0  0  0  0
    1.4823    0.4429   -1.6462 O   0  0  0  0  0  0  0  0  0  0  0  0
   -0.1928   -1.2352   -1.1660 C   0  0  2  0  0  0  0  0  0  0  0  0
   -0.1100   -2.6107   -1.8667 C   0  0  0  0  0  0  0  0  0  0  0  0
   -0.9325   -2.4260   -3.1476 C   0  0  0  0  0  0  0  0  0  0  0  0
   -0.7864   -0.9093   -3.3442 C   0  0  0  0  0  0  0  0  0  0  0  0
   -1.0970   -0.4820   -1.9674 N   0  0  0  0  0  0  0  0  0  0  0  0
   -2.0787    0.4409   -1.6508 C   0  0  0  0  0  0  0  0  0  0  0  0
   -2.7736    0.9609   -2.6221 O   0  0  0  0  0  0  0  0  0  0  0  0
   -2.4881    0.9569   -0.3236 C   0  0  1  0  0  0  0  0  0  0  0  0
   -1.4352    1.7769    0.3373 C   0  0  0  0  0  0  0  0  0  0  0  0
   -1.8347    2.3190    1.6631 C   0  0  0  0  0  0  0  0  0  0  0  0
   -2.4653    3.5437    1.7230 C   0  0  0  0  0  0  0  0  0  0  0  0
   -2.8455    4.0952    2.9277 C   0  0  0  0  0  0  0  0  0  0  0  0
   -2.5904    3.4086    4.0985 C   0  0  0  0  0  0  0  0  0  0  0  0
   -1.9560    2.1725    4.0620 C   0  0  0  0  0  0  0  0  0  0  0  0
   -1.5858    1.6421    2.8463 C   0  0  0  0  0  0  0  0  0  0  0  0
   -3.6743    1.8235   -0.4537 N   0  0  0  0  0  0  0  0  0  0  0  0
   -5.0720    1.1518    0.2441 S   0  0  0  0  0  0  0  0  0  0  0  0
   -6.2120    2.1250    0.0261 O   0  0  0  0  0  0  0  0  0  0  0  0
   -4.9551    0.9215    1.7071 O   0  0  0  0  0  0  0  0  0  0  0  0
   -5.5458   -0.3827   -0.5257 C   0  0  0  0  0  0  0  0  0  0  0  0
   -6.7776   -0.8686    0.1762 C   0  0  0  0  0  0  0  0  0  0  0  0
   -8.0270   -0.4937   -0.2582 C   0  0  0  0  0  0  0  0  0  0  0  0
   -9.1422   -0.9466    0.3993 C   0  0  0  0  0  0  0  0  0  0  0  0
   -9.0771   -1.7816    1.5037 C   0  0  0  0  0  0  0  0  0  0  0  0
   -7.8104   -2.1368    1.9101 C   0  0  0  0  0  0  0  0  0  0  0  0
   -6.6733   -1.6961    1.2677 C   0  0  0  0  0  0  0  0  0  0  0  0
    4.2742   -1.6057   -1.7489 C   0  0  0  0  0  0  0  0  0  0  0  0
    3.5994   -1.4062   -2.8432 O   0  0  0  0  0  0  0  0  0  0  0  0
    5.4291   -2.4512   -1.8696 C   0  0  0  0  0  0  0  0  0  0  0  0
    6.3005   -2.9827   -1.0400 N   0  0  0  0  0  0  0  0  0  0  0  0
    7.2754   -3.7198   -1.4338 C   0  0  0  0  0  0  0  0  0  0  0  0
    7.3891   -3.9461   -2.7856 C   0  0  0  0  0  0  0  0  0  0  0  0
    6.0659   -3.0689   -3.3923 S   0  0  0  0  0  0  0  0  0  0  0  0
    6.9359    4.7750    2.1925 H   0  0  0  0  0  0  0  0  0  0  0  0
    7.4115    3.2523    2.9734 H   0  0  0  0  0  0  0  0  0  0  0  0
    6.8785    3.3836   -1.1724 H   0  0  0  0  0  0  0  0  0  0  0  0
    7.6455    1.1265    0.8689 H   0  0  0  0  0  0  0  0  0  0  0  0
    4.8192    1.4041    1.5747 H   0  0  0  0  0  0  0  0  0  0  0  0
    5.0451    1.4053   -0.2652 H   0  0  0  0  0  0  0  0  0  0  0  0
    6.3714   -0.5100   -0.1325 H   0  0  0  0  0  0  0  0  0  0  0  0
    6.2482   -0.6088    1.6769 H   0  0  0  0  0  0  0  0  0  0  0  0
    3.8206   -0.8259    1.5865 H   0  0  0  0  0  0  0  0  0  0  0  0
    4.6410   -2.2240    0.8127 H   0  0  0  0  0  0  0  0  0  0  0  0
    3.6291    0.1885   -0.8441 H   0  0  0  0  0  0  0  0  0  0  0  0
    2.1330   -2.3427   -0.1984 H   0  0  0  0  0  0  0  0  0  0  0  0
   -0.4871   -1.3548   -0.1220 H   0  0  0  0  0  0  0  0  0  0  0  0
    0.9266   -2.7996   -2.2404 H   0  0  0  0  0  0  0  0  0  0  0  0
   -0.4794   -3.4193   -1.2363 H   0  0  0  0  0  0  0  0  0  0  0  0
   -1.9612   -2.7073   -2.9268 H   0  0  0  0  0  0  0  0  0  0  0  0
   -0.4691   -2.9855   -3.9923 H   0  0  0  0  0  0  0  0  0  0  0  0
   -1.5301   -0.5484   -4.0511 H   0  0  0  0  0  0  0  0  0  0  0  0
    0.2498   -0.7180   -3.6159 H   0  0  0  0  0  0  0  0  0  0  0  0
   -2.7957    0.0787    0.2667 H   0  0  0  0  0  0  0  0  0  0  0  0
   -0.5331    1.1676    0.5277 H   0  0  0  0  0  0  0  0  0  0  0  0
   -1.2169    2.6583   -0.3152 H   0  0  0  0  0  0  0  0  0  0  0  0
   -2.6693    4.0900    0.7976 H   0  0  0  0  0  0  0  0  0  0  0  0
   -3.3417    5.0625    2.9456 H   0  0  0  0  0  0  0  0  0  0  0  0
   -2.8841    3.8258    5.0747 H   0  0  0  0  0  0  0  0  0  0  0  0
   -1.7659    1.6502    5.0043 H   0  0  0  0  0  0  0  0  0  0  0  0
   -1.0903    0.6827    2.7852 H   0  0  0  0  0  0  0  0  0  0  0  0
   -3.7946    2.2082   -1.3907 H   0  0  0  0  0  0  0  0  0  0  0  0
   -4.7853   -1.1653   -0.4044 H   0  0  0  0  0  0  0  0  0  0  0  0
   -5.7722   -0.2486   -1.5996 H   0  0  0  0  0  0  0  0  0  0  0  0
   -8.0975    0.1700   -1.1339 H   0  0  0  0  0  0  0  0  0  0  0  0
  -10.1089   -0.6270    0.0220 H   0  0  0  0  0  0  0  0  0  0  0  0
   -9.9687   -2.1258    2.0077 H   0  0  0  0  0  0  0  0  0  0  0  0
   -7.7289   -2.7928    2.7739 H   0  0  0  0  0  0  0  0  0  0  0  0
   -5.6760   -2.0053    1.6238 H   0  0  0  0  0  0  0  0  0  0  0  0
    8.0116   -4.1678   -0.7214 H   0  0  0  0  0  0  0  0  0  0  0  0
    8.1592   -4.5502   -3.3010 H   0  0  0  0  0  0  0  0  0  0  0  0
  1  2  1  0
  2  3  2  3
  2  4  1  0
  4  5  1  0
  5  6  1  0
  6  7  1  0
  7  8  1  0
  8  9  1  0
  9 10  1  0
 10 11  2  0
 10 12  1  0
 12 13  1  0
 13 14  1  0
 14 15  1  0
 15 16  1  0
 16 17  1  0
 17 18  2  0
 17 19  1  0
 19 20  1  0
 20 21  1  0
 21 22  2  0
 22 23  1  0
 23 24  2  0
 24 25  1  0
 25 26  2  0
 19 27  1  0
 27 28  1  0
 28 29  2  0
 28 30  2  0
 28 31  1  0
 31 32  1  0
 32 33  2  0
 33 34  1  0
 34 35  2  0
 35 36  1  0
 36 37  2  0
  8 38  1  0
 38 39  2  0
 38 40  1  0
 40 41  2  0
 41 42  1  0
 42 43  2  0
 43 44  1  0
 16 12  1  0
 26 21  1  0
 37 32  1  0
 44 40  1  0
  1 45  1  0
  1 46  1  0
  3 47  1  0
  4 48  1  0
  5 49  1  0
  5 50  1  0
  6 51  1  0
  6 52  1  0
  7 53  1  0
  7 54  1  0
  8 55  1  6
  9 56  1  0
 12 57  1  1
 13 58  1  0
 13 59  1  0
 14 60  1  0
 14 61  1  0
 15 62  1  0
 15 63  1  0
 19 64  1  1
 20 65  1  0
 20 66  1  0
 22 67  1  0
 23 68  1  0
 24 69  1  0
 25 70  1  0
 26 71  1  0
 27 72  1  0
 31 73  1  0
 31 74  1  0
 33 75  1  0
 34 76  1  0
 35 77  1  0
 36 78  1  0
 37 79  1  0
 42 80  1  0
 43 81  1  0
M  END
$$$$
[H]c1c([H])c(C(=O)N([H])c2nnc(-c3c([H])c([H])c(Oc4c([H])c([H])c([N+](=O)[O-])c([H])c4Br)c([H])c3[H])s2)c([H])c([H])c1Br
     RDKit          3D

 44 47  0  0  0  0  0  0  0  0999 V2000
  -10.3313    0.0711    1.6863 O   0  0  0  0  0  0  0  0  0  0  0  0
   -9.3462    0.9946    1.5745 N   0  0  0  0  0  0  0  0  0  0  0  0
   -9.4532    2.0793    2.1646 O   0  0  0  0  0  0  0  0  0  0  0  0
   -8.1890    0.7346    0.7872 C   0  0  0  0  0  0  0  0  0  0  0  0
   -8.0395   -0.4776    0.1107 C   0  0  0  0  0  0  0  0  0  0  0  0
   -6.9197   -0.7032   -0.6386 C   0  0  0  0  0  0  0  0  0  0  0  0
   -5.9010    0.2470   -0.7566 C   0  0  0  0  0  0  0  0  0  0  0  0
   -4.8371   -0.0717   -1.5190 O   0  0  0  0  0  0  0  0  0  0  0  0
   -3.5073   -0.1669   -1.2345 C   0  0  0  0  0  0  0  0  0  0  0  0
   -3.0139   -1.1728   -0.4169 C   0  0  0  0  0  0  0  0  0  0  0  0
   -1.6547   -1.2837   -0.1202 C   0  0  0  0  0  0  0  0  0  0  0  0
   -0.7622   -0.3798   -0.6435 C   0  0  0  0  0  0  0  0  0  0  0  0
   -1.2779    0.6039   -1.4488 C   0  0  0  0  0  0  0  0  0  0  0  0
   -2.6185    0.7353   -1.7581 C   0  0  0  0  0  0  0  0  0  0  0  0
    0.6829   -0.4430   -0.3678 C   0  0  0  0  0  0  0  0  0  0  0  0
    1.3599   -1.3103    0.3775 N   0  0  0  0  0  0  0  0  0  0  0  0
    2.6095   -1.1967    0.4922 N   0  0  0  0  0  0  0  0  0  0  0  0
    3.2524   -0.2124   -0.1298 C   0  0  0  0  0  0  0  0  0  0  0  0
    4.6492    0.0888   -0.1297 N   0  0  0  0  0  0  0  0  0  0  0  0
    5.5460   -0.7134    0.6025 C   0  0  0  0  0  0  0  0  0  0  0  0
    5.1317   -1.7164    1.2739 O   0  0  0  0  0  0  0  0  0  0  0  0
    6.9608   -0.4071    0.6020 C   0  0  0  0  0  0  0  0  0  0  0  0
    7.8277   -1.3346    1.1779 C   0  0  0  0  0  0  0  0  0  0  0  0
    9.1954   -1.1502    1.2392 C   0  0  0  0  0  0  0  0  0  0  0  0
    9.7325    0.0083    0.7046 C   0  0  0  0  0  0  0  0  0  0  0  0
   11.6227    0.2485    0.7968 Br  0  0  0  0  0  0  0  0  0  0  0  0
    8.9085    0.9493    0.1267 C   0  0  0  0  0  0  0  0  0  0  0  0
    7.5283    0.7298    0.0820 C   0  0  0  0  0  0  0  0  0  0  0  0
    1.9516    0.5734   -0.9141 S   0  0  0  0  0  0  0  0  0  0  0  0
   -6.0594    1.4213   -0.0932 C   0  0  0  0  0  0  0  0  0  0  0  0
   -4.7853    2.8192   -0.1296 Br  0  0  0  0  0  0  0  0  0  0  0  0
   -7.2077    1.6723    0.6845 C   0  0  0  0  0  0  0  0  0  0  0  0
   -8.8447   -1.2000    0.2179 H   0  0  0  0  0  0  0  0  0  0  0  0
   -6.8352   -1.6459   -1.1466 H   0  0  0  0  0  0  0  0  0  0  0  0
   -3.7073   -1.8905    0.0011 H   0  0  0  0  0  0  0  0  0  0  0  0
   -1.2787   -2.0630    0.5123 H   0  0  0  0  0  0  0  0  0  0  0  0
   -0.5502    1.3172   -1.8581 H   0  0  0  0  0  0  0  0  0  0  0  0
   -2.9473    1.5512   -2.4315 H   0  0  0  0  0  0  0  0  0  0  0  0
    4.9939    0.8941   -0.6674 H   0  0  0  0  0  0  0  0  0  0  0  0
    7.4090   -2.2475    1.5992 H   0  0  0  0  0  0  0  0  0  0  0  0
    9.8583   -1.8766    1.6885 H   0  0  0  0  0  0  0  0  0  0  0  0
    9.3005    1.8603   -0.2972 H   0  0  0  0  0  0  0  0  0  0  0  0
    6.8684    1.4616   -0.3673 H   0  0  0  0  0  0  0  0  0  0  0  0
   -7.3218    2.6024    1.2033 H   0  0  0  0  0  0  0  0  0  0  0  0
  1  2  1  0
  2  3  2  0
  2  4  1  0
  4  5  2  0
  5  6  1  0
  6  7  2  0
  7  8  1  0
  8  9  1  0
  9 10  2  0
 10 11  1  0
 11 12  2  0
 12 13  1  0
 13 14  2  0
 12 15  1  0
 15 16  2  0
 16 17  1  0
 17 18  2  0
 18 19  1  0
 19 20  1  0
 20 21  2  0
 20 22  1  0
 22 23  2  0
 23 24  1  0
 24 25  2  0
 25 26  1  0
 25 27  1  0
 27 28  2  0
 18 29  1  0
  7 30  1  0
 30 31  1  0
 30 32  2  0
 32  4  1  0
 14  9  1  0
 29 15  1  0
 28 22  1  0
  5 33  1  0
  6 34  1  0
 10 35  1  0
 11 36  1  0
 13 37  1  0
 14 38  1  0
 19 39  1  0
 23 40  1  0
 24 41  1  0
 27 42  1  0
 28 43  1  0
 32 44  1  0
M  CHG  2   1  -1   2   1
M  END
$$$$
[H]OC(c1c([H])nc(N2C([H])([H])C([H])([H])N(c3c([H])c([H])c(F)c([H])c3[H])C([H])([H])[C@@]2([H])C([H])(C([H])([H])[H])C([H])([H])[H])c([H])c1[H])(C(F)(F)F)C(F)(F)F
     RDKit          3D

 54 56  0  0  0  0  0  0  0  0999 V2000
   -0.3510    2.9858    1.5720 C   0  0  0  0  0  0  0  0  0  0  0  0
    0.8985    2.5501    0.8686 C   0  0  0  0  0  0  0  0  0  0  0  0
    1.0371    3.1365   -0.5076 C   0  0  0  0  0  0  0  0  0  0  0  0
    1.2777    1.1367    1.0408 C   0  0  2  0  0  0  0  0  0  0  0  0
    2.5222    0.7661    0.2703 C   0  0  0  0  0  0  0  0  0  0  0  0
    2.8885   -0.5788    0.6648 N   0  0  0  0  0  0  0  0  0  0  0  0
    2.2424   -1.2301    1.8061 C   0  0  0  0  0  0  0  0  0  0  0  0
    0.7372   -1.1793    1.6377 C   0  0  0  0  0  0  0  0  0  0  0  0
    0.3296    0.1068    0.9874 N   0  0  0  0  0  0  0  0  0  0  0  0
   -0.9585    0.0320    0.4357 C   0  0  0  0  0  0  0  0  0  0  0  0
   -1.3312    0.4549   -0.7916 C   0  0  0  0  0  0  0  0  0  0  0  0
   -2.6551    0.3745   -1.1911 C   0  0  0  0  0  0  0  0  0  0  0  0
   -3.6347   -0.1351   -0.3687 C   0  0  0  0  0  0  0  0  0  0  0  0
   -3.2245   -0.5608    0.8743 C   0  0  0  0  0  0  0  0  0  0  0  0
   -1.9221   -0.4653    1.2305 N   0  0  0  0  0  0  0  0  0  0  0  0
   -5.0246   -0.1645   -0.8661 C   0  0  0  0  0  0  0  0  0  0  0  0
   -5.3732    1.1662   -1.1578 O   0  0  0  0  0  0  0  0  0  0  0  0
   -6.0421   -0.6509    0.1248 C   0  0  0  0  0  0  0  0  0  0  0  0
   -5.8579   -1.9441    0.5504 F   0  0  0  0  0  0  0  0  0  0  0  0
   -6.1045    0.2189    1.2308 F   0  0  0  0  0  0  0  0  0  0  0  0
   -7.2923   -0.5584   -0.4367 F   0  0  0  0  0  0  0  0  0  0  0  0
   -5.1322   -1.0392   -2.0773 C   0  0  0  0  0  0  0  0  0  0  0  0
   -4.7264   -2.3233   -1.7009 F   0  0  0  0  0  0  0  0  0  0  0  0
   -6.4599   -1.2231   -2.4940 F   0  0  0  0  0  0  0  0  0  0  0  0
   -4.4862   -0.5961   -3.2044 F   0  0  0  0  0  0  0  0  0  0  0  0
    3.8932   -1.2445   -0.0715 C   0  0  0  0  0  0  0  0  0  0  0  0
    3.9359   -2.6200   -0.1791 C   0  0  0  0  0  0  0  0  0  0  0  0
    4.9423   -3.2612   -0.8880 C   0  0  0  0  0  0  0  0  0  0  0  0
    5.9350   -2.5350   -1.5104 C   0  0  0  0  0  0  0  0  0  0  0  0
    6.9145   -3.1824   -2.1998 F   0  0  0  0  0  0  0  0  0  0  0  0
    5.8946   -1.1689   -1.4057 C   0  0  0  0  0  0  0  0  0  0  0  0
    4.8945   -0.5328   -0.7007 C   0  0  0  0  0  0  0  0  0  0  0  0
   -1.2229    3.1183    0.8635 H   0  0  0  0  0  0  0  0  0  0  0  0
   -0.6086    2.2926    2.3924 H   0  0  0  0  0  0  0  0  0  0  0  0
   -0.2500    3.9942    2.0297 H   0  0  0  0  0  0  0  0  0  0  0  0
    1.7181    3.1327    1.4572 H   0  0  0  0  0  0  0  0  0  0  0  0
    1.1577    2.3835   -1.3078 H   0  0  0  0  0  0  0  0  0  0  0  0
    1.9258    3.8124   -0.6306 H   0  0  0  0  0  0  0  0  0  0  0  0
    0.1495    3.7892   -0.6825 H   0  0  0  0  0  0  0  0  0  0  0  0
    1.6701    1.0740    2.1438 H   0  0  0  0  0  0  0  0  0  0  0  0
    2.3510    0.7267   -0.8279 H   0  0  0  0  0  0  0  0  0  0  0  0
    3.3575    1.4555    0.5285 H   0  0  0  0  0  0  0  0  0  0  0  0
    2.5658   -0.6461    2.7223 H   0  0  0  0  0  0  0  0  0  0  0  0
    2.5927   -2.2407    1.9571 H   0  0  0  0  0  0  0  0  0  0  0  0
    0.4470   -2.0209    0.9982 H   0  0  0  0  0  0  0  0  0  0  0  0
    0.2558   -1.2337    2.6121 H   0  0  0  0  0  0  0  0  0  0  0  0
   -0.6394    0.8360   -1.5010 H   0  0  0  0  0  0  0  0  0  0  0  0
   -2.9251    0.7604   -2.1943 H   0  0  0  0  0  0  0  0  0  0  0  0
   -3.9601   -0.9612    1.5524 H   0  0  0  0  0  0  0  0  0  0  0  0
   -5.9947    1.5461   -0.4894 H   0  0  0  0  0  0  0  0  0  0  0  0
    3.1513   -3.1895    0.3018 H   0  0  0  0  0  0  0  0  0  0  0  0
    4.9151   -4.3411   -0.9327 H   0  0  0  0  0  0  0  0  0  0  0  0
    6.6594   -0.5637   -1.8829 H   0  0  0  0  0  0  0  0  0  0  0  0
    4.9170    0.5402   -0.6527 H   0  0  0  0  0  0  0  0  0  0  0  0
  1  2  1  0
  2  3  1  0
  2  4  1  0
  4  5  1  0
  5  6  1  0
  6  7  1  0
  7  8  1  0
  8  9  1  0
  9 10  1  0
 10 11  2  0
 11 12  1  0
 12 13  2  0
 13 14  1  0
 14 15  2  0
 13 16  1  0
 16 17  1  0
 16 18  1  0
 18 19  1  0
 18 20  1  0
 18 21  1  0
 16 22  1  0
 22 23  1  0
 22 24  1  0
 22 25  1  0
  6 26  1  0
 26 27  2  0
 27 28  1  0
 28 29  2  0
 29 30  1  0
 29 31  1  0
 31 32  2  0
  9  4  1  0
 15 10  1  0
 32 26  1  0
  1 33  1  0
  1 34  1  0
  1 35  1  0
  2 36  1  0
  3 37  1  0
  3 38  1  0
  3 39  1  0
  4 40  1  1
  5 41  1  0
  5 42  1  0
  7 43  1  0
  7 44  1  0
  8 45  1  0
  8 46  1  0
 11 47  1  0
 12 48  1  0
 14 49  1  0
 17 50  1  0
 27 51  1  0
 28 52  1  0
 31 53  1  0
 32 54  1  0
M  END
$$$$
[H]OC(=O)c1c([H])c([H])c(N2C([H])([H])C([H])([H])N(c3c([H])c([H])c(F)c([H])c3[H])C([H])([H])[C@@]2([H])C([H])(C([H])([H])[H])C([H])([H])[H])c([H])c1C(F)(F)F
     RDKit          3D

 51 53  0  0  0  0  0  0  0  0999 V2000
    1.3903    0.2765   -3.0439 C   0  0  0  0  0  0  0  0  0  0  0  0
    0.4206   -0.7452   -2.5231 C   0  0  0  0  0  0  0  0  0  0  0  0
    0.9952   -2.1253   -2.8721 C   0  0  0  0  0  0  0  0  0  0  0  0
    0.2756   -0.6896   -1.0152 C   0  0  2  0  0  0  0  0  0  0  0  0
   -0.7066   -1.7394   -0.6014 C   0  0  0  0  0  0  0  0  0  0  0  0
   -2.0083   -1.1081   -0.3420 N   0  0  0  0  0  0  0  0  0  0  0  0
   -2.3618    0.1074   -0.9887 C   0  0  0  0  0  0  0  0  0  0  0  0
   -1.3145    1.1830   -0.8114 C   0  0  0  0  0  0  0  0  0  0  0  0
   -0.0124    0.6064   -0.5150 N   0  0  0  0  0  0  0  0  0  0  0  0
    0.8734    1.3974    0.2652 C   0  0  0  0  0  0  0  0  0  0  0  0
    0.6663    2.7698    0.4224 C   0  0  0  0  0  0  0  0  0  0  0  0
    1.4960    3.5442    1.1696 C   0  0  0  0  0  0  0  0  0  0  0  0
    2.6237    3.0299    1.8409 C   0  0  0  0  0  0  0  0  0  0  0  0
    3.4417    3.9308    2.6188 C   0  0  0  0  0  0  0  0  0  0  0  0
    4.5257    3.6635    3.3981 O   0  0  0  0  0  0  0  0  0  0  0  0
    3.1200    5.1772    2.5911 O   0  0  0  0  0  0  0  0  0  0  0  0
    2.8418    1.6846    1.6970 C   0  0  0  0  0  0  0  0  0  0  0  0
    1.9649    0.9010    0.9152 C   0  0  0  0  0  0  0  0  0  0  0  0
    4.0008    1.0365    2.3515 C   0  0  0  0  0  0  0  0  0  0  0  0
    3.9209   -0.3442    2.0140 F   0  0  0  0  0  0  0  0  0  0  0  0
    3.9265    1.0225    3.7261 F   0  0  0  0  0  0  0  0  0  0  0  0
    5.2122    1.5038    1.9170 F   0  0  0  0  0  0  0  0  0  0  0  0
   -2.9155   -1.7534    0.5542 C   0  0  0  0  0  0  0  0  0  0  0  0
   -3.9874   -1.1668    1.1639 C   0  0  0  0  0  0  0  0  0  0  0  0
   -4.8382   -1.8826    2.0176 C   0  0  0  0  0  0  0  0  0  0  0  0
   -4.6295   -3.2114    2.2796 C   0  0  0  0  0  0  0  0  0  0  0  0
   -5.4318   -3.9373    3.0989 F   0  0  0  0  0  0  0  0  0  0  0  0
   -3.5460   -3.7955    1.6611 C   0  0  0  0  0  0  0  0  0  0  0  0
   -2.7047   -3.1142    0.8250 C   0  0  0  0  0  0  0  0  0  0  0  0
    1.2455    0.4218   -4.1366 H   0  0  0  0  0  0  0  0  0  0  0  0
    1.1892    1.2680   -2.5748 H   0  0  0  0  0  0  0  0  0  0  0  0
    2.4426   -0.0231   -2.8767 H   0  0  0  0  0  0  0  0  0  0  0  0
   -0.5179   -0.6560   -3.0794 H   0  0  0  0  0  0  0  0  0  0  0  0
    1.4751   -2.5810   -1.9794 H   0  0  0  0  0  0  0  0  0  0  0  0
    1.7249   -2.0416   -3.7026 H   0  0  0  0  0  0  0  0  0  0  0  0
    0.1717   -2.7905   -3.2298 H   0  0  0  0  0  0  0  0  0  0  0  0
    1.2963   -1.0545   -0.6468 H   0  0  0  0  0  0  0  0  0  0  0  0
   -0.7965   -2.5068   -1.4071 H   0  0  0  0  0  0  0  0  0  0  0  0
   -0.3418   -2.2398    0.3374 H   0  0  0  0  0  0  0  0  0  0  0  0
   -3.3146    0.4901   -0.6014 H   0  0  0  0  0  0  0  0  0  0  0  0
   -2.5630   -0.0433   -2.0948 H   0  0  0  0  0  0  0  0  0  0  0  0
   -1.6224    1.7618    0.0815 H   0  0  0  0  0  0  0  0  0  0  0  0
   -1.2536    1.8242   -1.6838 H   0  0  0  0  0  0  0  0  0  0  0  0
   -0.2090    3.1698   -0.1047 H   0  0  0  0  0  0  0  0  0  0  0  0
    1.3108    4.5943    1.2724 H   0  0  0  0  0  0  0  0  0  0  0  0
    5.3846    4.2221    3.4079 H   0  0  0  0  0  0  0  0  0  0  0  0
    2.1922   -0.1414    0.8496 H   0  0  0  0  0  0  0  0  0  0  0  0
   -4.1834   -0.1088    0.9874 H   0  0  0  0  0  0  0  0  0  0  0  0
   -5.6583   -1.3520    2.4576 H   0  0  0  0  0  0  0  0  0  0  0  0
   -3.3628   -4.8479    1.8575 H   0  0  0  0  0  0  0  0  0  0  0  0
   -1.8485   -3.5872    0.3373 H   0  0  0  0  0  0  0  0  0  0  0  0
  1  2  1  0
  2  3  1  0
  2  4  1  0
  4  5  1  0
  5  6  1  0
  6  7  1  0
  7  8  1  0
  8  9  1  0
  9 10  1  0
 10 11  2  0
 11 12  1  0
 12 13  2  0
 13 14  1  0
 14 15  1  0
 14 16  2  0
 13 17  1  0
 17 18  2  0
 17 19  1  0
 19 20  1  0
 19 21  1  0
 19 22  1  0
  6 23  1  0
 23 24  2  0
 24 25  1  0
 25 26  2  0
 26 27  1  0
 26 28  1  0
 28 29  2  0
  9  4  1  0
 18 10  1  0
 29 23  1  0
  1 30  1  0
  1 31  1  0
  1 32  1  0
  2 33  1  0
  3 34  1  0
  3 35  1  0
  3 36  1  0
  4 37  1  1
  5 38  1  0
  5 39  1  0
  7 40  1  0
  7 41  1  0
  8 42  1  0
  8 43  1  0
 11 44  1  0
 12 45  1  0
 15 46  1  0
 18 47  1  0
 24 48  1  0
 25 49  1  0
 28 50  1  0
 29 51  1  0
M  END
$$$$
[H]OC([H])([H])[C@@]([H])(C(=O)N([H])[H])N([H])C(=O)[C@@]([H])(N([H])C(=O)[C@@]([H])(N([H])C(=O)[C@@]([H])(N([H])C(=O)[C@@]([H])(N([H])C(=O)[C@@]([H])(N([H])C(=O)[C@@]([H])(N([H])C(=O)C([H])([H])[H])C([H])([H])O[H])C([H])([H])O[H])C([H])([H])O[H])C([H])([H])O[H])C([H])([H])C([H])([H])C(=O)N([H])[H])C([H])([H])C([H])(C([H])([H])[H])C([H])([H])[H]
     RDKit          3D

100 99  0  0  0  0  0  0  0  0999 V2000
   -8.7834    0.7587   -1.6904 C   0  0  0  0  0  0  0  0  0  0  0  0
   -7.5674    1.6080   -1.6918 C   0  0  0  0  0  0  0  0  0  0  0  0
   -7.3957    2.1516   -3.1090 C   0  0  0  0  0  0  0  0  0  0  0  0
   -6.3145    1.0184   -1.2007 C   0  0  0  0  0  0  0  0  0  0  0  0
   -6.2160    0.5165    0.2040 C   0  0  2  0  0  0  0  0  0  0  0  0
   -4.8105    0.0568    0.2870 N   0  0  0  0  0  0  0  0  0  0  0  0
   -3.8158    0.7245    1.0466 C   0  0  0  0  0  0  0  0  0  0  0  0
   -4.1603    1.7569    1.6763 O   0  0  0  0  0  0  0  0  0  0  0  0
   -2.4434    0.2361    1.0919 C   0  0  2  0  0  0  0  0  0  0  0  0
   -2.1585   -0.7630    2.1918 C   0  0  0  0  0  0  0  0  0  0  0  0
   -2.4042   -0.2376    3.5778 C   0  0  0  0  0  0  0  0  0  0  0  0
   -2.0978   -1.2976    4.5680 C   0  0  0  0  0  0  0  0  0  0  0  0
   -2.3403   -1.0372    5.9341 N   0  0  0  0  0  0  0  0  0  0  0  0
   -1.6366   -2.3907    4.2041 O   0  0  0  0  0  0  0  0  0  0  0  0
   -1.4504    1.3135    1.0682 N   0  0  0  0  0  0  0  0  0  0  0  0
   -0.4619    1.3692    0.0739 C   0  0  0  0  0  0  0  0  0  0  0  0
   -0.4606    0.4533   -0.7912 O   0  0  0  0  0  0  0  0  0  0  0  0
    0.5629    2.4129   -0.0216 C   0  0  2  0  0  0  0  0  0  0  0  0
   -0.0186    3.7557   -0.4478 C   0  0  0  0  0  0  0  0  0  0  0  0
   -0.9283    4.1611    0.5272 O   0  0  0  0  0  0  0  0  0  0  0  0
    1.5102    2.0739   -1.1091 N   0  0  0  0  0  0  0  0  0  0  0  0
    2.8695    1.8975   -0.7606 C   0  0  0  0  0  0  0  0  0  0  0  0
    3.2544    2.0601    0.4546 O   0  0  0  0  0  0  0  0  0  0  0  0
    3.9293    1.5181   -1.7080 C   0  0  2  0  0  0  0  0  0  0  0  0
    3.6281    0.0741   -2.2377 C   0  0  0  0  0  0  0  0  0  0  0  0
    2.4215    0.0744   -2.9056 O   0  0  0  0  0  0  0  0  0  0  0  0
    5.1962    1.4810   -1.0325 N   0  0  0  0  0  0  0  0  0  0  0  0
    6.3944    1.3909   -1.7676 C   0  0  0  0  0  0  0  0  0  0  0  0
    6.3669    1.3350   -3.0114 O   0  0  0  0  0  0  0  0  0  0  0  0
    7.6686    1.3592   -1.0128 C   0  0  2  0  0  0  0  0  0  0  0  0
    8.3974    2.6532   -1.4251 C   0  0  0  0  0  0  0  0  0  0  0  0
    9.7003    2.6806   -0.9282 O   0  0  0  0  0  0  0  0  0  0  0  0
    8.4903    0.2942   -1.6034 N   0  0  0  0  0  0  0  0  0  0  0  0
    9.1206   -0.6545   -0.7493 C   0  0  0  0  0  0  0  0  0  0  0  0
    8.9870   -0.5751    0.5122 O   0  0  0  0  0  0  0  0  0  0  0  0
    9.9313   -1.7388   -1.3287 C   0  0  2  0  0  0  0  0  0  0  0  0
    8.9594   -2.6301   -2.1037 C   0  0  0  0  0  0  0  0  0  0  0  0
    7.9135   -2.9886   -1.2299 O   0  0  0  0  0  0  0  0  0  0  0  0
   10.4737   -2.4834   -0.1969 N   0  0  0  0  0  0  0  0  0  0  0  0
   11.8366   -2.7666   -0.1413 C   0  0  0  0  0  0  0  0  0  0  0  0
   12.5022   -3.4985    0.9584 C   0  0  0  0  0  0  0  0  0  0  0  0
   12.5791   -2.3691   -1.1008 O   0  0  0  0  0  0  0  0  0  0  0  0
   -7.0113   -0.7123    0.3836 C   0  0  0  0  0  0  0  0  0  0  0  0
   -6.6072   -1.7584   -0.1866 O   0  0  0  0  0  0  0  0  0  0  0  0
   -8.2004   -0.8071    1.1584 N   0  0  0  0  0  0  0  0  0  0  0  0
   -8.9207   -2.0304    1.2910 C   0  0  1  0  0  0  0  0  0  0  0  0
   -8.6831   -2.5103    2.7289 C   0  0  0  0  0  0  0  0  0  0  0  0
   -9.3612   -3.6926    2.9293 O   0  0  0  0  0  0  0  0  0  0  0  0
  -10.3737   -1.8821    1.1301 C   0  0  0  0  0  0  0  0  0  0  0  0
  -11.2692   -2.9805    1.2484 N   0  0  0  0  0  0  0  0  0  0  0  0
  -10.9147   -0.7553    0.8765 O   0  0  0  0  0  0  0  0  0  0  0  0
   -9.4229    1.0417   -2.5913 H   0  0  0  0  0  0  0  0  0  0  0  0
   -8.5217   -0.2977   -1.7781 H   0  0  0  0  0  0  0  0  0  0  0  0
   -9.4577    1.0095   -0.8358 H   0  0  0  0  0  0  0  0  0  0  0  0
   -7.8002    2.5160   -1.0588 H   0  0  0  0  0  0  0  0  0  0  0  0
   -7.7521    1.3989   -3.8321 H   0  0  0  0  0  0  0  0  0  0  0  0
   -8.0191    3.0584   -3.1980 H   0  0  0  0  0  0  0  0  0  0  0  0
   -6.3439    2.4463   -3.2957 H   0  0  0  0  0  0  0  0  0  0  0  0
   -5.4915    1.7796   -1.4140 H   0  0  0  0  0  0  0  0  0  0  0  0
   -6.0293    0.1903   -1.9359 H   0  0  0  0  0  0  0  0  0  0  0  0
   -6.4808    1.2434    0.9595 H   0  0  0  0  0  0  0  0  0  0  0  0
   -4.6232   -0.7941   -0.2703 H   0  0  0  0  0  0  0  0  0  0  0  0
   -2.2628   -0.3442    0.1521 H   0  0  0  0  0  0  0  0  0  0  0  0
   -1.1501   -1.1804    2.0516 H   0  0  0  0  0  0  0  0  0  0  0  0
   -2.8447   -1.6448    2.0811 H   0  0  0  0  0  0  0  0  0  0  0  0
   -1.7796    0.6605    3.7576 H   0  0  0  0  0  0  0  0  0  0  0  0
   -3.4477    0.0525    3.7166 H   0  0  0  0  0  0  0  0  0  0  0  0
   -3.2375   -0.6400    6.3048 H   0  0  0  0  0  0  0  0  0  0  0  0
   -1.6249   -1.2273    6.6810 H   0  0  0  0  0  0  0  0  0  0  0  0
   -1.4410    2.0725    1.7862 H   0  0  0  0  0  0  0  0  0  0  0  0
    1.1700    2.5112    0.8953 H   0  0  0  0  0  0  0  0  0  0  0  0
   -0.5756    3.6134   -1.4048 H   0  0  0  0  0  0  0  0  0  0  0  0
    0.7302    4.5371   -0.5512 H   0  0  0  0  0  0  0  0  0  0  0  0
   -0.6335    4.9820    0.9769 H   0  0  0  0  0  0  0  0  0  0  0  0
    1.1782    1.9752   -2.0826 H   0  0  0  0  0  0  0  0  0  0  0  0
    3.9038    2.1068   -2.6255 H   0  0  0  0  0  0  0  0  0  0  0  0
    4.4712   -0.1898   -2.8917 H   0  0  0  0  0  0  0  0  0  0  0  0
    3.5591   -0.5876   -1.3640 H   0  0  0  0  0  0  0  0  0  0  0  0
    2.4148    0.6634   -3.7011 H   0  0  0  0  0  0  0  0  0  0  0  0
    5.1942    1.5266    0.0102 H   0  0  0  0  0  0  0  0  0  0  0  0
    7.5714    1.2884    0.0656 H   0  0  0  0  0  0  0  0  0  0  0  0
    7.7655    3.4826   -1.0945 H   0  0  0  0  0  0  0  0  0  0  0  0
    8.3675    2.6545   -2.5510 H   0  0  0  0  0  0  0  0  0  0  0  0
    9.6393    2.4460    0.0300 H   0  0  0  0  0  0  0  0  0  0  0  0
    8.5847    0.2687   -2.6180 H   0  0  0  0  0  0  0  0  0  0  0  0
   10.7225   -1.4405   -2.0057 H   0  0  0  0  0  0  0  0  0  0  0  0
    9.4552   -3.5249   -2.5114 H   0  0  0  0  0  0  0  0  0  0  0  0
    8.5187   -2.0197   -2.8974 H   0  0  0  0  0  0  0  0  0  0  0  0
    7.5359   -2.1452   -0.8496 H   0  0  0  0  0  0  0  0  0  0  0  0
    9.8219   -2.7835    0.5429 H   0  0  0  0  0  0  0  0  0  0  0  0
   11.8176   -4.1314    1.5604 H   0  0  0  0  0  0  0  0  0  0  0  0
   13.3900   -4.0348    0.5770 H   0  0  0  0  0  0  0  0  0  0  0  0
   12.9174   -2.7685    1.7242 H   0  0  0  0  0  0  0  0  0  0  0  0
   -8.4951    0.0970    1.6189 H   0  0  0  0  0  0  0  0  0  0  0  0
   -8.5258   -2.7788    0.6010 H   0  0  0  0  0  0  0  0  0  0  0  0
   -9.0301   -1.7635    3.4426 H   0  0  0  0  0  0  0  0  0  0  0  0
   -7.5952   -2.7153    2.8971 H   0  0  0  0  0  0  0  0  0  0  0  0
   -8.8294   -4.5086    2.8359 H   0  0  0  0  0  0  0  0  0  0  0  0
  -11.4790   -3.6399    0.4992 H   0  0  0  0  0  0  0  0  0  0  0  0
  -11.7220   -3.0877    2.1767 H   0  0  0  0  0  0  0  0  0  0  0  0
  1  2  1  0
  2  3  1  0
  2  4  1  0
  4  5  1  0
  5  6  1  0
  6  7  1  0
  7  8  2  0
  7  9  1  0
  9 10  1  0
 10 11  1  0
 11 12  1  0
 12 13  1  0
 12 14  2  0
  9 15  1  0
 15 16  1  0
 16 17  2  0
 16 18  1  0
 18 19  1  0
 19 20  1  0
 18 21  1  0
 21 22  1  0
 22 23  2  0
 22 24  1  0
 24 25  1  0
 25 26  1  0
 24 27  1  0
 27 28  1  0
 28 29  2  0
 28 30  1  0
 30 31  1  0
 31 32  1  0
 30 33  1  0
 33 34  1  0
 34 35  2  0
 34 36  1  0
 36 37  1  0
 37 38  1  0
 36 39  1  0
 39 40  1  0
 40 41  1  0
 40 42  2  0
  5 43  1  0
 43 44  2  0
 43 45  1  0
 45 46  1  0
 46 47  1  0
 47 48  1  0
 46 49  1  0
 49 50  1  0
 49 51  2  0
  1 52  1  0
  1 53  1  0
  1 54  1  0
  2 55  1  0
  3 56  1  0
  3 57  1  0
  3 58  1  0
  4 59  1  0
  4 60  1  0
  5 61  1  1
  6 62  1  0
  9 63  1  6
 10 64  1  0
 10 65  1  0
 11 66  1  0
 11 67  1  0
 13 68  1  0
 13 69  1  0
 15 70  1  0
 18 71  1  1
 19 72  1  0
 19 73  1  0
 20 74  1  0
 21 75  1  0
 24 76  1  6
 25 77  1  0
 25 78  1  0
 26 79  1  0
 27 80  1  0
 30 81  1  1
 31 82  1  0
 31 83  1  0
 32 84  1  0
 33 85  1  0
 36 86  1  6
 37 87  1  0
 37 88  1  0
 38 89  1  0
 39 90  1  0
 41 91  1  0
 41 92  1  0
 41 93  1  0
 45 94  1  0
 46 95  1  6
 47 96  1  0
 47 97  1  0
 48 98  1  0
 50 99  1  0
 50100  1  0
M  END
$$$$
[H]c1nc(N([H])c2c([H])c([H])c(N3C([H])([H])C([H])([H])N(C([H])([H])[H])C([H])([H])C3([H])[H])c([H])c2OC([H])([H])[H])nc(N([H])c2c([H])c([H])c([H])c([H])c2S(=O)(=O)C([H])(C([H])([H])[H])C([H])([H])[H])c1Cl
     RDKit          3D

 67 70  0  0  0  0  0  0  0  0999 V2000
    2.7980   -3.3310   -1.2288 C   0  0  0  0  0  0  0  0  0  0  0  0
    1.9415   -2.2352   -0.9986 O   0  0  0  0  0  0  0  0  0  0  0  0
    2.4816   -1.0407   -0.5265 C   0  0  0  0  0  0  0  0  0  0  0  0
    3.8274   -0.9244   -0.2865 C   0  0  0  0  0  0  0  0  0  0  0  0
    4.4213    0.2145    0.1751 C   0  0  0  0  0  0  0  0  0  0  0  0
    3.5861    1.2917    0.4024 C   0  0  0  0  0  0  0  0  0  0  0  0
    2.2085    1.1836    0.1606 C   0  0  0  0  0  0  0  0  0  0  0  0
    1.6255    0.0523   -0.2972 C   0  0  0  0  0  0  0  0  0  0  0  0
    0.2667   -0.0963   -0.5497 N   0  0  0  0  0  0  0  0  0  0  0  0
   -0.7485    0.8732   -0.3847 C   0  0  0  0  0  0  0  0  0  0  0  0
   -0.5976    2.1249    0.0475 N   0  0  0  0  0  0  0  0  0  0  0  0
   -1.5696    3.0148    0.1930 C   0  0  0  0  0  0  0  0  0  0  0  0
   -2.8553    2.6370   -0.1234 C   0  0  0  0  0  0  0  0  0  0  0  0
   -4.1874    3.7633    0.0449 Cl  0  0  0  0  0  0  0  0  0  0  0  0
   -3.1059    1.3214   -0.5915 C   0  0  0  0  0  0  0  0  0  0  0  0
   -4.4442    0.9705   -0.8839 N   0  0  0  0  0  0  0  0  0  0  0  0
   -4.8563   -0.2771   -1.3763 C   0  0  0  0  0  0  0  0  0  0  0  0
   -4.0250   -1.2445   -1.8945 C   0  0  0  0  0  0  0  0  0  0  0  0
   -4.4990   -2.4531   -2.4340 C   0  0  0  0  0  0  0  0  0  0  0  0
   -5.8636   -2.6532   -2.4324 C   0  0  0  0  0  0  0  0  0  0  0  0
   -6.7143   -1.7053   -1.9218 C   0  0  0  0  0  0  0  0  0  0  0  0
   -6.2437   -0.5196   -1.3917 C   0  0  0  0  0  0  0  0  0  0  0  0
   -7.3164    0.6608   -0.6987 S   0  0  0  0  0  0  0  0  0  0  0  0
   -7.3933    1.9371   -1.4847 O   0  0  0  0  0  0  0  0  0  0  0  0
   -8.7283    0.0574   -0.8397 O   0  0  0  0  0  0  0  0  0  0  0  0
   -7.0890    0.8939    1.0249 C   0  0  0  0  0  0  0  0  0  0  0  0
   -7.3480   -0.4235    1.7701 C   0  0  0  0  0  0  0  0  0  0  0  0
   -8.1301    1.8608    1.6013 C   0  0  0  0  0  0  0  0  0  0  0  0
   -2.0417    0.5457   -0.6857 N   0  0  0  0  0  0  0  0  0  0  0  0
    5.8136    0.2932    0.3958 N   0  0  0  0  0  0  0  0  0  0  0  0
    6.4498    1.3219    1.2076 C   0  0  0  0  0  0  0  0  0  0  0  0
    7.4716    0.7173    2.1500 C   0  0  0  0  0  0  0  0  0  0  0  0
    8.2281   -0.3570    1.5914 N   0  0  0  0  0  0  0  0  0  0  0  0
    9.2895    0.0606    0.7233 C   0  0  0  0  0  0  0  0  0  0  0  0
    7.3758   -1.3808    0.9847 C   0  0  0  0  0  0  0  0  0  0  0  0
    6.7127   -0.6643   -0.2033 C   0  0  0  0  0  0  0  0  0  0  0  0
    2.1978   -4.1742   -1.5940 H   0  0  0  0  0  0  0  0  0  0  0  0
    3.3465   -3.6080   -0.3147 H   0  0  0  0  0  0  0  0  0  0  0  0
    3.5586   -2.9887   -1.9679 H   0  0  0  0  0  0  0  0  0  0  0  0
    4.4382   -1.8245   -0.4810 H   0  0  0  0  0  0  0  0  0  0  0  0
    4.0232    2.2148    0.7675 H   0  0  0  0  0  0  0  0  0  0  0  0
    1.6829    2.0994    0.3817 H   0  0  0  0  0  0  0  0  0  0  0  0
   -0.0953   -1.0472   -0.9152 H   0  0  0  0  0  0  0  0  0  0  0  0
   -1.3686    4.0319    0.5559 H   0  0  0  0  0  0  0  0  0  0  0  0
   -5.1553    1.7451   -0.7241 H   0  0  0  0  0  0  0  0  0  0  0  0
   -2.9519   -1.1300   -1.9331 H   0  0  0  0  0  0  0  0  0  0  0  0
   -3.8051   -3.1751   -2.8254 H   0  0  0  0  0  0  0  0  0  0  0  0
   -6.2117   -3.5899   -2.8525 H   0  0  0  0  0  0  0  0  0  0  0  0
   -7.7729   -1.8830   -1.9315 H   0  0  0  0  0  0  0  0  0  0  0  0
   -6.0945    1.2164    1.2893 H   0  0  0  0  0  0  0  0  0  0  0  0
   -7.0459   -0.2515    2.8164 H   0  0  0  0  0  0  0  0  0  0  0  0
   -6.7761   -1.2538    1.3513 H   0  0  0  0  0  0  0  0  0  0  0  0
   -8.4409   -0.6809    1.6975 H   0  0  0  0  0  0  0  0  0  0  0  0
   -8.1469    1.6683    2.6953 H   0  0  0  0  0  0  0  0  0  0  0  0
   -7.8558    2.8834    1.3399 H   0  0  0  0  0  0  0  0  0  0  0  0
   -9.1318    1.5480    1.2224 H   0  0  0  0  0  0  0  0  0  0  0  0
    5.6986    1.8496    1.8178 H   0  0  0  0  0  0  0  0  0  0  0  0
    6.9306    2.0340    0.5190 H   0  0  0  0  0  0  0  0  0  0  0  0
    6.9661    0.3984    3.0955 H   0  0  0  0  0  0  0  0  0  0  0  0
    8.1853    1.5113    2.4512 H   0  0  0  0  0  0  0  0  0  0  0  0
    9.0845    1.0803    0.3255 H   0  0  0  0  0  0  0  0  0  0  0  0
   10.2479    0.0559    1.3173 H   0  0  0  0  0  0  0  0  0  0  0  0
    9.3924   -0.6645   -0.1011 H   0  0  0  0  0  0  0  0  0  0  0  0
    6.5706   -1.6106    1.6897 H   0  0  0  0  0  0  0  0  0  0  0  0
    7.9791   -2.2304    0.6689 H   0  0  0  0  0  0  0  0  0  0  0  0
    6.2815   -1.3420   -0.9293 H   0  0  0  0  0  0  0  0  0  0  0  0
    7.5281   -0.0532   -0.6714 H   0  0  0  0  0  0  0  0  0  0  0  0
  1  2  1  0
  2  3  1  0
  3  4  2  0
  4  5  1  0
  5  6  2  0
  6  7  1  0
  7  8  2  0
  8  9  1  0
  9 10  1  0
 10 11  2  0
 11 12  1  0
 12 13  2  0
 13 14  1  0
 13 15  1  0
 15 16  1  0
 16 17  1  0
 17 18  2  0
 18 19  1  0
 19 20  2  0
 20 21  1  0
 21 22  2  0
 22 23  1  0
 23 24  2  0
 23 25  2  0
 23 26  1  0
 26 27  1  0
 26 28  1  0
 15 29  2  0
  5 30  1  0
 30 31  1  0
 31 32  1  0
 32 33  1  0
 33 34  1  0
 33 35  1  0
 35 36  1  0
  8  3  1  0
 29 10  1  0
 36 30  1  0
 22 17  1  0
  1 37  1  0
  1 38  1  0
  1 39  1  0
  4 40  1  0
  6 41  1  0
  7 42  1  0
  9 43  1  0
 12 44  1  0
 16 45  1  0
 18 46  1  0
 19 47  1  0
 20 48  1  0
 21 49  1  0
 26 50  1  0
 27 51  1  0
 27 52  1  0
 27 53  1  0
 28 54  1  0
 28 55  1  0
 28 56  1  0
 31 57  1  0
 31 58  1  0
 32 59  1  0
 32 60  1  0
 34 61  1  0
 34 62  1  0
 34 63  1  0
 35 64  1  0
 35 65  1  0
 36 66  1  0
 36 67  1  0
M  END
$$$$
[H]OC(=O)C([H])([H])[C@@]([H])(C([H])=O)N([H])C(=O)[C@@]([H])(C([H])([H])C(=O)N([H])C([H])([H])C([H])([H])c1c([H])c([H])c([H])c([H])c1[H])C([H])(C([H])([H])[H])C([H])([H])[H]
     RDKit          3D

 52 52  0  0  0  0  0  0  0  0999 V2000
   -2.5799   -3.9778   -0.7402 C   0  0  0  0  0  0  0  0  0  0  0  0
   -2.5577   -2.4881   -0.4694 C   0  0  0  0  0  0  0  0  0  0  0  0
   -3.0062   -2.3154    0.9564 C   0  0  0  0  0  0  0  0  0  0  0  0
   -1.2511   -1.8411   -0.8109 C   0  0  2  0  0  0  0  0  0  0  0  0
   -0.0855   -2.3471   -0.0701 C   0  0  0  0  0  0  0  0  0  0  0  0
    1.2179   -1.7043   -0.4826 C   0  0  0  0  0  0  0  0  0  0  0  0
    1.1827   -0.8284   -1.3604 O   0  0  0  0  0  0  0  0  0  0  0  0
    2.3884   -2.1241    0.1303 N   0  0  0  0  0  0  0  0  0  0  0  0
    3.7360   -1.7940    0.0310 C   0  0  0  0  0  0  0  0  0  0  0  0
    4.1960   -0.4698    0.4473 C   0  0  0  0  0  0  0  0  0  0  0  0
    3.7032    0.7309   -0.1911 C   0  0  0  0  0  0  0  0  0  0  0  0
    4.2242    1.1135   -1.4355 C   0  0  0  0  0  0  0  0  0  0  0  0
    3.8377    2.2876   -2.0104 C   0  0  0  0  0  0  0  0  0  0  0  0
    2.9284    3.1484   -1.4092 C   0  0  0  0  0  0  0  0  0  0  0  0
    2.4118    2.7831   -0.1903 C   0  0  0  0  0  0  0  0  0  0  0  0
    2.7872    1.6042    0.4074 C   0  0  0  0  0  0  0  0  0  0  0  0
   -1.4473   -0.3716   -0.7325 C   0  0  0  0  0  0  0  0  0  0  0  0
   -1.3954    0.3314   -1.8130 O   0  0  0  0  0  0  0  0  0  0  0  0
   -1.6963    0.3580    0.4355 N   0  0  0  0  0  0  0  0  0  0  0  0
   -1.8955    1.8167    0.4041 C   0  0  1  0  0  0  0  0  0  0  0  0
   -3.3648    2.1130    0.6834 C   0  0  0  0  0  0  0  0  0  0  0  0
   -3.6124    3.5598    0.6374 C   0  0  0  0  0  0  0  0  0  0  0  0
   -2.6498    4.4390    0.1892 O   0  0  0  0  0  0  0  0  0  0  0  0
   -4.7407    4.0138    1.0178 O   0  0  0  0  0  0  0  0  0  0  0  0
   -1.0561    2.3970    1.4686 C   0  0  0  0  0  0  0  0  0  0  0  0
   -0.3812    1.6403    2.1801 O   0  0  0  0  0  0  0  0  0  0  0  0
   -3.6509   -4.2738   -0.6993 H   0  0  0  0  0  0  0  0  0  0  0  0
   -2.0869   -4.5593    0.0720 H   0  0  0  0  0  0  0  0  0  0  0  0
   -2.2283   -4.2396   -1.7519 H   0  0  0  0  0  0  0  0  0  0  0  0
   -3.3450   -2.0435   -1.1122 H   0  0  0  0  0  0  0  0  0  0  0  0
   -2.1546   -2.3713    1.6486 H   0  0  0  0  0  0  0  0  0  0  0  0
   -3.6965   -3.1878    1.1800 H   0  0  0  0  0  0  0  0  0  0  0  0
   -3.6400   -1.4099    1.0619 H   0  0  0  0  0  0  0  0  0  0  0  0
   -1.0617   -2.0683   -1.9021 H   0  0  0  0  0  0  0  0  0  0  0  0
    0.0269   -3.4252   -0.0092 H   0  0  0  0  0  0  0  0  0  0  0  0
   -0.2022   -2.0070    1.0047 H   0  0  0  0  0  0  0  0  0  0  0  0
    2.1953   -2.9146    0.8863 H   0  0  0  0  0  0  0  0  0  0  0  0
    4.0332   -2.0070   -1.0611 H   0  0  0  0  0  0  0  0  0  0  0  0
    4.3782   -2.5861    0.5837 H   0  0  0  0  0  0  0  0  0  0  0  0
    5.3400   -0.4684    0.4576 H   0  0  0  0  0  0  0  0  0  0  0  0
    4.0045   -0.3025    1.5779 H   0  0  0  0  0  0  0  0  0  0  0  0
    4.9411    0.4621   -1.9386 H   0  0  0  0  0  0  0  0  0  0  0  0
    4.2418    2.5852   -2.9776 H   0  0  0  0  0  0  0  0  0  0  0  0
    2.6310    4.0812   -1.8803 H   0  0  0  0  0  0  0  0  0  0  0  0
    1.6947    3.4438    0.3027 H   0  0  0  0  0  0  0  0  0  0  0  0
    2.3782    1.3333    1.3537 H   0  0  0  0  0  0  0  0  0  0  0  0
   -1.7446   -0.0500    1.3838 H   0  0  0  0  0  0  0  0  0  0  0  0
   -1.6636    2.2603   -0.5693 H   0  0  0  0  0  0  0  0  0  0  0  0
   -3.9447    1.6421   -0.1412 H   0  0  0  0  0  0  0  0  0  0  0  0
   -3.6916    1.6938    1.6616 H   0  0  0  0  0  0  0  0  0  0  0  0
   -2.6352    4.8861   -0.7076 H   0  0  0  0  0  0  0  0  0  0  0  0
   -1.0128    3.4514    1.6445 H   0  0  0  0  0  0  0  0  0  0  0  0
  1  2  1  0
  2  3  1  0
  2  4  1  0
  4  5  1  0
  5  6  1  0
  6  7  2  0
  6  8  1  0
  8  9  1  0
  9 10  1  0
 10 11  1  0
 11 12  2  0
 12 13  1  0
 13 14  2  0
 14 15  1  0
 15 16  2  0
  4 17  1  0
 17 18  2  0
 17 19  1  0
 19 20  1  0
 20 21  1  0
 21 22  1  0
 22 23  1  0
 22 24  2  0
 20 25  1  0
 25 26  2  0
 16 11  1  0
  1 27  1  0
  1 28  1  0
  1 29  1  0
  2 30  1  0
  3 31  1  0
  3 32  1  0
  3 33  1  0
  4 34  1  6
  5 35  1  0
  5 36  1  0
  8 37  1  0
  9 38  1  0
  9 39  1  0
 10 40  1  0
 10 41  1  0
 12 42  1  0
 13 43  1  0
 14 44  1  0
 15 45  1  0
 16 46  1  0
 19 47  1  0
 20 48  1  6
 21 49  1  0
 21 50  1  0
 23 51  1  0
 25 52  1  0
M  END
$$$$
[H]c1c([H])c([C@]2([H])C([H])([H])N(S(=O)(=O)c3c([H])c([H])c(OC([H])([H])[H])c([H])c3[H])C([H])([H])[C@]2([H])N([H])C(=O)c2c([H])c(OC([H])([H])[H])c(OC([H])([H])[H])c(OC([H])([H])[H])c2[H])c([H])c([H])c1F
     RDKit          3D

 67 70  0  0  0  0  0  0  0  0999 V2000
   -5.7872    2.5077   -2.8494 C   0  0  0  0  0  0  0  0  0  0  0  0
   -6.0279    2.0009   -1.5471 O   0  0  0  0  0  0  0  0  0  0  0  0
   -5.0175    1.3338   -0.8778 C   0  0  0  0  0  0  0  0  0  0  0  0
   -3.7868    1.1601   -1.4662 C   0  0  0  0  0  0  0  0  0  0  0  0
   -2.7440    0.4891   -0.8136 C   0  0  0  0  0  0  0  0  0  0  0  0
   -3.0154    0.0150    0.4420 C   0  0  0  0  0  0  0  0  0  0  0  0
   -4.2556    0.1768    1.0639 C   0  0  0  0  0  0  0  0  0  0  0  0
   -4.5131   -0.3083    2.3327 O   0  0  0  0  0  0  0  0  0  0  0  0
   -3.6030   -0.9985    3.1315 C   0  0  0  0  0  0  0  0  0  0  0  0
   -5.2585    0.8422    0.3924 C   0  0  0  0  0  0  0  0  0  0  0  0
   -6.4931    0.9969    1.0255 O   0  0  0  0  0  0  0  0  0  0  0  0
   -6.7796    2.1226    1.8381 C   0  0  0  0  0  0  0  0  0  0  0  0
   -1.4693    0.3241   -1.4570 C   0  0  0  0  0  0  0  0  0  0  0  0
   -1.3151    0.7511   -2.6277 O   0  0  0  0  0  0  0  0  0  0  0  0
   -0.3752   -0.3027   -0.8225 N   0  0  0  0  0  0  0  0  0  0  0  0
    0.9154   -0.4587   -1.5009 C   0  0  1  0  0  0  0  0  0  0  0  0
    1.9479    0.1778   -0.5514 C   0  0  0  0  0  0  0  0  0  0  0  0
    2.1836   -0.8165    0.4592 N   0  0  0  0  0  0  0  0  0  0  0  0
    1.5823   -2.0601    0.0465 C   0  0  0  0  0  0  0  0  0  0  0  0
    1.4419   -1.8732   -1.4449 C   0  0  1  0  0  0  0  0  0  0  0  0
    0.6540   -2.8823   -2.1204 C   0  0  0  0  0  0  0  0  0  0  0  0
   -0.5766   -3.2577   -1.6623 C   0  0  0  0  0  0  0  0  0  0  0  0
   -1.3462   -4.2265   -2.3110 C   0  0  0  0  0  0  0  0  0  0  0  0
   -0.8712   -4.8297   -3.4405 C   0  0  0  0  0  0  0  0  0  0  0  0
   -1.6288   -5.7833   -4.0784 F   0  0  0  0  0  0  0  0  0  0  0  0
    0.3650   -4.4687   -3.9208 C   0  0  0  0  0  0  0  0  0  0  0  0
    1.1232   -3.4958   -3.2585 C   0  0  0  0  0  0  0  0  0  0  0  0
    3.8625   -1.1042    0.7265 S   0  0  0  0  0  0  0  0  0  0  0  0
    4.0838   -2.1301    1.7961 O   0  0  0  0  0  0  0  0  0  0  0  0
    4.5462   -1.5484   -0.5182 O   0  0  0  0  0  0  0  0  0  0  0  0
    4.6488    0.3727    1.2909 C   0  0  0  0  0  0  0  0  0  0  0  0
    4.7470    0.7097    2.6031 C   0  0  0  0  0  0  0  0  0  0  0  0
    5.3866    1.8971    2.9550 C   0  0  0  0  0  0  0  0  0  0  0  0
    5.9123    2.7194    1.9934 C   0  0  0  0  0  0  0  0  0  0  0  0
    6.5412    3.8880    2.3474 O   0  0  0  0  0  0  0  0  0  0  0  0
    6.6531    4.2542    3.6963 C   0  0  0  0  0  0  0  0  0  0  0  0
    5.8086    2.3727    0.6815 C   0  0  0  0  0  0  0  0  0  0  0  0
    5.1768    1.1991    0.3291 C   0  0  0  0  0  0  0  0  0  0  0  0
   -4.8487    3.1346   -2.8636 H   0  0  0  0  0  0  0  0  0  0  0  0
   -6.6515    3.0915   -3.2255 H   0  0  0  0  0  0  0  0  0  0  0  0
   -5.6219    1.6766   -3.5495 H   0  0  0  0  0  0  0  0  0  0  0  0
   -3.6174    1.5573   -2.4725 H   0  0  0  0  0  0  0  0  0  0  0  0
   -2.2839   -0.5128    1.0231 H   0  0  0  0  0  0  0  0  0  0  0  0
   -4.1535   -1.6188    3.8837 H   0  0  0  0  0  0  0  0  0  0  0  0
   -2.9507   -1.6932    2.5509 H   0  0  0  0  0  0  0  0  0  0  0  0
   -2.9829   -0.2714    3.7318 H   0  0  0  0  0  0  0  0  0  0  0  0
   -5.8371    2.5533    2.2650 H   0  0  0  0  0  0  0  0  0  0  0  0
   -7.2674    2.9158    1.2353 H   0  0  0  0  0  0  0  0  0  0  0  0
   -7.4559    1.8818    2.6812 H   0  0  0  0  0  0  0  0  0  0  0  0
   -0.5110   -0.6492    0.1499 H   0  0  0  0  0  0  0  0  0  0  0  0
    0.9260   -0.0102   -2.4928 H   0  0  0  0  0  0  0  0  0  0  0  0
    2.8407    0.4174   -1.1631 H   0  0  0  0  0  0  0  0  0  0  0  0
    1.5457    1.1135   -0.1283 H   0  0  0  0  0  0  0  0  0  0  0  0
    0.6202   -2.2815    0.5536 H   0  0  0  0  0  0  0  0  0  0  0  0
    2.2997   -2.9223    0.1645 H   0  0  0  0  0  0  0  0  0  0  0  0
    2.4893   -1.7938   -1.8410 H   0  0  0  0  0  0  0  0  0  0  0  0
   -0.9691   -2.7990   -0.7716 H   0  0  0  0  0  0  0  0  0  0  0  0
   -2.3193   -4.5159   -1.9396 H   0  0  0  0  0  0  0  0  0  0  0  0
    0.7221   -4.9582   -4.8157 H   0  0  0  0  0  0  0  0  0  0  0  0
    2.0881   -3.2418   -3.6687 H   0  0  0  0  0  0  0  0  0  0  0  0
    4.3360    0.0664    3.3517 H   0  0  0  0  0  0  0  0  0  0  0  0
    5.4347    2.1114    3.9983 H   0  0  0  0  0  0  0  0  0  0  0  0
    7.0802    3.3916    4.2632 H   0  0  0  0  0  0  0  0  0  0  0  0
    5.6657    4.4656    4.1774 H   0  0  0  0  0  0  0  0  0  0  0  0
    7.3556    5.1249    3.8209 H   0  0  0  0  0  0  0  0  0  0  0  0
    6.2227    3.0202   -0.0755 H   0  0  0  0  0  0  0  0  0  0  0  0
    5.1274    0.9797   -0.7258 H   0  0  0  0  0  0  0  0  0  0  0  0
  1  2  1  0
  2  3  1  0
  3  4  2  0
  4  5  1  0
  5  6  2  0
  6  7  1  0
  7  8  1  0
  8  9  1  0
  7 10  2  0
 10 11  1  0
 11 12  1  0
  5 13  1  0
 13 14  2  0
 13 15  1  0
 15 16  1  0
 16 17  1  0
 17 18  1  0
 18 19  1  0
 19 20  1  0
 20 21  1  0
 21 22  2  0
 22 23  1  0
 23 24  2  0
 24 25  1  0
 24 26  1  0
 26 27  2  0
 18 28  1  0
 28 29  2  0
 28 30  2  0
 28 31  1  0
 31 32  2  0
 32 33  1  0
 33 34  2  0
 34 35  1  0
 35 36  1  0
 34 37  1  0
 37 38  2  0
 10  3  1  0
 20 16  1  0
 27 21  1  0
 38 31  1  0
  1 39  1  0
  1 40  1  0
  1 41  1  0
  4 42  1  0
  6 43  1  0
  9 44  1  0
  9 45  1  0
  9 46  1  0
 12 47  1  0
 12 48  1  0
 12 49  1  0
 15 50  1  0
 16 51  1  6
 17 52  1  0
 17 53  1  0
 19 54  1  0
 19 55  1  0
 20 56  1  6
 22 57  1  0
 23 58  1  0
 26 59  1  0
 27 60  1  0
 32 61  1  0
 33 62  1  0
 36 63  1  0
 36 64  1  0
 36 65  1  0
 37 66  1  0
 38 67  1  0
M  END
$$$$
[H]c1c(Cl)c([H])c2c(C3=C(c4c([H])n([H])c5c([H])c([H])c([H])c([H])c45)C(=O)N([H])C3=O)nc(N3C([H])([H])C([H])([H])N(C([H])([H])[H])C([H])([H])C3([H])[H])nc2c1[H]
     RDKit          3D

 55 60  0  0  0  0  0  0  0  0999 V2000
   -5.4461    2.9529   -0.1495 C   0  0  0  0  0  0  0  0  0  0  0  0
   -4.7580    1.7338   -0.4832 N   0  0  0  0  0  0  0  0  0  0  0  0
   -4.7263    0.7676    0.5625 C   0  0  0  0  0  0  0  0  0  0  0  0
   -3.3632    0.7197    1.2313 C   0  0  0  0  0  0  0  0  0  0  0  0
   -2.3907    0.3339    0.2412 N   0  0  0  0  0  0  0  0  0  0  0  0
   -2.5215    0.8667   -1.0941 C   0  0  0  0  0  0  0  0  0  0  0  0
   -3.5458    1.9439   -1.2004 C   0  0  0  0  0  0  0  0  0  0  0  0
   -1.3125   -0.5450    0.5148 C   0  0  0  0  0  0  0  0  0  0  0  0
   -0.4227   -0.9096   -0.4117 N   0  0  0  0  0  0  0  0  0  0  0  0
    0.6084   -1.7621   -0.1170 C   0  0  0  0  0  0  0  0  0  0  0  0
    1.5379   -2.1384   -1.1776 C   0  0  0  0  0  0  0  0  0  0  0  0
    2.2929   -1.2998   -1.8940 C   0  0  0  0  0  0  0  0  0  0  0  0
    3.0862   -2.0903   -2.8774 C   0  0  0  0  0  0  0  0  0  0  0  0
    3.9059   -1.5714   -3.7011 O   0  0  0  0  0  0  0  0  0  0  0  0
    2.7628   -3.4527   -2.7191 N   0  0  0  0  0  0  0  0  0  0  0  0
    1.8069   -3.5040   -1.6767 C   0  0  0  0  0  0  0  0  0  0  0  0
    1.2382   -4.5367   -1.2123 O   0  0  0  0  0  0  0  0  0  0  0  0
    2.4255    0.1445   -1.8128 C   0  0  0  0  0  0  0  0  0  0  0  0
    2.2204    1.0261   -2.8869 C   0  0  0  0  0  0  0  0  0  0  0  0
    2.4574    2.2846   -2.4919 N   0  0  0  0  0  0  0  0  0  0  0  0
    2.8096    2.2543   -1.2025 C   0  0  0  0  0  0  0  0  0  0  0  0
    3.1574    3.3071   -0.3747 C   0  0  0  0  0  0  0  0  0  0  0  0
    3.5042    3.0327    0.9327 C   0  0  0  0  0  0  0  0  0  0  0  0
    3.4962    1.7286    1.3776 C   0  0  0  0  0  0  0  0  0  0  0  0
    3.1489    0.6780    0.5523 C   0  0  0  0  0  0  0  0  0  0  0  0
    2.7972    0.9237   -0.7560 C   0  0  0  0  0  0  0  0  0  0  0  0
    0.6818   -2.2181    1.1780 C   0  0  0  0  0  0  0  0  0  0  0  0
    1.7087   -3.0492    1.5584 C   0  0  0  0  0  0  0  0  0  0  0  0
    1.7578   -3.4672    2.8834 C   0  0  0  0  0  0  0  0  0  0  0  0
    3.0824   -4.5285    3.3254 Cl  0  0  0  0  0  0  0  0  0  0  0  0
    0.8317   -3.0894    3.8317 C   0  0  0  0  0  0  0  0  0  0  0  0
   -0.1979   -2.2519    3.4517 C   0  0  0  0  0  0  0  0  0  0  0  0
   -0.2460   -1.8389    2.1437 C   0  0  0  0  0  0  0  0  0  0  0  0
   -1.2298   -1.0056    1.7894 N   0  0  0  0  0  0  0  0  0  0  0  0
   -5.3595    3.2034    0.9375 H   0  0  0  0  0  0  0  0  0  0  0  0
   -6.5258    2.8268   -0.3983 H   0  0  0  0  0  0  0  0  0  0  0  0
   -4.9881    3.7883   -0.7252 H   0  0  0  0  0  0  0  0  0  0  0  0
   -4.9470   -0.2501    0.1826 H   0  0  0  0  0  0  0  0  0  0  0  0
   -5.4587    1.0371    1.3522 H   0  0  0  0  0  0  0  0  0  0  0  0
   -3.1047    1.7023    1.6648 H   0  0  0  0  0  0  0  0  0  0  0  0
   -3.4416   -0.0559    2.0332 H   0  0  0  0  0  0  0  0  0  0  0  0
   -2.7121    0.0040   -1.7902 H   0  0  0  0  0  0  0  0  0  0  0  0
   -1.5327    1.3265   -1.3905 H   0  0  0  0  0  0  0  0  0  0  0  0
   -3.0665    2.9019   -0.8738 H   0  0  0  0  0  0  0  0  0  0  0  0
   -3.8296    2.0069   -2.2917 H   0  0  0  0  0  0  0  0  0  0  0  0
    3.1260   -4.2665   -3.2356 H   0  0  0  0  0  0  0  0  0  0  0  0
    1.9174    0.6746   -3.8584 H   0  0  0  0  0  0  0  0  0  0  0  0
    2.3818    3.1381   -3.0818 H   0  0  0  0  0  0  0  0  0  0  0  0
    3.1693    4.3317   -0.7062 H   0  0  0  0  0  0  0  0  0  0  0  0
    3.7827    3.8285    1.6129 H   0  0  0  0  0  0  0  0  0  0  0  0
    3.7646    1.4928    2.3962 H   0  0  0  0  0  0  0  0  0  0  0  0
    3.1605   -0.3550    0.9097 H   0  0  0  0  0  0  0  0  0  0  0  0
    2.4743   -3.3402    0.8582 H   0  0  0  0  0  0  0  0  0  0  0  0
    0.9374   -3.4605    4.8523 H   0  0  0  0  0  0  0  0  0  0  0  0
   -0.9057   -1.9740    4.2170 H   0  0  0  0  0  0  0  0  0  0  0  0
  1  2  1  0
  2  3  1  0
  3  4  1  0
  4  5  1  0
  5  6  1  0
  6  7  1  0
  5  8  1  0
  8  9  2  0
  9 10  1  0
 10 11  1  0
 11 12  2  0
 12 13  1  0
 13 14  2  0
 13 15  1  0
 15 16  1  0
 16 17  2  0
 12 18  1  0
 18 19  2  0
 19 20  1  0
 20 21  1  0
 21 22  2  0
 22 23  1  0
 23 24  2  0
 24 25  1  0
 25 26  2  0
 10 27  2  0
 27 28  1  0
 28 29  2  0
 29 30  1  0
 29 31  1  0
 31 32  2  0
 32 33  1  0
 33 34  2  0
  7  2  1  0
 34  8  1  0
 16 11  1  0
 26 18  1  0
 33 27  1  0
 26 21  1  0
  1 35  1  0
  1 36  1  0
  1 37  1  0
  3 38  1  0
  3 39  1  0
  4 40  1  0
  4 41  1  0
  6 42  1  0
  6 43  1  0
  7 44  1  0
  7 45  1  0
 15 46  1  0
 19 47  1  0
 20 48  1  0
 22 49  1  0
 23 50  1  0
 24 51  1  0
 25 52  1  0
 28 53  1  0
 31 54  1  0
 32 55  1  0
M  END
$$$$
[H]Oc1c([H])c([H])c(C([H])([H])[C@@]2([H])C(=O)N([H])[C@@]([H])(C([H])([H])c3c([H])c([H])c(O[H])c([H])c3[H])C(=O)N([H])[C@@]([H])(C([H])(C([H])([H])[H])C([H])([H])[H])C(=O)N([H])[C@@]([H])(C([H])([H])C([H])(C([H])([H])[H])C([H])([H])[H])C(=O)N([H])[C@@]([H])(C([H])([H])c3c([H])c([H])c(O[H])c([H])c3[H])C(=O)N([H])[C@@]([H])([C@@]([H])(C([H])([H])[H])C([H])([H])C([H])([H])[H])C(=O)N2[H])c([H])c1[H]
     RDKit          3D

117120  0  0  0  0  0  0  0  0999 V2000
    2.9844    2.6223    3.9807 C   0  0  0  0  0  0  0  0  0  0  0  0
    2.3358    2.0108    2.7389 C   0  0  0  0  0  0  0  0  0  0  0  0
    0.9777    2.6010    2.6241 C   0  0  2  0  0  0  0  0  0  0  0  0
    0.2000    2.2762    3.8522 C   0  0  0  0  0  0  0  0  0  0  0  0
    0.2536    2.2961    1.3202 C   0  0  2  0  0  0  0  0  0  0  0  0
    1.1199    2.8485    0.2789 N   0  0  0  0  0  0  0  0  0  0  0  0
    1.6692    2.2252   -0.8257 C   0  0  0  0  0  0  0  0  0  0  0  0
    1.4067    2.7337   -1.9802 O   0  0  0  0  0  0  0  0  0  0  0  0
    2.5408    1.0302   -0.9171 C   0  0  2  0  0  0  0  0  0  0  0  0
    3.8883    1.3918   -1.5349 C   0  0  0  0  0  0  0  0  0  0  0  0
    4.6631    2.3840   -0.7899 C   0  0  0  0  0  0  0  0  0  0  0  0
    5.5753    1.9524    0.1817 C   0  0  0  0  0  0  0  0  0  0  0  0
    6.3454    2.8234    0.9107 C   0  0  0  0  0  0  0  0  0  0  0  0
    6.2432    4.1873    0.7047 C   0  0  0  0  0  0  0  0  0  0  0  0
    7.0299    5.0839    1.4490 O   0  0  0  0  0  0  0  0  0  0  0  0
    5.3560    4.6292   -0.2418 C   0  0  0  0  0  0  0  0  0  0  0  0
    4.5919    3.7503   -0.9639 C   0  0  0  0  0  0  0  0  0  0  0  0
    1.9613    0.0632   -1.8300 N   0  0  0  0  0  0  0  0  0  0  0  0
    2.2431   -1.3010   -1.9154 C   0  0  0  0  0  0  0  0  0  0  0  0
    2.5701   -1.8274   -3.0443 O   0  0  0  0  0  0  0  0  0  0  0  0
    2.2048   -2.2881   -0.7685 C   0  0  2  0  0  0  0  0  0  0  0  0
    3.6391   -2.3457   -0.2828 C   0  0  0  0  0  0  0  0  0  0  0  0
    3.9236   -3.2193    0.8695 C   0  0  0  0  0  0  0  0  0  0  0  0
    3.6476   -4.6686    0.7478 C   0  0  0  0  0  0  0  0  0  0  0  0
    5.4359   -3.0903    1.1459 C   0  0  0  0  0  0  0  0  0  0  0  0
    1.8537   -3.5694   -1.3452 N   0  0  0  0  0  0  0  0  0  0  0  0
    0.7011   -4.3222   -1.2610 C   0  0  0  0  0  0  0  0  0  0  0  0
    0.8295   -5.6182   -1.2164 O   0  0  0  0  0  0  0  0  0  0  0  0
   -0.7189   -3.9214   -1.2093 C   0  0  1  0  0  0  0  0  0  0  0  0
   -1.0869   -2.8112   -2.0297 N   0  0  0  0  0  0  0  0  0  0  0  0
   -2.3215   -2.1237   -1.9197 C   0  0  0  0  0  0  0  0  0  0  0  0
   -2.9289   -1.6756   -2.9515 O   0  0  0  0  0  0  0  0  0  0  0  0
   -2.9580   -1.9023   -0.5679 C   0  0  2  0  0  0  0  0  0  0  0  0
   -4.4224   -1.9009   -0.6506 C   0  0  0  0  0  0  0  0  0  0  0  0
   -5.1928   -1.7147    0.5839 C   0  0  0  0  0  0  0  0  0  0  0  0
   -5.4209   -2.7934    1.4549 C   0  0  0  0  0  0  0  0  0  0  0  0
   -6.1672   -2.6869    2.6011 C   0  0  0  0  0  0  0  0  0  0  0  0
   -6.7297   -1.4836    2.9395 C   0  0  0  0  0  0  0  0  0  0  0  0
   -7.4992   -1.2884    4.0823 O   0  0  0  0  0  0  0  0  0  0  0  0
   -6.5301   -0.3942    2.1085 C   0  0  0  0  0  0  0  0  0  0  0  0
   -5.7796   -0.5340    0.9705 C   0  0  0  0  0  0  0  0  0  0  0  0
   -2.2294   -0.9110    0.1188 N   0  0  0  0  0  0  0  0  0  0  0  0
   -2.4696    0.3710    0.5932 C   0  0  0  0  0  0  0  0  0  0  0  0
   -2.4608    0.5304    1.8855 O   0  0  0  0  0  0  0  0  0  0  0  0
   -2.7427    1.6397   -0.0766 C   0  0  2  0  0  0  0  0  0  0  0  0
   -2.3507    1.7702   -1.5121 C   0  0  0  0  0  0  0  0  0  0  0  0
   -2.7670    3.1417   -1.9514 C   0  0  0  0  0  0  0  0  0  0  0  0
   -2.0028    4.2536   -1.9055 C   0  0  0  0  0  0  0  0  0  0  0  0
   -2.5002    5.4654   -2.3360 C   0  0  0  0  0  0  0  0  0  0  0  0
   -3.7910    5.5557   -2.8209 C   0  0  0  0  0  0  0  0  0  0  0  0
   -4.3025    6.7543   -3.2543 O   0  0  0  0  0  0  0  0  0  0  0  0
   -4.6067    4.4422   -2.8852 C   0  0  0  0  0  0  0  0  0  0  0  0
   -4.0759    3.2506   -2.4470 C   0  0  0  0  0  0  0  0  0  0  0  0
   -2.2085    2.7964    0.6089 N   0  0  0  0  0  0  0  0  0  0  0  0
   -1.0588    2.9822    1.3468 C   0  0  0  0  0  0  0  0  0  0  0  0
   -1.1339    3.9299    2.2253 O   0  0  0  0  0  0  0  0  0  0  0  0
   -1.6409   -5.0710   -1.6775 C   0  0  0  0  0  0  0  0  0  0  0  0
   -1.3296   -5.4641   -3.0865 C   0  0  0  0  0  0  0  0  0  0  0  0
   -1.6559   -6.1770   -0.6849 C   0  0  0  0  0  0  0  0  0  0  0  0
    4.0842    2.7480    3.8068 H   0  0  0  0  0  0  0  0  0  0  0  0
    2.7787    2.0257    4.8933 H   0  0  0  0  0  0  0  0  0  0  0  0
    2.6098    3.6612    4.1663 H   0  0  0  0  0  0  0  0  0  0  0  0
    2.9828    2.3275    1.8686 H   0  0  0  0  0  0  0  0  0  0  0  0
    2.3899    0.9305    2.8400 H   0  0  0  0  0  0  0  0  0  0  0  0
    1.1141    3.7239    2.6162 H   0  0  0  0  0  0  0  0  0  0  0  0
    0.2849    3.0881    4.6339 H   0  0  0  0  0  0  0  0  0  0  0  0
    0.6463    1.3782    4.3742 H   0  0  0  0  0  0  0  0  0  0  0  0
   -0.8581    2.0145    3.7105 H   0  0  0  0  0  0  0  0  0  0  0  0
    0.2348    1.2238    1.1952 H   0  0  0  0  0  0  0  0  0  0  0  0
    1.3278    3.8857    0.4318 H   0  0  0  0  0  0  0  0  0  0  0  0
    2.6509    0.5104    0.0426 H   0  0  0  0  0  0  0  0  0  0  0  0
    3.6482    1.8225   -2.5511 H   0  0  0  0  0  0  0  0  0  0  0  0
    4.4873    0.4929   -1.7429 H   0  0  0  0  0  0  0  0  0  0  0  0
    5.6849    0.8856    0.3723 H   0  0  0  0  0  0  0  0  0  0  0  0
    7.0563    2.4933    1.6661 H   0  0  0  0  0  0  0  0  0  0  0  0
    7.9451    5.3708    1.1198 H   0  0  0  0  0  0  0  0  0  0  0  0
    5.2638    5.6827   -0.4161 H   0  0  0  0  0  0  0  0  0  0  0  0
    3.9071    4.1405   -1.7007 H   0  0  0  0  0  0  0  0  0  0  0  0
    1.2442    0.4477   -2.5229 H   0  0  0  0  0  0  0  0  0  0  0  0
    1.5114   -1.9376   -0.0141 H   0  0  0  0  0  0  0  0  0  0  0  0
    4.2920   -2.7002   -1.1467 H   0  0  0  0  0  0  0  0  0  0  0  0
    4.0659   -1.3450   -0.0533 H   0  0  0  0  0  0  0  0  0  0  0  0
    3.4660   -2.8309    1.8303 H   0  0  0  0  0  0  0  0  0  0  0  0
    4.3328   -5.1968    1.4828 H   0  0  0  0  0  0  0  0  0  0  0  0
    3.9242   -5.0776   -0.2294 H   0  0  0  0  0  0  0  0  0  0  0  0
    2.6329   -4.9639    1.0991 H   0  0  0  0  0  0  0  0  0  0  0  0
    5.9345   -3.7729    0.4232 H   0  0  0  0  0  0  0  0  0  0  0  0
    5.7782   -2.0583    1.0632 H   0  0  0  0  0  0  0  0  0  0  0  0
    5.6730   -3.4994    2.1634 H   0  0  0  0  0  0  0  0  0  0  0  0
    2.6525   -3.9771   -1.9369 H   0  0  0  0  0  0  0  0  0  0  0  0
   -0.9568   -3.7958   -0.1296 H   0  0  0  0  0  0  0  0  0  0  0  0
   -0.4252   -2.4890   -2.7651 H   0  0  0  0  0  0  0  0  0  0  0  0
   -2.7273   -2.9077   -0.0517 H   0  0  0  0  0  0  0  0  0  0  0  0
   -4.7331   -2.9177   -1.0501 H   0  0  0  0  0  0  0  0  0  0  0  0
   -4.8494   -1.2000   -1.4044 H   0  0  0  0  0  0  0  0  0  0  0  0
   -4.9927   -3.7600    1.2211 H   0  0  0  0  0  0  0  0  0  0  0  0
   -6.3346   -3.5284    3.2645 H   0  0  0  0  0  0  0  0  0  0  0  0
   -7.0675   -1.0105    4.9327 H   0  0  0  0  0  0  0  0  0  0  0  0
   -6.9534    0.5715    2.3350 H   0  0  0  0  0  0  0  0  0  0  0  0
   -5.6574    0.3317    0.3440 H   0  0  0  0  0  0  0  0  0  0  0  0
   -1.2078   -1.2580    0.3323 H   0  0  0  0  0  0  0  0  0  0  0  0
   -3.8747    1.7482   -0.0648 H   0  0  0  0  0  0  0  0  0  0  0  0
   -1.2797    1.6784   -1.6849 H   0  0  0  0  0  0  0  0  0  0  0  0
   -2.8566    1.0721   -2.1855 H   0  0  0  0  0  0  0  0  0  0  0  0
   -0.9960    4.1950   -1.5282 H   0  0  0  0  0  0  0  0  0  0  0  0
   -1.8429    6.3367   -2.2788 H   0  0  0  0  0  0  0  0  0  0  0  0
   -5.2382    6.8508   -3.6127 H   0  0  0  0  0  0  0  0  0  0  0  0
   -5.6193    4.5222   -3.2660 H   0  0  0  0  0  0  0  0  0  0  0  0
   -4.7209    2.3687   -2.4965 H   0  0  0  0  0  0  0  0  0  0  0  0
   -2.8667    3.6522    0.4997 H   0  0  0  0  0  0  0  0  0  0  0  0
   -2.6682   -4.6071   -1.7003 H   0  0  0  0  0  0  0  0  0  0  0  0
   -0.2644   -5.3879   -3.3758 H   0  0  0  0  0  0  0  0  0  0  0  0
   -1.7239   -6.4790   -3.2773 H   0  0  0  0  0  0  0  0  0  0  0  0
   -1.8875   -4.7745   -3.7927 H   0  0  0  0  0  0  0  0  0  0  0  0
   -1.1070   -7.0914   -0.9941 H   0  0  0  0  0  0  0  0  0  0  0  0
   -1.2790   -5.8135    0.2999 H   0  0  0  0  0  0  0  0  0  0  0  0
   -2.7239   -6.4898   -0.4964 H   0  0  0  0  0  0  0  0  0  0  0  0
  1  2  1  0
  2  3  1  0
  3  4  1  0
  3  5  1  0
  5  6  1  0
  6  7  1  0
  7  8  2  0
  7  9  1  0
  9 10  1  0
 10 11  1  0
 11 12  2  0
 12 13  1  0
 13 14  2  0
 14 15  1  0
 14 16  1  0
 16 17  2  0
  9 18  1  0
 18 19  1  0
 19 20  2  0
 19 21  1  0
 21 22  1  0
 22 23  1  0
 23 24  1  0
 23 25  1  0
 21 26  1  0
 26 27  1  0
 27 28  2  0
 27 29  1  0
 29 30  1  0
 30 31  1  0
 31 32  2  0
 31 33  1  0
 33 34  1  0
 34 35  1  0
 35 36  2  0
 36 37  1  0
 37 38  2  0
 38 39  1  0
 38 40  1  0
 40 41  2  0
 33 42  1  0
 42 43  1  0
 43 44  2  0
 43 45  1  0
 45 46  1  0
 46 47  1  0
 47 48  2  0
 48 49  1  0
 49 50  2  0
 50 51  1  0
 50 52  1  0
 52 53  2  0
 45 54  1  0
 54 55  1  0
 55 56  2  0
 29 57  1  0
 57 58  1  0
 57 59  1  0
 55  5  1  0
 17 11  1  0
 41 35  1  0
 53 47  1  0
  1 60  1  0
  1 61  1  0
  1 62  1  0
  2 63  1  0
  2 64  1  0
  3 65  1  6
  4 66  1  0
  4 67  1  0
  4 68  1  0
  5 69  1  6
  6 70  1  0
  9 71  1  1
 10 72  1  0
 10 73  1  0
 12 74  1  0
 13 75  1  0
 15 76  1  0
 16 77  1  0
 17 78  1  0
 18 79  1  0
 21 80  1  1
 22 81  1  0
 22 82  1  0
 23 83  1  0
 24 84  1  0
 24 85  1  0
 24 86  1  0
 25 87  1  0
 25 88  1  0
 25 89  1  0
 26 90  1  0
 29 91  1  1
 30 92  1  0
 33 93  1  1
 34 94  1  0
 34 95  1  0
 36 96  1  0
 37 97  1  0
 39 98  1  0
 40 99  1  0
 41100  1  0
 42101  1  0
 45102  1  6
 46103  1  0
 46104  1  0
 48105  1  0
 49106  1  0
 51107  1  0
 52108  1  0
 53109  1  0
 54110  1  0
 57111  1  0
 58112  1  0
 58113  1  0
 58114  1  0
 59115  1  0
 59116  1  0
 59117  1  0
M  END
$$$$
[H]ON([H])C(=O)C([H])([H])N(C([H])([H])c1c([H])c([H])c(-c2c([H])c([H])c([H])c([H])c2[H])c([H])c1[H])S(=O)(=O)c1c([H])c([H])c([H])c([H])c1[H]
     RDKit          3D

 48 50  0  0  0  0  0  0  0  0999 V2000
    2.9935   -1.6824    4.7637 O   0  0  0  0  0  0  0  0  0  0  0  0
    2.5548   -1.3508    3.6655 N   0  0  0  0  0  0  0  0  0  0  0  0
    2.0625   -0.9787    2.4334 C   0  0  0  0  0  0  0  0  0  0  0  0
    1.4970    0.0785    2.0858 O   0  0  0  0  0  0  0  0  0  0  0  0
    2.2138   -1.9934    1.3086 C   0  0  0  0  0  0  0  0  0  0  0  0
    1.6293   -1.5130    0.1115 N   0  0  0  0  0  0  0  0  0  0  0  0
    0.5770   -2.3040   -0.4376 C   0  0  0  0  0  0  0  0  0  0  0  0
   -0.6860   -1.5531   -0.6950 C   0  0  0  0  0  0  0  0  0  0  0  0
   -1.1622   -1.2384   -1.9460 C   0  0  0  0  0  0  0  0  0  0  0  0
   -2.3549   -0.5337   -2.1097 C   0  0  0  0  0  0  0  0  0  0  0  0
   -3.1109   -0.1202   -1.0401 C   0  0  0  0  0  0  0  0  0  0  0  0
   -2.6182   -0.4438    0.2272 C   0  0  0  0  0  0  0  0  0  0  0  0
   -1.4424   -1.1387    0.3830 C   0  0  0  0  0  0  0  0  0  0  0  0
   -4.3654    0.6065   -1.1846 C   0  0  0  0  0  0  0  0  0  0  0  0
   -4.7288    1.5256   -0.2165 C   0  0  0  0  0  0  0  0  0  0  0  0
   -5.9082    2.2189   -0.3275 C   0  0  0  0  0  0  0  0  0  0  0  0
   -6.7768    2.0483   -1.3748 C   0  0  0  0  0  0  0  0  0  0  0  0
   -6.4357    1.1377   -2.3494 C   0  0  0  0  0  0  0  0  0  0  0  0
   -5.2509    0.4491   -2.2286 C   0  0  0  0  0  0  0  0  0  0  0  0
    2.7329   -0.8739   -1.0088 S   0  0  0  0  0  0  0  0  0  0  0  0
    3.8192   -1.8917   -1.3664 O   0  0  0  0  0  0  0  0  0  0  0  0
    2.0865   -0.5502   -2.3341 O   0  0  0  0  0  0  0  0  0  0  0  0
    3.5922    0.5110   -0.3762 C   0  0  0  0  0  0  0  0  0  0  0  0
    4.7751    0.3179    0.3042 C   0  0  0  0  0  0  0  0  0  0  0  0
    5.4991    1.3602    0.8279 C   0  0  0  0  0  0  0  0  0  0  0  0
    5.0732    2.6406    0.6965 C   0  0  0  0  0  0  0  0  0  0  0  0
    3.8693    2.8818    0.0091 C   0  0  0  0  0  0  0  0  0  0  0  0
    3.1684    1.8106   -0.5056 C   0  0  0  0  0  0  0  0  0  0  0  0
    2.9794   -2.6443    4.9832 H   0  0  0  0  0  0  0  0  0  0  0  0
    2.1681   -0.1353    4.1832 H   0  0  0  0  0  0  0  0  0  0  0  0
    3.2734   -2.2948    1.2154 H   0  0  0  0  0  0  0  0  0  0  0  0
    1.6655   -2.9156    1.6541 H   0  0  0  0  0  0  0  0  0  0  0  0
    0.9583   -2.7900   -1.3686 H   0  0  0  0  0  0  0  0  0  0  0  0
    0.4086   -3.1755    0.2575 H   0  0  0  0  0  0  0  0  0  0  0  0
   -0.5962   -1.5459   -2.8069 H   0  0  0  0  0  0  0  0  0  0  0  0
   -2.7219   -0.2904   -3.1165 H   0  0  0  0  0  0  0  0  0  0  0  0
   -3.2239   -0.1067    1.0508 H   0  0  0  0  0  0  0  0  0  0  0  0
   -1.0778   -1.3819    1.3971 H   0  0  0  0  0  0  0  0  0  0  0  0
   -4.1136    1.7277    0.6452 H   0  0  0  0  0  0  0  0  0  0  0  0
   -6.2138    2.9559    0.4312 H   0  0  0  0  0  0  0  0  0  0  0  0
   -7.7033    2.6278   -1.4160 H   0  0  0  0  0  0  0  0  0  0  0  0
   -7.0988    0.9787   -3.1860 H   0  0  0  0  0  0  0  0  0  0  0  0
   -5.0118   -0.2611   -3.0145 H   0  0  0  0  0  0  0  0  0  0  0  0
    5.1317   -0.6963    0.4228 H   0  0  0  0  0  0  0  0  0  0  0  0
    6.4440    1.1879    1.3661 H   0  0  0  0  0  0  0  0  0  0  0  0
    5.6492    3.4800    1.1157 H   0  0  0  0  0  0  0  0  0  0  0  0
    3.5399    3.8861   -0.0890 H   0  0  0  0  0  0  0  0  0  0  0  0
    2.2396    1.9729   -1.0403 H   0  0  0  0  0  0  0  0  0  0  0  0
  1  2  1  0
  2  3  1  0
  3  4  2  0
  3  5  1  0
  5  6  1  0
  6  7  1  0
  7  8  1  0
  8  9  2  0
  9 10  1  0
 10 11  2  0
 11 12  1  0
 12 13  2  0
 11 14  1  0
 14 15  2  0
 15 16  1  0
 16 17  2  0
 17 18  1  0
 18 19  2  0
  6 20  1  0
 20 21  2  0
 20 22  2  0
 20 23  1  0
 23 24  2  0
 24 25  1  0
 25 26  2  0
 26 27  1  0
 27 28  2  0
 13  8  1  0
 19 14  1  0
 28 23  1  0
  1 29  1  0
  2 30  1  0
  5 31  1  0
  5 32  1  0
  7 33  1  0
  7 34  1  0
  9 35  1  0
 10 36  1  0
 12 37  1  0
 13 38  1  0
 15 39  1  0
 16 40  1  0
 17 41  1  0
 18 42  1  0
 19 43  1  0
 24 44  1  0
 25 45  1  0
 26 46  1  0
 27 47  1  0
 28 48  1  0
M  END
$$$$
[H]N=C(N([H])[H])N([H])C([H])([H])C([H])([H])C([H])([H])[C@@]([H])(C(=O)c1nc2c([H])c([H])c([H])c([H])c2s1)N([H])C(=O)[C@@]([H])(N([H])C(=O)[C@@]([H])(N([H])C(=O)[C@@]1([H])N(C(=O)OC([H])([H])c2c([H])c([H])c([H])c([H])c2[H])C([H])([H])C([H])([H])C1([H])[H])C([H])([H])C([H])([H])C([H])([H])N([H])C(=N[H])N([H])[H])C([H])([H])c1c([H])c([H])c([H])c([H])c1[H]
     RDKit          3D

110114  0  0  0  0  0  0  0  0999 V2000
    4.4157    1.5463   -6.5766 N   0  0  0  0  0  0  0  0  0  0  0  0
    4.4210    2.6495   -5.7202 C   0  0  0  0  0  0  0  0  0  0  0  0
    5.4903    3.4000   -5.6706 N   0  0  0  0  0  0  0  0  0  0  0  0
    3.3240    2.9829   -4.9239 N   0  0  0  0  0  0  0  0  0  0  0  0
    2.7842    1.9817   -3.9811 C   0  0  0  0  0  0  0  0  0  0  0  0
    1.6346    2.5956   -3.2667 C   0  0  0  0  0  0  0  0  0  0  0  0
    0.9079    1.7590   -2.3030 C   0  0  0  0  0  0  0  0  0  0  0  0
    1.5952    1.2124   -1.1022 C   0  0  2  0  0  0  0  0  0  0  0  0
    2.6941    0.3563   -1.4561 N   0  0  0  0  0  0  0  0  0  0  0  0
    3.8953    0.2048   -0.6833 C   0  0  0  0  0  0  0  0  0  0  0  0
    4.0018    0.8602    0.3643 O   0  0  0  0  0  0  0  0  0  0  0  0
    4.8991   -0.7051   -1.1806 C   0  0  2  0  0  0  0  0  0  0  0  0
    4.2735   -1.8775   -1.9492 C   0  0  0  0  0  0  0  0  0  0  0  0
    5.1281   -3.0729   -1.6334 C   0  0  0  0  0  0  0  0  0  0  0  0
    6.4190   -2.3908   -1.2155 C   0  0  0  0  0  0  0  0  0  0  0  0
    5.8403   -1.3096   -0.3246 N   0  0  0  0  0  0  0  0  0  0  0  0
    6.3333   -1.1752    0.9701 C   0  0  0  0  0  0  0  0  0  0  0  0
    7.2134   -2.0351    1.3688 O   0  0  0  0  0  0  0  0  0  0  0  0
    6.0100   -0.2420    1.8974 O   0  0  0  0  0  0  0  0  0  0  0  0
    6.5724   -0.2176    3.2132 C   0  0  0  0  0  0  0  0  0  0  0  0
    8.0501   -0.1014    3.1631 C   0  0  0  0  0  0  0  0  0  0  0  0
    8.6964    0.8679    2.4578 C   0  0  0  0  0  0  0  0  0  0  0  0
   10.0885    0.9441    2.4370 C   0  0  0  0  0  0  0  0  0  0  0  0
   10.8811    0.0492    3.1217 C   0  0  0  0  0  0  0  0  0  0  0  0
   10.2205   -0.9481    3.8468 C   0  0  0  0  0  0  0  0  0  0  0  0
    8.8507   -1.0127    3.8618 C   0  0  0  0  0  0  0  0  0  0  0  0
    0.5518    0.4015   -0.3744 C   0  0  0  0  0  0  0  0  0  0  0  0
    0.7195   -0.8086   -0.1969 O   0  0  0  0  0  0  0  0  0  0  0  0
   -0.6195    1.0391    0.0971 N   0  0  0  0  0  0  0  0  0  0  0  0
   -1.6406    0.2467    0.7864 C   0  0  1  0  0  0  0  0  0  0  0  0
   -1.4356    0.4861    2.2512 C   0  0  0  0  0  0  0  0  0  0  0  0
   -1.6139    1.8644    2.7104 C   0  0  0  0  0  0  0  0  0  0  0  0
   -0.5940    2.8066    2.7043 C   0  0  0  0  0  0  0  0  0  0  0  0
   -0.8818    4.0594    3.1875 C   0  0  0  0  0  0  0  0  0  0  0  0
   -2.0975    4.4424    3.6746 C   0  0  0  0  0  0  0  0  0  0  0  0
   -3.1523    3.5026    3.6922 C   0  0  0  0  0  0  0  0  0  0  0  0
   -2.8439    2.2633    3.2070 C   0  0  0  0  0  0  0  0  0  0  0  0
   -3.0406    0.6344    0.3681 C   0  0  0  0  0  0  0  0  0  0  0  0
   -3.1484    1.8354    0.0586 O   0  0  0  0  0  0  0  0  0  0  0  0
   -4.0445   -0.3108    0.3602 N   0  0  0  0  0  0  0  0  0  0  0  0
   -5.0602   -1.2280    0.3436 C   0  0  1  0  0  0  0  0  0  0  0  0
   -6.5025   -0.8219    0.2967 C   0  0  0  0  0  0  0  0  0  0  0  0
   -7.0757   -0.0606    1.4058 C   0  0  0  0  0  0  0  0  0  0  0  0
   -6.7014    1.3542    1.6587 C   0  0  0  0  0  0  0  0  0  0  0  0
   -7.1411    2.2394    0.5662 N   0  0  0  0  0  0  0  0  0  0  0  0
   -7.0163    3.6272    0.7558 C   0  0  0  0  0  0  0  0  0  0  0  0
   -7.5520    4.6022   -0.1279 N   0  0  0  0  0  0  0  0  0  0  0  0
   -6.3923    4.1190    1.8000 N   0  0  0  0  0  0  0  0  0  0  0  0
   -4.8159   -2.2517   -0.7222 C   0  0  0  0  0  0  0  0  0  0  0  0
   -3.9205   -2.0191   -1.6057 O   0  0  0  0  0  0  0  0  0  0  0  0
   -5.5294   -3.5114   -0.8231 C   0  0  0  0  0  0  0  0  0  0  0  0
   -6.4688   -4.0253   -0.0603 N   0  0  0  0  0  0  0  0  0  0  0  0
   -6.9773   -5.1873   -0.3183 C   0  0  0  0  0  0  0  0  0  0  0  0
   -7.9764   -5.8448    0.4188 C   0  0  0  0  0  0  0  0  0  0  0  0
   -8.4372   -7.0685    0.0625 C   0  0  0  0  0  0  0  0  0  0  0  0
   -7.9655   -7.7409   -1.0312 C   0  0  0  0  0  0  0  0  0  0  0  0
   -6.9891   -7.1327   -1.7767 C   0  0  0  0  0  0  0  0  0  0  0  0
   -6.5052   -5.8663   -1.4153 C   0  0  0  0  0  0  0  0  0  0  0  0
   -5.3321   -4.7458   -2.0066 S   0  0  0  0  0  0  0  0  0  0  0  0
    4.0388    0.6234   -6.2435 H   0  0  0  0  0  0  0  0  0  0  0  0
    4.7800    1.5850   -7.5698 H   0  0  0  0  0  0  0  0  0  0  0  0
    5.5139    4.2388   -5.0298 H   0  0  0  0  0  0  0  0  0  0  0  0
    2.8559    3.9362   -4.9724 H   0  0  0  0  0  0  0  0  0  0  0  0
    3.6386    1.7414   -3.3376 H   0  0  0  0  0  0  0  0  0  0  0  0
    2.5221    1.0647   -4.5526 H   0  0  0  0  0  0  0  0  0  0  0  0
    0.9055    3.0054   -4.0420 H   0  0  0  0  0  0  0  0  0  0  0  0
    2.0504    3.5053   -2.7206 H   0  0  0  0  0  0  0  0  0  0  0  0
    0.4757    0.8655   -2.9076 H   0  0  0  0  0  0  0  0  0  0  0  0
   -0.0731    2.2696   -2.0007 H   0  0  0  0  0  0  0  0  0  0  0  0
    1.9513    2.0205   -0.4443 H   0  0  0  0  0  0  0  0  0  0  0  0
    2.6051   -0.1772   -2.3247 H   0  0  0  0  0  0  0  0  0  0  0  0
    5.5154   -0.1398   -1.9658 H   0  0  0  0  0  0  0  0  0  0  0  0
    3.2634   -2.0604   -1.5432 H   0  0  0  0  0  0  0  0  0  0  0  0
    4.3077   -1.6810   -3.0407 H   0  0  0  0  0  0  0  0  0  0  0  0
    5.3238   -3.7080   -2.5041 H   0  0  0  0  0  0  0  0  0  0  0  0
    4.7797   -3.6469   -0.7460 H   0  0  0  0  0  0  0  0  0  0  0  0
    7.0740   -3.0502   -0.6488 H   0  0  0  0  0  0  0  0  0  0  0  0
    6.9749   -1.9306   -2.0449 H   0  0  0  0  0  0  0  0  0  0  0  0
    6.1721    0.6798    3.7097 H   0  0  0  0  0  0  0  0  0  0  0  0
    6.3154   -1.1503    3.7663 H   0  0  0  0  0  0  0  0  0  0  0  0
    8.1509    1.6040    1.8930 H   0  0  0  0  0  0  0  0  0  0  0  0
   10.5873    1.7334    1.8648 H   0  0  0  0  0  0  0  0  0  0  0  0
   11.9755    0.0915    3.1107 H   0  0  0  0  0  0  0  0  0  0  0  0
   10.8807   -1.6374    4.3760 H   0  0  0  0  0  0  0  0  0  0  0  0
    8.3683   -1.8024    4.4342 H   0  0  0  0  0  0  0  0  0  0  0  0
   -0.7212    2.0651   -0.0654 H   0  0  0  0  0  0  0  0  0  0  0  0
   -1.4789   -0.8188    0.6019 H   0  0  0  0  0  0  0  0  0  0  0  0
   -0.3683    0.2158    2.5308 H   0  0  0  0  0  0  0  0  0  0  0  0
   -2.0523   -0.1860    2.8701 H   0  0  0  0  0  0  0  0  0  0  0  0
    0.3851    2.5436    2.3310 H   0  0  0  0  0  0  0  0  0  0  0  0
   -0.0567    4.8092    3.1788 H   0  0  0  0  0  0  0  0  0  0  0  0
   -2.3082    5.4286    4.0455 H   0  0  0  0  0  0  0  0  0  0  0  0
   -4.1038    3.8268    4.0747 H   0  0  0  0  0  0  0  0  0  0  0  0
   -3.6815    1.5337    3.2371 H   0  0  0  0  0  0  0  0  0  0  0  0
   -4.9008    0.5792   -0.2539 H   0  0  0  0  0  0  0  0  0  0  0  0
   -4.9945   -1.8868    1.3396 H   0  0  0  0  0  0  0  0  0  0  0  0
   -6.6602   -0.1665   -0.6507 H   0  0  0  0  0  0  0  0  0  0  0  0
   -7.1873   -1.6778    0.0779 H   0  0  0  0  0  0  0  0  0  0  0  0
   -8.2016   -0.1775    1.4797 H   0  0  0  0  0  0  0  0  0  0  0  0
   -6.7614   -0.6023    2.3915 H   0  0  0  0  0  0  0  0  0  0  0  0
   -7.1976    1.7372    2.5896 H   0  0  0  0  0  0  0  0  0  0  0  0
   -5.6265    1.5314    1.7955 H   0  0  0  0  0  0  0  0  0  0  0  0
   -7.5131    1.8272   -0.2878 H   0  0  0  0  0  0  0  0  0  0  0  0
   -8.5668    4.8510   -0.1599 H   0  0  0  0  0  0  0  0  0  0  0  0
   -6.9116    5.0943   -0.7684 H   0  0  0  0  0  0  0  0  0  0  0  0
   -6.0031    3.4385    2.4663 H   0  0  0  0  0  0  0  0  0  0  0  0
   -8.4037   -5.3533    1.3183 H   0  0  0  0  0  0  0  0  0  0  0  0
   -9.2157   -7.5599    0.6491 H   0  0  0  0  0  0  0  0  0  0  0  0
   -8.3335   -8.6914   -1.3013 H   0  0  0  0  0  0  0  0  0  0  0  0
   -6.5300   -7.5637   -2.6677 H   0  0  0  0  0  0  0  0  0  0  0  0
  1  2  1  0
  2  3  2  3
  2  4  1  0
  4  5  1  0
  5  6  1  0
  6  7  1  0
  7  8  1  0
  8  9  1  0
  9 10  1  0
 10 11  2  0
 10 12  1  0
 12 13  1  0
 13 14  1  0
 14 15  1  0
 15 16  1  0
 16 17  1  0
 17 18  2  0
 17 19  1  0
 19 20  1  0
 20 21  1  0
 21 22  2  0
 22 23  1  0
 23 24  2  0
 24 25  1  0
 25 26  2  0
  8 27  1  0
 27 28  2  0
 27 29  1  0
 29 30  1  0
 30 31  1  0
 31 32  1  0
 32 33  2  0
 33 34  1  0
 34 35  2  0
 35 36  1  0
 36 37  2  0
 30 38  1  0
 38 39  2  0
 38 40  1  0
 40 41  1  0
 41 42  1  0
 42 43  1  0
 43 44  1  0
 44 45  1  0
 45 46  1  0
 46 47  1  0
 46 48  2  3
 41 49  1  0
 49 50  2  0
 49 51  1  0
 51 52  2  0
 52 53  1  0
 53 54  2  0
 54 55  1  0
 55 56  2  0
 56 57  1  0
 57 58  2  0
 58 59  1  0
 16 12  1  0
 26 21  1  0
 37 32  1  0
 59 51  1  0
 58 53  1  0
  1 60  1  0
  1 61  1  0
  3 62  1  0
  4 63  1  0
  5 64  1  0
  5 65  1  0
  6 66  1  0
  6 67  1  0
  7 68  1  0
  7 69  1  0
  8 70  1  1
  9 71  1  0
 12 72  1  6
 13 73  1  0
 13 74  1  0
 14 75  1  0
 14 76  1  0
 15 77  1  0
 15 78  1  0
 20 79  1  0
 20 80  1  0
 22 81  1  0
 23 82  1  0
 24 83  1  0
 25 84  1  0
 26 85  1  0
 29 86  1  0
 30 87  1  1
 31 88  1  0
 31 89  1  0
 33 90  1  0
 34 91  1  0
 35 92  1  0
 36 93  1  0
 37 94  1  0
 40 95  1  0
 41 96  1  1
 42 97  1  0
 42 98  1  0
 43 99  1  0
 43100  1  0
 44101  1  0
 44102  1  0
 45103  1  0
 47104  1  0
 47105  1  0
 48106  1  0
 54107  1  0
 55108  1  0
 56109  1  0
 57110  1  0
M  END
$$$$
[H]c1c([H])c(C(=O)N([H])[H])c([H])c(-c2c([H])c([H])c([H])c([H])c2N([H])S(=O)(=O)c2c([H])c([H])c(OC([H])([H])[H])c([H])c2[H])c1[H]
     RDKit          3D

 45 47  0  0  0  0  0  0  0  0999 V2000
   -7.1553    0.7240   -0.0779 C   0  0  0  0  0  0  0  0  0  0  0  0
   -6.3814    0.1394    0.9394 O   0  0  0  0  0  0  0  0  0  0  0  0
   -4.9936    0.3650    0.9255 C   0  0  0  0  0  0  0  0  0  0  0  0
   -4.2138   -0.1964    1.9107 C   0  0  0  0  0  0  0  0  0  0  0  0
   -2.8434    0.0335    1.8867 C   0  0  0  0  0  0  0  0  0  0  0  0
   -2.2612    0.8054    0.9039 C   0  0  0  0  0  0  0  0  0  0  0  0
   -3.0578    1.3590   -0.0737 C   0  0  0  0  0  0  0  0  0  0  0  0
   -4.3988    1.1307   -0.0454 C   0  0  0  0  0  0  0  0  0  0  0  0
   -0.5526    1.0891    0.8783 S   0  0  0  0  0  0  0  0  0  0  0  0
   -0.3723    2.5856    0.7399 O   0  0  0  0  0  0  0  0  0  0  0  0
    0.0079    0.7121    2.2432 O   0  0  0  0  0  0  0  0  0  0  0  0
    0.2702    0.2418   -0.3528 N   0  0  0  0  0  0  0  0  0  0  0  0
    0.3846   -1.1357   -0.5592 C   0  0  0  0  0  0  0  0  0  0  0  0
   -0.6878   -1.9771   -0.4955 C   0  0  0  0  0  0  0  0  0  0  0  0
   -0.5069   -3.3377   -0.7396 C   0  0  0  0  0  0  0  0  0  0  0  0
    0.7461   -3.8116   -1.0411 C   0  0  0  0  0  0  0  0  0  0  0  0
    1.8169   -2.9446   -1.1013 C   0  0  0  0  0  0  0  0  0  0  0  0
    1.6693   -1.6070   -0.8664 C   0  0  0  0  0  0  0  0  0  0  0  0
    2.8361   -0.7265   -0.9413 C   0  0  0  0  0  0  0  0  0  0  0  0
    3.6870   -0.7908   -2.0396 C   0  0  0  0  0  0  0  0  0  0  0  0
    4.7878    0.0144   -2.1286 C   0  0  0  0  0  0  0  0  0  0  0  0
    5.0938    0.9299   -1.1164 C   0  0  0  0  0  0  0  0  0  0  0  0
    4.2651    1.0103   -0.0197 C   0  0  0  0  0  0  0  0  0  0  0  0
    3.1584    0.1803    0.0393 C   0  0  0  0  0  0  0  0  0  0  0  0
    4.5590    1.9612    1.0598 C   0  0  0  0  0  0  0  0  0  0  0  0
    5.6992    2.8033    0.9791 N   0  0  0  0  0  0  0  0  0  0  0  0
    3.8331    2.0627    2.0674 O   0  0  0  0  0  0  0  0  0  0  0  0
   -6.7774    0.3197   -1.0511 H   0  0  0  0  0  0  0  0  0  0  0  0
   -7.0504    1.8316   -0.1179 H   0  0  0  0  0  0  0  0  0  0  0  0
   -8.2099    0.4356    0.1011 H   0  0  0  0  0  0  0  0  0  0  0  0
   -4.6657   -0.8001    2.6801 H   0  0  0  0  0  0  0  0  0  0  0  0
   -2.2521   -0.4171    2.6696 H   0  0  0  0  0  0  0  0  0  0  0  0
   -2.5903    1.9764   -0.8593 H   0  0  0  0  0  0  0  0  0  0  0  0
   -5.0274    1.5643   -0.8122 H   0  0  0  0  0  0  0  0  0  0  0  0
    0.7702    0.8620   -1.0714 H   0  0  0  0  0  0  0  0  0  0  0  0
   -1.6921   -1.6798   -0.2838 H   0  0  0  0  0  0  0  0  0  0  0  0
   -1.3183   -4.0392   -0.7008 H   0  0  0  0  0  0  0  0  0  0  0  0
    0.9120   -4.8575   -1.2336 H   0  0  0  0  0  0  0  0  0  0  0  0
    2.8228   -3.3055   -1.3406 H   0  0  0  0  0  0  0  0  0  0  0  0
    3.4478   -1.4937   -2.8118 H   0  0  0  0  0  0  0  0  0  0  0  0
    5.4619   -0.0193   -2.9728 H   0  0  0  0  0  0  0  0  0  0  0  0
    5.9518    1.5709   -1.1659 H   0  0  0  0  0  0  0  0  0  0  0  0
    2.5170    0.2462    0.9080 H   0  0  0  0  0  0  0  0  0  0  0  0
    6.6273    2.3426    0.8714 H   0  0  0  0  0  0  0  0  0  0  0  0
    5.6831    3.8426    1.0187 H   0  0  0  0  0  0  0  0  0  0  0  0
  1  2  1  0
  2  3  1  0
  3  4  2  0
  4  5  1  0
  5  6  2  0
  6  7  1  0
  7  8  2  0
  6  9  1  0
  9 10  2  0
  9 11  2  0
  9 12  1  0
 12 13  1  0
 13 14  2  0
 14 15  1  0
 15 16  2  0
 16 17  1  0
 17 18  2  0
 18 19  1  0
 19 20  2  0
 20 21  1  0
 21 22  2  0
 22 23  1  0
 23 24  2  0
 23 25  1  0
 25 26  1  0
 25 27  2  0
  8  3  1  0
 18 13  1  0
 24 19  1  0
  1 28  1  0
  1 29  1  0
  1 30  1  0
  4 31  1  0
  5 32  1  0
  7 33  1  0
  8 34  1  0
 12 35  1  0
 14 36  1  0
 15 37  1  0
 16 38  1  0
 17 39  1  0
 20 40  1  0
 21 41  1  0
 22 42  1  0
 24 43  1  0
 26 44  1  0
 26 45  1  0
M  END
$$$$
[H]Oc1c([H])c2c(c([H])c1O[H])[C@@]1([H])C([H])([H])C([H])([H])[C@]3(C([H])([H])[H])C(=O)C([H])([H])C([H])([H])[C@@]3([H])[C@]1([H])C([H])([H])C2([H])[H]
     RDKit          3D

 43 46  0  0  0  0  0  0  0  0999 V2000
   -2.6750    1.4268   -0.9404 C   0  0  0  0  0  0  0  0  0  0  0  0
   -2.3881    0.6885    0.3429 C   0  0  2  0  0  0  0  0  0  0  0  0
   -1.5858    1.5224    1.2936 C   0  0  0  0  0  0  0  0  0  0  0  0
   -0.1832    1.6571    0.7109 C   0  0  0  0  0  0  0  0  0  0  0  0
    0.3929    0.2964    0.5337 C   0  0  1  0  0  0  0  0  0  0  0  0
   -0.4158   -0.4555   -0.5152 C   0  0  1  0  0  0  0  0  0  0  0  0
    0.3062   -1.7159   -0.8983 C   0  0  0  0  0  0  0  0  0  0  0  0
    1.3655   -2.1159    0.1384 C   0  0  0  0  0  0  0  0  0  0  0  0
    2.3806   -1.0036    0.0698 C   0  0  0  0  0  0  0  0  0  0  0  0
    3.7060   -1.2094   -0.1768 C   0  0  0  0  0  0  0  0  0  0  0  0
    4.5255   -0.1040   -0.2139 C   0  0  0  0  0  0  0  0  0  0  0  0
    5.8748   -0.2709   -0.4609 O   0  0  0  0  0  0  0  0  0  0  0  0
    4.0036    1.1750   -0.0047 C   0  0  0  0  0  0  0  0  0  0  0  0
    4.8623    2.2752   -0.0490 O   0  0  0  0  0  0  0  0  0  0  0  0
    2.6574    1.3514    0.2427 C   0  0  0  0  0  0  0  0  0  0  0  0
    1.8399    0.2666    0.2814 C   0  0  0  0  0  0  0  0  0  0  0  0
   -1.7391   -0.6645    0.0945 C   0  0  2  0  0  0  0  0  0  0  0  0
   -2.7794   -1.3669   -0.6671 C   0  0  0  0  0  0  0  0  0  0  0  0
   -4.0345   -1.0199    0.1581 C   0  0  0  0  0  0  0  0  0  0  0  0
   -3.6883    0.2274    0.8792 C   0  0  0  0  0  0  0  0  0  0  0  0
   -4.3239    0.7774    1.7371 O   0  0  0  0  0  0  0  0  0  0  0  0
   -3.1442    2.4027   -0.6206 H   0  0  0  0  0  0  0  0  0  0  0  0
   -1.8018    1.6906   -1.5286 H   0  0  0  0  0  0  0  0  0  0  0  0
   -3.4127    0.9325   -1.5711 H   0  0  0  0  0  0  0  0  0  0  0  0
   -2.0356    2.5163    1.3478 H   0  0  0  0  0  0  0  0  0  0  0  0
   -1.5683    1.0428    2.2872 H   0  0  0  0  0  0  0  0  0  0  0  0
   -0.2757    2.1700   -0.2650 H   0  0  0  0  0  0  0  0  0  0  0  0
    0.4223    2.2422    1.4382 H   0  0  0  0  0  0  0  0  0  0  0  0
    0.2293   -0.2582    1.5046 H   0  0  0  0  0  0  0  0  0  0  0  0
   -0.4217    0.1987   -1.4116 H   0  0  0  0  0  0  0  0  0  0  0  0
   -0.4397   -2.5269   -1.0107 H   0  0  0  0  0  0  0  0  0  0  0  0
    0.8667   -1.5946   -1.8489 H   0  0  0  0  0  0  0  0  0  0  0  0
    1.7808   -3.0729   -0.1788 H   0  0  0  0  0  0  0  0  0  0  0  0
    0.8753   -2.1625    1.1111 H   0  0  0  0  0  0  0  0  0  0  0  0
    4.0654   -2.2239   -0.3334 H   0  0  0  0  0  0  0  0  0  0  0  0
    6.2502   -1.1872   -0.6111 H   0  0  0  0  0  0  0  0  0  0  0  0
    4.4845    3.1901    0.1014 H   0  0  0  0  0  0  0  0  0  0  0  0
    2.2214    2.3352    0.4096 H   0  0  0  0  0  0  0  0  0  0  0  0
   -1.6149   -1.1415    1.0871 H   0  0  0  0  0  0  0  0  0  0  0  0
   -2.5850   -2.4593   -0.6355 H   0  0  0  0  0  0  0  0  0  0  0  0
   -2.8961   -1.0355   -1.6998 H   0  0  0  0  0  0  0  0  0  0  0  0
   -4.9142   -0.9132   -0.5031 H   0  0  0  0  0  0  0  0  0  0  0  0
   -4.1874   -1.8830    0.8413 H   0  0  0  0  0  0  0  0  0  0  0  0
  2  1  1  6
  2  3  1  0
  3  4  1  0
  4  5  1  0
  5  6  1  0
  6  7  1  0
  7  8  1  0
  8  9  1  0
  9 10  2  0
 10 11  1  0
 11 12  1  0
 11 13  2  0
 13 14  1  0
 13 15  1  0
 15 16  2  0
  6 17  1  0
 17 18  1  0
 18 19  1  0
 19 20  1  0
 20 21  2  0
 17  2  1  0
 20  2  1  0
 16  5  1  0
 16  9  1  0
  1 22  1  0
  1 23  1  0
  1 24  1  0
  3 25  1  0
  3 26  1  0
  4 27  1  0
  4 28  1  0
  5 29  1  1
  6 30  1  6
  7 31  1  0
  7 32  1  0
  8 33  1  0
  8 34  1  0
 10 35  1  0
 12 36  1  0
 14 37  1  0
 15 38  1  0
 17 39  1  1
 18 40  1  0
 18 41  1  0
 19 42  1  0
 19 43  1  0
M  END
$$$$
[H]c1nc([C@@]2([H])C([H])([H])[C@]2([H])C([H])([H])Oc2nc(C([H])([H])[H])nc([H])c2-c2c([H])c([H])c(=O)n(C([H])([H])[H])c2[H])c([H])c([H])c1OC([H])([H])[H]
     RDKit          3D

 50 53  0  0  0  0  0  0  0  0999 V2000
    8.1814   -0.8714    0.1917 C   0  0  0  0  0  0  0  0  0  0  0  0
    7.0828   -0.9244   -0.6895 O   0  0  0  0  0  0  0  0  0  0  0  0
    5.9013   -0.3113   -0.2968 C   0  0  0  0  0  0  0  0  0  0  0  0
    5.7694    0.3393    0.9117 C   0  0  0  0  0  0  0  0  0  0  0  0
    4.5953    0.9383    1.2815 C   0  0  0  0  0  0  0  0  0  0  0  0
    3.5036    0.9041    0.4428 C   0  0  0  0  0  0  0  0  0  0  0  0
    3.6454    0.2659   -0.7339 N   0  0  0  0  0  0  0  0  0  0  0  0
    4.7829   -0.3325   -1.1282 C   0  0  0  0  0  0  0  0  0  0  0  0
    2.2291    1.5519    0.8392 C   0  0  1  0  0  0  0  0  0  0  0  0
    1.5663    2.3137   -0.2836 C   0  0  0  0  0  0  0  0  0  0  0  0
    0.9664    1.0470    0.2209 C   0  0  2  0  0  0  0  0  0  0  0  0
   -0.2530    1.0808    1.0945 C   0  0  0  0  0  0  0  0  0  0  0  0
   -1.4190    0.6065    0.5016 O   0  0  0  0  0  0  0  0  0  0  0  0
   -1.6501   -0.6487   -0.0035 C   0  0  0  0  0  0  0  0  0  0  0  0
   -0.7212   -1.6238    0.0183 N   0  0  0  0  0  0  0  0  0  0  0  0
   -0.9090   -2.8620   -0.4643 C   0  0  0  0  0  0  0  0  0  0  0  0
    0.1421   -3.9108   -0.4215 C   0  0  0  0  0  0  0  0  0  0  0  0
   -2.1072   -3.1424   -1.0048 N   0  0  0  0  0  0  0  0  0  0  0  0
   -3.0784   -2.2144   -1.0581 C   0  0  0  0  0  0  0  0  0  0  0  0
   -2.8824   -0.9232   -0.5549 C   0  0  0  0  0  0  0  0  0  0  0  0
   -3.9228    0.0817   -0.6126 C   0  0  0  0  0  0  0  0  0  0  0  0
   -3.6277    1.3526   -1.0511 C   0  0  0  0  0  0  0  0  0  0  0  0
   -4.6122    2.3410   -1.1135 C   0  0  0  0  0  0  0  0  0  0  0  0
   -5.8949    2.0357   -0.7301 C   0  0  0  0  0  0  0  0  0  0  0  0
   -6.7666    2.9555   -0.7984 O   0  0  0  0  0  0  0  0  0  0  0  0
   -6.1771    0.8023   -0.3057 N   0  0  0  0  0  0  0  0  0  0  0  0
   -7.5356    0.4949    0.0956 C   0  0  0  0  0  0  0  0  0  0  0  0
   -5.2254   -0.1645   -0.2420 C   0  0  0  0  0  0  0  0  0  0  0  0
    8.3310    0.1823    0.4915 H   0  0  0  0  0  0  0  0  0  0  0  0
    7.9444   -1.4431    1.1234 H   0  0  0  0  0  0  0  0  0  0  0  0
    9.1165   -1.2382   -0.2804 H   0  0  0  0  0  0  0  0  0  0  0  0
    6.6177    0.3781    1.5878 H   0  0  0  0  0  0  0  0  0  0  0  0
    4.5109    1.4499    2.2452 H   0  0  0  0  0  0  0  0  0  0  0  0
    4.8534   -0.8366   -2.0868 H   0  0  0  0  0  0  0  0  0  0  0  0
    2.2302    2.0399    1.8156 H   0  0  0  0  0  0  0  0  0  0  0  0
    1.1167    3.2902   -0.0274 H   0  0  0  0  0  0  0  0  0  0  0  0
    2.0289    2.3054   -1.2917 H   0  0  0  0  0  0  0  0  0  0  0  0
    1.0887    0.1672   -0.4349 H   0  0  0  0  0  0  0  0  0  0  0  0
   -0.0157    0.4406    1.9942 H   0  0  0  0  0  0  0  0  0  0  0  0
   -0.4606    2.0846    1.5059 H   0  0  0  0  0  0  0  0  0  0  0  0
    0.0227   -4.6444   -1.2454 H   0  0  0  0  0  0  0  0  0  0  0  0
    1.1600   -3.5138   -0.4914 H   0  0  0  0  0  0  0  0  0  0  0  0
    0.0930   -4.5047    0.5337 H   0  0  0  0  0  0  0  0  0  0  0  0
   -4.0596   -2.4127   -1.4902 H   0  0  0  0  0  0  0  0  0  0  0  0
   -2.6304    1.6287   -1.3632 H   0  0  0  0  0  0  0  0  0  0  0  0
   -4.3154    3.3158   -1.4658 H   0  0  0  0  0  0  0  0  0  0  0  0
   -7.6752   -0.5990    0.2649 H   0  0  0  0  0  0  0  0  0  0  0  0
   -7.7677    1.0939    0.9835 H   0  0  0  0  0  0  0  0  0  0  0  0
   -8.2427    0.7718   -0.7218 H   0  0  0  0  0  0  0  0  0  0  0  0
   -5.5305   -1.1377    0.1118 H   0  0  0  0  0  0  0  0  0  0  0  0
  1  2  1  0
  2  3  1  0
  3  4  2  0
  4  5  1  0
  5  6  2  0
  6  7  1  0
  7  8  2  0
  6  9  1  0
  9 10  1  0
 10 11  1  0
 11 12  1  0
 12 13  1  0
 13 14  1  0
 14 15  2  0
 15 16  1  0
 16 17  1  0
 16 18  2  0
 18 19  1  0
 19 20  2  0
 20 21  1  0
 21 22  1  0
 22 23  2  0
 23 24  1  0
 24 25  2  0
 24 26  1  0
 26 27  1  0
 26 28  1  0
  8  3  1  0
 11  9  1  0
 20 14  1  0
 28 21  2  0
  1 29  1  0
  1 30  1  0
  1 31  1  0
  4 32  1  0
  5 33  1  0
  8 34  1  0
  9 35  1  1
 10 36  1  0
 10 37  1  0
 11 38  1  6
 12 39  1  0
 12 40  1  0
 17 41  1  0
 17 42  1  0
 17 43  1  0
 19 44  1  0
 22 45  1  0
 23 46  1  0
 27 47  1  0
 27 48  1  0
 27 49  1  0
 28 50  1  0
M  END
$$$$
[H]c1nc2c([H])c(OC([H])([H])C([H])([H])C([H])([H])N3C([H])([H])C([H])([H])C([H])([H])C3([H])[H])c(OC([H])([H])[H])c([H])c2c(Oc2c([H])c([H])c(N([H])C(=O)C3(C(=O)N([H])c4c([H])c([H])c(Cl)c([H])c4[H])C([H])([H])C3([H])[H])c([H])c2F)c1[H]
     RDKit          3D

 79 84  0  0  0  0  0  0  0  0999 V2000
    4.0390   -0.4370   -3.2654 C   0  0  0  0  0  0  0  0  0  0  0  0
    4.8087   -0.7300   -2.1089 O   0  0  0  0  0  0  0  0  0  0  0  0
    4.1447   -0.9851   -0.9193 C   0  0  0  0  0  0  0  0  0  0  0  0
    2.7673   -0.9681   -0.7944 C   0  0  0  0  0  0  0  0  0  0  0  0
    2.1674   -1.2312    0.4166 C   0  0  0  0  0  0  0  0  0  0  0  0
    0.7847   -1.2138    0.6050 C   0  0  0  0  0  0  0  0  0  0  0  0
    0.0388   -0.9167   -0.5055 O   0  0  0  0  0  0  0  0  0  0  0  0
   -1.3250   -0.7293   -0.4464 C   0  0  0  0  0  0  0  0  0  0  0  0
   -2.2109   -1.5598   -1.0829 C   0  0  0  0  0  0  0  0  0  0  0  0
   -3.5987   -1.3363   -1.0012 C   0  0  0  0  0  0  0  0  0  0  0  0
   -4.0926   -0.2923   -0.2884 C   0  0  0  0  0  0  0  0  0  0  0  0
   -5.4732   -0.0294   -0.1256 N   0  0  0  0  0  0  0  0  0  0  0  0
   -6.4430   -1.0149   -0.0745 C   0  0  0  0  0  0  0  0  0  0  0  0
   -6.0141   -2.2380   -0.1849 O   0  0  0  0  0  0  0  0  0  0  0  0
   -7.9035   -0.8892    0.0889 C   0  0  0  0  0  0  0  0  0  0  0  0
   -8.6664   -1.8493   -0.8813 C   0  0  0  0  0  0  0  0  0  0  0  0
   -8.7088   -2.0230    0.6061 C   0  0  0  0  0  0  0  0  0  0  0  0
   -8.4907    0.4585    0.2753 C   0  0  0  0  0  0  0  0  0  0  0  0
   -7.8418    1.4919    0.5166 O   0  0  0  0  0  0  0  0  0  0  0  0
   -9.9243    0.5775    0.1705 N   0  0  0  0  0  0  0  0  0  0  0  0
  -10.6745    1.7533    0.3063 C   0  0  0  0  0  0  0  0  0  0  0  0
  -10.1896    3.0070    0.1258 C   0  0  0  0  0  0  0  0  0  0  0  0
  -10.9871    4.1420    0.3077 C   0  0  0  0  0  0  0  0  0  0  0  0
  -12.2989    3.9649    0.6791 C   0  0  0  0  0  0  0  0  0  0  0  0
  -13.3726    5.3432    0.9303 Cl  0  0  0  0  0  0  0  0  0  0  0  0
  -12.8459    2.7223    0.8758 C   0  0  0  0  0  0  0  0  0  0  0  0
  -12.0294    1.6419    0.6870 C   0  0  0  0  0  0  0  0  0  0  0  0
   -3.1875    0.5696    0.3695 C   0  0  0  0  0  0  0  0  0  0  0  0
   -1.8561    0.3427    0.2806 C   0  0  0  0  0  0  0  0  0  0  0  0
   -1.0078    1.2206    0.9155 F   0  0  0  0  0  0  0  0  0  0  0  0
    0.2239   -1.4707    1.8272 C   0  0  0  0  0  0  0  0  0  0  0  0
    1.0619   -1.7537    2.9011 C   0  0  0  0  0  0  0  0  0  0  0  0
    2.3917   -1.7681    2.7166 N   0  0  0  0  0  0  0  0  0  0  0  0
    2.9528   -1.5143    1.5080 C   0  0  0  0  0  0  0  0  0  0  0  0
    4.3330   -1.5288    1.3721 C   0  0  0  0  0  0  0  0  0  0  0  0
    4.9613   -1.2693    0.1791 C   0  0  0  0  0  0  0  0  0  0  0  0
    6.3196   -1.2887    0.0932 O   0  0  0  0  0  0  0  0  0  0  0  0
    7.2547   -1.5421    1.0894 C   0  0  0  0  0  0  0  0  0  0  0  0
    8.6304   -1.4037    0.4241 C   0  0  0  0  0  0  0  0  0  0  0  0
    8.7574    0.0020   -0.1433 C   0  0  0  0  0  0  0  0  0  0  0  0
   10.0296    0.2387   -0.7919 N   0  0  0  0  0  0  0  0  0  0  0  0
   10.0004    1.5832   -1.3223 C   0  0  0  0  0  0  0  0  0  0  0  0
   11.3550    2.2006   -1.1263 C   0  0  0  0  0  0  0  0  0  0  0  0
   11.8943    1.4539    0.0561 C   0  0  0  0  0  0  0  0  0  0  0  0
   11.0929    0.1990    0.1912 C   0  0  0  0  0  0  0  0  0  0  0  0
    3.2699    0.3369   -3.0666 H   0  0  0  0  0  0  0  0  0  0  0  0
    4.6663   -0.1728   -4.1283 H   0  0  0  0  0  0  0  0  0  0  0  0
    3.4679   -1.3773   -3.5125 H   0  0  0  0  0  0  0  0  0  0  0  0
    2.1603   -0.7488   -1.6442 H   0  0  0  0  0  0  0  0  0  0  0  0
   -1.7990   -2.3843   -1.6457 H   0  0  0  0  0  0  0  0  0  0  0  0
   -4.2091   -2.0493   -1.5668 H   0  0  0  0  0  0  0  0  0  0  0  0
   -5.7237    0.9808   -0.0531 H   0  0  0  0  0  0  0  0  0  0  0  0
   -9.5678   -1.4635   -1.3659 H   0  0  0  0  0  0  0  0  0  0  0  0
   -8.0484   -2.5703   -1.4591 H   0  0  0  0  0  0  0  0  0  0  0  0
   -8.2283   -2.9482    0.9812 H   0  0  0  0  0  0  0  0  0  0  0  0
   -9.6271   -1.7652    1.1665 H   0  0  0  0  0  0  0  0  0  0  0  0
  -10.4716   -0.3056   -0.0258 H   0  0  0  0  0  0  0  0  0  0  0  0
   -9.1879    3.2011   -0.1761 H   0  0  0  0  0  0  0  0  0  0  0  0
  -10.6065    5.1254    0.1665 H   0  0  0  0  0  0  0  0  0  0  0  0
  -13.8854    2.6119    1.1696 H   0  0  0  0  0  0  0  0  0  0  0  0
  -12.4193    0.6462    0.8310 H   0  0  0  0  0  0  0  0  0  0  0  0
   -3.6392    1.3883    0.9211 H   0  0  0  0  0  0  0  0  0  0  0  0
   -0.8468   -1.4618    1.9251 H   0  0  0  0  0  0  0  0  0  0  0  0
    0.5783   -1.9492    3.8421 H   0  0  0  0  0  0  0  0  0  0  0  0
    4.9231   -1.7577    2.2593 H   0  0  0  0  0  0  0  0  0  0  0  0
    7.1273   -2.5589    1.4976 H   0  0  0  0  0  0  0  0  0  0  0  0
    7.1893   -0.8510    1.9677 H   0  0  0  0  0  0  0  0  0  0  0  0
    9.4265   -1.5431    1.1735 H   0  0  0  0  0  0  0  0  0  0  0  0
    8.6836   -2.1846   -0.3580 H   0  0  0  0  0  0  0  0  0  0  0  0
    7.9252    0.2111   -0.8592 H   0  0  0  0  0  0  0  0  0  0  0  0
    8.6221    0.7100    0.6997 H   0  0  0  0  0  0  0  0  0  0  0  0
    9.7254    1.5913   -2.4018 H   0  0  0  0  0  0  0  0  0  0  0  0
    9.2631    2.1740   -0.7398 H   0  0  0  0  0  0  0  0  0  0  0  0
   11.2251    3.2764   -0.8910 H   0  0  0  0  0  0  0  0  0  0  0  0
   11.9991    2.1476   -2.0265 H   0  0  0  0  0  0  0  0  0  0  0  0
   12.9932    1.2818   -0.0912 H   0  0  0  0  0  0  0  0  0  0  0  0
   11.7095    2.0709    0.9620 H   0  0  0  0  0  0  0  0  0  0  0  0
   10.6739    0.0823    1.2190 H   0  0  0  0  0  0  0  0  0  0  0  0
   11.7637   -0.6748    0.0207 H   0  0  0  0  0  0  0  0  0  0  0  0
  1  2  1  0
  2  3  1  0
  3  4  2  0
  4  5  1  0
  5  6  2  0
  6  7  1  0
  7  8  1  0
  8  9  2  0
  9 10  1  0
 10 11  2  0
 11 12  1  0
 12 13  1  0
 13 14  2  0
 13 15  1  0
 15 16  1  0
 16 17  1  0
 15 18  1  0
 18 19  2  0
 18 20  1  0
 20 21  1  0
 21 22  2  0
 22 23  1  0
 23 24  2  0
 24 25  1  0
 24 26  1  0
 26 27  2  0
 11 28  1  0
 28 29  2  0
 29 30  1  0
  6 31  1  0
 31 32  2  0
 32 33  1  0
 33 34  2  0
 34 35  1  0
 35 36  2  0
 36 37  1  0
 37 38  1  0
 38 39  1  0
 39 40  1  0
 40 41  1  0
 41 42  1  0
 42 43  1  0
 43 44  1  0
 44 45  1  0
 36  3  1  0
 45 41  1  0
 34  5  1  0
 29  8  1  0
 17 15  1  0
 27 21  1  0
  1 46  1  0
  1 47  1  0
  1 48  1  0
  4 49  1  0
  9 50  1  0
 10 51  1  0
 12 52  1  0
 16 53  1  0
 16 54  1  0
 17 55  1  0
 17 56  1  0
 20 57  1  0
 22 58  1  0
 23 59  1  0
 26 60  1  0
 27 61  1  0
 28 62  1  0
 31 63  1  0
 32 64  1  0
 35 65  1  0
 38 66  1  0
 38 67  1  0
 39 68  1  0
 39 69  1  0
 40 70  1  0
 40 71  1  0
 42 72  1  0
 42 73  1  0
 43 74  1  0
 43 75  1  0
 44 76  1  0
 44 77  1  0
 45 78  1  0
 45 79  1  0
M  END
$$$$
[H]c1nc([H])c2sc(C(=O)N([H])C([H])([H])[H])c([H])c2c1Oc1c([H])c([H])c(N([H])C(=O)C2(C(F)(F)F)C([H])([H])C2([H])[H])c([H])c1[H]
     RDKit          3D

 46 49  0  0  0  0  0  0  0  0999 V2000
    8.1408   -1.1113    1.9996 C   0  0  0  0  0  0  0  0  0  0  0  0
    6.9750   -0.6304    1.2945 N   0  0  0  0  0  0  0  0  0  0  0  0
    7.1069    0.1335    0.1259 C   0  0  0  0  0  0  0  0  0  0  0  0
    8.2287    0.4129   -0.3272 O   0  0  0  0  0  0  0  0  0  0  0  0
    5.9253    0.6306   -0.6046 C   0  0  0  0  0  0  0  0  0  0  0  0
    4.6081    0.4395   -0.2774 C   0  0  0  0  0  0  0  0  0  0  0  0
    3.6808    0.9868   -1.0915 C   0  0  0  0  0  0  0  0  0  0  0  0
    2.2768    0.9325   -0.9712 C   0  0  0  0  0  0  0  0  0  0  0  0
    1.6733    0.2468    0.0942 O   0  0  0  0  0  0  0  0  0  0  0  0
    0.3102    0.1681    0.2405 C   0  0  0  0  0  0  0  0  0  0  0  0
   -0.3747   -0.8805   -0.3277 C   0  0  0  0  0  0  0  0  0  0  0  0
   -1.7659   -0.9604   -0.1775 C   0  0  0  0  0  0  0  0  0  0  0  0
   -2.5072   -0.0509    0.5075 C   0  0  0  0  0  0  0  0  0  0  0  0
   -3.9062   -0.0569    0.6841 N   0  0  0  0  0  0  0  0  0  0  0  0
   -4.8067   -0.8216   -0.0504 C   0  0  0  0  0  0  0  0  0  0  0  0
   -4.4355   -1.5878   -0.9601 O   0  0  0  0  0  0  0  0  0  0  0  0
   -6.2842   -0.7860    0.1937 C   0  0  0  0  0  0  0  0  0  0  0  0
   -6.8161   -0.9894    1.5525 C   0  0  0  0  0  0  0  0  0  0  0  0
   -6.8123    0.3794    0.9083 C   0  0  0  0  0  0  0  0  0  0  0  0
   -7.0990   -1.3848   -0.9569 C   0  0  0  0  0  0  0  0  0  0  0  0
   -8.4321   -1.3001   -0.6259 F   0  0  0  0  0  0  0  0  0  0  0  0
   -6.8500   -0.6601   -2.1063 F   0  0  0  0  0  0  0  0  0  0  0  0
   -6.6807   -2.6716   -1.1568 F   0  0  0  0  0  0  0  0  0  0  0  0
   -1.7755    1.0158    1.0808 C   0  0  0  0  0  0  0  0  0  0  0  0
   -0.4192    1.0986    0.9379 C   0  0  0  0  0  0  0  0  0  0  0  0
    1.4533    1.5394   -1.8795 C   0  0  0  0  0  0  0  0  0  0  0  0
    1.9276    2.2221   -2.9384 N   0  0  0  0  0  0  0  0  0  0  0  0
    3.2595    2.2957   -3.0872 C   0  0  0  0  0  0  0  0  0  0  0  0
    4.1384    1.6848   -2.1732 C   0  0  0  0  0  0  0  0  0  0  0  0
    5.8335    1.5601   -2.0264 S   0  0  0  0  0  0  0  0  0  0  0  0
    8.7569   -1.7914    1.3599 H   0  0  0  0  0  0  0  0  0  0  0  0
    8.8003   -0.2781    2.3191 H   0  0  0  0  0  0  0  0  0  0  0  0
    7.8778   -1.6848    2.9105 H   0  0  0  0  0  0  0  0  0  0  0  0
    6.0232   -0.8498    1.6522 H   0  0  0  0  0  0  0  0  0  0  0  0
    4.3511   -0.1531    0.6362 H   0  0  0  0  0  0  0  0  0  0  0  0
    0.1357   -1.6533   -0.8927 H   0  0  0  0  0  0  0  0  0  0  0  0
   -2.2168   -1.8139   -0.6375 H   0  0  0  0  0  0  0  0  0  0  0  0
   -4.2933    0.5727    1.4469 H   0  0  0  0  0  0  0  0  0  0  0  0
   -7.8397   -1.4607    1.6527 H   0  0  0  0  0  0  0  0  0  0  0  0
   -6.1237   -1.2229    2.3823 H   0  0  0  0  0  0  0  0  0  0  0  0
   -6.1721    1.1756    1.3243 H   0  0  0  0  0  0  0  0  0  0  0  0
   -7.7959    0.7771    0.5639 H   0  0  0  0  0  0  0  0  0  0  0  0
   -2.3004    1.7747    1.6397 H   0  0  0  0  0  0  0  0  0  0  0  0
    0.1317    1.9251    1.3845 H   0  0  0  0  0  0  0  0  0  0  0  0
    0.3591    1.4557   -1.7212 H   0  0  0  0  0  0  0  0  0  0  0  0
    3.7330    2.8202   -3.9022 H   0  0  0  0  0  0  0  0  0  0  0  0
  1  2  1  0
  2  3  1  0
  3  4  2  0
  3  5  1  0
  5  6  2  0
  6  7  1  0
  7  8  2  0
  8  9  1  0
  9 10  1  0
 10 11  2  0
 11 12  1  0
 12 13  2  0
 13 14  1  0
 14 15  1  0
 15 16  2  0
 15 17  1  0
 17 18  1  0
 18 19  1  0
 17 20  1  0
 20 21  1  0
 20 22  1  0
 20 23  1  0
 13 24  1  0
 24 25  2  0
  8 26  1  0
 26 27  2  0
 27 28  1  0
 28 29  2  0
 29 30  1  0
 30  5  1  0
 29  7  1  0
 25 10  1  0
 19 17  1  0
  1 31  1  0
  1 32  1  0
  1 33  1  0
  2 34  1  0
  6 35  1  0
 11 36  1  0
 12 37  1  0
 14 38  1  0
 18 39  1  0
 18 40  1  0
 19 41  1  0
 19 42  1  0
 24 43  1  0
 25 44  1  0
 26 45  1  0
 28 46  1  0
M  END
$$$$
[H]c1nc(N([H])c2c([H])c([H])c(N3C([H])([H])C([H])([H])N(C([H])([H])[H])C([H])([H])C3([H])[H])c([H])c2OC([H])([H])[H])nc(N([H])c2c([H])c([H])c([H])c([H])c2S(=O)(=O)C([H])(C([H])([H])[H])C([H])([H])[H])c1Cl
     RDKit          3D

 67 70  0  0  0  0  0  0  0  0999 V2000
    2.7980   -3.3310   -1.2288 C   0  0  0  0  0  0  0  0  0  0  0  0
    1.9415   -2.2352   -0.9986 O   0  0  0  0  0  0  0  0  0  0  0  0
    2.4816   -1.0407   -0.5265 C   0  0  0  0  0  0  0  0  0  0  0  0
    3.8274   -0.9244   -0.2865 C   0  0  0  0  0  0  0  0  0  0  0  0
    4.4213    0.2145    0.1751 C   0  0  0  0  0  0  0  0  0  0  0  0
    3.5861    1.2917    0.4024 C   0  0  0  0  0  0  0  0  0  0  0  0
    2.2085    1.1836    0.1606 C   0  0  0  0  0  0  0  0  0  0  0  0
    1.6255    0.0523   -0.2972 C   0  0  0  0  0  0  0  0  0  0  0  0
    0.2667   -0.0963   -0.5497 N   0  0  0  0  0  0  0  0  0  0  0  0
   -0.7485    0.8732   -0.3847 C   0  0  0  0  0  0  0  0  0  0  0  0
   -0.5976    2.1249    0.0475 N   0  0  0  0  0  0  0  0  0  0  0  0
   -1.5696    3.0148    0.1930 C   0  0  0  0  0  0  0  0  0  0  0  0
   -2.8553    2.6370   -0.1234 C   0  0  0  0  0  0  0  0  0  0  0  0
   -4.1874    3.7633    0.0449 Cl  0  0  0  0  0  0  0  0  0  0  0  0
   -3.1059    1.3214   -0.5915 C   0  0  0  0  0  0  0  0  0  0  0  0
   -4.4442    0.9705   -0.8839 N   0  0  0  0  0  0  0  0  0  0  0  0
   -4.8563   -0.2771   -1.3763 C   0  0  0  0  0  0  0  0  0  0  0  0
   -4.0250   -1.2445   -1.8945 C   0  0  0  0  0  0  0  0  0  0  0  0
   -4.4990   -2.4531   -2.4340 C   0  0  0  0  0  0  0  0  0  0  0  0
   -5.8636   -2.6532   -2.4324 C   0  0  0  0  0  0  0  0  0  0  0  0
   -6.7143   -1.7053   -1.9218 C   0  0  0  0  0  0  0  0  0  0  0  0
   -6.2437   -0.5196   -1.3917 C   0  0  0  0  0  0  0  0  0  0  0  0
   -7.3164    0.6608   -0.6987 S   0  0  0  0  0  0  0  0  0  0  0  0
   -7.3933    1.9371   -1.4847 O   0  0  0  0  0  0  0  0  0  0  0  0
   -8.7283    0.0574   -0.8397 O   0  0  0  0  0  0  0  0  0  0  0  0
   -7.0890    0.8939    1.0249 C   0  0  0  0  0  0  0  0  0  0  0  0
   -7.3480   -0.4235    1.7701 C   0  0  0  0  0  0  0  0  0  0  0  0
   -8.1301    1.8608    1.6013 C   0  0  0  0  0  0  0  0  0  0  0  0
   -2.0417    0.5457   -0.6857 N   0  0  0  0  0  0  0  0  0  0  0  0
    5.8136    0.2932    0.3958 N   0  0  0  0  0  0  0  0  0  0  0  0
    6.4498    1.3219    1.2076 C   0  0  0  0  0  0  0  0  0  0  0  0
    7.4716    0.7173    2.1500 C   0  0  0  0  0  0  0  0  0  0  0  0
    8.2281   -0.3570    1.5914 N   0  0  0  0  0  0  0  0  0  0  0  0
    9.2895    0.0606    0.7233 C   0  0  0  0  0  0  0  0  0  0  0  0
    7.3758   -1.3808    0.9847 C   0  0  0  0  0  0  0  0  0  0  0  0
    6.7127   -0.6643   -0.2033 C   0  0  0  0  0  0  0  0  0  0  0  0
    2.1978   -4.1742   -1.5940 H   0  0  0  0  0  0  0  0  0  0  0  0
    3.3465   -3.6080   -0.3147 H   0  0  0  0  0  0  0  0  0  0  0  0
    3.5586   -2.9887   -1.9679 H   0  0  0  0  0  0  0  0  0  0  0  0
    4.4382   -1.8245   -0.4810 H   0  0  0  0  0  0  0  0  0  0  0  0
    4.0232    2.2148    0.7675 H   0  0  0  0  0  0  0  0  0  0  0  0
    1.6829    2.0994    0.3817 H   0  0  0  0  0  0  0  0  0  0  0  0
   -0.0953   -1.0472   -0.9152 H   0  0  0  0  0  0  0  0  0  0  0  0
   -1.3686    4.0319    0.5559 H   0  0  0  0  0  0  0  0  0  0  0  0
   -5.1553    1.7451   -0.7241 H   0  0  0  0  0  0  0  0  0  0  0  0
   -2.9519   -1.1300   -1.9331 H   0  0  0  0  0  0  0  0  0  0  0  0
   -3.8051   -3.1751   -2.8254 H   0  0  0  0  0  0  0  0  0  0  0  0
   -6.2117   -3.5899   -2.8525 H   0  0  0  0  0  0  0  0  0  0  0  0
   -7.7729   -1.8830   -1.9315 H   0  0  0  0  0  0  0  0  0  0  0  0
   -6.0945    1.2164    1.2893 H   0  0  0  0  0  0  0  0  0  0  0  0
   -7.0459   -0.2515    2.8164 H   0  0  0  0  0  0  0  0  0  0  0  0
   -6.7761   -1.2538    1.3513 H   0  0  0  0  0  0  0  0  0  0  0  0
   -8.4409   -0.6809    1.6975 H   0  0  0  0  0  0  0  0  0  0  0  0
   -8.1469    1.6683    2.6953 H   0  0  0  0  0  0  0  0  0  0  0  0
   -7.8558    2.8834    1.3399 H   0  0  0  0  0  0  0  0  0  0  0  0
   -9.1318    1.5480    1.2224 H   0  0  0  0  0  0  0  0  0  0  0  0
    5.6986    1.8496    1.8178 H   0  0  0  0  0  0  0  0  0  0  0  0
    6.9306    2.0340    0.5190 H   0  0  0  0  0  0  0  0  0  0  0  0
    6.9661    0.3984    3.0955 H   0  0  0  0  0  0  0  0  0  0  0  0
    8.1853    1.5113    2.4512 H   0  0  0  0  0  0  0  0  0  0  0  0
    9.0845    1.0803    0.3255 H   0  0  0  0  0  0  0  0  0  0  0  0
   10.2479    0.0559    1.3173 H   0  0  0  0  0  0  0  0  0  0  0  0
    9.3924   -0.6645   -0.1011 H   0  0  0  0  0  0  0  0  0  0  0  0
    6.5706   -1.6106    1.6897 H   0  0  0  0  0  0  0  0  0  0  0  0
    7.9791   -2.2304    0.6689 H   0  0  0  0  0  0  0  0  0  0  0  0
    6.2815   -1.3420   -0.9293 H   0  0  0  0  0  0  0  0  0  0  0  0
    7.5281   -0.0532   -0.6714 H   0  0  0  0  0  0  0  0  0  0  0  0
  1  2  1  0
  2  3  1  0
  3  4  2  0
  4  5  1  0
  5  6  2  0
  6  7  1  0
  7  8  2  0
  8  9  1  0
  9 10  1  0
 10 11  2  0
 11 12  1  0
 12 13  2  0
 13 14  1  0
 13 15  1  0
 15 16  1  0
 16 17  1  0
 17 18  2  0
 18 19  1  0
 19 20  2  0
 20 21  1  0
 21 22  2  0
 22 23  1  0
 23 24  2  0
 23 25  2  0
 23 26  1  0
 26 27  1  0
 26 28  1  0
 15 29  2  0
  5 30  1  0
 30 31  1  0
 31 32  1  0
 32 33  1  0
 33 34  1  0
 33 35  1  0
 35 36  1  0
  8  3  1  0
 29 10  1  0
 36 30  1  0
 22 17  1  0
  1 37  1  0
  1 38  1  0
  1 39  1  0
  4 40  1  0
  6 41  1  0
  7 42  1  0
  9 43  1  0
 12 44  1  0
 16 45  1  0
 18 46  1  0
 19 47  1  0
 20 48  1  0
 21 49  1  0
 26 50  1  0
 27 51  1  0
 27 52  1  0
 27 53  1  0
 28 54  1  0
 28 55  1  0
 28 56  1  0
 31 57  1  0
 31 58  1  0
 32 59  1  0
 32 60  1  0
 34 61  1  0
 34 62  1  0
 34 63  1  0
 35 64  1  0
 35 65  1  0
 36 66  1  0
 36 67  1  0
M  END
$$$$
[H]c1c([H])c([H])c2c(c1[H])c(C1=C(c3c([H])n(C([H])([H])[H])c4c([H])c([H])c(Cl)c([H])c34)C(=O)N([H])C1=O)c([H])n2C([H])([H])[H]
     RDKit          3D

 44 48  0  0  0  0  0  0  0  0999 V2000
    2.1531    2.8986    0.8860 C   0  0  0  0  0  0  0  0  0  0  0  0
    2.1589    1.5277    0.4188 N   0  0  0  0  0  0  0  0  0  0  0  0
    1.2722    1.0164   -0.4154 C   0  0  0  0  0  0  0  0  0  0  0  0
    1.5390   -0.3325   -0.6827 C   0  0  0  0  0  0  0  0  0  0  0  0
    0.7290   -1.1688   -1.5517 C   0  0  0  0  0  0  0  0  0  0  0  0
   -0.5977   -1.2830   -1.4755 C   0  0  0  0  0  0  0  0  0  0  0  0
   -1.0583   -2.2034   -2.5094 C   0  0  0  0  0  0  0  0  0  0  0  0
   -2.2157   -2.5957   -2.7906 O   0  0  0  0  0  0  0  0  0  0  0  0
    0.0887   -2.6363   -3.2195 N   0  0  0  0  0  0  0  0  0  0  0  0
    1.2227   -2.0027   -2.6409 C   0  0  0  0  0  0  0  0  0  0  0  0
    2.4273   -2.1210   -2.9847 O   0  0  0  0  0  0  0  0  0  0  0  0
   -1.4577   -0.6411   -0.4951 C   0  0  0  0  0  0  0  0  0  0  0  0
   -1.2203   -0.6458    0.8623 C   0  0  0  0  0  0  0  0  0  0  0  0
   -2.2052    0.0464    1.4537 N   0  0  0  0  0  0  0  0  0  0  0  0
   -2.3133    0.2696    2.8903 C   0  0  0  0  0  0  0  0  0  0  0  0
   -3.0701    0.5004    0.5504 C   0  0  0  0  0  0  0  0  0  0  0  0
   -4.2174    1.2499    0.6737 C   0  0  0  0  0  0  0  0  0  0  0  0
   -4.9220    1.5823   -0.4657 C   0  0  0  0  0  0  0  0  0  0  0  0
   -4.5104    1.1867   -1.7128 C   0  0  0  0  0  0  0  0  0  0  0  0
   -3.3437    0.4263   -1.8175 C   0  0  0  0  0  0  0  0  0  0  0  0
   -2.6209    0.0787   -0.7022 C   0  0  0  0  0  0  0  0  0  0  0  0
    2.6596   -0.6131    0.0522 C   0  0  0  0  0  0  0  0  0  0  0  0
    3.3905   -1.7540    0.2125 C   0  0  0  0  0  0  0  0  0  0  0  0
    4.4982   -1.7224    1.0544 C   0  0  0  0  0  0  0  0  0  0  0  0
    5.4582   -3.1485    1.2897 Cl  0  0  0  0  0  0  0  0  0  0  0  0
    4.8617   -0.5610    1.7222 C   0  0  0  0  0  0  0  0  0  0  0  0
    4.1216    0.5871    1.5589 C   0  0  0  0  0  0  0  0  0  0  0  0
    3.0312    0.5415    0.7255 C   0  0  0  0  0  0  0  0  0  0  0  0
    2.3619    3.5677    0.0335 H   0  0  0  0  0  0  0  0  0  0  0  0
    2.9467    2.9806    1.6557 H   0  0  0  0  0  0  0  0  0  0  0  0
    1.1471    3.2005    1.2672 H   0  0  0  0  0  0  0  0  0  0  0  0
    0.4212    1.5412   -0.8652 H   0  0  0  0  0  0  0  0  0  0  0  0
    0.0981   -3.2949   -4.0169 H   0  0  0  0  0  0  0  0  0  0  0  0
   -0.3916   -1.1148    1.4075 H   0  0  0  0  0  0  0  0  0  0  0  0
   -1.6238   -0.3878    3.4482 H   0  0  0  0  0  0  0  0  0  0  0  0
   -2.1344    1.3393    3.0621 H   0  0  0  0  0  0  0  0  0  0  0  0
   -3.3931    0.0412    3.1235 H   0  0  0  0  0  0  0  0  0  0  0  0
   -4.5838    1.5873    1.6470 H   0  0  0  0  0  0  0  0  0  0  0  0
   -5.8388    2.1757   -0.4024 H   0  0  0  0  0  0  0  0  0  0  0  0
   -5.0493    1.4400   -2.5967 H   0  0  0  0  0  0  0  0  0  0  0  0
   -3.0091    0.1202   -2.7867 H   0  0  0  0  0  0  0  0  0  0  0  0
    3.1020   -2.6683   -0.3011 H   0  0  0  0  0  0  0  0  0  0  0  0
    5.7209   -0.5174    2.3809 H   0  0  0  0  0  0  0  0  0  0  0  0
    4.3666    1.5072    2.0566 H   0  0  0  0  0  0  0  0  0  0  0  0
  1  2  1  0
  2  3  1  0
  3  4  2  0
  4  5  1  0
  5  6  2  0
  6  7  1  0
  7  8  2  0
  7  9  1  0
  9 10  1  0
 10 11  2  0
  6 12  1  0
 12 13  2  0
 13 14  1  0
 14 15  1  0
 14 16  1  0
 16 17  2  0
 17 18  1  0
 18 19  2  0
 19 20  1  0
 20 21  2  0
  4 22  1  0
 22 23  2  0
 23 24  1  0
 24 25  1  0
 24 26  2  0
 26 27  1  0
 27 28  2  0
 28  2  1  0
 10  5  1  0
 21 12  1  0
 28 22  1  0
 21 16  1  0
  1 29  1  0
  1 30  1  0
  1 31  1  0
  3 32  1  0
  9 33  1  0
 13 34  1  0
 15 35  1  0
 15 36  1  0
 15 37  1  0
 17 38  1  0
 18 39  1  0
 19 40  1  0
 20 41  1  0
 23 42  1  0
 26 43  1  0
 27 44  1  0
M  END
$$$$
[H]OC(=O)C(F)(F)F.[H]OC(=O)C(F)(F)F
     RDKit          3D

 16 14  0  0  0  0  0  0  0  0999 V2000
   -1.4839   -0.4635    0.3845 O   0  0  0  0  0  0  0  0  0  0  0  0
   -0.4239   -0.3865   -0.5079 C   0  0  0  0  0  0  0  0  0  0  0  0
   -0.6220   -0.8081   -1.6672 O   0  0  0  0  0  0  0  0  0  0  0  0
    0.8663    0.1848   -0.0385 C   0  0  0  0  0  0  0  0  0  0  0  0
    0.6683    1.4762    0.3786 F   0  0  0  0  0  0  0  0  0  0  0  0
    1.7941    0.1720   -1.0648 F   0  0  0  0  0  0  0  0  0  0  0  0
    1.2846   -0.5451    1.0514 F   0  0  0  0  0  0  0  0  0  0  0  0
   -1.4839   -0.4635    0.3845 O   0  0  0  0  0  0  0  0  0  0  0  0
   -0.4239   -0.3865   -0.5079 C   0  0  0  0  0  0  0  0  0  0  0  0
   -0.6220   -0.8081   -1.6672 O   0  0  0  0  0  0  0  0  0  0  0  0
    0.8663    0.1848   -0.0385 C   0  0  0  0  0  0  0  0  0  0  0  0
    0.6683    1.4762    0.3786 F   0  0  0  0  0  0  0  0  0  0  0  0
    1.7941    0.1720   -1.0648 F   0  0  0  0  0  0  0  0  0  0  0  0
    1.2846   -0.5451    1.0514 F   0  0  0  0  0  0  0  0  0  0  0  0
   -2.0834    0.3704    0.4279 H   0  0  0  0  0  0  0  0  0  0  0  0
   -2.0834    0.3704    0.4279 H   0  0  0  0  0  0  0  0  0  0  0  0
  1  2  1  0
  2  3  2  0
  2  4  1  0
  4  5  1  0
  4  6  1  0
  4  7  1  0
  8  9  1  0
  9 10  2  0
  9 11  1  0
 11 12  1  0
 11 13  1  0
 11 14  1  0
  1 15  1  0
  8 16  1  0
M  END
$$$$
[H]c1c([H])c(Cl)c(-c2c([H])c3c([H])nc(N([H])C([H])([H])[H])nc3n(C([H])([H])[H])c2=O)c(Cl)c1[H]
     RDKit          3D

 34 36  0  0  0  0  0  0  0  0999 V2000
    5.9432   -0.1351    0.7073 C   0  0  0  0  0  0  0  0  0  0  0  0
    4.9341   -0.0847   -0.3255 N   0  0  0  0  0  0  0  0  0  0  0  0
    3.5534   -0.0679   -0.0034 C   0  0  0  0  0  0  0  0  0  0  0  0
    3.1759   -0.0995    1.2877 N   0  0  0  0  0  0  0  0  0  0  0  0
    1.8667   -0.0848    1.6345 C   0  0  0  0  0  0  0  0  0  0  0  0
    0.8830   -0.0372    0.6805 C   0  0  0  0  0  0  0  0  0  0  0  0
   -0.4401   -0.0232    1.0594 C   0  0  0  0  0  0  0  0  0  0  0  0
   -1.3934    0.0257    0.0394 C   0  0  0  0  0  0  0  0  0  0  0  0
   -2.8186    0.0434    0.3600 C   0  0  0  0  0  0  0  0  0  0  0  0
   -3.5522   -1.1211    0.4847 C   0  0  0  0  0  0  0  0  0  0  0  0
   -2.7141   -2.6336    0.2445 Cl  0  0  0  0  0  0  0  0  0  0  0  0
   -4.8980   -1.1170    0.7870 C   0  0  0  0  0  0  0  0  0  0  0  0
   -5.5495    0.0933    0.9749 C   0  0  0  0  0  0  0  0  0  0  0  0
   -4.8427    1.2754    0.8568 C   0  0  0  0  0  0  0  0  0  0  0  0
   -3.4873    1.2337    0.5511 C   0  0  0  0  0  0  0  0  0  0  0  0
   -2.6513    2.7657    0.4160 Cl  0  0  0  0  0  0  0  0  0  0  0  0
   -0.9473    0.0564   -1.2661 C   0  0  0  0  0  0  0  0  0  0  0  0
   -1.7865    0.1009   -2.2125 O   0  0  0  0  0  0  0  0  0  0  0  0
    0.3493    0.0417   -1.6055 N   0  0  0  0  0  0  0  0  0  0  0  0
    0.7696    0.0759   -3.0107 C   0  0  0  0  0  0  0  0  0  0  0  0
    1.2833   -0.0052   -0.6392 C   0  0  0  0  0  0  0  0  0  0  0  0
    2.6053   -0.0215   -0.9409 N   0  0  0  0  0  0  0  0  0  0  0  0
    6.8112   -0.7467    0.3226 H   0  0  0  0  0  0  0  0  0  0  0  0
    6.2754    0.8835    0.9999 H   0  0  0  0  0  0  0  0  0  0  0  0
    5.5398   -0.7162    1.5654 H   0  0  0  0  0  0  0  0  0  0  0  0
    5.2481   -0.0610   -1.3143 H   0  0  0  0  0  0  0  0  0  0  0  0
    1.5687   -0.1098    2.6601 H   0  0  0  0  0  0  0  0  0  0  0  0
   -0.7686   -0.0481    2.0975 H   0  0  0  0  0  0  0  0  0  0  0  0
   -5.4867   -2.0185    0.8882 H   0  0  0  0  0  0  0  0  0  0  0  0
   -6.6202    0.0724    1.2145 H   0  0  0  0  0  0  0  0  0  0  0  0
   -5.3759    2.2064    1.0085 H   0  0  0  0  0  0  0  0  0  0  0  0
    1.4281    0.9395   -3.2099 H   0  0  0  0  0  0  0  0  0  0  0  0
   -0.1368    0.2102   -3.6252 H   0  0  0  0  0  0  0  0  0  0  0  0
    1.2340   -0.8929   -3.2870 H   0  0  0  0  0  0  0  0  0  0  0  0
  1  2  1  0
  2  3  1  0
  3  4  2  0
  4  5  1  0
  5  6  2  0
  6  7  1  0
  7  8  2  0
  8  9  1  0
  9 10  2  0
 10 11  1  0
 10 12  1  0
 12 13  2  0
 13 14  1  0
 14 15  2  0
 15 16  1  0
  8 17  1  0
 17 18  2  0
 17 19  1  0
 19 20  1  0
 19 21  1  0
 21 22  2  0
 22  3  1  0
 21  6  1  0
 15  9  1  0
  1 23  1  0
  1 24  1  0
  1 25  1  0
  2 26  1  0
  5 27  1  0
  7 28  1  0
 12 29  1  0
 13 30  1  0
 14 31  1  0
 20 32  1  0
 20 33  1  0
 20 34  1  0
M  END
$$$$
[H]c1c([H])c([H])c(-c2c([H])c([H])c([H])c([H])c2S(=O)(=O)c2c([H])c([H])c(OC([H])([H])[H])c([H])c2[H])c([H])c1[H]
     RDKit          3D

 39 41  0  0  0  0  0  0  0  0999 V2000
    6.4819    0.7527   -0.2048 C   0  0  0  0  0  0  0  0  0  0  0  0
    5.7088   -0.1552    0.5420 O   0  0  0  0  0  0  0  0  0  0  0  0
    4.3224   -0.0756    0.5758 C   0  0  0  0  0  0  0  0  0  0  0  0
    3.7050    0.9155   -0.1397 C   0  0  0  0  0  0  0  0  0  0  0  0
    2.3112    0.9764   -0.0912 C   0  0  0  0  0  0  0  0  0  0  0  0
    1.5698    0.0867    0.6394 C   0  0  0  0  0  0  0  0  0  0  0  0
    2.2158   -0.8919    1.3434 C   0  0  0  0  0  0  0  0  0  0  0  0
    3.6039   -0.9727    1.3104 C   0  0  0  0  0  0  0  0  0  0  0  0
   -0.1590    0.1991    0.6714 S   0  0  0  0  0  0  0  0  0  0  0  0
   -0.5975   -0.2876    2.0387 O   0  0  0  0  0  0  0  0  0  0  0  0
   -0.5944    1.6406    0.5490 O   0  0  0  0  0  0  0  0  0  0  0  0
   -0.9338   -0.7082   -0.5613 C   0  0  0  0  0  0  0  0  0  0  0  0
   -0.1519   -1.4797   -1.4301 C   0  0  0  0  0  0  0  0  0  0  0  0
   -0.7451   -2.2032   -2.4357 C   0  0  0  0  0  0  0  0  0  0  0  0
   -2.1200   -2.1864   -2.6122 C   0  0  0  0  0  0  0  0  0  0  0  0
   -2.8766   -1.4297   -1.7581 C   0  0  0  0  0  0  0  0  0  0  0  0
   -2.2879   -0.6806   -0.7202 C   0  0  0  0  0  0  0  0  0  0  0  0
   -3.1668    0.0767    0.1448 C   0  0  0  0  0  0  0  0  0  0  0  0
   -3.5835   -0.2728    1.3945 C   0  0  0  0  0  0  0  0  0  0  0  0
   -4.4245    0.5901    2.1050 C   0  0  0  0  0  0  0  0  0  0  0  0
   -4.8467    1.7900    1.5744 C   0  0  0  0  0  0  0  0  0  0  0  0
   -4.4340    2.1533    0.3154 C   0  0  0  0  0  0  0  0  0  0  0  0
   -3.6089    1.2981   -0.3709 C   0  0  0  0  0  0  0  0  0  0  0  0
    6.4903    1.7504    0.2945 H   0  0  0  0  0  0  0  0  0  0  0  0
    6.0896    0.8544   -1.2547 H   0  0  0  0  0  0  0  0  0  0  0  0
    7.5347    0.4175   -0.2634 H   0  0  0  0  0  0  0  0  0  0  0  0
    4.2784    1.6245   -0.7206 H   0  0  0  0  0  0  0  0  0  0  0  0
    1.8726    1.7819   -0.6770 H   0  0  0  0  0  0  0  0  0  0  0  0
    1.6722   -1.6321    1.9462 H   0  0  0  0  0  0  0  0  0  0  0  0
    4.0707   -1.7614    1.8814 H   0  0  0  0  0  0  0  0  0  0  0  0
    0.9079   -1.4694   -1.2643 H   0  0  0  0  0  0  0  0  0  0  0  0
   -0.1742   -2.8164   -3.1334 H   0  0  0  0  0  0  0  0  0  0  0  0
   -2.5910   -2.7559   -3.4047 H   0  0  0  0  0  0  0  0  0  0  0  0
   -3.9617   -1.3905   -1.8645 H   0  0  0  0  0  0  0  0  0  0  0  0
   -3.2673   -1.2029    1.7976 H   0  0  0  0  0  0  0  0  0  0  0  0
   -4.7370    0.2809    3.0977 H   0  0  0  0  0  0  0  0  0  0  0  0
   -5.4970    2.4472    2.1353 H   0  0  0  0  0  0  0  0  0  0  0  0
   -4.7701    3.1065   -0.1053 H   0  0  0  0  0  0  0  0  0  0  0  0
   -3.3058    1.6298   -1.3707 H   0  0  0  0  0  0  0  0  0  0  0  0
  1  2  1  0
  2  3  1  0
  3  4  2  0
  4  5  1  0
  5  6  2  0
  6  7  1  0
  7  8  2  0
  6  9  1  0
  9 10  2  0
  9 11  2  0
  9 12  1  0
 12 13  2  0
 13 14  1  0
 14 15  2  0
 15 16  1  0
 16 17  2  0
 17 18  1  0
 18 19  2  0
 19 20  1  0
 20 21  2  0
 21 22  1  0
 22 23  2  0
  8  3  1  0
 17 12  1  0
 23 18  1  0
  1 24  1  0
  1 25  1  0
  1 26  1  0
  4 27  1  0
  5 28  1  0
  7 29  1  0
  8 30  1  0
 13 31  1  0
 14 32  1  0
 15 33  1  0
 16 34  1  0
 19 35  1  0
 20 36  1  0
 21 37  1  0
 22 38  1  0
 23 39  1  0
M  END
$$$$
[H]c1nc(Cl)c(Cl)c([H])c1OC([H])([H])[C@@]1([H])N(C([H])([H])[H])C([H])([H])C([H])([H])C1([H])[H]
     RDKit          3D

 30 31  0  0  0  0  0  0  0  0999 V2000
   -2.7915    1.7654    0.0912 C   0  0  0  0  0  0  0  0  0  0  0  0
   -2.0993    0.7766   -0.6744 N   0  0  0  0  0  0  0  0  0  0  0  0
   -2.8868   -0.4240   -0.8207 C   0  0  0  0  0  0  0  0  0  0  0  0
   -2.5143   -1.3424    0.3228 C   0  0  0  0  0  0  0  0  0  0  0  0
   -1.4664   -0.5571    1.0940 C   0  0  0  0  0  0  0  0  0  0  0  0
   -0.8877    0.2935   -0.0291 C   0  0  1  0  0  0  0  0  0  0  0  0
   -0.1588   -0.5832   -1.0083 C   0  0  0  0  0  0  0  0  0  0  0  0
    1.0205   -1.1415   -0.5988 O   0  0  0  0  0  0  0  0  0  0  0  0
    2.2213   -0.6146   -0.2220 C   0  0  0  0  0  0  0  0  0  0  0  0
    3.2344   -1.5079    0.1691 C   0  0  0  0  0  0  0  0  0  0  0  0
    4.4455   -1.0998    0.5540 N   0  0  0  0  0  0  0  0  0  0  0  0
    4.8006    0.1934    0.6010 C   0  0  0  0  0  0  0  0  0  0  0  0
    6.4040    0.6916    1.1131 Cl  0  0  0  0  0  0  0  0  0  0  0  0
    3.8395    1.1039    0.2260 C   0  0  0  0  0  0  0  0  0  0  0  0
    4.2255    2.7955    0.2611 Cl  0  0  0  0  0  0  0  0  0  0  0  0
    2.5634    0.7110   -0.1819 C   0  0  0  0  0  0  0  0  0  0  0  0
   -2.6636    2.7536   -0.4383 H   0  0  0  0  0  0  0  0  0  0  0  0
   -2.4034    1.9190    1.1097 H   0  0  0  0  0  0  0  0  0  0  0  0
   -3.8839    1.5644    0.0631 H   0  0  0  0  0  0  0  0  0  0  0  0
   -2.7615   -0.9106   -1.8221 H   0  0  0  0  0  0  0  0  0  0  0  0
   -3.9678   -0.1190   -0.7045 H   0  0  0  0  0  0  0  0  0  0  0  0
   -3.4003   -1.5656    0.9436 H   0  0  0  0  0  0  0  0  0  0  0  0
   -2.0822   -2.2621   -0.0711 H   0  0  0  0  0  0  0  0  0  0  0  0
   -0.6928   -1.2202    1.5395 H   0  0  0  0  0  0  0  0  0  0  0  0
   -1.9008    0.0885    1.8568 H   0  0  0  0  0  0  0  0  0  0  0  0
   -0.2663    1.0994    0.3372 H   0  0  0  0  0  0  0  0  0  0  0  0
   -0.8292   -1.3803   -1.4165 H   0  0  0  0  0  0  0  0  0  0  0  0
    0.0594    0.0928   -1.8947 H   0  0  0  0  0  0  0  0  0  0  0  0
    3.0000   -2.5716    0.1499 H   0  0  0  0  0  0  0  0  0  0  0  0
    1.8425    1.4513   -0.4812 H   0  0  0  0  0  0  0  0  0  0  0  0
  1  2  1  0
  2  3  1  0
  3  4  1  0
  4  5  1  0
  5  6  1  0
  6  7  1  0
  7  8  1  0
  8  9  1  0
  9 10  2  0
 10 11  1  0
 11 12  2  0
 12 13  1  0
 12 14  1  0
 14 15  1  0
 14 16  2  0
  6  2  1  0
 16  9  1  0
  1 17  1  0
  1 18  1  0
  1 19  1  0
  3 20  1  0
  3 21  1  0
  4 22  1  0
  4 23  1  0
  5 24  1  0
  5 25  1  0
  6 26  1  1
  7 27  1  0
  7 28  1  0
 10 29  1  0
 16 30  1  0
M  END
$$$$
[H]c1c([H])c([H])c(C([H])(c2c([H])c([H])c([H])c([H])c2[H])N([H])C(=O)c2c([H])c([H])c3nc(-c4c([H])c([H])c(C(C([H])([H])[H])(C([H])([H])[H])C([H])([H])[H])c([H])c4[H])n([H])c3c2[H])c([H])c1[H]
     RDKit          3D

 64 68  0  0  0  0  0  0  0  0999 V2000
    8.6642    0.9680   -1.3516 C   0  0  0  0  0  0  0  0  0  0  0  0
    8.1519    0.5176   -0.0187 C   0  0  0  0  0  0  0  0  0  0  0  0
    8.1155    1.7031    0.9595 C   0  0  0  0  0  0  0  0  0  0  0  0
    9.0298   -0.5279    0.6413 C   0  0  0  0  0  0  0  0  0  0  0  0
    6.7548    0.0456   -0.2200 C   0  0  0  0  0  0  0  0  0  0  0  0
    6.3607   -1.2679   -0.0795 C   0  0  0  0  0  0  0  0  0  0  0  0
    5.0371   -1.6300   -0.2296 C   0  0  0  0  0  0  0  0  0  0  0  0
    4.0372   -0.7159   -0.5218 C   0  0  0  0  0  0  0  0  0  0  0  0
    4.4671    0.5944   -0.6571 C   0  0  0  0  0  0  0  0  0  0  0  0
    5.7767    0.9696   -0.5151 C   0  0  0  0  0  0  0  0  0  0  0  0
    2.6306   -1.0755   -0.6398 C   0  0  0  0  0  0  0  0  0  0  0  0
    1.9868   -2.2471   -0.6965 N   0  0  0  0  0  0  0  0  0  0  0  0
    0.6349   -2.0599   -0.7449 C   0  0  0  0  0  0  0  0  0  0  0  0
   -0.4640   -2.9044   -0.7590 C   0  0  0  0  0  0  0  0  0  0  0  0
   -1.7464   -2.3386   -0.7308 C   0  0  0  0  0  0  0  0  0  0  0  0
   -1.8918   -0.9926   -0.6973 C   0  0  0  0  0  0  0  0  0  0  0  0
   -0.7819   -0.1144   -0.6949 C   0  0  0  0  0  0  0  0  0  0  0  0
    0.4694   -0.6891   -0.7179 C   0  0  0  0  0  0  0  0  0  0  0  0
    1.6837   -0.1204   -0.6565 N   0  0  0  0  0  0  0  0  0  0  0  0
   -3.1894   -0.3112   -0.5106 C   0  0  0  0  0  0  0  0  0  0  0  0
   -3.4873    0.6665   -1.2077 O   0  0  0  0  0  0  0  0  0  0  0  0
   -4.0376   -0.8095    0.4962 N   0  0  0  0  0  0  0  0  0  0  0  0
   -5.2822   -0.2314    0.9171 C   0  0  0  0  0  0  0  0  0  0  0  0
   -6.4359   -0.8866    0.3749 C   0  0  0  0  0  0  0  0  0  0  0  0
   -7.4138   -1.3160    1.2827 C   0  0  0  0  0  0  0  0  0  0  0  0
   -8.5506   -1.9169    0.8102 C   0  0  0  0  0  0  0  0  0  0  0  0
   -8.7689   -2.1155   -0.5448 C   0  0  0  0  0  0  0  0  0  0  0  0
   -7.7787   -1.6764   -1.4168 C   0  0  0  0  0  0  0  0  0  0  0  0
   -6.6426   -1.0766   -0.9539 C   0  0  0  0  0  0  0  0  0  0  0  0
   -5.2409    1.2599    0.7654 C   0  0  0  0  0  0  0  0  0  0  0  0
   -6.1774    1.9931    0.1033 C   0  0  0  0  0  0  0  0  0  0  0  0
   -6.0798    3.3895    0.0283 C   0  0  0  0  0  0  0  0  0  0  0  0
   -5.0258    4.0358    0.6288 C   0  0  0  0  0  0  0  0  0  0  0  0
   -4.0657    3.2921    1.3077 C   0  0  0  0  0  0  0  0  0  0  0  0
   -4.1656    1.9215    1.3800 C   0  0  0  0  0  0  0  0  0  0  0  0
    8.1958    0.3286   -2.1248 H   0  0  0  0  0  0  0  0  0  0  0  0
    8.3778    2.0416   -1.5526 H   0  0  0  0  0  0  0  0  0  0  0  0
    9.7692    0.9102   -1.4421 H   0  0  0  0  0  0  0  0  0  0  0  0
    7.8241    1.2677    1.9487 H   0  0  0  0  0  0  0  0  0  0  0  0
    7.3602    2.3945    0.6094 H   0  0  0  0  0  0  0  0  0  0  0  0
    9.1323    2.1676    1.0012 H   0  0  0  0  0  0  0  0  0  0  0  0
    9.0634   -1.4841    0.1159 H   0  0  0  0  0  0  0  0  0  0  0  0
   10.0446   -0.0734    0.7643 H   0  0  0  0  0  0  0  0  0  0  0  0
    8.6334   -0.5966    1.6994 H   0  0  0  0  0  0  0  0  0  0  0  0
    7.1314   -2.0006    0.1502 H   0  0  0  0  0  0  0  0  0  0  0  0
    4.7618   -2.6753   -0.1180 H   0  0  0  0  0  0  0  0  0  0  0  0
    3.6957    1.3441   -0.8942 H   0  0  0  0  0  0  0  0  0  0  0  0
    5.9853    2.0280   -0.6657 H   0  0  0  0  0  0  0  0  0  0  0  0
   -0.3175   -3.9632   -0.7955 H   0  0  0  0  0  0  0  0  0  0  0  0
   -2.6135   -3.0050   -0.7345 H   0  0  0  0  0  0  0  0  0  0  0  0
   -0.9434    0.9522   -0.6710 H   0  0  0  0  0  0  0  0  0  0  0  0
    1.7909    0.9316   -0.6302 H   0  0  0  0  0  0  0  0  0  0  0  0
   -3.7740   -1.7128    1.0212 H   0  0  0  0  0  0  0  0  0  0  0  0
   -5.2180   -0.3017    2.0787 H   0  0  0  0  0  0  0  0  0  0  0  0
   -7.2888   -1.1798    2.3704 H   0  0  0  0  0  0  0  0  0  0  0  0
   -9.2935   -2.2439    1.5316 H   0  0  0  0  0  0  0  0  0  0  0  0
   -9.6863   -2.5983   -0.9102 H   0  0  0  0  0  0  0  0  0  0  0  0
   -7.9224   -1.8165   -2.4822 H   0  0  0  0  0  0  0  0  0  0  0  0
   -5.9173   -0.7583   -1.6853 H   0  0  0  0  0  0  0  0  0  0  0  0
   -6.9988    1.5092   -0.3639 H   0  0  0  0  0  0  0  0  0  0  0  0
   -6.8333    3.9377   -0.5024 H   0  0  0  0  0  0  0  0  0  0  0  0
   -4.8856    5.1102    0.6129 H   0  0  0  0  0  0  0  0  0  0  0  0
   -3.2288    3.7901    1.7864 H   0  0  0  0  0  0  0  0  0  0  0  0
   -3.4188    1.3637    1.9155 H   0  0  0  0  0  0  0  0  0  0  0  0
  1  2  1  0
  2  3  1  0
  2  4  1  0
  2  5  1  0
  5  6  2  0
  6  7  1  0
  7  8  2  0
  8  9  1  0
  9 10  2  0
  8 11  1  0
 11 12  2  0
 12 13  1  0
 13 14  2  0
 14 15  1  0
 15 16  2  0
 16 17  1  0
 17 18  2  0
 18 19  1  0
 16 20  1  0
 20 21  2  0
 20 22  1  0
 22 23  1  0
 23 24  1  0
 24 25  2  0
 25 26  1  0
 26 27  2  0
 27 28  1  0
 28 29  2  0
 23 30  1  0
 30 31  2  0
 31 32  1  0
 32 33  2  0
 33 34  1  0
 34 35  2  0
 10  5  1  0
 19 11  1  0
 29 24  1  0
 35 30  1  0
 18 13  1  0
  1 36  1  0
  1 37  1  0
  1 38  1  0
  3 39  1  0
  3 40  1  0
  3 41  1  0
  4 42  1  0
  4 43  1  0
  4 44  1  0
  6 45  1  0
  7 46  1  0
  9 47  1  0
 10 48  1  0
 14 49  1  0
 15 50  1  0
 17 51  1  0
 19 52  1  0
 22 53  1  0
 23 54  1  0
 25 55  1  0
 26 56  1  0
 27 57  1  0
 28 58  1  0
 29 59  1  0
 31 60  1  0
 32 61  1  0
 33 62  1  0
 34 63  1  0
 35 64  1  0
M  END
$$$$
[H]OC(=O)[C@@]([H])(N([H])C(=O)[C@@]([H])(N([H])C(=O)[C@@]([H])(N([H])C(=O)[C@@]([H])(N([H])C(=O)[C@@]([H])(N([H])C(=O)[C@@]([H])(N([H])C(=O)[C@@]([H])(N([H])C(=O)C([H])([H])[H])C([H])(C([H])([H])[H])C([H])([H])[H])C([H])([H])C([H])([H])C(=O)N([H])[H])C([H])([H])C([H])(C([H])([H])[H])C([H])([H])[H])C([H])([H])O[H])C([H])([H])O[H])C([H])(C([H])([H])[H])C([H])([H])[H])C([H])([H])O[H]
     RDKit          3D

109108  0  0  0  0  0  0  0  0999 V2000
    2.8163   -4.2108   -2.2087 C   0  0  0  0  0  0  0  0  0  0  0  0
    1.8269   -3.2981   -2.8245 C   0  0  0  0  0  0  0  0  0  0  0  0
    1.3944   -3.9768   -4.1454 C   0  0  0  0  0  0  0  0  0  0  0  0
    2.2326   -1.9299   -3.1847 C   0  0  0  0  0  0  0  0  0  0  0  0
    2.7089   -0.9917   -2.1729 C   0  0  2  0  0  0  0  0  0  0  0  0
    3.8939   -1.2997   -1.4324 N   0  0  0  0  0  0  0  0  0  0  0  0
    4.7658   -0.2908   -0.8995 C   0  0  0  0  0  0  0  0  0  0  0  0
    4.4220    0.8989   -1.1076 O   0  0  0  0  0  0  0  0  0  0  0  0
    5.9810   -0.5736   -0.1556 C   0  0  2  0  0  0  0  0  0  0  0  0
    5.9475   -1.6258    0.8746 C   0  0  0  0  0  0  0  0  0  0  0  0
    5.0093   -1.4589    2.0096 C   0  0  0  0  0  0  0  0  0  0  0  0
    5.1876   -2.6630    2.9023 C   0  0  0  0  0  0  0  0  0  0  0  0
    4.4235   -2.7732    4.0891 N   0  0  0  0  0  0  0  0  0  0  0  0
    5.9985   -3.5848    2.6303 O   0  0  0  0  0  0  0  0  0  0  0  0
    6.5286    0.6531    0.3946 N   0  0  0  0  0  0  0  0  0  0  0  0
    7.7017    1.2955   -0.0138 C   0  0  0  0  0  0  0  0  0  0  0  0
    8.3680    0.7819   -0.9479 O   0  0  0  0  0  0  0  0  0  0  0  0
    8.1966    2.5382    0.5926 C   0  0  1  0  0  0  0  0  0  0  0  0
    9.4786    2.9398    0.0064 N   0  0  0  0  0  0  0  0  0  0  0  0
   10.6524    3.0588    0.7866 C   0  0  0  0  0  0  0  0  0  0  0  0
   11.9544    3.4657    0.2069 C   0  0  0  0  0  0  0  0  0  0  0  0
   10.6065    2.8146    2.0168 O   0  0  0  0  0  0  0  0  0  0  0  0
    7.2897    3.7289    0.4564 C   0  0  0  0  0  0  0  0  0  0  0  0
    6.9966    4.0888   -0.9796 C   0  0  0  0  0  0  0  0  0  0  0  0
    6.0858    3.7315    1.3491 C   0  0  0  0  0  0  0  0  0  0  0  0
    1.6007   -0.6182   -1.2410 C   0  0  0  0  0  0  0  0  0  0  0  0
    1.8362   -0.6070   -0.0146 O   0  0  0  0  0  0  0  0  0  0  0  0
    0.3294   -0.2823   -1.7157 N   0  0  0  0  0  0  0  0  0  0  0  0
   -0.7519    0.1103   -0.8281 C   0  0  1  0  0  0  0  0  0  0  0  0
   -1.4131    1.3796   -1.2989 C   0  0  0  0  0  0  0  0  0  0  0  0
   -1.9503    1.2164   -2.5684 O   0  0  0  0  0  0  0  0  0  0  0  0
   -1.7324   -0.9553   -0.5545 C   0  0  0  0  0  0  0  0  0  0  0  0
   -1.6829   -2.1081   -1.0357 O   0  0  0  0  0  0  0  0  0  0  0  0
   -2.8046   -0.6553    0.3175 N   0  0  0  0  0  0  0  0  0  0  0  0
   -3.8459   -1.6002    0.7004 C   0  0  1  0  0  0  0  0  0  0  0  0
   -3.8119   -1.8791    2.1696 C   0  0  0  0  0  0  0  0  0  0  0  0
   -4.7339   -2.7998    2.5849 O   0  0  0  0  0  0  0  0  0  0  0  0
   -5.1495   -1.1852    0.1522 C   0  0  0  0  0  0  0  0  0  0  0  0
   -5.1641   -0.7233   -1.0539 O   0  0  0  0  0  0  0  0  0  0  0  0
   -6.3917   -1.2267    0.7845 N   0  0  0  0  0  0  0  0  0  0  0  0
   -7.6548   -0.7955    0.1353 C   0  0  1  0  0  0  0  0  0  0  0  0
   -8.7190   -1.7992    0.4177 C   0  0  0  0  0  0  0  0  0  0  0  0
   -9.0033   -1.9363    1.9023 C   0  0  0  0  0  0  0  0  0  0  0  0
   -9.9093   -1.6335   -0.4403 C   0  0  0  0  0  0  0  0  0  0  0  0
   -7.9734    0.5825    0.6121 C   0  0  0  0  0  0  0  0  0  0  0  0
   -7.1970    1.1454    1.4632 O   0  0  0  0  0  0  0  0  0  0  0  0
   -9.0860    1.3322    0.1898 N   0  0  0  0  0  0  0  0  0  0  0  0
   -9.3369    2.6897    0.7014 C   0  0  1  0  0  0  0  0  0  0  0  0
   -9.7265    3.5679   -0.4689 C   0  0  0  0  0  0  0  0  0  0  0  0
  -10.8921    3.0822   -1.0793 O   0  0  0  0  0  0  0  0  0  0  0  0
  -10.5143    2.5663    1.6431 C   0  0  0  0  0  0  0  0  0  0  0  0
  -10.9876    3.7004    2.2842 O   0  0  0  0  0  0  0  0  0  0  0  0
  -11.0781    1.4749    1.8658 O   0  0  0  0  0  0  0  0  0  0  0  0
    3.8254   -4.1510   -2.6138 H   0  0  0  0  0  0  0  0  0  0  0  0
    2.7575   -4.1497   -1.0859 H   0  0  0  0  0  0  0  0  0  0  0  0
    2.5085   -5.2916   -2.3959 H   0  0  0  0  0  0  0  0  0  0  0  0
    0.8645   -3.2629   -2.2396 H   0  0  0  0  0  0  0  0  0  0  0  0
    0.9866   -3.2675   -4.8627 H   0  0  0  0  0  0  0  0  0  0  0  0
    0.7561   -4.8426   -3.9165 H   0  0  0  0  0  0  0  0  0  0  0  0
    2.3450   -4.3845   -4.5715 H   0  0  0  0  0  0  0  0  0  0  0  0
    2.9492   -2.0290   -4.0643 H   0  0  0  0  0  0  0  0  0  0  0  0
    1.3365   -1.4642   -3.7011 H   0  0  0  0  0  0  0  0  0  0  0  0
    2.9338    0.0056   -2.6722 H   0  0  0  0  0  0  0  0  0  0  0  0
    4.1786   -2.2624   -1.2433 H   0  0  0  0  0  0  0  0  0  0  0  0
    6.7511   -0.8816   -0.9387 H   0  0  0  0  0  0  0  0  0  0  0  0
    5.7477   -2.6125    0.3786 H   0  0  0  0  0  0  0  0  0  0  0  0
    6.9778   -1.7628    1.3084 H   0  0  0  0  0  0  0  0  0  0  0  0
    3.9418   -1.4542    1.7554 H   0  0  0  0  0  0  0  0  0  0  0  0
    5.1891   -0.5239    2.5846 H   0  0  0  0  0  0  0  0  0  0  0  0
    4.7145   -3.4435    4.8124 H   0  0  0  0  0  0  0  0  0  0  0  0
    3.5739   -2.1901    4.2498 H   0  0  0  0  0  0  0  0  0  0  0  0
    5.9839    1.0886    1.1877 H   0  0  0  0  0  0  0  0  0  0  0  0
    8.3844    2.3572    1.6714 H   0  0  0  0  0  0  0  0  0  0  0  0
    9.5519    3.1496   -1.0109 H   0  0  0  0  0  0  0  0  0  0  0  0
   11.9211    3.2551   -0.8777 H   0  0  0  0  0  0  0  0  0  0  0  0
   12.1604    4.5406    0.3547 H   0  0  0  0  0  0  0  0  0  0  0  0
   12.8085    2.9197    0.6242 H   0  0  0  0  0  0  0  0  0  0  0  0
    7.9265    4.6034    0.8372 H   0  0  0  0  0  0  0  0  0  0  0  0
    7.7933    4.7473   -1.4146 H   0  0  0  0  0  0  0  0  0  0  0  0
    6.0567    4.6674   -0.9836 H   0  0  0  0  0  0  0  0  0  0  0  0
    6.8427    3.1909   -1.6026 H   0  0  0  0  0  0  0  0  0  0  0  0
    6.3448    3.1648    2.2710 H   0  0  0  0  0  0  0  0  0  0  0  0
    5.1768    3.2885    0.9033 H   0  0  0  0  0  0  0  0  0  0  0  0
    5.8443    4.7922    1.6079 H   0  0  0  0  0  0  0  0  0  0  0  0
    0.1123   -0.2976   -2.7239 H   0  0  0  0  0  0  0  0  0  0  0  0
   -0.2497    0.3172    0.1733 H   0  0  0  0  0  0  0  0  0  0  0  0
   -2.2134    1.6899   -0.6112 H   0  0  0  0  0  0  0  0  0  0  0  0
   -0.6503    2.2050   -1.3234 H   0  0  0  0  0  0  0  0  0  0  0  0
   -2.8485    0.7835   -2.4256 H   0  0  0  0  0  0  0  0  0  0  0  0
   -2.8749    0.2957    0.7238 H   0  0  0  0  0  0  0  0  0  0  0  0
   -3.5609   -2.5540    0.1890 H   0  0  0  0  0  0  0  0  0  0  0  0
   -2.8008   -2.3022    2.3893 H   0  0  0  0  0  0  0  0  0  0  0  0
   -3.8504   -0.9370    2.7741 H   0  0  0  0  0  0  0  0  0  0  0  0
   -4.3509   -3.7205    2.5328 H   0  0  0  0  0  0  0  0  0  0  0  0
   -6.5133   -1.5530    1.7485 H   0  0  0  0  0  0  0  0  0  0  0  0
   -7.4573   -0.7169   -0.9339 H   0  0  0  0  0  0  0  0  0  0  0  0
   -8.2586   -2.8074    0.1318 H   0  0  0  0  0  0  0  0  0  0  0  0
   -8.3051   -2.6337    2.4080 H   0  0  0  0  0  0  0  0  0  0  0  0
   -8.9317   -0.9167    2.3590 H   0  0  0  0  0  0  0  0  0  0  0  0
  -10.0246   -2.3436    2.0177 H   0  0  0  0  0  0  0  0  0  0  0  0
  -10.2799   -2.6637   -0.7468 H   0  0  0  0  0  0  0  0  0  0  0  0
   -9.6015   -1.1775   -1.3991 H   0  0  0  0  0  0  0  0  0  0  0  0
  -10.7431   -1.0742    0.0406 H   0  0  0  0  0  0  0  0  0  0  0  0
   -9.7950    1.0111   -0.4971 H   0  0  0  0  0  0  0  0  0  0  0  0
   -8.5024    3.0916    1.2696 H   0  0  0  0  0  0  0  0  0  0  0  0
   -8.9512    3.5352   -1.2714 H   0  0  0  0  0  0  0  0  0  0  0  0
   -9.9264    4.6077   -0.1681 H   0  0  0  0  0  0  0  0  0  0  0  0
  -10.6882    2.3798   -1.7652 H   0  0  0  0  0  0  0  0  0  0  0  0
  -10.5902    4.6232    2.1330 H   0  0  0  0  0  0  0  0  0  0  0  0
  1  2  1  0
  2  3  1  0
  2  4  1  0
  4  5  1  0
  5  6  1  0
  6  7  1  0
  7  8  2  0
  7  9  1  0
  9 10  1  0
 10 11  1  0
 11 12  1  0
 12 13  1  0
 12 14  2  0
  9 15  1  0
 15 16  1  0
 16 17  2  0
 16 18  1  0
 18 19  1  0
 19 20  1  0
 20 21  1  0
 20 22  2  0
 18 23  1  0
 23 24  1  0
 23 25  1  0
  5 26  1  0
 26 27  2  0
 26 28  1  0
 28 29  1  0
 29 30  1  0
 30 31  1  0
 29 32  1  0
 32 33  2  0
 32 34  1  0
 34 35  1  0
 35 36  1  0
 36 37  1  0
 35 38  1  0
 38 39  2  0
 38 40  1  0
 40 41  1  0
 41 42  1  0
 42 43  1  0
 42 44  1  0
 41 45  1  0
 45 46  2  0
 45 47  1  0
 47 48  1  0
 48 49  1  0
 49 50  1  0
 48 51  1  0
 51 52  1  0
 51 53  2  0
  1 54  1  0
  1 55  1  0
  1 56  1  0
  2 57  1  0
  3 58  1  0
  3 59  1  0
  3 60  1  0
  4 61  1  0
  4 62  1  0
  5 63  1  6
  6 64  1  0
  9 65  1  6
 10 66  1  0
 10 67  1  0
 11 68  1  0
 11 69  1  0
 13 70  1  0
 13 71  1  0
 15 72  1  0
 18 73  1  1
 19 74  1  0
 21 75  1  0
 21 76  1  0
 21 77  1  0
 23 78  1  0
 24 79  1  0
 24 80  1  0
 24 81  1  0
 25 82  1  0
 25 83  1  0
 25 84  1  0
 28 85  1  0
 29 86  1  1
 30 87  1  0
 30 88  1  0
 31 89  1  0
 34 90  1  0
 35 91  1  6
 36 92  1  0
 36 93  1  0
 37 94  1  0
 40 95  1  0
 41 96  1  6
 42 97  1  0
 43 98  1  0
 43 99  1  0
 43100  1  0
 44101  1  0
 44102  1  0
 44103  1  0
 47104  1  0
 48105  1  1
 49106  1  0
 49107  1  0
 50108  1  0
 52109  1  0
M  END
$$$$
[H]c1nc2c([H])c([H])c([H])c([H])n2c1C#Cc1c([H])c(C(=O)N([H])c2c([H])c([H])c(C([H])([H])N3C([H])([H])C([H])([H])N(C([H])([H])[H])C([H])([H])C3([H])[H])c(C(F)(F)F)c2[H])c([H])c([H])c1C([H])([H])[H]
     RDKit          3D

 67 71  0  0  0  0  0  0  0  0999 V2000
   -8.5742    1.6981    1.0271 C   0  0  0  0  0  0  0  0  0  0  0  0
   -8.4935    0.2948    1.3032 N   0  0  0  0  0  0  0  0  0  0  0  0
   -7.5100   -0.0987    2.2489 C   0  0  0  0  0  0  0  0  0  0  0  0
   -6.1897   -0.5298    1.6797 C   0  0  0  0  0  0  0  0  0  0  0  0
   -6.2732   -1.3599    0.5217 N   0  0  0  0  0  0  0  0  0  0  0  0
   -5.8227   -0.7384   -0.6897 C   0  0  0  0  0  0  0  0  0  0  0  0
   -4.4030   -0.4161   -0.7877 C   0  0  0  0  0  0  0  0  0  0  0  0
   -3.4720   -0.6992    0.1898 C   0  0  0  0  0  0  0  0  0  0  0  0
   -2.1111   -0.3824    0.0484 C   0  0  0  0  0  0  0  0  0  0  0  0
   -1.6288    0.2291   -1.0770 C   0  0  0  0  0  0  0  0  0  0  0  0
   -0.2722    0.5682   -1.3081 N   0  0  0  0  0  0  0  0  0  0  0  0
    0.8552    0.2067   -0.5793 C   0  0  0  0  0  0  0  0  0  0  0  0
    0.7749   -0.5173    0.4331 O   0  0  0  0  0  0  0  0  0  0  0  0
    2.2075    0.6393   -0.9359 C   0  0  0  0  0  0  0  0  0  0  0  0
    2.4409    1.6499   -1.8393 C   0  0  0  0  0  0  0  0  0  0  0  0
    3.7159    2.0794   -2.2042 C   0  0  0  0  0  0  0  0  0  0  0  0
    4.7852    1.4410   -1.6136 C   0  0  0  0  0  0  0  0  0  0  0  0
    6.1953    1.8216   -1.9322 C   0  0  0  0  0  0  0  0  0  0  0  0
    4.6028    0.4146   -0.6950 C   0  0  0  0  0  0  0  0  0  0  0  0
    3.3184    0.0403   -0.3800 C   0  0  0  0  0  0  0  0  0  0  0  0
    5.7181   -0.2544   -0.0760 C   0  0  0  0  0  0  0  0  0  0  0  0
    6.6539   -0.8302    0.4357 C   0  0  0  0  0  0  0  0  0  0  0  0
    7.7669   -1.5365    1.0307 C   0  0  0  0  0  0  0  0  0  0  0  0
    7.9026   -2.8945    1.0339 C   0  0  0  0  0  0  0  0  0  0  0  0
    9.0507   -3.1553    1.6734 N   0  0  0  0  0  0  0  0  0  0  0  0
    9.6236   -2.0064    2.0622 C   0  0  0  0  0  0  0  0  0  0  0  0
   10.7847   -1.6862    2.7406 C   0  0  0  0  0  0  0  0  0  0  0  0
   11.1522   -0.4051    3.0197 C   0  0  0  0  0  0  0  0  0  0  0  0
   10.3216    0.6071    2.6020 C   0  0  0  0  0  0  0  0  0  0  0  0
    9.1709    0.2900    1.9296 C   0  0  0  0  0  0  0  0  0  0  0  0
    8.8264   -1.0061    1.6629 N   0  0  0  0  0  0  0  0  0  0  0  0
   -2.5803    0.5064   -2.0514 C   0  0  0  0  0  0  0  0  0  0  0  0
   -3.9237    0.1996   -1.9240 C   0  0  0  0  0  0  0  0  0  0  0  0
   -4.8458    0.5340   -3.0345 C   0  0  0  0  0  0  0  0  0  0  0  0
   -5.8544    1.3860   -2.7265 F   0  0  0  0  0  0  0  0  0  0  0  0
   -5.2712   -0.6077   -3.7319 F   0  0  0  0  0  0  0  0  0  0  0  0
   -4.1012    1.2201   -4.0241 F   0  0  0  0  0  0  0  0  0  0  0  0
   -7.6626   -1.7297    0.3338 C   0  0  0  0  0  0  0  0  0  0  0  0
   -8.5679   -0.5553    0.1620 C   0  0  0  0  0  0  0  0  0  0  0  0
   -9.2316    2.1596    1.8009 H   0  0  0  0  0  0  0  0  0  0  0  0
   -7.5872    2.2031    1.0283 H   0  0  0  0  0  0  0  0  0  0  0  0
   -9.1092    1.8146    0.0524 H   0  0  0  0  0  0  0  0  0  0  0  0
   -7.9349   -0.8699    2.9240 H   0  0  0  0  0  0  0  0  0  0  0  0
   -7.2971    0.7911    2.9042 H   0  0  0  0  0  0  0  0  0  0  0  0
   -5.6985   -1.1348    2.4943 H   0  0  0  0  0  0  0  0  0  0  0  0
   -5.5626    0.3720    1.5271 H   0  0  0  0  0  0  0  0  0  0  0  0
   -6.3662    0.2646   -0.6822 H   0  0  0  0  0  0  0  0  0  0  0  0
   -6.2581   -1.2397   -1.5936 H   0  0  0  0  0  0  0  0  0  0  0  0
   -3.7808   -1.1954    1.1014 H   0  0  0  0  0  0  0  0  0  0  0  0
   -1.4616   -0.6325    0.8631 H   0  0  0  0  0  0  0  0  0  0  0  0
   -0.0890    1.1900   -2.1635 H   0  0  0  0  0  0  0  0  0  0  0  0
    1.6143    2.1780   -2.3218 H   0  0  0  0  0  0  0  0  0  0  0  0
    3.8929    2.8720   -2.9129 H   0  0  0  0  0  0  0  0  0  0  0  0
    6.2901    2.9217   -2.0708 H   0  0  0  0  0  0  0  0  0  0  0  0
    6.8607    1.5623   -1.0856 H   0  0  0  0  0  0  0  0  0  0  0  0
    6.4911    1.2589   -2.8349 H   0  0  0  0  0  0  0  0  0  0  0  0
    3.1346   -0.7692    0.3433 H   0  0  0  0  0  0  0  0  0  0  0  0
    7.1993   -3.6103    0.5945 H   0  0  0  0  0  0  0  0  0  0  0  0
   11.4321   -2.4902    3.0653 H   0  0  0  0  0  0  0  0  0  0  0  0
   12.0553   -0.1553    3.5474 H   0  0  0  0  0  0  0  0  0  0  0  0
   10.5709    1.6324    2.7999 H   0  0  0  0  0  0  0  0  0  0  0  0
    8.4984    1.0692    1.5892 H   0  0  0  0  0  0  0  0  0  0  0  0
   -2.2251    0.9962   -2.9674 H   0  0  0  0  0  0  0  0  0  0  0  0
   -7.6988   -2.3154   -0.6225 H   0  0  0  0  0  0  0  0  0  0  0  0
   -8.0626   -2.3566    1.1487 H   0  0  0  0  0  0  0  0  0  0  0  0
   -9.6019   -0.9693    0.0320 H   0  0  0  0  0  0  0  0  0  0  0  0
   -8.3850    0.0358   -0.7578 H   0  0  0  0  0  0  0  0  0  0  0  0
  1  2  1  0
  2  3  1  0
  3  4  1  0
  4  5  1  0
  5  6  1  0
  6  7  1  0
  7  8  2  0
  8  9  1  0
  9 10  2  0
 10 11  1  0
 11 12  1  0
 12 13  2  0
 12 14  1  0
 14 15  2  0
 15 16  1  0
 16 17  2  0
 17 18  1  0
 17 19  1  0
 19 20  2  0
 19 21  1  0
 21 22  3  0
 22 23  1  0
 23 24  2  0
 24 25  1  0
 25 26  2  0
 26 27  1  0
 27 28  2  0
 28 29  1  0
 29 30  2  0
 30 31  1  0
 10 32  1  0
 32 33  2  0
 33 34  1  0
 34 35  1  0
 34 36  1  0
 34 37  1  0
  5 38  1  0
 38 39  1  0
 39  2  1  0
 33  7  1  0
 20 14  1  0
 31 23  1  0
 31 26  1  0
  1 40  1  0
  1 41  1  0
  1 42  1  0
  3 43  1  0
  3 44  1  0
  4 45  1  0
  4 46  1  0
  6 47  1  0
  6 48  1  0
  8 49  1  0
  9 50  1  0
 11 51  1  0
 15 52  1  0
 16 53  1  0
 18 54  1  0
 18 55  1  0
 18 56  1  0
 20 57  1  0
 24 58  1  0
 27 59  1  0
 28 60  1  0
 29 61  1  0
 30 62  1  0
 32 63  1  0
 38 64  1  0
 38 65  1  0
 39 66  1  0
 39 67  1  0
M  END
$$$$
[H]c1nc2c([H])c(OC([H])([H])C([H])([H])C([H])([H])N3C([H])([H])C([H])([H])OC([H])([H])C3([H])[H])c(OC([H])([H])[H])c([H])c2c(Oc2c([H])c([H])c(N([H])C(=O)C3(C(=O)N([H])c4c([H])c([H])c(F)c([H])c4[H])C([H])([H])C3([H])[H])c([H])c2F)c1[H]
     RDKit          3D

 80 85  0  0  0  0  0  0  0  0999 V2000
   -3.8348   -0.7830   -2.5268 C   0  0  0  0  0  0  0  0  0  0  0  0
   -4.4085   -0.0831   -1.4692 O   0  0  0  0  0  0  0  0  0  0  0  0
   -3.7050    0.3915   -0.3940 C   0  0  0  0  0  0  0  0  0  0  0  0
   -2.3426    0.2299   -0.2625 C   0  0  0  0  0  0  0  0  0  0  0  0
   -1.6750    0.7344    0.8625 C   0  0  0  0  0  0  0  0  0  0  0  0
   -0.2898    0.5501    0.9662 C   0  0  0  0  0  0  0  0  0  0  0  0
    0.3435   -0.1256   -0.0602 O   0  0  0  0  0  0  0  0  0  0  0  0
    1.7161   -0.3803   -0.1332 C   0  0  0  0  0  0  0  0  0  0  0  0
    2.1597   -1.6934   -0.1033 C   0  0  0  0  0  0  0  0  0  0  0  0
    3.5189   -2.0068   -0.1774 C   0  0  0  0  0  0  0  0  0  0  0  0
    4.4887   -1.0391   -0.2815 C   0  0  0  0  0  0  0  0  0  0  0  0
    5.8792   -1.3421   -0.3734 N   0  0  0  0  0  0  0  0  0  0  0  0
    6.4824   -2.5462    0.0493 C   0  0  0  0  0  0  0  0  0  0  0  0
    5.8571   -3.4761    0.5938 O   0  0  0  0  0  0  0  0  0  0  0  0
    7.9663   -2.7108   -0.2057 C   0  0  0  0  0  0  0  0  0  0  0  0
    8.3768   -4.0792   -0.7264 C   0  0  0  0  0  0  0  0  0  0  0  0
    8.5635   -3.7277    0.7383 C   0  0  0  0  0  0  0  0  0  0  0  0
    8.7412   -1.5075   -0.5379 C   0  0  0  0  0  0  0  0  0  0  0  0
    9.2658   -1.4618   -1.7261 O   0  0  0  0  0  0  0  0  0  0  0  0
    8.9847   -0.4096    0.2987 N   0  0  0  0  0  0  0  0  0  0  0  0
    9.7265    0.7540   -0.0941 C   0  0  0  0  0  0  0  0  0  0  0  0
   10.8357    1.1147    0.5958 C   0  0  0  0  0  0  0  0  0  0  0  0
   11.5248    2.2599    0.2548 C   0  0  0  0  0  0  0  0  0  0  0  0
   11.0639    3.0368   -0.8057 C   0  0  0  0  0  0  0  0  0  0  0  0
   11.7002    4.1760   -1.1980 F   0  0  0  0  0  0  0  0  0  0  0  0
    9.9259    2.6771   -1.5228 C   0  0  0  0  0  0  0  0  0  0  0  0
    9.2822    1.5333   -1.1426 C   0  0  0  0  0  0  0  0  0  0  0  0
    4.0405    0.2679   -0.3104 C   0  0  0  0  0  0  0  0  0  0  0  0
    2.6818    0.5942   -0.2385 C   0  0  0  0  0  0  0  0  0  0  0  0
    2.2895    1.9005   -0.2942 F   0  0  0  0  0  0  0  0  0  0  0  0
    0.3644    1.0374    2.0620 C   0  0  0  0  0  0  0  0  0  0  0  0
   -0.3737    1.7049    3.0395 C   0  0  0  0  0  0  0  0  0  0  0  0
   -1.7048    1.8658    2.9116 N   0  0  0  0  0  0  0  0  0  0  0  0
   -2.3620    1.3966    1.8519 C   0  0  0  0  0  0  0  0  0  0  0  0
   -3.7219    1.5655    1.7321 C   0  0  0  0  0  0  0  0  0  0  0  0
   -4.3695    1.0741    0.6362 C   0  0  0  0  0  0  0  0  0  0  0  0
   -5.7174    1.2662    0.5493 O   0  0  0  0  0  0  0  0  0  0  0  0
   -6.4811    1.9426    1.5276 C   0  0  0  0  0  0  0  0  0  0  0  0
   -7.9347    2.0328    1.1448 C   0  0  0  0  0  0  0  0  0  0  0  0
   -8.4979    0.6486    1.0445 C   0  0  0  0  0  0  0  0  0  0  0  0
   -9.9036    0.6228    0.6831 N   0  0  0  0  0  0  0  0  0  0  0  0
  -10.3079   -0.7910    0.8619 C   0  0  0  0  0  0  0  0  0  0  0  0
  -11.6524   -1.0829    0.2872 C   0  0  0  0  0  0  0  0  0  0  0  0
  -11.9057   -0.4129   -0.9237 O   0  0  0  0  0  0  0  0  0  0  0  0
  -10.6875   -0.1604   -1.5210 C   0  0  0  0  0  0  0  0  0  0  0  0
   -9.9805    0.9527   -0.7449 C   0  0  0  0  0  0  0  0  0  0  0  0
   -3.5752   -1.8606   -2.2552 H   0  0  0  0  0  0  0  0  0  0  0  0
   -4.5499   -0.8738   -3.3932 H   0  0  0  0  0  0  0  0  0  0  0  0
   -2.9103   -0.3554   -2.9443 H   0  0  0  0  0  0  0  0  0  0  0  0
   -1.7881   -0.2915   -1.0522 H   0  0  0  0  0  0  0  0  0  0  0  0
    1.4435   -2.4997   -0.0192 H   0  0  0  0  0  0  0  0  0  0  0  0
    3.8115   -3.0467   -0.1742 H   0  0  0  0  0  0  0  0  0  0  0  0
    6.5102   -0.6145   -0.7952 H   0  0  0  0  0  0  0  0  0  0  0  0
    9.3550   -4.1910   -1.2604 H   0  0  0  0  0  0  0  0  0  0  0  0
    7.5489   -4.7822   -0.9962 H   0  0  0  0  0  0  0  0  0  0  0  0
    7.9285   -4.2048    1.5021 H   0  0  0  0  0  0  0  0  0  0  0  0
    9.5761   -3.4402    1.0968 H   0  0  0  0  0  0  0  0  0  0  0  0
    8.6269   -0.4382    1.3024 H   0  0  0  0  0  0  0  0  0  0  0  0
   11.2158    0.5228    1.4404 H   0  0  0  0  0  0  0  0  0  0  0  0
   12.4267    2.5904    0.7817 H   0  0  0  0  0  0  0  0  0  0  0  0
    9.5578    3.2991   -2.3588 H   0  0  0  0  0  0  0  0  0  0  0  0
    8.3940    1.2002   -1.6567 H   0  0  0  0  0  0  0  0  0  0  0  0
    4.7885    1.0431   -0.3850 H   0  0  0  0  0  0  0  0  0  0  0  0
    1.4077    0.9219    2.2023 H   0  0  0  0  0  0  0  0  0  0  0  0
    0.1267    2.1033    3.9130 H   0  0  0  0  0  0  0  0  0  0  0  0
   -4.2450    2.0957    2.5441 H   0  0  0  0  0  0  0  0  0  0  0  0
   -6.0816    2.9259    1.7614 H   0  0  0  0  0  0  0  0  0  0  0  0
   -6.4223    1.2583    2.4406 H   0  0  0  0  0  0  0  0  0  0  0  0
   -8.0945    2.6326    0.2433 H   0  0  0  0  0  0  0  0  0  0  0  0
   -8.4948    2.5991    1.9539 H   0  0  0  0  0  0  0  0  0  0  0  0
   -7.8870    0.1130    0.2654 H   0  0  0  0  0  0  0  0  0  0  0  0
   -8.3089    0.1370    2.0005 H   0  0  0  0  0  0  0  0  0  0  0  0
   -9.4878   -1.3997    0.4459 H   0  0  0  0  0  0  0  0  0  0  0  0
  -10.2930   -0.9120    1.9864 H   0  0  0  0  0  0  0  0  0  0  0  0
  -11.6772   -2.1790    0.0299 H   0  0  0  0  0  0  0  0  0  0  0  0
  -12.4398   -0.9525    1.0381 H   0  0  0  0  0  0  0  0  0  0  0  0
  -10.0219   -1.0279   -1.4792 H   0  0  0  0  0  0  0  0  0  0  0  0
  -10.8743    0.1453   -2.5500 H   0  0  0  0  0  0  0  0  0  0  0  0
  -10.5228    1.8993   -0.8854 H   0  0  0  0  0  0  0  0  0  0  0  0
   -8.9666    1.0724   -1.1712 H   0  0  0  0  0  0  0  0  0  0  0  0
  1  2  1  0
  2  3  1  0
  3  4  2  0
  4  5  1  0
  5  6  2  0
  6  7  1  0
  7  8  1  0
  8  9  2  0
  9 10  1  0
 10 11  2  0
 11 12  1  0
 12 13  1  0
 13 14  2  0
 13 15  1  0
 15 16  1  0
 16 17  1  0
 15 18  1  0
 18 19  2  0
 18 20  1  0
 20 21  1  0
 21 22  2  0
 22 23  1  0
 23 24  2  0
 24 25  1  0
 24 26  1  0
 26 27  2  0
 11 28  1  0
 28 29  2  0
 29 30  1  0
  6 31  1  0
 31 32  2  0
 32 33  1  0
 33 34  2  0
 34 35  1  0
 35 36  2  0
 36 37  1  0
 37 38  1  0
 38 39  1  0
 39 40  1  0
 40 41  1  0
 41 42  1  0
 42 43  1  0
 43 44  1  0
 44 45  1  0
 45 46  1  0
 36  3  1  0
 46 41  1  0
 34  5  1  0
 29  8  1  0
 17 15  1  0
 27 21  1  0
  1 47  1  0
  1 48  1  0
  1 49  1  0
  4 50  1  0
  9 51  1  0
 10 52  1  0
 12 53  1  0
 16 54  1  0
 16 55  1  0
 17 56  1  0
 17 57  1  0
 20 58  1  0
 22 59  1  0
 23 60  1  0
 26 61  1  0
 27 62  1  0
 28 63  1  0
 31 64  1  0
 32 65  1  0
 35 66  1  0
 38 67  1  0
 38 68  1  0
 39 69  1  0
 39 70  1  0
 40 71  1  0
 40 72  1  0
 42 73  1  0
 42 74  1  0
 43 75  1  0
 43 76  1  0
 45 77  1  0
 45 78  1  0
 46 79  1  0
 46 80  1  0
M  END
$$$$
[H]O[C@@]1([H])[C@]([H])(C([H])([H])OP(=O)(O[H])OP(=O)(O[H])O[H])O[C@@]([H])(n2c([H])nc3c(N([H])[H])nc([H])nc32)[C@]1([H])O[H]
     RDKit          3D

 42 44  0  0  0  0  0  0  0  0999 V2000
   -6.1156    2.5785    0.3368 N   0  0  0  0  0  0  0  0  0  0  0  0
   -5.0308    1.9870    1.0292 C   0  0  0  0  0  0  0  0  0  0  0  0
   -5.0069    1.8944    2.3869 N   0  0  0  0  0  0  0  0  0  0  0  0
   -3.9447    1.3207    2.9705 C   0  0  0  0  0  0  0  0  0  0  0  0
   -2.8925    0.8268    2.2951 N   0  0  0  0  0  0  0  0  0  0  0  0
   -2.8841    0.9015    0.9609 C   0  0  0  0  0  0  0  0  0  0  0  0
   -1.9808    0.4974    0.0504 N   0  0  0  0  0  0  0  0  0  0  0  0
   -2.4931    0.8286   -1.1485 C   0  0  0  0  0  0  0  0  0  0  0  0
   -3.6688    1.4154   -0.9841 N   0  0  0  0  0  0  0  0  0  0  0  0
   -3.9556    1.4829    0.3272 C   0  0  0  0  0  0  0  0  0  0  0  0
   -0.7196   -0.1510    0.2086 C   0  0  2  0  0  0  0  0  0  0  0  0
   -0.5568   -1.0321   -0.8780 O   0  0  0  0  0  0  0  0  0  0  0  0
    0.3686   -1.9660   -0.4868 C   0  0  1  0  0  0  0  0  0  0  0  0
    1.7958   -1.5218   -0.7722 C   0  0  0  0  0  0  0  0  0  0  0  0
    1.9808   -1.3005   -2.1372 O   0  0  0  0  0  0  0  0  0  0  0  0
    3.5546   -0.8083   -2.4697 P   0  0  0  0  0  0  0  0  0  0  0  0
    3.4550    0.7817   -3.0848 O   0  0  0  0  0  0  0  0  0  0  0  0
    4.1988   -1.6603   -3.5417 O   0  0  0  0  0  0  0  0  0  0  0  0
    4.4912   -0.7555   -1.0651 O   0  0  0  0  0  0  0  0  0  0  0  0
    5.3077    0.6979   -0.9623 P   0  0  0  0  0  0  0  0  0  0  0  0
    4.2686    2.0029   -0.7039 O   0  0  0  0  0  0  0  0  0  0  0  0
    6.4259    0.6363    0.3203 O   0  0  0  0  0  0  0  0  0  0  0  0
    6.0969    0.9994   -2.2299 O   0  0  0  0  0  0  0  0  0  0  0  0
    0.1481   -2.2276    0.9650 C   0  0  2  0  0  0  0  0  0  0  0  0
   -0.6067   -3.3894    1.1458 O   0  0  0  0  0  0  0  0  0  0  0  0
   -0.5912   -0.9912    1.4446 C   0  0  1  0  0  0  0  0  0  0  0  0
    0.1933   -0.3099    2.3672 O   0  0  0  0  0  0  0  0  0  0  0  0
   -5.9855    3.5515   -0.0356 H   0  0  0  0  0  0  0  0  0  0  0  0
   -7.0340    2.1054    0.1752 H   0  0  0  0  0  0  0  0  0  0  0  0
   -3.9159    1.2421    4.0510 H   0  0  0  0  0  0  0  0  0  0  0  0
   -2.0380    0.6566   -2.1380 H   0  0  0  0  0  0  0  0  0  0  0  0
    0.0735    0.6114    0.1162 H   0  0  0  0  0  0  0  0  0  0  0  0
    0.1604   -2.9074   -1.0380 H   0  0  0  0  0  0  0  0  0  0  0  0
    2.4997   -2.3078   -0.4337 H   0  0  0  0  0  0  0  0  0  0  0  0
    2.0211   -0.6068   -0.1884 H   0  0  0  0  0  0  0  0  0  0  0  0
    2.7604    1.2322   -2.5348 H   0  0  0  0  0  0  0  0  0  0  0  0
    3.8924    2.0109    0.2084 H   0  0  0  0  0  0  0  0  0  0  0  0
    5.9798    0.2187    1.1174 H   0  0  0  0  0  0  0  0  0  0  0  0
    1.1006   -2.3728    1.5256 H   0  0  0  0  0  0  0  0  0  0  0  0
   -0.6438   -3.8713    0.2702 H   0  0  0  0  0  0  0  0  0  0  0  0
   -1.5473   -1.3407    1.8575 H   0  0  0  0  0  0  0  0  0  0  0  0
    0.8385   -0.9599    2.7417 H   0  0  0  0  0  0  0  0  0  0  0  0
  1  2  1  0
  2  3  2  0
  3  4  1  0
  4  5  2  0
  5  6  1  0
  6  7  1  0
  7  8  1  0
  8  9  2  0
  9 10  1  0
  7 11  1  0
 11 12  1  0
 12 13  1  0
 13 14  1  0
 14 15  1  0
 15 16  1  0
 16 17  1  0
 16 18  2  0
 16 19  1  0
 19 20  1  0
 20 21  1  0
 20 22  1  0
 20 23  2  0
 13 24  1  0
 24 25  1  0
 24 26  1  0
 26 27  1  0
 10  2  1  0
 26 11  1  0
 10  6  2  0
  1 28  1  0
  1 29  1  0
  4 30  1  0
  8 31  1  0
 11 32  1  1
 13 33  1  6
 14 34  1  0
 14 35  1  0
 17 36  1  0
 21 37  1  0
 22 38  1  0
 24 39  1  1
 25 40  1  0
 26 41  1  1
 27 42  1  0
M  END
$$$$
[H]c1nc(N([H])c2c([H])c(N([H])C(=O)c3c([H])c([H])c(C([H])([H])N4C([H])([H])C([H])([H])N(C([H])([H])C([H])([H])[H])C([H])([H])C4([H])[H])c(C(F)(F)F)c3[H])c([H])c([H])c2C([H])([H])[H])nc(-c2c([H])nc([H])c([H])c2[H])c1[H]
     RDKit          3D

 74 78  0  0  0  0  0  0  0  0999 V2000
   -9.6920   -2.4471   -0.8331 C   0  0  0  0  0  0  0  0  0  0  0  0
   -9.5430   -1.3648    0.1981 C   0  0  0  0  0  0  0  0  0  0  0  0
   -9.1273   -0.1267   -0.4863 N   0  0  0  0  0  0  0  0  0  0  0  0
   -8.9617    0.9077    0.5072 C   0  0  0  0  0  0  0  0  0  0  0  0
   -7.8290    1.8507   -0.0123 C   0  0  0  0  0  0  0  0  0  0  0  0
   -6.6294    1.1092    0.1331 N   0  0  0  0  0  0  0  0  0  0  0  0
   -5.4839    1.8070    0.3706 C   0  0  0  0  0  0  0  0  0  0  0  0
   -4.2502    0.9943    0.4717 C   0  0  0  0  0  0  0  0  0  0  0  0
   -4.0244    0.1176    1.4925 C   0  0  0  0  0  0  0  0  0  0  0  0
   -2.7386   -0.4474    1.6553 C   0  0  0  0  0  0  0  0  0  0  0  0
   -1.7554   -0.1016    0.7830 C   0  0  0  0  0  0  0  0  0  0  0  0
   -2.0587    0.7789   -0.2259 C   0  0  0  0  0  0  0  0  0  0  0  0
   -3.2568    1.3601   -0.4408 C   0  0  0  0  0  0  0  0  0  0  0  0
   -3.5360    2.1904   -1.6044 C   0  0  0  0  0  0  0  0  0  0  0  0
   -4.4960    1.5602   -2.4613 F   0  0  0  0  0  0  0  0  0  0  0  0
   -2.3837    2.1910   -2.4185 F   0  0  0  0  0  0  0  0  0  0  0  0
   -3.8439    3.4975   -1.3970 F   0  0  0  0  0  0  0  0  0  0  0  0
   -0.3913   -0.5999    0.9350 C   0  0  0  0  0  0  0  0  0  0  0  0
   -0.2569   -1.6931    1.4890 O   0  0  0  0  0  0  0  0  0  0  0  0
    0.6956    0.1512    0.4679 N   0  0  0  0  0  0  0  0  0  0  0  0
    2.0562   -0.2155    0.5719 C   0  0  0  0  0  0  0  0  0  0  0  0
    2.4162   -1.2541    1.4175 C   0  0  0  0  0  0  0  0  0  0  0  0
    3.7195   -1.6625    1.4732 C   0  0  0  0  0  0  0  0  0  0  0  0
    4.6785   -1.1030    0.7386 C   0  0  0  0  0  0  0  0  0  0  0  0
    6.1186   -1.4878    0.9043 C   0  0  0  0  0  0  0  0  0  0  0  0
    4.3408   -0.0304   -0.1509 C   0  0  0  0  0  0  0  0  0  0  0  0
    5.3699    0.3028   -1.0183 N   0  0  0  0  0  0  0  0  0  0  0  0
    6.4361    1.2760   -0.6316 C   0  0  0  0  0  0  0  0  0  0  0  0
    6.3314    2.0199    0.4155 N   0  0  0  0  0  0  0  0  0  0  0  0
    7.5013    2.2643    1.1126 C   0  0  0  0  0  0  0  0  0  0  0  0
    8.7108    1.7341    0.7082 C   0  0  0  0  0  0  0  0  0  0  0  0
    8.7845    0.9701   -0.3790 C   0  0  0  0  0  0  0  0  0  0  0  0
    7.6336    0.7372   -1.0780 N   0  0  0  0  0  0  0  0  0  0  0  0
    9.8851    0.1143   -0.7855 C   0  0  0  0  0  0  0  0  0  0  0  0
   10.2420   -0.1237   -2.0708 C   0  0  0  0  0  0  0  0  0  0  0  0
   10.9635   -1.2572   -2.4089 C   0  0  0  0  0  0  0  0  0  0  0  0
   11.3162   -2.1432   -1.3976 C   0  0  0  0  0  0  0  0  0  0  0  0
   10.9652   -1.8972   -0.1227 N   0  0  0  0  0  0  0  0  0  0  0  0
   10.2745   -0.8155    0.1981 C   0  0  0  0  0  0  0  0  0  0  0  0
    3.0464    0.3921   -0.2062 C   0  0  0  0  0  0  0  0  0  0  0  0
   -6.7245   -0.2349   -0.1553 C   0  0  0  0  0  0  0  0  0  0  0  0
   -7.8963   -0.4135   -1.1397 C   0  0  0  0  0  0  0  0  0  0  0  0
  -10.4731   -3.1471   -0.4832 H   0  0  0  0  0  0  0  0  0  0  0  0
  -10.0251   -1.9870   -1.8013 H   0  0  0  0  0  0  0  0  0  0  0  0
   -8.7598   -3.0352   -0.9729 H   0  0  0  0  0  0  0  0  0  0  0  0
  -10.4700   -1.2144    0.7369 H   0  0  0  0  0  0  0  0  0  0  0  0
   -8.7099   -1.6496    0.8582 H   0  0  0  0  0  0  0  0  0  0  0  0
   -9.7900    1.5210    0.7582 H   0  0  0  0  0  0  0  0  0  0  0  0
   -8.5105    0.4796    1.4574 H   0  0  0  0  0  0  0  0  0  0  0  0
   -7.8740    2.7432    0.6449 H   0  0  0  0  0  0  0  0  0  0  0  0
   -8.0670    2.1771   -1.0324 H   0  0  0  0  0  0  0  0  0  0  0  0
   -5.6550    1.9264    1.6234 H   0  0  0  0  0  0  0  0  0  0  0  0
   -5.4003    2.8664    0.2167 H   0  0  0  0  0  0  0  0  0  0  0  0
   -4.7692   -0.1567    2.2294 H   0  0  0  0  0  0  0  0  0  0  0  0
   -2.5760   -1.1582    2.4928 H   0  0  0  0  0  0  0  0  0  0  0  0
   -1.2345    1.0009   -0.9459 H   0  0  0  0  0  0  0  0  0  0  0  0
    0.4710    1.0698   -0.0009 H   0  0  0  0  0  0  0  0  0  0  0  0
    1.7168   -1.7378    2.0497 H   0  0  0  0  0  0  0  0  0  0  0  0
    4.0282   -2.4811    2.1361 H   0  0  0  0  0  0  0  0  0  0  0  0
    6.6209   -0.6871    1.5461 H   0  0  0  0  0  0  0  0  0  0  0  0
    6.6458   -1.7835    0.0332 H   0  0  0  0  0  0  0  0  0  0  0  0
    6.1513   -2.3572    1.6137 H   0  0  0  0  0  0  0  0  0  0  0  0
    5.4496   -0.1112   -1.9745 H   0  0  0  0  0  0  0  0  0  0  0  0
    7.4213    2.8892    2.0227 H   0  0  0  0  0  0  0  0  0  0  0  0
    9.6154    1.9912    1.3141 H   0  0  0  0  0  0  0  0  0  0  0  0
   10.0080    0.5517   -2.8883 H   0  0  0  0  0  0  0  0  0  0  0  0
   11.2747   -1.4946   -3.4254 H   0  0  0  0  0  0  0  0  0  0  0  0
   11.8584   -3.0745   -1.5829 H   0  0  0  0  0  0  0  0  0  0  0  0
    9.9837   -0.6578    1.2463 H   0  0  0  0  0  0  0  0  0  0  0  0
    2.7146    1.1875   -0.8568 H   0  0  0  0  0  0  0  0  0  0  0  0
   -6.8403   -0.8915    0.7459 H   0  0  0  0  0  0  0  0  0  0  0  0
   -5.8435   -0.6741   -0.7223 H   0  0  0  0  0  0  0  0  0  0  0  0
   -7.7420    0.3701   -1.9321 H   0  0  0  0  0  0  0  0  0  0  0  0
   -7.8267   -1.3831   -1.6626 H   0  0  0  0  0  0  0  0  0  0  0  0
  1  2  1  0
  2  3  1  0
  3  4  1  0
  4  5  1  0
  5  6  1  0
  6  7  1  0
  7  8  1  0
  8  9  2  0
  9 10  1  0
 10 11  2  0
 11 12  1  0
 12 13  2  0
 13 14  1  0
 14 15  1  0
 14 16  1  0
 14 17  1  0
 11 18  1  0
 18 19  2  0
 18 20  1  0
 20 21  1  0
 21 22  2  0
 22 23  1  0
 23 24  2  0
 24 25  1  0
 24 26  1  0
 26 27  1  0
 27 28  1  0
 28 29  2  0
 29 30  1  0
 30 31  2  0
 31 32  1  0
 32 33  2  0
 32 34  1  0
 34 35  2  0
 35 36  1  0
 36 37  2  0
 37 38  1  0
 38 39  2  0
 26 40  2  0
  6 41  1  0
 41 42  1  0
 42  3  1  0
 13  8  1  0
 40 21  1  0
 33 28  1  0
 39 34  1  0
  1 43  1  0
  1 44  1  0
  1 45  1  0
  2 46  1  0
  2 47  1  0
  4 48  1  0
  4 49  1  0
  5 50  1  0
  5 51  1  0
  7 52  1  0
  7 53  1  0
  9 54  1  0
 10 55  1  0
 12 56  1  0
 20 57  1  0
 22 58  1  0
 23 59  1  0
 25 60  1  0
 25 61  1  0
 25 62  1  0
 27 63  1  0
 30 64  1  0
 31 65  1  0
 35 66  1  0
 36 67  1  0
 37 68  1  0
 39 69  1  0
 40 70  1  0
 41 71  1  0
 41 72  1  0
 42 73  1  0
 42 74  1  0
M  END
$$$$
[H]c1nc(C(=O)N([H])c2c([H])c([H])c(C3([H])C([H])([H])C([H])([H])N(C(=O)C([H])([H])N(C([H])([H])[H])C([H])([H])[H])C([H])([H])C3([H])[H])c([H])c2[H])n([H])c1C#N
     RDKit          3D

 52 54  0  0  0  0  0  0  0  0999 V2000
   -5.7411    0.2592    1.8494 C   0  0  0  0  0  0  0  0  0  0  0  0
   -5.7391    0.9853    0.5795 N   0  0  0  0  0  0  0  0  0  0  0  0
   -6.3483    2.2664    0.6436 C   0  0  0  0  0  0  0  0  0  0  0  0
   -6.0142    0.1746   -0.5274 C   0  0  0  0  0  0  0  0  0  0  0  0
   -4.9906   -0.7216   -0.9866 C   0  0  0  0  0  0  0  0  0  0  0  0
   -5.4374   -1.5664   -1.9199 O   0  0  0  0  0  0  0  0  0  0  0  0
   -3.6458   -0.8490   -0.6310 N   0  0  0  0  0  0  0  0  0  0  0  0
   -2.9032   -2.0455   -1.1606 C   0  0  0  0  0  0  0  0  0  0  0  0
   -1.4410   -1.8412   -0.9588 C   0  0  0  0  0  0  0  0  0  0  0  0
   -0.9158   -0.5059   -1.3963 C   0  0  0  0  0  0  0  0  0  0  0  0
   -1.7900    0.5835   -0.9356 C   0  0  0  0  0  0  0  0  0  0  0  0
   -2.8051    0.0437    0.0942 C   0  0  0  0  0  0  0  0  0  0  0  0
    0.4945   -0.3785   -0.9668 C   0  0  0  0  0  0  0  0  0  0  0  0
    0.9200   -0.3671    0.3313 C   0  0  0  0  0  0  0  0  0  0  0  0
    2.2822   -0.2344    0.6367 C   0  0  0  0  0  0  0  0  0  0  0  0
    3.2494   -0.1106   -0.3283 C   0  0  0  0  0  0  0  0  0  0  0  0
    4.6368    0.0310   -0.0864 N   0  0  0  0  0  0  0  0  0  0  0  0
    5.3177    0.0536    1.1353 C   0  0  0  0  0  0  0  0  0  0  0  0
    4.8026   -0.0516    2.2625 O   0  0  0  0  0  0  0  0  0  0  0  0
    6.7781    0.2161    1.1106 C   0  0  0  0  0  0  0  0  0  0  0  0
    7.5643    0.2575    2.1753 N   0  0  0  0  0  0  0  0  0  0  0  0
    8.8286    0.4158    1.7757 C   0  0  0  0  0  0  0  0  0  0  0  0
    8.8387    0.4767    0.3982 C   0  0  0  0  0  0  0  0  0  0  0  0
    7.5562    0.3498    0.0293 N   0  0  0  0  0  0  0  0  0  0  0  0
    9.9700    0.6413   -0.4767 C   0  0  0  0  0  0  0  0  0  0  0  0
   10.9022    0.7751   -1.1819 N   0  0  0  0  0  0  0  0  0  0  0  0
    2.7929   -0.1247   -1.6610 C   0  0  0  0  0  0  0  0  0  0  0  0
    1.4659   -0.2548   -1.9331 C   0  0  0  0  0  0  0  0  0  0  0  0
   -4.9462    0.7247    2.4697 H   0  0  0  0  0  0  0  0  0  0  0  0
   -5.5203   -0.7992    1.7204 H   0  0  0  0  0  0  0  0  0  0  0  0
   -6.7029    0.4746    2.3340 H   0  0  0  0  0  0  0  0  0  0  0  0
   -5.5241    3.0381    0.6981 H   0  0  0  0  0  0  0  0  0  0  0  0
   -7.0093    2.4472    1.4915 H   0  0  0  0  0  0  0  0  0  0  0  0
   -6.8777    2.5151   -0.3147 H   0  0  0  0  0  0  0  0  0  0  0  0
   -6.2356    0.8966   -1.4064 H   0  0  0  0  0  0  0  0  0  0  0  0
   -7.0316   -0.3349   -0.4466 H   0  0  0  0  0  0  0  0  0  0  0  0
   -3.2310   -2.1839   -2.1883 H   0  0  0  0  0  0  0  0  0  0  0  0
   -3.2264   -2.8616   -0.4743 H   0  0  0  0  0  0  0  0  0  0  0  0
   -0.9086   -2.6344   -1.5805 H   0  0  0  0  0  0  0  0  0  0  0  0
   -1.1896   -2.0627    0.1143 H   0  0  0  0  0  0  0  0  0  0  0  0
   -0.9449   -0.5122   -2.5310 H   0  0  0  0  0  0  0  0  0  0  0  0
   -2.3312    1.0290   -1.7966 H   0  0  0  0  0  0  0  0  0  0  0  0
   -1.2612    1.4385   -0.4612 H   0  0  0  0  0  0  0  0  0  0  0  0
   -2.1816   -0.5557    0.8167 H   0  0  0  0  0  0  0  0  0  0  0  0
   -3.2681    0.8940    0.5897 H   0  0  0  0  0  0  0  0  0  0  0  0
    0.2179   -0.4605    1.1307 H   0  0  0  0  0  0  0  0  0  0  0  0
    2.5842   -0.2306    1.6859 H   0  0  0  0  0  0  0  0  0  0  0  0
    5.2491    0.1357   -0.9554 H   0  0  0  0  0  0  0  0  0  0  0  0
    9.7312    0.4912    2.3893 H   0  0  0  0  0  0  0  0  0  0  0  0
    7.2662    0.3616   -0.9861 H   0  0  0  0  0  0  0  0  0  0  0  0
    3.5275   -0.0299   -2.4647 H   0  0  0  0  0  0  0  0  0  0  0  0
    1.1855   -0.2587   -3.0007 H   0  0  0  0  0  0  0  0  0  0  0  0
  1  2  1  0
  2  3  1  0
  2  4  1  0
  4  5  1  0
  5  6  2  0
  5  7  1  0
  7  8  1  0
  8  9  1  0
  9 10  1  0
 10 11  1  0
 11 12  1  0
 10 13  1  0
 13 14  2  0
 14 15  1  0
 15 16  2  0
 16 17  1  0
 17 18  1  0
 18 19  2  0
 18 20  1  0
 20 21  2  0
 21 22  1  0
 22 23  2  0
 23 24  1  0
 23 25  1  0
 25 26  3  0
 16 27  1  0
 27 28  2  0
 12  7  1  0
 28 13  1  0
 24 20  1  0
  1 29  1  0
  1 30  1  0
  1 31  1  0
  3 32  1  0
  3 33  1  0
  3 34  1  0
  4 35  1  0
  4 36  1  0
  8 37  1  0
  8 38  1  0
  9 39  1  0
  9 40  1  0
 10 41  1  0
 11 42  1  0
 11 43  1  0
 12 44  1  0
 12 45  1  0
 14 46  1  0
 15 47  1  0
 17 48  1  0
 22 49  1  0
 24 50  1  0
 27 51  1  0
 28 52  1  0
M  END
$$$$
[H]c1nc([H])c(-c2c(O[C@]3([H])C([H])([H])OC([H])([H])C3([H])[H])nc3sc(N([H])C(=O)N([H])C([H])([H])C([H])([H])[H])nc3c2[H])c([H])c1[H]
     RDKit          3D

 46 49  0  0  0  0  0  0  0  0999 V2000
    7.4290   -2.0080   -1.8558 C   0  0  0  0  0  0  0  0  0  0  0  0
    7.6691   -1.4042   -0.5050 C   0  0  0  0  0  0  0  0  0  0  0  0
    6.8031   -0.2937   -0.2234 N   0  0  0  0  0  0  0  0  0  0  0  0
    5.4016   -0.3671   -0.1859 C   0  0  0  0  0  0  0  0  0  0  0  0
    4.8828   -1.5112   -0.4219 O   0  0  0  0  0  0  0  0  0  0  0  0
    4.5642    0.7221    0.0899 N   0  0  0  0  0  0  0  0  0  0  0  0
    3.1310    0.5746    0.1122 C   0  0  0  0  0  0  0  0  0  0  0  0
    2.2072    1.4808    0.3504 N   0  0  0  0  0  0  0  0  0  0  0  0
    0.9518    1.1546    0.3259 C   0  0  0  0  0  0  0  0  0  0  0  0
   -0.1405    2.0140    0.5602 C   0  0  0  0  0  0  0  0  0  0  0  0
   -1.4095    1.4989    0.4939 C   0  0  0  0  0  0  0  0  0  0  0  0
   -2.5460    2.3886    0.7320 C   0  0  0  0  0  0  0  0  0  0  0  0
   -3.6325    2.3917   -0.1090 C   0  0  0  0  0  0  0  0  0  0  0  0
   -4.6841    3.2456    0.1565 C   0  0  0  0  0  0  0  0  0  0  0  0
   -4.6424    4.0866    1.2556 C   0  0  0  0  0  0  0  0  0  0  0  0
   -3.5757    4.0776    2.0734 N   0  0  0  0  0  0  0  0  0  0  0  0
   -2.5429    3.2389    1.8128 C   0  0  0  0  0  0  0  0  0  0  0  0
   -1.7109    0.1828    0.2114 C   0  0  0  0  0  0  0  0  0  0  0  0
   -2.9993   -0.2837    0.1575 O   0  0  0  0  0  0  0  0  0  0  0  0
   -3.3354   -1.6065   -0.1247 C   0  0  1  0  0  0  0  0  0  0  0  0
   -4.1521   -2.2518    0.9608 C   0  0  0  0  0  0  0  0  0  0  0  0
   -5.0831   -3.1455    0.1693 C   0  0  0  0  0  0  0  0  0  0  0  0
   -5.3978   -2.3289   -0.9226 O   0  0  0  0  0  0  0  0  0  0  0  0
   -4.2016   -1.7606   -1.3382 C   0  0  0  0  0  0  0  0  0  0  0  0
   -0.6526   -0.6176   -0.0084 N   0  0  0  0  0  0  0  0  0  0  0  0
    0.6320   -0.1453    0.0476 C   0  0  0  0  0  0  0  0  0  0  0  0
    2.1880   -0.8345   -0.1666 S   0  0  0  0  0  0  0  0  0  0  0  0
    8.3931   -2.4357   -2.2074 H   0  0  0  0  0  0  0  0  0  0  0  0
    6.6975   -2.8350   -1.8326 H   0  0  0  0  0  0  0  0  0  0  0  0
    7.1513   -1.2158   -2.5863 H   0  0  0  0  0  0  0  0  0  0  0  0
    8.7241   -1.0756   -0.4386 H   0  0  0  0  0  0  0  0  0  0  0  0
    7.5584   -2.2235    0.2639 H   0  0  0  0  0  0  0  0  0  0  0  0
    7.2279    0.6606   -0.0263 H   0  0  0  0  0  0  0  0  0  0  0  0
    4.9521    1.6587    0.2844 H   0  0  0  0  0  0  0  0  0  0  0  0
    0.0316    3.0767    0.7911 H   0  0  0  0  0  0  0  0  0  0  0  0
   -3.7150    1.7586   -0.9812 H   0  0  0  0  0  0  0  0  0  0  0  0
   -5.5663    3.2968   -0.4645 H   0  0  0  0  0  0  0  0  0  0  0  0
   -5.4367    4.7678    1.5021 H   0  0  0  0  0  0  0  0  0  0  0  0
   -1.7155    3.2918    2.5232 H   0  0  0  0  0  0  0  0  0  0  0  0
   -2.3952   -2.1964   -0.2929 H   0  0  0  0  0  0  0  0  0  0  0  0
   -3.4884   -2.8305    1.6334 H   0  0  0  0  0  0  0  0  0  0  0  0
   -4.7706   -1.5254    1.5081 H   0  0  0  0  0  0  0  0  0  0  0  0
   -4.6010   -4.0803   -0.1434 H   0  0  0  0  0  0  0  0  0  0  0  0
   -6.0048   -3.3224    0.7628 H   0  0  0  0  0  0  0  0  0  0  0  0
   -4.4376   -0.8101   -1.8465 H   0  0  0  0  0  0  0  0  0  0  0  0
   -3.7584   -2.4586   -2.0970 H   0  0  0  0  0  0  0  0  0  0  0  0
  1  2  1  0
  2  3  1  0
  3  4  1  0
  4  5  2  0
  4  6  1  0
  6  7  1  0
  7  8  2  0
  8  9  1  0
  9 10  2  0
 10 11  1  0
 11 12  1  0
 12 13  2  0
 13 14  1  0
 14 15  2  0
 15 16  1  0
 16 17  2  0
 11 18  2  0
 18 19  1  0
 19 20  1  0
 20 21  1  0
 21 22  1  0
 22 23  1  0
 23 24  1  0
 18 25  1  0
 25 26  2  0
 26 27  1  0
 27  7  1  0
 26  9  1  0
 17 12  1  0
 24 20  1  0
  1 28  1  0
  1 29  1  0
  1 30  1  0
  2 31  1  0
  2 32  1  0
  3 33  1  0
  6 34  1  0
 10 35  1  0
 13 36  1  0
 14 37  1  0
 15 38  1  0
 17 39  1  0
 20 40  1  6
 21 41  1  0
 21 42  1  0
 22 43  1  0
 22 44  1  0
 24 45  1  0
 24 46  1  0
M  END
$$$$
[H]OC(=O)[C@]1([H])O[C@]([H])([C@@]([H])(O[C@@]2([H])OC(C(=O)N([H])C3([H])[C@]([H])(O[H])[C@]([H])(O[H])[C@@]([H])(O[H])[C@@]3([H])O[H])=C([H])[C@]([H])(O[H])[C@]2([H])O[H])n2c([H])c([H])c(=O)n([H])c2=O)[C@@]([H])(OC([H])([H])[H])[C@@]1([H])O[H]
     RDKit          3D

 70 73  0  0  0  0  0  0  0  0999 V2000
   -1.1572   -0.6514   -3.7446 C   0  0  0  0  0  0  0  0  0  0  0  0
   -2.4220   -0.3666   -3.2723 O   0  0  0  0  0  0  0  0  0  0  0  0
   -2.3818   -0.0922   -1.8911 C   0  0  1  0  0  0  0  0  0  0  0  0
   -2.9502    1.3019   -1.7057 C   0  0  1  0  0  0  0  0  0  0  0  0
   -2.8700    2.0837   -2.8285 O   0  0  0  0  0  0  0  0  0  0  0  0
   -4.4194    0.9539   -1.4783 C   0  0  1  0  0  0  0  0  0  0  0  0
   -4.3310   -0.1634   -0.6991 O   0  0  0  0  0  0  0  0  0  0  0  0
   -3.3118   -0.9876   -1.1536 C   0  0  2  0  0  0  0  0  0  0  0  0
   -2.6698   -1.6982    0.0389 C   0  0  1  0  0  0  0  0  0  0  0  0
   -2.1780   -0.7862    0.9255 O   0  0  0  0  0  0  0  0  0  0  0  0
   -0.8135   -0.8665    1.1905 C   0  0  1  0  0  0  0  0  0  0  0  0
   -0.1433    0.3311    0.9699 O   0  0  0  0  0  0  0  0  0  0  0  0
    1.2039    0.4580    1.2689 C   0  0  0  0  0  0  0  0  0  0  0  0
    1.5525    0.0139    2.4633 C   0  0  0  0  0  0  0  0  0  0  0  0
    0.4796   -0.5527    3.3221 C   0  0  2  0  0  0  0  0  0  0  0  0
    1.1043   -1.3334    4.3025 O   0  0  0  0  0  0  0  0  0  0  0  0
   -0.5733   -1.3112    2.6115 C   0  0  2  0  0  0  0  0  0  0  0  0
   -0.2144   -2.6621    2.5986 O   0  0  0  0  0  0  0  0  0  0  0  0
    2.1704    1.0458    0.3260 C   0  0  0  0  0  0  0  0  0  0  0  0
    1.7985    1.4641   -0.8028 O   0  0  0  0  0  0  0  0  0  0  0  0
    3.5275    1.1348    0.7056 N   0  0  0  0  0  0  0  0  0  0  0  0
    4.4464    1.7276   -0.2646 C   0  0  0  0  0  0  0  0  0  0  0  0
    5.5347    0.6997   -0.6083 C   0  0  2  0  0  0  0  0  0  0  0  0
    6.1109    0.3122    0.5802 O   0  0  0  0  0  0  0  0  0  0  0  0
    6.4860    1.6100   -1.3966 C   0  0  2  0  0  0  0  0  0  0  0  0
    7.7265    1.0444   -1.5659 O   0  0  0  0  0  0  0  0  0  0  0  0
    6.4784    2.8801   -0.6009 C   0  0  1  0  0  0  0  0  0  0  0  0
    6.3436    3.9719   -1.4800 O   0  0  0  0  0  0  0  0  0  0  0  0
    5.2610    2.8417    0.2951 C   0  0  1  0  0  0  0  0  0  0  0  0
    4.6262    4.0802    0.2590 O   0  0  0  0  0  0  0  0  0  0  0  0
   -3.6920   -2.5479    0.6719 N   0  0  0  0  0  0  0  0  0  0  0  0
   -3.9254   -3.7997    0.2536 C   0  0  0  0  0  0  0  0  0  0  0  0
   -4.8732   -4.6218    0.8257 C   0  0  0  0  0  0  0  0  0  0  0  0
   -5.6041   -4.1046    1.8805 C   0  0  0  0  0  0  0  0  0  0  0  0
   -6.4716   -4.8480    2.4098 O   0  0  0  0  0  0  0  0  0  0  0  0
   -5.3620   -2.8529    2.2894 N   0  0  0  0  0  0  0  0  0  0  0  0
   -4.4217   -2.0758    1.7011 C   0  0  0  0  0  0  0  0  0  0  0  0
   -4.2603   -0.9090    2.1502 O   0  0  0  0  0  0  0  0  0  0  0  0
   -5.1118    2.0314   -0.7359 C   0  0  0  0  0  0  0  0  0  0  0  0
   -5.3044    3.2630   -1.3711 O   0  0  0  0  0  0  0  0  0  0  0  0
   -5.5081    1.8249    0.4327 O   0  0  0  0  0  0  0  0  0  0  0  0
   -0.4751    0.2128   -3.5762 H   0  0  0  0  0  0  0  0  0  0  0  0
   -0.6790   -1.4931   -3.1621 H   0  0  0  0  0  0  0  0  0  0  0  0
   -1.1558   -1.0072   -4.7925 H   0  0  0  0  0  0  0  0  0  0  0  0
   -1.3317   -0.1838   -1.5790 H   0  0  0  0  0  0  0  0  0  0  0  0
   -2.5008    1.8196   -0.8602 H   0  0  0  0  0  0  0  0  0  0  0  0
   -3.6493    1.8991   -3.4029 H   0  0  0  0  0  0  0  0  0  0  0  0
   -4.9231    0.7805   -2.4438 H   0  0  0  0  0  0  0  0  0  0  0  0
   -3.6944   -1.7580   -1.8691 H   0  0  0  0  0  0  0  0  0  0  0  0
   -1.9310   -2.3950   -0.3751 H   0  0  0  0  0  0  0  0  0  0  0  0
   -0.4564   -1.7105    0.5288 H   0  0  0  0  0  0  0  0  0  0  0  0
    2.5623    0.0609    2.7947 H   0  0  0  0  0  0  0  0  0  0  0  0
    0.0659    0.3377    3.8835 H   0  0  0  0  0  0  0  0  0  0  0  0
    1.6778   -0.7109    4.8101 H   0  0  0  0  0  0  0  0  0  0  0  0
   -1.5534   -1.1848    3.1455 H   0  0  0  0  0  0  0  0  0  0  0  0
   -0.6072   -3.1504    3.3596 H   0  0  0  0  0  0  0  0  0  0  0  0
    3.8995    0.8068    1.6218 H   0  0  0  0  0  0  0  0  0  0  0  0
    3.9333    2.0691   -1.1757 H   0  0  0  0  0  0  0  0  0  0  0  0
    5.1374   -0.1114   -1.2218 H   0  0  0  0  0  0  0  0  0  0  0  0
    6.0133   -0.6421    0.7860 H   0  0  0  0  0  0  0  0  0  0  0  0
    5.9699    1.7729   -2.3862 H   0  0  0  0  0  0  0  0  0  0  0  0
    8.3425    1.3377   -0.8644 H   0  0  0  0  0  0  0  0  0  0  0  0
    7.4256    2.9822   -0.0259 H   0  0  0  0  0  0  0  0  0  0  0  0
    7.1684    4.1462   -1.9870 H   0  0  0  0  0  0  0  0  0  0  0  0
    5.6454    2.6085    1.3210 H   0  0  0  0  0  0  0  0  0  0  0  0
    5.2431    4.7274    0.6933 H   0  0  0  0  0  0  0  0  0  0  0  0
   -3.3595   -4.2101   -0.5679 H   0  0  0  0  0  0  0  0  0  0  0  0
   -5.0365   -5.6404    0.4553 H   0  0  0  0  0  0  0  0  0  0  0  0
   -5.9125   -2.4630    3.0847 H   0  0  0  0  0  0  0  0  0  0  0  0
   -5.6982    3.2567   -2.2864 H   0  0  0  0  0  0  0  0  0  0  0  0
  1  2  1  0
  2  3  1  0
  3  4  1  0
  4  5  1  0
  4  6  1  0
  6  7  1  0
  7  8  1  0
  8  9  1  0
  9 10  1  0
 10 11  1  0
 11 12  1  0
 12 13  1  0
 13 14  2  0
 14 15  1  0
 15 16  1  0
 15 17  1  0
 17 18  1  0
 13 19  1  0
 19 20  2  0
 19 21  1  0
 21 22  1  0
 22 23  1  0
 23 24  1  0
 23 25  1  0
 25 26  1  0
 25 27  1  0
 27 28  1  0
 27 29  1  0
 29 30  1  0
  9 31  1  0
 31 32  1  0
 32 33  2  0
 33 34  1  0
 34 35  2  0
 34 36  1  0
 36 37  1  0
 37 38  2  0
  6 39  1  0
 39 40  1  0
 39 41  2  0
  8  3  1  0
 17 11  1  0
 29 22  1  0
 37 31  1  0
  1 42  1  0
  1 43  1  0
  1 44  1  0
  3 45  1  1
  4 46  1  1
  5 47  1  0
  6 48  1  6
  8 49  1  6
  9 50  1  6
 11 51  1  6
 14 52  1  0
 15 53  1  1
 16 54  1  0
 17 55  1  1
 18 56  1  0
 21 57  1  0
 22 58  1  0
 23 59  1  6
 24 60  1  0
 25 61  1  6
 26 62  1  0
 27 63  1  1
 28 64  1  0
 29 65  1  1
 30 66  1  0
 32 67  1  0
 33 68  1  0
 36 69  1  0
 40 70  1  0
M  END
$$$$
[H]c1sc(C([H])([H])[H])nc1C#Cc1c([H])c([H])c([H])c(C#N)c1[H]
     RDKit          3D

 24 25  0  0  0  0  0  0  0  0999 V2000
    5.5944    0.8349    0.0549 C   0  0  0  0  0  0  0  0  0  0  0  0
    4.4094   -0.0463   -0.2711 C   0  0  0  0  0  0  0  0  0  0  0  0
    3.1253    0.1960   -0.0587 N   0  0  0  0  0  0  0  0  0  0  0  0
    2.2311   -0.6755   -0.4023 C   0  0  0  0  0  0  0  0  0  0  0  0
    2.6812   -1.8388   -0.9863 C   0  0  0  0  0  0  0  0  0  0  0  0
    4.3714   -1.5903   -0.9978 S   0  0  0  0  0  0  0  0  0  0  0  0
    0.7907   -0.4520   -0.1868 C   0  0  0  0  0  0  0  0  0  0  0  0
   -0.3849   -0.2744    0.0098 C   0  0  0  0  0  0  0  0  0  0  0  0
   -1.7857   -0.0836    0.2582 C   0  0  0  0  0  0  0  0  0  0  0  0
   -2.3820   -0.5619    1.4281 C   0  0  0  0  0  0  0  0  0  0  0  0
   -3.7212   -0.3920    1.6894 C   0  0  0  0  0  0  0  0  0  0  0  0
   -4.4930    0.2724    0.7625 C   0  0  0  0  0  0  0  0  0  0  0  0
   -3.8995    0.7441   -0.3936 C   0  0  0  0  0  0  0  0  0  0  0  0
   -2.5514    0.5743   -0.6589 C   0  0  0  0  0  0  0  0  0  0  0  0
   -4.7122    1.4367   -1.3562 C   0  0  0  0  0  0  0  0  0  0  0  0
   -5.3880    1.9991   -2.1274 N   0  0  0  0  0  0  0  0  0  0  0  0
    5.1929    1.7453    0.5326 H   0  0  0  0  0  0  0  0  0  0  0  0
    6.1319    1.0436   -0.8854 H   0  0  0  0  0  0  0  0  0  0  0  0
    6.1964    0.2721    0.7908 H   0  0  0  0  0  0  0  0  0  0  0  0
    2.0745   -2.6898   -1.3422 H   0  0  0  0  0  0  0  0  0  0  0  0
   -1.7545   -1.0733    2.1269 H   0  0  0  0  0  0  0  0  0  0  0  0
   -4.1051   -0.7930    2.6196 H   0  0  0  0  0  0  0  0  0  0  0  0
   -5.5512    0.4166    0.9500 H   0  0  0  0  0  0  0  0  0  0  0  0
   -2.0705    0.9358   -1.5563 H   0  0  0  0  0  0  0  0  0  0  0  0
  1  2  1  0
  2  3  2  0
  3  4  1  0
  4  5  2  0
  5  6  1  0
  4  7  1  0
  7  8  3  0
  8  9  1  0
  9 10  2  0
 10 11  1  0
 11 12  2  0
 12 13  1  0
 13 14  2  0
 13 15  1  0
 15 16  3  0
  6  2  1  0
 14  9  1  0
  1 17  1  0
  1 18  1  0
  1 19  1  0
  5 20  1  0
 10 21  1  0
 11 22  1  0
 12 23  1  0
 14 24  1  0
M  END
$$$$
[H]OC(=O)c1[se]c(-c2c([H])c([H])c([H])c(C#N)c2[H])nc1C([H])([H])[H]
     RDKit          3D

 25 26  0  0  0  0  0  0  0  0999 V2000
    3.1718   -2.0374   -0.1047 C   0  0  0  0  0  0  0  0  0  0  0  0
    2.1825   -0.8715   -0.0051 C   0  0  0  0  0  0  0  0  0  0  0  0
    0.9411   -1.0247   -0.1026 N   0  0  0  0  0  0  0  0  0  0  0  0
   -0.0875   -0.3674   -0.0743 C   0  0  0  0  0  0  0  0  0  0  0  0
    1.1076    1.5311    0.2629 Se  0  0  0  0  0  2  0  0  0  0  0  0
    2.7701    0.3451    0.2000 C   0  0  0  0  0  0  0  0  0  0  0  0
    4.1261    0.8141    0.3465 C   0  0  0  0  0  0  0  0  0  0  0  0
    4.3491    2.1653    0.5502 O   0  0  0  0  0  0  0  0  0  0  0  0
    5.0692    0.0115    0.2892 O   0  0  0  0  0  0  0  0  0  0  0  0
   -1.4971   -0.1786   -0.1346 C   0  0  0  0  0  0  0  0  0  0  0  0
   -2.3107   -1.3033   -0.3410 C   0  0  0  0  0  0  0  0  0  0  0  0
   -3.6542   -1.1551   -0.4028 C   0  0  0  0  0  0  0  0  0  0  0  0
   -4.2638    0.0845   -0.2679 C   0  0  0  0  0  0  0  0  0  0  0  0
   -3.4909    1.1820   -0.0678 C   0  0  0  0  0  0  0  0  0  0  0  0
   -2.1314    1.0338   -0.0050 C   0  0  0  0  0  0  0  0  0  0  0  0
   -4.0832    2.4916    0.0780 C   0  0  0  0  0  0  0  0  0  0  0  0
   -4.5624    3.5454    0.2155 N   0  0  0  0  0  0  0  0  0  0  0  0
    3.7875   -1.7936   -0.9858 H   0  0  0  0  0  0  0  0  0  0  0  0
    2.6916   -3.0069   -0.1402 H   0  0  0  0  0  0  0  0  0  0  0  0
    3.8265   -2.0430    0.7994 H   0  0  0  0  0  0  0  0  0  0  0  0
    5.0349    2.6816    0.0518 H   0  0  0  0  0  0  0  0  0  0  0  0
   -1.8134   -2.2507   -0.4422 H   0  0  0  0  0  0  0  0  0  0  0  0
   -4.3024   -1.9960   -0.5596 H   0  0  0  0  0  0  0  0  0  0  0  0
   -5.3216    0.1934   -0.3177 H   0  0  0  0  0  0  0  0  0  0  0  0
   -1.5395    1.9489    0.1586 H   0  0  0  0  0  0  0  0  0  0  0  0
  1  2  1  0
  2  3  1  0
  3  4  2  0
  4  5  1  0
  5  6  1  0
  6  7  1  0
  7  8  1  0
  7  9  2  0
  4 10  1  0
 10 11  2  0
 11 12  1  0
 12 13  2  0
 13 14  1  0
 14 15  2  0
 14 16  1  0
 16 17  3  0
  6  2  2  0
 15 10  1  0
  1 18  1  0
  1 19  1  0
  1 20  1  0
  8 21  1  0
 11 22  1  0
 12 23  1  0
 13 24  1  0
 15 25  1  0
M  END
$$$$
