[H]c1c(-c2c([H])c([H])c(F)c(OC3([H])C([H])([H])C3([H])[H])c2[H])nc(C(=O)N([H])[H])nc1C([H])(C([H])([H])[H])C([H])([H])[H]
     RDKit          3D

 41 43  0  0  0  0  0  0  0  0999 V2000
    3.4452    2.7851   -0.6070 C   0  0  0  0  0  0  0  0  0  0  0  0
    2.6647    2.1266    0.5298 C   0  0  0  0  0  0  0  0  0  0  0  0
    3.4301    2.2636    1.8333 C   0  0  0  0  0  0  0  0  0  0  0  0
    2.3640    0.7190    0.2136 C   0  0  0  0  0  0  0  0  0  0  0  0
    1.0397    0.3277    0.1059 C   0  0  0  0  0  0  0  0  0  0  0  0
    0.6638   -0.9683   -0.1869 C   0  0  0  0  0  0  0  0  0  0  0  0
    1.6857   -1.8485   -0.3653 N   0  0  0  0  0  0  0  0  0  0  0  0
    2.9551   -1.4919   -0.2662 C   0  0  0  0  0  0  0  0  0  0  0  0
    3.2920   -0.2181    0.0210 N   0  0  0  0  0  0  0  0  0  0  0  0
    3.9949   -2.5155   -0.4761 C   0  0  0  0  0  0  0  0  0  0  0  0
    3.7058   -3.8652   -0.7792 N   0  0  0  0  0  0  0  0  0  0  0  0
    5.1951   -2.1762   -0.3819 O   0  0  0  0  0  0  0  0  0  0  0  0
   -0.7208   -1.3982   -0.3041 C   0  0  0  0  0  0  0  0  0  0  0  0
   -0.9768   -2.7164   -0.6000 C   0  0  0  0  0  0  0  0  0  0  0  0
   -2.2784   -3.2001   -0.7278 C   0  0  0  0  0  0  0  0  0  0  0  0
   -3.3088   -2.2957   -0.5440 C   0  0  0  0  0  0  0  0  0  0  0  0
   -4.6081   -2.7166   -0.6579 F   0  0  0  0  0  0  0  0  0  0  0  0
   -3.0901   -0.9705   -0.2472 C   0  0  0  0  0  0  0  0  0  0  0  0
   -4.1578   -0.1249   -0.0771 O   0  0  0  0  0  0  0  0  0  0  0  0
   -4.1408    1.2306    0.2232 C   0  0  0  0  0  0  0  0  0  0  0  0
   -5.2668    1.7948    1.0169 C   0  0  0  0  0  0  0  0  0  0  0  0
   -5.2634    2.0063   -0.4783 C   0  0  0  0  0  0  0  0  0  0  0  0
   -1.7736   -0.5323   -0.1293 C   0  0  0  0  0  0  0  0  0  0  0  0
    3.8611    3.7219   -0.2236 H   0  0  0  0  0  0  0  0  0  0  0  0
    2.6997    3.0102   -1.4004 H   0  0  0  0  0  0  0  0  0  0  0  0
    4.2052    2.0963   -1.0201 H   0  0  0  0  0  0  0  0  0  0  0  0
    1.7355    2.7208    0.6463 H   0  0  0  0  0  0  0  0  0  0  0  0
    3.6793    3.3374    1.9399 H   0  0  0  0  0  0  0  0  0  0  0  0
    2.7307    2.0286    2.6693 H   0  0  0  0  0  0  0  0  0  0  0  0
    4.3480    1.6753    1.8566 H   0  0  0  0  0  0  0  0  0  0  0  0
    0.2770    1.0958    0.2636 H   0  0  0  0  0  0  0  0  0  0  0  0
    4.2744   -4.4653   -1.3869 H   0  0  0  0  0  0  0  0  0  0  0  0
    2.8468   -4.2826   -0.3509 H   0  0  0  0  0  0  0  0  0  0  0  0
   -0.1346   -3.3772   -0.7328 H   0  0  0  0  0  0  0  0  0  0  0  0
   -2.4643   -4.2322   -0.9592 H   0  0  0  0  0  0  0  0  0  0  0  0
   -3.1833    1.7432    0.3521 H   0  0  0  0  0  0  0  0  0  0  0  0
   -5.9749    1.0578    1.4291 H   0  0  0  0  0  0  0  0  0  0  0  0
   -5.1551    2.7078    1.6178 H   0  0  0  0  0  0  0  0  0  0  0  0
   -4.9477    2.9760   -0.8864 H   0  0  0  0  0  0  0  0  0  0  0  0
   -6.0283    1.4607   -1.0338 H   0  0  0  0  0  0  0  0  0  0  0  0
   -1.6202    0.5105    0.1040 H   0  0  0  0  0  0  0  0  0  0  0  0
  1  2  1  0
  2  3  1  0
  2  4  1  0
  4  5  2  0
  5  6  1  0
  6  7  2  0
  7  8  1  0
  8  9  2  0
  8 10  1  0
 10 11  1  0
 10 12  2  0
  6 13  1  0
 13 14  2  0
 14 15  1  0
 15 16  2  0
 16 17  1  0
 16 18  1  0
 18 19  1  0
 19 20  1  0
 20 21  1  0
 21 22  1  0
 18 23  2  0
  9  4  1  0
 23 13  1  0
 22 20  1  0
  1 24  1  0
  1 25  1  0
  1 26  1  0
  2 27  1  0
  3 28  1  0
  3 29  1  0
  3 30  1  0
  5 31  1  0
 11 32  1  0
 11 33  1  0
 14 34  1  0
 15 35  1  0
 20 36  1  0
 21 37  1  0
 21 38  1  0
 22 39  1  0
 22 40  1  0
 23 41  1  0
M  END
$$$$
[H]c1nc(C([H])([H])[H])c([H])c(-c2nc(-c3c([H])c([H])c(OC([H])([H])[H])c(OC([H])([H])[H])c3[H])n3c2C([H])([H])C([H])([H])O[C@]([H])(C([H])([H])F)C3([H])[H])c1[H]
     RDKit          3D

 53 56  0  0  0  0  0  0  0  0999 V2000
   -7.0104   -0.2094   -0.9848 C   0  0  0  0  0  0  0  0  0  0  0  0
   -6.0633   -1.0653   -0.4236 O   0  0  0  0  0  0  0  0  0  0  0  0
   -4.6853   -0.7829   -0.4771 C   0  0  0  0  0  0  0  0  0  0  0  0
   -4.2121    0.3538   -1.0876 C   0  0  0  0  0  0  0  0  0  0  0  0
   -2.8480    0.5886   -1.1151 C   0  0  0  0  0  0  0  0  0  0  0  0
   -1.9261   -0.2473   -0.5652 C   0  0  0  0  0  0  0  0  0  0  0  0
   -2.4416   -1.4032    0.0518 C   0  0  0  0  0  0  0  0  0  0  0  0
   -3.7860   -1.6496    0.0865 C   0  0  0  0  0  0  0  0  0  0  0  0
   -4.3206   -2.7938    0.6954 O   0  0  0  0  0  0  0  0  0  0  0  0
   -3.4986   -3.7636    1.3116 C   0  0  0  0  0  0  0  0  0  0  0  0
   -0.4853   -0.0461   -0.4983 C   0  0  0  0  0  0  0  0  0  0  0  0
    0.3634   -1.0871   -0.2028 N   0  0  0  0  0  0  0  0  0  0  0  0
    1.6369   -0.6757   -0.1721 C   0  0  0  0  0  0  0  0  0  0  0  0
    1.6208    0.6662   -0.4546 C   0  0  0  0  0  0  0  0  0  0  0  0
    2.7707    1.5691   -0.5773 C   0  0  0  0  0  0  0  0  0  0  0  0
    2.7214    2.5793    0.5437 C   0  0  0  0  0  0  0  0  0  0  0  0
    1.3969    2.9596    0.6886 O   0  0  0  0  0  0  0  0  0  0  0  0
    0.8367    3.3991   -0.4899 C   0  0  2  0  0  0  0  0  0  0  0  0
    0.1245    4.7094   -0.1524 C   0  0  0  0  0  0  0  0  0  0  0  0
    1.0882    5.5750    0.3276 F   0  0  0  0  0  0  0  0  0  0  0  0
   -0.2137    2.3530   -0.9116 C   0  0  0  0  0  0  0  0  0  0  0  0
    0.2932    1.0220   -0.6474 N   0  0  0  0  0  0  0  0  0  0  0  0
    2.8230   -1.4762    0.0891 C   0  0  0  0  0  0  0  0  0  0  0  0
    2.9874   -2.6578   -0.6074 C   0  0  0  0  0  0  0  0  0  0  0  0
    4.0853   -3.4531   -0.3625 C   0  0  0  0  0  0  0  0  0  0  0  0
    4.9959   -3.1008    0.5388 N   0  0  0  0  0  0  0  0  0  0  0  0
    4.8574   -1.9569    1.2280 C   0  0  0  0  0  0  0  0  0  0  0  0
    5.8568   -1.5483    2.2323 C   0  0  0  0  0  0  0  0  0  0  0  0
    3.7700   -1.1294    1.0131 C   0  0  0  0  0  0  0  0  0  0  0  0
   -7.1429   -0.5072   -2.0497 H   0  0  0  0  0  0  0  0  0  0  0  0
   -7.9843   -0.4095   -0.4742 H   0  0  0  0  0  0  0  0  0  0  0  0
   -6.7967    0.8642   -0.8585 H   0  0  0  0  0  0  0  0  0  0  0  0
   -4.8819    1.0509   -1.5369 H   0  0  0  0  0  0  0  0  0  0  0  0
   -2.5335    1.4797   -1.6444 H   0  0  0  0  0  0  0  0  0  0  0  0
   -1.7659   -2.1356    0.5228 H   0  0  0  0  0  0  0  0  0  0  0  0
   -2.8993   -3.3604    2.1474 H   0  0  0  0  0  0  0  0  0  0  0  0
   -4.1755   -4.5407    1.7235 H   0  0  0  0  0  0  0  0  0  0  0  0
   -2.8542   -4.2331    0.5348 H   0  0  0  0  0  0  0  0  0  0  0  0
    2.7608    2.0929   -1.5701 H   0  0  0  0  0  0  0  0  0  0  0  0
    3.7127    0.9828   -0.4818 H   0  0  0  0  0  0  0  0  0  0  0  0
    3.0473    2.1137    1.4903 H   0  0  0  0  0  0  0  0  0  0  0  0
    3.3467    3.4658    0.3209 H   0  0  0  0  0  0  0  0  0  0  0  0
    1.5081    3.5896   -1.3185 H   0  0  0  0  0  0  0  0  0  0  0  0
   -0.5998    4.5558    0.6716 H   0  0  0  0  0  0  0  0  0  0  0  0
   -0.3339    5.1620   -1.0488 H   0  0  0  0  0  0  0  0  0  0  0  0
   -0.4547    2.4587   -1.9690 H   0  0  0  0  0  0  0  0  0  0  0  0
   -1.1458    2.5543   -0.3165 H   0  0  0  0  0  0  0  0  0  0  0  0
    2.2716   -2.9835   -1.3495 H   0  0  0  0  0  0  0  0  0  0  0  0
    4.1791   -4.3766   -0.9319 H   0  0  0  0  0  0  0  0  0  0  0  0
    5.6675   -2.0777    3.1708 H   0  0  0  0  0  0  0  0  0  0  0  0
    6.8763   -1.8049    1.8866 H   0  0  0  0  0  0  0  0  0  0  0  0
    5.7900   -0.4471    2.4313 H   0  0  0  0  0  0  0  0  0  0  0  0
    3.6704   -0.2230    1.5732 H   0  0  0  0  0  0  0  0  0  0  0  0
  1  2  1  0
  2  3  1  0
  3  4  2  0
  4  5  1  0
  5  6  2  0
  6  7  1  0
  7  8  2  0
  8  9  1  0
  9 10  1  0
  6 11  1  0
 11 12  2  0
 12 13  1  0
 13 14  2  0
 14 15  1  0
 15 16  1  0
 16 17  1  0
 17 18  1  0
 18 19  1  0
 19 20  1  0
 18 21  1  0
 21 22  1  0
 13 23  1  0
 23 24  2  0
 24 25  1  0
 25 26  2  0
 26 27  1  0
 27 28  1  0
 27 29  2  0
  8  3  1  0
 22 11  1  0
 29 23  1  0
 22 14  1  0
  1 30  1  0
  1 31  1  0
  1 32  1  0
  4 33  1  0
  5 34  1  0
  7 35  1  0
 10 36  1  0
 10 37  1  0
 10 38  1  0
 15 39  1  0
 15 40  1  0
 16 41  1  0
 16 42  1  0
 18 43  1  6
 19 44  1  0
 19 45  1  0
 21 46  1  0
 21 47  1  0
 24 48  1  0
 25 49  1  0
 28 50  1  0
 28 51  1  0
 28 52  1  0
 29 53  1  0
M  END
$$$$
[H]c1nc(C([H])([H])[H])c([H])c(-c2nc(-c3c([H])c([H])c(F)c(OC([H])([H])[H])c3[H])n3c2C([H])([H])C([H])([H])O[C@]([H])(C([H])([H])F)C3([H])[H])c1[H]
     RDKit          3D

 49 52  0  0  0  0  0  0  0  0999 V2000
    5.6274   -0.1231   -0.2057 C   0  0  0  0  0  0  0  0  0  0  0  0
    5.4505    1.2239    0.2464 O   0  0  0  0  0  0  0  0  0  0  0  0
    4.1895    1.7447    0.4872 C   0  0  0  0  0  0  0  0  0  0  0  0
    3.0579    0.9437    0.2866 C   0  0  0  0  0  0  0  0  0  0  0  0
    1.8341    1.4684    0.5284 C   0  0  0  0  0  0  0  0  0  0  0  0
    1.7480    2.7827    0.9639 C   0  0  0  0  0  0  0  0  0  0  0  0
    2.8271    3.5737    1.1633 C   0  0  0  0  0  0  0  0  0  0  0  0
    4.0838    3.0460    0.9206 C   0  0  0  0  0  0  0  0  0  0  0  0
    5.1756    3.8380    1.1206 F   0  0  0  0  0  0  0  0  0  0  0  0
    0.5601    0.7168    0.4267 C   0  0  0  0  0  0  0  0  0  0  0  0
   -0.6619    1.3316    0.3436 N   0  0  0  0  0  0  0  0  0  0  0  0
   -1.6604    0.4474    0.2929 C   0  0  0  0  0  0  0  0  0  0  0  0
   -1.0606   -0.7792    0.3460 C   0  0  0  0  0  0  0  0  0  0  0  0
   -1.7995   -2.0806    0.2932 C   0  0  0  0  0  0  0  0  0  0  0  0
   -0.9114   -3.1352   -0.3969 C   0  0  0  0  0  0  0  0  0  0  0  0
   -0.0426   -2.5722   -1.3010 O   0  0  0  0  0  0  0  0  0  0  0  0
    1.2495   -2.3615   -0.8101 C   0  0  2  0  0  0  0  0  0  0  0  0
    2.0348   -3.6356   -0.7160 C   0  0  0  0  0  0  0  0  0  0  0  0
    3.2869   -3.3174   -0.2236 F   0  0  0  0  0  0  0  0  0  0  0  0
    1.1903   -1.6845    0.5591 C   0  0  0  0  0  0  0  0  0  0  0  0
    0.3022   -0.5830    0.4304 N   0  0  0  0  0  0  0  0  0  0  0  0
   -3.0939    0.6789    0.2005 C   0  0  0  0  0  0  0  0  0  0  0  0
   -4.0162    0.0173    0.9697 C   0  0  0  0  0  0  0  0  0  0  0  0
   -5.3742    0.2754    0.8425 C   0  0  0  0  0  0  0  0  0  0  0  0
   -5.8101    1.1829   -0.0413 N   0  0  0  0  0  0  0  0  0  0  0  0
   -4.9495    1.8503   -0.8101 C   0  0  0  0  0  0  0  0  0  0  0  0
   -5.3797    2.8670   -1.8060 C   0  0  0  0  0  0  0  0  0  0  0  0
   -3.5730    1.6039   -0.6967 C   0  0  0  0  0  0  0  0  0  0  0  0
    6.6805   -0.4176   -0.1960 H   0  0  0  0  0  0  0  0  0  0  0  0
    5.2481   -0.1875   -1.2473 H   0  0  0  0  0  0  0  0  0  0  0  0
    5.0318   -0.7807    0.4631 H   0  0  0  0  0  0  0  0  0  0  0  0
    3.2096   -0.0507   -0.0875 H   0  0  0  0  0  0  0  0  0  0  0  0
    0.7534    3.2312    1.1666 H   0  0  0  0  0  0  0  0  0  0  0  0
    2.6866    4.5900    1.5052 H   0  0  0  0  0  0  0  0  0  0  0  0
   -2.7457   -1.9694   -0.2648 H   0  0  0  0  0  0  0  0  0  0  0  0
   -2.0565   -2.4617    1.3010 H   0  0  0  0  0  0  0  0  0  0  0  0
   -0.4715   -3.8363    0.3163 H   0  0  0  0  0  0  0  0  0  0  0  0
   -1.6220   -3.7645   -1.0133 H   0  0  0  0  0  0  0  0  0  0  0  0
    1.7627   -1.6996   -1.5362 H   0  0  0  0  0  0  0  0  0  0  0  0
    1.5602   -4.3248    0.0230 H   0  0  0  0  0  0  0  0  0  0  0  0
    2.1012   -4.0839   -1.7247 H   0  0  0  0  0  0  0  0  0  0  0  0
    0.7021   -2.4776    1.2568 H   0  0  0  0  0  0  0  0  0  0  0  0
    2.1621   -1.5651    0.9660 H   0  0  0  0  0  0  0  0  0  0  0  0
   -3.7191   -0.7210    1.6944 H   0  0  0  0  0  0  0  0  0  0  0  0
   -6.1066   -0.2456    1.4488 H   0  0  0  0  0  0  0  0  0  0  0  0
   -4.5920    3.5871   -2.0452 H   0  0  0  0  0  0  0  0  0  0  0  0
   -5.7061    2.3005   -2.7065 H   0  0  0  0  0  0  0  0  0  0  0  0
   -6.2669    3.3980   -1.4018 H   0  0  0  0  0  0  0  0  0  0  0  0
   -2.8967    2.1588   -1.3320 H   0  0  0  0  0  0  0  0  0  0  0  0
  1  2  1  0
  2  3  1  0
  3  4  2  0
  4  5  1  0
  5  6  2  0
  6  7  1  0
  7  8  2  0
  8  9  1  0
  5 10  1  0
 10 11  2  0
 11 12  1  0
 12 13  2  0
 13 14  1  0
 14 15  1  0
 15 16  1  0
 16 17  1  0
 17 18  1  0
 18 19  1  0
 17 20  1  0
 20 21  1  0
 12 22  1  0
 22 23  2  0
 23 24  1  0
 24 25  2  0
 25 26  1  0
 26 27  1  0
 26 28  2  0
  8  3  1  0
 21 10  1  0
 28 22  1  0
 21 13  1  0
  1 29  1  0
  1 30  1  0
  1 31  1  0
  4 32  1  0
  6 33  1  0
  7 34  1  0
 14 35  1  0
 14 36  1  0
 15 37  1  0
 15 38  1  0
 17 39  1  6
 18 40  1  0
 18 41  1  0
 20 42  1  0
 20 43  1  0
 23 44  1  0
 24 45  1  0
 27 46  1  0
 27 47  1  0
 27 48  1  0
 28 49  1  0
M  END
$$$$
[H]c1nc(C([H])([H])[H])nc([H])c1C([H])([H])C([H])([H])c1c([H])c([H])c2c(-c3c([H])c([H])c(F)c(C([H])([H])[H])c3[H])c([H])c(C(=O)N([H])[H])nc2c1[H]
     RDKit          3D

 51 54  0  0  0  0  0  0  0  0999 V2000
   -4.8809    3.3867   -1.0908 C   0  0  0  0  0  0  0  0  0  0  0  0
   -4.8929    2.2218   -0.1587 C   0  0  0  0  0  0  0  0  0  0  0  0
   -3.9354    1.2436   -0.2627 C   0  0  0  0  0  0  0  0  0  0  0  0
   -3.8666    0.1366    0.5495 C   0  0  0  0  0  0  0  0  0  0  0  0
   -4.8736    0.0690    1.5259 C   0  0  0  0  0  0  0  0  0  0  0  0
   -5.8440    1.0395    1.6478 C   0  0  0  0  0  0  0  0  0  0  0  0
   -5.8688    2.1318    0.8069 C   0  0  0  0  0  0  0  0  0  0  0  0
   -6.7927    3.1053    0.8839 F   0  0  0  0  0  0  0  0  0  0  0  0
   -2.8622   -0.8975    0.4466 C   0  0  0  0  0  0  0  0  0  0  0  0
   -3.2301   -2.2373    0.2250 C   0  0  0  0  0  0  0  0  0  0  0  0
   -2.3124   -3.2375    0.0827 C   0  0  0  0  0  0  0  0  0  0  0  0
   -1.0188   -2.9169    0.1593 N   0  0  0  0  0  0  0  0  0  0  0  0
   -0.5787   -1.6497    0.3716 C   0  0  0  0  0  0  0  0  0  0  0  0
    0.7689   -1.3794    0.4525 C   0  0  0  0  0  0  0  0  0  0  0  0
    1.2622   -0.1142    0.6782 C   0  0  0  0  0  0  0  0  0  0  0  0
    2.7204    0.0868    0.7499 C   0  0  0  0  0  0  0  0  0  0  0  0
    3.3174    0.3971   -0.6069 C   0  0  0  0  0  0  0  0  0  0  0  0
    4.7827    0.5841   -0.4433 C   0  0  0  0  0  0  0  0  0  0  0  0
    5.3110    1.8424   -0.1729 C   0  0  0  0  0  0  0  0  0  0  0  0
    6.6350    2.0222   -0.0232 N   0  0  0  0  0  0  0  0  0  0  0  0
    7.4965    0.9888   -0.1300 C   0  0  0  0  0  0  0  0  0  0  0  0
    8.9719    1.2046    0.0396 C   0  0  0  0  0  0  0  0  0  0  0  0
    6.9856   -0.2211   -0.3903 N   0  0  0  0  0  0  0  0  0  0  0  0
    5.6789   -0.4592   -0.5488 C   0  0  0  0  0  0  0  0  0  0  0  0
    0.3386    0.8918    0.8234 C   0  0  0  0  0  0  0  0  0  0  0  0
   -1.0375    0.6258    0.7422 C   0  0  0  0  0  0  0  0  0  0  0  0
   -1.5266   -0.6283    0.5171 C   0  0  0  0  0  0  0  0  0  0  0  0
   -2.6717   -4.6328   -0.1477 C   0  0  0  0  0  0  0  0  0  0  0  0
   -4.0484   -4.9746   -0.2292 N   0  0  0  0  0  0  0  0  0  0  0  0
   -1.7998   -5.5244   -0.2736 O   0  0  0  0  0  0  0  0  0  0  0  0
   -4.0684    4.0752   -0.7699 H   0  0  0  0  0  0  0  0  0  0  0  0
   -4.7660    3.0644   -2.1452 H   0  0  0  0  0  0  0  0  0  0  0  0
   -5.8343    3.9253   -1.0119 H   0  0  0  0  0  0  0  0  0  0  0  0
   -3.1756    1.3536   -1.0461 H   0  0  0  0  0  0  0  0  0  0  0  0
   -4.8648   -0.7790    2.1883 H   0  0  0  0  0  0  0  0  0  0  0  0
   -6.6261    0.9974    2.3980 H   0  0  0  0  0  0  0  0  0  0  0  0
   -4.2804   -2.4555    0.1697 H   0  0  0  0  0  0  0  0  0  0  0  0
    1.4547   -2.2365    0.3265 H   0  0  0  0  0  0  0  0  0  0  0  0
    2.9526    0.8889    1.4836 H   0  0  0  0  0  0  0  0  0  0  0  0
    3.1723   -0.8414    1.1546 H   0  0  0  0  0  0  0  0  0  0  0  0
    2.8455    1.2460   -1.0979 H   0  0  0  0  0  0  0  0  0  0  0  0
    3.1559   -0.5035   -1.2420 H   0  0  0  0  0  0  0  0  0  0  0  0
    4.6505    2.6958   -0.0801 H   0  0  0  0  0  0  0  0  0  0  0  0
    9.5408    0.7595   -0.8073 H   0  0  0  0  0  0  0  0  0  0  0  0
    9.3347    0.8095    1.0101 H   0  0  0  0  0  0  0  0  0  0  0  0
    9.1574    2.2982    0.0003 H   0  0  0  0  0  0  0  0  0  0  0  0
    5.2843   -1.4581   -0.7613 H   0  0  0  0  0  0  0  0  0  0  0  0
    0.6744    1.8892    1.0005 H   0  0  0  0  0  0  0  0  0  0  0  0
   -1.7215    1.4420    0.8775 H   0  0  0  0  0  0  0  0  0  0  0  0
   -4.8050   -4.5271    0.3058 H   0  0  0  0  0  0  0  0  0  0  0  0
   -4.3086   -5.7488   -0.8923 H   0  0  0  0  0  0  0  0  0  0  0  0
  1  2  1  0
  2  3  2  0
  3  4  1  0
  4  5  2  0
  5  6  1  0
  6  7  2  0
  7  8  1  0
  4  9  1  0
  9 10  2  0
 10 11  1  0
 11 12  2  0
 12 13  1  0
 13 14  2  0
 14 15  1  0
 15 16  1  0
 16 17  1  0
 17 18  1  0
 18 19  2  0
 19 20  1  0
 20 21  2  0
 21 22  1  0
 21 23  1  0
 23 24  2  0
 15 25  2  0
 25 26  1  0
 26 27  2  0
 11 28  1  0
 28 29  1  0
 28 30  2  0
  7  2  1  0
 27  9  1  0
 27 13  1  0
 24 18  1  0
  1 31  1  0
  1 32  1  0
  1 33  1  0
  3 34  1  0
  5 35  1  0
  6 36  1  0
 10 37  1  0
 14 38  1  0
 16 39  1  0
 16 40  1  0
 17 41  1  0
 17 42  1  0
 19 43  1  0
 22 44  1  0
 22 45  1  0
 22 46  1  0
 24 47  1  0
 25 48  1  0
 26 49  1  0
 29 50  1  0
 29 51  1  0
M  END
$$$$
[H]c1c([H])c(C2=C(c3c([H])c(C([H])([H])[H])c4nnc(C([H])([H])[H])n4c3[H])C(=O)N([H])C2=O)c(C2([H])C([H])([H])C2([H])[H])c([H])c1F
     RDKit          3D

 45 49  0  0  0  0  0  0  0  0999 V2000
    3.3157   -1.3886   -2.6630 C   0  0  0  0  0  0  0  0  0  0  0  0
    3.4195   -1.2945   -1.1874 C   0  0  0  0  0  0  0  0  0  0  0  0
    4.3421   -1.9837   -0.4603 N   0  0  0  0  0  0  0  0  0  0  0  0
    4.1697   -1.6805    0.8022 N   0  0  0  0  0  0  0  0  0  0  0  0
    3.1426   -0.8045    0.8671 C   0  0  0  0  0  0  0  0  0  0  0  0
    2.5920   -0.1974    1.9767 C   0  0  0  0  0  0  0  0  0  0  0  0
    3.1378   -0.4917    3.3485 C   0  0  0  0  0  0  0  0  0  0  0  0
    1.5566    0.6548    1.7688 C   0  0  0  0  0  0  0  0  0  0  0  0
    1.0269    0.9436    0.5026 C   0  0  0  0  0  0  0  0  0  0  0  0
    1.6164    0.3103   -0.5606 C   0  0  0  0  0  0  0  0  0  0  0  0
    2.6608   -0.5507   -0.3626 N   0  0  0  0  0  0  0  0  0  0  0  0
   -0.0820    1.8888    0.3720 C   0  0  0  0  0  0  0  0  0  0  0  0
   -1.1717    1.8156   -0.3442 C   0  0  0  0  0  0  0  0  0  0  0  0
   -1.9560    3.0616   -0.1066 C   0  0  0  0  0  0  0  0  0  0  0  0
   -3.0635    3.3414   -0.6302 O   0  0  0  0  0  0  0  0  0  0  0  0
   -1.2575    3.8892    0.8065 N   0  0  0  0  0  0  0  0  0  0  0  0
   -0.0752    3.1781    1.1246 C   0  0  0  0  0  0  0  0  0  0  0  0
    0.8081    3.5861    1.9069 O   0  0  0  0  0  0  0  0  0  0  0  0
   -1.6019    0.7124   -1.1823 C   0  0  0  0  0  0  0  0  0  0  0  0
   -1.6010    0.8991   -2.5753 C   0  0  0  0  0  0  0  0  0  0  0  0
   -2.0212   -0.0691   -3.4460 C   0  0  0  0  0  0  0  0  0  0  0  0
   -2.4597   -1.2634   -2.9672 C   0  0  0  0  0  0  0  0  0  0  0  0
   -2.8874   -2.2585   -3.8054 F   0  0  0  0  0  0  0  0  0  0  0  0
   -2.4655   -1.4540   -1.6079 C   0  0  0  0  0  0  0  0  0  0  0  0
   -2.0460   -0.4907   -0.6893 C   0  0  0  0  0  0  0  0  0  0  0  0
   -2.1691   -0.8038    0.7610 C   0  0  0  0  0  0  0  0  0  0  0  0
   -2.7107   -2.0786    1.2136 C   0  0  0  0  0  0  0  0  0  0  0  0
   -3.5689   -0.8205    1.2909 C   0  0  0  0  0  0  0  0  0  0  0  0
    2.2723   -1.1964   -2.9896 H   0  0  0  0  0  0  0  0  0  0  0  0
    3.6741   -2.3955   -2.9573 H   0  0  0  0  0  0  0  0  0  0  0  0
    4.0375   -0.6650   -3.1144 H   0  0  0  0  0  0  0  0  0  0  0  0
    4.1525   -0.8919    3.2719 H   0  0  0  0  0  0  0  0  0  0  0  0
    3.1854    0.4816    3.8797 H   0  0  0  0  0  0  0  0  0  0  0  0
    2.4524   -1.1532    3.9180 H   0  0  0  0  0  0  0  0  0  0  0  0
    1.1077    1.1410    2.6146 H   0  0  0  0  0  0  0  0  0  0  0  0
    1.2792    0.4780   -1.5660 H   0  0  0  0  0  0  0  0  0  0  0  0
   -1.5661    4.8211    1.1545 H   0  0  0  0  0  0  0  0  0  0  0  0
   -1.2611    1.8354   -3.0065 H   0  0  0  0  0  0  0  0  0  0  0  0
   -2.0063    0.1117   -4.5002 H   0  0  0  0  0  0  0  0  0  0  0  0
   -2.8095   -2.3953   -1.2506 H   0  0  0  0  0  0  0  0  0  0  0  0
   -1.4603   -0.3046    1.4738 H   0  0  0  0  0  0  0  0  0  0  0  0
   -3.1749   -2.8621    0.6212 H   0  0  0  0  0  0  0  0  0  0  0  0
   -2.3323   -2.4871    2.2000 H   0  0  0  0  0  0  0  0  0  0  0  0
   -4.4122   -0.6893    0.5855 H   0  0  0  0  0  0  0  0  0  0  0  0
   -3.7894   -0.4792    2.3153 H   0  0  0  0  0  0  0  0  0  0  0  0
  1  2  1  0
  2  3  2  0
  3  4  1  0
  4  5  2  0
  5  6  1  0
  6  7  1  0
  6  8  2  0
  8  9  1  0
  9 10  2  0
 10 11  1  0
  9 12  1  0
 12 13  2  0
 13 14  1  0
 14 15  2  0
 14 16  1  0
 16 17  1  0
 17 18  2  0
 13 19  1  0
 19 20  2  0
 20 21  1  0
 21 22  2  0
 22 23  1  0
 22 24  1  0
 24 25  2  0
 25 26  1  0
 26 27  1  0
 27 28  1  0
 11  2  1  0
 17 12  1  0
 25 19  1  0
 28 26  1  0
 11  5  1  0
  1 29  1  0
  1 30  1  0
  1 31  1  0
  7 32  1  0
  7 33  1  0
  7 34  1  0
  8 35  1  0
 10 36  1  0
 16 37  1  0
 20 38  1  0
 21 39  1  0
 24 40  1  0
 26 41  1  0
 27 42  1  0
 27 43  1  0
 28 44  1  0
 28 45  1  0
M  END
$$$$
[H]c1c([H])c(-c2nc3c(c([H])c2C([H])([H])[H])C([H])(C([H])([H])[H])C([H])([H])C(=O)N3C([H])([H])[H])c([H])c(OC([H])(C([H])([H])[H])C([H])([H])[H])c1C#N
     RDKit          3D

 49 51  0  0  0  0  0  0  0  0999 V2000
    5.2875    2.5493    0.6798 C   0  0  0  0  0  0  0  0  0  0  0  0
    5.1640    1.0974    0.1902 C   0  0  0  0  0  0  0  0  0  0  0  0
    5.6426    1.1711   -1.2852 C   0  0  0  0  0  0  0  0  0  0  0  0
    3.9461    0.5971    0.2076 O   0  0  0  0  0  0  0  0  0  0  0  0
    3.0652   -0.3123    0.5420 C   0  0  0  0  0  0  0  0  0  0  0  0
    1.7185   -0.1749    0.1555 C   0  0  0  0  0  0  0  0  0  0  0  0
    0.7291   -1.0682    0.4557 C   0  0  0  0  0  0  0  0  0  0  0  0
    1.0757   -2.1828    1.1899 C   0  0  0  0  0  0  0  0  0  0  0  0
    2.3817   -2.3537    1.5867 C   0  0  0  0  0  0  0  0  0  0  0  0
    3.3734   -1.4377    1.2733 C   0  0  0  0  0  0  0  0  0  0  0  0
    4.6999   -1.7405    1.7523 C   0  0  0  0  0  0  0  0  0  0  0  0
    5.7514   -2.0047    2.1461 N   0  0  0  0  0  0  0  0  0  0  0  0
   -0.6555   -0.8523    0.0420 C   0  0  0  0  0  0  0  0  0  0  0  0
   -1.1844    0.3516    0.2999 N   0  0  0  0  0  0  0  0  0  0  0  0
   -2.4548    0.6510   -0.0560 C   0  0  0  0  0  0  0  0  0  0  0  0
   -2.9468    1.9537    0.2530 N   0  0  0  0  0  0  0  0  0  0  0  0
   -2.0803    2.9023    0.9290 C   0  0  0  0  0  0  0  0  0  0  0  0
   -4.2745    2.2621   -0.1204 C   0  0  0  0  0  0  0  0  0  0  0  0
   -4.6320    3.4530   -0.2171 O   0  0  0  0  0  0  0  0  0  0  0  0
   -5.2270    1.1775   -0.3928 C   0  0  0  0  0  0  0  0  0  0  0  0
   -4.6491    0.0054   -1.1082 C   0  0  0  0  0  0  0  0  0  0  0  0
   -5.4910   -1.2251   -0.7758 C   0  0  0  0  0  0  0  0  0  0  0  0
   -3.2502   -0.2743   -0.6977 C   0  0  0  0  0  0  0  0  0  0  0  0
   -2.6858   -1.5128   -0.9559 C   0  0  0  0  0  0  0  0  0  0  0  0
   -1.3806   -1.8037   -0.5843 C   0  0  0  0  0  0  0  0  0  0  0  0
   -0.8334   -3.1326   -0.9046 C   0  0  0  0  0  0  0  0  0  0  0  0
    5.2602    2.5675    1.7724 H   0  0  0  0  0  0  0  0  0  0  0  0
    6.2738    2.8987    0.3098 H   0  0  0  0  0  0  0  0  0  0  0  0
    4.5210    3.1645    0.1877 H   0  0  0  0  0  0  0  0  0  0  0  0
    5.9487    0.5198    0.7076 H   0  0  0  0  0  0  0  0  0  0  0  0
    4.7923    1.5611   -1.8723 H   0  0  0  0  0  0  0  0  0  0  0  0
    6.4734    1.8721   -1.3694 H   0  0  0  0  0  0  0  0  0  0  0  0
    5.8477    0.1469   -1.6141 H   0  0  0  0  0  0  0  0  0  0  0  0
    1.4535    0.6967   -0.4169 H   0  0  0  0  0  0  0  0  0  0  0  0
    0.3393   -2.9152    1.4622 H   0  0  0  0  0  0  0  0  0  0  0  0
    2.6223   -3.2416    2.1631 H   0  0  0  0  0  0  0  0  0  0  0  0
   -2.6852    3.5488    1.6020 H   0  0  0  0  0  0  0  0  0  0  0  0
   -1.6161    3.5361    0.1410 H   0  0  0  0  0  0  0  0  0  0  0  0
   -1.3112    2.3386    1.4966 H   0  0  0  0  0  0  0  0  0  0  0  0
   -5.6273    0.8124    0.5913 H   0  0  0  0  0  0  0  0  0  0  0  0
   -6.0776    1.5874   -0.9990 H   0  0  0  0  0  0  0  0  0  0  0  0
   -4.7096    0.1816   -2.2124 H   0  0  0  0  0  0  0  0  0  0  0  0
   -5.4535   -1.9581   -1.6096 H   0  0  0  0  0  0  0  0  0  0  0  0
   -6.5256   -0.9330   -0.5293 H   0  0  0  0  0  0  0  0  0  0  0  0
   -5.0319   -1.7060    0.1068 H   0  0  0  0  0  0  0  0  0  0  0  0
   -3.2984   -2.2441   -1.4571 H   0  0  0  0  0  0  0  0  0  0  0  0
   -1.1696   -3.8486   -0.1099 H   0  0  0  0  0  0  0  0  0  0  0  0
   -1.3554   -3.5193   -1.8389 H   0  0  0  0  0  0  0  0  0  0  0  0
    0.2396   -3.1623   -1.1165 H   0  0  0  0  0  0  0  0  0  0  0  0
  1  2  1  0
  2  3  1  0
  2  4  1  0
  4  5  1  0
  5  6  2  0
  6  7  1  0
  7  8  2  0
  8  9  1  0
  9 10  2  0
 10 11  1  0
 11 12  3  0
  7 13  1  0
 13 14  2  0
 14 15  1  0
 15 16  1  0
 16 17  1  0
 16 18  1  0
 18 19  2  0
 18 20  1  0
 20 21  1  0
 21 22  1  0
 21 23  1  0
 23 24  1  0
 24 25  2  0
 25 26  1  0
 10  5  1  0
 25 13  1  0
 23 15  2  0
  1 27  1  0
  1 28  1  0
  1 29  1  0
  2 30  1  0
  3 31  1  0
  3 32  1  0
  3 33  1  0
  6 34  1  0
  8 35  1  0
  9 36  1  0
 17 37  1  0
 17 38  1  0
 17 39  1  0
 20 40  1  0
 20 41  1  0
 21 42  1  0
 22 43  1  0
 22 44  1  0
 22 45  1  0
 24 46  1  0
 26 47  1  0
 26 48  1  0
 26 49  1  0
M  END
$$$$
[H]O[C@@]1([H])C([H])([H])C([H])([H])N(C([H])([H])c2c([H])c([H])c3c(-c4c([H])nn(C([H])([H])[H])c4[H])c([H])c(C(=O)N([H])[H])nc3c2[H])C([H])([H])[C@@]1([H])C([H])([H])[H]
     RDKit          3D

 53 56  0  0  0  0  0  0  0  0999 V2000
   -5.1956    2.6378    0.0632 C   0  0  0  0  0  0  0  0  0  0  0  0
   -4.4751    1.4225    0.6381 C   0  0  2  0  0  0  0  0  0  0  0  0
   -3.1261    1.2510    0.0027 C   0  0  0  0  0  0  0  0  0  0  0  0
   -3.0878    0.3650   -1.0989 N   0  0  0  0  0  0  0  0  0  0  0  0
   -2.3348   -0.8279   -0.9513 C   0  0  0  0  0  0  0  0  0  0  0  0
   -0.9024   -0.6688   -0.6913 C   0  0  0  0  0  0  0  0  0  0  0  0
   -0.1972    0.4967   -0.7763 C   0  0  0  0  0  0  0  0  0  0  0  0
    1.1784    0.5530   -0.5034 C   0  0  0  0  0  0  0  0  0  0  0  0
    1.8339   -0.5994   -0.1395 C   0  0  0  0  0  0  0  0  0  0  0  0
    3.1811   -0.6083    0.1323 C   0  0  0  0  0  0  0  0  0  0  0  0
    3.8001   -1.8258    0.4901 C   0  0  0  0  0  0  0  0  0  0  0  0
    3.0932   -2.9747    0.5702 C   0  0  0  0  0  0  0  0  0  0  0  0
    1.7810   -2.9474    0.3033 N   0  0  0  0  0  0  0  0  0  0  0  0
    1.1464   -1.8169   -0.0414 C   0  0  0  0  0  0  0  0  0  0  0  0
   -0.1956   -1.7977   -0.3223 C   0  0  0  0  0  0  0  0  0  0  0  0
    3.7660   -4.2271    0.9454 C   0  0  0  0  0  0  0  0  0  0  0  0
    5.1469   -4.2178    1.2189 N   0  0  0  0  0  0  0  0  0  0  0  0
    3.0859   -5.2785    1.0121 O   0  0  0  0  0  0  0  0  0  0  0  0
    3.9845    0.6025    0.0983 C   0  0  0  0  0  0  0  0  0  0  0  0
    3.8036    1.7887    0.7532 C   0  0  0  0  0  0  0  0  0  0  0  0
    4.8136    2.5971    0.3939 N   0  0  0  0  0  0  0  0  0  0  0  0
    5.6317    2.0105   -0.4479 N   0  0  0  0  0  0  0  0  0  0  0  0
    6.8432    2.5661   -1.0626 C   0  0  0  0  0  0  0  0  0  0  0  0
    5.1392    0.7716   -0.6474 C   0  0  0  0  0  0  0  0  0  0  0  0
   -4.2842    0.2397   -1.8571 C   0  0  0  0  0  0  0  0  0  0  0  0
   -5.5150   -0.0041   -1.0420 C   0  0  0  0  0  0  0  0  0  0  0  0
   -5.2895    0.1855    0.4352 C   0  0  2  0  0  0  0  0  0  0  0  0
   -6.5604    0.3388    1.0324 O   0  0  0  0  0  0  0  0  0  0  0  0
   -4.9888    3.5397    0.6584 H   0  0  0  0  0  0  0  0  0  0  0  0
   -6.2675    2.4401    0.0369 H   0  0  0  0  0  0  0  0  0  0  0  0
   -4.8689    2.8519   -0.9722 H   0  0  0  0  0  0  0  0  0  0  0  0
   -4.4055    1.6060    1.7321 H   0  0  0  0  0  0  0  0  0  0  0  0
   -2.8091    2.2769   -0.3460 H   0  0  0  0  0  0  0  0  0  0  0  0
   -2.4031    0.9664    0.7949 H   0  0  0  0  0  0  0  0  0  0  0  0
   -2.7358   -1.5326   -0.1945 H   0  0  0  0  0  0  0  0  0  0  0  0
   -2.4214   -1.3884   -1.9287 H   0  0  0  0  0  0  0  0  0  0  0  0
   -0.6962    1.3891   -1.0584 H   0  0  0  0  0  0  0  0  0  0  0  0
    1.7058    1.4900   -0.5925 H   0  0  0  0  0  0  0  0  0  0  0  0
    4.8746   -1.7721    0.6940 H   0  0  0  0  0  0  0  0  0  0  0  0
   -0.7195   -2.7529   -0.2419 H   0  0  0  0  0  0  0  0  0  0  0  0
    5.4942   -3.8028    2.0985 H   0  0  0  0  0  0  0  0  0  0  0  0
    5.8066   -4.6266    0.5377 H   0  0  0  0  0  0  0  0  0  0  0  0
    3.0128    2.0419    1.4277 H   0  0  0  0  0  0  0  0  0  0  0  0
    7.6949    1.8785   -0.8658 H   0  0  0  0  0  0  0  0  0  0  0  0
    7.0891    3.5145   -0.5418 H   0  0  0  0  0  0  0  0  0  0  0  0
    6.7036    2.7382   -2.1371 H   0  0  0  0  0  0  0  0  0  0  0  0
    5.6172    0.0583   -1.3036 H   0  0  0  0  0  0  0  0  0  0  0  0
   -4.1597   -0.6562   -2.5319 H   0  0  0  0  0  0  0  0  0  0  0  0
   -4.4157    1.1016   -2.5741 H   0  0  0  0  0  0  0  0  0  0  0  0
   -6.2843    0.7511   -1.3459 H   0  0  0  0  0  0  0  0  0  0  0  0
   -5.9771   -0.9911   -1.2053 H   0  0  0  0  0  0  0  0  0  0  0  0
   -4.8202   -0.6688    0.9302 H   0  0  0  0  0  0  0  0  0  0  0  0
   -7.0914   -0.4848    0.8919 H   0  0  0  0  0  0  0  0  0  0  0  0
  1  2  1  0
  2  3  1  0
  3  4  1  0
  4  5  1  0
  5  6  1  0
  6  7  2  0
  7  8  1  0
  8  9  2  0
  9 10  1  0
 10 11  2  0
 11 12  1  0
 12 13  2  0
 13 14  1  0
 14 15  2  0
 12 16  1  0
 16 17  1  0
 16 18  2  0
 10 19  1  0
 19 20  1  0
 20 21  2  0
 21 22  1  0
 22 23  1  0
 22 24  1  0
  4 25  1  0
 25 26  1  0
 26 27  1  0
 27 28  1  0
 27  2  1  0
 15  6  1  0
 24 19  2  0
 14  9  1  0
  1 29  1  0
  1 30  1  0
  1 31  1  0
  2 32  1  1
  3 33  1  0
  3 34  1  0
  5 35  1  0
  5 36  1  0
  7 37  1  0
  8 38  1  0
 11 39  1  0
 15 40  1  0
 17 41  1  0
 17 42  1  0
 20 43  1  0
 23 44  1  0
 23 45  1  0
 23 46  1  0
 24 47  1  0
 25 48  1  0
 25 49  1  0
 26 50  1  0
 26 51  1  0
 27 52  1  1
 28 53  1  0
M  END
$$$$
[H]c1nc(Oc2c([H])c([H])c([H])c([H])c2[H])c([H])c([H])c1N1C([H])([H])C([H])([H])N(c2c([H])c([H])c([H])c(C#N)c2[H])[C@]([H])(C([H])([H])[H])C1([H])[H]
     RDKit          3D

 50 53  0  0  0  0  0  0  0  0999 V2000
    3.3727    1.7482    1.6329 C   0  0  0  0  0  0  0  0  0  0  0  0
    2.5559    1.2730    0.4185 C   0  0  2  0  0  0  0  0  0  0  0  0
    1.1084    1.3967    0.7129 C   0  0  0  0  0  0  0  0  0  0  0  0
    0.2723    0.3550    0.1940 N   0  0  0  0  0  0  0  0  0  0  0  0
    0.7908   -0.8692   -0.3795 C   0  0  0  0  0  0  0  0  0  0  0  0
    2.1773   -1.1656    0.1546 C   0  0  0  0  0  0  0  0  0  0  0  0
    3.0486   -0.0173    0.0830 N   0  0  0  0  0  0  0  0  0  0  0  0
    4.3813   -0.1880   -0.3268 C   0  0  0  0  0  0  0  0  0  0  0  0
    5.1795    0.9113   -0.6546 C   0  0  0  0  0  0  0  0  0  0  0  0
    6.4924    0.7995   -1.0518 C   0  0  0  0  0  0  0  0  0  0  0  0
    7.0811   -0.4241   -1.1432 C   0  0  0  0  0  0  0  0  0  0  0  0
    6.3446   -1.5474   -0.8327 C   0  0  0  0  0  0  0  0  0  0  0  0
    5.0107   -1.4153   -0.4304 C   0  0  0  0  0  0  0  0  0  0  0  0
    6.9623   -2.8280   -0.9290 C   0  0  0  0  0  0  0  0  0  0  0  0
    7.4561   -3.8769   -1.0019 N   0  0  0  0  0  0  0  0  0  0  0  0
   -1.1358    0.5365    0.2516 C   0  0  0  0  0  0  0  0  0  0  0  0
   -2.0352   -0.3524   -0.3188 C   0  0  0  0  0  0  0  0  0  0  0  0
   -3.3868   -0.0969   -0.2085 C   0  0  0  0  0  0  0  0  0  0  0  0
   -3.9037    0.9998    0.4410 C   0  0  0  0  0  0  0  0  0  0  0  0
   -5.2675    1.2509    0.5482 O   0  0  0  0  0  0  0  0  0  0  0  0
   -6.2049    0.4088    0.0050 C   0  0  0  0  0  0  0  0  0  0  0  0
   -6.6785   -0.6236    0.8001 C   0  0  0  0  0  0  0  0  0  0  0  0
   -7.6216   -1.5015    0.3075 C   0  0  0  0  0  0  0  0  0  0  0  0
   -8.0578   -1.2969   -0.9960 C   0  0  0  0  0  0  0  0  0  0  0  0
   -7.5810   -0.2676   -1.7785 C   0  0  0  0  0  0  0  0  0  0  0  0
   -6.6326    0.6106   -1.2750 C   0  0  0  0  0  0  0  0  0  0  0  0
   -3.0189    1.8500    0.9874 N   0  0  0  0  0  0  0  0  0  0  0  0
   -1.6824    1.6236    0.8943 C   0  0  0  0  0  0  0  0  0  0  0  0
    3.7401    2.7835    1.4853 H   0  0  0  0  0  0  0  0  0  0  0  0
    4.1868    1.0679    1.8793 H   0  0  0  0  0  0  0  0  0  0  0  0
    2.6894    1.7836    2.5034 H   0  0  0  0  0  0  0  0  0  0  0  0
    2.7789    2.0162   -0.4037 H   0  0  0  0  0  0  0  0  0  0  0  0
    0.9764    1.4723    1.8137 H   0  0  0  0  0  0  0  0  0  0  0  0
    0.6822    2.3650    0.3115 H   0  0  0  0  0  0  0  0  0  0  0  0
    0.8305   -0.8624   -1.4786 H   0  0  0  0  0  0  0  0  0  0  0  0
    0.1610   -1.7547   -0.0860 H   0  0  0  0  0  0  0  0  0  0  0  0
    2.0514   -1.5295    1.2050 H   0  0  0  0  0  0  0  0  0  0  0  0
    2.5249   -2.0366   -0.4467 H   0  0  0  0  0  0  0  0  0  0  0  0
    4.7836    1.9070   -0.6084 H   0  0  0  0  0  0  0  0  0  0  0  0
    7.0772    1.6884   -1.2980 H   0  0  0  0  0  0  0  0  0  0  0  0
    8.1138   -0.4783   -1.4582 H   0  0  0  0  0  0  0  0  0  0  0  0
    4.4715   -2.3184   -0.1920 H   0  0  0  0  0  0  0  0  0  0  0  0
   -1.6384   -1.2115   -0.8296 H   0  0  0  0  0  0  0  0  0  0  0  0
   -4.0931   -0.7849   -0.6502 H   0  0  0  0  0  0  0  0  0  0  0  0
   -6.3135   -0.7480    1.8086 H   0  0  0  0  0  0  0  0  0  0  0  0
   -8.0181   -2.3236    0.8984 H   0  0  0  0  0  0  0  0  0  0  0  0
   -8.7970   -1.9850   -1.3819 H   0  0  0  0  0  0  0  0  0  0  0  0
   -7.9284   -0.1196   -2.7906 H   0  0  0  0  0  0  0  0  0  0  0  0
   -6.2609    1.4147   -1.8880 H   0  0  0  0  0  0  0  0  0  0  0  0
   -1.0459    2.3611    1.3657 H   0  0  0  0  0  0  0  0  0  0  0  0
  1  2  1  0
  2  3  1  0
  3  4  1  0
  4  5  1  0
  5  6  1  0
  6  7  1  0
  7  8  1  0
  8  9  2  0
  9 10  1  0
 10 11  2  0
 11 12  1  0
 12 13  2  0
 12 14  1  0
 14 15  3  0
  4 16  1  0
 16 17  2  0
 17 18  1  0
 18 19  2  0
 19 20  1  0
 20 21  1  0
 21 22  2  0
 22 23  1  0
 23 24  2  0
 24 25  1  0
 25 26  2  0
 19 27  1  0
 27 28  2  0
  7  2  1  0
 13  8  1  0
 28 16  1  0
 26 21  1  0
  1 29  1  0
  1 30  1  0
  1 31  1  0
  2 32  1  6
  3 33  1  0
  3 34  1  0
  5 35  1  0
  5 36  1  0
  6 37  1  0
  6 38  1  0
  9 39  1  0
 10 40  1  0
 11 41  1  0
 13 42  1  0
 17 43  1  0
 18 44  1  0
 22 45  1  0
 23 46  1  0
 24 47  1  0
 25 48  1  0
 26 49  1  0
 28 50  1  0
M  END
$$$$
[H]c1nc(F)c([H])c(-c2nc(-c3c([H])c([H])c(C(F)(F)F)c(F)c3[H])n3c2C([H])([H])C([H])([H])OC([H])([H])C3([H])[H])c1[H]
     RDKit          3D

 42 45  0  0  0  0  0  0  0  0999 V2000
    4.3237    2.9353    0.8621 F   0  0  0  0  0  0  0  0  0  0  0  0
    3.9316    1.6753    0.5772 C   0  0  0  0  0  0  0  0  0  0  0  0
    2.5819    1.4367    0.4678 C   0  0  0  0  0  0  0  0  0  0  0  0
    2.0454    0.1768    0.1769 C   0  0  0  0  0  0  0  0  0  0  0  0
    2.9597   -0.8120    0.0061 C   0  0  0  0  0  0  0  0  0  0  0  0
    4.3441   -0.5770    0.1166 C   0  0  0  0  0  0  0  0  0  0  0  0
    4.8386    0.6715    0.4036 C   0  0  0  0  0  0  0  0  0  0  0  0
    6.3211    0.9155    0.5203 C   0  0  0  0  0  0  0  0  0  0  0  0
    6.5304    1.3798    1.8079 F   0  0  0  0  0  0  0  0  0  0  0  0
    6.9507   -0.2978    0.4207 F   0  0  0  0  0  0  0  0  0  0  0  0
    6.7702    1.7750   -0.4358 F   0  0  0  0  0  0  0  0  0  0  0  0
    0.6111    0.0339    0.0569 C   0  0  0  0  0  0  0  0  0  0  0  0
   -0.2179    1.1478    0.0714 N   0  0  0  0  0  0  0  0  0  0  0  0
   -1.4894    0.7361   -0.0320 C   0  0  0  0  0  0  0  0  0  0  0  0
   -1.4909   -0.6376   -0.1140 C   0  0  0  0  0  0  0  0  0  0  0  0
   -2.6937   -1.4196   -0.2438 C   0  0  0  0  0  0  0  0  0  0  0  0
   -2.7036   -2.6157   -1.1005 C   0  0  0  0  0  0  0  0  0  0  0  0
   -1.5346   -3.3030   -1.2216 O   0  0  0  0  0  0  0  0  0  0  0  0
   -0.9185   -3.3605    0.0100 C   0  0  0  0  0  0  0  0  0  0  0  0
    0.2450   -2.3771   -0.0787 C   0  0  0  0  0  0  0  0  0  0  0  0
   -0.1875   -1.0273   -0.0549 N   0  0  0  0  0  0  0  0  0  0  0  0
   -2.6321    1.6608   -0.0497 C   0  0  0  0  0  0  0  0  0  0  0  0
   -3.7213    1.4218    0.7523 C   0  0  0  0  0  0  0  0  0  0  0  0
   -4.8043    2.2559    0.7664 C   0  0  0  0  0  0  0  0  0  0  0  0
   -4.7678    3.3330   -0.0419 N   0  0  0  0  0  0  0  0  0  0  0  0
   -3.7443    3.6173   -0.8391 C   0  0  0  0  0  0  0  0  0  0  0  0
   -3.7975    4.7381   -1.6277 F   0  0  0  0  0  0  0  0  0  0  0  0
   -2.6559    2.7753   -0.8506 C   0  0  0  0  0  0  0  0  0  0  0  0
    1.8748    2.2442    0.6106 H   0  0  0  0  0  0  0  0  0  0  0  0
    2.7241   -1.8235   -0.2349 H   0  0  0  0  0  0  0  0  0  0  0  0
    5.0621   -1.3721   -0.0210 H   0  0  0  0  0  0  0  0  0  0  0  0
   -3.5832   -0.7885   -0.5917 H   0  0  0  0  0  0  0  0  0  0  0  0
   -3.0319   -1.7082    0.7985 H   0  0  0  0  0  0  0  0  0  0  0  0
   -2.9829   -2.2954   -2.1500 H   0  0  0  0  0  0  0  0  0  0  0  0
   -3.5394   -3.3263   -0.8289 H   0  0  0  0  0  0  0  0  0  0  0  0
   -0.5023   -4.3859    0.1226 H   0  0  0  0  0  0  0  0  0  0  0  0
   -1.5346   -3.0529    0.8685 H   0  0  0  0  0  0  0  0  0  0  0  0
    0.8962   -2.6822    0.7823 H   0  0  0  0  0  0  0  0  0  0  0  0
    0.7787   -2.6875   -1.0012 H   0  0  0  0  0  0  0  0  0  0  0  0
   -3.7777    0.5572    1.4167 H   0  0  0  0  0  0  0  0  0  0  0  0
   -5.6628    2.0693    1.3971 H   0  0  0  0  0  0  0  0  0  0  0  0
   -1.8151    2.9936   -1.4943 H   0  0  0  0  0  0  0  0  0  0  0  0
  1  2  1  0
  2  3  2  0
  3  4  1  0
  4  5  2  0
  5  6  1  0
  6  7  2  0
  7  8  1  0
  8  9  1  0
  8 10  1  0
  8 11  1  0
  4 12  1  0
 12 13  2  0
 13 14  1  0
 14 15  2  0
 15 16  1  0
 16 17  1  0
 17 18  1  0
 18 19  1  0
 19 20  1  0
 20 21  1  0
 14 22  1  0
 22 23  2  0
 23 24  1  0
 24 25  2  0
 25 26  1  0
 26 27  1  0
 26 28  2  0
  7  2  1  0
 21 12  1  0
 28 22  1  0
 21 15  1  0
  3 29  1  0
  5 30  1  0
  6 31  1  0
 16 32  1  0
 16 33  1  0
 17 34  1  0
 17 35  1  0
 19 36  1  0
 19 37  1  0
 20 38  1  0
 20 39  1  0
 23 40  1  0
 24 41  1  0
 28 42  1  0
M  END
$$$$
[H]c1c([H])c(C([H])(N([H])[H])C2([H])C([H])([H])C([H])([H])C2([H])[H])c([H])c(F)c1-c1c([H])c([H])n2c(C([H])([H])C3([H])C([H])([H])C3([H])[H])nnc2c1C(F)(F)F
     RDKit          3D

 52 56  0  0  0  0  0  0  0  0999 V2000
   -5.2335    1.7056   -0.0787 N   0  0  0  0  0  0  0  0  0  0  0  0
   -4.7238    0.5006   -0.6412 C   0  0  0  0  0  0  0  0  0  0  0  0
   -5.2917   -0.7692   -0.0907 C   0  0  0  0  0  0  0  0  0  0  0  0
   -5.1241   -1.0319    1.3644 C   0  0  0  0  0  0  0  0  0  0  0  0
   -6.6060   -0.6730    1.5460 C   0  0  0  0  0  0  0  0  0  0  0  0
   -6.8072   -0.7515    0.0484 C   0  0  0  0  0  0  0  0  0  0  0  0
   -3.2392    0.3953   -0.6426 C   0  0  0  0  0  0  0  0  0  0  0  0
   -2.6277   -0.1437   -1.7511 C   0  0  0  0  0  0  0  0  0  0  0  0
   -1.2511   -0.2787   -1.8329 C   0  0  0  0  0  0  0  0  0  0  0  0
   -0.4163    0.1148   -0.8211 C   0  0  0  0  0  0  0  0  0  0  0  0
   -1.0778    0.6613    0.2970 C   0  0  0  0  0  0  0  0  0  0  0  0
   -0.2795    1.0687    1.3420 F   0  0  0  0  0  0  0  0  0  0  0  0
   -2.4373    0.7961    0.3816 C   0  0  0  0  0  0  0  0  0  0  0  0
    1.0222   -0.0347   -0.7753 C   0  0  0  0  0  0  0  0  0  0  0  0
    1.4932   -0.8371    0.2705 C   0  0  0  0  0  0  0  0  0  0  0  0
    2.8340   -1.0717    0.3935 C   0  0  0  0  0  0  0  0  0  0  0  0
    3.6867   -0.5300   -0.4905 N   0  0  0  0  0  0  0  0  0  0  0  0
    5.0451   -0.6207   -0.5752 C   0  0  0  0  0  0  0  0  0  0  0  0
    5.9274   -1.3785    0.3357 C   0  0  0  0  0  0  0  0  0  0  0  0
    6.4235   -0.5759    1.5068 C   0  0  0  0  0  0  0  0  0  0  0  0
    7.2317    0.6436    1.1159 C   0  0  0  0  0  0  0  0  0  0  0  0
    5.9396    0.7820    1.8120 C   0  0  0  0  0  0  0  0  0  0  0  0
    5.3817    0.1128   -1.6474 N   0  0  0  0  0  0  0  0  0  0  0  0
    4.3167    0.6333   -2.2077 N   0  0  0  0  0  0  0  0  0  0  0  0
    3.2362    0.2286   -1.4772 C   0  0  0  0  0  0  0  0  0  0  0  0
    1.8772    0.5300   -1.6895 C   0  0  0  0  0  0  0  0  0  0  0  0
    1.4662    1.3910   -2.8058 C   0  0  0  0  0  0  0  0  0  0  0  0
    0.6987    2.4794   -2.4072 F   0  0  0  0  0  0  0  0  0  0  0  0
    2.6793    2.0533   -3.2095 F   0  0  0  0  0  0  0  0  0  0  0  0
    1.0593    0.7875   -3.9489 F   0  0  0  0  0  0  0  0  0  0  0  0
   -5.0918    2.4971   -0.7140 H   0  0  0  0  0  0  0  0  0  0  0  0
   -4.9689    1.9025    0.8915 H   0  0  0  0  0  0  0  0  0  0  0  0
   -5.0653    0.5198   -1.7330 H   0  0  0  0  0  0  0  0  0  0  0  0
   -4.9169   -1.6307   -0.6967 H   0  0  0  0  0  0  0  0  0  0  0  0
   -4.4534   -0.4092    1.9492 H   0  0  0  0  0  0  0  0  0  0  0  0
   -4.9158   -2.1005    1.5915 H   0  0  0  0  0  0  0  0  0  0  0  0
   -7.1954   -1.4551    2.0378 H   0  0  0  0  0  0  0  0  0  0  0  0
   -6.6809    0.3260    1.9783 H   0  0  0  0  0  0  0  0  0  0  0  0
   -7.2188   -1.7193   -0.3108 H   0  0  0  0  0  0  0  0  0  0  0  0
   -7.2764    0.1386   -0.3844 H   0  0  0  0  0  0  0  0  0  0  0  0
   -3.2522   -0.4741   -2.5929 H   0  0  0  0  0  0  0  0  0  0  0  0
   -0.8114   -0.7459   -2.7217 H   0  0  0  0  0  0  0  0  0  0  0  0
   -2.9160    1.2268    1.2533 H   0  0  0  0  0  0  0  0  0  0  0  0
    0.7818   -1.2583    0.9668 H   0  0  0  0  0  0  0  0  0  0  0  0
    3.2441   -1.6864    1.1870 H   0  0  0  0  0  0  0  0  0  0  0  0
    6.8131   -1.7628   -0.2178 H   0  0  0  0  0  0  0  0  0  0  0  0
    5.4075   -2.2998    0.7126 H   0  0  0  0  0  0  0  0  0  0  0  0
    6.8515   -1.2167    2.3170 H   0  0  0  0  0  0  0  0  0  0  0  0
    7.2647    0.9606    0.0666 H   0  0  0  0  0  0  0  0  0  0  0  0
    8.1996    0.7459    1.6358 H   0  0  0  0  0  0  0  0  0  0  0  0
    5.9245    1.0453    2.9057 H   0  0  0  0  0  0  0  0  0  0  0  0
    5.0730    1.2093    1.2616 H   0  0  0  0  0  0  0  0  0  0  0  0
  1  2  1  0
  2  3  1  0
  3  4  1  0
  4  5  1  0
  5  6  1  0
  2  7  1  0
  7  8  2  0
  8  9  1  0
  9 10  2  0
 10 11  1  0
 11 12  1  0
 11 13  2  0
 10 14  1  0
 14 15  1  0
 15 16  2  0
 16 17  1  0
 17 18  1  0
 18 19  1  0
 19 20  1  0
 20 21  1  0
 21 22  1  0
 18 23  2  0
 23 24  1  0
 24 25  2  0
 25 26  1  0
 26 27  1  0
 27 28  1  0
 27 29  1  0
 27 30  1  0
  6  3  1  0
 13  7  1  0
 26 14  2  0
 25 17  1  0
 22 20  1  0
  1 31  1  0
  1 32  1  0
  2 33  1  0
  3 34  1  0
  4 35  1  0
  4 36  1  0
  5 37  1  0
  5 38  1  0
  6 39  1  0
  6 40  1  0
  8 41  1  0
  9 42  1  0
 13 43  1  0
 15 44  1  0
 16 45  1  0
 19 46  1  0
 19 47  1  0
 20 48  1  0
 21 49  1  0
 21 50  1  0
 22 51  1  0
 22 52  1  0
M  END
$$$$
[H]c1c([H])c(-c2c([H])c(C(=O)N([H])[H])nc3c([H])c(C([H])([H])N4C(=O)C([H])([H])C([H])([H])C4=O)c([H])c([H])c23)c([H])c([H])c1F
     RDKit          3D

 44 47  0  0  0  0  0  0  0  0999 V2000
   -1.0585    5.2359    0.1011 N   0  0  0  0  0  0  0  0  0  0  0  0
   -2.0056    4.2104    0.3384 C   0  0  0  0  0  0  0  0  0  0  0  0
   -3.1570    4.4833    0.7480 O   0  0  0  0  0  0  0  0  0  0  0  0
   -1.6737    2.8011    0.1143 C   0  0  0  0  0  0  0  0  0  0  0  0
   -2.5696    1.7918    0.3356 C   0  0  0  0  0  0  0  0  0  0  0  0
   -2.2640    0.4389    0.1247 C   0  0  0  0  0  0  0  0  0  0  0  0
   -3.2818   -0.5558    0.3451 C   0  0  0  0  0  0  0  0  0  0  0  0
   -3.6877   -1.4194   -0.6365 C   0  0  0  0  0  0  0  0  0  0  0  0
   -4.6693   -2.3781   -0.4225 C   0  0  0  0  0  0  0  0  0  0  0  0
   -5.2351   -2.4291    0.8500 C   0  0  0  0  0  0  0  0  0  0  0  0
   -6.1841   -3.3367    1.1012 F   0  0  0  0  0  0  0  0  0  0  0  0
   -4.8231   -1.5565    1.8374 C   0  0  0  0  0  0  0  0  0  0  0  0
   -3.8513   -0.6117    1.6155 C   0  0  0  0  0  0  0  0  0  0  0  0
   -0.9916    0.1679   -0.3242 C   0  0  0  0  0  0  0  0  0  0  0  0
   -0.5834   -1.1079   -0.5492 C   0  0  0  0  0  0  0  0  0  0  0  0
    0.6958   -1.4214   -0.9933 C   0  0  0  0  0  0  0  0  0  0  0  0
    1.5997   -0.4141   -1.2194 C   0  0  0  0  0  0  0  0  0  0  0  0
    2.9690   -0.7327   -1.6927 C   0  0  0  0  0  0  0  0  0  0  0  0
    3.8592   -0.8269   -0.5468 N   0  0  0  0  0  0  0  0  0  0  0  0
    4.1226   -2.0235    0.1735 C   0  0  0  0  0  0  0  0  0  0  0  0
    3.4294   -3.0711    0.2280 O   0  0  0  0  0  0  0  0  0  0  0  0
    5.4274   -1.7952    0.8810 C   0  0  0  0  0  0  0  0  0  0  0  0
    5.2875   -0.3238    1.2425 C   0  0  0  0  0  0  0  0  0  0  0  0
    4.6113    0.2551    0.0424 C   0  0  0  0  0  0  0  0  0  0  0  0
    4.6776    1.4384   -0.3757 O   0  0  0  0  0  0  0  0  0  0  0  0
    1.1910    0.8826   -0.9914 C   0  0  0  0  0  0  0  0  0  0  0  0
   -0.0876    1.1970   -0.5471 C   0  0  0  0  0  0  0  0  0  0  0  0
   -0.4476    2.4765   -0.3246 N   0  0  0  0  0  0  0  0  0  0  0  0
   -0.2866    5.1383   -0.6231 H   0  0  0  0  0  0  0  0  0  0  0  0
   -1.1161    6.1254    0.6568 H   0  0  0  0  0  0  0  0  0  0  0  0
   -3.5537    2.0546    0.6882 H   0  0  0  0  0  0  0  0  0  0  0  0
   -3.2263   -1.3466   -1.6026 H   0  0  0  0  0  0  0  0  0  0  0  0
   -4.9552   -3.0330   -1.2205 H   0  0  0  0  0  0  0  0  0  0  0  0
   -5.2613   -1.5999    2.8138 H   0  0  0  0  0  0  0  0  0  0  0  0
   -3.5215    0.0768    2.3830 H   0  0  0  0  0  0  0  0  0  0  0  0
   -1.2490   -1.9302   -0.3727 H   0  0  0  0  0  0  0  0  0  0  0  0
    0.9670   -2.4562   -1.1580 H   0  0  0  0  0  0  0  0  0  0  0  0
    2.9934   -1.6575   -2.3149 H   0  0  0  0  0  0  0  0  0  0  0  0
    3.3605    0.0817   -2.3567 H   0  0  0  0  0  0  0  0  0  0  0  0
    5.5040   -2.4481    1.7495 H   0  0  0  0  0  0  0  0  0  0  0  0
    6.2698   -1.9239    0.1595 H   0  0  0  0  0  0  0  0  0  0  0  0
    6.2671    0.1486    1.4272 H   0  0  0  0  0  0  0  0  0  0  0  0
    4.6090   -0.2855    2.1196 H   0  0  0  0  0  0  0  0  0  0  0  0
    1.8994    1.6804   -1.1678 H   0  0  0  0  0  0  0  0  0  0  0  0
  1  2  1  0
  2  3  2  0
  2  4  1  0
  4  5  2  0
  5  6  1  0
  6  7  1  0
  7  8  2  0
  8  9  1  0
  9 10  2  0
 10 11  1  0
 10 12  1  0
 12 13  2  0
  6 14  2  0
 14 15  1  0
 15 16  2  0
 16 17  1  0
 17 18  1  0
 18 19  1  0
 19 20  1  0
 20 21  2  0
 20 22  1  0
 22 23  1  0
 23 24  1  0
 24 25  2  0
 17 26  2  0
 26 27  1  0
 27 28  2  0
 28  4  1  0
 13  7  1  0
 27 14  1  0
 24 19  1  0
  1 29  1  0
  1 30  1  0
  5 31  1  0
  8 32  1  0
  9 33  1  0
 12 34  1  0
 13 35  1  0
 15 36  1  0
 16 37  1  0
 18 38  1  0
 18 39  1  0
 22 40  1  0
 22 41  1  0
 23 42  1  0
 23 43  1  0
 26 44  1  0
M  END
$$$$
[H]c1c([H])c(-c2c([H])c(C(=O)N([H])[H])nc3c([H])c(C([H])([H])N4C([H])([H])C([H])([H])OC([H])([H])C4([H])[H])c([H])c([H])c23)c([H])c([H])c1F
     RDKit          3D

 47 50  0  0  0  0  0  0  0  0999 V2000
   -1.7539    5.0312   -0.9262 N   0  0  0  0  0  0  0  0  0  0  0  0
   -2.6516    3.9948   -0.5700 C   0  0  0  0  0  0  0  0  0  0  0  0
   -3.8599    4.2592   -0.3664 O   0  0  0  0  0  0  0  0  0  0  0  0
   -2.1907    2.6095   -0.4341 C   0  0  0  0  0  0  0  0  0  0  0  0
   -3.0871    1.6242   -0.0866 C   0  0  0  0  0  0  0  0  0  0  0  0
   -2.6859    0.2837    0.0538 C   0  0  0  0  0  0  0  0  0  0  0  0
   -3.6769   -0.7262    0.3740 C   0  0  0  0  0  0  0  0  0  0  0  0
   -3.9113   -1.7798   -0.4801 C   0  0  0  0  0  0  0  0  0  0  0  0
   -4.8415   -2.7411   -0.1950 C   0  0  0  0  0  0  0  0  0  0  0  0
   -5.5654   -2.6757    0.9554 C   0  0  0  0  0  0  0  0  0  0  0  0
   -6.5018   -3.6261    1.2622 F   0  0  0  0  0  0  0  0  0  0  0  0
   -5.3404   -1.6275    1.8172 C   0  0  0  0  0  0  0  0  0  0  0  0
   -4.4155   -0.6433    1.5660 C   0  0  0  0  0  0  0  0  0  0  0  0
   -1.3620    0.0064   -0.1699 C   0  0  0  0  0  0  0  0  0  0  0  0
   -0.8860   -1.2822   -0.0361 C   0  0  0  0  0  0  0  0  0  0  0  0
    0.4424   -1.5182   -0.2562 C   0  0  0  0  0  0  0  0  0  0  0  0
    1.3539   -0.5330   -0.6090 C   0  0  0  0  0  0  0  0  0  0  0  0
    2.7346   -0.9676   -0.8159 C   0  0  0  0  0  0  0  0  0  0  0  0
    3.7362    0.0314   -0.8024 N   0  0  0  0  0  0  0  0  0  0  0  0
    3.9283    0.7643    0.3950 C   0  0  0  0  0  0  0  0  0  0  0  0
    4.7546    0.0709    1.4496 C   0  0  0  0  0  0  0  0  0  0  0  0
    5.8347   -0.6249    0.9851 O   0  0  0  0  0  0  0  0  0  0  0  0
    5.5835   -1.3469   -0.1753 C   0  0  0  0  0  0  0  0  0  0  0  0
    5.0080   -0.4791   -1.2600 C   0  0  0  0  0  0  0  0  0  0  0  0
    0.8836    0.7306   -0.7379 C   0  0  0  0  0  0  0  0  0  0  0  0
   -0.4488    1.0101   -0.5243 C   0  0  0  0  0  0  0  0  0  0  0  0
   -0.9060    2.2755   -0.6419 N   0  0  0  0  0  0  0  0  0  0  0  0
   -0.8439    5.1513   -0.4394 H   0  0  0  0  0  0  0  0  0  0  0  0
   -1.9851    5.7003   -1.6875 H   0  0  0  0  0  0  0  0  0  0  0  0
   -4.1348    1.8189    0.0960 H   0  0  0  0  0  0  0  0  0  0  0  0
   -3.3509   -1.8693   -1.4149 H   0  0  0  0  0  0  0  0  0  0  0  0
   -4.9872   -3.5524   -0.9042 H   0  0  0  0  0  0  0  0  0  0  0  0
   -5.9288   -1.5921    2.7318 H   0  0  0  0  0  0  0  0  0  0  0  0
   -4.2300    0.1838    2.2343 H   0  0  0  0  0  0  0  0  0  0  0  0
   -1.5499   -2.0795    0.2518 H   0  0  0  0  0  0  0  0  0  0  0  0
    0.7673   -2.5626   -0.1364 H   0  0  0  0  0  0  0  0  0  0  0  0
    2.9620   -1.7463   -0.0269 H   0  0  0  0  0  0  0  0  0  0  0  0
    2.7778   -1.4841   -1.8165 H   0  0  0  0  0  0  0  0  0  0  0  0
    4.3935    1.7449    0.1152 H   0  0  0  0  0  0  0  0  0  0  0  0
    2.9602    0.9995    0.8668 H   0  0  0  0  0  0  0  0  0  0  0  0
    4.0700   -0.5417    2.0899 H   0  0  0  0  0  0  0  0  0  0  0  0
    5.1387    0.8745    2.1347 H   0  0  0  0  0  0  0  0  0  0  0  0
    5.0055   -2.2667   -0.0006 H   0  0  0  0  0  0  0  0  0  0  0  0
    6.5914   -1.6929   -0.5495 H   0  0  0  0  0  0  0  0  0  0  0  0
    5.6966    0.3788   -1.4064 H   0  0  0  0  0  0  0  0  0  0  0  0
    4.9109   -1.0967   -2.1739 H   0  0  0  0  0  0  0  0  0  0  0  0
    1.5616    1.5120   -1.0094 H   0  0  0  0  0  0  0  0  0  0  0  0
  1  2  1  0
  2  3  2  0
  2  4  1  0
  4  5  2  0
  5  6  1  0
  6  7  1  0
  7  8  2  0
  8  9  1  0
  9 10  2  0
 10 11  1  0
 10 12  1  0
 12 13  2  0
  6 14  2  0
 14 15  1  0
 15 16  2  0
 16 17  1  0
 17 18  1  0
 18 19  1  0
 19 20  1  0
 20 21  1  0
 21 22  1  0
 22 23  1  0
 23 24  1  0
 17 25  2  0
 25 26  1  0
 26 27  2  0
 27  4  1  0
 13  7  1  0
 26 14  1  0
 24 19  1  0
  1 28  1  0
  1 29  1  0
  5 30  1  0
  8 31  1  0
  9 32  1  0
 12 33  1  0
 13 34  1  0
 15 35  1  0
 16 36  1  0
 18 37  1  0
 18 38  1  0
 20 39  1  0
 20 40  1  0
 21 41  1  0
 21 42  1  0
 23 43  1  0
 23 44  1  0
 24 45  1  0
 24 46  1  0
 25 47  1  0
M  END
$$$$
[H]c1c(C([H])([H])[H])nc(C([H])([H])[H])c([H])c1-c1nc(-c2c([H])c([H])c(C([H])([H])[H])c(OC([H])([H])[H])c2[H])n2c1C([H])([H])C([H])([H])OC([H])([H])C2([H])[H]
     RDKit          3D

 52 55  0  0  0  0  0  0  0  0999 V2000
    5.9473    0.8108    0.0466 C   0  0  0  0  0  0  0  0  0  0  0  0
    5.6832   -0.4995    0.4521 O   0  0  0  0  0  0  0  0  0  0  0  0
    4.4491   -1.0771    0.5736 C   0  0  0  0  0  0  0  0  0  0  0  0
    3.2594   -0.3963    0.2952 C   0  0  0  0  0  0  0  0  0  0  0  0
    2.0163   -0.9558    0.4087 C   0  0  0  0  0  0  0  0  0  0  0  0
    1.9482   -2.3003    0.8360 C   0  0  0  0  0  0  0  0  0  0  0  0
    3.1059   -2.9542    1.1051 C   0  0  0  0  0  0  0  0  0  0  0  0
    4.3548   -2.3799    0.9853 C   0  0  0  0  0  0  0  0  0  0  0  0
    5.5567   -3.1965    1.3079 C   0  0  0  0  0  0  0  0  0  0  0  0
    0.7764   -0.2876    0.0653 C   0  0  0  0  0  0  0  0  0  0  0  0
   -0.4388   -0.7667    0.5025 N   0  0  0  0  0  0  0  0  0  0  0  0
   -1.4145    0.0100    0.0222 C   0  0  0  0  0  0  0  0  0  0  0  0
   -0.7868    0.9819   -0.7227 C   0  0  0  0  0  0  0  0  0  0  0  0
   -1.5832    2.0377   -1.3845 C   0  0  0  0  0  0  0  0  0  0  0  0
   -0.8734    3.3800   -1.3190 C   0  0  0  0  0  0  0  0  0  0  0  0
    0.2728    3.4606   -2.0466 O   0  0  0  0  0  0  0  0  0  0  0  0
    0.7799    2.2980   -2.5494 C   0  0  0  0  0  0  0  0  0  0  0  0
    1.5345    1.5920   -1.4091 C   0  0  0  0  0  0  0  0  0  0  0  0
    0.5722    0.7866   -0.6916 N   0  0  0  0  0  0  0  0  0  0  0  0
   -2.8366   -0.1631    0.2569 C   0  0  0  0  0  0  0  0  0  0  0  0
   -3.8169   -0.1006   -0.7061 C   0  0  0  0  0  0  0  0  0  0  0  0
   -5.1608   -0.2754   -0.4151 C   0  0  0  0  0  0  0  0  0  0  0  0
   -6.1983   -0.1979   -1.5037 C   0  0  0  0  0  0  0  0  0  0  0  0
   -5.4874   -0.5129    0.8612 N   0  0  0  0  0  0  0  0  0  0  0  0
   -4.5934   -0.5896    1.8607 C   0  0  0  0  0  0  0  0  0  0  0  0
   -5.0988   -0.8589    3.2291 C   0  0  0  0  0  0  0  0  0  0  0  0
   -3.2558   -0.4129    1.5547 C   0  0  0  0  0  0  0  0  0  0  0  0
    5.8574    0.8810   -1.0770 H   0  0  0  0  0  0  0  0  0  0  0  0
    5.2503    1.5574    0.4985 H   0  0  0  0  0  0  0  0  0  0  0  0
    6.9704    1.1148    0.3705 H   0  0  0  0  0  0  0  0  0  0  0  0
    3.3771    0.6291    0.0164 H   0  0  0  0  0  0  0  0  0  0  0  0
    0.9658   -2.7382    0.9241 H   0  0  0  0  0  0  0  0  0  0  0  0
    3.0263   -3.9920    1.4336 H   0  0  0  0  0  0  0  0  0  0  0  0
    5.4963   -3.4176    2.3966 H   0  0  0  0  0  0  0  0  0  0  0  0
    5.5604   -4.1101    0.7020 H   0  0  0  0  0  0  0  0  0  0  0  0
    6.4735   -2.5738    1.1026 H   0  0  0  0  0  0  0  0  0  0  0  0
   -1.8509    1.8304   -2.4302 H   0  0  0  0  0  0  0  0  0  0  0  0
   -2.5506    2.2141   -0.8458 H   0  0  0  0  0  0  0  0  0  0  0  0
   -0.6024    3.6263   -0.2497 H   0  0  0  0  0  0  0  0  0  0  0  0
   -1.5481    4.2041   -1.6404 H   0  0  0  0  0  0  0  0  0  0  0  0
    1.5691    2.4944   -3.3300 H   0  0  0  0  0  0  0  0  0  0  0  0
    0.0433    1.5782   -2.9435 H   0  0  0  0  0  0  0  0  0  0  0  0
    1.9756    2.3479   -0.7677 H   0  0  0  0  0  0  0  0  0  0  0  0
    2.2860    0.9093   -1.9155 H   0  0  0  0  0  0  0  0  0  0  0  0
   -3.5126    0.0924   -1.7199 H   0  0  0  0  0  0  0  0  0  0  0  0
   -6.5959    0.8201   -1.6163 H   0  0  0  0  0  0  0  0  0  0  0  0
   -5.7597   -0.6137   -2.4273 H   0  0  0  0  0  0  0  0  0  0  0  0
   -6.9965   -0.9133   -1.1915 H   0  0  0  0  0  0  0  0  0  0  0  0
   -5.0846    0.0501    3.8652 H   0  0  0  0  0  0  0  0  0  0  0  0
   -4.4137   -1.6306    3.6709 H   0  0  0  0  0  0  0  0  0  0  0  0
   -6.0891   -1.3134    3.1863 H   0  0  0  0  0  0  0  0  0  0  0  0
   -2.5592   -0.4790    2.3731 H   0  0  0  0  0  0  0  0  0  0  0  0
  1  2  1  0
  2  3  1  0
  3  4  2  0
  4  5  1  0
  5  6  2  0
  6  7  1  0
  7  8  2  0
  8  9  1  0
  5 10  1  0
 10 11  2  0
 11 12  1  0
 12 13  2  0
 13 14  1  0
 14 15  1  0
 15 16  1  0
 16 17  1  0
 17 18  1  0
 18 19  1  0
 12 20  1  0
 20 21  2  0
 21 22  1  0
 22 23  1  0
 22 24  2  0
 24 25  1  0
 25 26  1  0
 25 27  2  0
  8  3  1  0
 19 10  1  0
 27 20  1  0
 19 13  1  0
  1 28  1  0
  1 29  1  0
  1 30  1  0
  4 31  1  0
  6 32  1  0
  7 33  1  0
  9 34  1  0
  9 35  1  0
  9 36  1  0
 14 37  1  0
 14 38  1  0
 15 39  1  0
 15 40  1  0
 17 41  1  0
 17 42  1  0
 18 43  1  0
 18 44  1  0
 21 45  1  0
 23 46  1  0
 23 47  1  0
 23 48  1  0
 26 49  1  0
 26 50  1  0
 26 51  1  0
 27 52  1  0
M  END
$$$$
[H]OC(=O)[C@]1(N([H])[H])C([H])([H])[C@]([H])(N([H])C(=O)c2c([H])c([H])c(OC([H])([H])c3c([H])c([H])c(Cl)c(Cl)c3[H])c([H])c2[H])[C@]2([H])[C@]([H])(C(=O)O[H])[C@]12[H]
     RDKit          3D

 52 55  0  0  0  0  0  0  0  0999 V2000
   -5.2662   -2.2434    1.7240 N   0  0  0  0  0  0  0  0  0  0  0  0
   -5.1963   -0.9421    1.0091 C   0  0  1  0  0  0  0  0  0  0  0  0
   -3.9017   -0.3349    1.4895 C   0  0  0  0  0  0  0  0  0  0  0  0
   -2.8672   -0.8717    0.5281 C   0  0  2  0  0  0  0  0  0  0  0  0
   -1.6965   -0.0530    0.4036 N   0  0  0  0  0  0  0  0  0  0  0  0
   -0.4361   -0.5425    0.8498 C   0  0  0  0  0  0  0  0  0  0  0  0
   -0.3305   -1.6985    1.3586 O   0  0  0  0  0  0  0  0  0  0  0  0
    0.7579    0.2784    0.7291 C   0  0  0  0  0  0  0  0  0  0  0  0
    1.9645   -0.2859    1.0969 C   0  0  0  0  0  0  0  0  0  0  0  0
    3.1635    0.4054    1.0240 C   0  0  0  0  0  0  0  0  0  0  0  0
    3.1925    1.7072    0.5719 C   0  0  0  0  0  0  0  0  0  0  0  0
    4.3525    2.4321    0.4803 O   0  0  0  0  0  0  0  0  0  0  0  0
    5.6422    2.0367    0.7886 C   0  0  0  0  0  0  0  0  0  0  0  0
    6.1673    0.9037    0.0006 C   0  0  0  0  0  0  0  0  0  0  0  0
    7.1845    0.0904    0.4347 C   0  0  0  0  0  0  0  0  0  0  0  0
    7.6715   -0.9578   -0.3169 C   0  0  0  0  0  0  0  0  0  0  0  0
    7.1381   -1.2279   -1.5588 C   0  0  0  0  0  0  0  0  0  0  0  0
    7.7175   -2.5515   -2.5641 Cl  0  0  0  0  0  0  0  0  0  0  0  0
    6.1076   -0.4196   -2.0213 C   0  0  0  0  0  0  0  0  0  0  0  0
    5.4210   -0.7562   -3.6034 Cl  0  0  0  0  0  0  0  0  0  0  0  0
    5.6384    0.6138   -1.2631 C   0  0  0  0  0  0  0  0  0  0  0  0
    1.9671    2.2592    0.2060 C   0  0  0  0  0  0  0  0  0  0  0  0
    0.7887    1.5673    0.2822 C   0  0  0  0  0  0  0  0  0  0  0  0
   -3.5592   -1.2503   -0.7259 C   0  0  2  0  0  0  0  0  0  0  0  0
   -4.4837   -0.4615   -1.5211 C   0  0  1  0  0  0  0  0  0  0  0  0
   -5.0709   -1.2176   -0.4328 C   0  0  2  0  0  0  0  0  0  0  0  0
   -4.4688    0.9561   -1.7789 C   0  0  0  0  0  0  0  0  0  0  0  0
   -4.7751    1.4431   -3.0703 O   0  0  0  0  0  0  0  0  0  0  0  0
   -4.2058    1.8297   -0.9570 O   0  0  0  0  0  0  0  0  0  0  0  0
   -6.3335   -0.1693    1.4781 C   0  0  0  0  0  0  0  0  0  0  0  0
   -6.6818    1.1194    1.0502 O   0  0  0  0  0  0  0  0  0  0  0  0
   -7.1010   -0.7026    2.3673 O   0  0  0  0  0  0  0  0  0  0  0  0
   -4.8304   -2.9964    1.1711 H   0  0  0  0  0  0  0  0  0  0  0  0
   -6.2798   -2.4785    1.8165 H   0  0  0  0  0  0  0  0  0  0  0  0
   -3.6831   -0.6926    2.5456 H   0  0  0  0  0  0  0  0  0  0  0  0
   -3.9042    0.7464    1.5602 H   0  0  0  0  0  0  0  0  0  0  0  0
   -2.5737   -1.8748    1.0169 H   0  0  0  0  0  0  0  0  0  0  0  0
   -1.7404    0.8832   -0.0014 H   0  0  0  0  0  0  0  0  0  0  0  0
    2.0154   -1.3025    1.4601 H   0  0  0  0  0  0  0  0  0  0  0  0
    4.0822   -0.0956    1.3364 H   0  0  0  0  0  0  0  0  0  0  0  0
    5.7663    1.8007    1.8839 H   0  0  0  0  0  0  0  0  0  0  0  0
    6.3167    2.9137    0.6089 H   0  0  0  0  0  0  0  0  0  0  0  0
    7.6185    0.2848    1.4084 H   0  0  0  0  0  0  0  0  0  0  0  0
    8.4726   -1.5801    0.0514 H   0  0  0  0  0  0  0  0  0  0  0  0
    4.8339    1.2285   -1.6479 H   0  0  0  0  0  0  0  0  0  0  0  0
    2.0136    3.2891   -0.1481 H   0  0  0  0  0  0  0  0  0  0  0  0
   -0.1337    2.0502   -0.0159 H   0  0  0  0  0  0  0  0  0  0  0  0
   -3.1729   -2.2188   -1.1927 H   0  0  0  0  0  0  0  0  0  0  0  0
   -4.7176   -1.0109   -2.5505 H   0  0  0  0  0  0  0  0  0  0  0  0
   -5.6236   -2.2035   -0.7010 H   0  0  0  0  0  0  0  0  0  0  0  0
   -5.6069    1.1473   -3.5598 H   0  0  0  0  0  0  0  0  0  0  0  0
   -7.3530    1.1534    0.2822 H   0  0  0  0  0  0  0  0  0  0  0  0
  1  2  1  0
  2  3  1  0
  3  4  1  0
  4  5  1  0
  5  6  1  0
  6  7  2  0
  6  8  1  0
  8  9  2  0
  9 10  1  0
 10 11  2  0
 11 12  1  0
 12 13  1  0
 13 14  1  0
 14 15  2  0
 15 16  1  0
 16 17  2  0
 17 18  1  0
 17 19  1  0
 19 20  1  0
 19 21  2  0
 11 22  1  0
 22 23  2  0
  4 24  1  0
 24 25  1  0
 25 26  1  0
 25 27  1  0
 27 28  1  0
 27 29  2  0
  2 30  1  6
 30 31  1  0
 30 32  2  0
 26  2  1  0
 23  8  1  0
 26 24  1  0
 21 14  1  0
  1 33  1  0
  1 34  1  0
  3 35  1  0
  3 36  1  0
  4 37  1  1
  5 38  1  0
  9 39  1  0
 10 40  1  0
 13 41  1  0
 13 42  1  0
 15 43  1  0
 16 44  1  0
 21 45  1  0
 22 46  1  0
 23 47  1  0
 24 48  1  6
 25 49  1  6
 26 50  1  6
 28 51  1  0
 31 52  1  0
M  END
$$$$
[H]c1nc(Oc2c([H])c([H])c([H])c(C([H])([H])OC([H])([H])[H])c2[H])c([H])c(-c2nn(C([H])([H])C(F)(F)F)c([H])c2[H])c1[H]
     RDKit          3D

 42 44  0  0  0  0  0  0  0  0999 V2000
   -5.0139    1.4828   -1.5606 C   0  0  0  0  0  0  0  0  0  0  0  0
   -6.1587    0.9785   -0.9858 O   0  0  0  0  0  0  0  0  0  0  0  0
   -6.0372    0.6658    0.3421 C   0  0  0  0  0  0  0  0  0  0  0  0
   -5.0066   -0.3561    0.6475 C   0  0  0  0  0  0  0  0  0  0  0  0
   -5.2817   -1.7146    0.5970 C   0  0  0  0  0  0  0  0  0  0  0  0
   -4.3360   -2.6787    0.8805 C   0  0  0  0  0  0  0  0  0  0  0  0
   -3.0538   -2.2897    1.2318 C   0  0  0  0  0  0  0  0  0  0  0  0
   -2.7381   -0.9422    1.2938 C   0  0  0  0  0  0  0  0  0  0  0  0
   -1.4383   -0.5864    1.6507 O   0  0  0  0  0  0  0  0  0  0  0  0
   -0.4803   -0.4381    0.6371 C   0  0  0  0  0  0  0  0  0  0  0  0
    0.8063   -0.0886    0.9608 C   0  0  0  0  0  0  0  0  0  0  0  0
    1.7791    0.0680   -0.0023 C   0  0  0  0  0  0  0  0  0  0  0  0
    1.4130   -0.1402   -1.3138 C   0  0  0  0  0  0  0  0  0  0  0  0
    0.1061   -0.4965   -1.6575 C   0  0  0  0  0  0  0  0  0  0  0  0
   -0.7890   -0.6305   -0.6585 N   0  0  0  0  0  0  0  0  0  0  0  0
    3.1528    0.4382    0.3113 C   0  0  0  0  0  0  0  0  0  0  0  0
    3.7017    0.6856    1.5537 C   0  0  0  0  0  0  0  0  0  0  0  0
    5.0514    1.0054    1.3681 C   0  0  0  0  0  0  0  0  0  0  0  0
    5.2661    0.9408    0.0422 N   0  0  0  0  0  0  0  0  0  0  0  0
    6.5183    1.1918   -0.6414 C   0  0  0  0  0  0  0  0  0  0  0  0
    7.3396   -0.0753   -0.7829 C   0  0  0  0  0  0  0  0  0  0  0  0
    6.6721   -1.0352   -1.4980 F   0  0  0  0  0  0  0  0  0  0  0  0
    8.4825    0.2720   -1.5026 F   0  0  0  0  0  0  0  0  0  0  0  0
    7.7043   -0.5639    0.4499 F   0  0  0  0  0  0  0  0  0  0  0  0
    4.1495    0.6093   -0.5565 N   0  0  0  0  0  0  0  0  0  0  0  0
   -3.7041   -0.0012    1.0051 C   0  0  0  0  0  0  0  0  0  0  0  0
   -5.2220    1.7052   -2.6300 H   0  0  0  0  0  0  0  0  0  0  0  0
   -4.2246    0.6893   -1.5177 H   0  0  0  0  0  0  0  0  0  0  0  0
   -4.6260    2.3904   -1.0952 H   0  0  0  0  0  0  0  0  0  0  0  0
   -7.0520    0.3206    0.6878 H   0  0  0  0  0  0  0  0  0  0  0  0
   -5.8215    1.5607    0.9815 H   0  0  0  0  0  0  0  0  0  0  0  0
   -6.2672   -2.0569    0.3279 H   0  0  0  0  0  0  0  0  0  0  0  0
   -4.5839   -3.7278    0.8317 H   0  0  0  0  0  0  0  0  0  0  0  0
   -2.3136   -3.0513    1.4538 H   0  0  0  0  0  0  0  0  0  0  0  0
    1.0492    0.0649    2.0036 H   0  0  0  0  0  0  0  0  0  0  0  0
    2.1387   -0.0301   -2.1080 H   0  0  0  0  0  0  0  0  0  0  0  0
   -0.1333   -0.6488   -2.6965 H   0  0  0  0  0  0  0  0  0  0  0  0
    3.1637    0.6350    2.4903 H   0  0  0  0  0  0  0  0  0  0  0  0
    5.7387    1.2475    2.1637 H   0  0  0  0  0  0  0  0  0  0  0  0
    6.3099    1.6491   -1.6279 H   0  0  0  0  0  0  0  0  0  0  0  0
    7.1510    1.9130   -0.0850 H   0  0  0  0  0  0  0  0  0  0  0  0
   -3.4120    1.0385    1.0665 H   0  0  0  0  0  0  0  0  0  0  0  0
  1  2  1  0
  2  3  1  0
  3  4  1  0
  4  5  2  0
  5  6  1  0
  6  7  2  0
  7  8  1  0
  8  9  1  0
  9 10  1  0
 10 11  2  0
 11 12  1  0
 12 13  2  0
 13 14  1  0
 14 15  2  0
 12 16  1  0
 16 17  1  0
 17 18  2  0
 18 19  1  0
 19 20  1  0
 20 21  1  0
 21 22  1  0
 21 23  1  0
 21 24  1  0
 19 25  1  0
  8 26  2  0
 26  4  1  0
 15 10  1  0
 25 16  2  0
  1 27  1  0
  1 28  1  0
  1 29  1  0
  3 30  1  0
  3 31  1  0
  5 32  1  0
  6 33  1  0
  7 34  1  0
 11 35  1  0
 13 36  1  0
 14 37  1  0
 17 38  1  0
 18 39  1  0
 20 40  1  0
 20 41  1  0
 26 42  1  0
M  END
$$$$
[H]c1nc([H])n(C([H])([H])c2c([H])c([H])c3c(-c4c([H])c([H])c(F)c([H])c4[H])c([H])c(C(=O)N([H])[H])nc3c2[H])c1[H]
     RDKit          3D

 41 44  0  0  0  0  0  0  0  0999 V2000
   -1.0024   -5.1229    0.3918 N   0  0  0  0  0  0  0  0  0  0  0  0
   -1.8634   -4.0143    0.4763 C   0  0  0  0  0  0  0  0  0  0  0  0
   -3.0537   -4.1752    0.8282 O   0  0  0  0  0  0  0  0  0  0  0  0
   -1.4034   -2.6685    0.1621 C   0  0  0  0  0  0  0  0  0  0  0  0
   -2.2673   -1.5988    0.2528 C   0  0  0  0  0  0  0  0  0  0  0  0
   -1.8612   -0.2907   -0.0410 C   0  0  0  0  0  0  0  0  0  0  0  0
   -2.7884    0.8198    0.1054 C   0  0  0  0  0  0  0  0  0  0  0  0
   -2.5907    1.9178    0.9115 C   0  0  0  0  0  0  0  0  0  0  0  0
   -3.4797    2.9594    1.0351 C   0  0  0  0  0  0  0  0  0  0  0  0
   -4.6598    2.9442    0.3229 C   0  0  0  0  0  0  0  0  0  0  0  0
   -5.5637    3.9681    0.4266 F   0  0  0  0  0  0  0  0  0  0  0  0
   -4.8941    1.8628   -0.4944 C   0  0  0  0  0  0  0  0  0  0  0  0
   -3.9979    0.8314   -0.6074 C   0  0  0  0  0  0  0  0  0  0  0  0
   -0.5516   -0.1286   -0.4276 C   0  0  0  0  0  0  0  0  0  0  0  0
   -0.0386    1.0899   -0.7535 C   0  0  0  0  0  0  0  0  0  0  0  0
    1.2682    1.2710   -1.1522 C   0  0  0  0  0  0  0  0  0  0  0  0
    2.1373    0.2088   -1.2435 C   0  0  0  0  0  0  0  0  0  0  0  0
    3.5315    0.4351   -1.6730 C   0  0  0  0  0  0  0  0  0  0  0  0
    4.3276    0.6974   -0.4772 N   0  0  0  0  0  0  0  0  0  0  0  0
    4.9680   -0.1788    0.2843 C   0  0  0  0  0  0  0  0  0  0  0  0
    5.5850    0.5085    1.3022 C   0  0  0  0  0  0  0  0  0  0  0  0
    5.2849    1.8002    1.1089 N   0  0  0  0  0  0  0  0  0  0  0  0
    4.5148    1.9270    0.0212 C   0  0  0  0  0  0  0  0  0  0  0  0
    1.6286   -1.0219   -0.9185 C   0  0  0  0  0  0  0  0  0  0  0  0
    0.3177   -1.2163   -0.5169 C   0  0  0  0  0  0  0  0  0  0  0  0
   -0.1373   -2.4318   -0.2214 N   0  0  0  0  0  0  0  0  0  0  0  0
   -0.7098   -5.6072    1.2546 H   0  0  0  0  0  0  0  0  0  0  0  0
   -0.6630   -5.4532   -0.5246 H   0  0  0  0  0  0  0  0  0  0  0  0
   -3.2937   -1.7180    0.5534 H   0  0  0  0  0  0  0  0  0  0  0  0
   -1.6412    1.9092    1.4734 H   0  0  0  0  0  0  0  0  0  0  0  0
   -3.2625    3.7963    1.6890 H   0  0  0  0  0  0  0  0  0  0  0  0
   -5.8341    1.8590   -1.0565 H   0  0  0  0  0  0  0  0  0  0  0  0
   -4.1866   -0.0256   -1.2570 H   0  0  0  0  0  0  0  0  0  0  0  0
   -0.6767    1.9576   -0.7157 H   0  0  0  0  0  0  0  0  0  0  0  0
    1.6625    2.2590   -1.4098 H   0  0  0  0  0  0  0  0  0  0  0  0
    3.6157    1.3036   -2.3344 H   0  0  0  0  0  0  0  0  0  0  0  0
    3.9790   -0.4567   -2.1654 H   0  0  0  0  0  0  0  0  0  0  0  0
    4.9883   -1.2705    0.1109 H   0  0  0  0  0  0  0  0  0  0  0  0
    6.1891    0.0531    2.0894 H   0  0  0  0  0  0  0  0  0  0  0  0
    4.1112    2.8711   -0.3858 H   0  0  0  0  0  0  0  0  0  0  0  0
    2.3116   -1.8712   -0.9884 H   0  0  0  0  0  0  0  0  0  0  0  0
  1  2  1  0
  2  3  2  0
  2  4  1  0
  4  5  2  0
  5  6  1  0
  6  7  1  0
  7  8  2  0
  8  9  1  0
  9 10  2  0
 10 11  1  0
 10 12  1  0
 12 13  2  0
  6 14  2  0
 14 15  1  0
 15 16  2  0
 16 17  1  0
 17 18  1  0
 18 19  1  0
 19 20  1  0
 20 21  2  0
 21 22  1  0
 22 23  2  0
 17 24  2  0
 24 25  1  0
 25 26  2  0
 26  4  1  0
 13  7  1  0
 25 14  1  0
 23 19  1  0
  1 27  1  0
  1 28  1  0
  5 29  1  0
  8 30  1  0
  9 31  1  0
 12 32  1  0
 13 33  1  0
 15 34  1  0
 16 35  1  0
 18 36  1  0
 18 37  1  0
 20 38  1  0
 21 39  1  0
 23 40  1  0
 24 41  1  0
M  END
$$$$
[H]OC(=O)[C@@]1(N([H])[H])[C@]([H])(OC([H])([H])c2c([H])c([H])c([H])c([H])c2C(F)(F)F)C([H])([H])[C@@]2([H])[C@](F)(C(=O)O[H])[C@@]12[H]
     RDKit          3D

 41 43  0  0  0  0  0  0  0  0999 V2000
   -1.0258    0.4493   -1.7350 N   0  0  0  0  0  0  0  0  0  0  0  0
   -1.6984    0.7963   -0.4318 C   0  0  1  0  0  0  0  0  0  0  0  0
   -2.8802   -0.0918   -0.3836 C   0  0  1  0  0  0  0  0  0  0  0  0
   -2.7912   -0.9360    0.8380 C   0  0  1  0  0  0  0  0  0  0  0  0
   -1.5570   -0.5228    1.5899 C   0  0  0  0  0  0  0  0  0  0  0  0
   -0.7631    0.3928    0.6946 C   0  0  1  0  0  0  0  0  0  0  0  0
    0.3289   -0.2283    0.1348 O   0  0  0  0  0  0  0  0  0  0  0  0
    1.5532    0.3722    0.4290 C   0  0  0  0  0  0  0  0  0  0  0  0
    2.6000   -0.4195   -0.2358 C   0  0  0  0  0  0  0  0  0  0  0  0
    2.2898   -1.5417   -0.9735 C   0  0  0  0  0  0  0  0  0  0  0  0
    3.2415   -2.3042   -1.5997 C   0  0  0  0  0  0  0  0  0  0  0  0
    4.5541   -1.9641   -1.5068 C   0  0  0  0  0  0  0  0  0  0  0  0
    4.9008   -0.8358   -0.7692 C   0  0  0  0  0  0  0  0  0  0  0  0
    3.9161   -0.0631   -0.1327 C   0  0  0  0  0  0  0  0  0  0  0  0
    4.2717    1.1386    0.6540 C   0  0  0  0  0  0  0  0  0  0  0  0
    5.6729    1.2647    0.5791 F   0  0  0  0  0  0  0  0  0  0  0  0
    3.7841    2.3084    0.1314 F   0  0  0  0  0  0  0  0  0  0  0  0
    4.0154    1.0006    2.0076 F   0  0  0  0  0  0  0  0  0  0  0  0
   -3.9071    0.0388    0.6703 C   0  0  1  0  0  0  0  0  0  0  0  0
   -4.0409    1.0828    1.5231 F   0  0  0  0  0  0  0  0  0  0  0  0
   -5.2177   -0.6065    0.3072 C   0  0  0  0  0  0  0  0  0  0  0  0
   -5.3775   -1.4173   -0.8001 O   0  0  0  0  0  0  0  0  0  0  0  0
   -6.1976   -0.3930    1.0466 O   0  0  0  0  0  0  0  0  0  0  0  0
   -1.9153    2.2295   -0.4806 C   0  0  0  0  0  0  0  0  0  0  0  0
   -2.2771    2.9965    0.6008 O   0  0  0  0  0  0  0  0  0  0  0  0
   -1.7692    2.8609   -1.5765 O   0  0  0  0  0  0  0  0  0  0  0  0
   -0.2351    1.1189   -1.8146 H   0  0  0  0  0  0  0  0  0  0  0  0
   -1.7651    0.6318   -2.4466 H   0  0  0  0  0  0  0  0  0  0  0  0
   -3.1462   -0.6942   -1.3111 H   0  0  0  0  0  0  0  0  0  0  0  0
   -3.0363   -2.0108    0.8227 H   0  0  0  0  0  0  0  0  0  0  0  0
   -0.9563   -1.4249    1.8133 H   0  0  0  0  0  0  0  0  0  0  0  0
   -1.7998   -0.0553    2.5717 H   0  0  0  0  0  0  0  0  0  0  0  0
   -0.4380    1.2672    1.2871 H   0  0  0  0  0  0  0  0  0  0  0  0
    1.6745    0.4271    1.5353 H   0  0  0  0  0  0  0  0  0  0  0  0
    1.4764    1.4110    0.0678 H   0  0  0  0  0  0  0  0  0  0  0  0
    1.2383   -1.8235   -1.0543 H   0  0  0  0  0  0  0  0  0  0  0  0
    2.9457   -3.1647   -2.1601 H   0  0  0  0  0  0  0  0  0  0  0  0
    5.3740   -2.5111   -1.9719 H   0  0  0  0  0  0  0  0  0  0  0  0
    5.9396   -0.5399   -0.6760 H   0  0  0  0  0  0  0  0  0  0  0  0
   -4.7759   -2.2351   -0.9038 H   0  0  0  0  0  0  0  0  0  0  0  0
   -2.2061    3.9962    0.6413 H   0  0  0  0  0  0  0  0  0  0  0  0
  1  2  1  0
  2  3  1  0
  3  4  1  0
  4  5  1  0
  5  6  1  0
  6  7  1  0
  7  8  1  0
  8  9  1  0
  9 10  2  0
 10 11  1  0
 11 12  2  0
 12 13  1  0
 13 14  2  0
 14 15  1  0
 15 16  1  0
 15 17  1  0
 15 18  1  0
  4 19  1  0
 19 20  1  1
 19 21  1  0
 21 22  1  0
 21 23  2  0
  2 24  1  6
 24 25  1  0
 24 26  2  0
  6  2  1  0
 14  9  1  0
 19  3  1  0
  1 27  1  0
  1 28  1  0
  3 29  1  6
  4 30  1  6
  5 31  1  0
  5 32  1  0
  6 33  1  1
  8 34  1  0
  8 35  1  0
 10 36  1  0
 11 37  1  0
 12 38  1  0
 13 39  1  0
 22 40  1  0
 25 41  1  0
M  END
$$$$
[H]c1nc2nc([H])n(C([H])([H])c3c([H])c([H])c4c(-c5c([H])c([H])c(F)c([H])c5Cl)c([H])c(C(=O)N([H])[H])nc4c3[H])c2c([H])c1[H]
     RDKit          3D

 46 50  0  0  0  0  0  0  0  0999 V2000
   -3.7102    4.3543    0.4416 N   0  0  0  0  0  0  0  0  0  0  0  0
   -4.0956    2.9947    0.4991 C   0  0  0  0  0  0  0  0  0  0  0  0
   -5.2778    2.7061    0.8151 O   0  0  0  0  0  0  0  0  0  0  0  0
   -3.0995    1.9732    0.1876 C   0  0  0  0  0  0  0  0  0  0  0  0
   -3.4097    0.6296    0.2263 C   0  0  0  0  0  0  0  0  0  0  0  0
   -2.4734   -0.3677   -0.0684 C   0  0  0  0  0  0  0  0  0  0  0  0
   -2.8389   -1.7496    0.0457 C   0  0  0  0  0  0  0  0  0  0  0  0
   -2.2367   -2.6961    0.8420 C   0  0  0  0  0  0  0  0  0  0  0  0
   -2.6490   -4.0001    0.9670 C   0  0  0  0  0  0  0  0  0  0  0  0
   -3.7647   -4.3638    0.2190 C   0  0  0  0  0  0  0  0  0  0  0  0
   -4.2550   -5.6251    0.2676 F   0  0  0  0  0  0  0  0  0  0  0  0
   -4.4010   -3.4537   -0.5915 C   0  0  0  0  0  0  0  0  0  0  0  0
   -3.9543   -2.1609   -0.6862 C   0  0  0  0  0  0  0  0  0  0  0  0
   -4.7851   -1.0535   -1.7361 Cl  0  0  0  0  0  0  0  0  0  0  0  0
   -1.2207    0.0482   -0.4022 C   0  0  0  0  0  0  0  0  0  0  0  0
   -0.2171   -0.8290   -0.7268 C   0  0  0  0  0  0  0  0  0  0  0  0
    1.0714   -0.4370   -1.0821 C   0  0  0  0  0  0  0  0  0  0  0  0
    1.3658    0.8908   -1.1137 C   0  0  0  0  0  0  0  0  0  0  0  0
    2.7127    1.4003   -1.4762 C   0  0  0  0  0  0  0  0  0  0  0  0
    3.4956    1.5447   -0.2654 N   0  0  0  0  0  0  0  0  0  0  0  0
    3.5744    2.6228    0.5236 C   0  0  0  0  0  0  0  0  0  0  0  0
    4.3978    2.3807    1.5575 N   0  0  0  0  0  0  0  0  0  0  0  0
    4.8752    1.1093    1.4487 C   0  0  0  0  0  0  0  0  0  0  0  0
    5.7204    0.3811    2.2095 N   0  0  0  0  0  0  0  0  0  0  0  0
    6.0365   -0.8809    1.8738 C   0  0  0  0  0  0  0  0  0  0  0  0
    5.4839   -1.4282    0.7352 C   0  0  0  0  0  0  0  0  0  0  0  0
    4.6204   -0.6910   -0.0461 C   0  0  0  0  0  0  0  0  0  0  0  0
    4.2875    0.6148    0.2927 C   0  0  0  0  0  0  0  0  0  0  0  0
    0.3775    1.7972   -0.7943 C   0  0  0  0  0  0  0  0  0  0  0  0
   -0.8938    1.4142   -0.4441 C   0  0  0  0  0  0  0  0  0  0  0  0
   -1.8445    2.3128   -0.1482 N   0  0  0  0  0  0  0  0  0  0  0  0
   -3.8490    4.9222   -0.4201 H   0  0  0  0  0  0  0  0  0  0  0  0
   -3.2789    4.7710    1.2984 H   0  0  0  0  0  0  0  0  0  0  0  0
   -4.3876    0.3279    0.4942 H   0  0  0  0  0  0  0  0  0  0  0  0
   -1.3756   -2.3901    1.4130 H   0  0  0  0  0  0  0  0  0  0  0  0
   -2.1466   -4.7190    1.6076 H   0  0  0  0  0  0  0  0  0  0  0  0
   -5.2714   -3.7643   -1.1660 H   0  0  0  0  0  0  0  0  0  0  0  0
   -0.4416   -1.8865   -0.7221 H   0  0  0  0  0  0  0  0  0  0  0  0
    1.7953   -1.1769   -1.3213 H   0  0  0  0  0  0  0  0  0  0  0  0
    3.2046    0.6633   -2.1451 H   0  0  0  0  0  0  0  0  0  0  0  0
    2.5906    2.3930   -1.9618 H   0  0  0  0  0  0  0  0  0  0  0  0
    3.0258    3.5552    0.3172 H   0  0  0  0  0  0  0  0  0  0  0  0
    6.7257   -1.4764    2.4936 H   0  0  0  0  0  0  0  0  0  0  0  0
    5.7469   -2.4441    0.4772 H   0  0  0  0  0  0  0  0  0  0  0  0
    4.1653   -1.0863   -0.9490 H   0  0  0  0  0  0  0  0  0  0  0  0
    0.6044    2.8725   -0.8171 H   0  0  0  0  0  0  0  0  0  0  0  0
  1  2  1  0
  2  3  2  0
  2  4  1  0
  4  5  2  0
  5  6  1  0
  6  7  1  0
  7  8  2  0
  8  9  1  0
  9 10  2  0
 10 11  1  0
 10 12  1  0
 12 13  2  0
 13 14  1  0
  6 15  2  0
 15 16  1  0
 16 17  2  0
 17 18  1  0
 18 19  1  0
 19 20  1  0
 20 21  1  0
 21 22  2  0
 22 23  1  0
 23 24  2  0
 24 25  1  0
 25 26  2  0
 26 27  1  0
 27 28  2  0
 18 29  2  0
 29 30  1  0
 30 31  2  0
 31  4  1  0
 13  7  1  0
 30 15  1  0
 28 20  1  0
 28 23  1  0
  1 32  1  0
  1 33  1  0
  5 34  1  0
  8 35  1  0
  9 36  1  0
 12 37  1  0
 16 38  1  0
 17 39  1  0
 19 40  1  0
 19 41  1  0
 21 42  1  0
 25 43  1  0
 26 44  1  0
 27 45  1  0
 29 46  1  0
M  END
$$$$
[H]c1nc(C([H])([H])[H])c([H])c(-c2nc(-c3c([H])c(C(F)(F)F)c([H])c(C([H])(OC([H])([H])C([H])([H])[H])C([H])([H])[H])c3[H])n3c2C([H])([H])C([H])([H])OC([H])([H])C3([H])[H])c1[H]
     RDKit          3D

 58 61  0  0  0  0  0  0  0  0999 V2000
   -5.7164    2.9058    0.3265 C   0  0  0  0  0  0  0  0  0  0  0  0
   -5.3642    2.5433   -1.0617 C   0  0  0  0  0  0  0  0  0  0  0  0
   -4.2456    1.7649   -1.2736 O   0  0  0  0  0  0  0  0  0  0  0  0
   -4.3496    0.5543   -0.6833 C   0  0  0  0  0  0  0  0  0  0  0  0
   -4.6950   -0.5156   -1.7556 C   0  0  0  0  0  0  0  0  0  0  0  0
   -3.2261    0.0537    0.1143 C   0  0  0  0  0  0  0  0  0  0  0  0
   -1.8984    0.0567   -0.2863 C   0  0  0  0  0  0  0  0  0  0  0  0
   -0.8703   -0.4225    0.4531 C   0  0  0  0  0  0  0  0  0  0  0  0
   -1.1939   -0.9613    1.7137 C   0  0  0  0  0  0  0  0  0  0  0  0
   -2.4649   -0.9959    2.1727 C   0  0  0  0  0  0  0  0  0  0  0  0
   -3.4635   -0.4928    1.3816 C   0  0  0  0  0  0  0  0  0  0  0  0
   -2.7833   -1.6069    3.5235 C   0  0  0  0  0  0  0  0  0  0  0  0
   -3.9284   -2.3526    3.3720 F   0  0  0  0  0  0  0  0  0  0  0  0
   -1.7095   -2.4310    3.8260 F   0  0  0  0  0  0  0  0  0  0  0  0
   -2.9648   -0.5750    4.3718 F   0  0  0  0  0  0  0  0  0  0  0  0
    0.5442   -0.5100    0.0886 C   0  0  0  0  0  0  0  0  0  0  0  0
    1.4870    0.3337    0.6067 N   0  0  0  0  0  0  0  0  0  0  0  0
    2.7045   -0.0627    0.2404 C   0  0  0  0  0  0  0  0  0  0  0  0
    2.5748   -1.1740   -0.5262 C   0  0  0  0  0  0  0  0  0  0  0  0
    3.6657   -1.9942   -1.1095 C   0  0  0  0  0  0  0  0  0  0  0  0
    3.3547   -2.4532   -2.4848 C   0  0  0  0  0  0  0  0  0  0  0  0
    2.1671   -1.9362   -2.9705 O   0  0  0  0  0  0  0  0  0  0  0  0
    1.0905   -2.7773   -2.6677 C   0  0  0  0  0  0  0  0  0  0  0  0
    0.5280   -2.4979   -1.3070 C   0  0  0  0  0  0  0  0  0  0  0  0
    1.2347   -1.4161   -0.6021 N   0  0  0  0  0  0  0  0  0  0  0  0
    3.9771    0.6254    0.5574 C   0  0  0  0  0  0  0  0  0  0  0  0
    5.0601    0.0368    1.1315 C   0  0  0  0  0  0  0  0  0  0  0  0
    6.1982    0.8016    1.3554 C   0  0  0  0  0  0  0  0  0  0  0  0
    6.2495    2.0933    1.0170 N   0  0  0  0  0  0  0  0  0  0  0  0
    5.2103    2.7253    0.4478 C   0  0  0  0  0  0  0  0  0  0  0  0
    5.2469    4.1643    0.0537 C   0  0  0  0  0  0  0  0  0  0  0  0
    4.0802    1.9864    0.2241 C   0  0  0  0  0  0  0  0  0  0  0  0
   -5.2943    3.8871    0.6483 H   0  0  0  0  0  0  0  0  0  0  0  0
   -5.5077    2.1214    1.0585 H   0  0  0  0  0  0  0  0  0  0  0  0
   -6.8621    3.0018    0.3595 H   0  0  0  0  0  0  0  0  0  0  0  0
   -5.2932    3.4581   -1.7174 H   0  0  0  0  0  0  0  0  0  0  0  0
   -6.2951    2.0266   -1.4963 H   0  0  0  0  0  0  0  0  0  0  0  0
   -5.2881    0.5411   -0.0509 H   0  0  0  0  0  0  0  0  0  0  0  0
   -5.5878   -0.1734   -2.2538 H   0  0  0  0  0  0  0  0  0  0  0  0
   -4.9559   -1.4231   -1.1263 H   0  0  0  0  0  0  0  0  0  0  0  0
   -3.8673   -0.6397   -2.4423 H   0  0  0  0  0  0  0  0  0  0  0  0
   -1.6663    0.4812   -1.2662 H   0  0  0  0  0  0  0  0  0  0  0  0
   -0.3855   -1.3423    2.3041 H   0  0  0  0  0  0  0  0  0  0  0  0
   -4.4672   -0.5313    1.7546 H   0  0  0  0  0  0  0  0  0  0  0  0
    3.7303   -2.9222   -0.4506 H   0  0  0  0  0  0  0  0  0  0  0  0
    4.6430   -1.5222   -0.9985 H   0  0  0  0  0  0  0  0  0  0  0  0
    3.3816   -3.5735   -2.5662 H   0  0  0  0  0  0  0  0  0  0  0  0
    4.2066   -2.1251   -3.1429 H   0  0  0  0  0  0  0  0  0  0  0  0
    1.4942   -3.8236   -2.7466 H   0  0  0  0  0  0  0  0  0  0  0  0
    0.3544   -2.6523   -3.4935 H   0  0  0  0  0  0  0  0  0  0  0  0
   -0.5321   -2.2118   -1.4375 H   0  0  0  0  0  0  0  0  0  0  0  0
    0.6040   -3.4401   -0.7082 H   0  0  0  0  0  0  0  0  0  0  0  0
    5.0241   -1.0147    1.3871 H   0  0  0  0  0  0  0  0  0  0  0  0
    7.0734    0.3462    1.8170 H   0  0  0  0  0  0  0  0  0  0  0  0
    5.3282    4.2525   -1.0541 H   0  0  0  0  0  0  0  0  0  0  0  0
    4.3313    4.6943    0.4148 H   0  0  0  0  0  0  0  0  0  0  0  0
    6.1123    4.6390    0.5681 H   0  0  0  0  0  0  0  0  0  0  0  0
    3.2200    2.4752   -0.2520 H   0  0  0  0  0  0  0  0  0  0  0  0
  1  2  1  0
  2  3  1  0
  3  4  1  0
  4  5  1  0
  4  6  1  0
  6  7  2  0
  7  8  1  0
  8  9  2  0
  9 10  1  0
 10 11  2  0
 10 12  1  0
 12 13  1  0
 12 14  1  0
 12 15  1  0
  8 16  1  0
 16 17  2  0
 17 18  1  0
 18 19  2  0
 19 20  1  0
 20 21  1  0
 21 22  1  0
 22 23  1  0
 23 24  1  0
 24 25  1  0
 18 26  1  0
 26 27  2  0
 27 28  1  0
 28 29  2  0
 29 30  1  0
 30 31  1  0
 30 32  2  0
 11  6  1  0
 25 16  1  0
 32 26  1  0
 25 19  1  0
  1 33  1  0
  1 34  1  0
  1 35  1  0
  2 36  1  0
  2 37  1  0
  4 38  1  0
  5 39  1  0
  5 40  1  0
  5 41  1  0
  7 42  1  0
  9 43  1  0
 11 44  1  0
 20 45  1  0
 20 46  1  0
 21 47  1  0
 21 48  1  0
 23 49  1  0
 23 50  1  0
 24 51  1  0
 24 52  1  0
 27 53  1  0
 28 54  1  0
 31 55  1  0
 31 56  1  0
 31 57  1  0
 32 58  1  0
M  END
$$$$
