[H]c1c([H])c(-c2nc(-c3c([H])c(C([H])([H])[H])nc(C([H])([H])[H])c3[H])c3n2C([H])([H])[C@@]([H])(C([H])([H])[H])OC([H])([H])C3([H])[H])c([H])c(Cl)c1Cl
     RDKit          3D

 48 51  0  0  0  0  0  0  0  0999 V2000
   -3.3961    3.1100   -1.1745 C   0  0  0  0  0  0  0  0  0  0  0  0
   -2.3689    2.0149   -1.0627 C   0  0  2  0  0  0  0  0  0  0  0  0
   -2.2382    1.6315    0.4333 C   0  0  0  0  0  0  0  0  0  0  0  0
   -1.2012    0.6511    0.4700 N   0  0  0  0  0  0  0  0  0  0  0  0
    0.1022    0.9837    0.1836 C   0  0  0  0  0  0  0  0  0  0  0  0
    0.7229    2.2916   -0.1483 C   0  0  0  0  0  0  0  0  0  0  0  0
   -0.3246    3.1118   -0.9198 C   0  0  0  0  0  0  0  0  0  0  0  0
   -1.1667    2.3021   -1.6368 O   0  0  0  0  0  0  0  0  0  0  0  0
    0.8156   -0.1539    0.2486 C   0  0  0  0  0  0  0  0  0  0  0  0
   -0.0413   -1.1273    0.5643 N   0  0  0  0  0  0  0  0  0  0  0  0
   -1.3139   -0.6484    0.7105 C   0  0  0  0  0  0  0  0  0  0  0  0
   -2.4356   -1.5271    1.0005 C   0  0  0  0  0  0  0  0  0  0  0  0
   -3.6417   -1.1899    1.5056 C   0  0  0  0  0  0  0  0  0  0  0  0
   -4.6690   -2.1391    1.6532 C   0  0  0  0  0  0  0  0  0  0  0  0
   -4.4757   -3.4311    1.2913 C   0  0  0  0  0  0  0  0  0  0  0  0
   -5.7207   -4.6687    1.4502 Cl  0  0  0  0  0  0  0  0  0  0  0  0
   -3.2646   -3.8234    0.7742 C   0  0  0  0  0  0  0  0  0  0  0  0
   -2.9841   -5.4992    0.2913 Cl  0  0  0  0  0  0  0  0  0  0  0  0
   -2.2829   -2.8869    0.6390 C   0  0  0  0  0  0  0  0  0  0  0  0
    2.2652   -0.3571    0.0256 C   0  0  0  0  0  0  0  0  0  0  0  0
    3.2069    0.4765    0.5777 C   0  0  0  0  0  0  0  0  0  0  0  0
    4.5318    0.2019    0.3098 C   0  0  0  0  0  0  0  0  0  0  0  0
    5.5587    1.0848    0.8930 C   0  0  0  0  0  0  0  0  0  0  0  0
    4.9136   -0.8344   -0.4584 N   0  0  0  0  0  0  0  0  0  0  0  0
    4.0189   -1.6711   -1.0153 C   0  0  0  0  0  0  0  0  0  0  0  0
    4.4431   -2.8191   -1.8664 C   0  0  0  0  0  0  0  0  0  0  0  0
    2.6824   -1.4108   -0.7571 C   0  0  0  0  0  0  0  0  0  0  0  0
   -4.4164    2.6865   -1.0688 H   0  0  0  0  0  0  0  0  0  0  0  0
   -3.3526    3.6606   -2.1114 H   0  0  0  0  0  0  0  0  0  0  0  0
   -3.2530    3.7747   -0.2758 H   0  0  0  0  0  0  0  0  0  0  0  0
   -2.7915    1.1082   -1.5434 H   0  0  0  0  0  0  0  0  0  0  0  0
   -1.8295    2.5974    0.8917 H   0  0  0  0  0  0  0  0  0  0  0  0
   -3.1802    1.4503    0.8724 H   0  0  0  0  0  0  0  0  0  0  0  0
    0.8753    2.8342    0.8069 H   0  0  0  0  0  0  0  0  0  0  0  0
    1.6275    2.1499   -0.7476 H   0  0  0  0  0  0  0  0  0  0  0  0
   -0.7966    3.8753   -0.3017 H   0  0  0  0  0  0  0  0  0  0  0  0
    0.2795    3.6876   -1.6842 H   0  0  0  0  0  0  0  0  0  0  0  0
   -3.8351   -0.1892    1.8461 H   0  0  0  0  0  0  0  0  0  0  0  0
   -5.5987   -1.8198    2.0544 H   0  0  0  0  0  0  0  0  0  0  0  0
   -1.3463   -3.2054    0.2345 H   0  0  0  0  0  0  0  0  0  0  0  0
    2.9097    1.3269    1.2072 H   0  0  0  0  0  0  0  0  0  0  0  0
    5.2172    2.1320    0.9225 H   0  0  0  0  0  0  0  0  0  0  0  0
    5.7684    0.7026    1.9237 H   0  0  0  0  0  0  0  0  0  0  0  0
    6.5010    0.9879    0.3142 H   0  0  0  0  0  0  0  0  0  0  0  0
    3.5639   -3.1027   -2.4867 H   0  0  0  0  0  0  0  0  0  0  0  0
    5.3400   -2.5813   -2.4565 H   0  0  0  0  0  0  0  0  0  0  0  0
    4.6315   -3.6695   -1.1790 H   0  0  0  0  0  0  0  0  0  0  0  0
    1.9501   -2.0789   -1.2008 H   0  0  0  0  0  0  0  0  0  0  0  0
  1  2  1  0
  2  3  1  0
  3  4  1  0
  4  5  1  0
  5  6  1  0
  6  7  1  0
  7  8  1  0
  5  9  2  0
  9 10  1  0
 10 11  2  0
 11 12  1  0
 12 13  2  0
 13 14  1  0
 14 15  2  0
 15 16  1  0
 15 17  1  0
 17 18  1  0
 17 19  2  0
  9 20  1  0
 20 21  2  0
 21 22  1  0
 22 23  1  0
 22 24  2  0
 24 25  1  0
 25 26  1  0
 25 27  2  0
  8  2  1  0
 19 12  1  0
 27 20  1  0
 11  4  1  0
  1 28  1  0
  1 29  1  0
  1 30  1  0
  2 31  1  6
  3 32  1  0
  3 33  1  0
  6 34  1  0
  6 35  1  0
  7 36  1  0
  7 37  1  0
 13 38  1  0
 14 39  1  0
 19 40  1  0
 21 41  1  0
 23 42  1  0
 23 43  1  0
 23 44  1  0
 26 45  1  0
 26 46  1  0
 26 47  1  0
 27 48  1  0
M  END
$$$$
[H]c1c([H])c(-c2nc(-c3c([H])c(C([H])([H])[H])nc(C([H])([H])[H])c3[H])c3n2C([H])([H])[C@@]([H])(C([H])([H])[H])OC([H])([H])C3([H])[H])c([H])c(Cl)c1F
     RDKit          3D

 48 51  0  0  0  0  0  0  0  0999 V2000
   -2.2881    3.5766    0.0617 C   0  0  0  0  0  0  0  0  0  0  0  0
   -2.5374    2.4204   -0.8391 C   0  0  2  0  0  0  0  0  0  0  0  0
   -2.7099    1.1685   -0.0119 C   0  0  0  0  0  0  0  0  0  0  0  0
   -1.4655    0.4631    0.1138 N   0  0  0  0  0  0  0  0  0  0  0  0
   -0.2248    0.9291   -0.1405 C   0  0  0  0  0  0  0  0  0  0  0  0
    0.3248    2.2338   -0.5839 C   0  0  0  0  0  0  0  0  0  0  0  0
   -0.4521    2.7592   -1.7701 C   0  0  0  0  0  0  0  0  0  0  0  0
   -1.7005    2.2450   -1.8986 O   0  0  0  0  0  0  0  0  0  0  0  0
    0.6316   -0.1185    0.0925 C   0  0  0  0  0  0  0  0  0  0  0  0
   -0.1323   -1.1459    0.4691 N   0  0  0  0  0  0  0  0  0  0  0  0
   -1.4466   -0.8220    0.4967 C   0  0  0  0  0  0  0  0  0  0  0  0
   -2.4390   -1.8188    0.8587 C   0  0  0  0  0  0  0  0  0  0  0  0
   -3.7372   -1.5942    1.2058 C   0  0  0  0  0  0  0  0  0  0  0  0
   -4.6187   -2.6495    1.4749 C   0  0  0  0  0  0  0  0  0  0  0  0
   -4.2080   -3.9472    1.4008 C   0  0  0  0  0  0  0  0  0  0  0  0
   -5.0309   -4.9877    1.6534 F   0  0  0  0  0  0  0  0  0  0  0  0
   -2.9098   -4.2154    1.0567 C   0  0  0  0  0  0  0  0  0  0  0  0
   -2.3518   -5.8781    0.9543 Cl  0  0  0  0  0  0  0  0  0  0  0  0
   -2.0730   -3.1886    0.7997 C   0  0  0  0  0  0  0  0  0  0  0  0
    2.0986   -0.1973   -0.0253 C   0  0  0  0  0  0  0  0  0  0  0  0
    2.9363    0.7228    0.5531 C   0  0  0  0  0  0  0  0  0  0  0  0
    4.2936    0.5531    0.3765 C   0  0  0  0  0  0  0  0  0  0  0  0
    5.2111    1.5374    0.9942 C   0  0  0  0  0  0  0  0  0  0  0  0
    4.8134   -0.4746   -0.3366 N   0  0  0  0  0  0  0  0  0  0  0  0
    4.0144   -1.3938   -0.9162 C   0  0  0  0  0  0  0  0  0  0  0  0
    4.5952   -2.5297   -1.7047 C   0  0  0  0  0  0  0  0  0  0  0  0
    2.6597   -1.2336   -0.7462 C   0  0  0  0  0  0  0  0  0  0  0  0
   -3.2717    4.0933    0.2730 H   0  0  0  0  0  0  0  0  0  0  0  0
   -1.6385    4.3636   -0.3339 H   0  0  0  0  0  0  0  0  0  0  0  0
   -1.9700    3.2315    1.0861 H   0  0  0  0  0  0  0  0  0  0  0  0
   -3.5825    2.5777   -1.3052 H   0  0  0  0  0  0  0  0  0  0  0  0
   -3.0670    1.4448    0.9983 H   0  0  0  0  0  0  0  0  0  0  0  0
   -3.4953    0.5167   -0.4786 H   0  0  0  0  0  0  0  0  0  0  0  0
    0.2404    2.9837    0.2296 H   0  0  0  0  0  0  0  0  0  0  0  0
    1.4042    2.1291   -0.8847 H   0  0  0  0  0  0  0  0  0  0  0  0
   -0.4196    3.8654   -1.8540 H   0  0  0  0  0  0  0  0  0  0  0  0
    0.1235    2.4187   -2.6900 H   0  0  0  0  0  0  0  0  0  0  0  0
   -4.1009   -0.5826    1.3138 H   0  0  0  0  0  0  0  0  0  0  0  0
   -5.6288   -2.3921    1.7413 H   0  0  0  0  0  0  0  0  0  0  0  0
   -1.0447   -3.4338    0.5265 H   0  0  0  0  0  0  0  0  0  0  0  0
    2.5494    1.5606    1.1347 H   0  0  0  0  0  0  0  0  0  0  0  0
    6.0620    1.6677    0.2913 H   0  0  0  0  0  0  0  0  0  0  0  0
    4.7317    2.5235    1.1574 H   0  0  0  0  0  0  0  0  0  0  0  0
    5.6263    1.1025    1.9283 H   0  0  0  0  0  0  0  0  0  0  0  0
    3.7984   -2.9951   -2.2833 H   0  0  0  0  0  0  0  0  0  0  0  0
    5.4784   -2.2299   -2.2821 H   0  0  0  0  0  0  0  0  0  0  0  0
    4.9373   -3.2810   -0.9419 H   0  0  0  0  0  0  0  0  0  0  0  0
    2.0143   -1.9781   -1.2156 H   0  0  0  0  0  0  0  0  0  0  0  0
  1  2  1  0
  2  3  1  0
  3  4  1  0
  4  5  1  0
  5  6  1  0
  6  7  1  0
  7  8  1  0
  5  9  2  0
  9 10  1  0
 10 11  2  0
 11 12  1  0
 12 13  2  0
 13 14  1  0
 14 15  2  0
 15 16  1  0
 15 17  1  0
 17 18  1  0
 17 19  2  0
  9 20  1  0
 20 21  2  0
 21 22  1  0
 22 23  1  0
 22 24  2  0
 24 25  1  0
 25 26  1  0
 25 27  2  0
  8  2  1  0
 19 12  1  0
 27 20  1  0
 11  4  1  0
  1 28  1  0
  1 29  1  0
  1 30  1  0
  2 31  1  6
  3 32  1  0
  3 33  1  0
  6 34  1  0
  6 35  1  0
  7 36  1  0
  7 37  1  0
 13 38  1  0
 14 39  1  0
 19 40  1  0
 21 41  1  0
 23 42  1  0
 23 43  1  0
 23 44  1  0
 26 45  1  0
 26 46  1  0
 26 47  1  0
 27 48  1  0
M  END
$$$$
[H]c1c([H])c(-c2nc(-c3c([H])c(C([H])([H])[H])nc(C([H])([H])[H])c3[H])c3n2C([H])([H])[C@@]([H])(C([H])([H])[H])OC([H])([H])C3([H])[H])c([H])c(Cl)c1OC([H])(F)F
     RDKit          3D

 52 55  0  0  0  0  0  0  0  0999 V2000
    1.1228    4.5957    1.3370 C   0  0  0  0  0  0  0  0  0  0  0  0
    0.7476    3.1551    1.3385 C   0  0  2  0  0  0  0  0  0  0  0  0
    1.1575    2.4519    0.0339 C   0  0  0  0  0  0  0  0  0  0  0  0
    0.4478    1.2160   -0.0826 N   0  0  0  0  0  0  0  0  0  0  0  0
   -0.9086    1.1624   -0.2809 C   0  0  0  0  0  0  0  0  0  0  0  0
   -1.8582    2.2911   -0.3796 C   0  0  0  0  0  0  0  0  0  0  0  0
   -1.3919    3.4078    0.4997 C   0  0  0  0  0  0  0  0  0  0  0  0
   -0.6273    2.9273    1.5273 O   0  0  0  0  0  0  0  0  0  0  0  0
   -1.2237   -0.1446   -0.3882 C   0  0  0  0  0  0  0  0  0  0  0  0
   -0.1011   -0.8376   -0.2589 N   0  0  0  0  0  0  0  0  0  0  0  0
    0.9612    0.0136   -0.0625 C   0  0  0  0  0  0  0  0  0  0  0  0
    2.3306   -0.4797    0.0903 C   0  0  0  0  0  0  0  0  0  0  0  0
    2.5952   -1.7815   -0.3497 C   0  0  0  0  0  0  0  0  0  0  0  0
    3.8312   -2.3865   -0.2144 C   0  0  0  0  0  0  0  0  0  0  0  0
    4.8656   -1.6996    0.3762 C   0  0  0  0  0  0  0  0  0  0  0  0
    6.1067   -2.2356    0.5397 O   0  0  0  0  0  0  0  0  0  0  0  0
    6.6055   -3.4717    0.1964 C   0  0  0  0  0  0  0  0  0  0  0  0
    7.6242   -3.3210   -0.7323 F   0  0  0  0  0  0  0  0  0  0  0  0
    7.0458   -4.2108    1.2865 F   0  0  0  0  0  0  0  0  0  0  0  0
    4.6200   -0.4127    0.8172 C   0  0  0  0  0  0  0  0  0  0  0  0
    5.8942    0.4936    1.5688 Cl  0  0  0  0  0  0  0  0  0  0  0  0
    3.3681    0.1866    0.6757 C   0  0  0  0  0  0  0  0  0  0  0  0
   -2.5145   -0.7782   -0.6318 C   0  0  0  0  0  0  0  0  0  0  0  0
   -2.6433   -1.6877   -1.6974 C   0  0  0  0  0  0  0  0  0  0  0  0
   -3.8012   -2.3565   -1.9922 C   0  0  0  0  0  0  0  0  0  0  0  0
   -3.8964   -3.3185   -3.1381 C   0  0  0  0  0  0  0  0  0  0  0  0
   -4.8774   -2.1204   -1.2054 N   0  0  0  0  0  0  0  0  0  0  0  0
   -4.8011   -1.2598   -0.1754 C   0  0  0  0  0  0  0  0  0  0  0  0
   -5.9865   -1.0107    0.6776 C   0  0  0  0  0  0  0  0  0  0  0  0
   -3.6288   -0.5767    0.1312 C   0  0  0  0  0  0  0  0  0  0  0  0
    2.2144    4.6620    1.5765 H   0  0  0  0  0  0  0  0  0  0  0  0
    0.5948    5.1060    2.1472 H   0  0  0  0  0  0  0  0  0  0  0  0
    0.9872    5.0876    0.3489 H   0  0  0  0  0  0  0  0  0  0  0  0
    1.2794    2.6293    2.1478 H   0  0  0  0  0  0  0  0  0  0  0  0
    0.6776    3.1600   -0.7523 H   0  0  0  0  0  0  0  0  0  0  0  0
    2.1908    2.5067   -0.1961 H   0  0  0  0  0  0  0  0  0  0  0  0
   -2.8543    1.9850   -0.0533 H   0  0  0  0  0  0  0  0  0  0  0  0
   -1.9646    2.6192   -1.4498 H   0  0  0  0  0  0  0  0  0  0  0  0
   -0.9016    4.2307   -0.0668 H   0  0  0  0  0  0  0  0  0  0  0  0
   -2.2999    3.8848    0.9692 H   0  0  0  0  0  0  0  0  0  0  0  0
    1.8090   -2.3476   -0.8176 H   0  0  0  0  0  0  0  0  0  0  0  0
    3.9968   -3.4020   -0.5713 H   0  0  0  0  0  0  0  0  0  0  0  0
    5.8375   -4.0990   -0.2889 H   0  0  0  0  0  0  0  0  0  0  0  0
    3.2413    1.1799    1.0794 H   0  0  0  0  0  0  0  0  0  0  0  0
   -1.7435   -1.8412   -2.3009 H   0  0  0  0  0  0  0  0  0  0  0  0
   -4.7643   -2.9980   -3.7445 H   0  0  0  0  0  0  0  0  0  0  0  0
   -3.0000   -3.1694   -3.7735 H   0  0  0  0  0  0  0  0  0  0  0  0
   -3.9550   -4.3602   -2.8113 H   0  0  0  0  0  0  0  0  0  0  0  0
   -6.4707   -0.0565    0.3570 H   0  0  0  0  0  0  0  0  0  0  0  0
   -6.6951   -1.8643    0.6761 H   0  0  0  0  0  0  0  0  0  0  0  0
   -5.6500   -0.8263    1.7334 H   0  0  0  0  0  0  0  0  0  0  0  0
   -3.5937    0.1018    0.9889 H   0  0  0  0  0  0  0  0  0  0  0  0
  1  2  1  0
  2  3  1  0
  3  4  1  0
  4  5  1  0
  5  6  1  0
  6  7  1  0
  7  8  1  0
  5  9  2  0
  9 10  1  0
 10 11  2  0
 11 12  1  0
 12 13  2  0
 13 14  1  0
 14 15  2  0
 15 16  1  0
 16 17  1  0
 17 18  1  0
 17 19  1  0
 15 20  1  0
 20 21  1  0
 20 22  2  0
  9 23  1  0
 23 24  2  0
 24 25  1  0
 25 26  1  0
 25 27  2  0
 27 28  1  0
 28 29  1  0
 28 30  2  0
  8  2  1  0
 22 12  1  0
 30 23  1  0
 11  4  1  0
  1 31  1  0
  1 32  1  0
  1 33  1  0
  2 34  1  1
  3 35  1  0
  3 36  1  0
  6 37  1  0
  6 38  1  0
  7 39  1  0
  7 40  1  0
 13 41  1  0
 14 42  1  0
 17 43  1  0
 22 44  1  0
 24 45  1  0
 26 46  1  0
 26 47  1  0
 26 48  1  0
 29 49  1  0
 29 50  1  0
 29 51  1  0
 30 52  1  0
M  END
$$$$
[H]c1c([H])c(-c2nc(-c3c([H])c(C([H])([H])[H])nc(C([H])([H])[H])c3[H])c3n2C([H])([H])[C@@]([H])(C([H])([H])[H])OC([H])([H])C3([H])[H])c([H])c(C([H])([H])[H])c1F
     RDKit          3D

 51 54  0  0  0  0  0  0  0  0999 V2000
    2.7666    3.5474    0.9052 C   0  0  0  0  0  0  0  0  0  0  0  0
    1.5506    2.6943    0.7395 C   0  0  2  0  0  0  0  0  0  0  0  0
    1.5772    1.8915   -0.5511 C   0  0  0  0  0  0  0  0  0  0  0  0
    0.7005    0.7537   -0.3782 N   0  0  0  0  0  0  0  0  0  0  0  0
   -0.6773    0.8833   -0.2051 C   0  0  0  0  0  0  0  0  0  0  0  0
   -1.3565    2.2029   -0.0988 C   0  0  0  0  0  0  0  0  0  0  0  0
   -0.7324    2.8615    1.1319 C   0  0  0  0  0  0  0  0  0  0  0  0
    0.4133    3.5107    0.7556 O   0  0  0  0  0  0  0  0  0  0  0  0
   -1.1953   -0.3749   -0.1449 C   0  0  0  0  0  0  0  0  0  0  0  0
   -0.1708   -1.2182   -0.2747 N   0  0  0  0  0  0  0  0  0  0  0  0
    1.0204   -0.5232   -0.4181 C   0  0  0  0  0  0  0  0  0  0  0  0
    2.3005   -1.1921   -0.6068 C   0  0  0  0  0  0  0  0  0  0  0  0
    2.3093   -2.5187   -1.0792 C   0  0  0  0  0  0  0  0  0  0  0  0
    3.4510   -3.2581   -1.2279 C   0  0  0  0  0  0  0  0  0  0  0  0
    4.6712   -2.7102   -0.9091 C   0  0  0  0  0  0  0  0  0  0  0  0
    5.8357   -3.4054   -1.0407 F   0  0  0  0  0  0  0  0  0  0  0  0
    4.7157   -1.4198   -0.4429 C   0  0  0  0  0  0  0  0  0  0  0  0
    6.0267   -0.8060   -0.0907 C   0  0  0  0  0  0  0  0  0  0  0  0
    3.5286   -0.6929   -0.3024 C   0  0  0  0  0  0  0  0  0  0  0  0
   -2.6138   -0.6800    0.0207 C   0  0  0  0  0  0  0  0  0  0  0  0
   -3.1905   -1.6045   -0.8352 C   0  0  0  0  0  0  0  0  0  0  0  0
   -4.4988   -1.9597   -0.7436 C   0  0  0  0  0  0  0  0  0  0  0  0
   -5.0632   -2.9593   -1.6919 C   0  0  0  0  0  0  0  0  0  0  0  0
   -5.2487   -1.3899    0.2115 N   0  0  0  0  0  0  0  0  0  0  0  0
   -4.7637   -0.4953    1.0683 C   0  0  0  0  0  0  0  0  0  0  0  0
   -5.5827    0.1431    2.1302 C   0  0  0  0  0  0  0  0  0  0  0  0
   -3.4310   -0.1305    0.9787 C   0  0  0  0  0  0  0  0  0  0  0  0
    2.4674    4.4672    1.4610 H   0  0  0  0  0  0  0  0  0  0  0  0
    3.1150    3.8847   -0.0950 H   0  0  0  0  0  0  0  0  0  0  0  0
    3.5663    3.0778    1.5089 H   0  0  0  0  0  0  0  0  0  0  0  0
    1.5046    1.9777    1.5835 H   0  0  0  0  0  0  0  0  0  0  0  0
    1.0009    2.5813   -1.2931 H   0  0  0  0  0  0  0  0  0  0  0  0
    2.5440    1.7030   -0.9281 H   0  0  0  0  0  0  0  0  0  0  0  0
   -1.0448    2.8165   -0.9964 H   0  0  0  0  0  0  0  0  0  0  0  0
   -2.4349    2.1145   -0.0309 H   0  0  0  0  0  0  0  0  0  0  0  0
   -1.5031    3.5302    1.5609 H   0  0  0  0  0  0  0  0  0  0  0  0
   -0.5745    2.0613    1.8780 H   0  0  0  0  0  0  0  0  0  0  0  0
    1.3544   -2.9520   -1.3301 H   0  0  0  0  0  0  0  0  0  0  0  0
    3.4590   -4.2771   -1.5921 H   0  0  0  0  0  0  0  0  0  0  0  0
    6.5582   -0.6417   -1.0599 H   0  0  0  0  0  0  0  0  0  0  0  0
    5.9144    0.1179    0.4899 H   0  0  0  0  0  0  0  0  0  0  0  0
    6.6051   -1.5882    0.4486 H   0  0  0  0  0  0  0  0  0  0  0  0
    3.6436    0.2800    0.1063 H   0  0  0  0  0  0  0  0  0  0  0  0
   -2.5668   -2.0670   -1.6163 H   0  0  0  0  0  0  0  0  0  0  0  0
   -6.1612   -2.9829   -1.6165 H   0  0  0  0  0  0  0  0  0  0  0  0
   -4.6540   -3.9655   -1.4681 H   0  0  0  0  0  0  0  0  0  0  0  0
   -4.7934   -2.7270   -2.7517 H   0  0  0  0  0  0  0  0  0  0  0  0
   -6.4322   -0.5612    2.3529 H   0  0  0  0  0  0  0  0  0  0  0  0
   -4.9605    0.2929    3.0345 H   0  0  0  0  0  0  0  0  0  0  0  0
   -5.9291    1.1295    1.7942 H   0  0  0  0  0  0  0  0  0  0  0  0
   -3.0208    0.5782    1.6590 H   0  0  0  0  0  0  0  0  0  0  0  0
  1  2  1  0
  2  3  1  0
  3  4  1  0
  4  5  1  0
  5  6  1  0
  6  7  1  0
  7  8  1  0
  5  9  2  0
  9 10  1  0
 10 11  2  0
 11 12  1  0
 12 13  2  0
 13 14  1  0
 14 15  2  0
 15 16  1  0
 15 17  1  0
 17 18  1  0
 17 19  2  0
  9 20  1  0
 20 21  2  0
 21 22  1  0
 22 23  1  0
 22 24  2  0
 24 25  1  0
 25 26  1  0
 25 27  2  0
  8  2  1  0
 19 12  1  0
 27 20  1  0
 11  4  1  0
  1 28  1  0
  1 29  1  0
  1 30  1  0
  2 31  1  1
  3 32  1  0
  3 33  1  0
  6 34  1  0
  6 35  1  0
  7 36  1  0
  7 37  1  0
 13 38  1  0
 14 39  1  0
 18 40  1  0
 18 41  1  0
 18 42  1  0
 19 43  1  0
 21 44  1  0
 23 45  1  0
 23 46  1  0
 23 47  1  0
 26 48  1  0
 26 49  1  0
 26 50  1  0
 27 51  1  0
M  END
$$$$
[H]c1c([H])c(-c2nc(-c3c([H])c(C([H])([H])[H])nc(C([H])([H])[H])c3[H])c3n2C([H])([H])[C@@]([H])(C([H])([H])[H])OC([H])([H])C3([H])[H])c([H])c(C([H])([H])[H])c1Cl
     RDKit          3D

 51 54  0  0  0  0  0  0  0  0999 V2000
   -2.7038   -3.5078   -2.1508 C   0  0  0  0  0  0  0  0  0  0  0  0
   -1.4813   -2.9293   -1.3945 C   0  0  2  0  0  0  0  0  0  0  0  0
   -2.0798   -1.9516   -0.4088 C   0  0  0  0  0  0  0  0  0  0  0  0
   -1.0803   -0.9807   -0.0154 N   0  0  0  0  0  0  0  0  0  0  0  0
    0.2805   -1.1288   -0.1698 C   0  0  0  0  0  0  0  0  0  0  0  0
    0.9867   -2.3188   -0.6820 C   0  0  0  0  0  0  0  0  0  0  0  0
    0.6128   -2.6154   -2.1204 C   0  0  0  0  0  0  0  0  0  0  0  0
   -0.7421   -2.2466   -2.3315 O   0  0  0  0  0  0  0  0  0  0  0  0
    0.9479   -0.0106    0.2497 C   0  0  0  0  0  0  0  0  0  0  0  0
   -0.0150    0.8252    0.6666 N   0  0  0  0  0  0  0  0  0  0  0  0
   -1.2461    0.2274    0.5036 C   0  0  0  0  0  0  0  0  0  0  0  0
   -2.4929    0.9221    0.8397 C   0  0  0  0  0  0  0  0  0  0  0  0
   -3.6870    0.2975    1.0246 C   0  0  0  0  0  0  0  0  0  0  0  0
   -4.8243    1.0803    1.2763 C   0  0  0  0  0  0  0  0  0  0  0  0
   -4.7253    2.4358    1.3343 C   0  0  0  0  0  0  0  0  0  0  0  0
   -6.1441    3.4402    1.6499 Cl  0  0  0  0  0  0  0  0  0  0  0  0
   -3.5286    3.0587    1.1507 C   0  0  0  0  0  0  0  0  0  0  0  0
   -3.4495    4.5533    1.2212 C   0  0  0  0  0  0  0  0  0  0  0  0
   -2.4195    2.3150    0.9054 C   0  0  0  0  0  0  0  0  0  0  0  0
    2.3819    0.2804    0.2794 C   0  0  0  0  0  0  0  0  0  0  0  0
    3.1735    0.0890   -0.8169 C   0  0  0  0  0  0  0  0  0  0  0  0
    4.5433    0.3669   -0.7666 C   0  0  0  0  0  0  0  0  0  0  0  0
    5.3415    0.1368   -1.9897 C   0  0  0  0  0  0  0  0  0  0  0  0
    5.0589    0.8271    0.3885 N   0  0  0  0  0  0  0  0  0  0  0  0
    4.3316    1.0309    1.4842 C   0  0  0  0  0  0  0  0  0  0  0  0
    4.8897    1.5387    2.7647 C   0  0  0  0  0  0  0  0  0  0  0  0
    2.9894    0.7580    1.4335 C   0  0  0  0  0  0  0  0  0  0  0  0
   -3.2063   -4.1684   -1.4129 H   0  0  0  0  0  0  0  0  0  0  0  0
   -3.3179   -2.6392   -2.4348 H   0  0  0  0  0  0  0  0  0  0  0  0
   -2.3179   -4.0676   -3.0197 H   0  0  0  0  0  0  0  0  0  0  0  0
   -0.9718   -3.7461   -0.8775 H   0  0  0  0  0  0  0  0  0  0  0  0
   -2.9168   -1.4105   -0.9205 H   0  0  0  0  0  0  0  0  0  0  0  0
   -2.4666   -2.5638    0.4303 H   0  0  0  0  0  0  0  0  0  0  0  0
    0.7021   -3.1751   -0.0157 H   0  0  0  0  0  0  0  0  0  0  0  0
    2.0780   -2.2431   -0.5978 H   0  0  0  0  0  0  0  0  0  0  0  0
    1.2035   -2.0492   -2.8453 H   0  0  0  0  0  0  0  0  0  0  0  0
    0.6836   -3.6915   -2.3738 H   0  0  0  0  0  0  0  0  0  0  0  0
   -3.8053   -0.7762    1.0264 H   0  0  0  0  0  0  0  0  0  0  0  0
   -5.7576    0.5828    1.4188 H   0  0  0  0  0  0  0  0  0  0  0  0
   -3.5999    4.9250    2.2544 H   0  0  0  0  0  0  0  0  0  0  0  0
   -4.1640    4.9863    0.4928 H   0  0  0  0  0  0  0  0  0  0  0  0
   -2.4318    4.8873    0.8987 H   0  0  0  0  0  0  0  0  0  0  0  0
   -1.4684    2.8242    0.7588 H   0  0  0  0  0  0  0  0  0  0  0  0
    2.7543   -0.2695   -1.7233 H   0  0  0  0  0  0  0  0  0  0  0  0
    5.0122   -0.7735   -2.5522 H   0  0  0  0  0  0  0  0  0  0  0  0
    6.4125   -0.0670   -1.7144 H   0  0  0  0  0  0  0  0  0  0  0  0
    5.2572    1.0258   -2.6515 H   0  0  0  0  0  0  0  0  0  0  0  0
    5.8061    2.1408    2.5305 H   0  0  0  0  0  0  0  0  0  0  0  0
    4.1213    2.1609    3.2375 H   0  0  0  0  0  0  0  0  0  0  0  0
    5.1216    0.7075    3.4695 H   0  0  0  0  0  0  0  0  0  0  0  0
    2.3540    0.9064    2.2959 H   0  0  0  0  0  0  0  0  0  0  0  0
  1  2  1  0
  2  3  1  0
  3  4  1  0
  4  5  1  0
  5  6  1  0
  6  7  1  0
  7  8  1  0
  5  9  2  0
  9 10  1  0
 10 11  2  0
 11 12  1  0
 12 13  2  0
 13 14  1  0
 14 15  2  0
 15 16  1  0
 15 17  1  0
 17 18  1  0
 17 19  2  0
  9 20  1  0
 20 21  2  0
 21 22  1  0
 22 23  1  0
 22 24  2  0
 24 25  1  0
 25 26  1  0
 25 27  2  0
  8  2  1  0
 19 12  1  0
 27 20  1  0
 11  4  1  0
  1 28  1  0
  1 29  1  0
  1 30  1  0
  2 31  1  1
  3 32  1  0
  3 33  1  0
  6 34  1  0
  6 35  1  0
  7 36  1  0
  7 37  1  0
 13 38  1  0
 14 39  1  0
 18 40  1  0
 18 41  1  0
 18 42  1  0
 19 43  1  0
 21 44  1  0
 23 45  1  0
 23 46  1  0
 23 47  1  0
 26 48  1  0
 26 49  1  0
 26 50  1  0
 27 51  1  0
M  END
$$$$
[H]c1c([H])c(-c2nc(-c3c([H])c(C([H])([H])[H])nc(C([H])([H])[H])c3[H])c3n2C([H])([H])[C@@]([H])(C([H])([H])[H])OC([H])([H])C3([H])[H])c([H])c([H])c1F
     RDKit          3D

 48 51  0  0  0  0  0  0  0  0999 V2000
   -3.5969   -3.1798    0.4388 C   0  0  0  0  0  0  0  0  0  0  0  0
   -2.3416   -2.4526    0.0071 C   0  0  2  0  0  0  0  0  0  0  0  0
   -2.6359   -0.9705   -0.2369 C   0  0  0  0  0  0  0  0  0  0  0  0
   -1.3823   -0.2502   -0.1589 N   0  0  0  0  0  0  0  0  0  0  0  0
   -0.1302   -0.7980   -0.1216 C   0  0  0  0  0  0  0  0  0  0  0  0
    0.3159   -2.1943   -0.2206 C   0  0  0  0  0  0  0  0  0  0  0  0
   -0.4572   -3.0678   -1.1489 C   0  0  0  0  0  0  0  0  0  0  0  0
   -1.8117   -2.9258   -1.1552 O   0  0  0  0  0  0  0  0  0  0  0  0
    0.7550    0.2321    0.0111 C   0  0  0  0  0  0  0  0  0  0  0  0
    0.0344    1.3453    0.0464 N   0  0  0  0  0  0  0  0  0  0  0  0
   -1.3172    1.0815   -0.0595 C   0  0  0  0  0  0  0  0  0  0  0  0
   -2.3183    2.1308   -0.0206 C   0  0  0  0  0  0  0  0  0  0  0  0
   -1.8955    3.4095    0.3950 C   0  0  0  0  0  0  0  0  0  0  0  0
   -2.7560    4.4858    0.4296 C   0  0  0  0  0  0  0  0  0  0  0  0
   -4.0767    4.3352    0.0511 C   0  0  0  0  0  0  0  0  0  0  0  0
   -4.9224    5.3987    0.0871 F   0  0  0  0  0  0  0  0  0  0  0  0
   -4.5047    3.1050   -0.3549 C   0  0  0  0  0  0  0  0  0  0  0  0
   -3.6158    2.0249   -0.3837 C   0  0  0  0  0  0  0  0  0  0  0  0
    2.2304    0.1438    0.0978 C   0  0  0  0  0  0  0  0  0  0  0  0
    3.0090    0.9659   -0.6956 C   0  0  0  0  0  0  0  0  0  0  0  0
    4.3683    0.9131   -0.6074 C   0  0  0  0  0  0  0  0  0  0  0  0
    5.2428    1.7776   -1.4403 C   0  0  0  0  0  0  0  0  0  0  0  0
    4.9587    0.0601    0.2529 N   0  0  0  0  0  0  0  0  0  0  0  0
    4.2100   -0.7428    1.0282 C   0  0  0  0  0  0  0  0  0  0  0  0
    4.8348   -1.7060    1.9984 C   0  0  0  0  0  0  0  0  0  0  0  0
    2.8247   -0.7138    0.9627 C   0  0  0  0  0  0  0  0  0  0  0  0
   -3.3061   -4.0049    1.1391 H   0  0  0  0  0  0  0  0  0  0  0  0
   -4.2049   -2.4606    1.0171 H   0  0  0  0  0  0  0  0  0  0  0  0
   -4.1538   -3.5892   -0.4159 H   0  0  0  0  0  0  0  0  0  0  0  0
   -1.6199   -2.4966    0.8368 H   0  0  0  0  0  0  0  0  0  0  0  0
   -3.3679   -0.6158    0.5275 H   0  0  0  0  0  0  0  0  0  0  0  0
   -3.1000   -0.9425   -1.2354 H   0  0  0  0  0  0  0  0  0  0  0  0
    1.4122   -2.2317   -0.5653 H   0  0  0  0  0  0  0  0  0  0  0  0
    0.3582   -2.6609    0.7791 H   0  0  0  0  0  0  0  0  0  0  0  0
   -0.1078   -2.7986   -2.1880 H   0  0  0  0  0  0  0  0  0  0  0  0
   -0.2043   -4.1330   -0.9534 H   0  0  0  0  0  0  0  0  0  0  0  0
   -0.8819    3.5751    0.6984 H   0  0  0  0  0  0  0  0  0  0  0  0
   -2.4617    5.4680    0.7414 H   0  0  0  0  0  0  0  0  0  0  0  0
   -5.5194    2.9127   -0.6640 H   0  0  0  0  0  0  0  0  0  0  0  0
   -4.0314    1.1007   -0.7436 H   0  0  0  0  0  0  0  0  0  0  0  0
    2.5655    1.6709   -1.4055 H   0  0  0  0  0  0  0  0  0  0  0  0
    6.0521    1.1685   -1.9224 H   0  0  0  0  0  0  0  0  0  0  0  0
    4.6559    2.2215   -2.2793 H   0  0  0  0  0  0  0  0  0  0  0  0
    5.7234    2.5669   -0.8457 H   0  0  0  0  0  0  0  0  0  0  0  0
    4.2833   -1.6480    2.9671 H   0  0  0  0  0  0  0  0  0  0  0  0
    4.7502   -2.7318    1.5850 H   0  0  0  0  0  0  0  0  0  0  0  0
    5.8936   -1.3985    2.1180 H   0  0  0  0  0  0  0  0  0  0  0  0
    2.2428   -1.3801    1.6071 H   0  0  0  0  0  0  0  0  0  0  0  0
  1  2  1  0
  2  3  1  0
  3  4  1  0
  4  5  1  0
  5  6  1  0
  6  7  1  0
  7  8  1  0
  5  9  2  0
  9 10  1  0
 10 11  2  0
 11 12  1  0
 12 13  2  0
 13 14  1  0
 14 15  2  0
 15 16  1  0
 15 17  1  0
 17 18  2  0
  9 19  1  0
 19 20  2  0
 20 21  1  0
 21 22  1  0
 21 23  2  0
 23 24  1  0
 24 25  1  0
 24 26  2  0
  8  2  1  0
 18 12  1  0
 26 19  1  0
 11  4  1  0
  1 27  1  0
  1 28  1  0
  1 29  1  0
  2 30  1  1
  3 31  1  0
  3 32  1  0
  6 33  1  0
  6 34  1  0
  7 35  1  0
  7 36  1  0
 13 37  1  0
 14 38  1  0
 17 39  1  0
 18 40  1  0
 20 41  1  0
 22 42  1  0
 22 43  1  0
 22 44  1  0
 25 45  1  0
 25 46  1  0
 25 47  1  0
 26 48  1  0
M  END
$$$$
[H]c1c([H])c(-c2nc(-c3c([H])c(C([H])([H])[H])nc(C([H])([H])F)c3[H])c3n2C([H])([H])[C@@]([H])(C([H])([H])[H])OC([H])([H])C3([H])[H])c([H])c(Cl)c1Cl
     RDKit          3D

 48 51  0  0  0  0  0  0  0  0999 V2000
   -3.4495   -3.3870    0.2561 C   0  0  0  0  0  0  0  0  0  0  0  0
   -2.0832   -2.7114    0.0026 C   0  0  2  0  0  0  0  0  0  0  0  0
   -2.4765   -1.2502   -0.2848 C   0  0  0  0  0  0  0  0  0  0  0  0
   -1.3204   -0.4054   -0.1855 N   0  0  0  0  0  0  0  0  0  0  0  0
    0.0026   -0.7964   -0.2208 C   0  0  0  0  0  0  0  0  0  0  0  0
    0.4362   -2.1916   -0.3818 C   0  0  0  0  0  0  0  0  0  0  0  0
   -0.3162   -2.9008   -1.4795 C   0  0  0  0  0  0  0  0  0  0  0  0
   -1.5565   -3.3502   -1.0798 O   0  0  0  0  0  0  0  0  0  0  0  0
    0.8097    0.2778   -0.0604 C   0  0  0  0  0  0  0  0  0  0  0  0
   -0.0309    1.3303    0.0745 N   0  0  0  0  0  0  0  0  0  0  0  0
   -1.3292    0.9091   -0.0042 C   0  0  0  0  0  0  0  0  0  0  0  0
   -2.4202    1.8630    0.1496 C   0  0  0  0  0  0  0  0  0  0  0  0
   -2.1310    3.1309    0.6772 C   0  0  0  0  0  0  0  0  0  0  0  0
   -3.0515    4.1332    0.8374 C   0  0  0  0  0  0  0  0  0  0  0  0
   -4.3392    3.8453    0.4444 C   0  0  0  0  0  0  0  0  0  0  0  0
   -5.5847    5.0718    0.6149 Cl  0  0  0  0  0  0  0  0  0  0  0  0
   -4.6662    2.6268   -0.0743 C   0  0  0  0  0  0  0  0  0  0  0  0
   -6.3226    2.2599   -0.5786 Cl  0  0  0  0  0  0  0  0  0  0  0  0
   -3.6997    1.6288   -0.2234 C   0  0  0  0  0  0  0  0  0  0  0  0
    2.2603    0.3335   -0.0058 C   0  0  0  0  0  0  0  0  0  0  0  0
    3.0660   -0.1767   -0.9703 C   0  0  0  0  0  0  0  0  0  0  0  0
    4.4633   -0.1029   -0.8359 C   0  0  0  0  0  0  0  0  0  0  0  0
    5.3409   -0.6580   -1.8837 C   0  0  0  0  0  0  0  0  0  0  0  0
    5.0224    0.4728    0.2461 N   0  0  0  0  0  0  0  0  0  0  0  0
    4.2414    0.9864    1.2154 C   0  0  0  0  0  0  0  0  0  0  0  0
    4.8367    1.6236    2.4122 C   0  0  0  0  0  0  0  0  0  0  0  0
    5.0337    2.9943    2.1976 F   0  0  0  0  0  0  0  0  0  0  0  0
    2.8501    0.9190    1.0938 C   0  0  0  0  0  0  0  0  0  0  0  0
   -4.1411   -2.9916   -0.5137 H   0  0  0  0  0  0  0  0  0  0  0  0
   -3.3570   -4.4734    0.0734 H   0  0  0  0  0  0  0  0  0  0  0  0
   -3.8315   -3.1379    1.2594 H   0  0  0  0  0  0  0  0  0  0  0  0
   -1.5576   -2.8204    0.9586 H   0  0  0  0  0  0  0  0  0  0  0  0
   -3.1634   -0.9965    0.5589 H   0  0  0  0  0  0  0  0  0  0  0  0
   -2.9621   -1.2785   -1.2534 H   0  0  0  0  0  0  0  0  0  0  0  0
    0.3916   -2.7625    0.5853 H   0  0  0  0  0  0  0  0  0  0  0  0
    1.4958   -2.2277   -0.6647 H   0  0  0  0  0  0  0  0  0  0  0  0
   -0.4498   -2.1788   -2.3126 H   0  0  0  0  0  0  0  0  0  0  0  0
    0.2652   -3.7661   -1.8405 H   0  0  0  0  0  0  0  0  0  0  0  0
   -1.1131    3.3592    0.9901 H   0  0  0  0  0  0  0  0  0  0  0  0
   -2.8080    5.1027    1.2470 H   0  0  0  0  0  0  0  0  0  0  0  0
   -4.0372    0.6800   -0.6789 H   0  0  0  0  0  0  0  0  0  0  0  0
    2.6619   -0.6245   -1.8452 H   0  0  0  0  0  0  0  0  0  0  0  0
    6.1648   -1.2207   -1.3647 H   0  0  0  0  0  0  0  0  0  0  0  0
    4.7591   -1.3495   -2.5204 H   0  0  0  0  0  0  0  0  0  0  0  0
    5.7526    0.1746   -2.4697 H   0  0  0  0  0  0  0  0  0  0  0  0
    5.8379    1.2083    2.6070 H   0  0  0  0  0  0  0  0  0  0  0  0
    4.2183    1.4762    3.3225 H   0  0  0  0  0  0  0  0  0  0  0  0
    2.2876    1.3510    1.9088 H   0  0  0  0  0  0  0  0  0  0  0  0
  1  2  1  0
  2  3  1  0
  3  4  1  0
  4  5  1  0
  5  6  1  0
  6  7  1  0
  7  8  1  0
  5  9  2  0
  9 10  1  0
 10 11  2  0
 11 12  1  0
 12 13  2  0
 13 14  1  0
 14 15  2  0
 15 16  1  0
 15 17  1  0
 17 18  1  0
 17 19  2  0
  9 20  1  0
 20 21  2  0
 21 22  1  0
 22 23  1  0
 22 24  2  0
 24 25  1  0
 25 26  1  0
 26 27  1  0
 25 28  2  0
  8  2  1  0
 19 12  1  0
 28 20  1  0
 11  4  1  0
  1 29  1  0
  1 30  1  0
  1 31  1  0
  2 32  1  1
  3 33  1  0
  3 34  1  0
  6 35  1  0
  6 36  1  0
  7 37  1  0
  7 38  1  0
 13 39  1  0
 14 40  1  0
 19 41  1  0
 21 42  1  0
 23 43  1  0
 23 44  1  0
 23 45  1  0
 26 46  1  0
 26 47  1  0
 28 48  1  0
M  END
$$$$
[H]c1c([H])c(-c2nc(-c3c([H])c(C([H])([H])[H])nc(C([H])([H])F)c3[H])c3n2C([H])([H])[C@@]([H])(C([H])([H])[H])OC([H])([H])C3([H])[H])c([H])c(Cl)c1F
     RDKit          3D

 48 51  0  0  0  0  0  0  0  0999 V2000
   -3.4877   -3.3640    0.1300 C   0  0  0  0  0  0  0  0  0  0  0  0
   -2.1233   -2.6769   -0.1024 C   0  0  2  0  0  0  0  0  0  0  0  0
   -2.5188   -1.2030   -0.3076 C   0  0  0  0  0  0  0  0  0  0  0  0
   -1.3395   -0.3740   -0.1823 N   0  0  0  0  0  0  0  0  0  0  0  0
   -0.0233   -0.7773   -0.2467 C   0  0  0  0  0  0  0  0  0  0  0  0
    0.3944   -2.1706   -0.4746 C   0  0  0  0  0  0  0  0  0  0  0  0
   -0.3715   -2.8128   -1.6068 C   0  0  0  0  0  0  0  0  0  0  0  0
   -1.6195   -3.2575   -1.2314 O   0  0  0  0  0  0  0  0  0  0  0  0
    0.8021    0.2755   -0.0470 C   0  0  0  0  0  0  0  0  0  0  0  0
   -0.0234    1.3338    0.1425 N   0  0  0  0  0  0  0  0  0  0  0  0
   -1.3274    0.9338    0.0575 C   0  0  0  0  0  0  0  0  0  0  0  0
   -2.4079    1.8894    0.2626 C   0  0  0  0  0  0  0  0  0  0  0  0
   -2.0973    3.1306    0.8435 C   0  0  0  0  0  0  0  0  0  0  0  0
   -3.0067    4.1303    1.0546 C   0  0  0  0  0  0  0  0  0  0  0  0
   -4.3019    3.8731    0.6613 C   0  0  0  0  0  0  0  0  0  0  0  0
   -5.2378    4.8342    0.8512 F   0  0  0  0  0  0  0  0  0  0  0  0
   -4.6498    2.6802    0.0911 C   0  0  0  0  0  0  0  0  0  0  0  0
   -6.3099    2.3442   -0.4155 Cl  0  0  0  0  0  0  0  0  0  0  0  0
   -3.6932    1.6787   -0.1108 C   0  0  0  0  0  0  0  0  0  0  0  0
    2.2555    0.3164   -0.0025 C   0  0  0  0  0  0  0  0  0  0  0  0
    3.0548   -0.1614   -0.9965 C   0  0  0  0  0  0  0  0  0  0  0  0
    4.4485   -0.1067   -0.8765 C   0  0  0  0  0  0  0  0  0  0  0  0
    5.3225   -0.6269   -1.9570 C   0  0  0  0  0  0  0  0  0  0  0  0
    5.0178    0.4188    0.2211 N   0  0  0  0  0  0  0  0  0  0  0  0
    4.2560    0.8980    1.2165 C   0  0  0  0  0  0  0  0  0  0  0  0
    4.8770    1.4770    2.4252 C   0  0  0  0  0  0  0  0  0  0  0  0
    5.0910    2.8486    2.2741 F   0  0  0  0  0  0  0  0  0  0  0  0
    2.8615    0.8506    1.1126 C   0  0  0  0  0  0  0  0  0  0  0  0
   -4.2607   -2.8786   -0.5007 H   0  0  0  0  0  0  0  0  0  0  0  0
   -3.4056   -4.4096   -0.1884 H   0  0  0  0  0  0  0  0  0  0  0  0
   -3.7600   -3.2685    1.2078 H   0  0  0  0  0  0  0  0  0  0  0  0
   -1.5827   -2.8124    0.8264 H   0  0  0  0  0  0  0  0  0  0  0  0
   -3.2121   -1.0021    0.5496 H   0  0  0  0  0  0  0  0  0  0  0  0
   -2.9940   -1.1858   -1.2830 H   0  0  0  0  0  0  0  0  0  0  0  0
    0.3662   -2.7939    0.4589 H   0  0  0  0  0  0  0  0  0  0  0  0
    1.4499   -2.1938   -0.7786 H   0  0  0  0  0  0  0  0  0  0  0  0
   -0.5110   -2.0358   -2.3892 H   0  0  0  0  0  0  0  0  0  0  0  0
    0.2234   -3.6245   -2.0571 H   0  0  0  0  0  0  0  0  0  0  0  0
   -1.0734    3.3395    1.1586 H   0  0  0  0  0  0  0  0  0  0  0  0
   -2.7687    5.0800    1.5003 H   0  0  0  0  0  0  0  0  0  0  0  0
   -4.0438    0.7618   -0.6005 H   0  0  0  0  0  0  0  0  0  0  0  0
    2.6582   -0.5817   -1.9097 H   0  0  0  0  0  0  0  0  0  0  0  0
    5.9600   -1.4339   -1.5101 H   0  0  0  0  0  0  0  0  0  0  0  0
    4.6918   -1.0547   -2.7638 H   0  0  0  0  0  0  0  0  0  0  0  0
    5.9853    0.1590   -2.3717 H   0  0  0  0  0  0  0  0  0  0  0  0
    5.8636    1.0070    2.5799 H   0  0  0  0  0  0  0  0  0  0  0  0
    4.2562    1.2914    3.3332 H   0  0  0  0  0  0  0  0  0  0  0  0
    2.3154    1.2544    1.9519 H   0  0  0  0  0  0  0  0  0  0  0  0
  1  2  1  0
  2  3  1  0
  3  4  1  0
  4  5  1  0
  5  6  1  0
  6  7  1  0
  7  8  1  0
  5  9  2  0
  9 10  1  0
 10 11  2  0
 11 12  1  0
 12 13  2  0
 13 14  1  0
 14 15  2  0
 15 16  1  0
 15 17  1  0
 17 18  1  0
 17 19  2  0
  9 20  1  0
 20 21  2  0
 21 22  1  0
 22 23  1  0
 22 24  2  0
 24 25  1  0
 25 26  1  0
 26 27  1  0
 25 28  2  0
  8  2  1  0
 19 12  1  0
 28 20  1  0
 11  4  1  0
  1 29  1  0
  1 30  1  0
  1 31  1  0
  2 32  1  1
  3 33  1  0
  3 34  1  0
  6 35  1  0
  6 36  1  0
  7 37  1  0
  7 38  1  0
 13 39  1  0
 14 40  1  0
 19 41  1  0
 21 42  1  0
 23 43  1  0
 23 44  1  0
 23 45  1  0
 26 46  1  0
 26 47  1  0
 28 48  1  0
M  END
$$$$
[H]c1c([H])c(-c2c([H])c(C(=O)N([H])[H])nc3c([H])c(C([H])([H])N4C(=O)C([H])([H])C([H])([H])C4=O)c([H])c([H])c23)c([H])c([H])c1F
     RDKit          3D

 44 47  0  0  0  0  0  0  0  0999 V2000
   -1.0585    5.2359    0.1011 N   0  0  0  0  0  0  0  0  0  0  0  0
   -2.0056    4.2104    0.3384 C   0  0  0  0  0  0  0  0  0  0  0  0
   -3.1570    4.4833    0.7480 O   0  0  0  0  0  0  0  0  0  0  0  0
   -1.6737    2.8011    0.1143 C   0  0  0  0  0  0  0  0  0  0  0  0
   -2.5696    1.7918    0.3356 C   0  0  0  0  0  0  0  0  0  0  0  0
   -2.2640    0.4389    0.1247 C   0  0  0  0  0  0  0  0  0  0  0  0
   -3.2818   -0.5558    0.3451 C   0  0  0  0  0  0  0  0  0  0  0  0
   -3.6877   -1.4194   -0.6365 C   0  0  0  0  0  0  0  0  0  0  0  0
   -4.6693   -2.3781   -0.4225 C   0  0  0  0  0  0  0  0  0  0  0  0
   -5.2351   -2.4291    0.8500 C   0  0  0  0  0  0  0  0  0  0  0  0
   -6.1841   -3.3367    1.1012 F   0  0  0  0  0  0  0  0  0  0  0  0
   -4.8231   -1.5565    1.8374 C   0  0  0  0  0  0  0  0  0  0  0  0
   -3.8513   -0.6117    1.6155 C   0  0  0  0  0  0  0  0  0  0  0  0
   -0.9916    0.1679   -0.3242 C   0  0  0  0  0  0  0  0  0  0  0  0
   -0.5834   -1.1079   -0.5492 C   0  0  0  0  0  0  0  0  0  0  0  0
    0.6958   -1.4214   -0.9933 C   0  0  0  0  0  0  0  0  0  0  0  0
    1.5997   -0.4141   -1.2194 C   0  0  0  0  0  0  0  0  0  0  0  0
    2.9690   -0.7327   -1.6927 C   0  0  0  0  0  0  0  0  0  0  0  0
    3.8592   -0.8269   -0.5468 N   0  0  0  0  0  0  0  0  0  0  0  0
    4.1226   -2.0235    0.1735 C   0  0  0  0  0  0  0  0  0  0  0  0
    3.4294   -3.0711    0.2280 O   0  0  0  0  0  0  0  0  0  0  0  0
    5.4274   -1.7952    0.8810 C   0  0  0  0  0  0  0  0  0  0  0  0
    5.2875   -0.3238    1.2425 C   0  0  0  0  0  0  0  0  0  0  0  0
    4.6113    0.2551    0.0424 C   0  0  0  0  0  0  0  0  0  0  0  0
    4.6776    1.4384   -0.3757 O   0  0  0  0  0  0  0  0  0  0  0  0
    1.1910    0.8826   -0.9914 C   0  0  0  0  0  0  0  0  0  0  0  0
   -0.0876    1.1970   -0.5471 C   0  0  0  0  0  0  0  0  0  0  0  0
   -0.4476    2.4765   -0.3246 N   0  0  0  0  0  0  0  0  0  0  0  0
   -0.2866    5.1383   -0.6231 H   0  0  0  0  0  0  0  0  0  0  0  0
   -1.1161    6.1254    0.6568 H   0  0  0  0  0  0  0  0  0  0  0  0
   -3.5537    2.0546    0.6882 H   0  0  0  0  0  0  0  0  0  0  0  0
   -3.2263   -1.3466   -1.6026 H   0  0  0  0  0  0  0  0  0  0  0  0
   -4.9552   -3.0330   -1.2205 H   0  0  0  0  0  0  0  0  0  0  0  0
   -5.2613   -1.5999    2.8138 H   0  0  0  0  0  0  0  0  0  0  0  0
   -3.5215    0.0768    2.3830 H   0  0  0  0  0  0  0  0  0  0  0  0
   -1.2490   -1.9302   -0.3727 H   0  0  0  0  0  0  0  0  0  0  0  0
    0.9670   -2.4562   -1.1580 H   0  0  0  0  0  0  0  0  0  0  0  0
    2.9934   -1.6575   -2.3149 H   0  0  0  0  0  0  0  0  0  0  0  0
    3.3605    0.0817   -2.3567 H   0  0  0  0  0  0  0  0  0  0  0  0
    5.5040   -2.4481    1.7495 H   0  0  0  0  0  0  0  0  0  0  0  0
    6.2698   -1.9239    0.1595 H   0  0  0  0  0  0  0  0  0  0  0  0
    6.2671    0.1486    1.4272 H   0  0  0  0  0  0  0  0  0  0  0  0
    4.6090   -0.2855    2.1196 H   0  0  0  0  0  0  0  0  0  0  0  0
    1.8994    1.6804   -1.1678 H   0  0  0  0  0  0  0  0  0  0  0  0
  1  2  1  0
  2  3  2  0
  2  4  1  0
  4  5  2  0
  5  6  1  0
  6  7  1  0
  7  8  2  0
  8  9  1  0
  9 10  2  0
 10 11  1  0
 10 12  1  0
 12 13  2  0
  6 14  2  0
 14 15  1  0
 15 16  2  0
 16 17  1  0
 17 18  1  0
 18 19  1  0
 19 20  1  0
 20 21  2  0
 20 22  1  0
 22 23  1  0
 23 24  1  0
 24 25  2  0
 17 26  2  0
 26 27  1  0
 27 28  2  0
 28  4  1  0
 13  7  1  0
 27 14  1  0
 24 19  1  0
  1 29  1  0
  1 30  1  0
  5 31  1  0
  8 32  1  0
  9 33  1  0
 12 34  1  0
 13 35  1  0
 15 36  1  0
 16 37  1  0
 18 38  1  0
 18 39  1  0
 22 40  1  0
 22 41  1  0
 23 42  1  0
 23 43  1  0
 26 44  1  0
M  END
$$$$
[H]c1c([H])c(-c2nc(-c3c([H])c(C([H])([H])[H])nc(C([H])([H])F)c3[H])c3n2C([H])([H])[C@@]([H])(C([H])([H])[H])OC([H])([H])C3([H])[H])c([H])c(Cl)c1OC([H])(F)F
     RDKit          3D

 52 55  0  0  0  0  0  0  0  0999 V2000
    0.6403    3.8422   -1.0624 C   0  0  0  0  0  0  0  0  0  0  0  0
    0.7243    3.5714    0.4268 C   0  0  2  0  0  0  0  0  0  0  0  0
    1.2970    2.2158    0.7187 C   0  0  0  0  0  0  0  0  0  0  0  0
    0.4956    1.0909    0.4033 N   0  0  0  0  0  0  0  0  0  0  0  0
   -0.8681    1.0130    0.2615 C   0  0  0  0  0  0  0  0  0  0  0  0
   -1.7748    2.1582    0.4489 C   0  0  0  0  0  0  0  0  0  0  0  0
   -1.2196    2.9958    1.5875 C   0  0  0  0  0  0  0  0  0  0  0  0
   -0.4217    3.9405    1.0123 O   0  0  0  0  0  0  0  0  0  0  0  0
   -1.2475   -0.2312   -0.0857 C   0  0  0  0  0  0  0  0  0  0  0  0
   -0.1117   -0.9316   -0.1608 N   0  0  0  0  0  0  0  0  0  0  0  0
    0.9567   -0.1305    0.1386 C   0  0  0  0  0  0  0  0  0  0  0  0
    2.3011   -0.7079    0.0814 C   0  0  0  0  0  0  0  0  0  0  0  0
    2.4816   -1.9253   -0.5884 C   0  0  0  0  0  0  0  0  0  0  0  0
    3.6943   -2.5354   -0.6355 C   0  0  0  0  0  0  0  0  0  0  0  0
    4.8269   -1.9901   -0.0235 C   0  0  0  0  0  0  0  0  0  0  0  0
    5.9720   -2.6491   -0.1175 O   0  0  0  0  0  0  0  0  0  0  0  0
    7.2740   -2.6070    0.2417 C   0  0  0  0  0  0  0  0  0  0  0  0
    7.6415   -3.7343    1.0151 F   0  0  0  0  0  0  0  0  0  0  0  0
    8.1068   -2.6719   -0.9093 F   0  0  0  0  0  0  0  0  0  0  0  0
    4.6425   -0.8028    0.6285 C   0  0  0  0  0  0  0  0  0  0  0  0
    5.9527    0.0348    1.4576 Cl  0  0  0  0  0  0  0  0  0  0  0  0
    3.3893   -0.1627    0.6837 C   0  0  0  0  0  0  0  0  0  0  0  0
   -2.5879   -0.7616   -0.3618 C   0  0  0  0  0  0  0  0  0  0  0  0
   -3.6349   -0.6165    0.5155 C   0  0  0  0  0  0  0  0  0  0  0  0
   -4.8717   -1.1173    0.1920 C   0  0  0  0  0  0  0  0  0  0  0  0
   -5.9851   -0.9461    1.1573 C   0  0  0  0  0  0  0  0  0  0  0  0
   -5.0376   -1.7440   -0.9815 N   0  0  0  0  0  0  0  0  0  0  0  0
   -4.0488   -1.9131   -1.8734 C   0  0  0  0  0  0  0  0  0  0  0  0
   -4.3359   -2.6258   -3.1523 C   0  0  0  0  0  0  0  0  0  0  0  0
   -4.7357   -1.6649   -4.0835 F   0  0  0  0  0  0  0  0  0  0  0  0
   -2.8187   -1.4169   -1.5564 C   0  0  0  0  0  0  0  0  0  0  0  0
    1.5343    4.3201   -1.4577 H   0  0  0  0  0  0  0  0  0  0  0  0
    0.4518    2.8608   -1.5653 H   0  0  0  0  0  0  0  0  0  0  0  0
   -0.2424    4.4956   -1.2860 H   0  0  0  0  0  0  0  0  0  0  0  0
    1.5099    4.3198    0.7804 H   0  0  0  0  0  0  0  0  0  0  0  0
    1.7200    2.2438    1.7389 H   0  0  0  0  0  0  0  0  0  0  0  0
    2.1890    2.1605    0.0191 H   0  0  0  0  0  0  0  0  0  0  0  0
   -1.7016    2.7500   -0.5188 H   0  0  0  0  0  0  0  0  0  0  0  0
   -2.8190    1.8968    0.5905 H   0  0  0  0  0  0  0  0  0  0  0  0
   -2.0917    3.4627    2.1009 H   0  0  0  0  0  0  0  0  0  0  0  0
   -0.6715    2.3048    2.2673 H   0  0  0  0  0  0  0  0  0  0  0  0
    1.6310   -2.4102   -1.0952 H   0  0  0  0  0  0  0  0  0  0  0  0
    3.8334   -3.4757   -1.1534 H   0  0  0  0  0  0  0  0  0  0  0  0
    7.6220   -1.7465    0.8384 H   0  0  0  0  0  0  0  0  0  0  0  0
    3.3597    0.7485    1.2512 H   0  0  0  0  0  0  0  0  0  0  0  0
   -3.5055   -0.1185    1.4866 H   0  0  0  0  0  0  0  0  0  0  0  0
   -6.5753   -1.8864    1.1314 H   0  0  0  0  0  0  0  0  0  0  0  0
   -5.6092   -0.7778    2.1836 H   0  0  0  0  0  0  0  0  0  0  0  0
   -6.6375   -0.1120    0.8048 H   0  0  0  0  0  0  0  0  0  0  0  0
   -3.4549   -3.1842   -3.5162 H   0  0  0  0  0  0  0  0  0  0  0  0
   -5.2214   -3.2741   -2.9943 H   0  0  0  0  0  0  0  0  0  0  0  0
   -2.0179   -1.5546   -2.2801 H   0  0  0  0  0  0  0  0  0  0  0  0
  1  2  1  0
  2  3  1  0
  3  4  1  0
  4  5  1  0
  5  6  1  0
  6  7  1  0
  7  8  1  0
  5  9  2  0
  9 10  1  0
 10 11  2  0
 11 12  1  0
 12 13  2  0
 13 14  1  0
 14 15  2  0
 15 16  1  0
 16 17  1  0
 17 18  1  0
 17 19  1  0
 15 20  1  0
 20 21  1  0
 20 22  2  0
  9 23  1  0
 23 24  2  0
 24 25  1  0
 25 26  1  0
 25 27  2  0
 27 28  1  0
 28 29  1  0
 29 30  1  0
 28 31  2  0
  8  2  1  0
 22 12  1  0
 31 23  1  0
 11  4  1  0
  1 32  1  0
  1 33  1  0
  1 34  1  0
  2 35  1  1
  3 36  1  0
  3 37  1  0
  6 38  1  0
  6 39  1  0
  7 40  1  0
  7 41  1  0
 13 42  1  0
 14 43  1  0
 17 44  1  0
 22 45  1  0
 24 46  1  0
 26 47  1  0
 26 48  1  0
 26 49  1  0
 29 50  1  0
 29 51  1  0
 31 52  1  0
M  END
$$$$
[H]c1c([H])c(-c2nc(-c3c([H])c(C([H])([H])[H])nc(C([H])([H])[H])c3[H])c3n2C([H])([H])[C@@]([H])(C([H])([H])[H])OC([H])([H])C3([H])[H])c([H])c(OC([H])([H])[H])c1F
     RDKit          3D

 52 55  0  0  0  0  0  0  0  0999 V2000
    3.6406    4.2381   -0.3164 C   0  0  0  0  0  0  0  0  0  0  0  0
    4.6811    3.4700    0.2565 O   0  0  0  0  0  0  0  0  0  0  0  0
    4.3794    2.1415    0.5801 C   0  0  0  0  0  0  0  0  0  0  0  0
    3.1461    1.5976    0.3601 C   0  0  0  0  0  0  0  0  0  0  0  0
    2.7942    0.2699    0.6672 C   0  0  0  0  0  0  0  0  0  0  0  0
    3.7708   -0.4975    1.2215 C   0  0  0  0  0  0  0  0  0  0  0  0
    5.0560    0.0180    1.4662 C   0  0  0  0  0  0  0  0  0  0  0  0
    5.3287    1.3176    1.1417 C   0  0  0  0  0  0  0  0  0  0  0  0
    6.5605    1.8332    1.3693 F   0  0  0  0  0  0  0  0  0  0  0  0
    1.4084   -0.1515    0.4310 C   0  0  0  0  0  0  0  0  0  0  0  0
    0.3959    0.7722    0.2909 N   0  0  0  0  0  0  0  0  0  0  0  0
   -0.7756    0.1722    0.0574 C   0  0  0  0  0  0  0  0  0  0  0  0
   -0.5379   -1.1694    0.0428 C   0  0  0  0  0  0  0  0  0  0  0  0
   -1.5516   -2.2447   -0.1295 C   0  0  0  0  0  0  0  0  0  0  0  0
   -1.2224   -3.0146   -1.3646 C   0  0  0  0  0  0  0  0  0  0  0  0
    0.0886   -3.2558   -1.5695 O   0  0  0  0  0  0  0  0  0  0  0  0
    0.8535   -3.6805   -0.5480 C   0  0  2  0  0  0  0  0  0  0  0  0
    0.3300   -4.7162    0.3754 C   0  0  0  0  0  0  0  0  0  0  0  0
    1.5310   -2.5688    0.2648 C   0  0  0  0  0  0  0  0  0  0  0  0
    0.8079   -1.3292    0.2702 N   0  0  0  0  0  0  0  0  0  0  0  0
   -2.0723    0.8555   -0.1338 C   0  0  0  0  0  0  0  0  0  0  0  0
   -2.8925    0.5652   -1.1925 C   0  0  0  0  0  0  0  0  0  0  0  0
   -4.1223    1.2134   -1.3624 C   0  0  0  0  0  0  0  0  0  0  0  0
   -4.9940    0.8724   -2.5295 C   0  0  0  0  0  0  0  0  0  0  0  0
   -4.4787    2.1345   -0.4529 N   0  0  0  0  0  0  0  0  0  0  0  0
   -3.7196    2.4639    0.6059 C   0  0  0  0  0  0  0  0  0  0  0  0
   -4.1246    3.4876    1.6091 C   0  0  0  0  0  0  0  0  0  0  0  0
   -2.5001    1.8134    0.7645 C   0  0  0  0  0  0  0  0  0  0  0  0
    3.4604    3.9760   -1.3757 H   0  0  0  0  0  0  0  0  0  0  0  0
    3.9897    5.2996   -0.2970 H   0  0  0  0  0  0  0  0  0  0  0  0
    2.7392    4.1988    0.3150 H   0  0  0  0  0  0  0  0  0  0  0  0
    2.3829    2.2247   -0.0823 H   0  0  0  0  0  0  0  0  0  0  0  0
    3.5677   -1.5185    1.5219 H   0  0  0  0  0  0  0  0  0  0  0  0
    5.7644   -0.6581    1.9045 H   0  0  0  0  0  0  0  0  0  0  0  0
   -2.5567   -1.7992   -0.2089 H   0  0  0  0  0  0  0  0  0  0  0  0
   -1.5203   -2.9361    0.7725 H   0  0  0  0  0  0  0  0  0  0  0  0
   -1.8813   -3.9098   -1.3947 H   0  0  0  0  0  0  0  0  0  0  0  0
   -1.5864   -2.3845   -2.2337 H   0  0  0  0  0  0  0  0  0  0  0  0
    1.7430   -4.1969   -1.0633 H   0  0  0  0  0  0  0  0  0  0  0  0
    0.9653   -5.6425    0.4528 H   0  0  0  0  0  0  0  0  0  0  0  0
   -0.6833   -5.0898    0.1420 H   0  0  0  0  0  0  0  0  0  0  0  0
    0.2989   -4.3416    1.4410 H   0  0  0  0  0  0  0  0  0  0  0  0
    2.5278   -2.3538   -0.1986 H   0  0  0  0  0  0  0  0  0  0  0  0
    1.7028   -2.8894    1.3004 H   0  0  0  0  0  0  0  0  0  0  0  0
   -2.6127   -0.1703   -1.9320 H   0  0  0  0  0  0  0  0  0  0  0  0
   -4.3114    0.5560   -3.3564 H   0  0  0  0  0  0  0  0  0  0  0  0
   -5.5247    1.7734   -2.9031 H   0  0  0  0  0  0  0  0  0  0  0  0
   -5.6579    0.0387   -2.2777 H   0  0  0  0  0  0  0  0  0  0  0  0
   -4.1956    2.9781    2.6031 H   0  0  0  0  0  0  0  0  0  0  0  0
   -3.3897    4.2925    1.7280 H   0  0  0  0  0  0  0  0  0  0  0  0
   -5.1205    3.8781    1.3602 H   0  0  0  0  0  0  0  0  0  0  0  0
   -1.8826    2.0665    1.6063 H   0  0  0  0  0  0  0  0  0  0  0  0
  1  2  1  0
  2  3  1  0
  3  4  2  0
  4  5  1  0
  5  6  2  0
  6  7  1  0
  7  8  2  0
  8  9  1  0
  5 10  1  0
 10 11  2  0
 11 12  1  0
 12 13  2  0
 13 14  1  0
 14 15  1  0
 15 16  1  0
 16 17  1  0
 17 18  1  0
 17 19  1  0
 19 20  1  0
 12 21  1  0
 21 22  2  0
 22 23  1  0
 23 24  1  0
 23 25  2  0
 25 26  1  0
 26 27  1  0
 26 28  2  0
  8  3  1  0
 20 10  1  0
 28 21  1  0
 20 13  1  0
  1 29  1  0
  1 30  1  0
  1 31  1  0
  4 32  1  0
  6 33  1  0
  7 34  1  0
 14 35  1  0
 14 36  1  0
 15 37  1  0
 15 38  1  0
 17 39  1  6
 18 40  1  0
 18 41  1  0
 18 42  1  0
 19 43  1  0
 19 44  1  0
 22 45  1  0
 24 46  1  0
 24 47  1  0
 24 48  1  0
 27 49  1  0
 27 50  1  0
 27 51  1  0
 28 52  1  0
M  END
$$$$
[H]c1c([H])c(-c2nc(-c3c([H])c(C([H])([H])[H])nc(C([H])([H])F)c3[H])c3n2C([H])([H])[C@@]([H])(C([H])([H])[H])OC([H])([H])C3([H])[H])c([H])c(C([H])([H])[H])c1F
     RDKit          3D

 51 54  0  0  0  0  0  0  0  0999 V2000
   -3.0690    3.1960    1.6601 C   0  0  0  0  0  0  0  0  0  0  0  0
   -1.7356    2.5447    1.3195 C   0  0  2  0  0  0  0  0  0  0  0  0
   -2.0020    1.0753    1.0938 C   0  0  0  0  0  0  0  0  0  0  0  0
   -0.8395    0.3978    0.5445 N   0  0  0  0  0  0  0  0  0  0  0  0
    0.4791    0.6780    0.7718 C   0  0  0  0  0  0  0  0  0  0  0  0
    1.1280    1.6366    1.6689 C   0  0  0  0  0  0  0  0  0  0  0  0
    0.4169    2.9462    1.6903 C   0  0  0  0  0  0  0  0  0  0  0  0
   -0.8151    2.7193    2.3297 O   0  0  0  0  0  0  0  0  0  0  0  0
    1.1705   -0.2102   -0.0466 C   0  0  0  0  0  0  0  0  0  0  0  0
    0.2918   -0.9544   -0.7003 N   0  0  0  0  0  0  0  0  0  0  0  0
   -0.9688   -0.5947   -0.3442 C   0  0  0  0  0  0  0  0  0  0  0  0
   -2.1207   -1.2416   -0.9177 C   0  0  0  0  0  0  0  0  0  0  0  0
   -1.9654   -1.9052   -2.1540 C   0  0  0  0  0  0  0  0  0  0  0  0
   -2.9856   -2.6114   -2.7433 C   0  0  0  0  0  0  0  0  0  0  0  0
   -4.2175   -2.7024   -2.1454 C   0  0  0  0  0  0  0  0  0  0  0  0
   -5.1922   -3.4083   -2.7643 F   0  0  0  0  0  0  0  0  0  0  0  0
   -4.4240   -2.0762   -0.9403 C   0  0  0  0  0  0  0  0  0  0  0  0
   -5.7566   -2.1526   -0.2552 C   0  0  0  0  0  0  0  0  0  0  0  0
   -3.3710   -1.3722   -0.3728 C   0  0  0  0  0  0  0  0  0  0  0  0
    2.6066   -0.3315   -0.1930 C   0  0  0  0  0  0  0  0  0  0  0  0
    3.4417   -0.4169    0.8979 C   0  0  0  0  0  0  0  0  0  0  0  0
    4.8021   -0.5306    0.7155 C   0  0  0  0  0  0  0  0  0  0  0  0
    5.6358   -0.6175    1.9480 C   0  0  0  0  0  0  0  0  0  0  0  0
    5.3504   -0.5615   -0.5098 N   0  0  0  0  0  0  0  0  0  0  0  0
    4.5640   -0.4805   -1.5935 C   0  0  0  0  0  0  0  0  0  0  0  0
    5.1345   -0.5113   -2.9770 C   0  0  0  0  0  0  0  0  0  0  0  0
    5.1939   -1.8234   -3.4072 F   0  0  0  0  0  0  0  0  0  0  0  0
    3.2022   -0.3662   -1.4465 C   0  0  0  0  0  0  0  0  0  0  0  0
   -3.9102    2.4836    1.5923 H   0  0  0  0  0  0  0  0  0  0  0  0
   -3.0229    3.6559    2.6890 H   0  0  0  0  0  0  0  0  0  0  0  0
   -3.2665    4.0409    0.9762 H   0  0  0  0  0  0  0  0  0  0  0  0
   -1.3785    2.9828    0.3548 H   0  0  0  0  0  0  0  0  0  0  0  0
   -2.8043    1.0715    0.2887 H   0  0  0  0  0  0  0  0  0  0  0  0
   -2.3487    0.5539    1.9918 H   0  0  0  0  0  0  0  0  0  0  0  0
    1.1950    1.1747    2.6960 H   0  0  0  0  0  0  0  0  0  0  0  0
    2.1949    1.7761    1.3469 H   0  0  0  0  0  0  0  0  0  0  0  0
    0.2777    3.2930    0.6652 H   0  0  0  0  0  0  0  0  0  0  0  0
    0.9900    3.6626    2.3085 H   0  0  0  0  0  0  0  0  0  0  0  0
   -0.9818   -1.8225   -2.6218 H   0  0  0  0  0  0  0  0  0  0  0  0
   -2.8045   -3.0962   -3.6878 H   0  0  0  0  0  0  0  0  0  0  0  0
   -5.6149   -1.8975    0.8194 H   0  0  0  0  0  0  0  0  0  0  0  0
   -6.1305   -3.2062   -0.2847 H   0  0  0  0  0  0  0  0  0  0  0  0
   -6.4450   -1.4420   -0.7253 H   0  0  0  0  0  0  0  0  0  0  0  0
   -3.5745   -0.9357    0.5981 H   0  0  0  0  0  0  0  0  0  0  0  0
    3.0299   -0.3955    1.9237 H   0  0  0  0  0  0  0  0  0  0  0  0
    6.6540   -0.2581    1.7989 H   0  0  0  0  0  0  0  0  0  0  0  0
    5.1676    0.0237    2.7318 H   0  0  0  0  0  0  0  0  0  0  0  0
    5.6451   -1.6528    2.3124 H   0  0  0  0  0  0  0  0  0  0  0  0
    4.4547    0.0445   -3.6339 H   0  0  0  0  0  0  0  0  0  0  0  0
    6.1721   -0.0828   -2.9706 H   0  0  0  0  0  0  0  0  0  0  0  0
    2.5468   -0.2993   -2.2986 H   0  0  0  0  0  0  0  0  0  0  0  0
  1  2  1  0
  2  3  1  0
  3  4  1  0
  4  5  1  0
  5  6  1  0
  6  7  1  0
  7  8  1  0
  5  9  2  0
  9 10  1  0
 10 11  2  0
 11 12  1  0
 12 13  2  0
 13 14  1  0
 14 15  2  0
 15 16  1  0
 15 17  1  0
 17 18  1  0
 17 19  2  0
  9 20  1  0
 20 21  2  0
 21 22  1  0
 22 23  1  0
 22 24  2  0
 24 25  1  0
 25 26  1  0
 26 27  1  0
 25 28  2  0
  8  2  1  0
 19 12  1  0
 28 20  1  0
 11  4  1  0
  1 29  1  0
  1 30  1  0
  1 31  1  0
  2 32  1  6
  3 33  1  0
  3 34  1  0
  6 35  1  0
  6 36  1  0
  7 37  1  0
  7 38  1  0
 13 39  1  0
 14 40  1  0
 18 41  1  0
 18 42  1  0
 18 43  1  0
 19 44  1  0
 21 45  1  0
 23 46  1  0
 23 47  1  0
 23 48  1  0
 26 49  1  0
 26 50  1  0
 28 51  1  0
M  END
$$$$
[H]c1c(C([H])([H])[H])nc(C([H])([H])[H])c([H])c1-c1nc(-c2c([H])c([H])c(C([H])([H])[H])c(OC([H])([H])[H])c2[H])n2c1C([H])([H])C([H])([H])O[C@]([H])(C([H])([H])[H])C2([H])[H]
     RDKit          3D

 55 58  0  0  0  0  0  0  0  0999 V2000
   -2.9494   -3.7361    2.0762 C   0  0  0  0  0  0  0  0  0  0  0  0
   -4.0080   -3.1726    1.3622 O   0  0  0  0  0  0  0  0  0  0  0  0
   -3.8020   -2.0623    0.5433 C   0  0  0  0  0  0  0  0  0  0  0  0
   -2.5725   -1.4880    0.4078 C   0  0  0  0  0  0  0  0  0  0  0  0
   -2.3353   -0.3725   -0.4069 C   0  0  0  0  0  0  0  0  0  0  0  0
   -3.4135    0.1234   -1.0746 C   0  0  0  0  0  0  0  0  0  0  0  0
   -4.6729   -0.4689   -0.9319 C   0  0  0  0  0  0  0  0  0  0  0  0
   -4.8807   -1.5471   -0.1378 C   0  0  0  0  0  0  0  0  0  0  0  0
   -6.2214   -2.1950    0.0278 C   0  0  0  0  0  0  0  0  0  0  0  0
   -0.9697    0.1553   -0.5395 C   0  0  0  0  0  0  0  0  0  0  0  0
    0.0655   -0.6378   -0.1387 N   0  0  0  0  0  0  0  0  0  0  0  0
    1.2010    0.0005   -0.3045 C   0  0  0  0  0  0  0  0  0  0  0  0
    0.8858    1.2425   -0.8270 C   0  0  0  0  0  0  0  0  0  0  0  0
    1.9697    2.1731   -1.1276 C   0  0  0  0  0  0  0  0  0  0  0  0
    1.6717    3.6206   -1.0502 C   0  0  0  0  0  0  0  0  0  0  0  0
    0.6065    3.8813   -1.9092 O   0  0  0  0  0  0  0  0  0  0  0  0
   -0.6094    3.7683   -1.2921 C   0  0  2  0  0  0  0  0  0  0  0  0
   -0.6051    4.2575    0.1510 C   0  0  0  0  0  0  0  0  0  0  0  0
   -1.2357    2.3980   -1.4041 C   0  0  0  0  0  0  0  0  0  0  0  0
   -0.4636    1.3083   -0.9586 N   0  0  0  0  0  0  0  0  0  0  0  0
    2.5030   -0.5686    0.0363 C   0  0  0  0  0  0  0  0  0  0  0  0
    3.5946   -0.5271   -0.7823 C   0  0  0  0  0  0  0  0  0  0  0  0
    4.7946   -1.0879   -0.3799 C   0  0  0  0  0  0  0  0  0  0  0  0
    5.9827   -1.0423   -1.2716 C   0  0  0  0  0  0  0  0  0  0  0  0
    4.8700   -1.6765    0.8334 N   0  0  0  0  0  0  0  0  0  0  0  0
    3.8281   -1.7433    1.6728 C   0  0  0  0  0  0  0  0  0  0  0  0
    3.9397   -2.4010    3.0102 C   0  0  0  0  0  0  0  0  0  0  0  0
    2.6310   -1.1869    1.2783 C   0  0  0  0  0  0  0  0  0  0  0  0
   -3.2574   -4.7501    2.4197 H   0  0  0  0  0  0  0  0  0  0  0  0
   -2.7231   -3.1373    2.9928 H   0  0  0  0  0  0  0  0  0  0  0  0
   -2.0370   -3.8873    1.4572 H   0  0  0  0  0  0  0  0  0  0  0  0
   -1.7296   -1.9293    0.9733 H   0  0  0  0  0  0  0  0  0  0  0  0
   -3.3690    0.9722   -1.7733 H   0  0  0  0  0  0  0  0  0  0  0  0
   -5.5160   -0.0517   -1.4757 H   0  0  0  0  0  0  0  0  0  0  0  0
   -6.9163   -1.7200   -0.6839 H   0  0  0  0  0  0  0  0  0  0  0  0
   -6.1747   -3.2856   -0.0291 H   0  0  0  0  0  0  0  0  0  0  0  0
   -6.5859   -1.9112    1.0476 H   0  0  0  0  0  0  0  0  0  0  0  0
    2.3471    1.9583   -2.1550 H   0  0  0  0  0  0  0  0  0  0  0  0
    2.8372    1.9915   -0.4291 H   0  0  0  0  0  0  0  0  0  0  0  0
    1.5722    4.0412   -0.0515 H   0  0  0  0  0  0  0  0  0  0  0  0
    2.5537    4.1540   -1.5160 H   0  0  0  0  0  0  0  0  0  0  0  0
   -1.3070    4.4639   -1.8212 H   0  0  0  0  0  0  0  0  0  0  0  0
   -1.6483    4.4553    0.4731 H   0  0  0  0  0  0  0  0  0  0  0  0
   -0.0795    5.2331    0.1699 H   0  0  0  0  0  0  0  0  0  0  0  0
   -0.1848    3.5117    0.8397 H   0  0  0  0  0  0  0  0  0  0  0  0
   -1.6416    2.3416   -2.4261 H   0  0  0  0  0  0  0  0  0  0  0  0
   -2.1304    2.4638   -0.7063 H   0  0  0  0  0  0  0  0  0  0  0  0
    3.5244   -0.0584   -1.7497 H   0  0  0  0  0  0  0  0  0  0  0  0
    6.8090   -0.5394   -0.6932 H   0  0  0  0  0  0  0  0  0  0  0  0
    5.7829   -0.3886   -2.1308 H   0  0  0  0  0  0  0  0  0  0  0  0
    6.3582   -2.0423   -1.5403 H   0  0  0  0  0  0  0  0  0  0  0  0
    4.3928   -3.3938    2.8831 H   0  0  0  0  0  0  0  0  0  0  0  0
    2.9371   -2.5060    3.4432 H   0  0  0  0  0  0  0  0  0  0  0  0
    4.5865   -1.7493    3.6441 H   0  0  0  0  0  0  0  0  0  0  0  0
    1.7949   -1.2512    1.9747 H   0  0  0  0  0  0  0  0  0  0  0  0
  1  2  1  0
  2  3  1  0
  3  4  2  0
  4  5  1  0
  5  6  2  0
  6  7  1  0
  7  8  2  0
  8  9  1  0
  5 10  1  0
 10 11  2  0
 11 12  1  0
 12 13  2  0
 13 14  1  0
 14 15  1  0
 15 16  1  0
 16 17  1  0
 17 18  1  0
 17 19  1  0
 19 20  1  0
 12 21  1  0
 21 22  2  0
 22 23  1  0
 23 24  1  0
 23 25  2  0
 25 26  1  0
 26 27  1  0
 26 28  2  0
  8  3  1  0
 20 10  1  0
 28 21  1  0
 20 13  1  0
  1 29  1  0
  1 30  1  0
  1 31  1  0
  4 32  1  0
  6 33  1  0
  7 34  1  0
  9 35  1  0
  9 36  1  0
  9 37  1  0
 14 38  1  0
 14 39  1  0
 15 40  1  0
 15 41  1  0
 17 42  1  6
 18 43  1  0
 18 44  1  0
 18 45  1  0
 19 46  1  0
 19 47  1  0
 22 48  1  0
 24 49  1  0
 24 50  1  0
 24 51  1  0
 27 52  1  0
 27 53  1  0
 27 54  1  0
 28 55  1  0
M  END
$$$$
[H]c1c([H])c(-c2nc(-c3c([H])c(C([H])([H])[H])nc(C([H])([H])[H])c3[H])c3n2C([H])([H])[C@@]([H])(C([H])([H])[H])OC([H])([H])C3([H])[H])c([H])c(OC([H])([H])[H])c1Cl
     RDKit          3D

 52 55  0  0  0  0  0  0  0  0999 V2000
    3.6054    4.2712   -0.4569 C   0  0  0  0  0  0  0  0  0  0  0  0
    4.6411    3.5118    0.1389 O   0  0  0  0  0  0  0  0  0  0  0  0
    4.3452    2.1994    0.4967 C   0  0  0  0  0  0  0  0  0  0  0  0
    3.1211    1.6325    0.2980 C   0  0  0  0  0  0  0  0  0  0  0  0
    2.7917    0.3084    0.6488 C   0  0  0  0  0  0  0  0  0  0  0  0
    3.7730   -0.4340    1.2232 C   0  0  0  0  0  0  0  0  0  0  0  0
    5.0484    0.1056    1.4469 C   0  0  0  0  0  0  0  0  0  0  0  0
    5.3055    1.3999    1.0821 C   0  0  0  0  0  0  0  0  0  0  0  0
    6.9005    2.0803    1.3600 Cl  0  0  0  0  0  0  0  0  0  0  0  0
    1.4027   -0.1274    0.4234 C   0  0  0  0  0  0  0  0  0  0  0  0
    0.3810    0.7784    0.2519 N   0  0  0  0  0  0  0  0  0  0  0  0
   -0.7815    0.1563    0.0379 C   0  0  0  0  0  0  0  0  0  0  0  0
   -0.5308   -1.1793    0.0678 C   0  0  0  0  0  0  0  0  0  0  0  0
   -1.5396   -2.2732   -0.0706 C   0  0  0  0  0  0  0  0  0  0  0  0
   -1.2000   -3.0857   -1.2676 C   0  0  0  0  0  0  0  0  0  0  0  0
    0.1118   -3.3284   -1.4647 O   0  0  0  0  0  0  0  0  0  0  0  0
    0.8814   -3.6976   -0.4230 C   0  0  2  0  0  0  0  0  0  0  0  0
    0.3603   -4.6946    0.5432 C   0  0  0  0  0  0  0  0  0  0  0  0
    1.5466   -2.5468    0.3377 C   0  0  0  0  0  0  0  0  0  0  0  0
    0.8143   -1.3145    0.3012 N   0  0  0  0  0  0  0  0  0  0  0  0
   -2.0831    0.8151   -0.1774 C   0  0  0  0  0  0  0  0  0  0  0  0
   -2.9127    0.4947   -1.2196 C   0  0  0  0  0  0  0  0  0  0  0  0
   -4.1468    1.1358   -1.3913 C   0  0  0  0  0  0  0  0  0  0  0  0
   -5.0255    0.7625   -2.5366 C   0  0  0  0  0  0  0  0  0  0  0  0
   -4.4813    2.0767   -0.4919 N   0  0  0  0  0  0  0  0  0  0  0  0
   -3.7202    2.4354    0.5438 C   0  0  0  0  0  0  0  0  0  0  0  0
   -4.1412    3.4858    1.5105 C   0  0  0  0  0  0  0  0  0  0  0  0
   -2.4997    1.7923    0.7025 C   0  0  0  0  0  0  0  0  0  0  0  0
    3.3786    3.9363   -1.4954 H   0  0  0  0  0  0  0  0  0  0  0  0
    3.8965    5.3594   -0.5081 H   0  0  0  0  0  0  0  0  0  0  0  0
    2.7054    4.2334    0.1875 H   0  0  0  0  0  0  0  0  0  0  0  0
    2.3510    2.2451   -0.1636 H   0  0  0  0  0  0  0  0  0  0  0  0
    3.5819   -1.4500    1.5549 H   0  0  0  0  0  0  0  0  0  0  0  0
    5.7691   -0.5503    1.9056 H   0  0  0  0  0  0  0  0  0  0  0  0
   -2.5487   -1.8336   -0.1510 H   0  0  0  0  0  0  0  0  0  0  0  0
   -1.4951   -2.9068    0.8660 H   0  0  0  0  0  0  0  0  0  0  0  0
   -1.8499   -3.9962   -1.2602 H   0  0  0  0  0  0  0  0  0  0  0  0
   -1.5708   -2.5056   -2.1676 H   0  0  0  0  0  0  0  0  0  0  0  0
    1.7775   -4.2290   -0.9124 H   0  0  0  0  0  0  0  0  0  0  0  0
    1.0002   -5.6148    0.6581 H   0  0  0  0  0  0  0  0  0  0  0  0
   -0.6507   -5.0819    0.3271 H   0  0  0  0  0  0  0  0  0  0  0  0
    0.3261   -4.2794    1.5932 H   0  0  0  0  0  0  0  0  0  0  0  0
    2.5378   -2.3348   -0.1405 H   0  0  0  0  0  0  0  0  0  0  0  0
    1.7201   -2.8315    1.3836 H   0  0  0  0  0  0  0  0  0  0  0  0
   -2.6035   -0.2648   -1.9251 H   0  0  0  0  0  0  0  0  0  0  0  0
   -4.3788    0.3300   -3.3265 H   0  0  0  0  0  0  0  0  0  0  0  0
   -5.5342    1.6475   -2.9517 H   0  0  0  0  0  0  0  0  0  0  0  0
   -5.7510   -0.0289   -2.2163 H   0  0  0  0  0  0  0  0  0  0  0  0
   -4.2821    3.0880    2.5344 H   0  0  0  0  0  0  0  0  0  0  0  0
   -3.3662    4.2906    1.5988 H   0  0  0  0  0  0  0  0  0  0  0  0
   -5.0934    3.9270    1.1482 H   0  0  0  0  0  0  0  0  0  0  0  0
   -1.8877    2.0892    1.5458 H   0  0  0  0  0  0  0  0  0  0  0  0
  1  2  1  0
  2  3  1  0
  3  4  2  0
  4  5  1  0
  5  6  2  0
  6  7  1  0
  7  8  2  0
  8  9  1  0
  5 10  1  0
 10 11  2  0
 11 12  1  0
 12 13  2  0
 13 14  1  0
 14 15  1  0
 15 16  1  0
 16 17  1  0
 17 18  1  0
 17 19  1  0
 19 20  1  0
 12 21  1  0
 21 22  2  0
 22 23  1  0
 23 24  1  0
 23 25  2  0
 25 26  1  0
 26 27  1  0
 26 28  2  0
  8  3  1  0
 20 10  1  0
 28 21  1  0
 20 13  1  0
  1 29  1  0
  1 30  1  0
  1 31  1  0
  4 32  1  0
  6 33  1  0
  7 34  1  0
 14 35  1  0
 14 36  1  0
 15 37  1  0
 15 38  1  0
 17 39  1  6
 18 40  1  0
 18 41  1  0
 18 42  1  0
 19 43  1  0
 19 44  1  0
 22 45  1  0
 24 46  1  0
 24 47  1  0
 24 48  1  0
 27 49  1  0
 27 50  1  0
 27 51  1  0
 28 52  1  0
M  END
$$$$
[H]c1c([H])c(-c2nc(-c3c([H])c(C([H])([H])[H])nc(C([H])([H])F)c3[H])c3n2C([H])([H])[C@@]([H])(C([H])([H])[H])OC([H])([H])C3([H])[H])c([H])c(C([H])([H])[H])c1Cl
     RDKit          3D

 51 54  0  0  0  0  0  0  0  0999 V2000
   -3.0827    3.2149    1.5715 C   0  0  0  0  0  0  0  0  0  0  0  0
   -1.7304    2.5733    1.2655 C   0  0  2  0  0  0  0  0  0  0  0  0
   -1.9829    1.0953    1.1016 C   0  0  0  0  0  0  0  0  0  0  0  0
   -0.8280    0.4086    0.5573 N   0  0  0  0  0  0  0  0  0  0  0  0
    0.4923    0.6663    0.7715 C   0  0  0  0  0  0  0  0  0  0  0  0
    1.1403    1.6289    1.6575 C   0  0  0  0  0  0  0  0  0  0  0  0
    0.4594    2.9679    1.5869 C   0  0  0  0  0  0  0  0  0  0  0  0
   -0.7998    2.8535    2.2248 O   0  0  0  0  0  0  0  0  0  0  0  0
    1.1762   -0.2299   -0.0408 C   0  0  0  0  0  0  0  0  0  0  0  0
    0.3054   -0.9868   -0.7064 N   0  0  0  0  0  0  0  0  0  0  0  0
   -0.9495   -0.5867   -0.3265 C   0  0  0  0  0  0  0  0  0  0  0  0
   -2.1202   -1.2244   -0.8971 C   0  0  0  0  0  0  0  0  0  0  0  0
   -1.9694   -1.8498   -2.1558 C   0  0  0  0  0  0  0  0  0  0  0  0
   -2.9920   -2.5373   -2.7368 C   0  0  0  0  0  0  0  0  0  0  0  0
   -4.2087   -2.6423   -2.1093 C   0  0  0  0  0  0  0  0  0  0  0  0
   -5.5227   -3.5271   -2.8610 Cl  0  0  0  0  0  0  0  0  0  0  0  0
   -4.4103   -2.0541   -0.8830 C   0  0  0  0  0  0  0  0  0  0  0  0
   -5.7278   -2.1513   -0.1727 C   0  0  0  0  0  0  0  0  0  0  0  0
   -3.3481   -1.3632   -0.3203 C   0  0  0  0  0  0  0  0  0  0  0  0
    2.6173   -0.3563   -0.1851 C   0  0  0  0  0  0  0  0  0  0  0  0
    3.4204   -0.4664    0.9194 C   0  0  0  0  0  0  0  0  0  0  0  0
    4.7992   -0.5819    0.7646 C   0  0  0  0  0  0  0  0  0  0  0  0
    5.6057   -0.6970    2.0060 C   0  0  0  0  0  0  0  0  0  0  0  0
    5.3235   -0.5844   -0.4594 N   0  0  0  0  0  0  0  0  0  0  0  0
    4.6001   -0.4808   -1.5830 C   0  0  0  0  0  0  0  0  0  0  0  0
    5.1960   -0.4848   -2.9442 C   0  0  0  0  0  0  0  0  0  0  0  0
    5.2660   -1.7790   -3.4098 F   0  0  0  0  0  0  0  0  0  0  0  0
    3.2341   -0.3661   -1.4318 C   0  0  0  0  0  0  0  0  0  0  0  0
   -3.8611    2.4609    1.7819 H   0  0  0  0  0  0  0  0  0  0  0  0
   -3.0035    3.8727    2.4775 H   0  0  0  0  0  0  0  0  0  0  0  0
   -3.4370    3.8164    0.7228 H   0  0  0  0  0  0  0  0  0  0  0  0
   -1.4043    2.9655    0.2588 H   0  0  0  0  0  0  0  0  0  0  0  0
   -2.8049    1.0831    0.3145 H   0  0  0  0  0  0  0  0  0  0  0  0
   -2.3103    0.5944    2.0047 H   0  0  0  0  0  0  0  0  0  0  0  0
    1.0645    1.2713    2.7215 H   0  0  0  0  0  0  0  0  0  0  0  0
    2.2334    1.7330    1.4687 H   0  0  0  0  0  0  0  0  0  0  0  0
    0.2815    3.2597    0.5449 H   0  0  0  0  0  0  0  0  0  0  0  0
    1.0504    3.7054    2.1655 H   0  0  0  0  0  0  0  0  0  0  0  0
   -0.9958   -1.7555   -2.6479 H   0  0  0  0  0  0  0  0  0  0  0  0
   -2.8291   -3.0006   -3.7037 H   0  0  0  0  0  0  0  0  0  0  0  0
   -5.5964   -1.9738    0.9026 H   0  0  0  0  0  0  0  0  0  0  0  0
   -6.0739   -3.2118   -0.3041 H   0  0  0  0  0  0  0  0  0  0  0  0
   -6.4314   -1.4440   -0.6571 H   0  0  0  0  0  0  0  0  0  0  0  0
   -3.5209   -0.9464    0.6728 H   0  0  0  0  0  0  0  0  0  0  0  0
    3.0006   -0.4697    1.9384 H   0  0  0  0  0  0  0  0  0  0  0  0
    6.6512   -0.3947    1.8631 H   0  0  0  0  0  0  0  0  0  0  0  0
    5.1640   -0.0398    2.7833 H   0  0  0  0  0  0  0  0  0  0  0  0
    5.5655   -1.7416    2.3552 H   0  0  0  0  0  0  0  0  0  0  0  0
    4.5002    0.0778   -3.6016 H   0  0  0  0  0  0  0  0  0  0  0  0
    6.2021   -0.0425   -2.9729 H   0  0  0  0  0  0  0  0  0  0  0  0
    2.5918   -0.2790   -2.2926 H   0  0  0  0  0  0  0  0  0  0  0  0
  1  2  1  0
  2  3  1  0
  3  4  1  0
  4  5  1  0
  5  6  1  0
  6  7  1  0
  7  8  1  0
  5  9  2  0
  9 10  1  0
 10 11  2  0
 11 12  1  0
 12 13  2  0
 13 14  1  0
 14 15  2  0
 15 16  1  0
 15 17  1  0
 17 18  1  0
 17 19  2  0
  9 20  1  0
 20 21  2  0
 21 22  1  0
 22 23  1  0
 22 24  2  0
 24 25  1  0
 25 26  1  0
 26 27  1  0
 25 28  2  0
  8  2  1  0
 19 12  1  0
 28 20  1  0
 11  4  1  0
  1 29  1  0
  1 30  1  0
  1 31  1  0
  2 32  1  6
  3 33  1  0
  3 34  1  0
  6 35  1  0
  6 36  1  0
  7 37  1  0
  7 38  1  0
 13 39  1  0
 14 40  1  0
 18 41  1  0
 18 42  1  0
 18 43  1  0
 19 44  1  0
 21 45  1  0
 23 46  1  0
 23 47  1  0
 23 48  1  0
 26 49  1  0
 26 50  1  0
 28 51  1  0
M  END
$$$$
[H]c1nc([H])n(-c2c([H])c([H])c([H])c(C3=Nc4c([H])c(C([H])([H])[H])c(C(F)(F)F)c([H])c4N([H])C(=O)C3([H])[H])c2[H])c1[H]
     RDKit          3D

 43 46  0  0  0  0  0  0  0  0999 V2000
   -5.2728   -1.7520    0.8609 C   0  0  0  0  0  0  0  0  0  0  0  0
   -4.3031   -0.7638    0.2689 C   0  0  0  0  0  0  0  0  0  0  0  0
   -2.9516   -1.0039    0.2670 C   0  0  0  0  0  0  0  0  0  0  0  0
   -2.0712   -0.0987   -0.2736 C   0  0  0  0  0  0  0  0  0  0  0  0
   -0.7200   -0.5215   -0.1845 N   0  0  0  0  0  0  0  0  0  0  0  0
    0.3884    0.1940   -0.1581 C   0  0  0  0  0  0  0  0  0  0  0  0
    0.4944    1.6580   -0.2174 C   0  0  0  0  0  0  0  0  0  0  0  0
   -0.3669    2.2681   -1.2974 C   0  0  0  0  0  0  0  0  0  0  0  0
    0.1912    2.9921   -2.1617 O   0  0  0  0  0  0  0  0  0  0  0  0
   -1.7699    2.0842   -1.4098 N   0  0  0  0  0  0  0  0  0  0  0  0
   -2.5935    1.0801   -0.8245 C   0  0  0  0  0  0  0  0  0  0  0  0
   -3.9365    1.3367   -0.8319 C   0  0  0  0  0  0  0  0  0  0  0  0
   -4.7877    0.4100   -0.2830 C   0  0  0  0  0  0  0  0  0  0  0  0
   -6.2358    0.6843   -0.2918 C   0  0  0  0  0  0  0  0  0  0  0  0
   -6.7667    0.7174    1.0055 F   0  0  0  0  0  0  0  0  0  0  0  0
   -6.4369    1.9586   -0.7841 F   0  0  0  0  0  0  0  0  0  0  0  0
   -6.9555   -0.1597   -1.1140 F   0  0  0  0  0  0  0  0  0  0  0  0
    1.6125   -0.6184   -0.0555 C   0  0  0  0  0  0  0  0  0  0  0  0
    1.5241   -2.0007   -0.0411 C   0  0  0  0  0  0  0  0  0  0  0  0
    2.6666   -2.7487    0.0652 C   0  0  0  0  0  0  0  0  0  0  0  0
    3.9007   -2.1437    0.1579 C   0  0  0  0  0  0  0  0  0  0  0  0
    4.0201   -0.7790    0.1465 C   0  0  0  0  0  0  0  0  0  0  0  0
    2.8394   -0.0297    0.0372 C   0  0  0  0  0  0  0  0  0  0  0  0
    5.2891   -0.1457    0.2416 N   0  0  0  0  0  0  0  0  0  0  0  0
    5.5965    1.0974   -0.1716 C   0  0  0  0  0  0  0  0  0  0  0  0
    6.9254    1.3414    0.0958 C   0  0  0  0  0  0  0  0  0  0  0  0
    7.4189    0.2250    0.6785 N   0  0  0  0  0  0  0  0  0  0  0  0
    6.4013   -0.6809    0.7616 C   0  0  0  0  0  0  0  0  0  0  0  0
   -4.6950   -2.6736    1.1654 H   0  0  0  0  0  0  0  0  0  0  0  0
   -5.6838   -1.3639    1.8112 H   0  0  0  0  0  0  0  0  0  0  0  0
   -6.0086   -2.0814    0.1287 H   0  0  0  0  0  0  0  0  0  0  0  0
   -2.6148   -1.9391    0.7113 H   0  0  0  0  0  0  0  0  0  0  0  0
    0.1364    2.0339    0.7748 H   0  0  0  0  0  0  0  0  0  0  0  0
    1.4996    2.0027   -0.4346 H   0  0  0  0  0  0  0  0  0  0  0  0
   -2.3055    2.7741   -2.0051 H   0  0  0  0  0  0  0  0  0  0  0  0
   -4.2630    2.2653   -1.2737 H   0  0  0  0  0  0  0  0  0  0  0  0
    0.5404   -2.4357   -0.1157 H   0  0  0  0  0  0  0  0  0  0  0  0
    2.5929   -3.8494    0.0764 H   0  0  0  0  0  0  0  0  0  0  0  0
    4.7813   -2.7766    0.2406 H   0  0  0  0  0  0  0  0  0  0  0  0
    3.0167    1.0336    0.0421 H   0  0  0  0  0  0  0  0  0  0  0  0
    4.9212    1.8047   -0.6404 H   0  0  0  0  0  0  0  0  0  0  0  0
    7.4207    2.2623   -0.1368 H   0  0  0  0  0  0  0  0  0  0  0  0
    6.5611   -1.6580    1.1967 H   0  0  0  0  0  0  0  0  0  0  0  0
  1  2  1  0
  2  3  2  0
  3  4  1  0
  4  5  1  0
  5  6  2  0
  6  7  1  0
  7  8  1  0
  8  9  2  0
  8 10  1  0
 10 11  1  0
 11 12  1  0
 12 13  2  0
 13 14  1  0
 14 15  1  0
 14 16  1  0
 14 17  1  0
  6 18  1  0
 18 19  2  0
 19 20  1  0
 20 21  2  0
 21 22  1  0
 22 23  2  0
 22 24  1  0
 24 25  1  0
 25 26  2  0
 26 27  1  0
 27 28  2  0
 13  2  1  0
 23 18  1  0
 28 24  1  0
 11  4  2  0
  1 29  1  0
  1 30  1  0
  1 31  1  0
  3 32  1  0
  7 33  1  0
  7 34  1  0
 10 35  1  0
 12 36  1  0
 19 37  1  0
 20 38  1  0
 21 39  1  0
 23 40  1  0
 25 41  1  0
 26 42  1  0
 28 43  1  0
M  END
$$$$
[H]c1nc(C([H])([H])[H])c([H])c(-c2nc(-c3c([H])c([H])c(Cl)c(C(F)(F)F)c3[H])n3c2C([H])([H])C([H])([H])O[C@]([H])(C([H])([H])[H])C3([H])[H])c1[H]
     RDKit          3D

 48 51  0  0  0  0  0  0  0  0999 V2000
    1.1243    4.5967   -0.1177 C   0  0  0  0  0  0  0  0  0  0  0  0
    0.6271    3.2423    0.2346 C   0  0  2  0  0  0  0  0  0  0  0  0
    1.0401    2.2632   -0.8499 C   0  0  0  0  0  0  0  0  0  0  0  0
    0.3805    1.0170   -0.5169 N   0  0  0  0  0  0  0  0  0  0  0  0
   -0.9736    0.7862   -0.6946 C   0  0  0  0  0  0  0  0  0  0  0  0
   -1.9164    1.8017   -1.1809 C   0  0  0  0  0  0  0  0  0  0  0  0
   -1.5037    3.1548   -0.6613 C   0  0  0  0  0  0  0  0  0  0  0  0
   -0.7439    3.1568    0.4707 O   0  0  0  0  0  0  0  0  0  0  0  0
   -1.2506   -0.5056   -0.3300 C   0  0  0  0  0  0  0  0  0  0  0  0
   -0.0973   -1.0236    0.0538 N   0  0  0  0  0  0  0  0  0  0  0  0
    0.9177   -0.0917   -0.0552 C   0  0  0  0  0  0  0  0  0  0  0  0
    2.2913   -0.4441    0.2892 C   0  0  0  0  0  0  0  0  0  0  0  0
    3.2999    0.4294    0.5626 C   0  0  0  0  0  0  0  0  0  0  0  0
    4.6130    0.0170    0.8161 C   0  0  0  0  0  0  0  0  0  0  0  0
    4.8746   -1.3287    0.7850 C   0  0  0  0  0  0  0  0  0  0  0  0
    6.5193   -1.9022    1.0988 Cl  0  0  0  0  0  0  0  0  0  0  0  0
    3.8845   -2.2248    0.5159 C   0  0  0  0  0  0  0  0  0  0  0  0
    2.6175   -1.8074    0.2717 C   0  0  0  0  0  0  0  0  0  0  0  0
    4.2441   -3.6798    0.4988 C   0  0  0  0  0  0  0  0  0  0  0  0
    3.1578   -4.4692    0.2161 F   0  0  0  0  0  0  0  0  0  0  0  0
    4.7602   -3.9671    1.7546 F   0  0  0  0  0  0  0  0  0  0  0  0
    5.2454   -3.8159   -0.4460 F   0  0  0  0  0  0  0  0  0  0  0  0
   -2.5670   -1.1331   -0.3736 C   0  0  0  0  0  0  0  0  0  0  0  0
   -3.3879   -1.0021   -1.4681 C   0  0  0  0  0  0  0  0  0  0  0  0
   -4.6130   -1.6173   -1.4448 C   0  0  0  0  0  0  0  0  0  0  0  0
   -5.0200   -2.3355   -0.3870 N   0  0  0  0  0  0  0  0  0  0  0  0
   -4.2597   -2.4963    0.7072 C   0  0  0  0  0  0  0  0  0  0  0  0
   -4.7329   -3.3051    1.8835 C   0  0  0  0  0  0  0  0  0  0  0  0
   -3.0312   -1.8838    0.6928 C   0  0  0  0  0  0  0  0  0  0  0  0
    1.0640    4.8350   -1.1987 H   0  0  0  0  0  0  0  0  0  0  0  0
    0.6688    5.4049    0.4984 H   0  0  0  0  0  0  0  0  0  0  0  0
    2.2257    4.6234    0.1301 H   0  0  0  0  0  0  0  0  0  0  0  0
    1.1248    2.9122    1.1671 H   0  0  0  0  0  0  0  0  0  0  0  0
    2.0744    2.1849   -1.0566 H   0  0  0  0  0  0  0  0  0  0  0  0
    0.5205    2.6253   -1.8215 H   0  0  0  0  0  0  0  0  0  0  0  0
   -2.9731    1.5654   -0.9594 H   0  0  0  0  0  0  0  0  0  0  0  0
   -1.8091    1.8183   -2.3058 H   0  0  0  0  0  0  0  0  0  0  0  0
   -1.1052    3.7920   -1.4792 H   0  0  0  0  0  0  0  0  0  0  0  0
   -2.4708    3.6759   -0.3808 H   0  0  0  0  0  0  0  0  0  0  0  0
    3.1310    1.4771    0.6370 H   0  0  0  0  0  0  0  0  0  0  0  0
    5.3954    0.7103    1.0279 H   0  0  0  0  0  0  0  0  0  0  0  0
    1.8405   -2.5522    0.0562 H   0  0  0  0  0  0  0  0  0  0  0  0
   -3.0461   -0.4140   -2.3257 H   0  0  0  0  0  0  0  0  0  0  0  0
   -5.2661   -1.5114   -2.3190 H   0  0  0  0  0  0  0  0  0  0  0  0
   -4.7170   -2.7222    2.8102 H   0  0  0  0  0  0  0  0  0  0  0  0
   -4.0348   -4.1689    1.9817 H   0  0  0  0  0  0  0  0  0  0  0  0
   -5.7334   -3.6865    1.6343 H   0  0  0  0  0  0  0  0  0  0  0  0
   -2.3898   -2.0012    1.5788 H   0  0  0  0  0  0  0  0  0  0  0  0
  1  2  1  0
  2  3  1  0
  3  4  1  0
  4  5  1  0
  5  6  1  0
  6  7  1  0
  7  8  1  0
  5  9  2  0
  9 10  1  0
 10 11  2  0
 11 12  1  0
 12 13  2  0
 13 14  1  0
 14 15  2  0
 15 16  1  0
 15 17  1  0
 17 18  2  0
 17 19  1  0
 19 20  1  0
 19 21  1  0
 19 22  1  0
  9 23  1  0
 23 24  2  0
 24 25  1  0
 25 26  2  0
 26 27  1  0
 27 28  1  0
 27 29  2  0
  8  2  1  0
 18 12  1  0
 29 23  1  0
 11  4  1  0
  1 30  1  0
  1 31  1  0
  1 32  1  0
  2 33  1  1
  3 34  1  0
  3 35  1  0
  6 36  1  0
  6 37  1  0
  7 38  1  0
  7 39  1  0
 13 40  1  0
 14 41  1  0
 18 42  1  0
 24 43  1  0
 25 44  1  0
 28 45  1  0
 28 46  1  0
 28 47  1  0
 29 48  1  0
M  END
$$$$
[H]c1c([H])c(-c2nc(-c3c([H])c(C([H])([H])[H])nc(C([H])([H])F)c3[H])c3n2C([H])([H])[C@@]([H])(C([H])([H])[H])OC([H])([H])C3([H])[H])c([H])c([H])c1F
     RDKit          3D

 48 51  0  0  0  0  0  0  0  0999 V2000
   -3.5877   -2.5453   -0.7647 C   0  0  0  0  0  0  0  0  0  0  0  0
   -2.3392   -2.4892    0.0726 C   0  0  2  0  0  0  0  0  0  0  0  0
   -2.3074   -1.3161    1.0199 C   0  0  0  0  0  0  0  0  0  0  0  0
   -1.2953   -0.3936    0.5646 N   0  0  0  0  0  0  0  0  0  0  0  0
    0.0237   -0.7941    0.5084 C   0  0  0  0  0  0  0  0  0  0  0  0
    0.5608   -2.1707    0.8097 C   0  0  0  0  0  0  0  0  0  0  0  0
   -0.1455   -3.1715   -0.1196 C   0  0  0  0  0  0  0  0  0  0  0  0
   -1.2141   -2.5171   -0.7525 O   0  0  0  0  0  0  0  0  0  0  0  0
    0.8003    0.2571    0.1055 C   0  0  0  0  0  0  0  0  0  0  0  0
   -0.0688    1.2541   -0.0710 N   0  0  0  0  0  0  0  0  0  0  0  0
   -1.3536    0.8617    0.2073 C   0  0  0  0  0  0  0  0  0  0  0  0
   -2.4920    1.7530    0.1455 C   0  0  0  0  0  0  0  0  0  0  0  0
   -3.7961    1.3978    0.0909 C   0  0  0  0  0  0  0  0  0  0  0  0
   -4.7781    2.3809    0.1120 C   0  0  0  0  0  0  0  0  0  0  0  0
   -4.4715    3.7137    0.1854 C   0  0  0  0  0  0  0  0  0  0  0  0
   -5.4408    4.6814    0.2063 F   0  0  0  0  0  0  0  0  0  0  0  0
   -3.1527    4.0973    0.2401 C   0  0  0  0  0  0  0  0  0  0  0  0
   -2.1997    3.1093    0.2186 C   0  0  0  0  0  0  0  0  0  0  0  0
    2.2521    0.3001   -0.1048 C   0  0  0  0  0  0  0  0  0  0  0  0
    2.7783    0.8113   -1.2941 C   0  0  0  0  0  0  0  0  0  0  0  0
    4.1392    0.8814   -1.4880 C   0  0  0  0  0  0  0  0  0  0  0  0
    4.6606    1.4316   -2.7669 C   0  0  0  0  0  0  0  0  0  0  0  0
    4.9822    0.4537   -0.5238 N   0  0  0  0  0  0  0  0  0  0  0  0
    4.5310   -0.0437    0.6325 C   0  0  0  0  0  0  0  0  0  0  0  0
    5.4305   -0.5233    1.7147 C   0  0  0  0  0  0  0  0  0  0  0  0
    5.6918    0.5605    2.5417 F   0  0  0  0  0  0  0  0  0  0  0  0
    3.1675   -0.1136    0.8262 C   0  0  0  0  0  0  0  0  0  0  0  0
   -4.4997   -2.5458   -0.1697 H   0  0  0  0  0  0  0  0  0  0  0  0
   -3.5697   -1.6681   -1.4531 H   0  0  0  0  0  0  0  0  0  0  0  0
   -3.5334   -3.4797   -1.3605 H   0  0  0  0  0  0  0  0  0  0  0  0
   -2.3016   -3.4751    0.6127 H   0  0  0  0  0  0  0  0  0  0  0  0
   -1.8514   -1.7960    1.9851 H   0  0  0  0  0  0  0  0  0  0  0  0
   -3.2289   -0.9413    1.3882 H   0  0  0  0  0  0  0  0  0  0  0  0
    0.3421   -2.4674    1.8379 H   0  0  0  0  0  0  0  0  0  0  0  0
    1.6268   -2.1987    0.6173 H   0  0  0  0  0  0  0  0  0  0  0  0
   -0.4500   -4.0740    0.4054 H   0  0  0  0  0  0  0  0  0  0  0  0
    0.5779   -3.3928   -0.9290 H   0  0  0  0  0  0  0  0  0  0  0  0
   -4.1268    0.3646   -0.0058 H   0  0  0  0  0  0  0  0  0  0  0  0
   -5.8309    2.0735    0.0682 H   0  0  0  0  0  0  0  0  0  0  0  0
   -2.8967    5.1571    0.2996 H   0  0  0  0  0  0  0  0  0  0  0  0
   -1.1558    3.4727    0.2655 H   0  0  0  0  0  0  0  0  0  0  0  0
    2.0632    1.1424   -2.0390 H   0  0  0  0  0  0  0  0  0  0  0  0
    4.9680    2.4840   -2.5807 H   0  0  0  0  0  0  0  0  0  0  0  0
    5.5373    0.8124   -3.1107 H   0  0  0  0  0  0  0  0  0  0  0  0
    3.8882    1.3639   -3.5547 H   0  0  0  0  0  0  0  0  0  0  0  0
    4.8833   -1.2627    2.3224 H   0  0  0  0  0  0  0  0  0  0  0  0
    6.3758   -0.9217    1.3090 H   0  0  0  0  0  0  0  0  0  0  0  0
    2.8069   -0.5140    1.7756 H   0  0  0  0  0  0  0  0  0  0  0  0
  1  2  1  0
  2  3  1  0
  3  4  1  0
  4  5  1  0
  5  6  1  0
  6  7  1  0
  7  8  1  0
  5  9  2  0
  9 10  1  0
 10 11  2  0
 11 12  1  0
 12 13  2  0
 13 14  1  0
 14 15  2  0
 15 16  1  0
 15 17  1  0
 17 18  2  0
  9 19  1  0
 19 20  2  0
 20 21  1  0
 21 22  1  0
 21 23  2  0
 23 24  1  0
 24 25  1  0
 25 26  1  0
 24 27  2  0
  8  2  1  0
 18 12  1  0
 27 19  1  0
 11  4  1  0
  1 28  1  0
  1 29  1  0
  1 30  1  0
  2 31  1  1
  3 32  1  0
  3 33  1  0
  6 34  1  0
  6 35  1  0
  7 36  1  0
  7 37  1  0
 13 38  1  0
 14 39  1  0
 17 40  1  0
 18 41  1  0
 20 42  1  0
 22 43  1  0
 22 44  1  0
 22 45  1  0
 25 46  1  0
 25 47  1  0
 27 48  1  0
M  END
$$$$
[H]c1c([H])c(-c2nc(-c3c([H])c(C([H])([H])[H])nc(C(F)(F)F)c3[H])c3n2C([H])([H])[C@@]([H])(C([H])([H])[H])OC([H])([H])C3([H])[H])c([H])c([H])c1F
     RDKit          3D

 48 51  0  0  0  0  0  0  0  0999 V2000
   -4.1615   -2.2067   -0.6536 C   0  0  0  0  0  0  0  0  0  0  0  0
   -2.7028   -1.9016   -0.6572 C   0  0  2  0  0  0  0  0  0  0  0  0
   -2.5404   -0.4772   -1.2783 C   0  0  0  0  0  0  0  0  0  0  0  0
   -1.2973    0.0389   -0.7221 N   0  0  0  0  0  0  0  0  0  0  0  0
   -0.0723   -0.5565   -0.7624 C   0  0  0  0  0  0  0  0  0  0  0  0
    0.2161   -1.8181   -1.4654 C   0  0  0  0  0  0  0  0  0  0  0  0
   -0.6770   -2.9317   -0.9443 C   0  0  0  0  0  0  0  0  0  0  0  0
   -1.9749   -2.7714   -1.4426 O   0  0  0  0  0  0  0  0  0  0  0  0
    0.8471    0.1792   -0.0625 C   0  0  0  0  0  0  0  0  0  0  0  0
    0.1568    1.2349    0.4050 N   0  0  0  0  0  0  0  0  0  0  0  0
   -1.1593    1.1617    0.0029 C   0  0  0  0  0  0  0  0  0  0  0  0
   -2.0876    2.1755    0.4254 C   0  0  0  0  0  0  0  0  0  0  0  0
   -1.8556    2.8413    1.6329 C   0  0  0  0  0  0  0  0  0  0  0  0
   -2.6721    3.8680    2.0503 C   0  0  0  0  0  0  0  0  0  0  0  0
   -3.7359    4.2488    1.2661 C   0  0  0  0  0  0  0  0  0  0  0  0
   -4.5617    5.2616    1.6707 F   0  0  0  0  0  0  0  0  0  0  0  0
   -3.9836    3.6113    0.0753 C   0  0  0  0  0  0  0  0  0  0  0  0
   -3.1446    2.5672   -0.3394 C   0  0  0  0  0  0  0  0  0  0  0  0
    2.2674   -0.1012    0.1346 C   0  0  0  0  0  0  0  0  0  0  0  0
    3.1054   -0.4047   -0.9018 C   0  0  0  0  0  0  0  0  0  0  0  0
    4.4607   -0.6754   -0.7152 C   0  0  0  0  0  0  0  0  0  0  0  0
    5.3508   -1.0069   -1.8793 C   0  0  0  0  0  0  0  0  0  0  0  0
    4.9203   -0.6264    0.5462 N   0  0  0  0  0  0  0  0  0  0  0  0
    4.1775   -0.3397    1.6141 C   0  0  0  0  0  0  0  0  0  0  0  0
    2.8348   -0.0755    1.3977 C   0  0  0  0  0  0  0  0  0  0  0  0
    4.7440   -0.3040    3.0029 C   0  0  0  0  0  0  0  0  0  0  0  0
    5.8321    0.5774    2.9651 F   0  0  0  0  0  0  0  0  0  0  0  0
    5.1923   -1.5117    3.4293 F   0  0  0  0  0  0  0  0  0  0  0  0
    3.8345    0.2656    3.8604 F   0  0  0  0  0  0  0  0  0  0  0  0
   -4.5765   -1.9899   -1.6588 H   0  0  0  0  0  0  0  0  0  0  0  0
   -4.3067   -3.2844   -0.3840 H   0  0  0  0  0  0  0  0  0  0  0  0
   -4.6538   -1.5604    0.1245 H   0  0  0  0  0  0  0  0  0  0  0  0
   -2.2989   -1.8413    0.3797 H   0  0  0  0  0  0  0  0  0  0  0  0
   -3.4105    0.0670   -0.9291 H   0  0  0  0  0  0  0  0  0  0  0  0
   -2.4663   -0.6150   -2.3570 H   0  0  0  0  0  0  0  0  0  0  0  0
   -0.0580   -1.7145   -2.5612 H   0  0  0  0  0  0  0  0  0  0  0  0
    1.2505   -2.1492   -1.4408 H   0  0  0  0  0  0  0  0  0  0  0  0
   -0.2771   -3.8895   -1.3293 H   0  0  0  0  0  0  0  0  0  0  0  0
   -0.6243   -2.9235    0.1616 H   0  0  0  0  0  0  0  0  0  0  0  0
   -1.0144    2.5455    2.2559 H   0  0  0  0  0  0  0  0  0  0  0  0
   -2.4578    4.3582    3.0061 H   0  0  0  0  0  0  0  0  0  0  0  0
   -4.8265    3.9079   -0.5499 H   0  0  0  0  0  0  0  0  0  0  0  0
   -3.3873    2.1502   -1.3155 H   0  0  0  0  0  0  0  0  0  0  0  0
    2.7700   -0.4415   -1.9220 H   0  0  0  0  0  0  0  0  0  0  0  0
    5.8121   -0.0240   -2.1861 H   0  0  0  0  0  0  0  0  0  0  0  0
    4.7822   -1.4504   -2.6937 H   0  0  0  0  0  0  0  0  0  0  0  0
    6.1998   -1.6223   -1.5146 H   0  0  0  0  0  0  0  0  0  0  0  0
    2.2302    0.1544    2.2593 H   0  0  0  0  0  0  0  0  0  0  0  0
  1  2  1  0
  2  3  1  0
  3  4  1  0
  4  5  1  0
  5  6  1  0
  6  7  1  0
  7  8  1  0
  5  9  2  0
  9 10  1  0
 10 11  2  0
 11 12  1  0
 12 13  2  0
 13 14  1  0
 14 15  2  0
 15 16  1  0
 15 17  1  0
 17 18  2  0
  9 19  1  0
 19 20  2  0
 20 21  1  0
 21 22  1  0
 21 23  2  0
 23 24  1  0
 24 25  2  0
 24 26  1  0
 26 27  1  0
 26 28  1  0
 26 29  1  0
  8  2  1  0
 18 12  1  0
 25 19  1  0
 11  4  1  0
  1 30  1  0
  1 31  1  0
  1 32  1  0
  2 33  1  1
  3 34  1  0
  3 35  1  0
  6 36  1  0
  6 37  1  0
  7 38  1  0
  7 39  1  0
 13 40  1  0
 14 41  1  0
 17 42  1  0
 18 43  1  0
 20 44  1  0
 22 45  1  0
 22 46  1  0
 22 47  1  0
 25 48  1  0
M  END
$$$$
[H]c1c([H])c(-c2c([H])c(C(=O)N([H])[H])nc3c([H])c(C([H])([H])N4C([H])([H])[C@@]([H])(C([H])([H])[H])O[C@]([H])(C([H])([H])[H])C4([H])[H])c([H])c([H])c23)c([H])c([H])c1F
     RDKit          3D

 53 56  0  0  0  0  0  0  0  0999 V2000
    5.2138   -1.8648    1.0127 C   0  0  0  0  0  0  0  0  0  0  0  0
    4.3641   -0.6280    1.2578 C   0  0  2  0  0  0  0  0  0  0  0  0
    3.0415   -0.7159    0.5299 C   0  0  0  0  0  0  0  0  0  0  0  0
    3.0756   -0.0822   -0.7555 N   0  0  0  0  0  0  0  0  0  0  0  0
    2.2281    1.0523   -0.9058 C   0  0  0  0  0  0  0  0  0  0  0  0
    0.7797    0.7689   -0.7292 C   0  0  0  0  0  0  0  0  0  0  0  0
   -0.1442    1.7423   -0.4668 C   0  0  0  0  0  0  0  0  0  0  0  0
   -1.5013    1.4672   -0.3080 C   0  0  0  0  0  0  0  0  0  0  0  0
   -1.9238    0.1572   -0.4206 C   0  0  0  0  0  0  0  0  0  0  0  0
   -3.2352   -0.1821   -0.2858 C   0  0  0  0  0  0  0  0  0  0  0  0
   -3.5730   -1.5403   -0.4296 C   0  0  0  0  0  0  0  0  0  0  0  0
   -2.6717   -2.5180   -0.6909 C   0  0  0  0  0  0  0  0  0  0  0  0
   -1.3868   -2.1635   -0.8182 N   0  0  0  0  0  0  0  0  0  0  0  0
   -1.0192   -0.8570   -0.6865 C   0  0  0  0  0  0  0  0  0  0  0  0
    0.3181   -0.5138   -0.8336 C   0  0  0  0  0  0  0  0  0  0  0  0
   -3.1187   -3.8976   -0.8227 C   0  0  0  0  0  0  0  0  0  0  0  0
   -4.4915   -4.1925   -0.6749 N   0  0  0  0  0  0  0  0  0  0  0  0
   -2.3077   -4.8198   -1.0638 O   0  0  0  0  0  0  0  0  0  0  0  0
   -4.2795    0.7785    0.0352 C   0  0  0  0  0  0  0  0  0  0  0  0
   -4.2867    1.6042    1.1285 C   0  0  0  0  0  0  0  0  0  0  0  0
   -5.3010    2.5010    1.3920 C   0  0  0  0  0  0  0  0  0  0  0  0
   -6.3781    2.5989    0.5335 C   0  0  0  0  0  0  0  0  0  0  0  0
   -7.3694    3.4852    0.8041 F   0  0  0  0  0  0  0  0  0  0  0  0
   -6.3980    1.7803   -0.5753 C   0  0  0  0  0  0  0  0  0  0  0  0
   -5.3783    0.8898   -0.8252 C   0  0  0  0  0  0  0  0  0  0  0  0
    4.3783    0.0622   -1.3038 C   0  0  0  0  0  0  0  0  0  0  0  0
    5.3823    0.6672   -0.3660 C   0  0  1  0  0  0  0  0  0  0  0  0
    5.4891    2.1465   -0.6596 C   0  0  0  0  0  0  0  0  0  0  0  0
    5.0505    0.5311    0.9676 O   0  0  0  0  0  0  0  0  0  0  0  0
    6.1758   -1.5134    0.5814 H   0  0  0  0  0  0  0  0  0  0  0  0
    4.6987   -2.5985    0.3719 H   0  0  0  0  0  0  0  0  0  0  0  0
    5.4748   -2.3895    1.9546 H   0  0  0  0  0  0  0  0  0  0  0  0
    4.1333   -0.6203    2.3433 H   0  0  0  0  0  0  0  0  0  0  0  0
    2.8283   -1.8177    0.4308 H   0  0  0  0  0  0  0  0  0  0  0  0
    2.2823   -0.1954    1.1405 H   0  0  0  0  0  0  0  0  0  0  0  0
    2.4934    1.7748   -0.0823 H   0  0  0  0  0  0  0  0  0  0  0  0
    2.4458    1.5669   -1.8405 H   0  0  0  0  0  0  0  0  0  0  0  0
    0.1853    2.7633   -0.3785 H   0  0  0  0  0  0  0  0  0  0  0  0
   -2.2107    2.2348   -0.1174 H   0  0  0  0  0  0  0  0  0  0  0  0
   -4.6149   -1.7826   -0.3199 H   0  0  0  0  0  0  0  0  0  0  0  0
    1.0008   -1.3511   -1.0473 H   0  0  0  0  0  0  0  0  0  0  0  0
   -4.9309   -4.1419    0.2757 H   0  0  0  0  0  0  0  0  0  0  0  0
   -5.1180   -4.4645   -1.4633 H   0  0  0  0  0  0  0  0  0  0  0  0
   -3.4567    1.5524    1.8215 H   0  0  0  0  0  0  0  0  0  0  0  0
   -5.3022    3.1504    2.2560 H   0  0  0  0  0  0  0  0  0  0  0  0
   -7.2466    1.8673   -1.2384 H   0  0  0  0  0  0  0  0  0  0  0  0
   -5.4314    0.2687   -1.7016 H   0  0  0  0  0  0  0  0  0  0  0  0
    4.3236    0.7021   -2.2077 H   0  0  0  0  0  0  0  0  0  0  0  0
    4.7817   -0.9227   -1.6694 H   0  0  0  0  0  0  0  0  0  0  0  0
    6.3742    0.1906   -0.5258 H   0  0  0  0  0  0  0  0  0  0  0  0
    6.5256    2.4807   -0.4499 H   0  0  0  0  0  0  0  0  0  0  0  0
    5.2295    2.3024   -1.7261 H   0  0  0  0  0  0  0  0  0  0  0  0
    4.8012    2.6861    0.0235 H   0  0  0  0  0  0  0  0  0  0  0  0
  1  2  1  0
  2  3  1  0
  3  4  1  0
  4  5  1  0
  5  6  1  0
  6  7  2  0
  7  8  1  0
  8  9  2  0
  9 10  1  0
 10 11  2  0
 11 12  1  0
 12 13  2  0
 13 14  1  0
 14 15  2  0
 12 16  1  0
 16 17  1  0
 16 18  2  0
 10 19  1  0
 19 20  2  0
 20 21  1  0
 21 22  2  0
 22 23  1  0
 22 24  1  0
 24 25  2  0
  4 26  1  0
 26 27  1  0
 27 28  1  0
 27 29  1  0
 29  2  1  0
 15  6  1  0
 25 19  1  0
 14  9  1  0
  1 30  1  0
  1 31  1  0
  1 32  1  0
  2 33  1  1
  3 34  1  0
  3 35  1  0
  5 36  1  0
  5 37  1  0
  7 38  1  0
  8 39  1  0
 11 40  1  0
 15 41  1  0
 17 42  1  0
 17 43  1  0
 20 44  1  0
 21 45  1  0
 24 46  1  0
 25 47  1  0
 26 48  1  0
 26 49  1  0
 27 50  1  1
 28 51  1  0
 28 52  1  0
 28 53  1  0
M  END
$$$$
