[H]c1nc(N([H])c2c([H])c([H])c(N3C([H])([H])C([H])([H])C([H])(N4C([H])([H])C([H])([H])N(C([H])([H])[H])C([H])([H])C4([H])[H])C([H])([H])C3([H])[H])c([H])c2OC([H])([H])[H])nc(N([H])c2c([H])c([H])c([H])c([H])c2S(=O)(=O)C([H])(C([H])([H])[H])C([H])([H])[H])c1Cl
     RDKit          3D

 82 86  0  0  0  0  0  0  0  0999 V2000
   -0.1870    3.7228   -1.2569 C   0  0  0  0  0  0  0  0  0  0  0  0
    0.4390    2.5297   -0.8437 O   0  0  0  0  0  0  0  0  0  0  0  0
   -0.3483    1.4775   -0.4024 C   0  0  0  0  0  0  0  0  0  0  0  0
   -1.7220    1.6350   -0.3827 C   0  0  0  0  0  0  0  0  0  0  0  0
   -2.5624    0.6308    0.0436 C   0  0  0  0  0  0  0  0  0  0  0  0
   -1.9599   -0.5357    0.4478 C   0  0  0  0  0  0  0  0  0  0  0  0
   -0.5748   -0.7280    0.4408 C   0  0  0  0  0  0  0  0  0  0  0  0
    0.2576    0.2764    0.0150 C   0  0  0  0  0  0  0  0  0  0  0  0
    1.6540    0.2011   -0.0367 N   0  0  0  0  0  0  0  0  0  0  0  0
    2.4984   -0.8842    0.3177 C   0  0  0  0  0  0  0  0  0  0  0  0
    2.1033   -2.0726    0.7812 N   0  0  0  0  0  0  0  0  0  0  0  0
    2.9559   -3.0558    1.0957 C   0  0  0  0  0  0  0  0  0  0  0  0
    4.3092   -2.8632    0.9451 C   0  0  0  0  0  0  0  0  0  0  0  0
    5.4455   -4.1449    1.3534 Cl  0  0  0  0  0  0  0  0  0  0  0  0
    4.7527   -1.6166    0.4572 C   0  0  0  0  0  0  0  0  0  0  0  0
    6.1380   -1.4466    0.3110 N   0  0  0  0  0  0  0  0  0  0  0  0
    6.9009   -0.3576   -0.1368 C   0  0  0  0  0  0  0  0  0  0  0  0
    6.2766    0.8084   -0.5266 C   0  0  0  0  0  0  0  0  0  0  0  0
    7.0240    1.9039   -0.9778 C   0  0  0  0  0  0  0  0  0  0  0  0
    8.3820    1.8034   -1.0274 C   0  0  0  0  0  0  0  0  0  0  0  0
    9.0024    0.6381   -0.6374 C   0  0  0  0  0  0  0  0  0  0  0  0
    8.2961   -0.4485   -0.1920 C   0  0  0  0  0  0  0  0  0  0  0  0
    9.0842   -1.8926    0.2913 S   0  0  0  0  0  0  0  0  0  0  0  0
    8.6633   -3.0312   -0.6035 O   0  0  0  0  0  0  0  0  0  0  0  0
    8.8235   -2.3045    1.7132 O   0  0  0  0  0  0  0  0  0  0  0  0
   10.8572   -1.7881    0.1370 C   0  0  0  0  0  0  0  0  0  0  0  0
   11.2609   -1.6791   -1.2975 C   0  0  0  0  0  0  0  0  0  0  0  0
   11.4760   -0.7869    1.0544 C   0  0  0  0  0  0  0  0  0  0  0  0
    3.8248   -0.7008    0.1721 N   0  0  0  0  0  0  0  0  0  0  0  0
   -3.9818    0.8060    0.0512 N   0  0  0  0  0  0  0  0  0  0  0  0
   -4.5241    1.9609   -0.5784 C   0  0  0  0  0  0  0  0  0  0  0  0
   -6.0011    1.9283   -0.8544 C   0  0  0  0  0  0  0  0  0  0  0  0
   -6.8245    1.3726    0.2584 C   0  0  0  0  0  0  0  0  0  0  0  0
   -6.0036    0.6088    1.2781 C   0  0  0  0  0  0  0  0  0  0  0  0
   -4.8657   -0.1463    0.6796 C   0  0  0  0  0  0  0  0  0  0  0  0
   -7.9560    0.6086   -0.0875 N   0  0  0  0  0  0  0  0  0  0  0  0
   -7.7905   -0.5856   -0.8057 C   0  0  0  0  0  0  0  0  0  0  0  0
   -9.1362   -1.0235   -1.3907 C   0  0  0  0  0  0  0  0  0  0  0  0
  -10.1390   -0.8718   -0.3544 N   0  0  0  0  0  0  0  0  0  0  0  0
  -10.0361   -1.8235    0.7053 C   0  0  0  0  0  0  0  0  0  0  0  0
  -10.3349    0.4834    0.0484 C   0  0  0  0  0  0  0  0  0  0  0  0
   -9.1475    1.3193   -0.4248 C   0  0  0  0  0  0  0  0  0  0  0  0
    0.5375    4.4499   -1.6799 H   0  0  0  0  0  0  0  0  0  0  0  0
   -0.9481    3.5330   -2.0530 H   0  0  0  0  0  0  0  0  0  0  0  0
   -0.6880    4.2523   -0.4156 H   0  0  0  0  0  0  0  0  0  0  0  0
   -2.1476    2.5764   -0.7105 H   0  0  0  0  0  0  0  0  0  0  0  0
   -2.6020   -1.3517    0.7883 H   0  0  0  0  0  0  0  0  0  0  0  0
   -0.2121   -1.6859    0.7807 H   0  0  0  0  0  0  0  0  0  0  0  0
    2.1500    1.0935   -0.3956 H   0  0  0  0  0  0  0  0  0  0  0  0
    2.6174   -4.0222    1.4737 H   0  0  0  0  0  0  0  0  0  0  0  0
    6.7215   -2.3022    0.5911 H   0  0  0  0  0  0  0  0  0  0  0  0
    5.2202    0.9989   -0.5296 H   0  0  0  0  0  0  0  0  0  0  0  0
    6.5603    2.8305   -1.2896 H   0  0  0  0  0  0  0  0  0  0  0  0
    9.0220    2.6252   -1.3712 H   0  0  0  0  0  0  0  0  0  0  0  0
   10.0936    0.6299   -0.7052 H   0  0  0  0  0  0  0  0  0  0  0  0
   11.2252   -2.8031    0.4806 H   0  0  0  0  0  0  0  0  0  0  0  0
   11.9033   -0.7785   -1.4926 H   0  0  0  0  0  0  0  0  0  0  0  0
   10.3307   -1.5514   -1.9199 H   0  0  0  0  0  0  0  0  0  0  0  0
   11.7765   -2.5763   -1.6995 H   0  0  0  0  0  0  0  0  0  0  0  0
   12.0225   -1.2557    1.8769 H   0  0  0  0  0  0  0  0  0  0  0  0
   12.1781   -0.1622    0.4319 H   0  0  0  0  0  0  0  0  0  0  0  0
   10.7434   -0.0899    1.5079 H   0  0  0  0  0  0  0  0  0  0  0  0
   -4.2803    2.8410    0.0525 H   0  0  0  0  0  0  0  0  0  0  0  0
   -3.9354    2.1199   -1.5269 H   0  0  0  0  0  0  0  0  0  0  0  0
   -6.3084    2.9635   -1.1164 H   0  0  0  0  0  0  0  0  0  0  0  0
   -6.1470    1.3325   -1.7818 H   0  0  0  0  0  0  0  0  0  0  0  0
   -7.2139    2.2642    0.8421 H   0  0  0  0  0  0  0  0  0  0  0  0
   -6.6586   -0.1075    1.8153 H   0  0  0  0  0  0  0  0  0  0  0  0
   -5.5929    1.2907    2.0626 H   0  0  0  0  0  0  0  0  0  0  0  0
   -5.1731   -0.8869   -0.0780 H   0  0  0  0  0  0  0  0  0  0  0  0
   -4.3121   -0.6097    1.5260 H   0  0  0  0  0  0  0  0  0  0  0  0
   -7.5080   -1.4012   -0.0997 H   0  0  0  0  0  0  0  0  0  0  0  0
   -7.0082   -0.5774   -1.5870 H   0  0  0  0  0  0  0  0  0  0  0  0
   -9.4445   -0.3742   -2.2343 H   0  0  0  0  0  0  0  0  0  0  0  0
   -9.0261   -2.0597   -1.7202 H   0  0  0  0  0  0  0  0  0  0  0  0
   -9.1822   -2.5377    0.5321 H   0  0  0  0  0  0  0  0  0  0  0  0
   -9.9814   -1.3564    1.7041 H   0  0  0  0  0  0  0  0  0  0  0  0
  -10.9456   -2.4645    0.6802 H   0  0  0  0  0  0  0  0  0  0  0  0
  -11.2261    0.8855   -0.4545 H   0  0  0  0  0  0  0  0  0  0  0  0
  -10.4517    0.5517    1.1515 H   0  0  0  0  0  0  0  0  0  0  0  0
   -9.2778    1.5186   -1.4917 H   0  0  0  0  0  0  0  0  0  0  0  0
   -9.1611    2.2698    0.1783 H   0  0  0  0  0  0  0  0  0  0  0  0
  1  2  1  0
  2  3  1  0
  3  4  2  0
  4  5  1  0
  5  6  2  0
  6  7  1  0
  7  8  2  0
  8  9  1  0
  9 10  1  0
 10 11  2  0
 11 12  1  0
 12 13  2  0
 13 14  1  0
 13 15  1  0
 15 16  1  0
 16 17  1  0
 17 18  2  0
 18 19  1  0
 19 20  2  0
 20 21  1  0
 21 22  2  0
 22 23  1  0
 23 24  2  0
 23 25  2  0
 23 26  1  0
 26 27  1  0
 26 28  1  0
 15 29  2  0
  5 30  1  0
 30 31  1  0
 31 32  1  0
 32 33  1  0
 33 34  1  0
 34 35  1  0
 33 36  1  0
 36 37  1  0
 37 38  1  0
 38 39  1  0
 39 40  1  0
 39 41  1  0
 41 42  1  0
  8  3  1  0
 29 10  1  0
 35 30  1  0
 42 36  1  0
 22 17  1  0
  1 43  1  0
  1 44  1  0
  1 45  1  0
  4 46  1  0
  6 47  1  0
  7 48  1  0
  9 49  1  0
 12 50  1  0
 16 51  1  0
 18 52  1  0
 19 53  1  0
 20 54  1  0
 21 55  1  0
 26 56  1  0
 27 57  1  0
 27 58  1  0
 27 59  1  0
 28 60  1  0
 28 61  1  0
 28 62  1  0
 31 63  1  0
 31 64  1  0
 32 65  1  0
 32 66  1  0
 33 67  1  0
 34 68  1  0
 34 69  1  0
 35 70  1  0
 35 71  1  0
 37 72  1  0
 37 73  1  0
 38 74  1  0
 38 75  1  0
 40 76  1  0
 40 77  1  0
 40 78  1  0
 41 79  1  0
 41 80  1  0
 42 81  1  0
 42 82  1  0
M  END
$$$$
[H]OC([H])([H])C([H])([H])N([H])c1c([H])c(-c2c(C([H])([H])C([H])([H])C([H])([H])[H])c3c([H])c(C4([H])C([H])([H])C([H])([H])N(C5([H])C([H])([H])C([H])([H])OC([H])([H])C([H])([H])C5([H])[H])C([H])([H])C4([H])[H])c([H])c([H])c3n2[H])c([H])n2nc([H])nc12
     RDKit          3D

 78 83  0  0  0  0  0  0  0  0999 V2000
   -1.6711   -1.3539   -2.8944 C   0  0  0  0  0  0  0  0  0  0  0  0
   -2.4908   -2.3750   -2.1402 C   0  0  0  0  0  0  0  0  0  0  0  0
   -2.1258   -2.4351   -0.6794 C   0  0  0  0  0  0  0  0  0  0  0  0
   -2.3146   -1.1796    0.0551 C   0  0  0  0  0  0  0  0  0  0  0  0
   -3.4206   -0.5449    0.5610 C   0  0  0  0  0  0  0  0  0  0  0  0
   -3.0247    0.6313    1.1244 N   0  0  0  0  0  0  0  0  0  0  0  0
   -1.7166    0.7761    1.0020 C   0  0  0  0  0  0  0  0  0  0  0  0
   -0.8103    1.7811    1.3937 C   0  0  0  0  0  0  0  0  0  0  0  0
    0.5326    1.6402    1.1110 C   0  0  0  0  0  0  0  0  0  0  0  0
    1.0353    0.5372    0.4491 C   0  0  0  0  0  0  0  0  0  0  0  0
    0.1262   -0.4257    0.0803 C   0  0  0  0  0  0  0  0  0  0  0  0
   -1.2412   -0.3178    0.3492 C   0  0  0  0  0  0  0  0  0  0  0  0
    2.4690    0.4051    0.1556 C   0  0  0  0  0  0  0  0  0  0  0  0
    3.0761   -0.7993    0.7936 C   0  0  0  0  0  0  0  0  0  0  0  0
    4.5620   -0.8647    0.4545 C   0  0  0  0  0  0  0  0  0  0  0  0
    4.9170    0.2501   -0.3327 N   0  0  0  0  0  0  0  0  0  0  0  0
    4.2212    0.3680   -1.5637 C   0  0  0  0  0  0  0  0  0  0  0  0
    2.7342    0.3424   -1.3375 C   0  0  0  0  0  0  0  0  0  0  0  0
    6.2374    0.7310   -0.2906 C   0  0  0  0  0  0  0  0  0  0  0  0
    6.5632    1.2197    1.0969 C   0  0  0  0  0  0  0  0  0  0  0  0
    7.9090    1.9103    1.1482 C   0  0  0  0  0  0  0  0  0  0  0  0
    9.0277    0.9642    0.8111 C   0  0  0  0  0  0  0  0  0  0  0  0
    9.3750    0.9404   -0.5102 O   0  0  0  0  0  0  0  0  0  0  0  0
    8.4612    0.4449   -1.3915 C   0  0  0  0  0  0  0  0  0  0  0  0
    7.2698   -0.2380   -0.8139 C   0  0  0  0  0  0  0  0  0  0  0  0
   -4.8337   -0.9535    0.5114 C   0  0  0  0  0  0  0  0  0  0  0  0
   -5.7653    0.0056    0.8254 C   0  0  0  0  0  0  0  0  0  0  0  0
   -7.1004   -0.2823    0.8392 C   0  0  0  0  0  0  0  0  0  0  0  0
   -8.0849    0.6913    1.1786 N   0  0  0  0  0  0  0  0  0  0  0  0
   -7.7670    2.0766    1.4096 C   0  0  0  0  0  0  0  0  0  0  0  0
   -7.4182    2.8524    0.1869 C   0  0  0  0  0  0  0  0  0  0  0  0
   -8.4903    2.8584   -0.7373 O   0  0  0  0  0  0  0  0  0  0  0  0
   -7.5274   -1.5667    0.5317 C   0  0  0  0  0  0  0  0  0  0  0  0
   -8.7313   -2.1653    0.4559 N   0  0  0  0  0  0  0  0  0  0  0  0
   -8.5770   -3.4688    0.1045 C   0  0  0  0  0  0  0  0  0  0  0  0
   -7.2401   -3.6388   -0.0297 N   0  0  0  0  0  0  0  0  0  0  0  0
   -6.6259   -2.4833    0.2315 N   0  0  0  0  0  0  0  0  0  0  0  0
   -5.2873   -2.1967    0.2169 C   0  0  0  0  0  0  0  0  0  0  0  0
   -0.5988   -1.5981   -2.8038 H   0  0  0  0  0  0  0  0  0  0  0  0
   -1.8668   -0.3181   -2.5492 H   0  0  0  0  0  0  0  0  0  0  0  0
   -2.0243   -1.3938   -3.9571 H   0  0  0  0  0  0  0  0  0  0  0  0
   -3.5603   -2.2454   -2.3513 H   0  0  0  0  0  0  0  0  0  0  0  0
   -2.2109   -3.3757   -2.5622 H   0  0  0  0  0  0  0  0  0  0  0  0
   -1.0009   -2.6353   -0.6980 H   0  0  0  0  0  0  0  0  0  0  0  0
   -2.5311   -3.3433   -0.2387 H   0  0  0  0  0  0  0  0  0  0  0  0
   -3.6278    1.3661    1.6104 H   0  0  0  0  0  0  0  0  0  0  0  0
   -1.2194    2.6283    1.9055 H   0  0  0  0  0  0  0  0  0  0  0  0
    1.2269    2.4230    1.4180 H   0  0  0  0  0  0  0  0  0  0  0  0
    0.5069   -1.2946   -0.4380 H   0  0  0  0  0  0  0  0  0  0  0  0
    3.0169    1.3001    0.5362 H   0  0  0  0  0  0  0  0  0  0  0  0
    2.5226   -1.6947    0.4983 H   0  0  0  0  0  0  0  0  0  0  0  0
    2.9201   -0.6789    1.9061 H   0  0  0  0  0  0  0  0  0  0  0  0
    5.1013   -0.9267    1.3979 H   0  0  0  0  0  0  0  0  0  0  0  0
    4.7234   -1.7861   -0.1807 H   0  0  0  0  0  0  0  0  0  0  0  0
    4.5006   -0.4353   -2.2831 H   0  0  0  0  0  0  0  0  0  0  0  0
    4.4461    1.3859   -1.9968 H   0  0  0  0  0  0  0  0  0  0  0  0
    2.2430   -0.5802   -1.7028 H   0  0  0  0  0  0  0  0  0  0  0  0
    2.2140    1.2176   -1.7873 H   0  0  0  0  0  0  0  0  0  0  0  0
    6.2986    1.6422   -0.9543 H   0  0  0  0  0  0  0  0  0  0  0  0
    5.8012    1.9789    1.3697 H   0  0  0  0  0  0  0  0  0  0  0  0
    6.5490    0.4274    1.8448 H   0  0  0  0  0  0  0  0  0  0  0  0
    7.9677    2.7825    0.4978 H   0  0  0  0  0  0  0  0  0  0  0  0
    8.0596    2.2454    2.1959 H   0  0  0  0  0  0  0  0  0  0  0  0
    9.9436    1.3139    1.3736 H   0  0  0  0  0  0  0  0  0  0  0  0
    8.8341   -0.0611    1.2465 H   0  0  0  0  0  0  0  0  0  0  0  0
    8.0965    1.2057   -2.1319 H   0  0  0  0  0  0  0  0  0  0  0  0
    8.9930   -0.3206   -2.0310 H   0  0  0  0  0  0  0  0  0  0  0  0
    7.5606   -0.9946   -0.0758 H   0  0  0  0  0  0  0  0  0  0  0  0
    6.7685   -0.7981   -1.6464 H   0  0  0  0  0  0  0  0  0  0  0  0
   -5.4778    1.0353    1.0880 H   0  0  0  0  0  0  0  0  0  0  0  0
   -9.0965    0.4082    1.2697 H   0  0  0  0  0  0  0  0  0  0  0  0
   -8.6050    2.5998    1.9177 H   0  0  0  0  0  0  0  0  0  0  0  0
   -6.9250    2.1070    2.1527 H   0  0  0  0  0  0  0  0  0  0  0  0
   -7.2204    3.9125    0.4676 H   0  0  0  0  0  0  0  0  0  0  0  0
   -6.5197    2.5028   -0.3463 H   0  0  0  0  0  0  0  0  0  0  0  0
   -8.0852    3.0441   -1.6288 H   0  0  0  0  0  0  0  0  0  0  0  0
   -9.3712   -4.1901   -0.0310 H   0  0  0  0  0  0  0  0  0  0  0  0
   -4.6054   -2.9934   -0.0205 H   0  0  0  0  0  0  0  0  0  0  0  0
  1  2  1  0
  2  3  1  0
  3  4  1  0
  4  5  2  0
  5  6  1  0
  6  7  1  0
  7  8  2  0
  8  9  1  0
  9 10  2  0
 10 11  1  0
 11 12  2  0
 10 13  1  0
 13 14  1  0
 14 15  1  0
 15 16  1  0
 16 17  1  0
 17 18  1  0
 16 19  1  0
 19 20  1  0
 20 21  1  0
 21 22  1  0
 22 23  1  0
 23 24  1  0
 24 25  1  0
  5 26  1  0
 26 27  1  0
 27 28  2  0
 28 29  1  0
 29 30  1  0
 30 31  1  0
 31 32  1  0
 28 33  1  0
 33 34  2  0
 34 35  1  0
 35 36  2  0
 36 37  1  0
 37 38  1  0
 12  4  1  0
 18 13  1  0
 25 19  1  0
 38 26  2  0
 12  7  1  0
 37 33  1  0
  1 39  1  0
  1 40  1  0
  1 41  1  0
  2 42  1  0
  2 43  1  0
  3 44  1  0
  3 45  1  0
  6 46  1  0
  8 47  1  0
  9 48  1  0
 11 49  1  0
 13 50  1  0
 14 51  1  0
 14 52  1  0
 15 53  1  0
 15 54  1  0
 17 55  1  0
 17 56  1  0
 18 57  1  0
 18 58  1  0
 19 59  1  0
 20 60  1  0
 20 61  1  0
 21 62  1  0
 21 63  1  0
 22 64  1  0
 22 65  1  0
 24 66  1  0
 24 67  1  0
 25 68  1  0
 25 69  1  0
 27 70  1  0
 29 71  1  0
 30 72  1  0
 30 73  1  0
 31 74  1  0
 31 75  1  0
 32 76  1  0
 35 77  1  0
 38 78  1  0
M  END
$$$$
[H]c1c([H])c([H])c(-c2c([H])c([H])c([H])c(C([H])(C(=O)N([H])C([H])([H])C#N)C([H])([H])C([H])(C([H])([H])[H])C([H])([H])[H])c2[H])c([H])c1[H]
     RDKit          3D

 45 46  0  0  0  0  0  0  0  0999 V2000
   -3.9913   -1.4659    0.5651 C   0  0  0  0  0  0  0  0  0  0  0  0
   -2.8865   -0.7006    1.2633 C   0  0  0  0  0  0  0  0  0  0  0  0
   -2.7977   -1.3360    2.6635 C   0  0  0  0  0  0  0  0  0  0  0  0
   -1.5626   -0.8463    0.6398 C   0  0  0  0  0  0  0  0  0  0  0  0
   -1.3538   -0.3834   -0.7563 C   0  0  0  0  0  0  0  0  0  0  0  0
   -1.5330    1.0328   -1.0308 C   0  0  0  0  0  0  0  0  0  0  0  0
   -0.5058    1.7142   -1.3623 O   0  0  0  0  0  0  0  0  0  0  0  0
   -2.7401    1.7195   -0.9650 N   0  0  0  0  0  0  0  0  0  0  0  0
   -2.8532    3.1538   -1.2524 C   0  0  0  0  0  0  0  0  0  0  0  0
   -4.2345    3.6058   -1.1056 C   0  0  0  0  0  0  0  0  0  0  0  0
   -5.3344    3.9506   -0.9905 N   0  0  0  0  0  0  0  0  0  0  0  0
    0.0772   -0.7680   -1.0936 C   0  0  0  0  0  0  0  0  0  0  0  0
    0.3312   -1.6560   -2.1087 C   0  0  0  0  0  0  0  0  0  0  0  0
    1.6099   -2.0420   -2.4593 C   0  0  0  0  0  0  0  0  0  0  0  0
    2.6630   -1.5092   -1.7566 C   0  0  0  0  0  0  0  0  0  0  0  0
    2.4556   -0.6135   -0.7289 C   0  0  0  0  0  0  0  0  0  0  0  0
    1.1463   -0.2467   -0.4032 C   0  0  0  0  0  0  0  0  0  0  0  0
    3.5492   -0.0325    0.0338 C   0  0  0  0  0  0  0  0  0  0  0  0
    4.7683    0.2019   -0.5602 C   0  0  0  0  0  0  0  0  0  0  0  0
    5.8242    0.7596    0.1680 C   0  0  0  0  0  0  0  0  0  0  0  0
    5.6481    1.0792    1.4916 C   0  0  0  0  0  0  0  0  0  0  0  0
    4.4248    0.8426    2.0827 C   0  0  0  0  0  0  0  0  0  0  0  0
    3.3653    0.2844    1.3574 C   0  0  0  0  0  0  0  0  0  0  0  0
   -4.8333   -1.5473    1.2865 H   0  0  0  0  0  0  0  0  0  0  0  0
   -3.6737   -2.5319    0.3816 H   0  0  0  0  0  0  0  0  0  0  0  0
   -4.3739   -0.9933   -0.3391 H   0  0  0  0  0  0  0  0  0  0  0  0
   -3.2276    0.3194    1.4443 H   0  0  0  0  0  0  0  0  0  0  0  0
   -2.1832   -2.2527    2.5295 H   0  0  0  0  0  0  0  0  0  0  0  0
   -2.3518   -0.6497    3.3927 H   0  0  0  0  0  0  0  0  0  0  0  0
   -3.8017   -1.6637    3.0054 H   0  0  0  0  0  0  0  0  0  0  0  0
   -1.1888   -1.9087    0.7733 H   0  0  0  0  0  0  0  0  0  0  0  0
   -0.8277   -0.2675    1.2850 H   0  0  0  0  0  0  0  0  0  0  0  0
   -1.9808   -0.9392   -1.4959 H   0  0  0  0  0  0  0  0  0  0  0  0
   -3.6172    1.2359   -0.7156 H   0  0  0  0  0  0  0  0  0  0  0  0
   -2.5564    3.3066   -2.3131 H   0  0  0  0  0  0  0  0  0  0  0  0
   -2.1733    3.6874   -0.5849 H   0  0  0  0  0  0  0  0  0  0  0  0
   -0.5061   -2.0781   -2.6653 H   0  0  0  0  0  0  0  0  0  0  0  0
    1.7938   -2.7352   -3.2528 H   0  0  0  0  0  0  0  0  0  0  0  0
    3.6550   -1.8085   -2.0279 H   0  0  0  0  0  0  0  0  0  0  0  0
    0.9301    0.4519    0.3937 H   0  0  0  0  0  0  0  0  0  0  0  0
    4.8761   -0.0572   -1.5940 H   0  0  0  0  0  0  0  0  0  0  0  0
    6.7788    0.9459   -0.2879 H   0  0  0  0  0  0  0  0  0  0  0  0
    6.4723    1.5163    2.0654 H   0  0  0  0  0  0  0  0  0  0  0  0
    4.2687    1.0909    3.1341 H   0  0  0  0  0  0  0  0  0  0  0  0
    2.4507    0.1341    1.8932 H   0  0  0  0  0  0  0  0  0  0  0  0
  1  2  1  0
  2  3  1  0
  2  4  1  0
  4  5  1  0
  5  6  1  0
  6  7  2  0
  6  8  1  0
  8  9  1  0
  9 10  1  0
 10 11  3  0
  5 12  1  0
 12 13  2  0
 13 14  1  0
 14 15  2  0
 15 16  1  0
 16 17  2  0
 16 18  1  0
 18 19  2  0
 19 20  1  0
 20 21  2  0
 21 22  1  0
 22 23  2  0
 17 12  1  0
 23 18  1  0
  1 24  1  0
  1 25  1  0
  1 26  1  0
  2 27  1  0
  3 28  1  0
  3 29  1  0
  3 30  1  0
  4 31  1  0
  4 32  1  0
  5 33  1  0
  8 34  1  0
  9 35  1  0
  9 36  1  0
 13 37  1  0
 14 38  1  0
 15 39  1  0
 17 40  1  0
 19 41  1  0
 20 42  1  0
 21 43  1  0
 22 44  1  0
 23 45  1  0
M  END
$$$$
[H]C1=C(C(=O)N(C([H])([H])C([H])([H])C([H])([H])[H])C([H])([H])C([H])([H])C([H])([H])[H])C([H])([H])C(N([H])[H])=Nc2c([H])c(C(=O)N3C([H])([H])C([H])([H])C([H])(N([H])c4nc([H])c([H])c([H])c4[H])C([H])([H])C3([H])[H])c([H])c([H])c21
     RDKit          3D

 72 75  0  0  0  0  0  0  0  0999 V2000
   -7.8109    0.9047    4.1597 C   0  0  0  0  0  0  0  0  0  0  0  0
   -6.9643    1.1471    2.9473 C   0  0  0  0  0  0  0  0  0  0  0  0
   -7.0547    0.0157    1.9799 C   0  0  0  0  0  0  0  0  0  0  0  0
   -6.1841    0.3121    0.7798 N   0  0  0  0  0  0  0  0  0  0  0  0
   -6.8181    1.0113   -0.2869 C   0  0  0  0  0  0  0  0  0  0  0  0
   -7.4451    0.1259   -1.3408 C   0  0  0  0  0  0  0  0  0  0  0  0
   -8.0694    1.0134   -2.3914 C   0  0  0  0  0  0  0  0  0  0  0  0
   -4.8896   -0.1156    0.8686 C   0  0  0  0  0  0  0  0  0  0  0  0
   -4.6236   -0.7073    2.0367 O   0  0  0  0  0  0  0  0  0  0  0  0
   -3.7245   -0.0936    0.0179 C   0  0  0  0  0  0  0  0  0  0  0  0
   -2.6059   -0.6586    0.5632 C   0  0  0  0  0  0  0  0  0  0  0  0
   -1.2788   -0.7942   -0.0408 C   0  0  0  0  0  0  0  0  0  0  0  0
   -0.3001   -0.7687    0.9232 C   0  0  0  0  0  0  0  0  0  0  0  0
    1.0282   -0.8956    0.4832 C   0  0  0  0  0  0  0  0  0  0  0  0
    1.3909   -1.0414   -0.8225 C   0  0  0  0  0  0  0  0  0  0  0  0
    0.3377   -1.0586   -1.7554 C   0  0  0  0  0  0  0  0  0  0  0  0
   -0.9647   -0.9393   -1.3846 C   0  0  0  0  0  0  0  0  0  0  0  0
   -1.9297   -0.9910   -2.4324 N   0  0  0  0  0  0  0  0  0  0  0  0
   -3.0900   -0.3771   -2.3796 C   0  0  0  0  0  0  0  0  0  0  0  0
   -3.8735   -0.5782   -3.5350 N   0  0  0  0  0  0  0  0  0  0  0  0
   -3.6928    0.4945   -1.3248 C   0  0  0  0  0  0  0  0  0  0  0  0
    2.7410   -1.2255   -1.2814 C   0  0  0  0  0  0  0  0  0  0  0  0
    2.8653   -1.1226   -2.5967 O   0  0  0  0  0  0  0  0  0  0  0  0
    3.9279   -1.4861   -0.6437 N   0  0  0  0  0  0  0  0  0  0  0  0
    4.2499   -1.7303    0.7274 C   0  0  0  0  0  0  0  0  0  0  0  0
    4.9689   -0.4593    1.2008 C   0  0  0  0  0  0  0  0  0  0  0  0
    6.3228   -0.4881    0.4454 C   0  0  0  0  0  0  0  0  0  0  0  0
    6.0410   -0.3206   -1.0093 C   0  0  0  0  0  0  0  0  0  0  0  0
    5.1680   -1.4668   -1.4934 C   0  0  0  0  0  0  0  0  0  0  0  0
    7.1986    0.5160    1.0082 N   0  0  0  0  0  0  0  0  0  0  0  0
    8.5428    0.6326    0.6117 C   0  0  0  0  0  0  0  0  0  0  0  0
    9.3635    1.6230    1.1499 C   0  0  0  0  0  0  0  0  0  0  0  0
   10.6774    1.7489    0.7891 C   0  0  0  0  0  0  0  0  0  0  0  0
   11.2130    0.8760   -0.1319 C   0  0  0  0  0  0  0  0  0  0  0  0
   10.3916   -0.1000   -0.6579 C   0  0  0  0  0  0  0  0  0  0  0  0
    9.1190   -0.1832   -0.2760 N   0  0  0  0  0  0  0  0  0  0  0  0
   -7.2991    1.1617    5.1106 H   0  0  0  0  0  0  0  0  0  0  0  0
   -8.7502    1.5136    4.0301 H   0  0  0  0  0  0  0  0  0  0  0  0
   -8.1586   -0.1573    4.1589 H   0  0  0  0  0  0  0  0  0  0  0  0
   -5.9125    1.2524    3.2843 H   0  0  0  0  0  0  0  0  0  0  0  0
   -7.2129    2.1074    2.4393 H   0  0  0  0  0  0  0  0  0  0  0  0
   -6.6346   -0.9080    2.4036 H   0  0  0  0  0  0  0  0  0  0  0  0
   -8.0725   -0.1584    1.5979 H   0  0  0  0  0  0  0  0  0  0  0  0
   -6.2410    1.8369   -0.6975 H   0  0  0  0  0  0  0  0  0  0  0  0
   -7.7540    1.5673    0.1402 H   0  0  0  0  0  0  0  0  0  0  0  0
   -6.7047   -0.5235   -1.8452 H   0  0  0  0  0  0  0  0  0  0  0  0
   -8.2559   -0.4778   -0.8714 H   0  0  0  0  0  0  0  0  0  0  0  0
   -8.1675    0.4391   -3.3506 H   0  0  0  0  0  0  0  0  0  0  0  0
   -9.0858    1.3267   -2.1000 H   0  0  0  0  0  0  0  0  0  0  0  0
   -7.4210    1.9005   -2.5067 H   0  0  0  0  0  0  0  0  0  0  0  0
   -2.7216   -1.0343    1.5573 H   0  0  0  0  0  0  0  0  0  0  0  0
   -0.5503   -0.6589    1.9610 H   0  0  0  0  0  0  0  0  0  0  0  0
    1.8029   -0.8387    1.2491 H   0  0  0  0  0  0  0  0  0  0  0  0
    0.5585   -1.1732   -2.8284 H   0  0  0  0  0  0  0  0  0  0  0  0
   -3.7397    0.0326   -4.3505 H   0  0  0  0  0  0  0  0  0  0  0  0
   -4.5711   -1.3322   -3.5533 H   0  0  0  0  0  0  0  0  0  0  0  0
   -4.5810    0.9288   -1.7098 H   0  0  0  0  0  0  0  0  0  0  0  0
   -2.9504    1.3769   -1.2538 H   0  0  0  0  0  0  0  0  0  0  0  0
    3.4983   -2.1094    1.3896 H   0  0  0  0  0  0  0  0  0  0  0  0
    5.1168   -2.5023    0.7458 H   0  0  0  0  0  0  0  0  0  0  0  0
    5.1152   -0.4393    2.2793 H   0  0  0  0  0  0  0  0  0  0  0  0
    4.3937    0.3856    0.7845 H   0  0  0  0  0  0  0  0  0  0  0  0
    6.7323   -1.4970    0.6249 H   0  0  0  0  0  0  0  0  0  0  0  0
    6.9760   -0.3864   -1.5827 H   0  0  0  0  0  0  0  0  0  0  0  0
    5.5600    0.6666   -1.2298 H   0  0  0  0  0  0  0  0  0  0  0  0
    5.6884   -2.4045   -1.2394 H   0  0  0  0  0  0  0  0  0  0  0  0
    4.9251   -1.4371   -2.5490 H   0  0  0  0  0  0  0  0  0  0  0  0
    6.8531    1.1903    1.7332 H   0  0  0  0  0  0  0  0  0  0  0  0
    8.9330    2.3016    1.8710 H   0  0  0  0  0  0  0  0  0  0  0  0
   11.3273    2.5200    1.2043 H   0  0  0  0  0  0  0  0  0  0  0  0
   12.2601    0.9670   -0.4273 H   0  0  0  0  0  0  0  0  0  0  0  0
   10.8161   -0.7790   -1.3772 H   0  0  0  0  0  0  0  0  0  0  0  0
  1  2  1  0
  2  3  1  0
  3  4  1  0
  4  5  1  0
  5  6  1  0
  6  7  1  0
  4  8  1  0
  8  9  2  0
  8 10  1  0
 10 11  2  0
 11 12  1  0
 12 13  2  0
 13 14  1  0
 14 15  2  0
 15 16  1  0
 16 17  2  0
 17 18  1  0
 18 19  2  0
 19 20  1  0
 19 21  1  0
 15 22  1  0
 22 23  2  0
 22 24  1  0
 24 25  1  0
 25 26  1  0
 26 27  1  0
 27 28  1  0
 28 29  1  0
 27 30  1  0
 30 31  1  0
 31 32  2  0
 32 33  1  0
 33 34  2  0
 34 35  1  0
 35 36  2  0
 21 10  1  0
 29 24  1  0
 36 31  1  0
 17 12  1  0
  1 37  1  0
  1 38  1  0
  1 39  1  0
  2 40  1  0
  2 41  1  0
  3 42  1  0
  3 43  1  0
  5 44  1  0
  5 45  1  0
  6 46  1  0
  6 47  1  0
  7 48  1  0
  7 49  1  0
  7 50  1  0
 11 51  1  0
 13 52  1  0
 14 53  1  0
 16 54  1  0
 20 55  1  0
 20 56  1  0
 21 57  1  0
 21 58  1  0
 25 59  1  0
 25 60  1  0
 26 61  1  0
 26 62  1  0
 27 63  1  0
 28 64  1  0
 28 65  1  0
 29 66  1  0
 29 67  1  0
 30 68  1  0
 32 69  1  0
 33 70  1  0
 34 71  1  0
 35 72  1  0
M  END
$$$$
[H]c1c([H])c([H])c2sc(C(=O)[C@@]([H])(N([H])C(=O)[C@]([H])(N([H])C(=O)[C@@]([H])(N([H])C(=O)c3c([H])n([H])c4c([H])c([H])c([H])c([H])c34)C([H])([H])C([H])([H])C(=O)N([H])[H])C([H])([H])C([H])([H])C([H])([H])N=C(N([H])[H])N([H])[H])C([H])([H])C([H])([H])C([H])([H])C([H])([H])N([H])[H])nc2c1[H]
     RDKit          3D

 91 94  0  0  0  0  0  0  0  0999 V2000
    0.8183    6.9297   -0.4962 N   0  0  0  0  0  0  0  0  0  0  0  0
   -0.3956    6.1955   -0.4362 C   0  0  0  0  0  0  0  0  0  0  0  0
   -1.6569    6.8032   -0.6439 N   0  0  0  0  0  0  0  0  0  0  0  0
   -0.3282    4.9347   -0.1841 N   0  0  0  0  0  0  0  0  0  0  0  0
   -1.4612    4.0570   -0.0919 C   0  0  0  0  0  0  0  0  0  0  0  0
   -1.4686    3.3058    1.2317 C   0  0  0  0  0  0  0  0  0  0  0  0
   -0.2719    2.4701    1.4311 C   0  0  0  0  0  0  0  0  0  0  0  0
    0.0570    1.3856    0.4946 C   0  0  1  0  0  0  0  0  0  0  0  0
    1.3313    0.7775    0.9568 N   0  0  0  0  0  0  0  0  0  0  0  0
    2.3326    0.3029    0.0912 C   0  0  0  0  0  0  0  0  0  0  0  0
    2.1600    0.3752   -1.1462 O   0  0  0  0  0  0  0  0  0  0  0  0
    3.5525   -0.2660    0.7390 C   0  0  2  0  0  0  0  0  0  0  0  0
    4.1745    0.8311    1.6011 C   0  0  0  0  0  0  0  0  0  0  0  0
    5.3825    0.2944    2.3021 C   0  0  0  0  0  0  0  0  0  0  0  0
    6.0226    1.3280    3.1630 C   0  0  0  0  0  0  0  0  0  0  0  0
    7.1580    1.0467    3.9537 N   0  0  0  0  0  0  0  0  0  0  0  0
    5.5329    2.4811    3.1810 O   0  0  0  0  0  0  0  0  0  0  0  0
    4.4451   -0.8538   -0.2011 N   0  0  0  0  0  0  0  0  0  0  0  0
    5.4424   -0.2190   -0.9597 C   0  0  0  0  0  0  0  0  0  0  0  0
    5.5848    1.0613   -0.8311 O   0  0  0  0  0  0  0  0  0  0  0  0
    6.3268   -0.8965   -1.8876 C   0  0  0  0  0  0  0  0  0  0  0  0
    6.7847   -0.2815   -3.0459 C   0  0  0  0  0  0  0  0  0  0  0  0
    7.4985   -1.1728   -3.7088 N   0  0  0  0  0  0  0  0  0  0  0  0
    7.5538   -2.3457   -3.0756 C   0  0  0  0  0  0  0  0  0  0  0  0
    8.1726   -3.5389   -3.3631 C   0  0  0  0  0  0  0  0  0  0  0  0
    8.0614   -4.5903   -2.4903 C   0  0  0  0  0  0  0  0  0  0  0  0
    7.3363   -4.4359   -1.3464 C   0  0  0  0  0  0  0  0  0  0  0  0
    6.7093   -3.2406   -1.0475 C   0  0  0  0  0  0  0  0  0  0  0  0
    6.7976   -2.1701   -1.8979 C   0  0  0  0  0  0  0  0  0  0  0  0
   -0.9192    0.2895    0.4637 C   0  0  0  0  0  0  0  0  0  0  0  0
   -0.5243   -0.8749    0.7839 O   0  0  0  0  0  0  0  0  0  0  0  0
   -2.2685    0.4049    0.1027 N   0  0  0  0  0  0  0  0  0  0  0  0
   -3.1350   -0.7831    0.0807 C   0  0  1  0  0  0  0  0  0  0  0  0
   -3.8631   -0.9782    1.3518 C   0  0  0  0  0  0  0  0  0  0  0  0
   -4.7611    0.0896    1.8506 C   0  0  0  0  0  0  0  0  0  0  0  0
   -5.8593    0.4146    0.9040 C   0  0  0  0  0  0  0  0  0  0  0  0
   -6.8003    1.4766    1.4817 C   0  0  0  0  0  0  0  0  0  0  0  0
   -7.4096    0.9716    2.7078 N   0  0  0  0  0  0  0  0  0  0  0  0
   -3.8563   -0.8639   -1.1749 C   0  0  0  0  0  0  0  0  0  0  0  0
   -3.6916    0.0383   -2.0639 O   0  0  0  0  0  0  0  0  0  0  0  0
   -4.7800   -1.9391   -1.4943 C   0  0  0  0  0  0  0  0  0  0  0  0
   -5.1265   -2.9970   -0.7992 N   0  0  0  0  0  0  0  0  0  0  0  0
   -5.9949   -3.8488   -1.2607 C   0  0  0  0  0  0  0  0  0  0  0  0
   -6.4478   -5.0165   -0.5987 C   0  0  0  0  0  0  0  0  0  0  0  0
   -7.3637   -5.7955   -1.2181 C   0  0  0  0  0  0  0  0  0  0  0  0
   -7.9238   -5.5753   -2.4588 C   0  0  0  0  0  0  0  0  0  0  0  0
   -7.4776   -4.4215   -3.1162 C   0  0  0  0  0  0  0  0  0  0  0  0
   -6.5296   -3.5973   -2.4966 C   0  0  0  0  0  0  0  0  0  0  0  0
   -5.7321   -2.1287   -2.9148 S   0  0  0  0  0  0  0  0  0  0  0  0
    1.3489    7.1076   -1.3739 H   0  0  0  0  0  0  0  0  0  0  0  0
    1.2194    7.3206    0.3872 H   0  0  0  0  0  0  0  0  0  0  0  0
   -2.1800    6.7034   -1.5339 H   0  0  0  0  0  0  0  0  0  0  0  0
   -2.0869    7.3721    0.1161 H   0  0  0  0  0  0  0  0  0  0  0  0
   -1.3400    3.2717   -0.8916 H   0  0  0  0  0  0  0  0  0  0  0  0
   -2.3901    4.6441   -0.2019 H   0  0  0  0  0  0  0  0  0  0  0  0
   -2.4465    2.8883    1.4047 H   0  0  0  0  0  0  0  0  0  0  0  0
   -1.3824    4.1498    2.0037 H   0  0  0  0  0  0  0  0  0  0  0  0
   -0.3402    2.0721    2.5008 H   0  0  0  0  0  0  0  0  0  0  0  0
    0.6101    3.1836    1.5253 H   0  0  0  0  0  0  0  0  0  0  0  0
    0.2843    1.7301   -0.5375 H   0  0  0  0  0  0  0  0  0  0  0  0
    1.4554    0.7144    1.9836 H   0  0  0  0  0  0  0  0  0  0  0  0
    3.2446   -1.0403    1.4890 H   0  0  0  0  0  0  0  0  0  0  0  0
    3.4137    1.0224    2.4288 H   0  0  0  0  0  0  0  0  0  0  0  0
    4.2991    1.7776    1.0804 H   0  0  0  0  0  0  0  0  0  0  0  0
    6.1260   -0.1845    1.6476 H   0  0  0  0  0  0  0  0  0  0  0  0
    4.9877   -0.5255    2.9871 H   0  0  0  0  0  0  0  0  0  0  0  0
    7.0015    0.8584    4.9912 H   0  0  0  0  0  0  0  0  0  0  0  0
    8.1167    1.0249    3.5417 H   0  0  0  0  0  0  0  0  0  0  0  0
    4.3451   -1.9109   -0.3900 H   0  0  0  0  0  0  0  0  0  0  0  0
    6.5999    0.7540   -3.3750 H   0  0  0  0  0  0  0  0  0  0  0  0
    7.9864   -1.0223   -4.6345 H   0  0  0  0  0  0  0  0  0  0  0  0
    8.7526   -3.6679   -4.2757 H   0  0  0  0  0  0  0  0  0  0  0  0
    8.5351   -5.5462   -2.6856 H   0  0  0  0  0  0  0  0  0  0  0  0
    7.2371   -5.2749   -0.6368 H   0  0  0  0  0  0  0  0  0  0  0  0
    6.1545   -3.1288   -0.1177 H   0  0  0  0  0  0  0  0  0  0  0  0
   -2.6963    1.2876   -0.1686 H   0  0  0  0  0  0  0  0  0  0  0  0
   -2.3879   -1.6682    0.0525 H   0  0  0  0  0  0  0  0  0  0  0  0
   -4.4495   -1.9324    1.3870 H   0  0  0  0  0  0  0  0  0  0  0  0
   -3.0865   -1.1414    2.1846 H   0  0  0  0  0  0  0  0  0  0  0  0
   -4.1383    0.9778    2.1216 H   0  0  0  0  0  0  0  0  0  0  0  0
   -5.1839   -0.2936    2.8335 H   0  0  0  0  0  0  0  0  0  0  0  0
   -5.5109    0.8469   -0.0484 H   0  0  0  0  0  0  0  0  0  0  0  0
   -6.4733   -0.4710    0.6930 H   0  0  0  0  0  0  0  0  0  0  0  0
   -6.2983    2.4182    1.7084 H   0  0  0  0  0  0  0  0  0  0  0  0
   -7.5964    1.6408    0.7412 H   0  0  0  0  0  0  0  0  0  0  0  0
   -6.7248    0.8623    3.4909 H   0  0  0  0  0  0  0  0  0  0  0  0
   -7.9144    0.0697    2.5183 H   0  0  0  0  0  0  0  0  0  0  0  0
   -6.0837   -5.2950    0.3774 H   0  0  0  0  0  0  0  0  0  0  0  0
   -7.7334   -6.7131   -0.7250 H   0  0  0  0  0  0  0  0  0  0  0  0
   -8.6508   -6.2016   -2.9410 H   0  0  0  0  0  0  0  0  0  0  0  0
   -7.8121   -4.1147   -4.0814 H   0  0  0  0  0  0  0  0  0  0  0  0
  1  2  1  0
  2  3  1  0
  2  4  2  3
  4  5  1  0
  5  6  1  0
  6  7  1  0
  7  8  1  0
  8  9  1  0
  9 10  1  0
 10 11  2  0
 10 12  1  0
 12 13  1  0
 13 14  1  0
 14 15  1  0
 15 16  1  0
 15 17  2  0
 12 18  1  0
 18 19  1  0
 19 20  2  0
 19 21  1  0
 21 22  2  0
 22 23  1  0
 23 24  1  0
 24 25  2  0
 25 26  1  0
 26 27  2  0
 27 28  1  0
 28 29  2  0
  8 30  1  0
 30 31  2  0
 30 32  1  0
 32 33  1  0
 33 34  1  0
 34 35  1  0
 35 36  1  0
 36 37  1  0
 37 38  1  0
 33 39  1  0
 39 40  2  0
 39 41  1  0
 41 42  2  0
 42 43  1  0
 43 44  2  0
 44 45  1  0
 45 46  2  0
 46 47  1  0
 47 48  2  0
 48 49  1  0
 29 21  1  0
 49 41  1  0
 29 24  1  0
 48 43  1  0
  1 50  1  0
  1 51  1  0
  3 52  1  0
  3 53  1  0
  5 54  1  0
  5 55  1  0
  6 56  1  0
  6 57  1  0
  7 58  1  0
  7 59  1  0
  8 60  1  6
  9 61  1  0
 12 62  1  1
 13 63  1  0
 13 64  1  0
 14 65  1  0
 14 66  1  0
 16 67  1  0
 16 68  1  0
 18 69  1  0
 22 70  1  0
 23 71  1  0
 25 72  1  0
 26 73  1  0
 27 74  1  0
 28 75  1  0
 32 76  1  0
 33 77  1  6
 34 78  1  0
 34 79  1  0
 35 80  1  0
 35 81  1  0
 36 82  1  0
 36 83  1  0
 37 84  1  0
 37 85  1  0
 38 86  1  0
 38 87  1  0
 44 88  1  0
 45 89  1  0
 46 90  1  0
 47 91  1  0
M  END
$$$$
[H]ON([H])C(=O)C([H])([H])[C@]([H])(C(=O)N([H])[C@]([H])(C(=O)N([H])[C@]([H])(C(=O)N([H])[H])C([H])([H])c1c([H])n([H])c2c([H])c([H])c([H])c([H])c12)C([H])([H])c1c([H])n([H])c2c([H])c([H])c([H])c([H])c12)C([H])([H])C([H])(C([H])([H])[H])C([H])([H])[H]
     RDKit          3D

 77 80  0  0  0  0  0  0  0  0999 V2000
   -4.8282   -4.8702   -1.7416 C   0  0  0  0  0  0  0  0  0  0  0  0
   -3.7669   -4.2085   -2.5296 C   0  0  0  0  0  0  0  0  0  0  0  0
   -4.0076   -4.3863   -4.0347 C   0  0  0  0  0  0  0  0  0  0  0  0
   -3.4867   -2.7907   -2.1968 C   0  0  0  0  0  0  0  0  0  0  0  0
   -3.0231   -2.4339   -0.8576 C   0  0  2  0  0  0  0  0  0  0  0  0
   -3.8402   -2.6361    0.3405 C   0  0  0  0  0  0  0  0  0  0  0  0
   -5.1224   -1.8928    0.3990 C   0  0  0  0  0  0  0  0  0  0  0  0
   -5.4457   -1.1754   -0.5631 O   0  0  0  0  0  0  0  0  0  0  0  0
   -5.9690   -1.9862    1.5179 N   0  0  0  0  0  0  0  0  0  0  0  0
   -7.1290   -1.3081    1.5679 O   0  0  0  0  0  0  0  0  0  0  0  0
   -2.3960   -1.0520   -0.8949 C   0  0  0  0  0  0  0  0  0  0  0  0
   -2.4351   -0.4616   -2.0043 O   0  0  0  0  0  0  0  0  0  0  0  0
   -1.8148   -0.4807    0.2328 N   0  0  0  0  0  0  0  0  0  0  0  0
   -1.1897    0.8760    0.2109 C   0  0  1  0  0  0  0  0  0  0  0  0
   -1.9680    1.7688    1.0643 C   0  0  0  0  0  0  0  0  0  0  0  0
   -1.4636    3.1303    1.2075 C   0  0  0  0  0  0  0  0  0  0  0  0
   -1.6708    4.2314    0.3739 C   0  0  0  0  0  0  0  0  0  0  0  0
   -0.9896    5.2704    0.8709 N   0  0  0  0  0  0  0  0  0  0  0  0
   -0.3348    4.9134    2.0040 C   0  0  0  0  0  0  0  0  0  0  0  0
    0.4677    5.6272    2.8875 C   0  0  0  0  0  0  0  0  0  0  0  0
    0.9953    5.0233    4.0077 C   0  0  0  0  0  0  0  0  0  0  0  0
    0.7108    3.6832    4.2389 C   0  0  0  0  0  0  0  0  0  0  0  0
   -0.0840    2.9942    3.3523 C   0  0  0  0  0  0  0  0  0  0  0  0
   -0.6204    3.5967    2.2191 C   0  0  0  0  0  0  0  0  0  0  0  0
    0.2536    0.7287    0.3368 C   0  0  0  0  0  0  0  0  0  0  0  0
    0.7553   -0.4109    0.7054 O   0  0  0  0  0  0  0  0  0  0  0  0
    1.2478    1.7157    0.0818 N   0  0  0  0  0  0  0  0  0  0  0  0
    2.6666    1.3299    0.2360 C   0  0  1  0  0  0  0  0  0  0  0  0
    3.2360    1.2342   -1.1833 C   0  0  0  0  0  0  0  0  0  0  0  0
    4.6396    0.8300   -1.2240 C   0  0  0  0  0  0  0  0  0  0  0  0
    5.7643    1.5636   -1.4689 C   0  0  0  0  0  0  0  0  0  0  0  0
    6.8316    0.7724   -1.4225 N   0  0  0  0  0  0  0  0  0  0  0  0
    6.4306   -0.4799   -1.1487 C   0  0  0  0  0  0  0  0  0  0  0  0
    7.1358   -1.6660   -1.0000 C   0  0  0  0  0  0  0  0  0  0  0  0
    6.4407   -2.8189   -0.7249 C   0  0  0  0  0  0  0  0  0  0  0  0
    5.0661   -2.8441   -0.5893 C   0  0  0  0  0  0  0  0  0  0  0  0
    4.3732   -1.6554   -0.7385 C   0  0  0  0  0  0  0  0  0  0  0  0
    5.0756   -0.4866   -1.0178 C   0  0  0  0  0  0  0  0  0  0  0  0
    3.4121    2.2874    1.0483 C   0  0  0  0  0  0  0  0  0  0  0  0
    4.7362    2.0212    1.4781 N   0  0  0  0  0  0  0  0  0  0  0  0
    2.9127    3.3767    1.4005 O   0  0  0  0  0  0  0  0  0  0  0  0
   -4.4036   -5.4313   -0.8691 H   0  0  0  0  0  0  0  0  0  0  0  0
   -5.3131   -5.6984   -2.3858 H   0  0  0  0  0  0  0  0  0  0  0  0
   -5.6551   -4.2492   -1.3912 H   0  0  0  0  0  0  0  0  0  0  0  0
   -2.7708   -4.7625   -2.3462 H   0  0  0  0  0  0  0  0  0  0  0  0
   -4.7154   -5.2249   -4.2016 H   0  0  0  0  0  0  0  0  0  0  0  0
   -3.0359   -4.5216   -4.5482 H   0  0  0  0  0  0  0  0  0  0  0  0
   -4.4015   -3.4111   -4.3866 H   0  0  0  0  0  0  0  0  0  0  0  0
   -4.3980   -2.2069   -2.5267 H   0  0  0  0  0  0  0  0  0  0  0  0
   -2.7170   -2.4356   -2.9707 H   0  0  0  0  0  0  0  0  0  0  0  0
   -2.0811   -3.0877   -0.6786 H   0  0  0  0  0  0  0  0  0  0  0  0
   -4.0731   -3.6954    0.5549 H   0  0  0  0  0  0  0  0  0  0  0  0
   -3.1885   -2.3491    1.2335 H   0  0  0  0  0  0  0  0  0  0  0  0
   -5.7200   -2.5806    2.3333 H   0  0  0  0  0  0  0  0  0  0  0  0
   -7.4354   -1.1429    2.5022 H   0  0  0  0  0  0  0  0  0  0  0  0
   -1.7822   -0.9600    1.1352 H   0  0  0  0  0  0  0  0  0  0  0  0
   -1.3616    1.1969   -0.8722 H   0  0  0  0  0  0  0  0  0  0  0  0
   -2.0360    1.3154    2.1005 H   0  0  0  0  0  0  0  0  0  0  0  0
   -3.0122    1.8184    0.6378 H   0  0  0  0  0  0  0  0  0  0  0  0
   -2.2926    4.1853   -0.5149 H   0  0  0  0  0  0  0  0  0  0  0  0
   -0.9546    6.2250    0.4613 H   0  0  0  0  0  0  0  0  0  0  0  0
    0.6619    6.6737    2.6624 H   0  0  0  0  0  0  0  0  0  0  0  0
    1.6154    5.5574    4.7018 H   0  0  0  0  0  0  0  0  0  0  0  0
    1.1266    3.2222    5.1183 H   0  0  0  0  0  0  0  0  0  0  0  0
   -0.3202    1.9596    3.5077 H   0  0  0  0  0  0  0  0  0  0  0  0
    1.0705    2.6863   -0.2114 H   0  0  0  0  0  0  0  0  0  0  0  0
    2.7014    0.3295    0.6530 H   0  0  0  0  0  0  0  0  0  0  0  0
    3.1592    2.2600   -1.6512 H   0  0  0  0  0  0  0  0  0  0  0  0
    2.5650    0.5945   -1.7728 H   0  0  0  0  0  0  0  0  0  0  0  0
    5.8181    2.6404   -1.6765 H   0  0  0  0  0  0  0  0  0  0  0  0
    7.8516    1.0392   -1.5688 H   0  0  0  0  0  0  0  0  0  0  0  0
    8.2126   -1.6408   -1.1062 H   0  0  0  0  0  0  0  0  0  0  0  0
    7.0099   -3.7538   -0.6110 H   0  0  0  0  0  0  0  0  0  0  0  0
    4.5531   -3.7603   -0.3750 H   0  0  0  0  0  0  0  0  0  0  0  0
    3.2977   -1.6090   -0.6441 H   0  0  0  0  0  0  0  0  0  0  0  0
    5.0360    1.0798    1.7931 H   0  0  0  0  0  0  0  0  0  0  0  0
    5.4232    2.8070    1.4722 H   0  0  0  0  0  0  0  0  0  0  0  0
  1  2  1  0
  2  3  1  0
  2  4  1  0
  4  5  1  0
  5  6  1  0
  6  7  1  0
  7  8  2  0
  7  9  1  0
  9 10  1  0
  5 11  1  0
 11 12  2  0
 11 13  1  0
 13 14  1  0
 14 15  1  0
 15 16  1  0
 16 17  2  0
 17 18  1  0
 18 19  1  0
 19 20  2  0
 20 21  1  0
 21 22  2  0
 22 23  1  0
 23 24  2  0
 14 25  1  0
 25 26  2  0
 25 27  1  0
 27 28  1  0
 28 29  1  0
 29 30  1  0
 30 31  2  0
 31 32  1  0
 32 33  1  0
 33 34  2  0
 34 35  1  0
 35 36  2  0
 36 37  1  0
 37 38  2  0
 28 39  1  0
 39 40  1  0
 39 41  2  0
 24 16  1  0
 38 30  1  0
 24 19  1  0
 38 33  1  0
  1 42  1  0
  1 43  1  0
  1 44  1  0
  2 45  1  0
  3 46  1  0
  3 47  1  0
  3 48  1  0
  4 49  1  0
  4 50  1  0
  5 51  1  1
  6 52  1  0
  6 53  1  0
  9 54  1  0
 10 55  1  0
 13 56  1  0
 14 57  1  6
 15 58  1  0
 15 59  1  0
 17 60  1  0
 18 61  1  0
 20 62  1  0
 21 63  1  0
 22 64  1  0
 23 65  1  0
 27 66  1  0
 28 67  1  1
 29 68  1  0
 29 69  1  0
 31 70  1  0
 32 71  1  0
 34 72  1  0
 35 73  1  0
 36 74  1  0
 37 75  1  0
 40 76  1  0
 40 77  1  0
M  END
$$$$
[H]c1nc(N([H])c2c([H])c([H])c(-c3c([H])c([H])c([H])c([H])c3[H])c([H])c2Cl)c2c([H])c([H])c(C(=O)N([H])[H])c(=O)n2n1
     RDKit          3D

 42 45  0  0  0  0  0  0  0  0999 V2000
   -7.7590    1.2521    0.8782 N   0  0  0  0  0  0  0  0  0  0  0  0
   -7.2217    0.0839    0.2839 C   0  0  0  0  0  0  0  0  0  0  0  0
   -8.0312   -0.7807   -0.1209 O   0  0  0  0  0  0  0  0  0  0  0  0
   -5.7804   -0.1236    0.1394 C   0  0  0  0  0  0  0  0  0  0  0  0
   -4.9176    0.8497    0.5957 C   0  0  0  0  0  0  0  0  0  0  0  0
   -3.5408    0.6697    0.4671 C   0  0  0  0  0  0  0  0  0  0  0  0
   -3.0759   -0.4788   -0.1139 C   0  0  0  0  0  0  0  0  0  0  0  0
   -1.6797   -0.6825   -0.2540 C   0  0  0  0  0  0  0  0  0  0  0  0
   -0.7857    0.2890    0.1981 N   0  0  0  0  0  0  0  0  0  0  0  0
    0.6215    0.1946    0.1148 C   0  0  0  0  0  0  0  0  0  0  0  0
    1.3503   -0.8410   -0.3990 C   0  0  0  0  0  0  0  0  0  0  0  0
    2.7539   -0.8267   -0.4284 C   0  0  0  0  0  0  0  0  0  0  0  0
    3.4628    0.2399    0.0630 C   0  0  0  0  0  0  0  0  0  0  0  0
    2.7217    1.2752    0.5768 C   0  0  0  0  0  0  0  0  0  0  0  0
    1.3547    1.2835    0.6161 C   0  0  0  0  0  0  0  0  0  0  0  0
    0.5355    2.6879    1.3078 Cl  0  0  0  0  0  0  0  0  0  0  0  0
    4.9234    0.2819    0.0466 C   0  0  0  0  0  0  0  0  0  0  0  0
    5.6658   -0.3266   -0.9454 C   0  0  0  0  0  0  0  0  0  0  0  0
    7.0440   -0.2729   -0.9391 C   0  0  0  0  0  0  0  0  0  0  0  0
    7.6716    0.4046    0.0835 C   0  0  0  0  0  0  0  0  0  0  0  0
    6.9769    1.0356    1.1081 C   0  0  0  0  0  0  0  0  0  0  0  0
    5.5967    0.9489    1.0501 C   0  0  0  0  0  0  0  0  0  0  0  0
   -1.3414   -1.8130   -0.8218 N   0  0  0  0  0  0  0  0  0  0  0  0
   -2.1899   -2.7374   -1.2543 C   0  0  0  0  0  0  0  0  0  0  0  0
   -3.5000   -2.5221   -1.1110 N   0  0  0  0  0  0  0  0  0  0  0  0
   -3.9539   -1.4133   -0.5506 N   0  0  0  0  0  0  0  0  0  0  0  0
   -5.2945   -1.2734   -0.4429 C   0  0  0  0  0  0  0  0  0  0  0  0
   -6.0939   -2.1602   -0.8585 O   0  0  0  0  0  0  0  0  0  0  0  0
   -8.0167    2.0919    0.3154 H   0  0  0  0  0  0  0  0  0  0  0  0
   -7.9265    1.3373    1.9089 H   0  0  0  0  0  0  0  0  0  0  0  0
   -5.2389    1.7620    1.0562 H   0  0  0  0  0  0  0  0  0  0  0  0
   -2.8712    1.4259    0.8221 H   0  0  0  0  0  0  0  0  0  0  0  0
   -1.1207    1.1834    0.6456 H   0  0  0  0  0  0  0  0  0  0  0  0
    0.8749   -1.7293   -0.8103 H   0  0  0  0  0  0  0  0  0  0  0  0
    3.2765   -1.6737   -0.8468 H   0  0  0  0  0  0  0  0  0  0  0  0
    3.2834    2.1247    0.9681 H   0  0  0  0  0  0  0  0  0  0  0  0
    5.1319   -0.8459   -1.7258 H   0  0  0  0  0  0  0  0  0  0  0  0
    7.6351   -0.7548   -1.7253 H   0  0  0  0  0  0  0  0  0  0  0  0
    8.7498    0.4750    0.1332 H   0  0  0  0  0  0  0  0  0  0  0  0
    7.4893    1.5687    1.9119 H   0  0  0  0  0  0  0  0  0  0  0  0
    5.0034    1.4227    1.8231 H   0  0  0  0  0  0  0  0  0  0  0  0
   -1.7835   -3.6321   -1.7076 H   0  0  0  0  0  0  0  0  0  0  0  0
  1  2  1  0
  2  3  2  0
  2  4  1  0
  4  5  2  0
  5  6  1  0
  6  7  2  0
  7  8  1  0
  8  9  1  0
  9 10  1  0
 10 11  2  0
 11 12  1  0
 12 13  2  0
 13 14  1  0
 14 15  2  0
 15 16  1  0
 13 17  1  0
 17 18  2  0
 18 19  1  0
 19 20  2  0
 20 21  1  0
 21 22  2  0
  8 23  2  0
 23 24  1  0
 24 25  2  0
 25 26  1  0
 26 27  1  0
 27 28  2  0
 27  4  1  0
 26  7  1  0
 15 10  1  0
 22 17  1  0
  1 29  1  0
  1 30  1  0
  5 31  1  0
  6 32  1  0
  9 33  1  0
 11 34  1  0
 12 35  1  0
 14 36  1  0
 18 37  1  0
 19 38  1  0
 20 39  1  0
 21 40  1  0
 22 41  1  0
 24 42  1  0
M  END
$$$$
[H]c1c([H])c([H])c2c(c1[H])C(=NN([H])C(=O)C([H])(C([H])([H])C([H])([H])[H])C([H])([H])C([H])([H])C([H])([H])C([H])([H])[H])c1c([H])c([H])c([H])c([H])c1-2
     RDKit          3D

 48 50  0  0  0  0  0  0  0  0999 V2000
    3.5756    2.8557    0.4943 C   0  0  0  0  0  0  0  0  0  0  0  0
    3.3328    1.5261    1.1571 C   0  0  0  0  0  0  0  0  0  0  0  0
    2.9275    0.4703    0.1508 C   0  0  0  0  0  0  0  0  0  0  0  0
    2.6985   -0.8347    0.8677 C   0  0  0  0  0  0  0  0  0  0  0  0
    2.2938   -1.9505   -0.0272 C   0  0  0  0  0  0  0  0  0  0  0  0
    3.3154   -2.2658   -1.0944 C   0  0  0  0  0  0  0  0  0  0  0  0
    4.6386   -2.6650   -0.5366 C   0  0  0  0  0  0  0  0  0  0  0  0
    0.9328   -1.8449   -0.5947 C   0  0  0  0  0  0  0  0  0  0  0  0
    0.8114   -1.7861   -1.8432 O   0  0  0  0  0  0  0  0  0  0  0  0
   -0.2569   -1.8061    0.1789 N   0  0  0  0  0  0  0  0  0  0  0  0
   -1.5201   -1.7143   -0.3139 N   0  0  0  0  0  0  0  0  0  0  0  0
   -2.3214   -0.7174   -0.2180 C   0  0  0  0  0  0  0  0  0  0  0  0
   -2.0570    0.5526    0.4462 C   0  0  0  0  0  0  0  0  0  0  0  0
   -0.9793    1.0982    1.1382 C   0  0  0  0  0  0  0  0  0  0  0  0
   -1.0020    2.3659    1.6804 C   0  0  0  0  0  0  0  0  0  0  0  0
   -2.1572    3.1018    1.5133 C   0  0  0  0  0  0  0  0  0  0  0  0
   -3.2363    2.5712    0.8272 C   0  0  0  0  0  0  0  0  0  0  0  0
   -3.2092    1.3052    0.2877 C   0  0  0  0  0  0  0  0  0  0  0  0
   -4.2009    0.5469   -0.4606 C   0  0  0  0  0  0  0  0  0  0  0  0
   -5.4978    0.8113   -0.8926 C   0  0  0  0  0  0  0  0  0  0  0  0
   -6.2584   -0.0860   -1.6040 C   0  0  0  0  0  0  0  0  0  0  0  0
   -5.7257   -1.3191   -1.9159 C   0  0  0  0  0  0  0  0  0  0  0  0
   -4.4346   -1.6125   -1.4989 C   0  0  0  0  0  0  0  0  0  0  0  0
   -3.6959   -0.6910   -0.7863 C   0  0  0  0  0  0  0  0  0  0  0  0
    4.6701    2.9741    0.2700 H   0  0  0  0  0  0  0  0  0  0  0  0
    3.0789    2.9118   -0.5133 H   0  0  0  0  0  0  0  0  0  0  0  0
    3.2827    3.7165    1.1260 H   0  0  0  0  0  0  0  0  0  0  0  0
    4.1768    1.2238    1.7879 H   0  0  0  0  0  0  0  0  0  0  0  0
    2.4567    1.6531    1.8465 H   0  0  0  0  0  0  0  0  0  0  0  0
    3.6018    0.3904   -0.7006 H   0  0  0  0  0  0  0  0  0  0  0  0
    1.9349    0.8086   -0.2694 H   0  0  0  0  0  0  0  0  0  0  0  0
    3.6310   -1.1276    1.3859 H   0  0  0  0  0  0  0  0  0  0  0  0
    1.9297   -0.7160    1.6471 H   0  0  0  0  0  0  0  0  0  0  0  0
    2.2659   -2.8761    0.6250 H   0  0  0  0  0  0  0  0  0  0  0  0
    3.4571   -1.4531   -1.8165 H   0  0  0  0  0  0  0  0  0  0  0  0
    2.9068   -3.1358   -1.6682 H   0  0  0  0  0  0  0  0  0  0  0  0
    4.5376   -3.0830    0.4936 H   0  0  0  0  0  0  0  0  0  0  0  0
    5.0783   -3.4635   -1.1581 H   0  0  0  0  0  0  0  0  0  0  0  0
    5.3251   -1.7801   -0.5264 H   0  0  0  0  0  0  0  0  0  0  0  0
   -0.1238   -1.8577    1.2209 H   0  0  0  0  0  0  0  0  0  0  0  0
   -0.0884    0.5236    1.2639 H   0  0  0  0  0  0  0  0  0  0  0  0
   -0.1463    2.7774    2.2204 H   0  0  0  0  0  0  0  0  0  0  0  0
   -2.2329    4.1041    1.9176 H   0  0  0  0  0  0  0  0  0  0  0  0
   -4.1589    3.1442    0.6874 H   0  0  0  0  0  0  0  0  0  0  0  0
   -5.9156    1.7949   -0.6408 H   0  0  0  0  0  0  0  0  0  0  0  0
   -7.2784    0.1487   -1.9321 H   0  0  0  0  0  0  0  0  0  0  0  0
   -6.3390   -2.0096   -2.4751 H   0  0  0  0  0  0  0  0  0  0  0  0
   -4.0236   -2.5808   -1.7470 H   0  0  0  0  0  0  0  0  0  0  0  0
  1  2  1  0
  2  3  1  0
  3  4  1  0
  4  5  1  0
  5  6  1  0
  6  7  1  0
  5  8  1  0
  8  9  2  0
  8 10  1  0
 10 11  1  0
 11 12  2  3
 12 13  1  0
 13 14  2  0
 14 15  1  0
 15 16  2  0
 16 17  1  0
 17 18  2  0
 18 19  1  0
 19 20  2  0
 20 21  1  0
 21 22  2  0
 22 23  1  0
 23 24  2  0
 24 12  1  0
 18 13  1  0
 24 19  1  0
  1 25  1  0
  1 26  1  0
  1 27  1  0
  2 28  1  0
  2 29  1  0
  3 30  1  0
  3 31  1  0
  4 32  1  0
  4 33  1  0
  5 34  1  0
  6 35  1  0
  6 36  1  0
  7 37  1  0
  7 38  1  0
  7 39  1  0
 10 40  1  0
 14 41  1  0
 15 42  1  0
 16 43  1  0
 17 44  1  0
 20 45  1  0
 21 46  1  0
 22 47  1  0
 23 48  1  0
M  END
$$$$
[H]c1onc(-c2c([H])c(Cl)c([H])c([N+](=O)[O-])c2[H])c1-c1c([H])c([H])c(Cl)c([H])c1Cl
     RDKit          3D

 30 32  0  0  0  0  0  0  0  0999 V2000
    4.6093    2.3219   -1.2644 O   0  0  0  0  0  0  0  0  0  0  0  0
    3.7134    1.3237   -1.5112 N   0  0  0  0  0  0  0  0  0  0  0  0
    3.5749    0.9337   -2.6787 O   0  0  0  0  0  0  0  0  0  0  0  0
    2.9671    0.7527   -0.4582 C   0  0  0  0  0  0  0  0  0  0  0  0
    3.1623    1.2182    0.8381 C   0  0  0  0  0  0  0  0  0  0  0  0
    2.4479    0.6776    1.8926 C   0  0  0  0  0  0  0  0  0  0  0  0
    2.6905    1.2595    3.5379 Cl  0  0  0  0  0  0  0  0  0  0  0  0
    1.5361   -0.3292    1.6588 C   0  0  0  0  0  0  0  0  0  0  0  0
    1.3065   -0.8268    0.3815 C   0  0  0  0  0  0  0  0  0  0  0  0
    2.0449   -0.2523   -0.6307 C   0  0  0  0  0  0  0  0  0  0  0  0
    0.3414   -1.8868    0.1707 C   0  0  0  0  0  0  0  0  0  0  0  0
    0.5489   -3.2263    0.1453 N   0  0  0  0  0  0  0  0  0  0  0  0
   -0.5599   -3.8446   -0.0654 O   0  0  0  0  0  0  0  0  0  0  0  0
   -1.5532   -3.0107   -0.1918 C   0  0  0  0  0  0  0  0  0  0  0  0
   -1.0049   -1.7250   -0.0444 C   0  0  0  0  0  0  0  0  0  0  0  0
   -1.8084   -0.5176   -0.1299 C   0  0  0  0  0  0  0  0  0  0  0  0
   -1.9693    0.3136    0.9466 C   0  0  0  0  0  0  0  0  0  0  0  0
   -2.7285    1.4710    0.8846 C   0  0  0  0  0  0  0  0  0  0  0  0
   -3.3322    1.7721   -0.3128 C   0  0  0  0  0  0  0  0  0  0  0  0
   -4.3062    3.2066   -0.4909 Cl  0  0  0  0  0  0  0  0  0  0  0  0
   -3.1721    0.9360   -1.3985 C   0  0  0  0  0  0  0  0  0  0  0  0
   -2.4147   -0.2128   -1.3272 C   0  0  0  0  0  0  0  0  0  0  0  0
   -2.2520   -1.2447   -2.7552 Cl  0  0  0  0  0  0  0  0  0  0  0  0
    3.8805    2.0100    1.0141 H   0  0  0  0  0  0  0  0  0  0  0  0
    0.9986   -0.7215    2.5272 H   0  0  0  0  0  0  0  0  0  0  0  0
    1.9049   -0.6051   -1.6615 H   0  0  0  0  0  0  0  0  0  0  0  0
   -2.6038   -3.2043   -0.3735 H   0  0  0  0  0  0  0  0  0  0  0  0
   -1.5184    0.1068    1.9059 H   0  0  0  0  0  0  0  0  0  0  0  0
   -2.8586    2.1322    1.7262 H   0  0  0  0  0  0  0  0  0  0  0  0
   -3.6450    1.1721   -2.3351 H   0  0  0  0  0  0  0  0  0  0  0  0
  1  2  1  0
  2  3  2  0
  2  4  1  0
  4  5  2  0
  5  6  1  0
  6  7  1  0
  6  8  2  0
  8  9  1  0
  9 10  2  0
  9 11  1  0
 11 12  2  0
 12 13  1  0
 13 14  1  0
 14 15  2  0
 15 16  1  0
 16 17  2  0
 17 18  1  0
 18 19  2  0
 19 20  1  0
 19 21  1  0
 21 22  2  0
 22 23  1  0
 10  4  1  0
 15 11  1  0
 22 16  1  0
  5 24  1  0
  8 25  1  0
 10 26  1  0
 14 27  1  0
 17 28  1  0
 18 29  1  0
 21 30  1  0
M  CHG  2   1  -1   2   1
M  END
$$$$
[H]OC([H])([H])[C@@]1(O[H])C([H])([H])[C@@]2([H])O[C@]1(N([H])C([H])([H])[H])n1c3c([H])c([H])c([H])c([H])c3c3c4c(c5c6c([H])c([H])c([H])c([H])c6n2c5c31)C(=O)N([H])C4([H])[H]
     RDKit          3D

 56 63  0  0  0  0  0  0  0  0999 V2000
   -2.7877   -3.5401   -0.2673 C   0  0  0  0  0  0  0  0  0  0  0  0
   -1.8661   -2.7053    0.2809 N   0  0  0  0  0  0  0  0  0  0  0  0
   -1.6609   -1.3143    0.0658 C   0  0  2  0  0  0  0  0  0  0  0  0
   -1.1052   -1.1290    1.4411 O   0  0  0  0  0  0  0  0  0  0  0  0
   -1.2830    0.1221    1.8498 C   0  0  2  0  0  0  0  0  0  0  0  0
   -2.1631    0.8323    0.8162 C   0  0  0  0  0  0  0  0  0  0  0  0
   -2.7933   -0.4159    0.2371 C   0  0  1  0  0  0  0  0  0  0  0  0
   -3.4448   -0.0011   -0.9118 O   0  0  0  0  0  0  0  0  0  0  0  0
   -3.8194   -0.8606    1.2101 C   0  0  0  0  0  0  0  0  0  0  0  0
   -3.3572   -1.3231    2.4248 O   0  0  0  0  0  0  0  0  0  0  0  0
    0.0276    0.7832    1.7090 N   0  0  0  0  0  0  0  0  0  0  0  0
    0.6177    1.6293    2.5528 C   0  0  0  0  0  0  0  0  0  0  0  0
    0.2270    2.0997    3.7941 C   0  0  0  0  0  0  0  0  0  0  0  0
    0.9885    2.9827    4.5163 C   0  0  0  0  0  0  0  0  0  0  0  0
    2.1906    3.3882    3.9310 C   0  0  0  0  0  0  0  0  0  0  0  0
    2.6020    2.9289    2.6870 C   0  0  0  0  0  0  0  0  0  0  0  0
    1.8239    2.0507    1.9909 C   0  0  0  0  0  0  0  0  0  0  0  0
    1.9229    1.4170    0.7765 C   0  0  0  0  0  0  0  0  0  0  0  0
    2.8282    1.4376   -0.2606 C   0  0  0  0  0  0  0  0  0  0  0  0
    4.0833    2.1282   -0.4177 C   0  0  0  0  0  0  0  0  0  0  0  0
    4.7237    2.9038    0.3072 O   0  0  0  0  0  0  0  0  0  0  0  0
    4.5857    1.7531   -1.7191 N   0  0  0  0  0  0  0  0  0  0  0  0
    3.6679    0.8655   -2.3727 C   0  0  0  0  0  0  0  0  0  0  0  0
    2.5724    0.6777   -1.4061 C   0  0  0  0  0  0  0  0  0  0  0  0
    1.4311   -0.0953   -1.5161 C   0  0  0  0  0  0  0  0  0  0  0  0
    0.9107   -0.8986   -2.4942 C   0  0  0  0  0  0  0  0  0  0  0  0
    1.4460   -1.1546   -3.7388 C   0  0  0  0  0  0  0  0  0  0  0  0
    0.7204   -1.9699   -4.5903 C   0  0  0  0  0  0  0  0  0  0  0  0
   -0.4796   -2.4721   -4.1538 C   0  0  0  0  0  0  0  0  0  0  0  0
   -0.9835   -2.1915   -2.8968 C   0  0  0  0  0  0  0  0  0  0  0  0
   -0.2923   -1.3892   -2.0208 C   0  0  0  0  0  0  0  0  0  0  0  0
   -0.5561   -0.9296   -0.7580 N   0  0  0  0  0  0  0  0  0  0  0  0
    0.5450   -0.1231   -0.5047 C   0  0  0  0  0  0  0  0  0  0  0  0
    0.7896    0.6266    0.6214 C   0  0  0  0  0  0  0  0  0  0  0  0
   -3.5198   -2.9602   -0.9106 H   0  0  0  0  0  0  0  0  0  0  0  0
   -3.3568   -4.2154    0.4211 H   0  0  0  0  0  0  0  0  0  0  0  0
   -2.3194   -4.2574   -0.9775 H   0  0  0  0  0  0  0  0  0  0  0  0
   -0.9193   -3.1297    0.5125 H   0  0  0  0  0  0  0  0  0  0  0  0
   -1.6007    0.3097    2.8646 H   0  0  0  0  0  0  0  0  0  0  0  0
   -1.5829    1.3920    0.0843 H   0  0  0  0  0  0  0  0  0  0  0  0
   -2.9124    1.4392    1.3601 H   0  0  0  0  0  0  0  0  0  0  0  0
   -2.8492    0.4864   -1.5360 H   0  0  0  0  0  0  0  0  0  0  0  0
   -4.4526    0.0471    1.4549 H   0  0  0  0  0  0  0  0  0  0  0  0
   -4.5766   -1.5718    0.7633 H   0  0  0  0  0  0  0  0  0  0  0  0
   -3.7816   -0.8877    3.2093 H   0  0  0  0  0  0  0  0  0  0  0  0
   -0.6993    1.7522    4.1842 H   0  0  0  0  0  0  0  0  0  0  0  0
    0.6912    3.3595    5.4937 H   0  0  0  0  0  0  0  0  0  0  0  0
    2.7843    4.0847    4.5081 H   0  0  0  0  0  0  0  0  0  0  0  0
    3.5306    3.3093    2.3519 H   0  0  0  0  0  0  0  0  0  0  0  0
    5.5028    2.0928   -2.1204 H   0  0  0  0  0  0  0  0  0  0  0  0
    3.3165    1.3475   -3.3113 H   0  0  0  0  0  0  0  0  0  0  0  0
    4.1609   -0.1068   -2.5347 H   0  0  0  0  0  0  0  0  0  0  0  0
    2.3985   -0.7344   -4.0379 H   0  0  0  0  0  0  0  0  0  0  0  0
    1.0934   -2.2056   -5.5802 H   0  0  0  0  0  0  0  0  0  0  0  0
   -1.0883   -3.1186   -4.7883 H   0  0  0  0  0  0  0  0  0  0  0  0
   -1.9314   -2.5462   -2.5945 H   0  0  0  0  0  0  0  0  0  0  0  0
  1  2  1  0
  3  2  1  6
  3  4  1  0
  4  5  1  0
  5  6  1  0
  6  7  1  0
  7  8  1  6
  7  9  1  0
  9 10  1  0
  5 11  1  0
 11 12  1  0
 12 13  2  0
 13 14  1  0
 14 15  2  0
 15 16  1  0
 16 17  2  0
 17 18  1  0
 18 19  2  0
 19 20  1  0
 20 21  2  0
 20 22  1  0
 22 23  1  0
 23 24  1  0
 24 25  2  0
 25 26  1  0
 26 27  2  0
 27 28  1  0
 28 29  2  0
 29 30  1  0
 30 31  2  0
 31 32  1  0
 32 33  1  0
 33 34  2  0
  7  3  1  0
 34 11  1  0
 32  3  1  0
 17 12  1  0
 34 18  1  0
 24 19  1  0
 33 25  1  0
 31 26  1  0
  1 35  1  0
  1 36  1  0
  1 37  1  0
  2 38  1  0
  5 39  1  1
  6 40  1  0
  6 41  1  0
  8 42  1  0
  9 43  1  0
  9 44  1  0
 10 45  1  0
 13 46  1  0
 14 47  1  0
 15 48  1  0
 16 49  1  0
 22 50  1  0
 23 51  1  0
 23 52  1  0
 27 53  1  0
 28 54  1  0
 29 55  1  0
 30 56  1  0
M  END
$$$$
[H]/C(=C1\c2c([H])c([H])c([H])c([H])c2N([H])C(=O)N([H])C(=O)N([H])C1([H])[H])c1c([H])c([H])c2c(c([H])nn2[H])c1[H].[H]Cl.[H]Cl
     RDKit          3D

 44 45  0  0  0  0  0  0  0  0999 V2000
    0.6866    0.0000    0.0000 Cl  0  0  0  0  0  0  0  0  0  0  0  0
    0.6866    0.0000    0.0000 Cl  0  0  0  0  0  0  0  0  0  0  0  0
   -4.3232   -2.3727    0.6253 O   0  0  0  0  0  0  0  0  0  0  0  0
   -3.3574   -1.4726    0.6340 C   0  0  0  0  0  0  0  0  0  0  0  0
   -2.2001   -1.9242    1.2925 N   0  0  0  0  0  0  0  0  0  0  0  0
   -0.9012   -2.1947    0.8046 C   0  0  0  0  0  0  0  0  0  0  0  0
   -0.0416   -2.8437    1.5386 O   0  0  0  0  0  0  0  0  0  0  0  0
   -0.3466   -1.8485   -0.4474 N   0  0  0  0  0  0  0  0  0  0  0  0
   -0.7257   -0.6879   -1.1574 C   0  0  0  0  0  0  0  0  0  0  0  0
   -0.6579    0.5009   -0.2845 C   0  0  0  0  0  0  0  0  0  0  0  0
    0.4988    0.7793    0.2690 C   0  0  0  0  0  0  0  0  0  0  0  0
    1.7521    0.1046    0.1573 C   0  0  0  0  0  0  0  0  0  0  0  0
    2.4100   -0.2712    1.3204 C   0  0  0  0  0  0  0  0  0  0  0  0
    3.6405   -0.8763    1.3325 C   0  0  0  0  0  0  0  0  0  0  0  0
    4.2498   -1.1209    0.1288 C   0  0  0  0  0  0  0  0  0  0  0  0
    5.4149   -1.6770   -0.2094 N   0  0  0  0  0  0  0  0  0  0  0  0
    5.5423   -1.6761   -1.5477 N   0  0  0  0  0  0  0  0  0  0  0  0
    4.4664   -1.1221   -2.1128 C   0  0  0  0  0  0  0  0  0  0  0  0
    3.6348   -0.7645   -1.0464 C   0  0  0  0  0  0  0  0  0  0  0  0
    2.3972   -0.1576   -1.0117 C   0  0  0  0  0  0  0  0  0  0  0  0
   -1.8107    1.4052   -0.0573 C   0  0  0  0  0  0  0  0  0  0  0  0
   -1.4294    2.7623    0.0222 C   0  0  0  0  0  0  0  0  0  0  0  0
   -2.3384    3.7541    0.2062 C   0  0  0  0  0  0  0  0  0  0  0  0
   -3.6665    3.4431    0.3191 C   0  0  0  0  0  0  0  0  0  0  0  0
   -4.0163    2.1333    0.2409 C   0  0  0  0  0  0  0  0  0  0  0  0
   -3.1313    1.0441    0.0514 C   0  0  0  0  0  0  0  0  0  0  0  0
   -3.6836   -0.2626   -0.0081 N   0  0  0  0  0  0  0  0  0  0  0  0
   -0.6866    0.0000    0.0000 H   0  0  0  0  0  0  0  0  0  0  0  0
   -0.6866    0.0000    0.0000 H   0  0  0  0  0  0  0  0  0  0  0  0
   -2.2773   -2.1146    2.3561 H   0  0  0  0  0  0  0  0  0  0  0  0
    0.3916   -2.4756   -0.9231 H   0  0  0  0  0  0  0  0  0  0  0  0
   -1.7854   -0.8356   -1.5429 H   0  0  0  0  0  0  0  0  0  0  0  0
   -0.1656   -0.5576   -2.1297 H   0  0  0  0  0  0  0  0  0  0  0  0
    0.5620    1.6733    0.9475 H   0  0  0  0  0  0  0  0  0  0  0  0
    1.9393   -0.0849    2.2578 H   0  0  0  0  0  0  0  0  0  0  0  0
    4.0905   -1.1413    2.2941 H   0  0  0  0  0  0  0  0  0  0  0  0
    6.1011   -2.0466    0.4853 H   0  0  0  0  0  0  0  0  0  0  0  0
    4.2478   -0.9655   -3.1613 H   0  0  0  0  0  0  0  0  0  0  0  0
    1.9746    0.1188   -1.9579 H   0  0  0  0  0  0  0  0  0  0  0  0
   -0.3932    3.0926   -0.0621 H   0  0  0  0  0  0  0  0  0  0  0  0
   -2.0130    4.7987    0.2634 H   0  0  0  0  0  0  0  0  0  0  0  0
   -4.4177    4.2396    0.4681 H   0  0  0  0  0  0  0  0  0  0  0  0
   -5.1071    1.9435    0.3337 H   0  0  0  0  0  0  0  0  0  0  0  0
   -4.5244   -0.2990   -0.6890 H   0  0  0  0  0  0  0  0  0  0  0  0
  3  4  2  0
  4  5  1  0
  5  6  1  0
  6  7  2  0
  6  8  1  0
  8  9  1  0
  9 10  1  0
 10 11  2  0
 11 12  1  0
 12 13  2  0
 13 14  1  0
 14 15  2  0
 15 16  1  0
 16 17  1  0
 17 18  2  0
 18 19  1  0
 19 20  2  0
 10 21  1  0
 21 22  2  0
 22 23  1  0
 23 24  2  0
 24 25  1  0
 25 26  2  0
 26 27  1  0
 27  4  1  0
 20 12  1  0
 26 21  1  0
 19 15  1  0
  1 28  1  0
  2 29  1  0
  5 30  1  0
  8 31  1  0
  9 32  1  0
  9 33  1  0
 11 34  1  0
 13 35  1  0
 14 36  1  0
 16 37  1  0
 18 38  1  0
 20 39  1  0
 22 40  1  0
 23 41  1  0
 24 42  1  0
 25 43  1  0
 27 44  1  0
M  END
$$$$
[H]O[C@]1([H])C([H])([H])C([H])([H])[C@@]([H])(O[C@]2([H])C(=O)c3c(OC([H])([H])[H])c([H])c([H])c(OC([H])([H])[H])c3[C@@]2([H])c2c([H])c([H])c([H])c(C(F)(F)F)c2[H])C([H])([H])C1([H])[H]
     RDKit          3D

 57 60  0  0  0  0  0  0  0  0999 V2000
   -5.1321    1.3058    0.3638 C   0  0  0  0  0  0  0  0  0  0  0  0
   -3.8330    0.8916   -0.0157 O   0  0  0  0  0  0  0  0  0  0  0  0
   -3.4447   -0.4085    0.2608 C   0  0  0  0  0  0  0  0  0  0  0  0
   -4.2440   -1.3249    0.8909 C   0  0  0  0  0  0  0  0  0  0  0  0
   -3.8331   -2.6546    1.1623 C   0  0  0  0  0  0  0  0  0  0  0  0
   -2.5760   -3.0082    0.7649 C   0  0  0  0  0  0  0  0  0  0  0  0
   -2.0499   -4.2665    0.9678 O   0  0  0  0  0  0  0  0  0  0  0  0
   -2.7821   -5.2698    1.5870 C   0  0  0  0  0  0  0  0  0  0  0  0
   -1.7458   -2.0678    0.1139 C   0  0  0  0  0  0  0  0  0  0  0  0
   -0.4013   -2.2607   -0.3898 C   0  0  0  0  0  0  0  0  0  0  0  0
    0.1049   -3.3598   -0.7007 O   0  0  0  0  0  0  0  0  0  0  0  0
    0.1684   -0.8654   -0.4301 C   0  0  1  0  0  0  0  0  0  0  0  0
    1.2140   -0.7951   -1.2770 O   0  0  0  0  0  0  0  0  0  0  0  0
    2.4186   -0.2923   -0.8934 C   0  0  1  0  0  0  0  0  0  0  0  0
    3.3714   -1.4258   -0.4172 C   0  0  0  0  0  0  0  0  0  0  0  0
    4.7866   -1.2153   -0.8817 C   0  0  0  0  0  0  0  0  0  0  0  0
    5.2720    0.1813   -0.5778 C   0  0  2  0  0  0  0  0  0  0  0  0
    5.1807    0.3543    0.7957 O   0  0  0  0  0  0  0  0  0  0  0  0
    4.3536    1.1730   -1.2343 C   0  0  0  0  0  0  0  0  0  0  0  0
    3.1813    0.4802   -1.9128 C   0  0  0  0  0  0  0  0  0  0  0  0
   -1.0442   -0.0861   -0.8331 C   0  0  1  0  0  0  0  0  0  0  0  0
   -2.1672   -0.7766   -0.1414 C   0  0  0  0  0  0  0  0  0  0  0  0
   -0.9366    1.3481   -0.5393 C   0  0  0  0  0  0  0  0  0  0  0  0
   -1.4806    2.2366   -1.4505 C   0  0  0  0  0  0  0  0  0  0  0  0
   -1.4220    3.6087   -1.2666 C   0  0  0  0  0  0  0  0  0  0  0  0
   -0.8099    4.1362   -0.1526 C   0  0  0  0  0  0  0  0  0  0  0  0
   -0.2547    3.2594    0.7797 C   0  0  0  0  0  0  0  0  0  0  0  0
   -0.3307    1.9096    0.5637 C   0  0  0  0  0  0  0  0  0  0  0  0
    0.4385    3.7931    1.9881 C   0  0  0  0  0  0  0  0  0  0  0  0
   -0.2886    4.8427    2.5666 F   0  0  0  0  0  0  0  0  0  0  0  0
    0.5332    2.7403    2.8943 F   0  0  0  0  0  0  0  0  0  0  0  0
    1.6903    4.2613    1.6096 F   0  0  0  0  0  0  0  0  0  0  0  0
   -5.2398    2.4209    0.4224 H   0  0  0  0  0  0  0  0  0  0  0  0
   -5.8383    0.8672   -0.3789 H   0  0  0  0  0  0  0  0  0  0  0  0
   -5.4171    0.8867    1.3530 H   0  0  0  0  0  0  0  0  0  0  0  0
   -5.2391   -1.0622    1.2185 H   0  0  0  0  0  0  0  0  0  0  0  0
   -4.4964   -3.3150    1.6509 H   0  0  0  0  0  0  0  0  0  0  0  0
   -2.6270   -5.2457    2.6842 H   0  0  0  0  0  0  0  0  0  0  0  0
   -2.5043   -6.3008    1.1799 H   0  0  0  0  0  0  0  0  0  0  0  0
   -3.8773   -5.2320    1.3893 H   0  0  0  0  0  0  0  0  0  0  0  0
    0.3554   -0.5845    0.6293 H   0  0  0  0  0  0  0  0  0  0  0  0
    2.2838    0.2854    0.0250 H   0  0  0  0  0  0  0  0  0  0  0  0
    3.0553   -2.4162   -0.7039 H   0  0  0  0  0  0  0  0  0  0  0  0
    3.4235   -1.4260    0.7183 H   0  0  0  0  0  0  0  0  0  0  0  0
    5.4169   -1.8807   -0.1821 H   0  0  0  0  0  0  0  0  0  0  0  0
    5.0125   -1.5972   -1.8719 H   0  0  0  0  0  0  0  0  0  0  0  0
    6.3152    0.3129   -0.8907 H   0  0  0  0  0  0  0  0  0  0  0  0
    6.0552    0.6107    1.1952 H   0  0  0  0  0  0  0  0  0  0  0  0
    4.8564    1.7828   -2.0187 H   0  0  0  0  0  0  0  0  0  0  0  0
    3.9640    1.8943   -0.4969 H   0  0  0  0  0  0  0  0  0  0  0  0
    3.6304   -0.1701   -2.7049 H   0  0  0  0  0  0  0  0  0  0  0  0
    2.5896    1.3187   -2.3842 H   0  0  0  0  0  0  0  0  0  0  0  0
   -1.1391   -0.2152   -1.9430 H   0  0  0  0  0  0  0  0  0  0  0  0
   -1.9622    1.9083   -2.3551 H   0  0  0  0  0  0  0  0  0  0  0  0
   -1.8658    4.2700   -2.0037 H   0  0  0  0  0  0  0  0  0  0  0  0
   -0.7871    5.2045   -0.0199 H   0  0  0  0  0  0  0  0  0  0  0  0
    0.0985    1.2388    1.2927 H   0  0  0  0  0  0  0  0  0  0  0  0
  1  2  1  0
  2  3  1  0
  3  4  2  0
  4  5  1  0
  5  6  2  0
  6  7  1  0
  7  8  1  0
  6  9  1  0
  9 10  1  0
 10 11  2  0
 10 12  1  0
 12 13  1  0
 13 14  1  0
 14 15  1  0
 15 16  1  0
 16 17  1  0
 17 18  1  0
 17 19  1  0
 19 20  1  0
 12 21  1  0
 21 22  1  0
 21 23  1  0
 23 24  2  0
 24 25  1  0
 25 26  2  0
 26 27  1  0
 27 28  2  0
 27 29  1  0
 29 30  1  0
 29 31  1  0
 29 32  1  0
 22  3  1  0
 28 23  1  0
 22  9  2  0
 20 14  1  0
  1 33  1  0
  1 34  1  0
  1 35  1  0
  4 36  1  0
  5 37  1  0
  8 38  1  0
  8 39  1  0
  8 40  1  0
 12 41  1  1
 14 42  1  1
 15 43  1  0
 15 44  1  0
 16 45  1  0
 16 46  1  0
 17 47  1  6
 18 48  1  0
 19 49  1  0
 19 50  1  0
 20 51  1  0
 20 52  1  0
 21 53  1  6
 24 54  1  0
 25 55  1  0
 26 56  1  0
 28 57  1  0
M  END
$$$$
[H]c1nc([H])c(-c2c([H])nc3c(c(-c4c([H])c([H])c5nc([H])c6c([H])c(N7C([H])([H])C([H])([H])OC([H])([H])C7([H])[H])c([H])c([H])c6c5c4[H])nn3[H])c2[H])c([H])c1[H]
     RDKit          3D

 57 63  0  0  0  0  0  0  0  0999 V2000
   -6.9564    2.3921    0.3516 C   0  0  0  0  0  0  0  0  0  0  0  0
   -6.6356    1.1668   -0.4838 C   0  0  0  0  0  0  0  0  0  0  0  0
   -5.9702    0.2360    0.3881 N   0  0  0  0  0  0  0  0  0  0  0  0
   -6.7858   -0.3105    1.4680 C   0  0  0  0  0  0  0  0  0  0  0  0
   -7.8079    0.7628    1.7841 C   0  0  0  0  0  0  0  0  0  0  0  0
   -7.2969    2.0481    1.6527 O   0  0  0  0  0  0  0  0  0  0  0  0
   -4.6104   -0.1004    0.1993 C   0  0  0  0  0  0  0  0  0  0  0  0
   -3.7748    0.5873   -0.6548 C   0  0  0  0  0  0  0  0  0  0  0  0
   -2.4532    0.2226   -0.8144 C   0  0  0  0  0  0  0  0  0  0  0  0
   -1.9872   -0.8560   -0.0911 C   0  0  0  0  0  0  0  0  0  0  0  0
   -2.8275   -1.5499    0.7697 C   0  0  0  0  0  0  0  0  0  0  0  0
   -4.1326   -1.1797    0.9187 C   0  0  0  0  0  0  0  0  0  0  0  0
   -2.3285   -2.6213    1.4763 C   0  0  0  0  0  0  0  0  0  0  0  0
   -1.0587   -3.0254    1.3683 N   0  0  0  0  0  0  0  0  0  0  0  0
   -0.2087   -2.3698    0.5358 C   0  0  0  0  0  0  0  0  0  0  0  0
    1.1059   -2.7707    0.4117 C   0  0  0  0  0  0  0  0  0  0  0  0
    1.9916   -2.1263   -0.4220 C   0  0  0  0  0  0  0  0  0  0  0  0
    1.5527   -1.0530   -1.1511 C   0  0  0  0  0  0  0  0  0  0  0  0
    0.2146   -0.6502   -1.0207 C   0  0  0  0  0  0  0  0  0  0  0  0
   -0.6803   -1.2905   -0.1870 C   0  0  0  0  0  0  0  0  0  0  0  0
    2.4137   -0.2917   -2.0666 C   0  0  0  0  0  0  0  0  0  0  0  0
    2.0949    0.0886   -3.3016 N   0  0  0  0  0  0  0  0  0  0  0  0
    3.0745    0.7517   -3.8511 N   0  0  0  0  0  0  0  0  0  0  0  0
    4.0747    0.8173   -2.9619 C   0  0  0  0  0  0  0  0  0  0  0  0
    5.3183    1.3571   -2.9410 N   0  0  0  0  0  0  0  0  0  0  0  0
    6.1090    1.2516   -1.8627 C   0  0  0  0  0  0  0  0  0  0  0  0
    5.7242    0.5977   -0.7128 C   0  0  0  0  0  0  0  0  0  0  0  0
    4.4641    0.0376   -0.7030 C   0  0  0  0  0  0  0  0  0  0  0  0
    3.6746    0.1597   -1.8203 C   0  0  0  0  0  0  0  0  0  0  0  0
    6.6297    0.5192    0.4222 C   0  0  0  0  0  0  0  0  0  0  0  0
    7.5353    1.5462    0.6913 C   0  0  0  0  0  0  0  0  0  0  0  0
    8.3699    1.4481    1.7570 C   0  0  0  0  0  0  0  0  0  0  0  0
    8.3427    0.3564    2.5791 C   0  0  0  0  0  0  0  0  0  0  0  0
    7.4699   -0.6317    2.3182 N   0  0  0  0  0  0  0  0  0  0  0  0
    6.6347   -0.5503    1.2649 C   0  0  0  0  0  0  0  0  0  0  0  0
   -6.0153    2.9849    0.4112 H   0  0  0  0  0  0  0  0  0  0  0  0
   -7.7033    3.0304   -0.1524 H   0  0  0  0  0  0  0  0  0  0  0  0
   -7.6333    0.6936   -0.7494 H   0  0  0  0  0  0  0  0  0  0  0  0
   -6.1586    1.3731   -1.4322 H   0  0  0  0  0  0  0  0  0  0  0  0
   -7.2923   -1.2167    1.1472 H   0  0  0  0  0  0  0  0  0  0  0  0
   -6.1477   -0.5288    2.3629 H   0  0  0  0  0  0  0  0  0  0  0  0
   -8.0592    0.6483    2.8660 H   0  0  0  0  0  0  0  0  0  0  0  0
   -8.7496    0.6315    1.2224 H   0  0  0  0  0  0  0  0  0  0  0  0
   -4.1899    1.4249   -1.1925 H   0  0  0  0  0  0  0  0  0  0  0  0
   -1.8542    0.7924   -1.4894 H   0  0  0  0  0  0  0  0  0  0  0  0
   -4.7374   -1.7582    1.6007 H   0  0  0  0  0  0  0  0  0  0  0  0
   -2.9919   -3.1617    2.1494 H   0  0  0  0  0  0  0  0  0  0  0  0
    1.4494   -3.6255    0.9940 H   0  0  0  0  0  0  0  0  0  0  0  0
    3.0275   -2.4643   -0.5039 H   0  0  0  0  0  0  0  0  0  0  0  0
   -0.1390    0.1906   -1.5889 H   0  0  0  0  0  0  0  0  0  0  0  0
    3.0920    1.1700   -4.8253 H   0  0  0  0  0  0  0  0  0  0  0  0
    7.0845    1.7118   -1.9335 H   0  0  0  0  0  0  0  0  0  0  0  0
    4.1566   -0.4680    0.1786 H   0  0  0  0  0  0  0  0  0  0  0  0
    7.5382    2.4040    0.0233 H   0  0  0  0  0  0  0  0  0  0  0  0
    9.0710    2.2607    1.9513 H   0  0  0  0  0  0  0  0  0  0  0  0
    9.0302    0.3072    3.4312 H   0  0  0  0  0  0  0  0  0  0  0  0
    5.9417   -1.3695    1.0852 H   0  0  0  0  0  0  0  0  0  0  0  0
  1  2  1  0
  2  3  1  0
  3  4  1  0
  4  5  1  0
  5  6  1  0
  3  7  1  0
  7  8  2  0
  8  9  1  0
  9 10  2  0
 10 11  1  0
 11 12  2  0
 11 13  1  0
 13 14  2  0
 14 15  1  0
 15 16  2  0
 16 17  1  0
 17 18  2  0
 18 19  1  0
 19 20  2  0
 18 21  1  0
 21 22  2  0
 22 23  1  0
 23 24  1  0
 24 25  2  0
 25 26  1  0
 26 27  2  0
 27 28  1  0
 28 29  2  0
 27 30  1  0
 30 31  2  0
 31 32  1  0
 32 33  2  0
 33 34  1  0
 34 35  2  0
  6  1  1  0
 12  7  1  0
 20 15  1  0
 29 21  1  0
 35 30  1  0
 20 10  1  0
 29 24  1  0
  1 36  1  0
  1 37  1  0
  2 38  1  0
  2 39  1  0
  4 40  1  0
  4 41  1  0
  5 42  1  0
  5 43  1  0
  8 44  1  0
  9 45  1  0
 12 46  1  0
 13 47  1  0
 16 48  1  0
 17 49  1  0
 19 50  1  0
 23 51  1  0
 26 52  1  0
 28 53  1  0
 31 54  1  0
 32 55  1  0
 33 56  1  0
 35 57  1  0
M  END
$$$$
[H]OC(=O)C([H])([H])C([H])([H])C([H])([H])OC(=O)C([H])([H])N1C(=O)C([H])(C([H])([H])C(=O)N2C([H])([H])C([H])([H])C([H])(c3c([H])c([H])c(Cl)c(F)c3[H])C([H])([H])C2([H])[H])c2c([H])c(Cl)c([H])c([H])c21
     RDKit          3D

 65 68  0  0  0  0  0  0  0  0999 V2000
    5.6605    4.2864   -0.5519 O   0  0  0  0  0  0  0  0  0  0  0  0
    5.7676    3.2623    0.3756 C   0  0  0  0  0  0  0  0  0  0  0  0
    5.4447    3.4234    1.5893 O   0  0  0  0  0  0  0  0  0  0  0  0
    6.2842    1.9466   -0.1163 C   0  0  0  0  0  0  0  0  0  0  0  0
    6.3316    0.9422    1.0343 C   0  0  0  0  0  0  0  0  0  0  0  0
    6.8519   -0.3668    0.5031 C   0  0  0  0  0  0  0  0  0  0  0  0
    6.0170   -0.8492   -0.5138 O   0  0  0  0  0  0  0  0  0  0  0  0
    4.7004   -1.2001   -0.3950 C   0  0  0  0  0  0  0  0  0  0  0  0
    4.1278   -1.1062    0.7088 O   0  0  0  0  0  0  0  0  0  0  0  0
    3.9148   -1.7004   -1.5664 C   0  0  0  0  0  0  0  0  0  0  0  0
    2.5426   -1.9723   -1.1884 N   0  0  0  0  0  0  0  0  0  0  0  0
    1.4943   -1.0264   -1.2562 C   0  0  0  0  0  0  0  0  0  0  0  0
    1.6035    0.1454   -1.6883 O   0  0  0  0  0  0  0  0  0  0  0  0
    0.2943   -1.6898   -0.7324 C   0  0  0  0  0  0  0  0  0  0  0  0
   -0.2722   -1.0101    0.4874 C   0  0  0  0  0  0  0  0  0  0  0  0
   -0.6500    0.3674    0.1645 C   0  0  0  0  0  0  0  0  0  0  0  0
    0.1435    1.3063    0.4141 O   0  0  0  0  0  0  0  0  0  0  0  0
   -1.8948    0.6611   -0.4255 N   0  0  0  0  0  0  0  0  0  0  0  0
   -2.2891    2.0316   -0.7662 C   0  0  0  0  0  0  0  0  0  0  0  0
   -3.3968    2.4193    0.1829 C   0  0  0  0  0  0  0  0  0  0  0  0
   -4.2768    1.1973    0.4797 C   0  0  0  0  0  0  0  0  0  0  0  0
   -4.2277    0.2955   -0.7144 C   0  0  0  0  0  0  0  0  0  0  0  0
   -2.8410   -0.3707   -0.7222 C   0  0  0  0  0  0  0  0  0  0  0  0
   -5.6149    1.7253    0.7792 C   0  0  0  0  0  0  0  0  0  0  0  0
   -6.4110    2.3748   -0.1330 C   0  0  0  0  0  0  0  0  0  0  0  0
   -7.6570    2.8540    0.1949 C   0  0  0  0  0  0  0  0  0  0  0  0
   -8.1339    2.6841    1.4742 C   0  0  0  0  0  0  0  0  0  0  0  0
   -9.6972    3.2737    1.9240 Cl  0  0  0  0  0  0  0  0  0  0  0  0
   -7.3677    2.0415    2.4087 C   0  0  0  0  0  0  0  0  0  0  0  0
   -7.8360    1.8761    3.6610 F   0  0  0  0  0  0  0  0  0  0  0  0
   -6.1189    1.5701    2.0514 C   0  0  0  0  0  0  0  0  0  0  0  0
    0.7246   -3.0707   -0.4454 C   0  0  0  0  0  0  0  0  0  0  0  0
    0.0254   -4.1788    0.0313 C   0  0  0  0  0  0  0  0  0  0  0  0
    0.6769   -5.3786    0.2414 C   0  0  0  0  0  0  0  0  0  0  0  0
   -0.2242   -6.7570    0.8422 Cl  0  0  0  0  0  0  0  0  0  0  0  0
    2.0237   -5.5273   -0.0078 C   0  0  0  0  0  0  0  0  0  0  0  0
    2.7182   -4.4379   -0.4787 C   0  0  0  0  0  0  0  0  0  0  0  0
    2.0612   -3.2137   -0.6952 C   0  0  0  0  0  0  0  0  0  0  0  0
    6.5458    4.7302   -0.8314 H   0  0  0  0  0  0  0  0  0  0  0  0
    5.6020    1.6053   -0.9140 H   0  0  0  0  0  0  0  0  0  0  0  0
    7.3117    2.1385   -0.4738 H   0  0  0  0  0  0  0  0  0  0  0  0
    7.0275    1.3604    1.8015 H   0  0  0  0  0  0  0  0  0  0  0  0
    5.3107    0.8382    1.4315 H   0  0  0  0  0  0  0  0  0  0  0  0
    6.8860   -1.1007    1.3411 H   0  0  0  0  0  0  0  0  0  0  0  0
    7.8813   -0.2158    0.1086 H   0  0  0  0  0  0  0  0  0  0  0  0
    4.3712   -2.5892   -2.0331 H   0  0  0  0  0  0  0  0  0  0  0  0
    3.9141   -0.8909   -2.3173 H   0  0  0  0  0  0  0  0  0  0  0  0
   -0.4716   -1.7632   -1.5426 H   0  0  0  0  0  0  0  0  0  0  0  0
    0.5527   -0.9838    1.2673 H   0  0  0  0  0  0  0  0  0  0  0  0
   -1.1269   -1.5560    0.9133 H   0  0  0  0  0  0  0  0  0  0  0  0
   -2.6676    2.0081   -1.8041 H   0  0  0  0  0  0  0  0  0  0  0  0
   -1.4403    2.7289   -0.6294 H   0  0  0  0  0  0  0  0  0  0  0  0
   -2.9320    2.8236    1.1049 H   0  0  0  0  0  0  0  0  0  0  0  0
   -4.0029    3.2292   -0.2764 H   0  0  0  0  0  0  0  0  0  0  0  0
   -3.8458    0.6945    1.3443 H   0  0  0  0  0  0  0  0  0  0  0  0
   -4.9434   -0.5428   -0.6196 H   0  0  0  0  0  0  0  0  0  0  0  0
   -4.3135    0.8155   -1.6898 H   0  0  0  0  0  0  0  0  0  0  0  0
   -2.8741   -1.2066    0.0011 H   0  0  0  0  0  0  0  0  0  0  0  0
   -2.6728   -0.8471   -1.7294 H   0  0  0  0  0  0  0  0  0  0  0  0
   -6.0510    2.5109   -1.1264 H   0  0  0  0  0  0  0  0  0  0  0  0
   -8.2822    3.3652   -0.5214 H   0  0  0  0  0  0  0  0  0  0  0  0
   -5.5532    1.0702    2.8236 H   0  0  0  0  0  0  0  0  0  0  0  0
   -1.0424   -4.0436    0.2242 H   0  0  0  0  0  0  0  0  0  0  0  0
    2.5311   -6.4870    0.1633 H   0  0  0  0  0  0  0  0  0  0  0  0
    3.7865   -4.5207   -0.6863 H   0  0  0  0  0  0  0  0  0  0  0  0
  1  2  1  0
  2  3  2  0
  2  4  1  0
  4  5  1  0
  5  6  1  0
  6  7  1  0
  7  8  1  0
  8  9  2  0
  8 10  1  0
 10 11  1  0
 11 12  1  0
 12 13  2  0
 12 14  1  0
 14 15  1  0
 15 16  1  0
 16 17  2  0
 16 18  1  0
 18 19  1  0
 19 20  1  0
 20 21  1  0
 21 22  1  0
 22 23  1  0
 21 24  1  0
 24 25  2  0
 25 26  1  0
 26 27  2  0
 27 28  1  0
 27 29  1  0
 29 30  1  0
 29 31  2  0
 14 32  1  0
 32 33  2  0
 33 34  1  0
 34 35  1  0
 34 36  2  0
 36 37  1  0
 37 38  2  0
 38 11  1  0
 23 18  1  0
 31 24  1  0
 38 32  1  0
  1 39  1  0
  4 40  1  0
  4 41  1  0
  5 42  1  0
  5 43  1  0
  6 44  1  0
  6 45  1  0
 10 46  1  0
 10 47  1  0
 14 48  1  0
 15 49  1  0
 15 50  1  0
 19 51  1  0
 19 52  1  0
 20 53  1  0
 20 54  1  0
 21 55  1  0
 22 56  1  0
 22 57  1  0
 23 58  1  0
 23 59  1  0
 25 60  1  0
 26 61  1  0
 31 62  1  0
 33 63  1  0
 36 64  1  0
 37 65  1  0
M  END
$$$$
[H]c1c([H])c([H])c2c(c1[H])c1c3c(c4c5c([H])c([H])c([H])c([H])c5n5c4c1n2[C@@]1(C([H])([H])[H])O[C@]5([H])C([H])([H])[C@]([H])(N([H])C([H])([H])[H])[C@]1([H])OC([H])([H])[H])C(=O)N([H])C3([H])[H]
     RDKit          3D

 61 68  0  0  0  0  0  0  0  0999 V2000
   -4.0469   -1.7704    1.7208 C   0  0  0  0  0  0  0  0  0  0  0  0
   -2.8051   -1.1267    1.8532 N   0  0  0  0  0  0  0  0  0  0  0  0
   -2.0631   -0.7295    0.7453 C   0  0  1  0  0  0  0  0  0  0  0  0
   -1.6837   -1.8762   -0.1711 C   0  0  0  0  0  0  0  0  0  0  0  0
   -0.8984   -1.4098   -1.3642 C   0  0  1  0  0  0  0  0  0  0  0  0
   -1.1746   -0.2090   -1.8664 O   0  0  0  0  0  0  0  0  0  0  0  0
   -1.4577    0.8633   -1.0142 C   0  0  1  0  0  0  0  0  0  0  0  0
   -2.0247    1.8974   -1.9699 C   0  0  0  0  0  0  0  0  0  0  0  0
   -2.5753    0.3728   -0.1181 C   0  0  1  0  0  0  0  0  0  0  0  0
   -3.5198   -0.1711   -0.9735 O   0  0  0  0  0  0  0  0  0  0  0  0
   -4.7628    0.3638   -0.9969 C   0  0  0  0  0  0  0  0  0  0  0  0
   -0.2701    1.3169   -0.3284 N   0  0  0  0  0  0  0  0  0  0  0  0
   -0.0959    2.5647    0.1722 C   0  0  0  0  0  0  0  0  0  0  0  0
   -0.9035    3.6566    0.2781 C   0  0  0  0  0  0  0  0  0  0  0  0
   -0.4867    4.8568    0.8587 C   0  0  0  0  0  0  0  0  0  0  0  0
    0.7815    4.9813    1.3559 C   0  0  0  0  0  0  0  0  0  0  0  0
    1.6018    3.8897    1.2562 C   0  0  0  0  0  0  0  0  0  0  0  0
    1.2013    2.7011    0.6855 C   0  0  0  0  0  0  0  0  0  0  0  0
    1.8231    1.4953    0.4914 C   0  0  0  0  0  0  0  0  0  0  0  0
    3.0935    1.0534    0.7971 C   0  0  0  0  0  0  0  0  0  0  0  0
    4.2347    1.7462    1.4443 C   0  0  0  0  0  0  0  0  0  0  0  0
    5.2812    0.7805    1.4850 N   0  0  0  0  0  0  0  0  0  0  0  0
    4.8379   -0.4605    0.9036 C   0  0  0  0  0  0  0  0  0  0  0  0
    5.5848   -1.4446    0.8345 O   0  0  0  0  0  0  0  0  0  0  0  0
    3.4679   -0.2585    0.4835 C   0  0  0  0  0  0  0  0  0  0  0  0
    2.5253   -1.0802   -0.1335 C   0  0  0  0  0  0  0  0  0  0  0  0
    2.5255   -2.4091   -0.5522 C   0  0  0  0  0  0  0  0  0  0  0  0
    3.4661   -3.3824   -0.5335 C   0  0  0  0  0  0  0  0  0  0  0  0
    3.1394   -4.6508   -1.0457 C   0  0  0  0  0  0  0  0  0  0  0  0
    1.8931   -4.8946   -1.5532 C   0  0  0  0  0  0  0  0  0  0  0  0
    0.9234   -3.9194   -1.5814 C   0  0  0  0  0  0  0  0  0  0  0  0
    1.2579   -2.6757   -1.0743 C   0  0  0  0  0  0  0  0  0  0  0  0
    0.5170   -1.5633   -0.9812 N   0  0  0  0  0  0  0  0  0  0  0  0
    1.2574   -0.6011   -0.4262 C   0  0  0  0  0  0  0  0  0  0  0  0
    0.9293    0.6883   -0.1091 C   0  0  0  0  0  0  0  0  0  0  0  0
   -4.8662   -1.0159    1.9108 H   0  0  0  0  0  0  0  0  0  0  0  0
   -4.1813   -2.6236    2.4398 H   0  0  0  0  0  0  0  0  0  0  0  0
   -4.2705   -2.2084    0.7307 H   0  0  0  0  0  0  0  0  0  0  0  0
   -2.8232   -0.4664    2.6590 H   0  0  0  0  0  0  0  0  0  0  0  0
   -1.0753   -0.3131    1.1783 H   0  0  0  0  0  0  0  0  0  0  0  0
   -1.0881   -2.5934    0.4138 H   0  0  0  0  0  0  0  0  0  0  0  0
   -2.6116   -2.3396   -0.5348 H   0  0  0  0  0  0  0  0  0  0  0  0
   -1.0616   -2.1696   -2.1624 H   0  0  0  0  0  0  0  0  0  0  0  0
   -2.9480    2.3656   -1.6768 H   0  0  0  0  0  0  0  0  0  0  0  0
   -1.2023    2.6448   -2.1814 H   0  0  0  0  0  0  0  0  0  0  0  0
   -2.2291    1.4720   -2.9983 H   0  0  0  0  0  0  0  0  0  0  0  0
   -3.0338    1.1533    0.4695 H   0  0  0  0  0  0  0  0  0  0  0  0
   -5.2481    0.3628   -0.0036 H   0  0  0  0  0  0  0  0  0  0  0  0
   -4.9197    1.3034   -1.5454 H   0  0  0  0  0  0  0  0  0  0  0  0
   -5.3837   -0.3816   -1.6336 H   0  0  0  0  0  0  0  0  0  0  0  0
   -1.9195    3.5996   -0.0805 H   0  0  0  0  0  0  0  0  0  0  0  0
   -1.1927    5.6764    0.9018 H   0  0  0  0  0  0  0  0  0  0  0  0
    1.1278    5.9226    1.8176 H   0  0  0  0  0  0  0  0  0  0  0  0
    2.6056    3.9573    1.6392 H   0  0  0  0  0  0  0  0  0  0  0  0
    4.5809    2.6270    0.8499 H   0  0  0  0  0  0  0  0  0  0  0  0
    3.9928    2.1189    2.4526 H   0  0  0  0  0  0  0  0  0  0  0  0
    6.2242    0.9648    1.8822 H   0  0  0  0  0  0  0  0  0  0  0  0
    4.4453   -3.2357   -0.1500 H   0  0  0  0  0  0  0  0  0  0  0  0
    3.9157   -5.4107   -1.0164 H   0  0  0  0  0  0  0  0  0  0  0  0
    1.6559   -5.8901   -1.9485 H   0  0  0  0  0  0  0  0  0  0  0  0
   -0.0671   -4.1156   -1.9855 H   0  0  0  0  0  0  0  0  0  0  0  0
  1  2  1  0
  2  3  1  0
  3  4  1  0
  4  5  1  0
  5  6  1  0
  6  7  1  0
  7  8  1  6
  7  9  1  0
  9 10  1  0
 10 11  1  0
  7 12  1  0
 12 13  1  0
 13 14  2  0
 14 15  1  0
 15 16  2  0
 16 17  1  0
 17 18  2  0
 18 19  1  0
 19 20  2  0
 20 21  1  0
 21 22  1  0
 22 23  1  0
 23 24  2  0
 23 25  1  0
 25 26  2  0
 26 27  1  0
 27 28  2  0
 28 29  1  0
 29 30  2  0
 30 31  1  0
 31 32  2  0
 32 33  1  0
 33 34  1  0
 34 35  2  0
  9  3  1  0
 35 12  1  0
 33  5  1  0
 18 13  1  0
 35 19  1  0
 25 20  1  0
 34 26  1  0
 32 27  1  0
  1 36  1  0
  1 37  1  0
  1 38  1  0
  2 39  1  0
  3 40  1  1
  4 41  1  0
  4 42  1  0
  5 43  1  6
  8 44  1  0
  8 45  1  0
  8 46  1  0
  9 47  1  1
 11 48  1  0
 11 49  1  0
 11 50  1  0
 14 51  1  0
 15 52  1  0
 16 53  1  0
 17 54  1  0
 21 55  1  0
 21 56  1  0
 22 57  1  0
 28 58  1  0
 29 59  1  0
 30 60  1  0
 31 61  1  0
M  END
$$$$
[H]OC(=O)c1c(-c2c([H])c([H])c([H])c(OC(F)(F)F)c2[H])nc2c([H])c([H])c(Br)c([H])c2c1[H]
     RDKit          3D

 34 36  0  0  0  0  0  0  0  0999 V2000
   -2.0336   -1.2609   -3.4208 O   0  0  0  0  0  0  0  0  0  0  0  0
   -0.9416   -0.9459   -2.5711 C   0  0  0  0  0  0  0  0  0  0  0  0
    0.1607   -1.2660   -3.0371 O   0  0  0  0  0  0  0  0  0  0  0  0
   -1.2586   -0.3102   -1.3111 C   0  0  0  0  0  0  0  0  0  0  0  0
   -2.6141   -0.2100   -0.9427 C   0  0  0  0  0  0  0  0  0  0  0  0
   -2.9152    0.3021    0.2923 C   0  0  0  0  0  0  0  0  0  0  0  0
   -4.2638    0.3880    0.6292 C   0  0  0  0  0  0  0  0  0  0  0  0
   -4.6197    0.8909    1.8504 C   0  0  0  0  0  0  0  0  0  0  0  0
   -6.4589    1.0198    2.3373 Br  0  0  0  0  0  0  0  0  0  0  0  0
   -3.6225    1.3023    2.7210 C   0  0  0  0  0  0  0  0  0  0  0  0
   -2.3070    1.2255    2.4090 C   0  0  0  0  0  0  0  0  0  0  0  0
   -1.9404    0.7165    1.1724 C   0  0  0  0  0  0  0  0  0  0  0  0
   -0.6710    0.6166    0.8081 N   0  0  0  0  0  0  0  0  0  0  0  0
   -0.3100    0.1114   -0.4210 C   0  0  0  0  0  0  0  0  0  0  0  0
    1.1310    0.0589   -0.7061 C   0  0  0  0  0  0  0  0  0  0  0  0
    1.7352    0.7103   -1.7496 C   0  0  0  0  0  0  0  0  0  0  0  0
    3.0803    0.6113   -1.9614 C   0  0  0  0  0  0  0  0  0  0  0  0
    3.8564   -0.1539   -1.1183 C   0  0  0  0  0  0  0  0  0  0  0  0
    3.2979   -0.8294   -0.0533 C   0  0  0  0  0  0  0  0  0  0  0  0
    4.0883   -1.5846    0.7727 O   0  0  0  0  0  0  0  0  0  0  0  0
    4.7212   -1.0858    1.9351 C   0  0  0  0  0  0  0  0  0  0  0  0
    5.4453   -2.0857    2.5519 F   0  0  0  0  0  0  0  0  0  0  0  0
    3.7880   -0.6399    2.8740 F   0  0  0  0  0  0  0  0  0  0  0  0
    5.5250    0.0122    1.6517 F   0  0  0  0  0  0  0  0  0  0  0  0
    1.9298   -0.7004    0.1233 C   0  0  0  0  0  0  0  0  0  0  0  0
   -2.1389   -0.6661   -4.2531 H   0  0  0  0  0  0  0  0  0  0  0  0
   -3.3762   -0.5372   -1.6387 H   0  0  0  0  0  0  0  0  0  0  0  0
   -4.9943    0.0530   -0.0880 H   0  0  0  0  0  0  0  0  0  0  0  0
   -3.9357    1.6922    3.6716 H   0  0  0  0  0  0  0  0  0  0  0  0
   -1.4965    1.5376    3.0641 H   0  0  0  0  0  0  0  0  0  0  0  0
    1.1495    1.3397   -2.4404 H   0  0  0  0  0  0  0  0  0  0  0  0
    3.5596    1.1340   -2.7976 H   0  0  0  0  0  0  0  0  0  0  0  0
    4.9323   -0.2122   -1.3162 H   0  0  0  0  0  0  0  0  0  0  0  0
    1.4973   -1.2341    0.9625 H   0  0  0  0  0  0  0  0  0  0  0  0
  1  2  1  0
  2  3  2  0
  2  4  1  0
  4  5  2  0
  5  6  1  0
  6  7  2  0
  7  8  1  0
  8  9  1  0
  8 10  2  0
 10 11  1  0
 11 12  2  0
 12 13  1  0
 13 14  2  0
 14 15  1  0
 15 16  2  0
 16 17  1  0
 17 18  2  0
 18 19  1  0
 19 20  1  0
 20 21  1  0
 21 22  1  0
 21 23  1  0
 21 24  1  0
 19 25  2  0
 14  4  1  0
 25 15  1  0
 12  6  1  0
  1 26  1  0
  5 27  1  0
  7 28  1  0
 10 29  1  0
 11 30  1  0
 16 31  1  0
 17 32  1  0
 18 33  1  0
 25 34  1  0
M  END
$$$$
[H]C(=C1C(=O)N([H])c2c(F)c(F)c([H])c([H])c21)c1c([H])c([H])c(S(=O)(=O)N([H])C([H])([H])C([H])([H])N2C([H])([H])C([H])([H])OC([H])([H])C2([H])[H])c([H])c1[H]
     RDKit          3D

 52 55  0  0  0  0  0  0  0  0999 V2000
   -9.8693    0.5696   -2.5595 F   0  0  0  0  0  0  0  0  0  0  0  0
   -8.6022    0.4386   -2.0775 C   0  0  0  0  0  0  0  0  0  0  0  0
   -7.5046    0.6206   -2.8904 C   0  0  0  0  0  0  0  0  0  0  0  0
   -6.2173    0.4885   -2.4060 C   0  0  0  0  0  0  0  0  0  0  0  0
   -6.0611    0.1679   -1.0801 C   0  0  0  0  0  0  0  0  0  0  0  0
   -4.8277   -0.0437   -0.2633 C   0  0  0  0  0  0  0  0  0  0  0  0
   -3.6248    0.0270   -0.7749 C   0  0  0  0  0  0  0  0  0  0  0  0
   -2.4154   -0.1637   -0.0166 C   0  0  0  0  0  0  0  0  0  0  0  0
   -1.4888   -1.1429   -0.4107 C   0  0  0  0  0  0  0  0  0  0  0  0
   -0.2969   -1.3348    0.2373 C   0  0  0  0  0  0  0  0  0  0  0  0
    0.0641   -0.5695    1.3249 C   0  0  0  0  0  0  0  0  0  0  0  0
   -0.8297    0.3963    1.7272 C   0  0  0  0  0  0  0  0  0  0  0  0
   -2.0361    0.5922    1.0720 C   0  0  0  0  0  0  0  0  0  0  0  0
    1.5762   -0.7943    2.1699 S   0  0  0  0  0  0  0  0  0  0  0  0
    1.9792   -2.2368    2.1919 O   0  0  0  0  0  0  0  0  0  0  0  0
    1.4287   -0.3695    3.6224 O   0  0  0  0  0  0  0  0  0  0  0  0
    2.8249    0.1875    1.4991 N   0  0  0  0  0  0  0  0  0  0  0  0
    3.0699   -0.1595    0.1240 C   0  0  0  0  0  0  0  0  0  0  0  0
    4.1635    0.7272   -0.4032 C   0  0  0  0  0  0  0  0  0  0  0  0
    5.3956    0.6027    0.3091 N   0  0  0  0  0  0  0  0  0  0  0  0
    6.3908    1.4604   -0.2287 C   0  0  0  0  0  0  0  0  0  0  0  0
    7.6591    0.8249   -0.6825 C   0  0  0  0  0  0  0  0  0  0  0  0
    7.5156   -0.3732   -1.3369 O   0  0  0  0  0  0  0  0  0  0  0  0
    6.4644   -1.1459   -0.9051 C   0  0  0  0  0  0  0  0  0  0  0  0
    5.9143   -0.7230    0.4263 C   0  0  0  0  0  0  0  0  0  0  0  0
   -5.2731   -0.3608    1.0724 C   0  0  0  0  0  0  0  0  0  0  0  0
   -4.5611   -0.6135    2.0684 O   0  0  0  0  0  0  0  0  0  0  0  0
   -6.6999   -0.3392    1.0581 N   0  0  0  0  0  0  0  0  0  0  0  0
   -7.1210   -0.0188   -0.2499 C   0  0  0  0  0  0  0  0  0  0  0  0
   -8.4094    0.1204   -0.7636 C   0  0  0  0  0  0  0  0  0  0  0  0
   -9.4650   -0.0688    0.0717 F   0  0  0  0  0  0  0  0  0  0  0  0
   -7.7188    0.8731   -3.9299 H   0  0  0  0  0  0  0  0  0  0  0  0
   -5.3857    0.6417   -3.0828 H   0  0  0  0  0  0  0  0  0  0  0  0
   -3.5279    0.2450   -1.8537 H   0  0  0  0  0  0  0  0  0  0  0  0
   -1.7740   -1.7462   -1.2682 H   0  0  0  0  0  0  0  0  0  0  0  0
    0.3857   -2.1118   -0.1147 H   0  0  0  0  0  0  0  0  0  0  0  0
   -0.5576    1.0068    2.5834 H   0  0  0  0  0  0  0  0  0  0  0  0
   -2.6990    1.3861    1.4240 H   0  0  0  0  0  0  0  0  0  0  0  0
    2.5794    1.1953    1.5760 H   0  0  0  0  0  0  0  0  0  0  0  0
    3.2595   -1.2284    0.0517 H   0  0  0  0  0  0  0  0  0  0  0  0
    2.1559    0.0505   -0.5030 H   0  0  0  0  0  0  0  0  0  0  0  0
    4.2662    0.5952   -1.5100 H   0  0  0  0  0  0  0  0  0  0  0  0
    3.8125    1.7794   -0.2636 H   0  0  0  0  0  0  0  0  0  0  0  0
    6.6493    2.2272    0.5621 H   0  0  0  0  0  0  0  0  0  0  0  0
    5.9272    2.0889   -1.0468 H   0  0  0  0  0  0  0  0  0  0  0  0
    8.1654    1.5264   -1.3772 H   0  0  0  0  0  0  0  0  0  0  0  0
    8.3529    0.6814    0.1742 H   0  0  0  0  0  0  0  0  0  0  0  0
    5.6463   -1.0596   -1.6471 H   0  0  0  0  0  0  0  0  0  0  0  0
    6.7649   -2.2023   -0.8550 H   0  0  0  0  0  0  0  0  0  0  0  0
    5.1614   -1.4651    0.7432 H   0  0  0  0  0  0  0  0  0  0  0  0
    6.6860   -0.7175    1.2226 H   0  0  0  0  0  0  0  0  0  0  0  0
   -7.2928   -0.5321    1.8938 H   0  0  0  0  0  0  0  0  0  0  0  0
  1  2  1  0
  2  3  2  0
  3  4  1  0
  4  5  2  0
  5  6  1  0
  6  7  2  3
  7  8  1  0
  8  9  2  0
  9 10  1  0
 10 11  2  0
 11 12  1  0
 12 13  2  0
 11 14  1  0
 14 15  2  0
 14 16  2  0
 14 17  1  0
 17 18  1  0
 18 19  1  0
 19 20  1  0
 20 21  1  0
 21 22  1  0
 22 23  1  0
 23 24  1  0
 24 25  1  0
  6 26  1  0
 26 27  2  0
 26 28  1  0
 28 29  1  0
 29 30  2  0
 30 31  1  0
 30  2  1  0
 29  5  1  0
 13  8  1  0
 25 20  1  0
  3 32  1  0
  4 33  1  0
  7 34  1  0
  9 35  1  0
 10 36  1  0
 12 37  1  0
 13 38  1  0
 17 39  1  0
 18 40  1  0
 18 41  1  0
 19 42  1  0
 19 43  1  0
 21 44  1  0
 21 45  1  0
 22 46  1  0
 22 47  1  0
 24 48  1  0
 24 49  1  0
 25 50  1  0
 25 51  1  0
 28 52  1  0
M  END
$$$$
[H]OC(=O)C([H])([H])C([H])([H])C(=O)N1C([H])(c2c([H])c([H])c([H])c([H])c2[H])c2c(sc([H])c2[H])C([H])([H])C1([H])[H]
     RDKit          3D

 39 41  0  0  0  0  0  0  0  0999 V2000
    6.0149    0.9983    1.2983 O   0  0  0  0  0  0  0  0  0  0  0  0
    5.0440    0.2065    0.7088 C   0  0  0  0  0  0  0  0  0  0  0  0
    5.3504   -0.8750    0.1544 O   0  0  0  0  0  0  0  0  0  0  0  0
    3.6357    0.6472    0.7378 C   0  0  0  0  0  0  0  0  0  0  0  0
    2.7138   -0.3210    0.0578 C   0  0  0  0  0  0  0  0  0  0  0  0
    1.3182    0.1757    0.1198 C   0  0  0  0  0  0  0  0  0  0  0  0
    1.1194    1.2220    0.7462 O   0  0  0  0  0  0  0  0  0  0  0  0
    0.3052   -0.5382   -0.5150 N   0  0  0  0  0  0  0  0  0  0  0  0
    0.7842   -1.7503   -1.2437 C   0  0  0  0  0  0  0  0  0  0  0  0
   -0.3608   -2.5803   -1.7699 C   0  0  0  0  0  0  0  0  0  0  0  0
   -1.4132   -2.6568   -0.6674 C   0  0  0  0  0  0  0  0  0  0  0  0
   -2.3223   -3.8864    0.0815 S   0  0  0  0  0  0  0  0  0  0  0  0
   -3.1836   -2.9094    1.1787 C   0  0  0  0  0  0  0  0  0  0  0  0
   -2.7335   -1.6376    0.9276 C   0  0  0  0  0  0  0  0  0  0  0  0
   -1.7961   -1.4981   -0.0487 C   0  0  0  0  0  0  0  0  0  0  0  0
   -1.0923   -0.2846   -0.6007 C   0  0  0  0  0  0  0  0  0  0  0  0
   -1.6397    0.9739   -0.1989 C   0  0  0  0  0  0  0  0  0  0  0  0
   -2.1255    1.8631   -1.1839 C   0  0  0  0  0  0  0  0  0  0  0  0
   -2.7032    3.0756   -0.8763 C   0  0  0  0  0  0  0  0  0  0  0  0
   -2.8256    3.4635    0.4383 C   0  0  0  0  0  0  0  0  0  0  0  0
   -2.3507    2.5947    1.4081 C   0  0  0  0  0  0  0  0  0  0  0  0
   -1.7801    1.3958    1.0925 C   0  0  0  0  0  0  0  0  0  0  0  0
    6.1676    1.9689    1.0700 H   0  0  0  0  0  0  0  0  0  0  0  0
    3.2840    0.7853    1.7880 H   0  0  0  0  0  0  0  0  0  0  0  0
    3.5348    1.6275    0.2103 H   0  0  0  0  0  0  0  0  0  0  0  0
    3.0280   -0.4426   -1.0052 H   0  0  0  0  0  0  0  0  0  0  0  0
    2.7917   -1.3379    0.5396 H   0  0  0  0  0  0  0  0  0  0  0  0
    1.5009   -2.3211   -0.6578 H   0  0  0  0  0  0  0  0  0  0  0  0
    1.2868   -1.3093   -2.1542 H   0  0  0  0  0  0  0  0  0  0  0  0
   -0.0181   -3.6114   -1.9400 H   0  0  0  0  0  0  0  0  0  0  0  0
   -0.8416   -2.1199   -2.6418 H   0  0  0  0  0  0  0  0  0  0  0  0
   -3.9433   -3.1891    1.9402 H   0  0  0  0  0  0  0  0  0  0  0  0
   -3.1725   -0.7948    1.5392 H   0  0  0  0  0  0  0  0  0  0  0  0
   -1.2936   -0.3683   -1.7239 H   0  0  0  0  0  0  0  0  0  0  0  0
   -2.0618    1.6227   -2.2375 H   0  0  0  0  0  0  0  0  0  0  0  0
   -3.0675    3.7403   -1.6364 H   0  0  0  0  0  0  0  0  0  0  0  0
   -3.2684    4.4006    0.7461 H   0  0  0  0  0  0  0  0  0  0  0  0
   -2.4551    2.9172    2.4507 H   0  0  0  0  0  0  0  0  0  0  0  0
   -1.4313    0.7534    1.8674 H   0  0  0  0  0  0  0  0  0  0  0  0
  1  2  1  0
  2  3  2  0
  2  4  1  0
  4  5  1  0
  5  6  1  0
  6  7  2  0
  6  8  1  0
  8  9  1  0
  9 10  1  0
 10 11  1  0
 11 12  1  0
 12 13  1  0
 13 14  2  0
 14 15  1  0
 15 16  1  0
 16 17  1  0
 17 18  2  0
 18 19  1  0
 19 20  2  0
 20 21  1  0
 21 22  2  0
 16  8  1  0
 22 17  1  0
 15 11  2  0
  1 23  1  0
  4 24  1  0
  4 25  1  0
  5 26  1  0
  5 27  1  0
  9 28  1  0
  9 29  1  0
 10 30  1  0
 10 31  1  0
 13 32  1  0
 14 33  1  0
 16 34  1  0
 18 35  1  0
 19 36  1  0
 20 37  1  0
 21 38  1  0
 22 39  1  0
M  END
$$$$
[H]c1c([H])c([H])c(C(=O)N([H])c2c([H])c([H])c([H])c3sc(-c4c([H])c([H])c([H])c(F)c4[H])nc23)c(Br)c1[H]
     RDKit          3D

 38 41  0  0  0  0  0  0  0  0999 V2000
   -3.4235    4.0617    0.2602 F   0  0  0  0  0  0  0  0  0  0  0  0
   -3.9003    2.8052    0.2030 C   0  0  0  0  0  0  0  0  0  0  0  0
   -5.2635    2.6335    0.2035 C   0  0  0  0  0  0  0  0  0  0  0  0
   -5.7466    1.3321    0.1406 C   0  0  0  0  0  0  0  0  0  0  0  0
   -4.8700    0.2614    0.0821 C   0  0  0  0  0  0  0  0  0  0  0  0
   -3.5105    0.4451    0.0823 C   0  0  0  0  0  0  0  0  0  0  0  0
   -3.0275    1.7208    0.1421 C   0  0  0  0  0  0  0  0  0  0  0  0
   -2.6313   -0.7241    0.0402 C   0  0  0  0  0  0  0  0  0  0  0  0
   -1.3222   -0.7841    0.0591 N   0  0  0  0  0  0  0  0  0  0  0  0
   -0.6945   -1.9198    0.0337 C   0  0  0  0  0  0  0  0  0  0  0  0
    0.7234   -2.0898    0.0612 C   0  0  0  0  0  0  0  0  0  0  0  0
    1.5526   -0.9551    0.0851 N   0  0  0  0  0  0  0  0  0  0  0  0
    2.9314   -0.7662    0.1425 C   0  0  0  0  0  0  0  0  0  0  0  0
    3.7123   -1.7792    0.1773 O   0  0  0  0  0  0  0  0  0  0  0  0
    3.5687    0.5264    0.1580 C   0  0  0  0  0  0  0  0  0  0  0  0
    3.6209    1.3675   -0.9321 C   0  0  0  0  0  0  0  0  0  0  0  0
    4.1932    2.6341   -0.8516 C   0  0  0  0  0  0  0  0  0  0  0  0
    4.7366    3.0930    0.3398 C   0  0  0  0  0  0  0  0  0  0  0  0
    4.6815    2.2449    1.4251 C   0  0  0  0  0  0  0  0  0  0  0  0
    4.1119    0.9775    1.3589 C   0  0  0  0  0  0  0  0  0  0  0  0
    4.0993   -0.1181    2.9076 Br  0  0  0  0  0  0  0  0  0  0  0  0
    1.2243   -3.3674    0.0396 C   0  0  0  0  0  0  0  0  0  0  0  0
    0.4536   -4.5066   -0.0063 C   0  0  0  0  0  0  0  0  0  0  0  0
   -0.9066   -4.3205   -0.0309 C   0  0  0  0  0  0  0  0  0  0  0  0
   -1.4534   -3.0483   -0.0128 C   0  0  0  0  0  0  0  0  0  0  0  0
   -3.0573   -2.3797   -0.0183 S   0  0  0  0  0  0  0  0  0  0  0  0
   -5.9641    3.4825    0.2557 H   0  0  0  0  0  0  0  0  0  0  0  0
   -6.8252    1.1877    0.1520 H   0  0  0  0  0  0  0  0  0  0  0  0
   -5.3235   -0.7228    0.0369 H   0  0  0  0  0  0  0  0  0  0  0  0
   -1.9693    1.9341    0.1358 H   0  0  0  0  0  0  0  0  0  0  0  0
    1.0100   -0.0030    0.0238 H   0  0  0  0  0  0  0  0  0  0  0  0
    3.1922    0.9985   -1.8719 H   0  0  0  0  0  0  0  0  0  0  0  0
    4.2101    3.2755   -1.7296 H   0  0  0  0  0  0  0  0  0  0  0  0
    5.1800    4.0821    0.3705 H   0  0  0  0  0  0  0  0  0  0  0  0
    5.1073    2.6108    2.3567 H   0  0  0  0  0  0  0  0  0  0  0  0
    2.3041   -3.5419    0.0628 H   0  0  0  0  0  0  0  0  0  0  0  0
    0.8889   -5.5001   -0.0216 H   0  0  0  0  0  0  0  0  0  0  0  0
   -1.6129   -5.1480   -0.0620 H   0  0  0  0  0  0  0  0  0  0  0  0
  1  2  1  0
  2  3  2  0
  3  4  1  0
  4  5  2  0
  5  6  1  0
  6  7  2  0
  6  8  1  0
  8  9  2  0
  9 10  1  0
 10 11  2  0
 11 12  1  0
 12 13  1  0
 13 14  2  0
 13 15  1  0
 15 16  2  0
 16 17  1  0
 17 18  2  0
 18 19  1  0
 19 20  2  0
 20 21  1  0
 11 22  1  0
 22 23  2  0
 23 24  1  0
 24 25  2  0
 25 26  1  0
  7  2  1  0
 26  8  1  0
 25 10  1  0
 20 15  1  0
  3 27  1  0
  4 28  1  0
  5 29  1  0
  7 30  1  0
 12 31  1  0
 16 32  1  0
 17 33  1  0
 18 34  1  0
 19 35  1  0
 22 36  1  0
 23 37  1  0
 24 38  1  0
M  END
$$$$
[H]OC(=O)c1c([H])c([H])c(-c2c([H])nc([H])c3c2C([H])([H])C([H])([H])C3([H])N([H])C(=O)C([H])([H])[H])c([H])c1[H]
     RDKit          3D

 38 40  0  0  0  0  0  0  0  0999 V2000
   -6.3286    0.1539   -0.1847 C   0  0  0  0  0  0  0  0  0  0  0  0
   -5.0292    0.1624    0.5396 C   0  0  0  0  0  0  0  0  0  0  0  0
   -4.9954    0.0151    1.7969 O   0  0  0  0  0  0  0  0  0  0  0  0
   -3.8102    0.3339   -0.1532 N   0  0  0  0  0  0  0  0  0  0  0  0
   -2.5665    0.3412    0.5480 C   0  0  0  0  0  0  0  0  0  0  0  0
   -1.7592    1.5999    0.2858 C   0  0  0  0  0  0  0  0  0  0  0  0
   -0.3756    1.1466    0.7634 C   0  0  0  0  0  0  0  0  0  0  0  0
   -0.3411   -0.2558    0.2151 C   0  0  0  0  0  0  0  0  0  0  0  0
   -1.6368   -0.7228    0.0910 C   0  0  0  0  0  0  0  0  0  0  0  0
   -1.8895   -1.9857   -0.3904 C   0  0  0  0  0  0  0  0  0  0  0  0
   -0.8429   -2.7572   -0.7384 N   0  0  0  0  0  0  0  0  0  0  0  0
    0.4408   -2.3114   -0.6221 C   0  0  0  0  0  0  0  0  0  0  0  0
    0.7167   -1.0545   -0.1441 C   0  0  0  0  0  0  0  0  0  0  0  0
    2.1131   -0.6252   -0.0390 C   0  0  0  0  0  0  0  0  0  0  0  0
    3.0117   -0.8456   -1.0619 C   0  0  0  0  0  0  0  0  0  0  0  0
    4.3128   -0.4367   -0.9434 C   0  0  0  0  0  0  0  0  0  0  0  0
    4.7530    0.2010    0.1937 C   0  0  0  0  0  0  0  0  0  0  0  0
    3.8526    0.4199    1.2147 C   0  0  0  0  0  0  0  0  0  0  0  0
    2.5436    0.0116    1.1024 C   0  0  0  0  0  0  0  0  0  0  0  0
    6.1458    0.6462    0.3370 C   0  0  0  0  0  0  0  0  0  0  0  0
    6.5412    1.2814    1.4957 O   0  0  0  0  0  0  0  0  0  0  0  0
    6.9662    0.4516   -0.5827 O   0  0  0  0  0  0  0  0  0  0  0  0
   -6.1608   -0.1583   -1.2533 H   0  0  0  0  0  0  0  0  0  0  0  0
   -6.8040    1.1425   -0.2212 H   0  0  0  0  0  0  0  0  0  0  0  0
   -6.9628   -0.6241    0.2784 H   0  0  0  0  0  0  0  0  0  0  0  0
   -3.8319    0.4545   -1.1781 H   0  0  0  0  0  0  0  0  0  0  0  0
   -2.6991    0.2016    1.6407 H   0  0  0  0  0  0  0  0  0  0  0  0
   -2.1216    2.4595    0.8702 H   0  0  0  0  0  0  0  0  0  0  0  0
   -1.6788    1.7762   -0.7905 H   0  0  0  0  0  0  0  0  0  0  0  0
   -0.3924    1.0867    1.8694 H   0  0  0  0  0  0  0  0  0  0  0  0
    0.4134    1.7749    0.3505 H   0  0  0  0  0  0  0  0  0  0  0  0
   -2.9064   -2.3715   -0.4953 H   0  0  0  0  0  0  0  0  0  0  0  0
    1.2515   -2.9610   -0.9120 H   0  0  0  0  0  0  0  0  0  0  0  0
    2.6467   -1.3583   -1.9696 H   0  0  0  0  0  0  0  0  0  0  0  0
    5.0103   -0.6078   -1.7377 H   0  0  0  0  0  0  0  0  0  0  0  0
    4.1813    0.9314    2.1415 H   0  0  0  0  0  0  0  0  0  0  0  0
    1.8353    0.1966    1.9342 H   0  0  0  0  0  0  0  0  0  0  0  0
    6.3969    2.2873    1.5481 H   0  0  0  0  0  0  0  0  0  0  0  0
  1  2  1  0
  2  3  2  0
  2  4  1  0
  4  5  1  0
  5  6  1  0
  6  7  1  0
  7  8  1  0
  8  9  2  0
  9 10  1  0
 10 11  2  0
 11 12  1  0
 12 13  2  0
 13 14  1  0
 14 15  2  0
 15 16  1  0
 16 17  2  0
 17 18  1  0
 18 19  2  0
 17 20  1  0
 20 21  1  0
 20 22  2  0
  9  5  1  0
 19 14  1  0
 13  8  1  0
  1 23  1  0
  1 24  1  0
  1 25  1  0
  4 26  1  0
  5 27  1  0
  6 28  1  0
  6 29  1  0
  7 30  1  0
  7 31  1  0
 10 32  1  0
 12 33  1  0
 15 34  1  0
 16 35  1  0
 18 36  1  0
 19 37  1  0
 21 38  1  0
M  END
$$$$
[H]c1nc([H])c(N([H])C(=O)c2c([H])c([H])c3nc(N([H])C(=O)C4([H])C([H])([H])C4([H])[H])sc3c2[H])c(N2C([H])([H])C([H])([H])C([H])([H])[C@@]([H])(N([H])[H])C2([H])[H])c1[H]
     RDKit          3D

 55 59  0  0  0  0  0  0  0  0999 V2000
    5.8457   -1.8691    2.0883 N   0  0  0  0  0  0  0  0  0  0  0  0
    4.6463   -1.9399    1.2370 C   0  0  2  0  0  0  0  0  0  0  0  0
    4.9532   -2.6449   -0.0365 C   0  0  0  0  0  0  0  0  0  0  0  0
    4.1398   -2.3015   -1.2132 C   0  0  0  0  0  0  0  0  0  0  0  0
    3.1568   -1.1919   -1.0422 C   0  0  0  0  0  0  0  0  0  0  0  0
    3.8465   -0.1585   -0.2527 N   0  0  0  0  0  0  0  0  0  0  0  0
    4.1105   -0.5646    1.1137 C   0  0  0  0  0  0  0  0  0  0  0  0
    4.2156    1.1000   -0.7674 C   0  0  0  0  0  0  0  0  0  0  0  0
    5.5274    1.4371   -0.9947 C   0  0  0  0  0  0  0  0  0  0  0  0
    5.8456    2.6683   -1.5295 C   0  0  0  0  0  0  0  0  0  0  0  0
    4.8992    3.5613   -1.8394 N   0  0  0  0  0  0  0  0  0  0  0  0
    3.5880    3.2581   -1.6255 C   0  0  0  0  0  0  0  0  0  0  0  0
    3.2282    2.0406   -1.0934 C   0  0  0  0  0  0  0  0  0  0  0  0
    1.9014    1.7028   -0.8176 N   0  0  0  0  0  0  0  0  0  0  0  0
    0.7213    2.4008   -1.1352 C   0  0  0  0  0  0  0  0  0  0  0  0
    0.7764    3.4839   -1.7519 O   0  0  0  0  0  0  0  0  0  0  0  0
   -0.6065    1.9295   -0.7806 C   0  0  0  0  0  0  0  0  0  0  0  0
   -1.6935    2.7519   -0.9325 C   0  0  0  0  0  0  0  0  0  0  0  0
   -2.9626    2.3511   -0.6159 C   0  0  0  0  0  0  0  0  0  0  0  0
   -3.2170    1.0641   -0.1145 C   0  0  0  0  0  0  0  0  0  0  0  0
   -4.3808    0.5850    0.2165 N   0  0  0  0  0  0  0  0  0  0  0  0
   -4.4938   -0.6386    0.6759 C   0  0  0  0  0  0  0  0  0  0  0  0
   -5.6749   -1.3552    1.0954 N   0  0  0  0  0  0  0  0  0  0  0  0
   -6.9502   -0.7891    1.0615 C   0  0  0  0  0  0  0  0  0  0  0  0
   -7.0745    0.4091    0.6425 O   0  0  0  0  0  0  0  0  0  0  0  0
   -8.1728   -1.4876    1.4805 C   0  0  0  0  0  0  0  0  0  0  0  0
   -9.3892   -1.2466    0.6779 C   0  0  0  0  0  0  0  0  0  0  0  0
   -9.2853   -0.7731    2.1508 C   0  0  0  0  0  0  0  0  0  0  0  0
   -2.8619   -1.1766    0.6509 S   0  0  0  0  0  0  0  0  0  0  0  0
   -2.1315    0.2424    0.0372 C   0  0  0  0  0  0  0  0  0  0  0  0
   -0.8313    0.6661   -0.2919 C   0  0  0  0  0  0  0  0  0  0  0  0
    5.7342   -1.1563    2.8421 H   0  0  0  0  0  0  0  0  0  0  0  0
    6.0247   -2.7783    2.5671 H   0  0  0  0  0  0  0  0  0  0  0  0
    3.9143   -2.5514    1.8076 H   0  0  0  0  0  0  0  0  0  0  0  0
    4.9408   -3.7537    0.1078 H   0  0  0  0  0  0  0  0  0  0  0  0
    6.0329   -2.4166   -0.2860 H   0  0  0  0  0  0  0  0  0  0  0  0
    4.7709   -2.0358   -2.1129 H   0  0  0  0  0  0  0  0  0  0  0  0
    3.5508   -3.1970   -1.5740 H   0  0  0  0  0  0  0  0  0  0  0  0
    2.2999   -1.5292   -0.4091 H   0  0  0  0  0  0  0  0  0  0  0  0
    2.8628   -0.8017   -2.0169 H   0  0  0  0  0  0  0  0  0  0  0  0
    3.1397   -0.4310    1.6654 H   0  0  0  0  0  0  0  0  0  0  0  0
    4.7859    0.2156    1.5561 H   0  0  0  0  0  0  0  0  0  0  0  0
    6.3414    0.7558   -0.7642 H   0  0  0  0  0  0  0  0  0  0  0  0
    6.8848    2.9506   -1.7161 H   0  0  0  0  0  0  0  0  0  0  0  0
    2.9016    4.0372   -1.8989 H   0  0  0  0  0  0  0  0  0  0  0  0
    1.7067    0.7924   -0.2682 H   0  0  0  0  0  0  0  0  0  0  0  0
   -1.5355    3.7810   -1.3270 H   0  0  0  0  0  0  0  0  0  0  0  0
   -3.7579    3.0759   -0.7718 H   0  0  0  0  0  0  0  0  0  0  0  0
   -5.5409   -2.3298    1.4318 H   0  0  0  0  0  0  0  0  0  0  0  0
   -8.0051   -2.5406    1.8406 H   0  0  0  0  0  0  0  0  0  0  0  0
   -9.4257   -0.4311   -0.0742 H   0  0  0  0  0  0  0  0  0  0  0  0
  -10.0642   -2.1199    0.5111 H   0  0  0  0  0  0  0  0  0  0  0  0
   -9.9052   -1.3084    2.8881 H   0  0  0  0  0  0  0  0  0  0  0  0
   -9.2630    0.3231    2.3033 H   0  0  0  0  0  0  0  0  0  0  0  0
   -0.0699   -0.0655   -0.1317 H   0  0  0  0  0  0  0  0  0  0  0  0
  1  2  1  0
  2  3  1  0
  3  4  1  0
  4  5  1  0
  5  6  1  0
  6  7  1  0
  6  8  1  0
  8  9  2  0
  9 10  1  0
 10 11  2  0
 11 12  1  0
 12 13  2  0
 13 14  1  0
 14 15  1  0
 15 16  2  0
 15 17  1  0
 17 18  2  0
 18 19  1  0
 19 20  2  0
 20 21  1  0
 21 22  2  0
 22 23  1  0
 23 24  1  0
 24 25  2  0
 24 26  1  0
 26 27  1  0
 27 28  1  0
 22 29  1  0
 29 30  1  0
 30 31  2  0
  7  2  1  0
 13  8  1  0
 31 17  1  0
 30 20  1  0
 28 26  1  0
  1 32  1  0
  1 33  1  0
  2 34  1  1
  3 35  1  0
  3 36  1  0
  4 37  1  0
  4 38  1  0
  5 39  1  0
  5 40  1  0
  7 41  1  0
  7 42  1  0
  9 43  1  0
 10 44  1  0
 12 45  1  0
 14 46  1  0
 18 47  1  0
 19 48  1  0
 23 49  1  0
 26 50  1  0
 27 51  1  0
 27 52  1  0
 28 53  1  0
 28 54  1  0
 31 55  1  0
M  END
$$$$
[H]OC([H])(C([H])([H])n1nnc(C(F)(F)F)c1[H])C([H])([H])n1c2nn(C([H])([H])C([H])([H])N(C([H])([H])[H])C([H])([H])[H])c([H])c2c2c([H])c([H])c([H])c([H])c21
     RDKit          3D

 52 55  0  0  0  0  0  0  0  0999 V2000
   -6.2197    2.7183   -1.0481 C   0  0  0  0  0  0  0  0  0  0  0  0
   -5.7511    1.8139    0.0211 N   0  0  0  0  0  0  0  0  0  0  0  0
   -6.7220    0.7143    0.0840 C   0  0  0  0  0  0  0  0  0  0  0  0
   -4.5010    1.1605   -0.4316 C   0  0  0  0  0  0  0  0  0  0  0  0
   -3.9426    0.4756    0.7741 C   0  0  0  0  0  0  0  0  0  0  0  0
   -2.6901   -0.2200    0.4525 N   0  0  0  0  0  0  0  0  0  0  0  0
   -2.5657   -1.5210    0.1080 C   0  0  0  0  0  0  0  0  0  0  0  0
   -1.2212   -1.8082   -0.1584 C   0  0  0  0  0  0  0  0  0  0  0  0
   -0.5726   -0.6157    0.0460 C   0  0  0  0  0  0  0  0  0  0  0  0
   -1.4885    0.2884    0.4045 N   0  0  0  0  0  0  0  0  0  0  0  0
    0.7434   -0.8675   -0.2148 N   0  0  0  0  0  0  0  0  0  0  0  0
    1.7022    0.2065   -0.1726 C   0  0  0  0  0  0  0  0  0  0  0  0
    2.2452    0.4528    1.2150 C   0  0  0  0  0  0  0  0  0  0  0  0
    2.9319   -0.6102    1.7469 O   0  0  0  0  0  0  0  0  0  0  0  0
    2.9219    1.7852    1.2795 C   0  0  0  0  0  0  0  0  0  0  0  0
    4.0341    1.9056    0.3602 N   0  0  0  0  0  0  0  0  0  0  0  0
    5.3212    1.6174    0.6610 C   0  0  0  0  0  0  0  0  0  0  0  0
    6.0636    1.8575   -0.4796 C   0  0  0  0  0  0  0  0  0  0  0  0
    5.1954    2.2739   -1.4064 N   0  0  0  0  0  0  0  0  0  0  0  0
    3.9798    2.3072   -0.9159 N   0  0  0  0  0  0  0  0  0  0  0  0
    7.5519    1.6987   -0.6566 C   0  0  0  0  0  0  0  0  0  0  0  0
    8.0062    0.5134   -0.1105 F   0  0  0  0  0  0  0  0  0  0  0  0
    8.1026    2.8090   -0.0390 F   0  0  0  0  0  0  0  0  0  0  0  0
    7.7970    1.6730   -2.0136 F   0  0  0  0  0  0  0  0  0  0  0  0
    0.9367   -2.1553   -0.5638 C   0  0  0  0  0  0  0  0  0  0  0  0
    2.0644   -2.8845   -0.9220 C   0  0  0  0  0  0  0  0  0  0  0  0
    1.9959   -4.2083   -1.2484 C   0  0  0  0  0  0  0  0  0  0  0  0
    0.7421   -4.8246   -1.2151 C   0  0  0  0  0  0  0  0  0  0  0  0
   -0.3572   -4.0948   -0.8629 C   0  0  0  0  0  0  0  0  0  0  0  0
   -0.3068   -2.7580   -0.5307 C   0  0  0  0  0  0  0  0  0  0  0  0
   -5.3654    3.0103   -1.6765 H   0  0  0  0  0  0  0  0  0  0  0  0
   -6.5682    3.6379   -0.4775 H   0  0  0  0  0  0  0  0  0  0  0  0
   -7.0852    2.2992   -1.5675 H   0  0  0  0  0  0  0  0  0  0  0  0
   -6.4300   -0.1569   -0.5040 H   0  0  0  0  0  0  0  0  0  0  0  0
   -7.7061    1.0384   -0.3083 H   0  0  0  0  0  0  0  0  0  0  0  0
   -6.8528    0.3951    1.1415 H   0  0  0  0  0  0  0  0  0  0  0  0
   -3.8396    1.8849   -0.9218 H   0  0  0  0  0  0  0  0  0  0  0  0
   -4.8328    0.4382   -1.2004 H   0  0  0  0  0  0  0  0  0  0  0  0
   -4.7000   -0.1664    1.2029 H   0  0  0  0  0  0  0  0  0  0  0  0
   -3.6529    1.2043    1.5682 H   0  0  0  0  0  0  0  0  0  0  0  0
   -3.3412   -2.2729    0.0370 H   0  0  0  0  0  0  0  0  0  0  0  0
    2.5947   -0.1429   -0.7747 H   0  0  0  0  0  0  0  0  0  0  0  0
    1.3237    1.1395   -0.6374 H   0  0  0  0  0  0  0  0  0  0  0  0
    1.3323    0.5730    1.9231 H   0  0  0  0  0  0  0  0  0  0  0  0
    2.6994   -0.8019    2.6878 H   0  0  0  0  0  0  0  0  0  0  0  0
    2.1605    2.5492    0.9435 H   0  0  0  0  0  0  0  0  0  0  0  0
    3.3133    2.0305    2.2838 H   0  0  0  0  0  0  0  0  0  0  0  0
    5.7070    1.2702    1.6023 H   0  0  0  0  0  0  0  0  0  0  0  0
    3.0278   -2.3846   -0.9332 H   0  0  0  0  0  0  0  0  0  0  0  0
    2.8810   -4.8116   -1.5328 H   0  0  0  0  0  0  0  0  0  0  0  0
    0.6914   -5.8656   -1.4801 H   0  0  0  0  0  0  0  0  0  0  0  0
   -1.3540   -4.5708   -0.8343 H   0  0  0  0  0  0  0  0  0  0  0  0
  1  2  1  0
  2  3  1  0
  2  4  1  0
  4  5  1  0
  5  6  1  0
  6  7  1  0
  7  8  2  0
  8  9  1  0
  9 10  2  0
  9 11  1  0
 11 12  1  0
 12 13  1  0
 13 14  1  0
 13 15  1  0
 15 16  1  0
 16 17  1  0
 17 18  2  0
 18 19  1  0
 19 20  2  0
 18 21  1  0
 21 22  1  0
 21 23  1  0
 21 24  1  0
 11 25  1  0
 25 26  2  0
 26 27  1  0
 27 28  2  0
 28 29  1  0
 29 30  2  0
 10  6  1  0
 20 16  1  0
 30 25  1  0
 30  8  1  0
  1 31  1  0
  1 32  1  0
  1 33  1  0
  3 34  1  0
  3 35  1  0
  3 36  1  0
  4 37  1  0
  4 38  1  0
  5 39  1  0
  5 40  1  0
  7 41  1  0
 12 42  1  0
 12 43  1  0
 13 44  1  0
 14 45  1  0
 15 46  1  0
 15 47  1  0
 17 48  1  0
 26 49  1  0
 27 50  1  0
 28 51  1  0
 29 52  1  0
M  END
$$$$
[H]OC([H])([H])C([H])([H])N([H])c1nc(-c2c([H])c(N3C([H])([H])C([H])([H])OC([H])([H])C3([H])[H])c(=O)n(C([H])([H])[H])c2[H])c([H])c(-c2c(C([H])([H])[H])c([H])c([H])c([H])c2C([H])([H])[H])c1[H]
     RDKit          3D

 62 65  0  0  0  0  0  0  0  0999 V2000
   -3.9803   -0.6225   -2.5861 C   0  0  0  0  0  0  0  0  0  0  0  0
   -4.3958   -1.4779   -1.4385 C   0  0  0  0  0  0  0  0  0  0  0  0
   -5.4589   -2.3387   -1.5771 C   0  0  0  0  0  0  0  0  0  0  0  0
   -5.8196   -3.1168   -0.5015 C   0  0  0  0  0  0  0  0  0  0  0  0
   -5.1392   -3.0458    0.6949 C   0  0  0  0  0  0  0  0  0  0  0  0
   -4.0794   -2.1759    0.8050 C   0  0  0  0  0  0  0  0  0  0  0  0
   -3.3303   -2.0805    2.0779 C   0  0  0  0  0  0  0  0  0  0  0  0
   -3.6829   -1.3693   -0.2638 C   0  0  0  0  0  0  0  0  0  0  0  0
   -2.5514   -0.4704   -0.0786 C   0  0  0  0  0  0  0  0  0  0  0  0
   -2.6816    0.8689    0.1937 C   0  0  0  0  0  0  0  0  0  0  0  0
   -1.5550    1.6650    0.3607 C   0  0  0  0  0  0  0  0  0  0  0  0
   -1.7258    3.0427    0.6341 N   0  0  0  0  0  0  0  0  0  0  0  0
   -3.0420    3.6133    0.7231 C   0  0  0  0  0  0  0  0  0  0  0  0
   -3.0295    5.0805    1.0101 C   0  0  0  0  0  0  0  0  0  0  0  0
   -4.3724    5.5180    1.0701 O   0  0  0  0  0  0  0  0  0  0  0  0
   -0.3310    1.1219    0.2550 N   0  0  0  0  0  0  0  0  0  0  0  0
   -0.1491   -0.1951   -0.0130 C   0  0  0  0  0  0  0  0  0  0  0  0
   -1.2410   -0.9681   -0.1751 C   0  0  0  0  0  0  0  0  0  0  0  0
    1.1950   -0.7566   -0.1271 C   0  0  0  0  0  0  0  0  0  0  0  0
    2.3136    0.0768    0.0516 C   0  0  0  0  0  0  0  0  0  0  0  0
    3.5963   -0.4071   -0.0514 C   0  0  0  0  0  0  0  0  0  0  0  0
    4.7474    0.3957    0.1231 N   0  0  0  0  0  0  0  0  0  0  0  0
    5.6599    0.0836    1.1950 C   0  0  0  0  0  0  0  0  0  0  0  0
    7.0292    0.7182    0.9502 C   0  0  0  0  0  0  0  0  0  0  0  0
    6.7920    2.0499    0.6681 O   0  0  0  0  0  0  0  0  0  0  0  0
    6.3061    2.1325   -0.6326 C   0  0  0  0  0  0  0  0  0  0  0  0
    4.9464    1.4948   -0.7954 C   0  0  0  0  0  0  0  0  0  0  0  0
    3.7490   -1.7625   -0.3415 C   0  0  0  0  0  0  0  0  0  0  0  0
    4.8916   -2.2771   -0.4509 O   0  0  0  0  0  0  0  0  0  0  0  0
    2.7024   -2.5685   -0.5144 N   0  0  0  0  0  0  0  0  0  0  0  0
    2.8451   -3.9730   -0.8176 C   0  0  0  0  0  0  0  0  0  0  0  0
    1.4640   -2.0566   -0.4051 C   0  0  0  0  0  0  0  0  0  0  0  0
   -4.6272    0.2958   -2.5815 H   0  0  0  0  0  0  0  0  0  0  0  0
   -4.2035   -1.1474   -3.5514 H   0  0  0  0  0  0  0  0  0  0  0  0
   -2.9070   -0.3782   -2.5603 H   0  0  0  0  0  0  0  0  0  0  0  0
   -6.0170   -2.4194   -2.5064 H   0  0  0  0  0  0  0  0  0  0  0  0
   -6.6477   -3.8064   -0.5633 H   0  0  0  0  0  0  0  0  0  0  0  0
   -5.4451   -3.6695    1.5229 H   0  0  0  0  0  0  0  0  0  0  0  0
   -2.5292   -2.8566    2.0976 H   0  0  0  0  0  0  0  0  0  0  0  0
   -4.0356   -2.2419    2.9263 H   0  0  0  0  0  0  0  0  0  0  0  0
   -2.8907   -1.0593    2.2394 H   0  0  0  0  0  0  0  0  0  0  0  0
   -3.6839    1.2681    0.2711 H   0  0  0  0  0  0  0  0  0  0  0  0
   -0.8893    3.6331    0.7699 H   0  0  0  0  0  0  0  0  0  0  0  0
   -3.5855    3.4497   -0.2464 H   0  0  0  0  0  0  0  0  0  0  0  0
   -3.5792    3.0914    1.5498 H   0  0  0  0  0  0  0  0  0  0  0  0
   -2.5416    5.6804    0.2228 H   0  0  0  0  0  0  0  0  0  0  0  0
   -2.6094    5.2857    2.0269 H   0  0  0  0  0  0  0  0  0  0  0  0
   -4.3564    6.5105    1.0476 H   0  0  0  0  0  0  0  0  0  0  0  0
   -1.1747   -2.0185   -0.3896 H   0  0  0  0  0  0  0  0  0  0  0  0
    2.1638    1.1123    0.2732 H   0  0  0  0  0  0  0  0  0  0  0  0
    5.2687    0.6291    2.1049 H   0  0  0  0  0  0  0  0  0  0  0  0
    5.8045   -0.9723    1.4039 H   0  0  0  0  0  0  0  0  0  0  0  0
    7.5597    0.1762    0.1364 H   0  0  0  0  0  0  0  0  0  0  0  0
    7.6122    0.5763    1.8873 H   0  0  0  0  0  0  0  0  0  0  0  0
    6.2062    3.2180   -0.8823 H   0  0  0  0  0  0  0  0  0  0  0  0
    7.0619    1.7192   -1.3291 H   0  0  0  0  0  0  0  0  0  0  0  0
    4.8710    1.1525   -1.8497 H   0  0  0  0  0  0  0  0  0  0  0  0
    4.1541    2.2663   -0.6628 H   0  0  0  0  0  0  0  0  0  0  0  0
    3.3472   -4.0133   -1.8289 H   0  0  0  0  0  0  0  0  0  0  0  0
    1.8741   -4.4540   -0.9550 H   0  0  0  0  0  0  0  0  0  0  0  0
    3.4921   -4.4842   -0.0640 H   0  0  0  0  0  0  0  0  0  0  0  0
    0.6346   -2.7432   -0.5525 H   0  0  0  0  0  0  0  0  0  0  0  0
  1  2  1  0
  2  3  2  0
  3  4  1  0
  4  5  2  0
  5  6  1  0
  6  7  1  0
  6  8  2  0
  8  9  1  0
  9 10  2  0
 10 11  1  0
 11 12  1  0
 12 13  1  0
 13 14  1  0
 14 15  1  0
 11 16  2  0
 16 17  1  0
 17 18  2  0
 17 19  1  0
 19 20  1  0
 20 21  2  0
 21 22  1  0
 22 23  1  0
 23 24  1  0
 24 25  1  0
 25 26  1  0
 26 27  1  0
 21 28  1  0
 28 29  2  0
 28 30  1  0
 30 31  1  0
 30 32  1  0
  8  2  1  0
 18  9  1  0
 32 19  2  0
 27 22  1  0
  1 33  1  0
  1 34  1  0
  1 35  1  0
  3 36  1  0
  4 37  1  0
  5 38  1  0
  7 39  1  0
  7 40  1  0
  7 41  1  0
 10 42  1  0
 12 43  1  0
 13 44  1  0
 13 45  1  0
 14 46  1  0
 14 47  1  0
 15 48  1  0
 18 49  1  0
 20 50  1  0
 23 51  1  0
 23 52  1  0
 24 53  1  0
 24 54  1  0
 26 55  1  0
 26 56  1  0
 27 57  1  0
 27 58  1  0
 31 59  1  0
 31 60  1  0
 31 61  1  0
 32 62  1  0
M  END
$$$$
[H]C1=C([H])S(=O)(=O)Oc2c([H])c([H])c(C([H])([H])C([H])([H])[H])c([H])c21
     RDKit          3D

 24 25  0  0  0  0  0  0  0  0999 V2000
   -3.4898    0.6973   -0.4941 C   0  0  0  0  0  0  0  0  0  0  0  0
   -2.8670   -0.3972    0.3668 C   0  0  0  0  0  0  0  0  0  0  0  0
   -1.4087   -0.4753    0.0629 C   0  0  0  0  0  0  0  0  0  0  0  0
   -0.9890   -1.3268   -0.9465 C   0  0  0  0  0  0  0  0  0  0  0  0
    0.3493   -1.4039   -1.2315 C   0  0  0  0  0  0  0  0  0  0  0  0
    1.2943   -0.6463   -0.5296 C   0  0  0  0  0  0  0  0  0  0  0  0
    2.6076   -0.8207   -0.9189 O   0  0  0  0  0  0  0  0  0  0  0  0
    3.8297    0.0442   -0.1389 S   0  0  0  0  0  0  0  0  0  0  0  0
    4.5471    0.8837   -1.1703 O   0  0  0  0  0  0  0  0  0  0  0  0
    4.7900   -0.8795    0.5611 O   0  0  0  0  0  0  0  0  0  0  0  0
    3.1104    1.0506    1.0875 C   0  0  0  0  0  0  0  0  0  0  0  0
    1.8050    1.0177    1.2451 C   0  0  0  0  0  0  0  0  0  0  0  0
    0.8925    0.1970    0.4682 C   0  0  0  0  0  0  0  0  0  0  0  0
   -0.4714    0.2634    0.7450 C   0  0  0  0  0  0  0  0  0  0  0  0
   -3.8487    1.5452    0.1436 H   0  0  0  0  0  0  0  0  0  0  0  0
   -4.2850    0.3103   -1.1502 H   0  0  0  0  0  0  0  0  0  0  0  0
   -2.7151    1.1371   -1.1573 H   0  0  0  0  0  0  0  0  0  0  0  0
   -3.3780   -1.3494    0.0771 H   0  0  0  0  0  0  0  0  0  0  0  0
   -3.0337   -0.1670    1.4437 H   0  0  0  0  0  0  0  0  0  0  0  0
   -1.7231   -1.9166   -1.4933 H   0  0  0  0  0  0  0  0  0  0  0  0
    0.6663   -2.0694   -2.0188 H   0  0  0  0  0  0  0  0  0  0  0  0
    3.7170    1.7013    1.7209 H   0  0  0  0  0  0  0  0  0  0  0  0
    1.4258    1.6849    2.0436 H   0  0  0  0  0  0  0  0  0  0  0  0
   -0.8254    0.9195    1.5274 H   0  0  0  0  0  0  0  0  0  0  0  0
  1  2  1  0
  2  3  1  0
  3  4  2  0
  4  5  1  0
  5  6  2  0
  6  7  1  0
  7  8  1  0
  8  9  2  0
  8 10  2  0
  8 11  1  0
 11 12  2  0
 12 13  1  0
 13 14  2  0
 14  3  1  0
 13  6  1  0
  1 15  1  0
  1 16  1  0
  1 17  1  0
  2 18  1  0
  2 19  1  0
  4 20  1  0
  5 21  1  0
 11 22  1  0
 12 23  1  0
 14 24  1  0
M  END
$$$$
[H]c1c([H])c(S(=O)(=O)C(C([H])([H])[H])(C([H])([H])[H])C([H])([H])[H])c([H])c([H])c1Oc1c([H])c([H])c(S(=O)(=O)C2([H])C([H])([H])C([H])([H])OC([H])([H])C2([H])[H])c([H])c1Cl
     RDKit          3D

 55 57  0  0  0  0  0  0  0  0999 V2000
   -6.6376    1.0774   -1.3746 C   0  0  0  0  0  0  0  0  0  0  0  0
   -6.6102    0.0849   -0.2385 C   0  0  0  0  0  0  0  0  0  0  0  0
   -6.1521   -1.2786   -0.7448 C   0  0  0  0  0  0  0  0  0  0  0  0
   -8.0137   -0.0927    0.3040 C   0  0  0  0  0  0  0  0  0  0  0  0
   -5.5840    0.6103    1.1008 S   0  0  0  0  0  0  0  0  0  0  0  0
   -5.7118   -0.4040    2.2010 O   0  0  0  0  0  0  0  0  0  0  0  0
   -6.1788    1.9005    1.6436 O   0  0  0  0  0  0  0  0  0  0  0  0
   -3.9271    0.8424    0.6195 C   0  0  0  0  0  0  0  0  0  0  0  0
   -3.0142   -0.1878    0.6848 C   0  0  0  0  0  0  0  0  0  0  0  0
   -1.6891   -0.0085    0.3017 C   0  0  0  0  0  0  0  0  0  0  0  0
   -1.2164    1.1986   -0.1607 C   0  0  0  0  0  0  0  0  0  0  0  0
    0.0983    1.4135   -0.5491 O   0  0  0  0  0  0  0  0  0  0  0  0
    1.1437    0.5515   -0.4003 C   0  0  0  0  0  0  0  0  0  0  0  0
    1.7681    0.0786   -1.5442 C   0  0  0  0  0  0  0  0  0  0  0  0
    2.8192   -0.7867   -1.3934 C   0  0  0  0  0  0  0  0  0  0  0  0
    3.2655   -1.1930   -0.1565 C   0  0  0  0  0  0  0  0  0  0  0  0
    2.6271   -0.7075    0.9653 C   0  0  0  0  0  0  0  0  0  0  0  0
    1.5662    0.1650    0.8469 C   0  0  0  0  0  0  0  0  0  0  0  0
    0.8393    0.7435    2.3171 Cl  0  0  0  0  0  0  0  0  0  0  0  0
    4.6256   -2.3115    0.0053 S   0  0  0  0  0  0  0  0  0  0  0  0
    4.4200   -3.0819    1.2618 O   0  0  0  0  0  0  0  0  0  0  0  0
    4.6722   -3.1798   -1.2143 O   0  0  0  0  0  0  0  0  0  0  0  0
    6.1371   -1.3831    0.1091 C   0  0  0  0  0  0  0  0  0  0  0  0
    6.3453   -0.5257   -1.1092 C   0  0  0  0  0  0  0  0  0  0  0  0
    6.1933    0.9439   -0.7567 C   0  0  0  0  0  0  0  0  0  0  0  0
    7.1862    1.3461    0.1394 O   0  0  0  0  0  0  0  0  0  0  0  0
    7.3602    0.4432    1.1786 C   0  0  0  0  0  0  0  0  0  0  0  0
    6.1739   -0.5010    1.3225 C   0  0  0  0  0  0  0  0  0  0  0  0
   -2.1479    2.2420   -0.2253 C   0  0  0  0  0  0  0  0  0  0  0  0
   -3.4578    2.0541    0.1562 C   0  0  0  0  0  0  0  0  0  0  0  0
   -7.5336    0.8810   -1.9990 H   0  0  0  0  0  0  0  0  0  0  0  0
   -6.6666    2.0937   -0.9251 H   0  0  0  0  0  0  0  0  0  0  0  0
   -5.7052    0.9502   -1.9773 H   0  0  0  0  0  0  0  0  0  0  0  0
   -7.0308   -1.9105   -1.0118 H   0  0  0  0  0  0  0  0  0  0  0  0
   -5.5180   -1.0919   -1.6211 H   0  0  0  0  0  0  0  0  0  0  0  0
   -5.5907   -1.8176    0.0292 H   0  0  0  0  0  0  0  0  0  0  0  0
   -8.2953   -1.1600    0.4099 H   0  0  0  0  0  0  0  0  0  0  0  0
   -8.7658    0.4380   -0.3427 H   0  0  0  0  0  0  0  0  0  0  0  0
   -8.1310    0.3584    1.3151 H   0  0  0  0  0  0  0  0  0  0  0  0
   -3.3580   -1.1433    1.0435 H   0  0  0  0  0  0  0  0  0  0  0  0
   -0.9955   -0.8423    0.3558 H   0  0  0  0  0  0  0  0  0  0  0  0
    1.4048    0.4084   -2.5215 H   0  0  0  0  0  0  0  0  0  0  0  0
    3.3244   -1.1709   -2.2793 H   0  0  0  0  0  0  0  0  0  0  0  0
    2.9738   -1.0242    1.9538 H   0  0  0  0  0  0  0  0  0  0  0  0
    6.9593   -2.1359    0.2101 H   0  0  0  0  0  0  0  0  0  0  0  0
    5.6633   -0.7798   -1.9190 H   0  0  0  0  0  0  0  0  0  0  0  0
    7.4014   -0.6398   -1.4659 H   0  0  0  0  0  0  0  0  0  0  0  0
    6.3545    1.5155   -1.6965 H   0  0  0  0  0  0  0  0  0  0  0  0
    5.1808    1.1984   -0.4079 H   0  0  0  0  0  0  0  0  0  0  0  0
    7.4988    0.9292    2.1646 H   0  0  0  0  0  0  0  0  0  0  0  0
    8.2544   -0.1836    0.9944 H   0  0  0  0  0  0  0  0  0  0  0  0
    5.2715    0.1309    1.4241 H   0  0  0  0  0  0  0  0  0  0  0  0
    6.3697   -1.1249    2.2155 H   0  0  0  0  0  0  0  0  0  0  0  0
   -1.7827    3.1944   -0.5885 H   0  0  0  0  0  0  0  0  0  0  0  0
   -4.1841    2.8731    0.1043 H   0  0  0  0  0  0  0  0  0  0  0  0
  1  2  1  0
  2  3  1  0
  2  4  1  0
  2  5  1  0
  5  6  2  0
  5  7  2  0
  5  8  1  0
  8  9  2  0
  9 10  1  0
 10 11  2  0
 11 12  1  0
 12 13  1  0
 13 14  2  0
 14 15  1  0
 15 16  2  0
 16 17  1  0
 17 18  2  0
 18 19  1  0
 16 20  1  0
 20 21  2  0
 20 22  2  0
 20 23  1  0
 23 24  1  0
 24 25  1  0
 25 26  1  0
 26 27  1  0
 27 28  1  0
 11 29  1  0
 29 30  2  0
 30  8  1  0
 18 13  1  0
 28 23  1  0
  1 31  1  0
  1 32  1  0
  1 33  1  0
  3 34  1  0
  3 35  1  0
  3 36  1  0
  4 37  1  0
  4 38  1  0
  4 39  1  0
  9 40  1  0
 10 41  1  0
 14 42  1  0
 15 43  1  0
 17 44  1  0
 23 45  1  0
 24 46  1  0
 24 47  1  0
 25 48  1  0
 25 49  1  0
 27 50  1  0
 27 51  1  0
 28 52  1  0
 28 53  1  0
 29 54  1  0
 30 55  1  0
M  END
$$$$
[H]c1c([H])c([H])c(C([H])([H])N2C([H])([H])C([H])([H])C([H])(N([H])C(=O)c3c([H])n([H])c4c([H])c(Cl)c([H])c([H])c34)C([H])([H])C2([H])[H])c([H])c1[H]
     RDKit          3D

 48 51  0  0  0  0  0  0  0  0999 V2000
    8.9376    1.4937    1.8934 Cl  0  0  0  0  0  0  0  0  0  0  0  0
    7.4092    0.9987    1.1862 C   0  0  0  0  0  0  0  0  0  0  0  0
    6.2428    1.6709    1.4894 C   0  0  0  0  0  0  0  0  0  0  0  0
    5.0461    1.2759    0.9298 C   0  0  0  0  0  0  0  0  0  0  0  0
    4.9484    0.2117    0.0558 C   0  0  0  0  0  0  0  0  0  0  0  0
    3.8715   -0.3574   -0.6193 C   0  0  0  0  0  0  0  0  0  0  0  0
    4.4343   -1.4027   -1.3444 C   0  0  0  0  0  0  0  0  0  0  0  0
    5.7569   -1.4357   -1.1028 N   0  0  0  0  0  0  0  0  0  0  0  0
    6.1137   -0.4607   -0.2478 C   0  0  0  0  0  0  0  0  0  0  0  0
    7.3152   -0.0651    0.3132 C   0  0  0  0  0  0  0  0  0  0  0  0
    2.4706    0.0498   -0.5763 C   0  0  0  0  0  0  0  0  0  0  0  0
    2.2400    1.2821   -0.5047 O   0  0  0  0  0  0  0  0  0  0  0  0
    1.3915   -0.8479   -0.6103 N   0  0  0  0  0  0  0  0  0  0  0  0
    0.0390   -0.3692   -0.5643 C   0  0  0  0  0  0  0  0  0  0  0  0
   -0.6556   -0.8514    0.7016 C   0  0  0  0  0  0  0  0  0  0  0  0
   -2.0348   -0.2511    0.7355 C   0  0  0  0  0  0  0  0  0  0  0  0
   -2.4310    0.3991   -0.4380 N   0  0  0  0  0  0  0  0  0  0  0  0
   -3.4067    1.3917   -0.3803 C   0  0  0  0  0  0  0  0  0  0  0  0
   -4.6743    0.8119    0.1638 C   0  0  0  0  0  0  0  0  0  0  0  0
   -4.9701    0.8015    1.5107 C   0  0  0  0  0  0  0  0  0  0  0  0
   -6.1450    0.2621    1.9959 C   0  0  0  0  0  0  0  0  0  0  0  0
   -7.0758   -0.2938    1.1242 C   0  0  0  0  0  0  0  0  0  0  0  0
   -6.7845   -0.2859   -0.2247 C   0  0  0  0  0  0  0  0  0  0  0  0
   -5.5987    0.2603   -0.6966 C   0  0  0  0  0  0  0  0  0  0  0  0
   -2.1288   -0.1977   -1.6779 C   0  0  0  0  0  0  0  0  0  0  0  0
   -0.7894   -0.8784   -1.7236 C   0  0  0  0  0  0  0  0  0  0  0  0
    6.2891    2.5141    2.1758 H   0  0  0  0  0  0  0  0  0  0  0  0
    4.1025    1.7925    1.1532 H   0  0  0  0  0  0  0  0  0  0  0  0
    3.8467   -2.0539   -1.9862 H   0  0  0  0  0  0  0  0  0  0  0  0
    6.4441   -2.1089   -1.5039 H   0  0  0  0  0  0  0  0  0  0  0  0
    8.2288   -0.5943    0.0738 H   0  0  0  0  0  0  0  0  0  0  0  0
    1.5630   -1.8649   -0.6691 H   0  0  0  0  0  0  0  0  0  0  0  0
    0.0475    0.7307   -0.5031 H   0  0  0  0  0  0  0  0  0  0  0  0
   -0.7101   -1.9577    0.6917 H   0  0  0  0  0  0  0  0  0  0  0  0
   -0.0260   -0.5325    1.5770 H   0  0  0  0  0  0  0  0  0  0  0  0
   -2.0390    0.4818    1.5895 H   0  0  0  0  0  0  0  0  0  0  0  0
   -2.7920   -1.0154    1.0187 H   0  0  0  0  0  0  0  0  0  0  0  0
   -3.5560    1.8475   -1.3714 H   0  0  0  0  0  0  0  0  0  0  0  0
   -3.1672    2.2532    0.3086 H   0  0  0  0  0  0  0  0  0  0  0  0
   -4.2434    1.2375    2.2099 H   0  0  0  0  0  0  0  0  0  0  0  0
   -6.3848    0.2516    3.0674 H   0  0  0  0  0  0  0  0  0  0  0  0
   -7.9758   -0.7020    1.5443 H   0  0  0  0  0  0  0  0  0  0  0  0
   -7.5211   -0.7229   -0.8865 H   0  0  0  0  0  0  0  0  0  0  0  0
   -5.3759    0.2620   -1.7705 H   0  0  0  0  0  0  0  0  0  0  0  0
   -2.9147   -0.9472   -1.9214 H   0  0  0  0  0  0  0  0  0  0  0  0
   -2.1480    0.5969   -2.4766 H   0  0  0  0  0  0  0  0  0  0  0  0
   -0.2985   -0.7041   -2.7007 H   0  0  0  0  0  0  0  0  0  0  0  0
   -0.8915   -1.9763   -1.5965 H   0  0  0  0  0  0  0  0  0  0  0  0
  1  2  1  0
  2  3  2  0
  3  4  1  0
  4  5  2  0
  5  6  1  0
  6  7  2  0
  7  8  1  0
  8  9  1  0
  9 10  2  0
  6 11  1  0
 11 12  2  0
 11 13  1  0
 13 14  1  0
 14 15  1  0
 15 16  1  0
 16 17  1  0
 17 18  1  0
 18 19  1  0
 19 20  2  0
 20 21  1  0
 21 22  2  0
 22 23  1  0
 23 24  2  0
 17 25  1  0
 25 26  1  0
 10  2  1  0
 26 14  1  0
  9  5  1  0
 24 19  1  0
  3 27  1  0
  4 28  1  0
  7 29  1  0
  8 30  1  0
 10 31  1  0
 13 32  1  0
 14 33  1  0
 15 34  1  0
 15 35  1  0
 16 36  1  0
 16 37  1  0
 18 38  1  0
 18 39  1  0
 20 40  1  0
 21 41  1  0
 22 42  1  0
 23 43  1  0
 24 44  1  0
 25 45  1  0
 25 46  1  0
 26 47  1  0
 26 48  1  0
M  END
$$$$
[H]c1nc([H])c(N2C([H])([H])C([H])([H])OC([H])([H])C2([H])[H])nc1-c1c(C([H])([H])[H])nc([H])c(N([H])C(=O)c2c([H])c([H])nc(C(F)(C([H])([H])[H])C([H])([H])[H])c2[H])c1[H]
     RDKit          3D

 57 60  0  0  0  0  0  0  0  0999 V2000
   -2.6684    1.8378   -1.4993 C   0  0  0  0  0  0  0  0  0  0  0  0
   -1.4165    1.3186   -0.9451 C   0  0  0  0  0  0  0  0  0  0  0  0
   -0.2642    1.8503   -1.4198 N   0  0  0  0  0  0  0  0  0  0  0  0
    0.9439    1.4042   -0.9741 C   0  0  0  0  0  0  0  0  0  0  0  0
    1.0154    0.4117   -0.0408 C   0  0  0  0  0  0  0  0  0  0  0  0
    2.2388   -0.1319    0.4252 N   0  0  0  0  0  0  0  0  0  0  0  0
    3.4982   -0.0788   -0.1556 C   0  0  0  0  0  0  0  0  0  0  0  0
    3.6724    0.5129   -1.2589 O   0  0  0  0  0  0  0  0  0  0  0  0
    4.6831   -0.6871    0.4504 C   0  0  0  0  0  0  0  0  0  0  0  0
    4.5494   -1.6617    1.4028 C   0  0  0  0  0  0  0  0  0  0  0  0
    5.6662   -2.2139    1.9696 C   0  0  0  0  0  0  0  0  0  0  0  0
    6.8950   -1.7929    1.5850 N   0  0  0  0  0  0  0  0  0  0  0  0
    7.0265   -0.8307    0.6456 C   0  0  0  0  0  0  0  0  0  0  0  0
    5.9363   -0.2446    0.0459 C   0  0  0  0  0  0  0  0  0  0  0  0
    8.3848   -0.3999    0.2642 C   0  0  0  0  0  0  0  0  0  0  0  0
    8.5811   -0.6201   -1.2190 C   0  0  0  0  0  0  0  0  0  0  0  0
    8.4992    1.0790    0.5921 C   0  0  0  0  0  0  0  0  0  0  0  0
    9.3214   -1.0666    1.0093 F   0  0  0  0  0  0  0  0  0  0  0  0
   -0.1994   -0.1326    0.4466 C   0  0  0  0  0  0  0  0  0  0  0  0
   -1.4094    0.3156   -0.0005 C   0  0  0  0  0  0  0  0  0  0  0  0
   -2.6373   -0.2995    0.5389 C   0  0  0  0  0  0  0  0  0  0  0  0
   -2.6045   -1.3037    1.4685 C   0  0  0  0  0  0  0  0  0  0  0  0
   -3.7728   -1.8392    1.9122 N   0  0  0  0  0  0  0  0  0  0  0  0
   -4.9466   -1.4003    1.4560 C   0  0  0  0  0  0  0  0  0  0  0  0
   -5.0191   -0.3770    0.5080 C   0  0  0  0  0  0  0  0  0  0  0  0
   -3.8598    0.1201    0.0994 N   0  0  0  0  0  0  0  0  0  0  0  0
   -6.2376    0.0718   -0.0077 N   0  0  0  0  0  0  0  0  0  0  0  0
   -7.4199   -0.7643    0.2235 C   0  0  0  0  0  0  0  0  0  0  0  0
   -8.4218   -0.5961   -0.8919 C   0  0  0  0  0  0  0  0  0  0  0  0
   -8.8186    0.7212   -1.0574 O   0  0  0  0  0  0  0  0  0  0  0  0
   -7.9364    1.6453   -0.5703 C   0  0  0  0  0  0  0  0  0  0  0  0
   -6.4765    1.2855   -0.7517 C   0  0  0  0  0  0  0  0  0  0  0  0
   -2.4007    2.5490   -2.3475 H   0  0  0  0  0  0  0  0  0  0  0  0
   -3.2950    2.3827   -0.8003 H   0  0  0  0  0  0  0  0  0  0  0  0
   -3.1746    1.0019   -2.0502 H   0  0  0  0  0  0  0  0  0  0  0  0
    1.8519    1.8662   -1.3636 H   0  0  0  0  0  0  0  0  0  0  0  0
    2.1815   -0.6566    1.3560 H   0  0  0  0  0  0  0  0  0  0  0  0
    3.5765   -2.0465    1.7525 H   0  0  0  0  0  0  0  0  0  0  0  0
    5.5557   -2.9877    2.7270 H   0  0  0  0  0  0  0  0  0  0  0  0
    6.0294    0.5261   -0.7084 H   0  0  0  0  0  0  0  0  0  0  0  0
    7.7264   -1.1329   -1.6850 H   0  0  0  0  0  0  0  0  0  0  0  0
    9.4666   -1.2817   -1.3984 H   0  0  0  0  0  0  0  0  0  0  0  0
    8.6964    0.3643   -1.7040 H   0  0  0  0  0  0  0  0  0  0  0  0
    8.3008    1.6487   -0.3397 H   0  0  0  0  0  0  0  0  0  0  0  0
    9.5058    1.3396    0.9756 H   0  0  0  0  0  0  0  0  0  0  0  0
    7.6975    1.4063    1.3128 H   0  0  0  0  0  0  0  0  0  0  0  0
   -0.1166   -0.9132    1.1825 H   0  0  0  0  0  0  0  0  0  0  0  0
   -1.6775   -1.6754    1.8536 H   0  0  0  0  0  0  0  0  0  0  0  0
   -5.9012   -1.7994    1.7872 H   0  0  0  0  0  0  0  0  0  0  0  0
   -7.1212   -1.8533    0.1772 H   0  0  0  0  0  0  0  0  0  0  0  0
   -7.8784   -0.4812    1.1699 H   0  0  0  0  0  0  0  0  0  0  0  0
   -8.0510   -1.0041   -1.8601 H   0  0  0  0  0  0  0  0  0  0  0  0
   -9.3147   -1.1971   -0.6233 H   0  0  0  0  0  0  0  0  0  0  0  0
   -8.1135    1.8796    0.5206 H   0  0  0  0  0  0  0  0  0  0  0  0
   -8.1425    2.6092   -1.1073 H   0  0  0  0  0  0  0  0  0  0  0  0
   -6.3122    1.1657   -1.8406 H   0  0  0  0  0  0  0  0  0  0  0  0
   -5.8927    2.1569   -0.3707 H   0  0  0  0  0  0  0  0  0  0  0  0
  1  2  1  0
  2  3  2  0
  3  4  1  0
  4  5  2  0
  5  6  1  0
  6  7  1  0
  7  8  2  0
  7  9  1  0
  9 10  2  0
 10 11  1  0
 11 12  2  0
 12 13  1  0
 13 14  2  0
 13 15  1  0
 15 16  1  0
 15 17  1  0
 15 18  1  0
  5 19  1  0
 19 20  2  0
 20 21  1  0
 21 22  2  0
 22 23  1  0
 23 24  2  0
 24 25  1  0
 25 26  2  0
 25 27  1  0
 27 28  1  0
 28 29  1  0
 29 30  1  0
 30 31  1  0
 31 32  1  0
 20  2  1  0
 26 21  1  0
 32 27  1  0
 14  9  1  0
  1 33  1  0
  1 34  1  0
  1 35  1  0
  4 36  1  0
  6 37  1  0
 10 38  1  0
 11 39  1  0
 14 40  1  0
 16 41  1  0
 16 42  1  0
 16 43  1  0
 17 44  1  0
 17 45  1  0
 17 46  1  0
 19 47  1  0
 22 48  1  0
 24 49  1  0
 28 50  1  0
 28 51  1  0
 29 52  1  0
 29 53  1  0
 31 54  1  0
 31 55  1  0
 32 56  1  0
 32 57  1  0
M  END
$$$$
[H]O[C@@]1([H])C2([H])O[C@](C([H])([H])[H])(n3c4c([H])c([H])c([H])c([H])c4c4c5c(c6c7c([H])c([H])c([H])c([H])c7n2c6c43)C(=O)N([H])C5([H])[H])[C@@]([H])(C(=O)OC([H])([H])[H])C1([H])[H]
     RDKit          3D

 59 66  0  0  0  0  0  0  0  0999 V2000
    6.1117   -0.0203   -0.2287 C   0  0  0  0  0  0  0  0  0  0  0  0
    4.7481   -0.4046   -0.2910 O   0  0  0  0  0  0  0  0  0  0  0  0
    3.8003    0.1985   -1.1000 C   0  0  0  0  0  0  0  0  0  0  0  0
    4.1441    1.1421   -1.8266 O   0  0  0  0  0  0  0  0  0  0  0  0
    2.3721   -0.3280   -1.0604 C   0  0  1  0  0  0  0  0  0  0  0  0
    2.6734   -1.8405   -1.1754 C   0  0  0  0  0  0  0  0  0  0  0  0
    1.5117   -2.7290   -0.6249 C   0  0  1  0  0  0  0  0  0  0  0  0
    2.0168   -3.4174    0.5102 O   0  0  0  0  0  0  0  0  0  0  0  0
    0.5951   -1.7540   -0.2974 C   0  0  0  0  0  0  0  0  0  0  0  0
    1.1820   -1.0150    0.7176 O   0  0  0  0  0  0  0  0  0  0  0  0
    1.6906    0.1755    0.0934 C   0  0  1  0  0  0  0  0  0  0  0  0
    2.6030    0.7094    1.2084 C   0  0  0  0  0  0  0  0  0  0  0  0
    0.4978    1.0172    0.0421 N   0  0  0  0  0  0  0  0  0  0  0  0
    0.5344    2.3766    0.0736 C   0  0  0  0  0  0  0  0  0  0  0  0
    1.5135    3.3452    0.0205 C   0  0  0  0  0  0  0  0  0  0  0  0
    1.2482    4.6956    0.0676 C   0  0  0  0  0  0  0  0  0  0  0  0
   -0.0472    5.1577    0.1726 C   0  0  0  0  0  0  0  0  0  0  0  0
   -1.0447    4.2362    0.2271 C   0  0  0  0  0  0  0  0  0  0  0  0
   -0.7621    2.8918    0.1789 C   0  0  0  0  0  0  0  0  0  0  0  0
   -1.6034    1.8359    0.2073 C   0  0  0  0  0  0  0  0  0  0  0  0
   -2.9737    1.6378    0.3331 C   0  0  0  0  0  0  0  0  0  0  0  0
   -4.0312    2.6664    0.4509 C   0  0  0  0  0  0  0  0  0  0  0  0
   -5.2578    1.9338    0.5567 N   0  0  0  0  0  0  0  0  0  0  0  0
   -4.9854    0.5117    0.5049 C   0  0  0  0  0  0  0  0  0  0  0  0
   -5.9031   -0.3143    0.5777 O   0  0  0  0  0  0  0  0  0  0  0  0
   -3.5721    0.3780    0.3673 C   0  0  0  0  0  0  0  0  0  0  0  0
   -2.7684   -0.7489    0.2670 C   0  0  0  0  0  0  0  0  0  0  0  0
   -2.9536   -2.0910    0.2053 C   0  0  0  0  0  0  0  0  0  0  0  0
   -4.0661   -2.8882    0.2768 C   0  0  0  0  0  0  0  0  0  0  0  0
   -3.8884   -4.2643    0.1705 C   0  0  0  0  0  0  0  0  0  0  0  0
   -2.6565   -4.8548   -0.0016 C   0  0  0  0  0  0  0  0  0  0  0  0
   -1.5252   -4.0475   -0.0744 C   0  0  0  0  0  0  0  0  0  0  0  0
   -1.7140   -2.6986    0.0315 C   0  0  0  0  0  0  0  0  0  0  0  0
   -0.7900   -1.7476   -0.0105 N   0  0  0  0  0  0  0  0  0  0  0  0
   -1.4148   -0.5241    0.1426 C   0  0  0  0  0  0  0  0  0  0  0  0
   -0.8273    0.7316    0.1185 C   0  0  0  0  0  0  0  0  0  0  0  0
    6.2170    0.7526    0.5623 H   0  0  0  0  0  0  0  0  0  0  0  0
    6.6664   -0.9121    0.1543 H   0  0  0  0  0  0  0  0  0  0  0  0
    6.5066    0.3553   -1.1711 H   0  0  0  0  0  0  0  0  0  0  0  0
    1.9483    0.0122   -2.0428 H   0  0  0  0  0  0  0  0  0  0  0  0
    3.5822   -2.1189   -0.6153 H   0  0  0  0  0  0  0  0  0  0  0  0
    2.8607   -2.0343   -2.2257 H   0  0  0  0  0  0  0  0  0  0  0  0
    1.3437   -3.4806   -1.4221 H   0  0  0  0  0  0  0  0  0  0  0  0
    2.2796   -4.3383    0.2513 H   0  0  0  0  0  0  0  0  0  0  0  0
    0.5590   -1.1541   -1.3162 H   0  0  0  0  0  0  0  0  0  0  0  0
    2.9233   -0.1312    1.8914 H   0  0  0  0  0  0  0  0  0  0  0  0
    1.9858    1.3648    1.8546 H   0  0  0  0  0  0  0  0  0  0  0  0
    3.4782    1.2311    0.8757 H   0  0  0  0  0  0  0  0  0  0  0  0
    2.5288    3.0448   -0.0752 H   0  0  0  0  0  0  0  0  0  0  0  0
    2.0703    5.4199    0.0217 H   0  0  0  0  0  0  0  0  0  0  0  0
   -0.1904    6.2239    0.2051 H   0  0  0  0  0  0  0  0  0  0  0  0
   -2.0741    4.6003    0.3102 H   0  0  0  0  0  0  0  0  0  0  0  0
   -3.9155    3.2849    1.3696 H   0  0  0  0  0  0  0  0  0  0  0  0
   -4.1048    3.3073   -0.4629 H   0  0  0  0  0  0  0  0  0  0  0  0
   -6.1988    2.3906    0.6562 H   0  0  0  0  0  0  0  0  0  0  0  0
   -5.0585   -2.5160    0.4103 H   0  0  0  0  0  0  0  0  0  0  0  0
   -4.7930   -4.8810    0.2306 H   0  0  0  0  0  0  0  0  0  0  0  0
   -2.5326   -5.9188   -0.0823 H   0  0  0  0  0  0  0  0  0  0  0  0
   -0.5398   -4.4552   -0.2110 H   0  0  0  0  0  0  0  0  0  0  0  0
  1  2  1  0
  2  3  1  0
  3  4  2  0
  3  5  1  0
  5  6  1  0
  6  7  1  0
  7  8  1  0
  7  9  1  0
  9 10  1  0
 10 11  1  0
 11 12  1  1
 11 13  1  0
 13 14  1  0
 14 15  2  0
 15 16  1  0
 16 17  2  0
 17 18  1  0
 18 19  2  0
 19 20  1  0
 20 21  2  0
 21 22  1  0
 22 23  1  0
 23 24  1  0
 24 25  2  0
 24 26  1  0
 26 27  2  0
 27 28  1  0
 28 29  2  0
 29 30  1  0
 30 31  2  0
 31 32  1  0
 32 33  2  0
 33 34  1  0
 34 35  1  0
 35 36  2  0
 11  5  1  0
 36 13  1  0
 34  9  1  0
 19 14  1  0
 36 20  1  0
 26 21  1  0
 35 27  1  0
 33 28  1  0
  1 37  1  0
  1 38  1  0
  1 39  1  0
  5 40  1  6
  6 41  1  0
  6 42  1  0
  7 43  1  6
  8 44  1  0
  9 45  1  0
 12 46  1  0
 12 47  1  0
 12 48  1  0
 15 49  1  0
 16 50  1  0
 17 51  1  0
 18 52  1  0
 22 53  1  0
 22 54  1  0
 23 55  1  0
 29 56  1  0
 30 57  1  0
 31 58  1  0
 32 59  1  0
M  END
$$$$
[H]OC(=O)c1c([H])c([H])c([H])c(-c2nc([H])c3nc([H])c(Br)c(N([H])C4([H])C([H])([H])C4([H])[H])c3c2[H])c1[H]
     RDKit          3D

 38 41  0  0  0  0  0  0  0  0999 V2000
    5.8066   -0.6632    1.8447 O   0  0  0  0  0  0  0  0  0  0  0  0
    5.7261    0.3676    0.9237 C   0  0  0  0  0  0  0  0  0  0  0  0
    6.7331    1.0706    0.6104 O   0  0  0  0  0  0  0  0  0  0  0  0
    4.4220    0.6362    0.3032 C   0  0  0  0  0  0  0  0  0  0  0  0
    4.3236    1.6584   -0.6157 C   0  0  0  0  0  0  0  0  0  0  0  0
    3.1027    1.9042   -1.1917 C   0  0  0  0  0  0  0  0  0  0  0  0
    2.0032    1.1594   -0.8694 C   0  0  0  0  0  0  0  0  0  0  0  0
    2.0706    0.1396    0.0382 C   0  0  0  0  0  0  0  0  0  0  0  0
    3.3227   -0.1081    0.6250 C   0  0  0  0  0  0  0  0  0  0  0  0
    0.9164   -0.6614    0.3930 C   0  0  0  0  0  0  0  0  0  0  0  0
   -0.3155   -0.4705   -0.1386 C   0  0  0  0  0  0  0  0  0  0  0  0
   -1.4074   -1.2676    0.2316 C   0  0  0  0  0  0  0  0  0  0  0  0
   -2.6562   -1.0669   -0.3158 C   0  0  0  0  0  0  0  0  0  0  0  0
   -2.9081   -0.0712   -1.2712 N   0  0  0  0  0  0  0  0  0  0  0  0
   -3.2136    1.3031   -1.0347 C   0  0  0  0  0  0  0  0  0  0  0  0
   -4.3458    1.8059   -0.2538 C   0  0  0  0  0  0  0  0  0  0  0  0
   -2.8987    1.9656    0.2607 C   0  0  0  0  0  0  0  0  0  0  0  0
   -3.6571   -1.9050    0.1129 C   0  0  0  0  0  0  0  0  0  0  0  0
   -5.4347   -1.7954   -0.5556 Br  0  0  0  0  0  0  0  0  0  0  0  0
   -3.4104   -2.9038    1.0557 C   0  0  0  0  0  0  0  0  0  0  0  0
   -2.1807   -3.0565    1.5565 N   0  0  0  0  0  0  0  0  0  0  0  0
   -1.1551   -2.2518    1.1630 C   0  0  0  0  0  0  0  0  0  0  0  0
    0.0940   -2.4482    1.7046 C   0  0  0  0  0  0  0  0  0  0  0  0
    1.0822   -1.6471    1.3003 N   0  0  0  0  0  0  0  0  0  0  0  0
    6.4511   -0.5686    2.6099 H   0  0  0  0  0  0  0  0  0  0  0  0
    5.2066    2.2320   -0.8532 H   0  0  0  0  0  0  0  0  0  0  0  0
    3.0070    2.7015   -1.9140 H   0  0  0  0  0  0  0  0  0  0  0  0
    1.0714    1.3864   -1.3433 H   0  0  0  0  0  0  0  0  0  0  0  0
    3.3828   -0.9213    1.3507 H   0  0  0  0  0  0  0  0  0  0  0  0
   -0.4951    0.2922   -0.8590 H   0  0  0  0  0  0  0  0  0  0  0  0
   -2.8629   -0.4022   -2.2896 H   0  0  0  0  0  0  0  0  0  0  0  0
   -2.9556    1.9675   -1.9230 H   0  0  0  0  0  0  0  0  0  0  0  0
   -4.8612    2.7676   -0.5632 H   0  0  0  0  0  0  0  0  0  0  0  0
   -4.9600    1.2483    0.4491 H   0  0  0  0  0  0  0  0  0  0  0  0
   -2.5417    3.0115    0.2913 H   0  0  0  0  0  0  0  0  0  0  0  0
   -2.5803    1.3718    1.1318 H   0  0  0  0  0  0  0  0  0  0  0  0
   -4.1905   -3.5591    1.3925 H   0  0  0  0  0  0  0  0  0  0  0  0
    0.3082   -3.2216    2.4413 H   0  0  0  0  0  0  0  0  0  0  0  0
  1  2  1  0
  2  3  2  0
  2  4  1  0
  4  5  2  0
  5  6  1  0
  6  7  2  0
  7  8  1  0
  8  9  2  0
  8 10  1  0
 10 11  2  0
 11 12  1  0
 12 13  2  0
 13 14  1  0
 14 15  1  0
 15 16  1  0
 16 17  1  0
 13 18  1  0
 18 19  1  0
 18 20  2  0
 20 21  1  0
 21 22  2  0
 22 23  1  0
 23 24  2  0
  9  4  1  0
 24 10  1  0
 22 12  1  0
 17 15  1  0
  1 25  1  0
  5 26  1  0
  6 27  1  0
  7 28  1  0
  9 29  1  0
 11 30  1  0
 14 31  1  0
 15 32  1  0
 16 33  1  0
 16 34  1  0
 17 35  1  0
 17 36  1  0
 20 37  1  0
 23 38  1  0
M  END
$$$$
[H]Oc1c([H])c2c(c([H])c1O[H])[C@@]1([H])C([H])([H])C([H])([H])[C@]3(C([H])([H])[H])[C@@]([H])(N([H])C(=O)c4sc5c([H])c([H])c([H])c([H])c5c4[H])C([H])([H])C([H])([H])[C@@]3([H])[C@]1([H])C([H])([H])C2([H])[H]
     RDKit          3D

 61 66  0  0  0  0  0  0  0  0999 V2000
   -0.2288   -0.3172    1.4494 C   0  0  0  0  0  0  0  0  0  0  0  0
   -0.1926   -0.7055   -0.0003 C   0  0  2  0  0  0  0  0  0  0  0  0
   -0.2880    0.4853   -0.8839 C   0  0  0  0  0  0  0  0  0  0  0  0
   -1.3840    0.4462   -1.8946 C   0  0  0  0  0  0  0  0  0  0  0  0
   -2.6442   -0.1670   -1.5150 C   0  0  1  0  0  0  0  0  0  0  0  0
   -2.5532   -1.1125   -0.3004 C   0  0  1  0  0  0  0  0  0  0  0  0
   -3.7175   -2.0413   -0.3748 C   0  0  0  0  0  0  0  0  0  0  0  0
   -4.9327   -1.4628   -1.0581 C   0  0  0  0  0  0  0  0  0  0  0  0
   -4.9758    0.0415   -0.9696 C   0  0  0  0  0  0  0  0  0  0  0  0
   -6.1271    0.7090   -0.6690 C   0  0  0  0  0  0  0  0  0  0  0  0
   -6.0923    2.1114   -0.6030 C   0  0  0  0  0  0  0  0  0  0  0  0
   -7.2868    2.7455   -0.2943 O   0  0  0  0  0  0  0  0  0  0  0  0
   -4.9120    2.7805   -0.8397 C   0  0  0  0  0  0  0  0  0  0  0  0
   -4.8741    4.1609   -0.7757 O   0  0  0  0  0  0  0  0  0  0  0  0
   -3.7309    2.0777   -1.1489 C   0  0  0  0  0  0  0  0  0  0  0  0
   -3.7919    0.7121   -1.2070 C   0  0  0  0  0  0  0  0  0  0  0  0
   -1.2323   -1.7396   -0.3804 C   0  0  2  0  0  0  0  0  0  0  0  0
   -0.9030   -2.8500    0.5295 C   0  0  0  0  0  0  0  0  0  0  0  0
    0.6112   -2.8087    0.5946 C   0  0  0  0  0  0  0  0  0  0  0  0
    1.0398   -1.5633   -0.1968 C   0  0  2  0  0  0  0  0  0  0  0  0
    2.2410   -0.9832    0.2915 N   0  0  0  0  0  0  0  0  0  0  0  0
    3.3227   -0.7816   -0.6055 C   0  0  0  0  0  0  0  0  0  0  0  0
    3.2759   -1.0916   -1.8213 O   0  0  0  0  0  0  0  0  0  0  0  0
    4.5947   -0.1791   -0.1385 C   0  0  0  0  0  0  0  0  0  0  0  0
    4.8989    0.2412    1.1290 C   0  0  0  0  0  0  0  0  0  0  0  0
    6.1307    0.7631    1.3242 C   0  0  0  0  0  0  0  0  0  0  0  0
    6.6613    1.2564    2.5300 C   0  0  0  0  0  0  0  0  0  0  0  0
    7.9098    1.7586    2.6145 C   0  0  0  0  0  0  0  0  0  0  0  0
    8.7625    1.8288    1.5326 C   0  0  0  0  0  0  0  0  0  0  0  0
    8.2615    1.3506    0.3421 C   0  0  0  0  0  0  0  0  0  0  0  0
    6.9620    0.8252    0.2431 C   0  0  0  0  0  0  0  0  0  0  0  0
    6.0147    0.1601   -1.0104 S   0  0  0  0  0  0  0  0  0  0  0  0
   -1.1410    0.3038    1.6111 H   0  0  0  0  0  0  0  0  0  0  0  0
    0.6202    0.3458    1.7275 H   0  0  0  0  0  0  0  0  0  0  0  0
   -0.2449   -1.1419    2.1566 H   0  0  0  0  0  0  0  0  0  0  0  0
    0.6897    0.6037   -1.4146 H   0  0  0  0  0  0  0  0  0  0  0  0
   -0.3994    1.3900   -0.2504 H   0  0  0  0  0  0  0  0  0  0  0  0
   -1.5346    1.4634   -2.3001 H   0  0  0  0  0  0  0  0  0  0  0  0
   -0.9575   -0.1207   -2.7818 H   0  0  0  0  0  0  0  0  0  0  0  0
   -3.0274   -0.8448   -2.3408 H   0  0  0  0  0  0  0  0  0  0  0  0
   -2.7115   -0.4618    0.5836 H   0  0  0  0  0  0  0  0  0  0  0  0
   -4.0463   -2.3483    0.6538 H   0  0  0  0  0  0  0  0  0  0  0  0
   -3.4639   -2.9900   -0.8904 H   0  0  0  0  0  0  0  0  0  0  0  0
   -4.8697   -1.6983   -2.1427 H   0  0  0  0  0  0  0  0  0  0  0  0
   -5.8706   -1.9003   -0.6899 H   0  0  0  0  0  0  0  0  0  0  0  0
   -7.0514    0.1692   -0.4845 H   0  0  0  0  0  0  0  0  0  0  0  0
   -7.3151    3.7403   -0.2351 H   0  0  0  0  0  0  0  0  0  0  0  0
   -5.6587    4.7314   -0.5649 H   0  0  0  0  0  0  0  0  0  0  0  0
   -2.8228    2.6370   -1.3260 H   0  0  0  0  0  0  0  0  0  0  0  0
   -1.0216   -2.0579   -1.4237 H   0  0  0  0  0  0  0  0  0  0  0  0
   -1.2619   -3.8463    0.1694 H   0  0  0  0  0  0  0  0  0  0  0  0
   -1.2854   -2.7663    1.5593 H   0  0  0  0  0  0  0  0  0  0  0  0
    0.9835   -3.6901    0.0354 H   0  0  0  0  0  0  0  0  0  0  0  0
    0.9837   -2.7829    1.6265 H   0  0  0  0  0  0  0  0  0  0  0  0
    1.1106   -1.7910   -1.2727 H   0  0  0  0  0  0  0  0  0  0  0  0
    2.3667   -0.6977    1.2787 H   0  0  0  0  0  0  0  0  0  0  0  0
    4.1178    0.1301    1.9245 H   0  0  0  0  0  0  0  0  0  0  0  0
    6.0724    1.2493    3.4509 H   0  0  0  0  0  0  0  0  0  0  0  0
    8.3214    2.1437    3.5596 H   0  0  0  0  0  0  0  0  0  0  0  0
    9.7564    2.2213    1.5693 H   0  0  0  0  0  0  0  0  0  0  0  0
    8.8420    1.3588   -0.5596 H   0  0  0  0  0  0  0  0  0  0  0  0
  2  1  1  1
  2  3  1  0
  3  4  1  0
  4  5  1  0
  5  6  1  0
  6  7  1  0
  7  8  1  0
  8  9  1  0
  9 10  2  0
 10 11  1  0
 11 12  1  0
 11 13  2  0
 13 14  1  0
 13 15  1  0
 15 16  2  0
  6 17  1  0
 17 18  1  0
 18 19  1  0
 19 20  1  0
 20 21  1  0
 21 22  1  0
 22 23  2  0
 22 24  1  0
 24 25  2  0
 25 26  1  0
 26 27  2  0
 27 28  1  0
 28 29  2  0
 29 30  1  0
 30 31  2  0
 31 32  1  0
 17  2  1  0
 32 24  1  0
 20  2  1  0
 31 26  1  0
 16  5  1  0
 16  9  1  0
  1 33  1  0
  1 34  1  0
  1 35  1  0
  3 36  1  0
  3 37  1  0
  4 38  1  0
  4 39  1  0
  5 40  1  6
  6 41  1  1
  7 42  1  0
  7 43  1  0
  8 44  1  0
  8 45  1  0
 10 46  1  0
 12 47  1  0
 14 48  1  0
 15 49  1  0
 17 50  1  6
 18 51  1  0
 18 52  1  0
 19 53  1  0
 19 54  1  0
 20 55  1  6
 21 56  1  0
 25 57  1  0
 27 58  1  0
 28 59  1  0
 29 60  1  0
 30 61  1  0
M  END
$$$$
[H]c1nc([H])c(C(=O)OC2([H])C([H])([H])N(C(=O)C([H])([H])[H])C2([H])[H])c(N([H])c2c([H])c([H])c(C(F)(F)F)c(F)c2[H])c1[H]
     RDKit          3D

 43 45  0  0  0  0  0  0  0  0999 V2000
   -7.5578    0.5657    0.9254 C   0  0  0  0  0  0  0  0  0  0  0  0
   -6.7776    1.0106   -0.2536 C   0  0  0  0  0  0  0  0  0  0  0  0
   -7.3279    1.8147   -1.0440 O   0  0  0  0  0  0  0  0  0  0  0  0
   -5.4565    0.5522   -0.4918 N   0  0  0  0  0  0  0  0  0  0  0  0
   -4.5597   -0.3508    0.2052 C   0  0  0  0  0  0  0  0  0  0  0  0
   -3.4124    0.4334   -0.4000 C   0  0  0  0  0  0  0  0  0  0  0  0
   -4.4017    0.7299   -1.4708 C   0  0  0  0  0  0  0  0  0  0  0  0
   -2.3549   -0.4258   -0.7128 O   0  0  0  0  0  0  0  0  0  0  0  0
   -1.0220   -0.1881   -0.3258 C   0  0  0  0  0  0  0  0  0  0  0  0
   -0.8789    0.8536    0.3168 O   0  0  0  0  0  0  0  0  0  0  0  0
   -0.0494   -1.1668   -0.7249 C   0  0  0  0  0  0  0  0  0  0  0  0
   -0.4271   -2.2709   -1.4998 C   0  0  0  0  0  0  0  0  0  0  0  0
    0.4304   -3.2021   -1.9322 N   0  0  0  0  0  0  0  0  0  0  0  0
    1.7265   -3.1202   -1.6354 C   0  0  0  0  0  0  0  0  0  0  0  0
    2.1822   -2.0660   -0.8761 C   0  0  0  0  0  0  0  0  0  0  0  0
    1.2890   -1.0780   -0.4150 C   0  0  0  0  0  0  0  0  0  0  0  0
    1.7697   -0.0596    0.4247 N   0  0  0  0  0  0  0  0  0  0  0  0
    3.1518    0.2733    0.4752 C   0  0  0  0  0  0  0  0  0  0  0  0
    3.7520    0.6361    1.6859 C   0  0  0  0  0  0  0  0  0  0  0  0
    5.0736    1.0193    1.7441 C   0  0  0  0  0  0  0  0  0  0  0  0
    5.8583    1.0646    0.6348 C   0  0  0  0  0  0  0  0  0  0  0  0
    5.3027    0.7152   -0.5722 C   0  0  0  0  0  0  0  0  0  0  0  0
    6.0872    0.7611   -1.6771 F   0  0  0  0  0  0  0  0  0  0  0  0
    3.9810    0.3340   -0.6187 C   0  0  0  0  0  0  0  0  0  0  0  0
    7.2654    1.4783    0.7338 C   0  0  0  0  0  0  0  0  0  0  0  0
    7.5388    2.6121   -0.0392 F   0  0  0  0  0  0  0  0  0  0  0  0
    7.6008    1.7044    2.0450 F   0  0  0  0  0  0  0  0  0  0  0  0
    8.0584    0.4638    0.2104 F   0  0  0  0  0  0  0  0  0  0  0  0
   -6.8229    0.3960    1.7525 H   0  0  0  0  0  0  0  0  0  0  0  0
   -8.3505    1.2646    1.2100 H   0  0  0  0  0  0  0  0  0  0  0  0
   -8.0032   -0.4532    0.7396 H   0  0  0  0  0  0  0  0  0  0  0  0
   -4.6622   -1.3692   -0.2203 H   0  0  0  0  0  0  0  0  0  0  0  0
   -4.6202   -0.2975    1.3118 H   0  0  0  0  0  0  0  0  0  0  0  0
   -3.1624    1.3361    0.1802 H   0  0  0  0  0  0  0  0  0  0  0  0
   -4.3233    1.7835   -1.8334 H   0  0  0  0  0  0  0  0  0  0  0  0
   -4.5132   -0.0257   -2.2712 H   0  0  0  0  0  0  0  0  0  0  0  0
   -1.4969   -2.3255   -1.7356 H   0  0  0  0  0  0  0  0  0  0  0  0
    2.4606   -3.8543   -1.9660 H   0  0  0  0  0  0  0  0  0  0  0  0
    3.2339   -2.0365   -0.6243 H   0  0  0  0  0  0  0  0  0  0  0  0
    1.1742    0.5075    1.0817 H   0  0  0  0  0  0  0  0  0  0  0  0
    3.1476    0.6076    2.5805 H   0  0  0  0  0  0  0  0  0  0  0  0
    5.4982    1.2947    2.7183 H   0  0  0  0  0  0  0  0  0  0  0  0
    3.5982    0.0776   -1.6080 H   0  0  0  0  0  0  0  0  0  0  0  0
  1  2  1  0
  2  3  2  0
  2  4  1  0
  4  5  1  0
  5  6  1  0
  6  7  1  0
  6  8  1  0
  8  9  1  0
  9 10  2  0
  9 11  1  0
 11 12  2  0
 12 13  1  0
 13 14  2  0
 14 15  1  0
 15 16  2  0
 16 17  1  0
 17 18  1  0
 18 19  2  0
 19 20  1  0
 20 21  2  0
 21 22  1  0
 22 23  1  0
 22 24  2  0
 21 25  1  0
 25 26  1  0
 25 27  1  0
 25 28  1  0
  7  4  1  0
 16 11  1  0
 24 18  1  0
  1 29  1  0
  1 30  1  0
  1 31  1  0
  5 32  1  0
  5 33  1  0
  6 34  1  0
  7 35  1  0
  7 36  1  0
 12 37  1  0
 14 38  1  0
 15 39  1  0
 17 40  1  0
 19 41  1  0
 20 42  1  0
 24 43  1  0
M  END
$$$$
[H]OC(=O)c1c([H])c([H])c(C([H])([H])c2c([H])c([H])c(O[H])c(O[H])c2[H])c(Oc2c([H])c([H])c([H])c([H])c2[H])c1[H]
     RDKit          3D

 41 43  0  0  0  0  0  0  0  0999 V2000
   -3.5409    4.2711    0.0216 O   0  0  0  0  0  0  0  0  0  0  0  0
   -2.3819    4.3311   -0.7393 C   0  0  0  0  0  0  0  0  0  0  0  0
   -2.1016    5.4073   -1.3264 O   0  0  0  0  0  0  0  0  0  0  0  0
   -1.5284    3.1450   -0.8332 C   0  0  0  0  0  0  0  0  0  0  0  0
   -0.3686    3.1438   -1.5751 C   0  0  0  0  0  0  0  0  0  0  0  0
    0.4273    2.0372   -1.6602 C   0  0  0  0  0  0  0  0  0  0  0  0
    0.1081    0.8401   -0.9967 C   0  0  0  0  0  0  0  0  0  0  0  0
    1.0930   -0.2800   -1.0780 C   0  0  0  0  0  0  0  0  0  0  0  0
    1.9961   -0.3302    0.0901 C   0  0  0  0  0  0  0  0  0  0  0  0
    3.1532    0.4338    0.0582 C   0  0  0  0  0  0  0  0  0  0  0  0
    4.0557    0.4488    1.0977 C   0  0  0  0  0  0  0  0  0  0  0  0
    3.8311   -0.3168    2.2352 C   0  0  0  0  0  0  0  0  0  0  0  0
    4.7432   -0.2964    3.2763 O   0  0  0  0  0  0  0  0  0  0  0  0
    2.6918   -1.0846    2.2953 C   0  0  0  0  0  0  0  0  0  0  0  0
    2.4409   -1.8552    3.4116 O   0  0  0  0  0  0  0  0  0  0  0  0
    1.7890   -1.0808    1.2205 C   0  0  0  0  0  0  0  0  0  0  0  0
   -1.0419    0.8234   -0.2585 C   0  0  0  0  0  0  0  0  0  0  0  0
   -1.4542   -0.2882    0.4283 O   0  0  0  0  0  0  0  0  0  0  0  0
   -1.9138   -1.4767   -0.1005 C   0  0  0  0  0  0  0  0  0  0  0  0
   -2.3146   -1.6036   -1.4094 C   0  0  0  0  0  0  0  0  0  0  0  0
   -2.7829   -2.7846   -1.9729 C   0  0  0  0  0  0  0  0  0  0  0  0
   -2.8544   -3.9161   -1.1690 C   0  0  0  0  0  0  0  0  0  0  0  0
   -2.4575   -3.8118    0.1470 C   0  0  0  0  0  0  0  0  0  0  0  0
   -1.9957   -2.6308    0.6871 C   0  0  0  0  0  0  0  0  0  0  0  0
   -1.8356    1.9786   -0.1914 C   0  0  0  0  0  0  0  0  0  0  0  0
   -3.7273    5.0058    0.7217 H   0  0  0  0  0  0  0  0  0  0  0  0
   -0.1180    4.0666   -2.0895 H   0  0  0  0  0  0  0  0  0  0  0  0
    1.3587    2.0365   -2.2558 H   0  0  0  0  0  0  0  0  0  0  0  0
    0.6197   -1.2331   -1.1996 H   0  0  0  0  0  0  0  0  0  0  0  0
    1.7287   -0.0979   -1.9711 H   0  0  0  0  0  0  0  0  0  0  0  0
    3.3477    1.0436   -0.8294 H   0  0  0  0  0  0  0  0  0  0  0  0
    4.9696    1.0535    1.0688 H   0  0  0  0  0  0  0  0  0  0  0  0
    5.5798    0.2831    3.2028 H   0  0  0  0  0  0  0  0  0  0  0  0
    3.0866   -1.8529    4.1734 H   0  0  0  0  0  0  0  0  0  0  0  0
    0.9138   -1.6865    1.2856 H   0  0  0  0  0  0  0  0  0  0  0  0
   -2.2530   -0.7011   -2.0336 H   0  0  0  0  0  0  0  0  0  0  0  0
   -3.0813   -2.8086   -3.0120 H   0  0  0  0  0  0  0  0  0  0  0  0
   -3.2141   -4.8506   -1.5757 H   0  0  0  0  0  0  0  0  0  0  0  0
   -2.5322   -4.7286    0.7359 H   0  0  0  0  0  0  0  0  0  0  0  0
   -1.6930   -2.5810    1.7183 H   0  0  0  0  0  0  0  0  0  0  0  0
   -2.7431    1.9470    0.4018 H   0  0  0  0  0  0  0  0  0  0  0  0
  1  2  1  0
  2  3  2  0
  2  4  1  0
  4  5  2  0
  5  6  1  0
  6  7  2  0
  7  8  1  0
  8  9  1  0
  9 10  2  0
 10 11  1  0
 11 12  2  0
 12 13  1  0
 12 14  1  0
 14 15  1  0
 14 16  2  0
  7 17  1  0
 17 18  1  0
 18 19  1  0
 19 20  2  0
 20 21  1  0
 21 22  2  0
 22 23  1  0
 23 24  2  0
 17 25  2  0
 25  4  1  0
 16  9  1  0
 24 19  1  0
  1 26  1  0
  5 27  1  0
  6 28  1  0
  8 29  1  0
  8 30  1  0
 10 31  1  0
 11 32  1  0
 13 33  1  0
 15 34  1  0
 16 35  1  0
 20 36  1  0
 21 37  1  0
 22 38  1  0
 23 39  1  0
 24 40  1  0
 25 41  1  0
M  END
$$$$
[H]Oc1c([H])c([H])c(-c2nc([H])n(C3([H])C([H])([H])C([H])([H])N([H])C([H])([H])C3([H])[H])c2-c2nc(N([H])c3c([H])c([H])c(F)c(F)c3[H])nc([H])c2[H])c([H])c1[H]
     RDKit          3D

 55 59  0  0  0  0  0  0  0  0999 V2000
   -1.4834    6.8647   -0.7551 O   0  0  0  0  0  0  0  0  0  0  0  0
   -1.7162    5.4882   -0.6883 C   0  0  0  0  0  0  0  0  0  0  0  0
   -1.9224    4.9755    0.5724 C   0  0  0  0  0  0  0  0  0  0  0  0
   -2.1541    3.6132    0.6580 C   0  0  0  0  0  0  0  0  0  0  0  0
   -2.1741    2.8239   -0.4745 C   0  0  0  0  0  0  0  0  0  0  0  0
   -1.9669    3.3590   -1.7083 C   0  0  0  0  0  0  0  0  0  0  0  0
   -1.7297    4.7346   -1.8273 C   0  0  0  0  0  0  0  0  0  0  0  0
   -2.4459    1.4091   -0.3035 C   0  0  0  0  0  0  0  0  0  0  0  0
   -3.7010    0.9512    0.0151 N   0  0  0  0  0  0  0  0  0  0  0  0
   -3.6407   -0.3797    0.1197 C   0  0  0  0  0  0  0  0  0  0  0  0
   -2.3822   -0.7564   -0.1258 N   0  0  0  0  0  0  0  0  0  0  0  0
   -1.8646   -2.1111   -0.1027 C   0  0  0  0  0  0  0  0  0  0  0  0
   -1.5052   -2.5043    1.3060 C   0  0  0  0  0  0  0  0  0  0  0  0
   -2.4970   -3.4391    1.9526 C   0  0  0  0  0  0  0  0  0  0  0  0
   -2.8427   -4.5401    1.0557 N   0  0  0  0  0  0  0  0  0  0  0  0
   -3.6174   -3.9354   -0.0116 C   0  0  0  0  0  0  0  0  0  0  0  0
   -2.7149   -3.0860   -0.8380 C   0  0  0  0  0  0  0  0  0  0  0  0
   -1.6158    0.3335   -0.3924 C   0  0  0  0  0  0  0  0  0  0  0  0
   -0.1766    0.3255   -0.7053 C   0  0  0  0  0  0  0  0  0  0  0  0
    0.2270    0.6252   -1.9862 C   0  0  0  0  0  0  0  0  0  0  0  0
    1.5843    0.6086   -2.3159 C   0  0  0  0  0  0  0  0  0  0  0  0
    2.4274    0.2922   -1.3345 N   0  0  0  0  0  0  0  0  0  0  0  0
    2.0695   -0.0040   -0.0824 C   0  0  0  0  0  0  0  0  0  0  0  0
    2.9882   -0.3547    0.9151 N   0  0  0  0  0  0  0  0  0  0  0  0
    4.3749   -0.4592    0.8296 C   0  0  0  0  0  0  0  0  0  0  0  0
    5.0858   -1.2180    1.7743 C   0  0  0  0  0  0  0  0  0  0  0  0
    6.4345   -1.3363    1.7454 C   0  0  0  0  0  0  0  0  0  0  0  0
    7.1927   -0.7210    0.7898 C   0  0  0  0  0  0  0  0  0  0  0  0
    8.5422   -0.8466    0.7684 F   0  0  0  0  0  0  0  0  0  0  0  0
    6.5495    0.0368   -0.1629 C   0  0  0  0  0  0  0  0  0  0  0  0
    7.2539    0.6686   -1.1349 F   0  0  0  0  0  0  0  0  0  0  0  0
    5.1491    0.1514   -0.1211 C   0  0  0  0  0  0  0  0  0  0  0  0
    0.7257    0.0202    0.2171 N   0  0  0  0  0  0  0  0  0  0  0  0
   -2.3107    7.4296   -0.8630 H   0  0  0  0  0  0  0  0  0  0  0  0
   -1.9074    5.5904    1.4644 H   0  0  0  0  0  0  0  0  0  0  0  0
   -2.3147    3.2206    1.6489 H   0  0  0  0  0  0  0  0  0  0  0  0
   -1.9766    2.7629   -2.6285 H   0  0  0  0  0  0  0  0  0  0  0  0
   -1.5624    5.1647   -2.8216 H   0  0  0  0  0  0  0  0  0  0  0  0
   -4.4883   -1.0443    0.3675 H   0  0  0  0  0  0  0  0  0  0  0  0
   -0.8761   -2.0797   -0.6539 H   0  0  0  0  0  0  0  0  0  0  0  0
   -1.4292   -1.6019    1.9517 H   0  0  0  0  0  0  0  0  0  0  0  0
   -0.5011   -3.0039    1.3636 H   0  0  0  0  0  0  0  0  0  0  0  0
   -3.4126   -2.9566    2.2957 H   0  0  0  0  0  0  0  0  0  0  0  0
   -2.0097   -3.8809    2.8513 H   0  0  0  0  0  0  0  0  0  0  0  0
   -1.9997   -5.0423    0.7287 H   0  0  0  0  0  0  0  0  0  0  0  0
   -4.4670   -3.4168    0.4621 H   0  0  0  0  0  0  0  0  0  0  0  0
   -4.0474   -4.7075   -0.6913 H   0  0  0  0  0  0  0  0  0  0  0  0
   -3.2725   -2.5086   -1.6247 H   0  0  0  0  0  0  0  0  0  0  0  0
   -2.0366   -3.8064   -1.3907 H   0  0  0  0  0  0  0  0  0  0  0  0
   -0.4725    0.8721   -2.7733 H   0  0  0  0  0  0  0  0  0  0  0  0
    1.8711    0.8483   -3.3359 H   0  0  0  0  0  0  0  0  0  0  0  0
    2.5713   -0.5680    1.8774 H   0  0  0  0  0  0  0  0  0  0  0  0
    4.4926   -1.7067    2.5328 H   0  0  0  0  0  0  0  0  0  0  0  0
    6.9532   -1.9278    2.4870 H   0  0  0  0  0  0  0  0  0  0  0  0
    4.7426    0.7733   -0.8968 H   0  0  0  0  0  0  0  0  0  0  0  0
  1  2  1  0
  2  3  2  0
  3  4  1  0
  4  5  2  0
  5  6  1  0
  6  7  2  0
  5  8  1  0
  8  9  1  0
  9 10  2  0
 10 11  1  0
 11 12  1  0
 12 13  1  0
 13 14  1  0
 14 15  1  0
 15 16  1  0
 16 17  1  0
 11 18  1  0
 18 19  1  0
 19 20  2  0
 20 21  1  0
 21 22  2  0
 22 23  1  0
 23 24  1  0
 24 25  1  0
 25 26  2  0
 26 27  1  0
 27 28  2  0
 28 29  1  0
 28 30  1  0
 30 31  1  0
 30 32  2  0
 23 33  2  0
  7  2  1  0
 18  8  2  0
 33 19  1  0
 17 12  1  0
 32 25  1  0
  1 34  1  0
  3 35  1  0
  4 36  1  0
  6 37  1  0
  7 38  1  0
 10 39  1  0
 12 40  1  0
 13 41  1  0
 13 42  1  0
 14 43  1  0
 14 44  1  0
 15 45  1  0
 16 46  1  0
 16 47  1  0
 17 48  1  0
 17 49  1  0
 20 50  1  0
 21 51  1  0
 24 52  1  0
 26 53  1  0
 27 54  1  0
 32 55  1  0
M  END
$$$$
[H]c1c(-c2c(OC([H])([H])C3([H])C([H])([H])C3([H])[H])nc3sc(N([H])C(=O)N([H])C([H])([H])C([H])([H])[H])nc3c2[H])nn([H])c1[H]
     RDKit          3D

 43 46  0  0  0  0  0  0  0  0999 V2000
    5.8793    3.9510    0.0913 C   0  0  0  0  0  0  0  0  0  0  0  0
    6.3735    2.8767    1.0583 C   0  0  0  0  0  0  0  0  0  0  0  0
    5.9266    1.5870    0.5836 N   0  0  0  0  0  0  0  0  0  0  0  0
    4.5395    1.3475    0.4484 C   0  0  0  0  0  0  0  0  0  0  0  0
    3.7193    2.2491    0.7394 O   0  0  0  0  0  0  0  0  0  0  0  0
    4.0649    0.1147   -0.0071 N   0  0  0  0  0  0  0  0  0  0  0  0
    2.6438   -0.1025   -0.1356 C   0  0  0  0  0  0  0  0  0  0  0  0
    2.0125   -1.1693   -0.5377 N   0  0  0  0  0  0  0  0  0  0  0  0
    0.7133   -1.1767   -0.5873 C   0  0  0  0  0  0  0  0  0  0  0  0
   -0.1223   -2.2343   -0.9936 C   0  0  0  0  0  0  0  0  0  0  0  0
   -1.4910   -2.1292   -1.0058 C   0  0  0  0  0  0  0  0  0  0  0  0
   -2.2836   -3.3003   -1.4508 C   0  0  0  0  0  0  0  0  0  0  0  0
   -3.6222   -3.4487   -1.5522 C   0  0  0  0  0  0  0  0  0  0  0  0
   -3.9161   -4.7400   -2.0218 C   0  0  0  0  0  0  0  0  0  0  0  0
   -2.7252   -5.3349   -2.1899 N   0  0  0  0  0  0  0  0  0  0  0  0
   -1.7712   -4.4925   -1.8558 N   0  0  0  0  0  0  0  0  0  0  0  0
   -2.0974   -0.9699   -0.6157 C   0  0  0  0  0  0  0  0  0  0  0  0
   -3.4412   -0.7994   -0.6039 O   0  0  0  0  0  0  0  0  0  0  0  0
   -4.1832    0.3152   -0.2341 C   0  0  0  0  0  0  0  0  0  0  0  0
   -3.9716    0.7455    1.2004 C   0  0  0  0  0  0  0  0  0  0  0  0
   -4.7206    1.9326    1.7114 C   0  0  0  0  0  0  0  0  0  0  0  0
   -3.2632    2.0208    1.4290 C   0  0  0  0  0  0  0  0  0  0  0  0
   -1.3045    0.0719   -0.2166 N   0  0  0  0  0  0  0  0  0  0  0  0
    0.0550   -0.0393   -0.2069 C   0  0  0  0  0  0  0  0  0  0  0  0
    1.3645    0.9907    0.2067 S   0  0  0  0  0  0  0  0  0  0  0  0
    5.4651    3.4890   -0.8178 H   0  0  0  0  0  0  0  0  0  0  0  0
    6.7351    4.6280   -0.1753 H   0  0  0  0  0  0  0  0  0  0  0  0
    5.0978    4.5418    0.5716 H   0  0  0  0  0  0  0  0  0  0  0  0
    7.4667    2.8760    1.1285 H   0  0  0  0  0  0  0  0  0  0  0  0
    5.8997    3.0510    2.0616 H   0  0  0  0  0  0  0  0  0  0  0  0
    6.6383    0.8521    0.3479 H   0  0  0  0  0  0  0  0  0  0  0  0
    4.7137   -0.6467   -0.2544 H   0  0  0  0  0  0  0  0  0  0  0  0
    0.3092   -3.1772   -1.3131 H   0  0  0  0  0  0  0  0  0  0  0  0
   -4.3826   -2.7313   -1.3250 H   0  0  0  0  0  0  0  0  0  0  0  0
   -4.8739   -5.1912   -2.2169 H   0  0  0  0  0  0  0  0  0  0  0  0
   -2.5768   -6.3257   -2.5365 H   0  0  0  0  0  0  0  0  0  0  0  0
   -3.8548    1.1598   -0.9084 H   0  0  0  0  0  0  0  0  0  0  0  0
   -5.2729    0.1963   -0.3850 H   0  0  0  0  0  0  0  0  0  0  0  0
   -3.8361   -0.0776    1.9588 H   0  0  0  0  0  0  0  0  0  0  0  0
   -5.0731    1.9199    2.7738 H   0  0  0  0  0  0  0  0  0  0  0  0
   -5.3889    2.4835    1.0412 H   0  0  0  0  0  0  0  0  0  0  0  0
   -2.5451    2.0663    2.2715 H   0  0  0  0  0  0  0  0  0  0  0  0
   -2.9004    2.6204    0.5515 H   0  0  0  0  0  0  0  0  0  0  0  0
  1  2  1  0
  2  3  1  0
  3  4  1  0
  4  5  2  0
  4  6  1  0
  6  7  1  0
  7  8  2  0
  8  9  1  0
  9 10  2  0
 10 11  1  0
 11 12  1  0
 12 13  1  0
 13 14  2  0
 14 15  1  0
 15 16  1  0
 11 17  2  0
 17 18  1  0
 18 19  1  0
 19 20  1  0
 20 21  1  0
 21 22  1  0
 17 23  1  0
 23 24  2  0
 24 25  1  0
 25  7  1  0
 24  9  1  0
 16 12  2  0
 22 20  1  0
  1 26  1  0
  1 27  1  0
  1 28  1  0
  2 29  1  0
  2 30  1  0
  3 31  1  0
  6 32  1  0
 10 33  1  0
 13 34  1  0
 14 35  1  0
 15 36  1  0
 19 37  1  0
 19 38  1  0
 20 39  1  0
 21 40  1  0
 21 41  1  0
 22 42  1  0
 22 43  1  0
M  END
$$$$
[H]c1c([H])c([H])c(C(=O)N([H])c2c([H])c([H])c(-c3c([H])c([H])c([C@]4([H])C([H])([H])C([H])([H])[C@@]([H])(C(F)(F)F)C([H])([H])C4([H])[H])c([H])c3[H])c(C([H])([H])[H])c2[H])c(Cl)c1[H]
     RDKit          3D

 58 61  0  0  0  0  0  0  0  0999 V2000
    1.1412   -0.6439   -2.4280 C   0  0  0  0  0  0  0  0  0  0  0  0
    1.7844   -0.2088   -1.1348 C   0  0  0  0  0  0  0  0  0  0  0  0
    3.1476   -0.1244   -1.0213 C   0  0  0  0  0  0  0  0  0  0  0  0
    3.8208    0.2554    0.1339 C   0  0  0  0  0  0  0  0  0  0  0  0
    5.2169    0.2933    0.1354 N   0  0  0  0  0  0  0  0  0  0  0  0
    6.0269    0.8136    1.1330 C   0  0  0  0  0  0  0  0  0  0  0  0
    5.6720    1.3366    2.1902 O   0  0  0  0  0  0  0  0  0  0  0  0
    7.5062    0.7485    0.9339 C   0  0  0  0  0  0  0  0  0  0  0  0
    8.1864    1.7674    0.3096 C   0  0  0  0  0  0  0  0  0  0  0  0
    9.5681    1.6867    0.1338 C   0  0  0  0  0  0  0  0  0  0  0  0
   10.2755    0.5909    0.5793 C   0  0  0  0  0  0  0  0  0  0  0  0
    9.5905   -0.4220    1.2014 C   0  0  0  0  0  0  0  0  0  0  0  0
    8.2079   -0.3440    1.3788 C   0  0  0  0  0  0  0  0  0  0  0  0
    7.3701   -1.6506    2.1744 Cl  0  0  0  0  0  0  0  0  0  0  0  0
    3.0304    0.5575    1.2099 C   0  0  0  0  0  0  0  0  0  0  0  0
    1.6456    0.4919    1.1587 C   0  0  0  0  0  0  0  0  0  0  0  0
    1.0345    0.1098   -0.0123 C   0  0  0  0  0  0  0  0  0  0  0  0
   -0.4173    0.0587   -0.0500 C   0  0  0  0  0  0  0  0  0  0  0  0
   -1.1156    0.6746   -1.0293 C   0  0  0  0  0  0  0  0  0  0  0  0
   -2.5146    0.5956   -1.0401 C   0  0  0  0  0  0  0  0  0  0  0  0
   -3.2011   -0.0984   -0.0712 C   0  0  0  0  0  0  0  0  0  0  0  0
   -2.4624   -0.7116    0.9084 C   0  0  0  0  0  0  0  0  0  0  0  0
   -1.0706   -0.6426    0.9333 C   0  0  0  0  0  0  0  0  0  0  0  0
   -4.6512   -0.1496   -0.1290 C   0  0  2  0  0  0  0  0  0  0  0  0
   -5.3490    0.3620    1.0997 C   0  0  0  0  0  0  0  0  0  0  0  0
   -6.8132    0.4443    0.8931 C   0  0  0  0  0  0  0  0  0  0  0  0
   -7.4520   -0.6315    0.1225 C   0  0  2  0  0  0  0  0  0  0  0  0
   -6.5827   -1.4724   -0.7306 C   0  0  0  0  0  0  0  0  0  0  0  0
   -5.1646   -1.5920   -0.2726 C   0  0  0  0  0  0  0  0  0  0  0  0
   -8.5153   -0.0016   -0.7861 C   0  0  0  0  0  0  0  0  0  0  0  0
   -7.9494    0.9109   -1.6559 F   0  0  0  0  0  0  0  0  0  0  0  0
   -9.1478   -0.9551   -1.5334 F   0  0  0  0  0  0  0  0  0  0  0  0
   -9.3936    0.7139    0.0263 F   0  0  0  0  0  0  0  0  0  0  0  0
    1.0551    0.1729   -3.1509 H   0  0  0  0  0  0  0  0  0  0  0  0
    1.8963   -1.3510   -2.8846 H   0  0  0  0  0  0  0  0  0  0  0  0
    0.2452   -1.2505   -2.2748 H   0  0  0  0  0  0  0  0  0  0  0  0
    3.7479   -0.3714   -1.8967 H   0  0  0  0  0  0  0  0  0  0  0  0
    5.7060   -0.1234   -0.7168 H   0  0  0  0  0  0  0  0  0  0  0  0
    7.6202    2.6226   -0.0360 H   0  0  0  0  0  0  0  0  0  0  0  0
   10.0863    2.5033   -0.3624 H   0  0  0  0  0  0  0  0  0  0  0  0
   11.3503    0.5399    0.4363 H   0  0  0  0  0  0  0  0  0  0  0  0
   10.1428   -1.2848    1.5531 H   0  0  0  0  0  0  0  0  0  0  0  0
    3.4474    0.8602    2.1696 H   0  0  0  0  0  0  0  0  0  0  0  0
    1.0619    0.7359    2.0205 H   0  0  0  0  0  0  0  0  0  0  0  0
   -0.6061    1.2348   -1.8025 H   0  0  0  0  0  0  0  0  0  0  0  0
   -2.9957    1.1156   -1.8570 H   0  0  0  0  0  0  0  0  0  0  0  0
   -2.9141   -1.2713    1.6994 H   0  0  0  0  0  0  0  0  0  0  0  0
   -0.4839   -1.1241    1.7034 H   0  0  0  0  0  0  0  0  0  0  0  0
   -5.0169    0.4199   -1.0039 H   0  0  0  0  0  0  0  0  0  0  0  0
   -4.9796    1.3372    1.4451 H   0  0  0  0  0  0  0  0  0  0  0  0
   -5.1334   -0.3761    1.9191 H   0  0  0  0  0  0  0  0  0  0  0  0
   -7.2960    0.4882    1.9141 H   0  0  0  0  0  0  0  0  0  0  0  0
   -7.0387    1.4619    0.4566 H   0  0  0  0  0  0  0  0  0  0  0  0
   -8.0378   -1.3243    0.7964 H   0  0  0  0  0  0  0  0  0  0  0  0
   -6.5589   -1.0838   -1.7850 H   0  0  0  0  0  0  0  0  0  0  0  0
   -6.9901   -2.5109   -0.8134 H   0  0  0  0  0  0  0  0  0  0  0  0
   -5.1516   -2.0323    0.7522 H   0  0  0  0  0  0  0  0  0  0  0  0
   -4.5815   -2.1515   -1.0076 H   0  0  0  0  0  0  0  0  0  0  0  0
  1  2  1  0
  2  3  2  0
  3  4  1  0
  4  5  1  0
  5  6  1  0
  6  7  2  0
  6  8  1  0
  8  9  2  0
  9 10  1  0
 10 11  2  0
 11 12  1  0
 12 13  2  0
 13 14  1  0
  4 15  2  0
 15 16  1  0
 16 17  2  0
 17 18  1  0
 18 19  2  0
 19 20  1  0
 20 21  2  0
 21 22  1  0
 22 23  2  0
 21 24  1  0
 24 25  1  0
 25 26  1  0
 26 27  1  0
 27 28  1  0
 28 29  1  0
 27 30  1  0
 30 31  1  0
 30 32  1  0
 30 33  1  0
 17  2  1  0
 23 18  1  0
 29 24  1  0
 13  8  1  0
  1 34  1  0
  1 35  1  0
  1 36  1  0
  3 37  1  0
  5 38  1  0
  9 39  1  0
 10 40  1  0
 11 41  1  0
 12 42  1  0
 15 43  1  0
 16 44  1  0
 19 45  1  0
 20 46  1  0
 22 47  1  0
 23 48  1  0
 24 49  1  6
 25 50  1  0
 25 51  1  0
 26 52  1  0
 26 53  1  0
 27 54  1  1
 28 55  1  0
 28 56  1  0
 29 57  1  0
 29 58  1  0
M  END
$$$$
[H]c1nc(F)c(Cl)c([H])c1C(=O)N([H])c1nc([H])c([C@@]2([H])C([H])([H])C([H])([H])N([H])[C@@]([H])(C([H])([H])C(=O)N([H])[H])C2([H])[H])c([H])c1[H]
     RDKit          3D

 46 48  0  0  0  0  0  0  0  0999 V2000
   -6.2969    2.4536    1.7154 N   0  0  0  0  0  0  0  0  0  0  0  0
   -5.4393    1.4523    1.2096 C   0  0  0  0  0  0  0  0  0  0  0  0
   -4.8666    0.6775    2.0055 O   0  0  0  0  0  0  0  0  0  0  0  0
   -5.2231    1.3226   -0.2291 C   0  0  0  0  0  0  0  0  0  0  0  0
   -4.2844    0.2145   -0.5972 C   0  0  2  0  0  0  0  0  0  0  0  0
   -4.7159   -1.0859   -0.1745 N   0  0  0  0  0  0  0  0  0  0  0  0
   -3.6341   -2.0201   -0.1761 C   0  0  0  0  0  0  0  0  0  0  0  0
   -2.5601   -1.7278   -1.1833 C   0  0  0  0  0  0  0  0  0  0  0  0
   -1.9623   -0.3513   -1.0160 C   0  0  1  0  0  0  0  0  0  0  0  0
   -2.8724    0.4317   -0.0935 C   0  0  0  0  0  0  0  0  0  0  0  0
   -0.5644   -0.3800   -0.5459 C   0  0  0  0  0  0  0  0  0  0  0  0
   -0.2051   -0.9359    0.6609 C   0  0  0  0  0  0  0  0  0  0  0  0
    1.1092   -0.9605    1.0984 C   0  0  0  0  0  0  0  0  0  0  0  0
    2.1082   -0.4130    0.3104 C   0  0  0  0  0  0  0  0  0  0  0  0
    3.4632   -0.4005    0.6867 N   0  0  0  0  0  0  0  0  0  0  0  0
    4.4286    0.1745   -0.1655 C   0  0  0  0  0  0  0  0  0  0  0  0
    4.1072    0.6938   -1.2886 O   0  0  0  0  0  0  0  0  0  0  0  0
    5.8373    0.1947    0.2115 C   0  0  0  0  0  0  0  0  0  0  0  0
    6.3061   -0.3277    1.3795 C   0  0  0  0  0  0  0  0  0  0  0  0
    7.6375   -0.2790    1.6776 N   0  0  0  0  0  0  0  0  0  0  0  0
    8.5461    0.2742    0.8566 C   0  0  0  0  0  0  0  0  0  0  0  0
    9.8617    0.3170    1.1617 F   0  0  0  0  0  0  0  0  0  0  0  0
    8.1180    0.8088   -0.3234 C   0  0  0  0  0  0  0  0  0  0  0  0
    9.1941    1.5600   -1.4847 Cl  0  0  0  0  0  0  0  0  0  0  0  0
    6.7804    0.7679   -0.6387 C   0  0  0  0  0  0  0  0  0  0  0  0
    1.7471    0.1252   -0.8618 N   0  0  0  0  0  0  0  0  0  0  0  0
    0.4564    0.1544   -1.3014 C   0  0  0  0  0  0  0  0  0  0  0  0
   -7.3283    2.3266    1.6474 H   0  0  0  0  0  0  0  0  0  0  0  0
   -5.9244    3.3174    2.1555 H   0  0  0  0  0  0  0  0  0  0  0  0
   -6.1781    1.1373   -0.7471 H   0  0  0  0  0  0  0  0  0  0  0  0
   -4.8079    2.2583   -0.6923 H   0  0  0  0  0  0  0  0  0  0  0  0
   -4.2193    0.1699   -1.7216 H   0  0  0  0  0  0  0  0  0  0  0  0
   -5.5860   -1.4222   -0.6318 H   0  0  0  0  0  0  0  0  0  0  0  0
   -4.0665   -3.0193   -0.4609 H   0  0  0  0  0  0  0  0  0  0  0  0
   -3.2207   -2.1901    0.8564 H   0  0  0  0  0  0  0  0  0  0  0  0
   -2.9567   -1.9076   -2.1946 H   0  0  0  0  0  0  0  0  0  0  0  0
   -1.7434   -2.4648   -1.0125 H   0  0  0  0  0  0  0  0  0  0  0  0
   -2.0214    0.1425   -2.0081 H   0  0  0  0  0  0  0  0  0  0  0  0
   -2.7508    0.0077    0.9432 H   0  0  0  0  0  0  0  0  0  0  0  0
   -2.6190    1.4929   -0.0361 H   0  0  0  0  0  0  0  0  0  0  0  0
   -1.0065   -1.3602    1.2636 H   0  0  0  0  0  0  0  0  0  0  0  0
    1.3508   -1.4054    2.0504 H   0  0  0  0  0  0  0  0  0  0  0  0
    3.6974   -0.8275    1.6013 H   0  0  0  0  0  0  0  0  0  0  0  0
    5.6340   -0.7871    2.0857 H   0  0  0  0  0  0  0  0  0  0  0  0
    6.4132    1.1828   -1.5649 H   0  0  0  0  0  0  0  0  0  0  0  0
    0.2571    0.6080   -2.2584 H   0  0  0  0  0  0  0  0  0  0  0  0
  1  2  1  0
  2  3  2  0
  2  4  1  0
  4  5  1  0
  5  6  1  0
  6  7  1  0
  7  8  1  0
  8  9  1  0
  9 10  1  0
  9 11  1  0
 11 12  2  0
 12 13  1  0
 13 14  2  0
 14 15  1  0
 15 16  1  0
 16 17  2  0
 16 18  1  0
 18 19  2  0
 19 20  1  0
 20 21  2  0
 21 22  1  0
 21 23  1  0
 23 24  1  0
 23 25  2  0
 14 26  1  0
 26 27  2  0
 10  5  1  0
 27 11  1  0
 25 18  1  0
  1 28  1  0
  1 29  1  0
  4 30  1  0
  4 31  1  0
  5 32  1  6
  6 33  1  0
  7 34  1  0
  7 35  1  0
  8 36  1  0
  8 37  1  0
  9 38  1  6
 10 39  1  0
 10 40  1  0
 12 41  1  0
 13 42  1  0
 15 43  1  0
 19 44  1  0
 25 45  1  0
 27 46  1  0
M  END
$$$$
[H]OC(=O)C([H])([H])N([H])C(=O)C1([H])C([H])([H])C([H])([H])N(c2c([H])c([H])c(-c3c([H])nc4c([H])c([H])c([H])c([H])c4c3[H])c([H])c2[H])C([H])([H])C1([H])[H]
     RDKit          3D

 52 55  0  0  0  0  0  0  0  0999 V2000
   -9.8716   -0.8764   -0.0263 O   0  0  0  0  0  0  0  0  0  0  0  0
   -8.6355   -0.5306   -0.5035 C   0  0  0  0  0  0  0  0  0  0  0  0
   -8.5393    0.3430   -1.3879 O   0  0  0  0  0  0  0  0  0  0  0  0
   -7.4119   -1.1732    0.0187 C   0  0  0  0  0  0  0  0  0  0  0  0
   -6.3535   -0.3645   -0.0252 N   0  0  0  0  0  0  0  0  0  0  0  0
   -5.2381    0.4940   -0.0673 C   0  0  0  0  0  0  0  0  0  0  0  0
   -5.0430    1.4948    0.5919 O   0  0  0  0  0  0  0  0  0  0  0  0
   -4.1263    0.1454   -1.0466 C   0  0  0  0  0  0  0  0  0  0  0  0
   -3.1900    1.2864   -1.2000 C   0  0  0  0  0  0  0  0  0  0  0  0
   -1.7507    0.8584   -1.3508 C   0  0  0  0  0  0  0  0  0  0  0  0
   -1.3654    0.0939   -0.1487 N   0  0  0  0  0  0  0  0  0  0  0  0
   -2.4196   -0.4965    0.6219 C   0  0  0  0  0  0  0  0  0  0  0  0
   -3.4359   -1.0577   -0.3843 C   0  0  0  0  0  0  0  0  0  0  0  0
    0.0119    0.0305    0.0895 C   0  0  0  0  0  0  0  0  0  0  0  0
    0.6614    1.2428    0.2658 C   0  0  0  0  0  0  0  0  0  0  0  0
    2.0294    1.3247    0.4141 C   0  0  0  0  0  0  0  0  0  0  0  0
    2.7846    0.1861    0.3853 C   0  0  0  0  0  0  0  0  0  0  0  0
    2.1385   -1.0369    0.2122 C   0  0  0  0  0  0  0  0  0  0  0  0
    0.7985   -1.1089    0.0683 C   0  0  0  0  0  0  0  0  0  0  0  0
    4.2230    0.3378    0.4973 C   0  0  0  0  0  0  0  0  0  0  0  0
    4.7590    1.3448    1.2661 C   0  0  0  0  0  0  0  0  0  0  0  0
    6.1111    1.5340    1.3122 N   0  0  0  0  0  0  0  0  0  0  0  0
    6.9632    0.7339    0.6081 C   0  0  0  0  0  0  0  0  0  0  0  0
    8.3442    0.9178    0.6520 C   0  0  0  0  0  0  0  0  0  0  0  0
    9.2098    0.1120   -0.0672 C   0  0  0  0  0  0  0  0  0  0  0  0
    8.6982   -0.9253   -0.8624 C   0  0  0  0  0  0  0  0  0  0  0  0
    7.3095   -1.0892   -0.8898 C   0  0  0  0  0  0  0  0  0  0  0  0
    6.4381   -0.2965   -0.1796 C   0  0  0  0  0  0  0  0  0  0  0  0
    5.0745   -0.4609   -0.2080 C   0  0  0  0  0  0  0  0  0  0  0  0
  -10.0377   -0.9706    0.9555 H   0  0  0  0  0  0  0  0  0  0  0  0
   -7.3385   -2.1537   -0.5912 H   0  0  0  0  0  0  0  0  0  0  0  0
   -7.6087   -1.5297    1.0950 H   0  0  0  0  0  0  0  0  0  0  0  0
   -6.9933    0.5245    0.8064 H   0  0  0  0  0  0  0  0  0  0  0  0
   -4.5258   -0.2172   -2.0096 H   0  0  0  0  0  0  0  0  0  0  0  0
   -3.4671    1.9382   -2.0519 H   0  0  0  0  0  0  0  0  0  0  0  0
   -3.2662    2.0035   -0.3054 H   0  0  0  0  0  0  0  0  0  0  0  0
   -1.0922    1.7177   -1.5094 H   0  0  0  0  0  0  0  0  0  0  0  0
   -1.6849    0.1879   -2.2220 H   0  0  0  0  0  0  0  0  0  0  0  0
   -1.9846   -1.3196    1.1926 H   0  0  0  0  0  0  0  0  0  0  0  0
   -2.9133    0.2693    1.2343 H   0  0  0  0  0  0  0  0  0  0  0  0
   -4.1749   -1.6315    0.1916 H   0  0  0  0  0  0  0  0  0  0  0  0
   -2.9020   -1.6946   -1.0714 H   0  0  0  0  0  0  0  0  0  0  0  0
    0.1256    2.2166    0.3115 H   0  0  0  0  0  0  0  0  0  0  0  0
    2.4950    2.2679    0.5532 H   0  0  0  0  0  0  0  0  0  0  0  0
    2.7379   -1.9364    0.1822 H   0  0  0  0  0  0  0  0  0  0  0  0
    0.2716   -2.0404   -0.0727 H   0  0  0  0  0  0  0  0  0  0  0  0
    4.1952    2.0295    1.8753 H   0  0  0  0  0  0  0  0  0  0  0  0
    8.6858    1.7468    1.2616 H   0  0  0  0  0  0  0  0  0  0  0  0
   10.2645    0.2421   -0.0543 H   0  0  0  0  0  0  0  0  0  0  0  0
    9.3783   -1.5616   -1.3962 H   0  0  0  0  0  0  0  0  0  0  0  0
    6.9485   -1.8898   -1.4956 H   0  0  0  0  0  0  0  0  0  0  0  0
    4.7128   -1.2631   -0.8305 H   0  0  0  0  0  0  0  0  0  0  0  0
  1  2  1  0
  2  3  2  0
  2  4  1  0
  4  5  1  0
  5  6  1  0
  6  7  2  0
  6  8  1  0
  8  9  1  0
  9 10  1  0
 10 11  1  0
 11 12  1  0
 12 13  1  0
 11 14  1  0
 14 15  2  0
 15 16  1  0
 16 17  2  0
 17 18  1  0
 18 19  2  0
 17 20  1  0
 20 21  2  0
 21 22  1  0
 22 23  2  0
 23 24  1  0
 24 25  2  0
 25 26  1  0
 26 27  2  0
 27 28  1  0
 28 29  2  0
 13  8  1  0
 19 14  1  0
 29 20  1  0
 28 23  1  0
  1 30  1  0
  4 31  1  0
  4 32  1  0
  5 33  1  0
  8 34  1  0
  9 35  1  0
  9 36  1  0
 10 37  1  0
 10 38  1  0
 12 39  1  0
 12 40  1  0
 13 41  1  0
 13 42  1  0
 15 43  1  0
 16 44  1  0
 18 45  1  0
 19 46  1  0
 21 47  1  0
 24 48  1  0
 25 49  1  0
 26 50  1  0
 27 51  1  0
 29 52  1  0
M  END
$$$$
[H]/C(=C1/C(=O)N([H])c2c([H])c([H])c(F)c([H])c21)c1c(C([H])([H])[H])c(C(=O)N([H])C([H])([H])C([H])([H])N(C([H])([H])C([H])([H])[H])C([H])([H])C([H])([H])[H])c(C([H])([H])[H])n1[H]
     RDKit          3D

 56 58  0  0  0  0  0  0  0  0999 V2000
   -5.0714    1.8670   -1.0108 C   0  0  0  0  0  0  0  0  0  0  0  0
   -5.3461    0.3881   -0.8275 C   0  0  0  0  0  0  0  0  0  0  0  0
   -4.6170   -0.1646    0.3206 N   0  0  0  0  0  0  0  0  0  0  0  0
   -5.1790    0.4151    1.5016 C   0  0  0  0  0  0  0  0  0  0  0  0
   -4.5345   -0.0334    2.7742 C   0  0  0  0  0  0  0  0  0  0  0  0
   -4.6501   -1.5699    0.2637 C   0  0  0  0  0  0  0  0  0  0  0  0
   -3.7757   -2.2111   -0.7540 C   0  0  0  0  0  0  0  0  0  0  0  0
   -2.3731   -2.1323   -0.6218 N   0  0  0  0  0  0  0  0  0  0  0  0
   -1.4740   -1.0577   -0.5954 C   0  0  0  0  0  0  0  0  0  0  0  0
   -1.9007    0.1569   -0.6986 O   0  0  0  0  0  0  0  0  0  0  0  0
   -0.0260   -1.1673   -0.4518 C   0  0  0  0  0  0  0  0  0  0  0  0
    0.8308   -2.2047   -0.6599 C   0  0  0  0  0  0  0  0  0  0  0  0
    0.5183   -3.5624   -1.1880 C   0  0  0  0  0  0  0  0  0  0  0  0
    2.1148   -1.8439   -0.3380 N   0  0  0  0  0  0  0  0  0  0  0  0
    2.0987   -0.5939    0.0716 C   0  0  0  0  0  0  0  0  0  0  0  0
    3.1774    0.2565    0.5004 C   0  0  0  0  0  0  0  0  0  0  0  0
    4.2152    0.5258   -0.2368 C   0  0  0  0  0  0  0  0  0  0  0  0
    4.5400    0.0878   -1.5770 C   0  0  0  0  0  0  0  0  0  0  0  0
    3.8503   -0.6552   -2.3249 O   0  0  0  0  0  0  0  0  0  0  0  0
    5.8118    0.6670   -1.9034 N   0  0  0  0  0  0  0  0  0  0  0  0
    6.2838    1.4437   -0.8228 C   0  0  0  0  0  0  0  0  0  0  0  0
    7.4169    2.1967   -0.6129 C   0  0  0  0  0  0  0  0  0  0  0  0
    7.6451    2.8791    0.5618 C   0  0  0  0  0  0  0  0  0  0  0  0
    6.7134    2.8201    1.5851 C   0  0  0  0  0  0  0  0  0  0  0  0
    6.8926    3.4732    2.7576 F   0  0  0  0  0  0  0  0  0  0  0  0
    5.5872    2.0654    1.3625 C   0  0  0  0  0  0  0  0  0  0  0  0
    5.3509    1.3770    0.1845 C   0  0  0  0  0  0  0  0  0  0  0  0
    0.7763   -0.1375    0.0139 C   0  0  0  0  0  0  0  0  0  0  0  0
    0.3086    1.2202    0.3933 C   0  0  0  0  0  0  0  0  0  0  0  0
   -5.8586    2.4508   -0.5357 H   0  0  0  0  0  0  0  0  0  0  0  0
   -4.0666    2.1489   -0.6432 H   0  0  0  0  0  0  0  0  0  0  0  0
   -5.0551    2.0620   -2.1045 H   0  0  0  0  0  0  0  0  0  0  0  0
   -5.1075   -0.2012   -1.6994 H   0  0  0  0  0  0  0  0  0  0  0  0
   -6.4302    0.2709   -0.5364 H   0  0  0  0  0  0  0  0  0  0  0  0
   -6.2797    0.2912    1.5323 H   0  0  0  0  0  0  0  0  0  0  0  0
   -5.0076    1.5283    1.4040 H   0  0  0  0  0  0  0  0  0  0  0  0
   -5.0445   -0.8560    3.2889 H   0  0  0  0  0  0  0  0  0  0  0  0
   -3.4622   -0.2647    2.6232 H   0  0  0  0  0  0  0  0  0  0  0  0
   -4.5485    0.8322    3.4886 H   0  0  0  0  0  0  0  0  0  0  0  0
   -4.4903   -2.0463    1.2893 H   0  0  0  0  0  0  0  0  0  0  0  0
   -5.7090   -1.9542    0.0302 H   0  0  0  0  0  0  0  0  0  0  0  0
   -4.1207   -3.3053   -0.7880 H   0  0  0  0  0  0  0  0  0  0  0  0
   -4.0214   -1.8378   -1.7910 H   0  0  0  0  0  0  0  0  0  0  0  0
   -1.9069   -3.1170   -0.4939 H   0  0  0  0  0  0  0  0  0  0  0  0
    1.4454   -4.0202   -1.6271 H   0  0  0  0  0  0  0  0  0  0  0  0
   -0.1980   -3.5119   -2.0293 H   0  0  0  0  0  0  0  0  0  0  0  0
    0.1816   -4.2087   -0.3617 H   0  0  0  0  0  0  0  0  0  0  0  0
    2.9340   -2.4990   -0.4118 H   0  0  0  0  0  0  0  0  0  0  0  0
    3.1447    0.7200    1.5125 H   0  0  0  0  0  0  0  0  0  0  0  0
    6.3151    0.5384   -2.8011 H   0  0  0  0  0  0  0  0  0  0  0  0
    8.1416    2.2410   -1.4148 H   0  0  0  0  0  0  0  0  0  0  0  0
    8.5539    3.4777    0.7183 H   0  0  0  0  0  0  0  0  0  0  0  0
    4.8413    2.0008    2.1446 H   0  0  0  0  0  0  0  0  0  0  0  0
    1.1157    1.7992    0.8832 H   0  0  0  0  0  0  0  0  0  0  0  0
   -0.5276    1.1531    1.1483 H   0  0  0  0  0  0  0  0  0  0  0  0
   -0.0237    1.8018   -0.4924 H   0  0  0  0  0  0  0  0  0  0  0  0
  1  2  1  0
  2  3  1  0
  3  4  1  0
  4  5  1  0
  3  6  1  0
  6  7  1  0
  7  8  1  0
  8  9  1  0
  9 10  2  0
  9 11  1  0
 11 12  2  0
 12 13  1  0
 12 14  1  0
 14 15  1  0
 15 16  1  0
 16 17  2  0
 17 18  1  0
 18 19  2  0
 18 20  1  0
 20 21  1  0
 21 22  2  0
 22 23  1  0
 23 24  2  0
 24 25  1  0
 24 26  1  0
 26 27  2  0
 15 28  2  0
 28 29  1  0
 28 11  1  0
 27 17  1  0
 27 21  1  0
  1 30  1  0
  1 31  1  0
  1 32  1  0
  2 33  1  0
  2 34  1  0
  4 35  1  0
  4 36  1  0
  5 37  1  0
  5 38  1  0
  5 39  1  0
  6 40  1  0
  6 41  1  0
  7 42  1  0
  7 43  1  0
  8 44  1  0
 13 45  1  0
 13 46  1  0
 13 47  1  0
 14 48  1  0
 16 49  1  0
 20 50  1  0
 22 51  1  0
 23 52  1  0
 26 53  1  0
 29 54  1  0
 29 55  1  0
 29 56  1  0
M  END
$$$$
[H]OC(c1c([H])c([H])c(N(C([H])([H])C([H])([H])[H])S(=O)(=O)c2c([H])c([H])c(Cl)c([H])c2[H])c([H])c1[H])(C(F)(F)F)C(F)(F)F
     RDKit          3D

 43 44  0  0  0  0  0  0  0  0999 V2000
    2.0060   -2.9197    1.2761 C   0  0  0  0  0  0  0  0  0  0  0  0
    1.7144   -2.0677    0.0783 C   0  0  0  0  0  0  0  0  0  0  0  0
    1.2009   -0.7810    0.3743 N   0  0  0  0  0  0  0  0  0  0  0  0
   -0.2136   -0.5575    0.2938 C   0  0  0  0  0  0  0  0  0  0  0  0
   -0.7625   -0.0602   -0.8658 C   0  0  0  0  0  0  0  0  0  0  0  0
   -2.1473    0.1804   -0.8631 C   0  0  0  0  0  0  0  0  0  0  0  0
   -2.9305   -0.0586    0.2159 C   0  0  0  0  0  0  0  0  0  0  0  0
   -2.3543   -0.5700    1.3938 C   0  0  0  0  0  0  0  0  0  0  0  0
   -1.0186   -0.7988    1.3858 C   0  0  0  0  0  0  0  0  0  0  0  0
   -4.3803    0.1969    0.2704 C   0  0  0  0  0  0  0  0  0  0  0  0
   -4.9468   -0.2066    1.4936 O   0  0  0  0  0  0  0  0  0  0  0  0
   -4.6506    1.6758    0.1281 C   0  0  0  0  0  0  0  0  0  0  0  0
   -6.0149    1.9411    0.2081 F   0  0  0  0  0  0  0  0  0  0  0  0
   -4.0086    2.3461    1.1322 F   0  0  0  0  0  0  0  0  0  0  0  0
   -4.1741    2.1632   -1.0926 F   0  0  0  0  0  0  0  0  0  0  0  0
   -5.1204   -0.5885   -0.8007 C   0  0  0  0  0  0  0  0  0  0  0  0
   -6.4878   -0.3075   -0.6765 F   0  0  0  0  0  0  0  0  0  0  0  0
   -4.7423   -0.2689   -2.0815 F   0  0  0  0  0  0  0  0  0  0  0  0
   -4.9291   -1.9174   -0.5427 F   0  0  0  0  0  0  0  0  0  0  0  0
    2.1927    0.5352    0.8646 S   0  0  0  0  0  0  0  0  0  0  0  0
    2.8126    0.1599    2.1905 O   0  0  0  0  0  0  0  0  0  0  0  0
    1.3482    1.7581    1.1274 O   0  0  0  0  0  0  0  0  0  0  0  0
    3.3752    0.9537   -0.3228 C   0  0  0  0  0  0  0  0  0  0  0  0
    3.1191    0.7920   -1.6477 C   0  0  0  0  0  0  0  0  0  0  0  0
    4.0851    1.1599   -2.5482 C   0  0  0  0  0  0  0  0  0  0  0  0
    5.3074    1.6913   -2.1260 C   0  0  0  0  0  0  0  0  0  0  0  0
    6.4781    2.1366   -3.3675 Cl  0  0  0  0  0  0  0  0  0  0  0  0
    5.5670    1.8563   -0.7820 C   0  0  0  0  0  0  0  0  0  0  0  0
    4.5905    1.4838    0.1264 C   0  0  0  0  0  0  0  0  0  0  0  0
    3.0039   -2.7719    1.7265 H   0  0  0  0  0  0  0  0  0  0  0  0
    1.2391   -2.7786    2.0558 H   0  0  0  0  0  0  0  0  0  0  0  0
    2.0102   -3.9818    0.9376 H   0  0  0  0  0  0  0  0  0  0  0  0
    0.9231   -2.6432   -0.5114 H   0  0  0  0  0  0  0  0  0  0  0  0
    2.5996   -1.9956   -0.6081 H   0  0  0  0  0  0  0  0  0  0  0  0
   -0.1595    0.1374   -1.7387 H   0  0  0  0  0  0  0  0  0  0  0  0
   -2.5200    0.5708   -1.8029 H   0  0  0  0  0  0  0  0  0  0  0  0
   -2.9938   -0.7477    2.2316 H   0  0  0  0  0  0  0  0  0  0  0  0
   -0.5802   -1.1990    2.3215 H   0  0  0  0  0  0  0  0  0  0  0  0
   -5.8804    0.1642    1.5123 H   0  0  0  0  0  0  0  0  0  0  0  0
    2.1943    0.3859   -1.9801 H   0  0  0  0  0  0  0  0  0  0  0  0
    3.9420    1.0479   -3.6277 H   0  0  0  0  0  0  0  0  0  0  0  0
    6.5205    2.2697   -0.5078 H   0  0  0  0  0  0  0  0  0  0  0  0
    4.7856    1.6144    1.1767 H   0  0  0  0  0  0  0  0  0  0  0  0
  1  2  1  0
  2  3  1  0
  3  4  1  0
  4  5  2  0
  5  6  1  0
  6  7  2  0
  7  8  1  0
  8  9  2  0
  7 10  1  0
 10 11  1  0
 10 12  1  0
 12 13  1  0
 12 14  1  0
 12 15  1  0
 10 16  1  0
 16 17  1  0
 16 18  1  0
 16 19  1  0
  3 20  1  0
 20 21  2  0
 20 22  2  0
 20 23  1  0
 23 24  2  0
 24 25  1  0
 25 26  2  0
 26 27  1  0
 26 28  1  0
 28 29  2  0
  9  4  1  0
 29 23  1  0
  1 30  1  0
  1 31  1  0
  1 32  1  0
  2 33  1  0
  2 34  1  0
  5 35  1  0
  6 36  1  0
  8 37  1  0
  9 38  1  0
 11 39  1  0
 24 40  1  0
 25 41  1  0
 28 42  1  0
 29 43  1  0
M  END
$$$$
[H]c1nc([H])c([H])c(-c2nc(-c3c([H])nn([H])c3[H])n([H])c2-c2sc(C#N)c([H])c2[H])c1[H]
     RDKit          3D

 33 36  0  0  0  0  0  0  0  0999 V2000
    6.4111    2.3875   -1.1534 N   0  0  0  0  0  0  0  0  0  0  0  0
    5.3584    2.1078   -0.7647 C   0  0  0  0  0  0  0  0  0  0  0  0
    4.0258    1.7422   -0.2972 C   0  0  0  0  0  0  0  0  0  0  0  0
    3.5623    1.7192    0.9907 C   0  0  0  0  0  0  0  0  0  0  0  0
    2.2919    1.3474    1.1833 C   0  0  0  0  0  0  0  0  0  0  0  0
    1.5525    1.0190    0.0772 C   0  0  0  0  0  0  0  0  0  0  0  0
    2.6591    1.2402   -1.1964 S   0  0  0  0  0  0  0  0  0  0  0  0
    0.1535    0.5985    0.0362 C   0  0  0  0  0  0  0  0  0  0  0  0
   -0.9173    1.4107    0.2049 N   0  0  0  0  0  0  0  0  0  0  0  0
   -2.0686    0.7292    0.1032 C   0  0  0  0  0  0  0  0  0  0  0  0
   -1.7113   -0.5306   -0.1335 N   0  0  0  0  0  0  0  0  0  0  0  0
   -0.3633   -0.6609   -0.1830 C   0  0  0  0  0  0  0  0  0  0  0  0
    0.3789   -1.8885   -0.4120 C   0  0  0  0  0  0  0  0  0  0  0  0
    1.1605   -2.1113   -1.5220 C   0  0  0  0  0  0  0  0  0  0  0  0
    1.8376   -3.3134   -1.6433 C   0  0  0  0  0  0  0  0  0  0  0  0
    1.7638   -4.2730   -0.7219 N   0  0  0  0  0  0  0  0  0  0  0  0
    1.0101   -4.0913    0.3743 C   0  0  0  0  0  0  0  0  0  0  0  0
    0.3192   -2.9005    0.5280 C   0  0  0  0  0  0  0  0  0  0  0  0
   -3.4116    1.2721    0.2329 C   0  0  0  0  0  0  0  0  0  0  0  0
   -3.8266    2.5571    0.4997 C   0  0  0  0  0  0  0  0  0  0  0  0
   -5.1686    2.5743    0.5185 N   0  0  0  0  0  0  0  0  0  0  0  0
   -5.6141    1.3647    0.2769 N   0  0  0  0  0  0  0  0  0  0  0  0
   -4.5616    0.5244    0.0935 C   0  0  0  0  0  0  0  0  0  0  0  0
    4.2551    2.0066    1.8088 H   0  0  0  0  0  0  0  0  0  0  0  0
    1.8288    1.2973    2.1990 H   0  0  0  0  0  0  0  0  0  0  0  0
   -0.8377    2.4310    0.3891 H   0  0  0  0  0  0  0  0  0  0  0  0
    1.2557   -1.3705   -2.3095 H   0  0  0  0  0  0  0  0  0  0  0  0
    2.4537   -3.4889   -2.5150 H   0  0  0  0  0  0  0  0  0  0  0  0
    0.9396   -4.8732    1.1413 H   0  0  0  0  0  0  0  0  0  0  0  0
   -0.2872   -2.7688    1.4246 H   0  0  0  0  0  0  0  0  0  0  0  0
   -3.1875    3.4121    0.6664 H   0  0  0  0  0  0  0  0  0  0  0  0
   -6.6029    1.0657    0.2275 H   0  0  0  0  0  0  0  0  0  0  0  0
   -4.6591   -0.5363   -0.1240 H   0  0  0  0  0  0  0  0  0  0  0  0
  1  2  3  0
  2  3  1  0
  3  4  2  0
  4  5  1  0
  5  6  2  0
  6  7  1  0
  6  8  1  0
  8  9  1  0
  9 10  1  0
 10 11  2  0
 11 12  1  0
 12 13  1  0
 13 14  2  0
 14 15  1  0
 15 16  2  0
 16 17  1  0
 17 18  2  0
 10 19  1  0
 19 20  1  0
 20 21  2  0
 21 22  1  0
 22 23  1  0
  7  3  1  0
 12  8  2  0
 18 13  1  0
 23 19  2  0
  4 24  1  0
  5 25  1  0
  9 26  1  0
 14 27  1  0
 15 28  1  0
 17 29  1  0
 18 30  1  0
 20 31  1  0
 22 32  1  0
 23 33  1  0
M  END
$$$$
[H]ON([H])C(=O)C([H])([H])Oc1c([H])c(OC([H])([H])[H])c(S(=O)(=O)N([H])c2c([H])c([H])c(OC([H])([H])[H])c([H])c2[H])c([H])c1Br
     RDKit          3D

 44 45  0  0  0  0  0  0  0  0999 V2000
   -6.1402   -3.1534   -0.7140 C   0  0  0  0  0  0  0  0  0  0  0  0
   -4.7319   -3.0710   -0.6255 O   0  0  0  0  0  0  0  0  0  0  0  0
   -4.1568   -1.8561   -0.3462 C   0  0  0  0  0  0  0  0  0  0  0  0
   -2.7976   -1.7547   -0.2563 C   0  0  0  0  0  0  0  0  0  0  0  0
   -2.2128   -0.5125    0.0292 C   0  0  0  0  0  0  0  0  0  0  0  0
   -2.9291    0.6160    0.2255 C   0  0  0  0  0  0  0  0  0  0  0  0
   -2.4320    1.8905    0.5038 N   0  0  0  0  0  0  0  0  0  0  0  0
   -1.2601    2.2126    1.6923 S   0  0  0  0  0  0  0  0  0  0  0  0
   -1.7327    1.6940    3.0566 O   0  0  0  0  0  0  0  0  0  0  0  0
   -1.0456    3.7254    1.8347 O   0  0  0  0  0  0  0  0  0  0  0  0
    0.2501    1.4276    1.3652 C   0  0  0  0  0  0  0  0  0  0  0  0
    0.8036    0.5159    2.2383 C   0  0  0  0  0  0  0  0  0  0  0  0
    2.0189   -0.0987    1.9935 C   0  0  0  0  0  0  0  0  0  0  0  0
    2.7573   -1.3625    3.2325 Br  0  0  0  0  0  0  0  0  0  0  0  0
    2.6739    0.2334    0.8276 C   0  0  0  0  0  0  0  0  0  0  0  0
    3.8958   -0.3877    0.5862 O   0  0  0  0  0  0  0  0  0  0  0  0
    4.6012   -0.0744   -0.6004 C   0  0  0  0  0  0  0  0  0  0  0  0
    5.8544   -0.8390   -0.6491 C   0  0  0  0  0  0  0  0  0  0  0  0
    6.6051   -0.6773   -1.6441 O   0  0  0  0  0  0  0  0  0  0  0  0
    6.2537   -1.7507    0.3766 N   0  0  0  0  0  0  0  0  0  0  0  0
    7.4137   -2.4268    0.2823 O   0  0  0  0  0  0  0  0  0  0  0  0
    2.1190    1.1453   -0.0447 C   0  0  0  0  0  0  0  0  0  0  0  0
    0.9105    1.7669    0.1825 C   0  0  0  0  0  0  0  0  0  0  0  0
    0.3466    2.6886   -0.6959 O   0  0  0  0  0  0  0  0  0  0  0  0
    0.9465    3.0759   -1.8933 C   0  0  0  0  0  0  0  0  0  0  0  0
   -4.3279    0.4817    0.1267 C   0  0  0  0  0  0  0  0  0  0  0  0
   -4.9125   -0.7307   -0.1528 C   0  0  0  0  0  0  0  0  0  0  0  0
   -6.6193   -2.7299    0.1789 H   0  0  0  0  0  0  0  0  0  0  0  0
   -6.4817   -2.6355   -1.6383 H   0  0  0  0  0  0  0  0  0  0  0  0
   -6.3868   -4.2291   -0.8591 H   0  0  0  0  0  0  0  0  0  0  0  0
   -2.1496   -2.6062   -0.3988 H   0  0  0  0  0  0  0  0  0  0  0  0
   -1.1448   -0.4810    0.0831 H   0  0  0  0  0  0  0  0  0  0  0  0
   -2.8545    2.6727   -0.1031 H   0  0  0  0  0  0  0  0  0  0  0  0
    0.2844    0.2573    3.1554 H   0  0  0  0  0  0  0  0  0  0  0  0
    3.9325   -0.2784   -1.4652 H   0  0  0  0  0  0  0  0  0  0  0  0
    4.8659    1.0020   -0.5353 H   0  0  0  0  0  0  0  0  0  0  0  0
    5.6587   -1.9074    1.2098 H   0  0  0  0  0  0  0  0  0  0  0  0
    7.2263   -3.2512   -0.2410 H   0  0  0  0  0  0  0  0  0  0  0  0
    2.6389    1.3998   -0.9560 H   0  0  0  0  0  0  0  0  0  0  0  0
    1.8094    3.7549   -1.7769 H   0  0  0  0  0  0  0  0  0  0  0  0
    0.2045    3.6020   -2.5269 H   0  0  0  0  0  0  0  0  0  0  0  0
    1.2342    2.1459   -2.4612 H   0  0  0  0  0  0  0  0  0  0  0  0
   -4.9838    1.3316    0.2684 H   0  0  0  0  0  0  0  0  0  0  0  0
   -6.0052   -0.8257   -0.2280 H   0  0  0  0  0  0  0  0  0  0  0  0
  1  2  1  0
  2  3  1  0
  3  4  2  0
  4  5  1  0
  5  6  2  0
  6  7  1  0
  7  8  1  0
  8  9  2  0
  8 10  2  0
  8 11  1  0
 11 12  2  0
 12 13  1  0
 13 14  1  0
 13 15  2  0
 15 16  1  0
 16 17  1  0
 17 18  1  0
 18 19  2  0
 18 20  1  0
 20 21  1  0
 15 22  1  0
 22 23  2  0
 23 24  1  0
 24 25  1  0
  6 26  1  0
 26 27  2  0
 27  3  1  0
 23 11  1  0
  1 28  1  0
  1 29  1  0
  1 30  1  0
  4 31  1  0
  5 32  1  0
  7 33  1  0
 12 34  1  0
 17 35  1  0
 17 36  1  0
 20 37  1  0
 21 38  1  0
 22 39  1  0
 25 40  1  0
 25 41  1  0
 25 42  1  0
 26 43  1  0
 27 44  1  0
M  END
$$$$
[H]C1=C(C(=O)[O-])N2C(=O)/C(=C(\[H])c3nnn(-c4c([H])c([H])c([H])c([H])c4[H])c3[H])[C@@]2([H])S1
     RDKit          3D

 32 35  0  0  0  0  0  0  0  0999 V2000
    6.7652    1.4764    0.6858 O   0  0  0  0  0  0  0  0  0  0  0  0
    6.3090    0.2710    1.1849 C   0  0  0  0  0  0  0  0  0  0  0  0
    7.0660   -0.3215    1.9994 O   0  0  0  0  0  0  0  0  0  0  0  0
    5.0365   -0.3503    0.8430 C   0  0  0  0  0  0  0  0  0  0  0  0
    4.6383   -1.4942    1.3385 C   0  0  0  0  0  0  0  0  0  0  0  0
    3.0110   -1.7849    0.5903 S   0  0  0  0  0  0  0  0  0  0  0  0
    2.7402    0.0306    0.3030 C   0  0  1  0  0  0  0  0  0  0  0  0
    4.1552    0.2503   -0.0959 N   0  0  0  0  0  0  0  0  0  0  0  0
    3.6788    0.9524   -1.2298 C   0  0  0  0  0  0  0  0  0  0  0  0
    4.2310    1.7222   -2.0850 O   0  0  0  0  0  0  0  0  0  0  0  0
    2.3335    0.4385   -1.0121 C   0  0  0  0  0  0  0  0  0  0  0  0
    1.2038    0.4027   -1.7254 C   0  0  0  0  0  0  0  0  0  0  0  0
    0.0617   -0.1903   -1.0547 C   0  0  0  0  0  0  0  0  0  0  0  0
   -1.1954    0.3543   -1.0014 C   0  0  0  0  0  0  0  0  0  0  0  0
   -1.9966   -0.4881   -0.2788 N   0  0  0  0  0  0  0  0  0  0  0  0
   -1.2386   -1.4928    0.0789 N   0  0  0  0  0  0  0  0  0  0  0  0
   -0.0141   -1.3497   -0.3628 N   0  0  0  0  0  0  0  0  0  0  0  0
   -3.3751   -0.2398    0.0077 C   0  0  0  0  0  0  0  0  0  0  0  0
   -4.3151   -1.2222   -0.0276 C   0  0  0  0  0  0  0  0  0  0  0  0
   -5.6463   -0.9524    0.2726 C   0  0  0  0  0  0  0  0  0  0  0  0
   -6.0342    0.3360    0.6161 C   0  0  0  0  0  0  0  0  0  0  0  0
   -5.0717    1.3223    0.6475 C   0  0  0  0  0  0  0  0  0  0  0  0
   -3.7620    1.0480    0.3492 C   0  0  0  0  0  0  0  0  0  0  0  0
    5.0889   -2.1654    2.0245 H   0  0  0  0  0  0  0  0  0  0  0  0
    2.4313    0.5666    1.1831 H   0  0  0  0  0  0  0  0  0  0  0  0
    1.2314    0.8044   -2.7130 H   0  0  0  0  0  0  0  0  0  0  0  0
   -1.5237    1.2948   -1.4459 H   0  0  0  0  0  0  0  0  0  0  0  0
   -4.0072   -2.2424   -0.2993 H   0  0  0  0  0  0  0  0  0  0  0  0
   -6.4068   -1.7242    0.2497 H   0  0  0  0  0  0  0  0  0  0  0  0
   -7.0635    0.5843    0.8584 H   0  0  0  0  0  0  0  0  0  0  0  0
   -5.3244    2.3482    0.9134 H   0  0  0  0  0  0  0  0  0  0  0  0
   -3.0072    1.8152    0.3737 H   0  0  0  0  0  0  0  0  0  0  0  0
  1  2  1  0
  2  3  2  0
  2  4  1  0
  4  5  2  0
  5  6  1  0
  6  7  1  0
  7  8  1  0
  8  9  1  0
  9 10  2  0
  9 11  1  0
 11 12  2  0
 12 13  1  0
 13 14  2  0
 14 15  1  0
 15 16  1  0
 16 17  2  0
 15 18  1  0
 18 19  2  0
 19 20  1  0
 20 21  2  0
 21 22  1  0
 22 23  2  0
  8  4  1  0
 17 13  1  0
 23 18  1  0
 11  7  1  0
  5 24  1  0
  7 25  1  1
 12 26  1  0
 14 27  1  0
 19 28  1  0
 20 29  1  0
 21 30  1  0
 22 31  1  0
 23 32  1  0
M  CHG  1   1  -1
M  END
$$$$
[H]c1nc(C#Cc2c([H])c([H])c(C(=O)N3C([H])([H])C4([H])C([H])([H])C([H])([H])[C@@](C([H])([H])[H])(C3([H])[H])C4(C([H])([H])[H])C([H])([H])[H])c([H])c2[H])c([H])c([H])c1[H]
     RDKit          3D

 53 56  0  0  0  0  0  0  0  0999 V2000
   -5.7970    0.4766    1.0096 C   0  0  0  0  0  0  0  0  0  0  0  0
   -4.5257   -0.2299    0.6583 C   0  0  0  0  0  0  0  0  0  0  0  0
   -4.5301   -1.6427    1.1281 C   0  0  0  0  0  0  0  0  0  0  0  0
   -3.3760    0.5890    1.1470 C   0  0  0  0  0  0  0  0  0  0  0  0
   -3.5764    1.8774    0.3366 C   0  0  0  0  0  0  0  0  0  0  0  0
   -3.8922    1.3309   -1.0320 C   0  0  0  0  0  0  0  0  0  0  0  0
   -4.3037   -0.1094   -0.8513 C   0  0  2  0  0  0  0  0  0  0  0  0
   -5.5693   -0.3855   -1.5903 C   0  0  0  0  0  0  0  0  0  0  0  0
   -3.2062   -1.0544   -1.1835 C   0  0  0  0  0  0  0  0  0  0  0  0
   -1.9619   -0.6185   -0.5002 N   0  0  0  0  0  0  0  0  0  0  0  0
   -0.7859   -0.8997   -1.1963 C   0  0  0  0  0  0  0  0  0  0  0  0
   -1.0214   -1.4768   -2.3599 O   0  0  0  0  0  0  0  0  0  0  0  0
    0.6046   -0.7029   -0.9343 C   0  0  0  0  0  0  0  0  0  0  0  0
    1.1311   -0.2600    0.2376 C   0  0  0  0  0  0  0  0  0  0  0  0
    2.5078   -0.0724    0.3532 C   0  0  0  0  0  0  0  0  0  0  0  0
    3.3951   -0.3098   -0.6579 C   0  0  0  0  0  0  0  0  0  0  0  0
    2.8728   -0.7609   -1.8528 C   0  0  0  0  0  0  0  0  0  0  0  0
    1.5210   -0.9495   -1.9812 C   0  0  0  0  0  0  0  0  0  0  0  0
    4.8155   -0.0990   -0.4874 C   0  0  0  0  0  0  0  0  0  0  0  0
    5.9940    0.0970   -0.3465 C   0  0  0  0  0  0  0  0  0  0  0  0
    7.3980    0.3502   -0.1919 C   0  0  0  0  0  0  0  0  0  0  0  0
    8.0315    0.2818    1.0429 C   0  0  0  0  0  0  0  0  0  0  0  0
    9.3798    0.5246    1.1929 C   0  0  0  0  0  0  0  0  0  0  0  0
   10.1272    0.8484    0.0695 C   0  0  0  0  0  0  0  0  0  0  0  0
    9.4884    0.9135   -1.1511 C   0  0  0  0  0  0  0  0  0  0  0  0
    8.1661    0.6672   -1.2462 N   0  0  0  0  0  0  0  0  0  0  0  0
   -2.0132    0.0480    0.7469 C   0  0  0  0  0  0  0  0  0  0  0  0
   -5.6574    1.0681    1.9436 H   0  0  0  0  0  0  0  0  0  0  0  0
   -6.0715    1.2064    0.2020 H   0  0  0  0  0  0  0  0  0  0  0  0
   -6.6437   -0.2154    1.1366 H   0  0  0  0  0  0  0  0  0  0  0  0
   -5.1033   -2.2705    0.4109 H   0  0  0  0  0  0  0  0  0  0  0  0
   -5.1268   -1.6791    2.0860 H   0  0  0  0  0  0  0  0  0  0  0  0
   -3.5188   -2.0588    1.3106 H   0  0  0  0  0  0  0  0  0  0  0  0
   -3.3801    0.7870    2.2260 H   0  0  0  0  0  0  0  0  0  0  0  0
   -4.4499    2.4177    0.7668 H   0  0  0  0  0  0  0  0  0  0  0  0
   -2.6703    2.5039    0.3530 H   0  0  0  0  0  0  0  0  0  0  0  0
   -3.0033    1.4095   -1.7142 H   0  0  0  0  0  0  0  0  0  0  0  0
   -4.7430    1.9365   -1.4421 H   0  0  0  0  0  0  0  0  0  0  0  0
   -5.9945    0.5469   -2.0626 H   0  0  0  0  0  0  0  0  0  0  0  0
   -5.4221   -1.1344   -2.3960 H   0  0  0  0  0  0  0  0  0  0  0  0
   -6.3496   -0.7477   -0.8724 H   0  0  0  0  0  0  0  0  0  0  0  0
   -3.4193   -2.0625   -0.7286 H   0  0  0  0  0  0  0  0  0  0  0  0
   -3.0290   -1.1904   -2.2564 H   0  0  0  0  0  0  0  0  0  0  0  0
    0.5257   -0.0543    1.1307 H   0  0  0  0  0  0  0  0  0  0  0  0
    2.8835    0.2890    1.3248 H   0  0  0  0  0  0  0  0  0  0  0  0
    3.5675   -0.9500   -2.6535 H   0  0  0  0  0  0  0  0  0  0  0  0
    1.1898   -1.3067   -2.9573 H   0  0  0  0  0  0  0  0  0  0  0  0
    7.4651    0.0308    1.9302 H   0  0  0  0  0  0  0  0  0  0  0  0
    9.8911    0.4768    2.1420 H   0  0  0  0  0  0  0  0  0  0  0  0
   11.1755    1.0494    0.1083 H   0  0  0  0  0  0  0  0  0  0  0  0
   10.0175    1.1626   -2.0732 H   0  0  0  0  0  0  0  0  0  0  0  0
   -1.6264   -0.6176    1.5428 H   0  0  0  0  0  0  0  0  0  0  0  0
   -1.3806    0.9698    0.6525 H   0  0  0  0  0  0  0  0  0  0  0  0
  1  2  1  0
  2  3  1  0
  2  4  1  0
  4  5  1  0
  5  6  1  0
  6  7  1  0
  7  8  1  6
  7  9  1  0
  9 10  1  0
 10 11  1  0
 11 12  2  0
 11 13  1  0
 13 14  2  0
 14 15  1  0
 15 16  2  0
 16 17  1  0
 17 18  2  0
 16 19  1  0
 19 20  3  0
 20 21  1  0
 21 22  2  0
 22 23  1  0
 23 24  2  0
 24 25  1  0
 25 26  2  0
 10 27  1  0
  7  2  1  0
 18 13  1  0
 26 21  1  0
 27  4  1  0
  1 28  1  0
  1 29  1  0
  1 30  1  0
  3 31  1  0
  3 32  1  0
  3 33  1  0
  4 34  1  0
  5 35  1  0
  5 36  1  0
  6 37  1  0
  6 38  1  0
  8 39  1  0
  8 40  1  0
  8 41  1  0
  9 42  1  0
  9 43  1  0
 14 44  1  0
 15 45  1  0
 17 46  1  0
 18 47  1  0
 22 48  1  0
 23 49  1  0
 24 50  1  0
 25 51  1  0
 27 52  1  0
 27 53  1  0
M  END
$$$$
[H]OC([H])([H])[C@@]([H])(C([H])=C([H])[H])N([H])C(=O)C([H])([H])c1c([H])c([H])c([H])c([H])c1[H]
     RDKit          3D

 30 30  0  0  0  0  0  0  0  0999 V2000
   -4.2819   -1.0865   -1.3910 O   0  0  0  0  0  0  0  0  0  0  0  0
   -3.1719   -1.4116   -0.6399 C   0  0  0  0  0  0  0  0  0  0  0  0
   -2.4850   -0.1569   -0.0890 C   0  0  2  0  0  0  0  0  0  0  0  0
   -1.3544   -0.5994    0.6695 N   0  0  0  0  0  0  0  0  0  0  0  0
   -0.0468   -0.2186    0.2796 C   0  0  0  0  0  0  0  0  0  0  0  0
    0.1120    0.4987   -0.7205 O   0  0  0  0  0  0  0  0  0  0  0  0
    1.1549   -0.6756    1.0668 C   0  0  0  0  0  0  0  0  0  0  0  0
    2.3827   -0.1325    0.4374 C   0  0  0  0  0  0  0  0  0  0  0  0
    3.0420   -0.8566   -0.5506 C   0  0  0  0  0  0  0  0  0  0  0  0
    4.1777   -0.3506   -1.1304 C   0  0  0  0  0  0  0  0  0  0  0  0
    4.6965    0.8728   -0.7603 C   0  0  0  0  0  0  0  0  0  0  0  0
    4.0244    1.5696    0.2204 C   0  0  0  0  0  0  0  0  0  0  0  0
    2.8769    1.0987    0.8321 C   0  0  0  0  0  0  0  0  0  0  0  0
   -3.4432    0.6265    0.7275 C   0  0  0  0  0  0  0  0  0  0  0  0
   -3.8025    1.8561    0.4128 C   0  0  0  0  0  0  0  0  0  0  0  0
   -4.4832   -1.7409   -2.0867 H   0  0  0  0  0  0  0  0  0  0  0  0
   -3.4668   -2.0298    0.2577 H   0  0  0  0  0  0  0  0  0  0  0  0
   -2.4646   -2.0266   -1.2126 H   0  0  0  0  0  0  0  0  0  0  0  0
   -2.1605    0.4713   -0.9436 H   0  0  0  0  0  0  0  0  0  0  0  0
   -1.5201   -1.2042    1.5091 H   0  0  0  0  0  0  0  0  0  0  0  0
    1.0488   -0.2967    2.1097 H   0  0  0  0  0  0  0  0  0  0  0  0
    1.1863   -1.7736    1.1251 H   0  0  0  0  0  0  0  0  0  0  0  0
    2.6445   -1.8143   -0.8471 H   0  0  0  0  0  0  0  0  0  0  0  0
    4.6688   -0.9401   -1.8985 H   0  0  0  0  0  0  0  0  0  0  0  0
    5.6030    1.2512   -1.2395 H   0  0  0  0  0  0  0  0  0  0  0  0
    4.4040    2.5365    0.5372 H   0  0  0  0  0  0  0  0  0  0  0  0
    2.4005    1.7012    1.5968 H   0  0  0  0  0  0  0  0  0  0  0  0
   -3.8422    0.1266    1.6157 H   0  0  0  0  0  0  0  0  0  0  0  0
   -4.4981    2.3756    1.0382 H   0  0  0  0  0  0  0  0  0  0  0  0
   -3.4020    2.3294   -0.4600 H   0  0  0  0  0  0  0  0  0  0  0  0
  1  2  1  0
  2  3  1  0
  3  4  1  0
  4  5  1  0
  5  6  2  0
  5  7  1  0
  7  8  1  0
  8  9  2  0
  9 10  1  0
 10 11  2  0
 11 12  1  0
 12 13  2  0
  3 14  1  0
 14 15  2  3
 13  8  1  0
  1 16  1  0
  2 17  1  0
  2 18  1  0
  3 19  1  6
  4 20  1  0
  7 21  1  0
  7 22  1  0
  9 23  1  0
 10 24  1  0
 11 25  1  0
 12 26  1  0
 13 27  1  0
 14 28  1  0
 15 29  1  0
 15 30  1  0
M  END
$$$$
[H]c1c([H])c([C@]2([H])c3c([H])c([H])c(C(=O)N([H])[H])c([H])c3C([H])([H])C([H])([H])N2C(=O)C([H])([H])C#N)c(C([H])([H])[H])c([H])c1F
     RDKit          3D

 44 46  0  0  0  0  0  0  0  0999 V2000
   -0.8225    1.0643   -1.7623 C   0  0  0  0  0  0  0  0  0  0  0  0
   -1.2262    1.7535   -0.5516 C   0  0  0  0  0  0  0  0  0  0  0  0
   -1.8177    3.0180   -0.7004 C   0  0  0  0  0  0  0  0  0  0  0  0
   -2.2316    3.7731    0.3706 C   0  0  0  0  0  0  0  0  0  0  0  0
   -2.8032    4.9947    0.2325 F   0  0  0  0  0  0  0  0  0  0  0  0
   -2.0670    3.2844    1.6482 C   0  0  0  0  0  0  0  0  0  0  0  0
   -1.4958    2.0635    1.7849 C   0  0  0  0  0  0  0  0  0  0  0  0
   -1.0589    1.2585    0.7255 C   0  0  0  0  0  0  0  0  0  0  0  0
   -0.4630   -0.0470    0.9401 C   0  0  1  0  0  0  0  0  0  0  0  0
   -1.2791   -1.1938    0.6735 N   0  0  0  0  0  0  0  0  0  0  0  0
   -0.5894   -2.4727    0.6082 C   0  0  0  0  0  0  0  0  0  0  0  0
    0.3876   -2.4137   -0.5391 C   0  0  0  0  0  0  0  0  0  0  0  0
    1.3189   -1.2915   -0.2461 C   0  0  0  0  0  0  0  0  0  0  0  0
    2.6292   -1.4092   -0.7057 C   0  0  0  0  0  0  0  0  0  0  0  0
    3.5773   -0.4263   -0.4856 C   0  0  0  0  0  0  0  0  0  0  0  0
    3.1694    0.6894    0.2159 C   0  0  0  0  0  0  0  0  0  0  0  0
    1.8590    0.7976    0.6706 C   0  0  0  0  0  0  0  0  0  0  0  0
    0.9300   -0.1721    0.4514 C   0  0  0  0  0  0  0  0  0  0  0  0
    4.9499   -0.5639   -0.9743 C   0  0  0  0  0  0  0  0  0  0  0  0
    5.8720    0.4752   -0.7172 N   0  0  0  0  0  0  0  0  0  0  0  0
    5.3051   -1.5803   -1.6080 O   0  0  0  0  0  0  0  0  0  0  0  0
   -2.6765   -1.1731    0.4927 C   0  0  0  0  0  0  0  0  0  0  0  0
   -3.3807   -0.1309    0.5440 O   0  0  0  0  0  0  0  0  0  0  0  0
   -3.3669   -2.4578    0.2244 C   0  0  0  0  0  0  0  0  0  0  0  0
   -4.8039   -2.2633    0.0154 C   0  0  0  0  0  0  0  0  0  0  0  0
   -5.9200   -2.1151   -0.1311 N   0  0  0  0  0  0  0  0  0  0  0  0
   -1.3261    1.5669   -2.6421 H   0  0  0  0  0  0  0  0  0  0  0  0
   -1.0444    0.0156   -1.8755 H   0  0  0  0  0  0  0  0  0  0  0  0
    0.2709    1.1995   -2.0081 H   0  0  0  0  0  0  0  0  0  0  0  0
   -1.9655    3.4391   -1.6854 H   0  0  0  0  0  0  0  0  0  0  0  0
   -2.3696    3.8253    2.5342 H   0  0  0  0  0  0  0  0  0  0  0  0
   -1.3567    1.6597    2.7734 H   0  0  0  0  0  0  0  0  0  0  0  0
   -0.3103   -0.1175    2.0836 H   0  0  0  0  0  0  0  0  0  0  0  0
   -0.0477   -2.6028    1.5927 H   0  0  0  0  0  0  0  0  0  0  0  0
   -1.2601   -3.3308    0.5440 H   0  0  0  0  0  0  0  0  0  0  0  0
    0.9292   -3.3749   -0.5592 H   0  0  0  0  0  0  0  0  0  0  0  0
   -0.2037   -2.2367   -1.4574 H   0  0  0  0  0  0  0  0  0  0  0  0
    2.9440   -2.2886   -1.2565 H   0  0  0  0  0  0  0  0  0  0  0  0
    3.9118    1.4592    0.3883 H   0  0  0  0  0  0  0  0  0  0  0  0
    1.5727    1.6780    1.2132 H   0  0  0  0  0  0  0  0  0  0  0  0
    6.7898    0.2805   -0.2900 H   0  0  0  0  0  0  0  0  0  0  0  0
    5.6196    1.4469   -0.9625 H   0  0  0  0  0  0  0  0  0  0  0  0
   -3.1752   -3.1113    1.1055 H   0  0  0  0  0  0  0  0  0  0  0  0
   -2.9745   -2.9695   -0.6747 H   0  0  0  0  0  0  0  0  0  0  0  0
  1  2  1  0
  2  3  2  0
  3  4  1  0
  4  5  1  0
  4  6  2  0
  6  7  1  0
  7  8  2  0
  8  9  1  0
  9 10  1  0
 10 11  1  0
 11 12  1  0
 12 13  1  0
 13 14  2  0
 14 15  1  0
 15 16  2  0
 16 17  1  0
 17 18  2  0
 15 19  1  0
 19 20  1  0
 19 21  2  0
 10 22  1  0
 22 23  2  0
 22 24  1  0
 24 25  1  0
 25 26  3  0
  8  2  1  0
 18  9  1  0
 18 13  1  0
  1 27  1  0
  1 28  1  0
  1 29  1  0
  3 30  1  0
  6 31  1  0
  7 32  1  0
  9 33  1  1
 11 34  1  0
 11 35  1  0
 12 36  1  0
 12 37  1  0
 14 38  1  0
 16 39  1  0
 17 40  1  0
 20 41  1  0
 20 42  1  0
 24 43  1  0
 24 44  1  0
M  END
$$$$
[H]c1nc(N([H])c2c([H])c([H])c(N3C([H])([H])C([H])([H])OC([H])([H])C3([H])[H])c([H])c2[H])nc2c1N(c1c([H])c([H])c([H])c([H])c1[H])C([H])([H])N([H])C2=O
     RDKit          3D

 52 56  0  0  0  0  0  0  0  0999 V2000
   -1.2164   -2.4079   -1.8157 O   0  0  0  0  0  0  0  0  0  0  0  0
   -2.2761   -1.7851   -1.5107 C   0  0  0  0  0  0  0  0  0  0  0  0
   -3.5544   -2.2531   -1.8767 N   0  0  0  0  0  0  0  0  0  0  0  0
   -4.6759   -1.3305   -1.9534 C   0  0  0  0  0  0  0  0  0  0  0  0
   -4.6200   -0.4042   -0.8217 N   0  0  0  0  0  0  0  0  0  0  0  0
   -5.8432   -0.0857   -0.1980 C   0  0  0  0  0  0  0  0  0  0  0  0
   -5.9449    0.1070    1.1651 C   0  0  0  0  0  0  0  0  0  0  0  0
   -7.0947    0.4226    1.8359 C   0  0  0  0  0  0  0  0  0  0  0  0
   -8.2562    0.5631    1.1045 C   0  0  0  0  0  0  0  0  0  0  0  0
   -8.1971    0.3776   -0.2680 C   0  0  0  0  0  0  0  0  0  0  0  0
   -7.0227    0.0611   -0.9078 C   0  0  0  0  0  0  0  0  0  0  0  0
   -3.3610    0.1047   -0.4410 C   0  0  0  0  0  0  0  0  0  0  0  0
   -3.2384    1.2819    0.2594 C   0  0  0  0  0  0  0  0  0  0  0  0
   -2.0426    1.7642    0.6135 N   0  0  0  0  0  0  0  0  0  0  0  0
   -0.8679    1.1244    0.3045 C   0  0  0  0  0  0  0  0  0  0  0  0
    0.3665    1.7261    0.7039 N   0  0  0  0  0  0  0  0  0  0  0  0
    1.6508    1.2138    0.4919 C   0  0  0  0  0  0  0  0  0  0  0  0
    2.7070    2.1269    0.4668 C   0  0  0  0  0  0  0  0  0  0  0  0
    3.9741    1.6527    0.2892 C   0  0  0  0  0  0  0  0  0  0  0  0
    4.2644    0.3151    0.1329 C   0  0  0  0  0  0  0  0  0  0  0  0
    3.1947   -0.5683    0.1627 C   0  0  0  0  0  0  0  0  0  0  0  0
    1.8777   -0.1289    0.3428 C   0  0  0  0  0  0  0  0  0  0  0  0
    5.5855   -0.1572   -0.0560 N   0  0  0  0  0  0  0  0  0  0  0  0
    6.7005    0.7321   -0.2415 C   0  0  0  0  0  0  0  0  0  0  0  0
    7.5367    0.6235    1.0209 C   0  0  0  0  0  0  0  0  0  0  0  0
    7.6001   -0.6936    1.4346 O   0  0  0  0  0  0  0  0  0  0  0  0
    7.3792   -1.6209    0.4181 C   0  0  0  0  0  0  0  0  0  0  0  0
    5.9226   -1.5673   -0.0692 C   0  0  0  0  0  0  0  0  0  0  0  0
   -0.9824   -0.0153   -0.3753 N   0  0  0  0  0  0  0  0  0  0  0  0
   -2.1634   -0.5331   -0.7497 C   0  0  0  0  0  0  0  0  0  0  0  0
   -3.7133   -3.2375   -2.0924 H   0  0  0  0  0  0  0  0  0  0  0  0
   -4.6523   -0.7638   -2.9077 H   0  0  0  0  0  0  0  0  0  0  0  0
   -5.6174   -1.8947   -1.9077 H   0  0  0  0  0  0  0  0  0  0  0  0
   -5.0312   -0.0051    1.7702 H   0  0  0  0  0  0  0  0  0  0  0  0
   -7.1642    0.5717    2.9042 H   0  0  0  0  0  0  0  0  0  0  0  0
   -9.1943    0.8144    1.6029 H   0  0  0  0  0  0  0  0  0  0  0  0
   -9.1113    0.4896   -0.8316 H   0  0  0  0  0  0  0  0  0  0  0  0
   -6.9529   -0.0887   -1.9809 H   0  0  0  0  0  0  0  0  0  0  0  0
   -4.1714    1.8064    0.4935 H   0  0  0  0  0  0  0  0  0  0  0  0
    0.2940    2.6715    1.2274 H   0  0  0  0  0  0  0  0  0  0  0  0
    2.4712    3.1632    0.5879 H   0  0  0  0  0  0  0  0  0  0  0  0
    4.7960    2.3847    0.2753 H   0  0  0  0  0  0  0  0  0  0  0  0
    3.3922   -1.6194    0.0426 H   0  0  0  0  0  0  0  0  0  0  0  0
    1.1215   -0.9050    0.3663 H   0  0  0  0  0  0  0  0  0  0  0  0
    7.3409    0.3008   -1.0768 H   0  0  0  0  0  0  0  0  0  0  0  0
    6.4805    1.7416   -0.5556 H   0  0  0  0  0  0  0  0  0  0  0  0
    7.0421    1.2030    1.8230 H   0  0  0  0  0  0  0  0  0  0  0  0
    8.5559    1.0002    0.8448 H   0  0  0  0  0  0  0  0  0  0  0  0
    7.5015   -2.6214    0.8768 H   0  0  0  0  0  0  0  0  0  0  0  0
    8.0771   -1.4837   -0.4129 H   0  0  0  0  0  0  0  0  0  0  0  0
    5.2707   -2.1791    0.5793 H   0  0  0  0  0  0  0  0  0  0  0  0
    5.8622   -1.9946   -1.0907 H   0  0  0  0  0  0  0  0  0  0  0  0
  1  2  2  0
  2  3  1  0
  3  4  1  0
  4  5  1  0
  5  6  1  0
  6  7  2  0
  7  8  1  0
  8  9  2  0
  9 10  1  0
 10 11  2  0
  5 12  1  0
 12 13  2  0
 13 14  1  0
 14 15  2  0
 15 16  1  0
 16 17  1  0
 17 18  2  0
 18 19  1  0
 19 20  2  0
 20 21  1  0
 21 22  2  0
 20 23  1  0
 23 24  1  0
 24 25  1  0
 25 26  1  0
 26 27  1  0
 27 28  1  0
 15 29  1  0
 29 30  2  0
 30  2  1  0
 11  6  1  0
 30 12  1  0
 22 17  1  0
 28 23  1  0
  3 31  1  0
  4 32  1  0
  4 33  1  0
  7 34  1  0
  8 35  1  0
  9 36  1  0
 10 37  1  0
 11 38  1  0
 13 39  1  0
 16 40  1  0
 18 41  1  0
 19 42  1  0
 21 43  1  0
 22 44  1  0
 24 45  1  0
 24 46  1  0
 25 47  1  0
 25 48  1  0
 27 49  1  0
 27 50  1  0
 28 51  1  0
 28 52  1  0
M  END
$$$$
[H]ON([H])C(=O)[C@@]1([H])C([H])([H])N(S(=O)(=O)c2c([H])c([H])c(OC([H])([H])C(F)(F)F)c([H])c2[H])C([H])([H])[C@@]1([H])N(C([H])([H])[H])C([H])([H])C([H])(C([H])([H])[H])C([H])([H])C([H])([H])[H]
     RDKit          3D

 59 60  0  0  0  0  0  0  0  0999 V2000
   -5.0790   -0.6875    1.7507 C   0  0  0  0  0  0  0  0  0  0  0  0
   -4.2752    0.5439    2.1134 C   0  0  0  0  0  0  0  0  0  0  0  0
   -2.8316    0.2430    2.3398 C   0  0  0  0  0  0  0  0  0  0  0  0
   -2.6571   -0.7586    3.4797 C   0  0  0  0  0  0  0  0  0  0  0  0
   -2.1371   -0.2833    1.1075 C   0  0  0  0  0  0  0  0  0  0  0  0
   -2.2182    0.7202    0.0159 N   0  0  0  0  0  0  0  0  0  0  0  0
   -1.3707    1.8071    0.5036 C   0  0  0  0  0  0  0  0  0  0  0  0
   -1.7877    0.1606   -1.2040 C   0  0  2  0  0  0  0  0  0  0  0  0
   -0.3192   -0.2166   -1.2603 C   0  0  0  0  0  0  0  0  0  0  0  0
    0.2890    0.9142   -1.9360 N   0  0  0  0  0  0  0  0  0  0  0  0
   -0.6658    1.5155   -2.7915 C   0  0  0  0  0  0  0  0  0  0  0  0
   -2.0093    0.9164   -2.4648 C   0  0  2  0  0  0  0  0  0  0  0  0
   -3.0103    1.9966   -2.4101 C   0  0  0  0  0  0  0  0  0  0  0  0
   -3.6775    2.1851   -1.3839 O   0  0  0  0  0  0  0  0  0  0  0  0
   -3.2063    2.8155   -3.5370 N   0  0  0  0  0  0  0  0  0  0  0  0
   -4.1189    3.8047   -3.5032 O   0  0  0  0  0  0  0  0  0  0  0  0
    1.7433    0.5454   -2.7368 S   0  0  0  0  0  0  0  0  0  0  0  0
    2.3011    1.7699   -3.4002 O   0  0  0  0  0  0  0  0  0  0  0  0
    1.6029   -0.5223   -3.7759 O   0  0  0  0  0  0  0  0  0  0  0  0
    2.8978   -0.0063   -1.5219 C   0  0  0  0  0  0  0  0  0  0  0  0
    3.0184   -1.3354   -1.1786 C   0  0  0  0  0  0  0  0  0  0  0  0
    3.9221   -1.7758   -0.2296 C   0  0  0  0  0  0  0  0  0  0  0  0
    4.7547   -0.8952    0.4254 C   0  0  0  0  0  0  0  0  0  0  0  0
    5.6752   -1.2972    1.3834 O   0  0  0  0  0  0  0  0  0  0  0  0
    5.7415   -2.6771    1.6851 C   0  0  0  0  0  0  0  0  0  0  0  0
    6.7915   -2.9651    2.7376 C   0  0  0  0  0  0  0  0  0  0  0  0
    6.7861   -4.3245    2.9689 F   0  0  0  0  0  0  0  0  0  0  0  0
    7.9966   -2.5358    2.1924 F   0  0  0  0  0  0  0  0  0  0  0  0
    6.4753   -2.2683    3.8727 F   0  0  0  0  0  0  0  0  0  0  0  0
    4.6266    0.4510    0.0721 C   0  0  0  0  0  0  0  0  0  0  0  0
    3.7262    0.8890   -0.8734 C   0  0  0  0  0  0  0  0  0  0  0  0
   -5.1961   -1.3782    2.6106 H   0  0  0  0  0  0  0  0  0  0  0  0
   -6.0887   -0.3432    1.4422 H   0  0  0  0  0  0  0  0  0  0  0  0
   -4.6325   -1.2266    0.8943 H   0  0  0  0  0  0  0  0  0  0  0  0
   -4.3560    1.2634    1.2742 H   0  0  0  0  0  0  0  0  0  0  0  0
   -4.6855    0.9489    3.0554 H   0  0  0  0  0  0  0  0  0  0  0  0
   -2.3342    1.1705    2.6802 H   0  0  0  0  0  0  0  0  0  0  0  0
   -2.9481   -0.2599    4.4128 H   0  0  0  0  0  0  0  0  0  0  0  0
   -1.5789   -1.0123    3.5474 H   0  0  0  0  0  0  0  0  0  0  0  0
   -3.2227   -1.6900    3.2618 H   0  0  0  0  0  0  0  0  0  0  0  0
   -1.0733   -0.4987    1.3208 H   0  0  0  0  0  0  0  0  0  0  0  0
   -2.5968   -1.2265    0.7532 H   0  0  0  0  0  0  0  0  0  0  0  0
   -2.0366    2.4474    1.1307 H   0  0  0  0  0  0  0  0  0  0  0  0
   -0.5822    1.4224    1.2033 H   0  0  0  0  0  0  0  0  0  0  0  0
   -0.9755    2.4557   -0.2737 H   0  0  0  0  0  0  0  0  0  0  0  0
   -2.3863   -0.8055   -1.3212 H   0  0  0  0  0  0  0  0  0  0  0  0
    0.1305   -0.4679   -0.3066 H   0  0  0  0  0  0  0  0  0  0  0  0
   -0.2100   -1.0879   -1.9365 H   0  0  0  0  0  0  0  0  0  0  0  0
   -0.7190    2.6056   -2.5947 H   0  0  0  0  0  0  0  0  0  0  0  0
   -0.4693    1.3186   -3.8780 H   0  0  0  0  0  0  0  0  0  0  0  0
   -2.2978    0.1915   -3.3111 H   0  0  0  0  0  0  0  0  0  0  0  0
   -2.6631    2.6835   -4.4129 H   0  0  0  0  0  0  0  0  0  0  0  0
   -3.9951    4.3598   -2.6848 H   0  0  0  0  0  0  0  0  0  0  0  0
    2.3787   -2.0310   -1.6780 H   0  0  0  0  0  0  0  0  0  0  0  0
    3.9803   -2.8475    0.0090 H   0  0  0  0  0  0  0  0  0  0  0  0
    4.7470   -2.9761    2.1189 H   0  0  0  0  0  0  0  0  0  0  0  0
    5.8693   -3.2290    0.7556 H   0  0  0  0  0  0  0  0  0  0  0  0
    5.2894    1.1422    0.5963 H   0  0  0  0  0  0  0  0  0  0  0  0
    3.6681    1.9535   -1.1108 H   0  0  0  0  0  0  0  0  0  0  0  0
  1  2  1  0
  2  3  1  0
  3  4  1  0
  3  5  1  0
  5  6  1  0
  6  7  1  0
  6  8  1  0
  8  9  1  0
  9 10  1  0
 10 11  1  0
 11 12  1  0
 12 13  1  0
 13 14  2  0
 13 15  1  0
 15 16  1  0
 10 17  1  0
 17 18  2  0
 17 19  2  0
 17 20  1  0
 20 21  2  0
 21 22  1  0
 22 23  2  0
 23 24  1  0
 24 25  1  0
 25 26  1  0
 26 27  1  0
 26 28  1  0
 26 29  1  0
 23 30  1  0
 30 31  2  0
 12  8  1  0
 31 20  1  0
  1 32  1  0
  1 33  1  0
  1 34  1  0
  2 35  1  0
  2 36  1  0
  3 37  1  0
  4 38  1  0
  4 39  1  0
  4 40  1  0
  5 41  1  0
  5 42  1  0
  7 43  1  0
  7 44  1  0
  7 45  1  0
  8 46  1  6
  9 47  1  0
  9 48  1  0
 11 49  1  0
 11 50  1  0
 12 51  1  6
 15 52  1  0
 16 53  1  0
 21 54  1  0
 22 55  1  0
 25 56  1  0
 25 57  1  0
 30 58  1  0
 31 59  1  0
M  END
$$$$
[H]OC(=O)[C@@]([H])(N([H])C(=O)[C@@]([H])(N([H])C(=O)[C@@]([H])(N([H])C(=O)[C@@]([H])(N([H])C(=O)OC(C([H])([H])[H])(C([H])([H])[H])C([H])([H])[H])C([H])(C([H])([H])[H])C([H])([H])[H])C([H])([H])c1c([H])c([H])c([H])c([H])c1[H])C([H])([H])C([H])(C([H])([H])[H])C([H])([H])[H])C([H])([H])C([H])(C([H])([H])[H])C([H])([H])[H]
     RDKit          3D

 92 92  0  0  0  0  0  0  0  0999 V2000
    5.4889   -3.7306   -2.5804 C   0  0  0  0  0  0  0  0  0  0  0  0
    6.3699   -2.4888   -2.7827 C   0  0  0  0  0  0  0  0  0  0  0  0
    7.7694   -2.8478   -2.5088 C   0  0  0  0  0  0  0  0  0  0  0  0
    5.7741   -1.2685   -2.2591 C   0  0  0  0  0  0  0  0  0  0  0  0
    5.3940   -1.0884   -0.8570 C   0  0  2  0  0  0  0  0  0  0  0  0
    4.7951    0.2617   -0.6456 N   0  0  0  0  0  0  0  0  0  0  0  0
    3.5279    0.4134   -0.0740 C   0  0  0  0  0  0  0  0  0  0  0  0
    2.9182   -0.6631    0.2608 O   0  0  0  0  0  0  0  0  0  0  0  0
    2.8143    1.6815    0.1869 C   0  0  2  0  0  0  0  0  0  0  0  0
    3.6200    2.8088    0.6581 C   0  0  0  0  0  0  0  0  0  0  0  0
    4.3891    2.7250    1.8987 C   0  0  0  0  0  0  0  0  0  0  0  0
    5.0994    4.0861    2.0604 C   0  0  0  0  0  0  0  0  0  0  0  0
    3.6775    2.4878    3.1761 C   0  0  0  0  0  0  0  0  0  0  0  0
    1.5503    1.4419    0.8712 N   0  0  0  0  0  0  0  0  0  0  0  0
    0.2865    1.4275    0.2456 C   0  0  0  0  0  0  0  0  0  0  0  0
    0.3836    1.6528   -1.0496 O   0  0  0  0  0  0  0  0  0  0  0  0
   -1.0339    1.2105    0.7398 C   0  0  2  0  0  0  0  0  0  0  0  0
   -1.4040    1.0917    2.1483 C   0  0  0  0  0  0  0  0  0  0  0  0
   -1.1811    2.2859    3.0026 C   0  0  0  0  0  0  0  0  0  0  0  0
   -2.1342    3.3243    2.9747 C   0  0  0  0  0  0  0  0  0  0  0  0
   -2.0264    4.4326    3.7698 C   0  0  0  0  0  0  0  0  0  0  0  0
   -0.9577    4.5455    4.6258 C   0  0  0  0  0  0  0  0  0  0  0  0
   -0.0067    3.5594    4.6871 C   0  0  0  0  0  0  0  0  0  0  0  0
   -0.1504    2.4695    3.8778 C   0  0  0  0  0  0  0  0  0  0  0  0
   -1.7504    0.2526   -0.1132 N   0  0  0  0  0  0  0  0  0  0  0  0
   -2.9351    0.4903   -0.8042 C   0  0  0  0  0  0  0  0  0  0  0  0
   -3.5166    1.6032   -0.7611 O   0  0  0  0  0  0  0  0  0  0  0  0
   -3.5564   -0.5790   -1.6158 C   0  0  1  0  0  0  0  0  0  0  0  0
   -5.0254   -0.4038   -1.5293 N   0  0  0  0  0  0  0  0  0  0  0  0
   -5.7977   -1.4491   -0.9850 C   0  0  0  0  0  0  0  0  0  0  0  0
   -5.2241   -2.4900   -0.5879 O   0  0  0  0  0  0  0  0  0  0  0  0
   -7.1787   -1.3488   -0.8821 O   0  0  0  0  0  0  0  0  0  0  0  0
   -7.9540   -2.4114   -0.3360 C   0  0  0  0  0  0  0  0  0  0  0  0
   -9.4121   -2.0104   -0.3568 C   0  0  0  0  0  0  0  0  0  0  0  0
   -7.8068   -3.5949   -1.2765 C   0  0  0  0  0  0  0  0  0  0  0  0
   -7.5676   -2.7587    1.0739 C   0  0  0  0  0  0  0  0  0  0  0  0
   -3.2547   -0.4722   -3.0996 C   0  0  0  0  0  0  0  0  0  0  0  0
   -3.9748   -1.6416   -3.7620 C   0  0  0  0  0  0  0  0  0  0  0  0
   -1.8039   -0.5371   -3.4345 C   0  0  0  0  0  0  0  0  0  0  0  0
    6.3704   -1.3122    0.1940 C   0  0  0  0  0  0  0  0  0  0  0  0
    7.0251   -2.4977    0.4041 O   0  0  0  0  0  0  0  0  0  0  0  0
    6.6822   -0.3759    1.0187 O   0  0  0  0  0  0  0  0  0  0  0  0
    6.1173   -4.6446   -2.4021 H   0  0  0  0  0  0  0  0  0  0  0  0
    4.8732   -3.9639   -3.4702 H   0  0  0  0  0  0  0  0  0  0  0  0
    4.7750   -3.5785   -1.7446 H   0  0  0  0  0  0  0  0  0  0  0  0
    6.3101   -2.3679   -3.9371 H   0  0  0  0  0  0  0  0  0  0  0  0
    7.9065   -3.8287   -1.9603 H   0  0  0  0  0  0  0  0  0  0  0  0
    8.3347   -3.0634   -3.4718 H   0  0  0  0  0  0  0  0  0  0  0  0
    8.4053   -2.0362   -2.0535 H   0  0  0  0  0  0  0  0  0  0  0  0
    4.8376   -1.0728   -2.8804 H   0  0  0  0  0  0  0  0  0  0  0  0
    6.4080   -0.3627   -2.5476 H   0  0  0  0  0  0  0  0  0  0  0  0
    4.5307   -1.7792   -0.6140 H   0  0  0  0  0  0  0  0  0  0  0  0
    5.3647    1.0587   -0.9422 H   0  0  0  0  0  0  0  0  0  0  0  0
    2.4672    1.9840   -0.8668 H   0  0  0  0  0  0  0  0  0  0  0  0
    2.9664    3.7088    0.7030 H   0  0  0  0  0  0  0  0  0  0  0  0
    4.3445    3.0636   -0.1780 H   0  0  0  0  0  0  0  0  0  0  0  0
    5.2464    1.9889    1.8664 H   0  0  0  0  0  0  0  0  0  0  0  0
    5.8334    4.2358    1.2530 H   0  0  0  0  0  0  0  0  0  0  0  0
    5.6143    4.1093    3.0419 H   0  0  0  0  0  0  0  0  0  0  0  0
    4.3408    4.8988    2.0692 H   0  0  0  0  0  0  0  0  0  0  0  0
    2.8426    3.2212    3.3460 H   0  0  0  0  0  0  0  0  0  0  0  0
    4.4134    2.7771    3.9911 H   0  0  0  0  0  0  0  0  0  0  0  0
    3.4228    1.4532    3.4099 H   0  0  0  0  0  0  0  0  0  0  0  0
    1.6185    1.2470    1.8694 H   0  0  0  0  0  0  0  0  0  0  0  0
   -1.6135    2.2177    0.4105 H   0  0  0  0  0  0  0  0  0  0  0  0
   -2.5003    0.8347    2.2908 H   0  0  0  0  0  0  0  0  0  0  0  0
   -0.9028    0.2099    2.6682 H   0  0  0  0  0  0  0  0  0  0  0  0
   -2.9627    3.1988    2.2879 H   0  0  0  0  0  0  0  0  0  0  0  0
   -2.7897    5.2160    3.7176 H   0  0  0  0  0  0  0  0  0  0  0  0
   -0.8624    5.4353    5.2699 H   0  0  0  0  0  0  0  0  0  0  0  0
    0.8328    3.6769    5.3789 H   0  0  0  0  0  0  0  0  0  0  0  0
    0.6224    1.6885    3.9526 H   0  0  0  0  0  0  0  0  0  0  0  0
   -1.2859   -0.6950   -0.1768 H   0  0  0  0  0  0  0  0  0  0  0  0
   -3.2745   -1.5601   -1.2265 H   0  0  0  0  0  0  0  0  0  0  0  0
   -5.4910    0.4630   -1.8589 H   0  0  0  0  0  0  0  0  0  0  0  0
   -9.6024   -1.0592    0.1502 H   0  0  0  0  0  0  0  0  0  0  0  0
   -9.9475   -2.7977    0.2526 H   0  0  0  0  0  0  0  0  0  0  0  0
   -9.8146   -2.0534   -1.3953 H   0  0  0  0  0  0  0  0  0  0  0  0
   -7.8328   -3.1943   -2.3167 H   0  0  0  0  0  0  0  0  0  0  0  0
   -8.7504   -4.1996   -1.1970 H   0  0  0  0  0  0  0  0  0  0  0  0
   -6.9152   -4.1988   -1.0877 H   0  0  0  0  0  0  0  0  0  0  0  0
   -6.9147   -3.6606    1.1085 H   0  0  0  0  0  0  0  0  0  0  0  0
   -8.4816   -2.9346    1.6712 H   0  0  0  0  0  0  0  0  0  0  0  0
   -7.0587   -1.8926    1.5617 H   0  0  0  0  0  0  0  0  0  0  0  0
   -3.6942    0.4598   -3.5033 H   0  0  0  0  0  0  0  0  0  0  0  0
   -3.5873   -2.6134   -3.4259 H   0  0  0  0  0  0  0  0  0  0  0  0
   -5.0425   -1.5636   -3.5348 H   0  0  0  0  0  0  0  0  0  0  0  0
   -3.8136   -1.5958   -4.8721 H   0  0  0  0  0  0  0  0  0  0  0  0
   -1.4059   -1.5790   -3.4848 H   0  0  0  0  0  0  0  0  0  0  0  0
   -1.6595   -0.1198   -4.4782 H   0  0  0  0  0  0  0  0  0  0  0  0
   -1.1753    0.0837   -2.7812 H   0  0  0  0  0  0  0  0  0  0  0  0
    6.6670   -3.0972    1.1540 H   0  0  0  0  0  0  0  0  0  0  0  0
  1  2  1  0
  2  3  1  0
  2  4  1  0
  4  5  1  0
  5  6  1  0
  6  7  1  0
  7  8  2  0
  7  9  1  0
  9 10  1  0
 10 11  1  0
 11 12  1  0
 11 13  1  0
  9 14  1  0
 14 15  1  0
 15 16  2  0
 15 17  1  0
 17 18  1  0
 18 19  1  0
 19 20  2  0
 20 21  1  0
 21 22  2  0
 22 23  1  0
 23 24  2  0
 17 25  1  0
 25 26  1  0
 26 27  2  0
 26 28  1  0
 28 29  1  0
 29 30  1  0
 30 31  2  0
 30 32  1  0
 32 33  1  0
 33 34  1  0
 33 35  1  0
 33 36  1  0
 28 37  1  0
 37 38  1  0
 37 39  1  0
  5 40  1  0
 40 41  1  0
 40 42  2  0
 24 19  1  0
  1 43  1  0
  1 44  1  0
  1 45  1  0
  2 46  1  0
  3 47  1  0
  3 48  1  0
  3 49  1  0
  4 50  1  0
  4 51  1  0
  5 52  1  1
  6 53  1  0
  9 54  1  6
 10 55  1  0
 10 56  1  0
 11 57  1  0
 12 58  1  0
 12 59  1  0
 12 60  1  0
 13 61  1  0
 13 62  1  0
 13 63  1  0
 14 64  1  0
 17 65  1  6
 18 66  1  0
 18 67  1  0
 20 68  1  0
 21 69  1  0
 22 70  1  0
 23 71  1  0
 24 72  1  0
 25 73  1  0
 28 74  1  1
 29 75  1  0
 34 76  1  0
 34 77  1  0
 34 78  1  0
 35 79  1  0
 35 80  1  0
 35 81  1  0
 36 82  1  0
 36 83  1  0
 36 84  1  0
 37 85  1  0
 38 86  1  0
 38 87  1  0
 38 88  1  0
 39 89  1  0
 39 90  1  0
 39 91  1  0
 41 92  1  0
M  END
$$$$
[H]c1c(C#CC([H])([H])N([H])C(=O)C([H])([H])N2C([H])([H])C([H])([H])N([H])C([H])([H])C2([H])[H])c([H])c2c(nc([H])c3nc(C([H])([H])[H])n(C([H])([H])C([H])([H])[H])c32)c1[H]
     RDKit          3D

 55 58  0  0  0  0  0  0  0  0999 V2000
   -5.1878   -1.9849   -1.2618 C   0  0  0  0  0  0  0  0  0  0  0  0
   -5.4903   -1.3961    0.0963 C   0  0  0  0  0  0  0  0  0  0  0  0
   -5.9604   -0.0596    0.0804 N   0  0  0  0  0  0  0  0  0  0  0  0
   -7.3060    0.1886   -0.0902 C   0  0  0  0  0  0  0  0  0  0  0  0
   -8.3726   -0.8230   -0.3592 C   0  0  0  0  0  0  0  0  0  0  0  0
   -7.5508    1.4972   -0.0087 N   0  0  0  0  0  0  0  0  0  0  0  0
   -6.3942    2.1174    0.2095 C   0  0  0  0  0  0  0  0  0  0  0  0
   -6.0723    3.4561    0.3956 C   0  0  0  0  0  0  0  0  0  0  0  0
   -4.8040    3.7786    0.6229 N   0  0  0  0  0  0  0  0  0  0  0  0
   -3.8115    2.8659    0.6779 C   0  0  0  0  0  0  0  0  0  0  0  0
   -2.5185    3.2904    0.8771 C   0  0  0  0  0  0  0  0  0  0  0  0
   -1.5362    2.3813    0.8843 C   0  0  0  0  0  0  0  0  0  0  0  0
   -1.8101    1.0217    0.6933 C   0  0  0  0  0  0  0  0  0  0  0  0
   -3.1213    0.5709    0.4965 C   0  0  0  0  0  0  0  0  0  0  0  0
   -4.1046    1.5232    0.4937 C   0  0  0  0  0  0  0  0  0  0  0  0
   -5.4094    1.1499    0.2614 C   0  0  0  0  0  0  0  0  0  0  0  0
   -0.7344    0.1214    0.5752 C   0  0  0  0  0  0  0  0  0  0  0  0
    0.2142   -0.5335    0.4074 C   0  0  0  0  0  0  0  0  0  0  0  0
    1.3563   -1.1514    0.1156 C   0  0  0  0  0  0  0  0  0  0  0  0
    2.5077   -1.7802   -0.1811 N   0  0  0  0  0  0  0  0  0  0  0  0
    3.7723   -1.1205    0.0580 C   0  0  0  0  0  0  0  0  0  0  0  0
    3.6410    0.0543    0.5881 O   0  0  0  0  0  0  0  0  0  0  0  0
    5.0999   -1.5768   -0.2110 C   0  0  0  0  0  0  0  0  0  0  0  0
    6.1356   -0.6807    0.1323 N   0  0  0  0  0  0  0  0  0  0  0  0
    6.2855    0.5245   -0.5940 C   0  0  0  0  0  0  0  0  0  0  0  0
    7.5311    1.2795   -0.0667 C   0  0  0  0  0  0  0  0  0  0  0  0
    8.6431    0.4612   -0.4383 N   0  0  0  0  0  0  0  0  0  0  0  0
    8.5475   -0.9212   -0.0678 C   0  0  0  0  0  0  0  0  0  0  0  0
    7.2851   -1.2798    0.6865 C   0  0  0  0  0  0  0  0  0  0  0  0
   -4.2253   -2.5432   -1.2567 H   0  0  0  0  0  0  0  0  0  0  0  0
   -5.0396   -1.1966   -2.0539 H   0  0  0  0  0  0  0  0  0  0  0  0
   -5.9449   -2.6649   -1.6600 H   0  0  0  0  0  0  0  0  0  0  0  0
   -4.8067   -1.7161    0.9111 H   0  0  0  0  0  0  0  0  0  0  0  0
   -6.4023   -2.0515    0.4234 H   0  0  0  0  0  0  0  0  0  0  0  0
   -9.3219   -0.3092   -0.6319 H   0  0  0  0  0  0  0  0  0  0  0  0
   -8.6110   -1.4075    0.5493 H   0  0  0  0  0  0  0  0  0  0  0  0
   -8.0957   -1.4511   -1.2138 H   0  0  0  0  0  0  0  0  0  0  0  0
   -6.8537    4.1743    0.3467 H   0  0  0  0  0  0  0  0  0  0  0  0
   -2.3342    4.3567    1.0221 H   0  0  0  0  0  0  0  0  0  0  0  0
   -0.5314    2.6969    1.0353 H   0  0  0  0  0  0  0  0  0  0  0  0
   -3.2220   -0.4567    0.3558 H   0  0  0  0  0  0  0  0  0  0  0  0
    1.9012   -0.8294    1.3514 H   0  0  0  0  0  0  0  0  0  0  0  0
    0.9864   -2.2610    0.8954 H   0  0  0  0  0  0  0  0  0  0  0  0
    2.6201   -2.7588   -0.6046 H   0  0  0  0  0  0  0  0  0  0  0  0
    5.3190   -2.5560    0.3062 H   0  0  0  0  0  0  0  0  0  0  0  0
    5.2562   -1.8737   -1.3041 H   0  0  0  0  0  0  0  0  0  0  0  0
    6.4754    0.3940   -1.6740 H   0  0  0  0  0  0  0  0  0  0  0  0
    5.4524    1.2574   -0.4212 H   0  0  0  0  0  0  0  0  0  0  0  0
    7.5639    2.2480   -0.5778 H   0  0  0  0  0  0  0  0  0  0  0  0
    7.4108    1.4380    0.9985 H   0  0  0  0  0  0  0  0  0  0  0  0
    8.8260    0.6131   -1.4644 H   0  0  0  0  0  0  0  0  0  0  0  0
    9.3986   -1.1429    0.6278 H   0  0  0  0  0  0  0  0  0  0  0  0
    8.6950   -1.5912   -0.9493 H   0  0  0  0  0  0  0  0  0  0  0  0
    7.1865   -2.3828    0.6257 H   0  0  0  0  0  0  0  0  0  0  0  0
    7.4623   -0.9603    1.7530 H   0  0  0  0  0  0  0  0  0  0  0  0
  1  2  1  0
  2  3  1  0
  3  4  1  0
  4  5  1  0
  4  6  2  0
  6  7  1  0
  7  8  2  0
  8  9  1  0
  9 10  2  0
 10 11  1  0
 11 12  2  0
 12 13  1  0
 13 14  2  0
 14 15  1  0
 15 16  2  0
 13 17  1  0
 17 18  3  0
 18 19  1  0
 19 20  1  0
 20 21  1  0
 21 22  2  0
 21 23  1  0
 23 24  1  0
 24 25  1  0
 25 26  1  0
 26 27  1  0
 27 28  1  0
 28 29  1  0
 16  3  1  0
 29 24  1  0
 16  7  1  0
 15 10  1  0
  1 30  1  0
  1 31  1  0
  1 32  1  0
  2 33  1  0
  2 34  1  0
  5 35  1  0
  5 36  1  0
  5 37  1  0
  8 38  1  0
 11 39  1  0
 12 40  1  0
 14 41  1  0
 19 42  1  0
 19 43  1  0
 20 44  1  0
 23 45  1  0
 23 46  1  0
 25 47  1  0
 25 48  1  0
 26 49  1  0
 26 50  1  0
 27 51  1  0
 28 52  1  0
 28 53  1  0
 29 54  1  0
 29 55  1  0
M  END
$$$$
[H]OC(=O)C([H])([H])[C@@]1([H])C([H])([H])C(=O)N2C([H])([H])C([H])([H])c3c([H])c(C(=O)N([H])c4c([H])c([H])c([H])c(Cl)c4[H])c([H])c([H])c3[C@@]2([H])C1([H])[H]
     RDKit          3D

 50 53  0  0  0  0  0  0  0  0999 V2000
   -7.7247   -1.5942   -0.7436 O   0  0  0  0  0  0  0  0  0  0  0  0
   -6.6510   -0.7514   -0.9733 C   0  0  0  0  0  0  0  0  0  0  0  0
   -6.8200    0.2099   -1.7512 O   0  0  0  0  0  0  0  0  0  0  0  0
   -5.3651   -0.9884   -0.3208 C   0  0  0  0  0  0  0  0  0  0  0  0
   -4.3590    0.0711   -0.7138 C   0  0  2  0  0  0  0  0  0  0  0  0
   -3.0623   -0.2497   -0.0042 C   0  0  0  0  0  0  0  0  0  0  0  0
   -2.1097    0.9002   -0.2572 C   0  0  1  0  0  0  0  0  0  0  0  0
   -2.6065    1.9994    0.5467 N   0  0  0  0  0  0  0  0  0  0  0  0
   -1.7428    2.7848    1.3710 C   0  0  0  0  0  0  0  0  0  0  0  0
   -0.7186    1.9319    2.1021 C   0  0  0  0  0  0  0  0  0  0  0  0
   -0.0507    1.0599    1.0678 C   0  0  0  0  0  0  0  0  0  0  0  0
    1.2750    0.7222    1.2227 C   0  0  0  0  0  0  0  0  0  0  0  0
    1.9447   -0.0840    0.2955 C   0  0  0  0  0  0  0  0  0  0  0  0
    1.2943   -0.5696   -0.8102 C   0  0  0  0  0  0  0  0  0  0  0  0
   -0.0529   -0.2164   -0.9521 C   0  0  0  0  0  0  0  0  0  0  0  0
   -0.7044    0.5762   -0.0373 C   0  0  0  0  0  0  0  0  0  0  0  0
    3.3582   -0.4095    0.5328 C   0  0  0  0  0  0  0  0  0  0  0  0
    3.7774   -0.2904    1.6947 O   0  0  0  0  0  0  0  0  0  0  0  0
    4.1913   -0.8341   -0.5102 N   0  0  0  0  0  0  0  0  0  0  0  0
    5.5587   -1.1886   -0.4473 C   0  0  0  0  0  0  0  0  0  0  0  0
    6.2344   -1.3614   -1.6679 C   0  0  0  0  0  0  0  0  0  0  0  0
    7.5601   -1.7170   -1.7282 C   0  0  0  0  0  0  0  0  0  0  0  0
    8.2453   -1.9092   -0.5701 C   0  0  0  0  0  0  0  0  0  0  0  0
    7.5987   -1.7441    0.6310 C   0  0  0  0  0  0  0  0  0  0  0  0
    8.4807   -1.9912    2.1103 Cl  0  0  0  0  0  0  0  0  0  0  0  0
    6.2656   -1.3867    0.6943 C   0  0  0  0  0  0  0  0  0  0  0  0
   -4.0024    2.2500    0.4714 C   0  0  0  0  0  0  0  0  0  0  0  0
   -4.4813    3.2020    1.1149 O   0  0  0  0  0  0  0  0  0  0  0  0
   -4.9165    1.4141   -0.3509 C   0  0  0  0  0  0  0  0  0  0  0  0
   -7.5529   -2.5443   -0.4371 H   0  0  0  0  0  0  0  0  0  0  0  0
   -5.5136   -0.9058    0.7844 H   0  0  0  0  0  0  0  0  0  0  0  0
   -4.9628   -2.0203   -0.5254 H   0  0  0  0  0  0  0  0  0  0  0  0
   -4.1689   -0.0474   -1.8054 H   0  0  0  0  0  0  0  0  0  0  0  0
   -3.3018   -0.3289    1.0884 H   0  0  0  0  0  0  0  0  0  0  0  0
   -2.6929   -1.2086   -0.4225 H   0  0  0  0  0  0  0  0  0  0  0  0
   -2.3144    1.2137   -1.3249 H   0  0  0  0  0  0  0  0  0  0  0  0
   -2.2581    3.3773    2.1320 H   0  0  0  0  0  0  0  0  0  0  0  0
   -1.1823    3.4946    0.7163 H   0  0  0  0  0  0  0  0  0  0  0  0
   -1.1465    1.3489    2.9193 H   0  0  0  0  0  0  0  0  0  0  0  0
    0.0233    2.6285    2.5386 H   0  0  0  0  0  0  0  0  0  0  0  0
    1.7972    1.0981    2.0887 H   0  0  0  0  0  0  0  0  0  0  0  0
    1.7808   -1.1976   -1.5409 H   0  0  0  0  0  0  0  0  0  0  0  0
   -0.5511   -0.6146   -1.8409 H   0  0  0  0  0  0  0  0  0  0  0  0
    3.7260   -0.8969   -1.4875 H   0  0  0  0  0  0  0  0  0  0  0  0
    5.7164   -1.2150   -2.5951 H   0  0  0  0  0  0  0  0  0  0  0  0
    8.0944   -1.8540   -2.6607 H   0  0  0  0  0  0  0  0  0  0  0  0
    9.2846   -2.1881   -0.5758 H   0  0  0  0  0  0  0  0  0  0  0  0
    5.8266   -1.2836    1.6641 H   0  0  0  0  0  0  0  0  0  0  0  0
   -5.8758    1.3623    0.2023 H   0  0  0  0  0  0  0  0  0  0  0  0
   -5.1449    1.9460   -1.3196 H   0  0  0  0  0  0  0  0  0  0  0  0
  1  2  1  0
  2  3  2  0
  2  4  1  0
  4  5  1  0
  5  6  1  0
  6  7  1  0
  7  8  1  0
  8  9  1  0
  9 10  1  0
 10 11  1  0
 11 12  2  0
 12 13  1  0
 13 14  2  0
 14 15  1  0
 15 16  2  0
 13 17  1  0
 17 18  2  0
 17 19  1  0
 19 20  1  0
 20 21  2  0
 21 22  1  0
 22 23  2  0
 23 24  1  0
 24 25  1  0
 24 26  2  0
  8 27  1  0
 27 28  2  0
 27 29  1  0
 29  5  1  0
 16  7  1  0
 26 20  1  0
 16 11  1  0
  1 30  1  0
  4 31  1  0
  4 32  1  0
  5 33  1  6
  6 34  1  0
  6 35  1  0
  7 36  1  6
  9 37  1  0
  9 38  1  0
 10 39  1  0
 10 40  1  0
 12 41  1  0
 14 42  1  0
 15 43  1  0
 19 44  1  0
 21 45  1  0
 22 46  1  0
 23 47  1  0
 26 48  1  0
 29 49  1  0
 29 50  1  0
M  END
$$$$
[H]OC(C(=O)N([H])C([H])([H])C([H])([H])C([H])([H])C([H])([H])N(c1c([H])c([H])c(Cl)c([H])c1[H])C([H])([H])[H])(C(F)(F)F)C([H])(C([H])([H])C([H])([H])[H])C([H])([H])C([H])([H])[H]
     RDKit          3D

 55 55  0  0  0  0  0  0  0  0999 V2000
   -6.8333    0.4874    0.6499 C   0  0  0  0  0  0  0  0  0  0  0  0
   -5.5590    0.8167    1.2714 C   0  0  0  0  0  0  0  0  0  0  0  0
   -4.2701    0.5415    0.6438 C   0  0  0  0  0  0  0  0  0  0  0  0
   -4.0567    1.2347   -0.6849 C   0  0  0  0  0  0  0  0  0  0  0  0
   -5.0500    0.9024   -1.7508 C   0  0  0  0  0  0  0  0  0  0  0  0
   -3.6996   -0.8202    0.6200 C   0  0  0  0  0  0  0  0  0  0  0  0
   -4.5839   -1.6495   -0.0715 O   0  0  0  0  0  0  0  0  0  0  0  0
   -2.4337   -0.8522   -0.1494 C   0  0  0  0  0  0  0  0  0  0  0  0
   -2.2988   -1.4982   -1.2077 O   0  0  0  0  0  0  0  0  0  0  0  0
   -1.2553   -0.1453    0.2533 N   0  0  0  0  0  0  0  0  0  0  0  0
   -0.0138   -0.1484   -0.4651 C   0  0  0  0  0  0  0  0  0  0  0  0
    0.9692    0.7161    0.2737 C   0  0  0  0  0  0  0  0  0  0  0  0
    2.3054    0.8511   -0.3463 C   0  0  0  0  0  0  0  0  0  0  0  0
    3.0757   -0.4232   -0.5362 C   0  0  0  0  0  0  0  0  0  0  0  0
    4.3691   -0.1214   -1.1498 N   0  0  0  0  0  0  0  0  0  0  0  0
    4.3409    0.3644   -2.5190 C   0  0  0  0  0  0  0  0  0  0  0  0
    5.6051   -0.2978   -0.4742 C   0  0  0  0  0  0  0  0  0  0  0  0
    5.9645    0.5527    0.5573 C   0  0  0  0  0  0  0  0  0  0  0  0
    7.1812    0.3837    1.2002 C   0  0  0  0  0  0  0  0  0  0  0  0
    8.0697   -0.6090    0.8570 C   0  0  0  0  0  0  0  0  0  0  0  0
    9.6112   -0.8103    1.6879 Cl  0  0  0  0  0  0  0  0  0  0  0  0
    7.7158   -1.4587   -0.1720 C   0  0  0  0  0  0  0  0  0  0  0  0
    6.4908   -1.2907   -0.8207 C   0  0  0  0  0  0  0  0  0  0  0  0
   -3.5595   -1.5066    1.9538 C   0  0  0  0  0  0  0  0  0  0  0  0
   -2.9927   -2.7697    1.6810 F   0  0  0  0  0  0  0  0  0  0  0  0
   -4.7757   -1.8920    2.4946 F   0  0  0  0  0  0  0  0  0  0  0  0
   -2.7079   -0.9176    2.8303 F   0  0  0  0  0  0  0  0  0  0  0  0
   -6.8718   -0.2631   -0.1251 H   0  0  0  0  0  0  0  0  0  0  0  0
   -7.5835    0.1376    1.4267 H   0  0  0  0  0  0  0  0  0  0  0  0
   -7.3616    1.3918    0.2357 H   0  0  0  0  0  0  0  0  0  0  0  0
   -5.5647    1.9521    1.4343 H   0  0  0  0  0  0  0  0  0  0  0  0
   -5.5508    0.4584    2.3321 H   0  0  0  0  0  0  0  0  0  0  0  0
   -3.5435    1.1135    1.3175 H   0  0  0  0  0  0  0  0  0  0  0  0
   -4.0860    2.3469   -0.5794 H   0  0  0  0  0  0  0  0  0  0  0  0
   -3.0596    1.0091   -1.1049 H   0  0  0  0  0  0  0  0  0  0  0  0
   -4.5629    1.2138   -2.7260 H   0  0  0  0  0  0  0  0  0  0  0  0
   -5.9747    1.5214   -1.7136 H   0  0  0  0  0  0  0  0  0  0  0  0
   -5.2611   -0.1764   -1.8854 H   0  0  0  0  0  0  0  0  0  0  0  0
   -4.1367   -2.2549   -0.7182 H   0  0  0  0  0  0  0  0  0  0  0  0
   -1.3401    0.3958    1.1304 H   0  0  0  0  0  0  0  0  0  0  0  0
   -0.1616    0.1691   -1.4983 H   0  0  0  0  0  0  0  0  0  0  0  0
    0.4057   -1.1893   -0.4521 H   0  0  0  0  0  0  0  0  0  0  0  0
    0.5181    1.7556    0.3009 H   0  0  0  0  0  0  0  0  0  0  0  0
    1.0449    0.3294    1.3083 H   0  0  0  0  0  0  0  0  0  0  0  0
    2.9252    1.4837    0.3432 H   0  0  0  0  0  0  0  0  0  0  0  0
    2.2614    1.3868   -1.3237 H   0  0  0  0  0  0  0  0  0  0  0  0
    3.3172   -0.9055    0.4534 H   0  0  0  0  0  0  0  0  0  0  0  0
    2.5743   -1.1751   -1.1619 H   0  0  0  0  0  0  0  0  0  0  0  0
    3.8175   -0.3792   -3.1564 H   0  0  0  0  0  0  0  0  0  0  0  0
    5.3631    0.4664   -2.9358 H   0  0  0  0  0  0  0  0  0  0  0  0
    3.8614    1.3672   -2.5828 H   0  0  0  0  0  0  0  0  0  0  0  0
    5.3101    1.3432    0.8680 H   0  0  0  0  0  0  0  0  0  0  0  0
    7.4332    1.0588    1.9996 H   0  0  0  0  0  0  0  0  0  0  0  0
    8.3987   -2.2364   -0.4528 H   0  0  0  0  0  0  0  0  0  0  0  0
    6.2193   -1.9607   -1.6280 H   0  0  0  0  0  0  0  0  0  0  0  0
  1  2  1  0
  2  3  1  0
  3  4  1  0
  4  5  1  0
  3  6  1  0
  6  7  1  0
  6  8  1  0
  8  9  2  0
  8 10  1  0
 10 11  1  0
 11 12  1  0
 12 13  1  0
 13 14  1  0
 14 15  1  0
 15 16  1  0
 15 17  1  0
 17 18  2  0
 18 19  1  0
 19 20  2  0
 20 21  1  0
 20 22  1  0
 22 23  2  0
  6 24  1  0
 24 25  1  0
 24 26  1  0
 24 27  1  0
 23 17  1  0
  1 28  1  0
  1 29  1  0
  1 30  1  0
  2 31  1  0
  2 32  1  0
  3 33  1  0
  4 34  1  0
  4 35  1  0
  5 36  1  0
  5 37  1  0
  5 38  1  0
  7 39  1  0
 10 40  1  0
 11 41  1  0
 11 42  1  0
 12 43  1  0
 12 44  1  0
 13 45  1  0
 13 46  1  0
 14 47  1  0
 14 48  1  0
 16 49  1  0
 16 50  1  0
 16 51  1  0
 18 52  1  0
 19 53  1  0
 22 54  1  0
 23 55  1  0
M  END
$$$$
[H]c1nc(OC([H])([H])[H])c(N([H])S(=O)(=O)C([H])([H])[H])c([H])c1-c1c([H])c(C([H])([H])[H])c2nc(N3C([H])([H])C([H])([H])OC([H])([H])C3([H])[H])n([H])c2c1[H]
     RDKit          3D

 52 55  0  0  0  0  0  0  0  0999 V2000
    6.2633    3.5422    0.2678 C   0  0  0  0  0  0  0  0  0  0  0  0
    5.8926    2.2857   -0.2224 O   0  0  0  0  0  0  0  0  0  0  0  0
    4.5862    1.8262   -0.1113 C   0  0  0  0  0  0  0  0  0  0  0  0
    3.6005    2.5346    0.4613 N   0  0  0  0  0  0  0  0  0  0  0  0
    2.3410    2.0793    0.5627 C   0  0  0  0  0  0  0  0  0  0  0  0
    2.0361    0.8491    0.0683 C   0  0  0  0  0  0  0  0  0  0  0  0
    3.0477    0.1057   -0.5272 C   0  0  0  0  0  0  0  0  0  0  0  0
    4.3217    0.5478   -0.6379 C   0  0  0  0  0  0  0  0  0  0  0  0
    5.3461   -0.1967   -1.2549 N   0  0  0  0  0  0  0  0  0  0  0  0
    5.5738   -1.8798   -1.2500 S   0  0  0  0  0  0  0  0  0  0  0  0
    7.0800   -2.2917   -0.3442 C   0  0  0  0  0  0  0  0  0  0  0  0
    4.4487   -2.5822   -0.5948 O   0  0  0  0  0  0  0  0  0  0  0  0
    5.7499   -2.3968   -2.6663 O   0  0  0  0  0  0  0  0  0  0  0  0
    0.6990    0.2728    0.1308 C   0  0  0  0  0  0  0  0  0  0  0  0
    0.5306   -1.0911    0.2349 C   0  0  0  0  0  0  0  0  0  0  0  0
   -0.7001   -1.7101    0.2974 C   0  0  0  0  0  0  0  0  0  0  0  0
   -0.8513   -3.1878    0.4100 C   0  0  0  0  0  0  0  0  0  0  0  0
   -1.8152   -0.8863    0.2506 C   0  0  0  0  0  0  0  0  0  0  0  0
   -3.1349   -1.1542    0.2877 N   0  0  0  0  0  0  0  0  0  0  0  0
   -3.8582   -0.0189    0.2121 C   0  0  0  0  0  0  0  0  0  0  0  0
   -2.9609    0.9781    0.1261 N   0  0  0  0  0  0  0  0  0  0  0  0
   -1.7083    0.4851    0.1468 C   0  0  0  0  0  0  0  0  0  0  0  0
   -0.4460    1.0395    0.0887 C   0  0  0  0  0  0  0  0  0  0  0  0
   -5.2902    0.0808    0.2225 N   0  0  0  0  0  0  0  0  0  0  0  0
   -6.0779   -1.1130    0.3201 C   0  0  0  0  0  0  0  0  0  0  0  0
   -7.3517   -0.9405   -0.5005 C   0  0  0  0  0  0  0  0  0  0  0  0
   -7.9764    0.2022   -0.0448 O   0  0  0  0  0  0  0  0  0  0  0  0
   -7.2973    1.3512   -0.3954 C   0  0  0  0  0  0  0  0  0  0  0  0
   -5.8744    1.3825    0.1338 C   0  0  0  0  0  0  0  0  0  0  0  0
    6.3062    4.2411   -0.5742 H   0  0  0  0  0  0  0  0  0  0  0  0
    5.5608    3.9440    1.0200 H   0  0  0  0  0  0  0  0  0  0  0  0
    7.3038    3.4893    0.6862 H   0  0  0  0  0  0  0  0  0  0  0  0
    1.5954    2.6918    1.0316 H   0  0  0  0  0  0  0  0  0  0  0  0
    2.8115   -0.8916   -0.9434 H   0  0  0  0  0  0  0  0  0  0  0  0
    6.0605    0.3776   -1.7877 H   0  0  0  0  0  0  0  0  0  0  0  0
    7.1434   -1.7334    0.5978 H   0  0  0  0  0  0  0  0  0  0  0  0
    7.9682   -2.0889   -0.9708 H   0  0  0  0  0  0  0  0  0  0  0  0
    7.0759   -3.3713   -0.1007 H   0  0  0  0  0  0  0  0  0  0  0  0
    1.3947   -1.7700    0.2742 H   0  0  0  0  0  0  0  0  0  0  0  0
   -1.4599   -3.4923    1.2687 H   0  0  0  0  0  0  0  0  0  0  0  0
    0.1617   -3.6375    0.4036 H   0  0  0  0  0  0  0  0  0  0  0  0
   -1.3642   -3.5540   -0.5124 H   0  0  0  0  0  0  0  0  0  0  0  0
   -3.2132    1.9928    0.0535 H   0  0  0  0  0  0  0  0  0  0  0  0
   -0.3361    2.1057    0.0077 H   0  0  0  0  0  0  0  0  0  0  0  0
   -5.5557   -2.0263    0.0203 H   0  0  0  0  0  0  0  0  0  0  0  0
   -6.3837   -1.2093    1.3986 H   0  0  0  0  0  0  0  0  0  0  0  0
   -8.0285   -1.7972   -0.3711 H   0  0  0  0  0  0  0  0  0  0  0  0
   -7.0649   -0.8812   -1.5825 H   0  0  0  0  0  0  0  0  0  0  0  0
   -7.8582    2.2095    0.0234 H   0  0  0  0  0  0  0  0  0  0  0  0
   -7.2151    1.4286   -1.5056 H   0  0  0  0  0  0  0  0  0  0  0  0
   -5.2371    1.9944   -0.5525 H   0  0  0  0  0  0  0  0  0  0  0  0
   -5.8400    1.8642    1.1480 H   0  0  0  0  0  0  0  0  0  0  0  0
  1  2  1  0
  2  3  1  0
  3  4  2  0
  4  5  1  0
  5  6  2  0
  6  7  1  0
  7  8  2  0
  8  9  1  0
  9 10  1  0
 10 11  1  0
 10 12  2  0
 10 13  2  0
  6 14  1  0
 14 15  2  0
 15 16  1  0
 16 17  1  0
 16 18  2  0
 18 19  1  0
 19 20  2  0
 20 21  1  0
 21 22  1  0
 22 23  2  0
 20 24  1  0
 24 25  1  0
 25 26  1  0
 26 27  1  0
 27 28  1  0
 28 29  1  0
  8  3  1  0
 23 14  1  0
 29 24  1  0
 22 18  1  0
  1 30  1  0
  1 31  1  0
  1 32  1  0
  5 33  1  0
  7 34  1  0
  9 35  1  0
 11 36  1  0
 11 37  1  0
 11 38  1  0
 15 39  1  0
 17 40  1  0
 17 41  1  0
 17 42  1  0
 21 43  1  0
 23 44  1  0
 25 45  1  0
 25 46  1  0
 26 47  1  0
 26 48  1  0
 28 49  1  0
 28 50  1  0
 29 51  1  0
 29 52  1  0
M  END
$$$$
[H]c1c([H])c(-c2nc(C#N)nc3c2nc(C([H])([H])C([H])([H])C([H])([H])[H])n3C([H])([H])[C@]2([H])OC([H])([H])C([H])([H])N([H])C2([H])[H])c([H])c([H])c1OC([H])([H])C([H])([H])[H]
     RDKit          3D

 56 59  0  0  0  0  0  0  0  0999 V2000
   -1.7180   -1.0210   -3.4482 C   0  0  0  0  0  0  0  0  0  0  0  0
   -0.7739   -2.0438   -2.9509 C   0  0  0  0  0  0  0  0  0  0  0  0
   -0.9617   -2.5267   -1.5518 C   0  0  0  0  0  0  0  0  0  0  0  0
   -0.8528   -1.4431   -0.5777 C   0  0  0  0  0  0  0  0  0  0  0  0
    0.3901   -0.9448   -0.2522 N   0  0  0  0  0  0  0  0  0  0  0  0
    0.2412   -0.0480    0.7044 C   0  0  0  0  0  0  0  0  0  0  0  0
    1.1377    0.7603    1.4041 C   0  0  0  0  0  0  0  0  0  0  0  0
    0.6131    1.5753    2.3326 N   0  0  0  0  0  0  0  0  0  0  0  0
   -0.6991    1.6490    2.6139 C   0  0  0  0  0  0  0  0  0  0  0  0
   -1.5393    0.8596    1.9251 N   0  0  0  0  0  0  0  0  0  0  0  0
   -1.0819    0.0211    0.9826 C   0  0  0  0  0  0  0  0  0  0  0  0
   -1.7775   -0.8578    0.1769 N   0  0  0  0  0  0  0  0  0  0  0  0
   -3.1919   -1.0294    0.2569 C   0  0  0  0  0  0  0  0  0  0  0  0
   -4.0545   -0.0962   -0.5185 C   0  0  1  0  0  0  0  0  0  0  0  0
   -5.5137   -0.4432   -0.2803 C   0  0  0  0  0  0  0  0  0  0  0  0
   -6.0859    0.3135    0.8033 N   0  0  0  0  0  0  0  0  0  0  0  0
   -5.8611    1.7324    0.7025 C   0  0  0  0  0  0  0  0  0  0  0  0
   -4.9153    2.0355   -0.4280 C   0  0  0  0  0  0  0  0  0  0  0  0
   -3.7893    1.2406   -0.2517 O   0  0  0  0  0  0  0  0  0  0  0  0
   -1.2006    2.5570    3.6351 C   0  0  0  0  0  0  0  0  0  0  0  0
   -1.6101    3.2885    4.4330 N   0  0  0  0  0  0  0  0  0  0  0  0
    2.5505    0.6859    1.1037 C   0  0  0  0  0  0  0  0  0  0  0  0
    3.2004   -0.5204    0.9519 C   0  0  0  0  0  0  0  0  0  0  0  0
    4.5455   -0.5118    0.6657 C   0  0  0  0  0  0  0  0  0  0  0  0
    5.2753    0.6459    0.5231 C   0  0  0  0  0  0  0  0  0  0  0  0
    6.6255    0.6301    0.2353 O   0  0  0  0  0  0  0  0  0  0  0  0
    7.3698   -0.5532    0.0644 C   0  0  0  0  0  0  0  0  0  0  0  0
    8.8106   -0.2969   -0.2400 C   0  0  0  0  0  0  0  0  0  0  0  0
    4.6174    1.8461    0.6765 C   0  0  0  0  0  0  0  0  0  0  0  0
    3.2523    1.8632    0.9674 C   0  0  0  0  0  0  0  0  0  0  0  0
   -1.4158   -0.6975   -4.4559 H   0  0  0  0  0  0  0  0  0  0  0  0
   -1.8118   -0.1317   -2.7647 H   0  0  0  0  0  0  0  0  0  0  0  0
   -2.7450   -1.4772   -3.5396 H   0  0  0  0  0  0  0  0  0  0  0  0
   -0.8675   -2.9330   -3.6612 H   0  0  0  0  0  0  0  0  0  0  0  0
    0.2784   -1.6665   -3.0775 H   0  0  0  0  0  0  0  0  0  0  0  0
   -1.9514   -3.0396   -1.5237 H   0  0  0  0  0  0  0  0  0  0  0  0
   -0.2213   -3.3461   -1.3755 H   0  0  0  0  0  0  0  0  0  0  0  0
   -3.5546   -0.9642    1.3361 H   0  0  0  0  0  0  0  0  0  0  0  0
   -3.4668   -2.1053    0.0008 H   0  0  0  0  0  0  0  0  0  0  0  0
   -3.9029   -0.2409   -1.5948 H   0  0  0  0  0  0  0  0  0  0  0  0
   -6.1110   -0.3439   -1.2092 H   0  0  0  0  0  0  0  0  0  0  0  0
   -5.5424   -1.5159    0.0017 H   0  0  0  0  0  0  0  0  0  0  0  0
   -7.1226    0.1591    0.7664 H   0  0  0  0  0  0  0  0  0  0  0  0
   -6.8273    2.3069    0.5963 H   0  0  0  0  0  0  0  0  0  0  0  0
   -5.3558    2.0558    1.6433 H   0  0  0  0  0  0  0  0  0  0  0  0
   -5.3839    1.8526   -1.4272 H   0  0  0  0  0  0  0  0  0  0  0  0
   -4.5801    3.0881   -0.4054 H   0  0  0  0  0  0  0  0  0  0  0  0
    2.6689   -1.4760    1.0543 H   0  0  0  0  0  0  0  0  0  0  0  0
    5.0452   -1.4828    0.5486 H   0  0  0  0  0  0  0  0  0  0  0  0
    7.3092   -1.2375    0.9339 H   0  0  0  0  0  0  0  0  0  0  0  0
    6.9371   -1.1014   -0.7986 H   0  0  0  0  0  0  0  0  0  0  0  0
    8.9823    0.6669   -0.7655 H   0  0  0  0  0  0  0  0  0  0  0  0
    9.3494   -0.1945    0.7370 H   0  0  0  0  0  0  0  0  0  0  0  0
    9.2964   -1.1340   -0.7770 H   0  0  0  0  0  0  0  0  0  0  0  0
    5.1861    2.7514    0.5656 H   0  0  0  0  0  0  0  0  0  0  0  0
    2.8041    2.8394    1.0738 H   0  0  0  0  0  0  0  0  0  0  0  0
  1  2  1  0
  2  3  1  0
  3  4  1  0
  4  5  2  0
  5  6  1  0
  6  7  2  0
  7  8  1  0
  8  9  2  0
  9 10  1  0
 10 11  2  0
 11 12  1  0
 12 13  1  0
 13 14  1  0
 14 15  1  0
 15 16  1  0
 16 17  1  0
 17 18  1  0
 18 19  1  0
  9 20  1  0
 20 21  3  0
  7 22  1  0
 22 23  2  0
 23 24  1  0
 24 25  2  0
 25 26  1  0
 26 27  1  0
 27 28  1  0
 25 29  1  0
 29 30  2  0
 12  4  1  0
 19 14  1  0
 30 22  1  0
 11  6  1  0
  1 31  1  0
  1 32  1  0
  1 33  1  0
  2 34  1  0
  2 35  1  0
  3 36  1  0
  3 37  1  0
 13 38  1  0
 13 39  1  0
 14 40  1  6
 15 41  1  0
 15 42  1  0
 16 43  1  0
 17 44  1  0
 17 45  1  0
 18 46  1  0
 18 47  1  0
 23 48  1  0
 24 49  1  0
 27 50  1  0
 27 51  1  0
 28 52  1  0
 28 53  1  0
 28 54  1  0
 29 55  1  0
 30 56  1  0
M  END
$$$$
[H]Oc1c([H])c([H])c([H])c(-c2nnc(N([H])C(=O)c3c([H])c([H])c(N4C([H])([H])C([H])([H])N(C([H])([H])[H])C([H])([H])C4([H])[H])c([H])c3[H])n2-c2c([H])c([H])c(S(=O)(=O)N([H])[H])c([H])c2[H])c1[H]
     RDKit          3D

 65 69  0  0  0  0  0  0  0  0999 V2000
    8.6841    2.2991    0.7150 C   0  0  0  0  0  0  0  0  0  0  0  0
    7.3318    1.9833    0.3223 N   0  0  0  0  0  0  0  0  0  0  0  0
    7.3573    1.2587   -0.9065 C   0  0  0  0  0  0  0  0  0  0  0  0
    6.1622    1.5973   -1.7715 C   0  0  0  0  0  0  0  0  0  0  0  0
    5.0204    1.6556   -0.9032 N   0  0  0  0  0  0  0  0  0  0  0  0
    5.0127    2.7073    0.0887 C   0  0  0  0  0  0  0  0  0  0  0  0
    6.4630    3.1168    0.3748 C   0  0  0  0  0  0  0  0  0  0  0  0
    3.9663    0.7440   -0.9899 C   0  0  0  0  0  0  0  0  0  0  0  0
    4.0075   -0.4012   -1.7617 C   0  0  0  0  0  0  0  0  0  0  0  0
    2.9140   -1.2390   -1.7936 C   0  0  0  0  0  0  0  0  0  0  0  0
    1.7449   -0.9826   -1.0704 C   0  0  0  0  0  0  0  0  0  0  0  0
    1.7448    0.1598   -0.3195 C   0  0  0  0  0  0  0  0  0  0  0  0
    2.8187    1.0271   -0.2592 C   0  0  0  0  0  0  0  0  0  0  0  0
    0.6132   -1.8857   -1.1198 C   0  0  0  0  0  0  0  0  0  0  0  0
    0.7604   -3.0476   -1.6220 O   0  0  0  0  0  0  0  0  0  0  0  0
   -0.6446   -1.4758   -0.6138 N   0  0  0  0  0  0  0  0  0  0  0  0
   -1.7762   -2.3353   -0.6465 C   0  0  0  0  0  0  0  0  0  0  0  0
   -1.8011   -3.5837   -1.1307 N   0  0  0  0  0  0  0  0  0  0  0  0
   -3.0183   -4.0348   -0.9834 N   0  0  0  0  0  0  0  0  0  0  0  0
   -3.8197   -3.0686   -0.3896 C   0  0  0  0  0  0  0  0  0  0  0  0
   -5.2313   -3.2751   -0.1081 C   0  0  0  0  0  0  0  0  0  0  0  0
   -6.0786   -2.4170    0.5215 C   0  0  0  0  0  0  0  0  0  0  0  0
   -7.4333   -2.7374    0.7159 C   0  0  0  0  0  0  0  0  0  0  0  0
   -7.9706   -3.9221    0.2857 C   0  0  0  0  0  0  0  0  0  0  0  0
   -7.1078   -4.7863   -0.3505 C   0  0  0  0  0  0  0  0  0  0  0  0
   -7.6242   -5.9980   -0.7991 O   0  0  0  0  0  0  0  0  0  0  0  0
   -5.8019   -4.4827   -0.5406 C   0  0  0  0  0  0  0  0  0  0  0  0
   -3.0458   -2.0263   -0.1865 N   0  0  0  0  0  0  0  0  0  0  0  0
   -3.3139   -0.7585    0.3728 C   0  0  0  0  0  0  0  0  0  0  0  0
   -3.7684    0.3150   -0.4077 C   0  0  0  0  0  0  0  0  0  0  0  0
   -3.9844    1.5649    0.1283 C   0  0  0  0  0  0  0  0  0  0  0  0
   -3.7577    1.8028    1.4659 C   0  0  0  0  0  0  0  0  0  0  0  0
   -3.3080    0.7710    2.2756 C   0  0  0  0  0  0  0  0  0  0  0  0
   -3.1027   -0.4504    1.7248 C   0  0  0  0  0  0  0  0  0  0  0  0
   -4.0294    3.3828    2.1378 S   0  0  0  0  0  0  0  0  0  0  0  0
   -2.5902    4.3236    2.0770 N   0  0  0  0  0  0  0  0  0  0  0  0
   -4.4964    3.2969    3.5414 O   0  0  0  0  0  0  0  0  0  0  0  0
   -5.1339    4.0231    1.3291 O   0  0  0  0  0  0  0  0  0  0  0  0
    9.3011    1.3934    0.5400 H   0  0  0  0  0  0  0  0  0  0  0  0
    8.7732    2.6395    1.7595 H   0  0  0  0  0  0  0  0  0  0  0  0
    9.0634    3.0884    0.0139 H   0  0  0  0  0  0  0  0  0  0  0  0
    7.3990    0.1764   -0.6621 H   0  0  0  0  0  0  0  0  0  0  0  0
    8.2729    1.4667   -1.5063 H   0  0  0  0  0  0  0  0  0  0  0  0
    6.3644    2.6610   -2.1182 H   0  0  0  0  0  0  0  0  0  0  0  0
    6.0724    0.9666   -2.6513 H   0  0  0  0  0  0  0  0  0  0  0  0
    4.6450    2.2635    1.0364 H   0  0  0  0  0  0  0  0  0  0  0  0
    4.4538    3.5916   -0.2122 H   0  0  0  0  0  0  0  0  0  0  0  0
    6.7772    3.9561   -0.2936 H   0  0  0  0  0  0  0  0  0  0  0  0
    6.4719    3.5213    1.4082 H   0  0  0  0  0  0  0  0  0  0  0  0
    4.9099   -0.6063   -2.3202 H   0  0  0  0  0  0  0  0  0  0  0  0
    2.9456   -2.1309   -2.3944 H   0  0  0  0  0  0  0  0  0  0  0  0
    0.8803    0.4481    0.2846 H   0  0  0  0  0  0  0  0  0  0  0  0
    2.7585    1.9227    0.3570 H   0  0  0  0  0  0  0  0  0  0  0  0
   -0.7580   -0.5324   -0.2084 H   0  0  0  0  0  0  0  0  0  0  0  0
   -5.7607   -1.4771    0.8989 H   0  0  0  0  0  0  0  0  0  0  0  0
   -8.0643   -2.0213    1.2216 H   0  0  0  0  0  0  0  0  0  0  0  0
   -9.0085   -4.1549    0.4406 H   0  0  0  0  0  0  0  0  0  0  0  0
   -7.0011   -6.6363   -1.2655 H   0  0  0  0  0  0  0  0  0  0  0  0
   -5.1578   -5.2174   -1.0590 H   0  0  0  0  0  0  0  0  0  0  0  0
   -3.9494    0.1387   -1.4577 H   0  0  0  0  0  0  0  0  0  0  0  0
   -4.3408    2.3724   -0.5267 H   0  0  0  0  0  0  0  0  0  0  0  0
   -3.1356    0.9718    3.3180 H   0  0  0  0  0  0  0  0  0  0  0  0
   -2.7471   -1.2776    2.3494 H   0  0  0  0  0  0  0  0  0  0  0  0
   -2.0653    4.0233    1.2284 H   0  0  0  0  0  0  0  0  0  0  0  0
   -2.8631    5.3318    1.9328 H   0  0  0  0  0  0  0  0  0  0  0  0
  1  2  1  0
  2  3  1  0
  3  4  1  0
  4  5  1  0
  5  6  1  0
  6  7  1  0
  5  8  1  0
  8  9  2  0
  9 10  1  0
 10 11  2  0
 11 12  1  0
 12 13  2  0
 11 14  1  0
 14 15  2  0
 14 16  1  0
 16 17  1  0
 17 18  2  0
 18 19  1  0
 19 20  2  0
 20 21  1  0
 21 22  2  0
 22 23  1  0
 23 24  2  0
 24 25  1  0
 25 26  1  0
 25 27  2  0
 20 28  1  0
 28 29  1  0
 29 30  2  0
 30 31  1  0
 31 32  2  0
 32 33  1  0
 33 34  2  0
 32 35  1  0
 35 36  1  0
 35 37  2  0
 35 38  2  0
  7  2  1  0
 13  8  1  0
 28 17  1  0
 34 29  1  0
 27 21  1  0
  1 39  1  0
  1 40  1  0
  1 41  1  0
  3 42  1  0
  3 43  1  0
  4 44  1  0
  4 45  1  0
  6 46  1  0
  6 47  1  0
  7 48  1  0
  7 49  1  0
  9 50  1  0
 10 51  1  0
 12 52  1  0
 13 53  1  0
 16 54  1  0
 22 55  1  0
 23 56  1  0
 24 57  1  0
 26 58  1  0
 27 59  1  0
 30 60  1  0
 31 61  1  0
 33 62  1  0
 34 63  1  0
 36 64  1  0
 36 65  1  0
M  END
$$$$
[H]Oc1c([H])c([H])c([N+](=O)[O-])c([H])c1SC(=O)N([H])c1c([H])c([H])c([H])c([H])c1[H]
     RDKit          3D

 30 31  0  0  0  0  0  0  0  0999 V2000
   -1.6248   -3.0481   -0.2461 O   0  0  0  0  0  0  0  0  0  0  0  0
   -2.2582   -1.8057   -0.1135 C   0  0  0  0  0  0  0  0  0  0  0  0
   -3.1255   -1.5739    0.9324 C   0  0  0  0  0  0  0  0  0  0  0  0
   -3.7520   -0.3534    1.0685 C   0  0  0  0  0  0  0  0  0  0  0  0
   -3.4799    0.6167    0.1271 C   0  0  0  0  0  0  0  0  0  0  0  0
   -2.6124    0.3817   -0.9172 C   0  0  0  0  0  0  0  0  0  0  0  0
   -1.9742   -0.8398   -1.0687 C   0  0  0  0  0  0  0  0  0  0  0  0
   -0.8527   -1.1609   -2.4086 S   0  0  0  0  0  0  0  0  0  0  0  0
    0.8309   -0.7148   -1.9264 C   0  0  0  0  0  0  0  0  0  0  0  0
    1.7575   -0.8754   -2.7525 O   0  0  0  0  0  0  0  0  0  0  0  0
    1.0448   -0.2062   -0.6504 N   0  0  0  0  0  0  0  0  0  0  0  0
    2.2700    0.1969   -0.1136 C   0  0  0  0  0  0  0  0  0  0  0  0
    2.3830    0.2629    1.2894 C   0  0  0  0  0  0  0  0  0  0  0  0
    3.5188    0.6636    1.9128 C   0  0  0  0  0  0  0  0  0  0  0  0
    4.5973    1.0173    1.1401 C   0  0  0  0  0  0  0  0  0  0  0  0
    4.5143    0.9627   -0.2199 C   0  0  0  0  0  0  0  0  0  0  0  0
    3.3435    0.5498   -0.8751 C   0  0  0  0  0  0  0  0  0  0  0  0
   -4.1223    1.8765    0.2617 N   0  0  0  0  0  0  0  0  0  0  0  0
   -3.8706    2.8631   -0.6617 O   0  0  0  0  0  0  0  0  0  0  0  0
   -4.9068    2.1426    1.1744 O   0  0  0  0  0  0  0  0  0  0  0  0
   -0.9861   -3.2435   -1.0018 H   0  0  0  0  0  0  0  0  0  0  0  0
   -3.3148   -2.3639    1.6550 H   0  0  0  0  0  0  0  0  0  0  0  0
   -4.4397   -0.1695    1.8977 H   0  0  0  0  0  0  0  0  0  0  0  0
   -2.3865    1.1449   -1.6741 H   0  0  0  0  0  0  0  0  0  0  0  0
    0.1756   -0.1146   -0.0270 H   0  0  0  0  0  0  0  0  0  0  0  0
    1.5150   -0.0245    1.8520 H   0  0  0  0  0  0  0  0  0  0  0  0
    3.5541    0.6971    3.0112 H   0  0  0  0  0  0  0  0  0  0  0  0
    5.5043    1.3365    1.6135 H   0  0  0  0  0  0  0  0  0  0  0  0
    5.3591    1.2394   -0.8454 H   0  0  0  0  0  0  0  0  0  0  0  0
    3.3382    0.5425   -1.9679 H   0  0  0  0  0  0  0  0  0  0  0  0
  1  2  1  0
  2  3  2  0
  3  4  1  0
  4  5  2  0
  5  6  1  0
  6  7  2  0
  7  8  1  0
  8  9  1  0
  9 10  2  0
  9 11  1  0
 11 12  1  0
 12 13  2  0
 13 14  1  0
 14 15  2  0
 15 16  1  0
 16 17  2  0
  5 18  1  0
 18 19  1  0
 18 20  2  0
  7  2  1  0
 17 12  1  0
  1 21  1  0
  3 22  1  0
  4 23  1  0
  6 24  1  0
 11 25  1  0
 13 26  1  0
 14 27  1  0
 15 28  1  0
 16 29  1  0
 17 30  1  0
M  CHG  2  18   1  19  -1
M  END
$$$$
[H]c1c(OC([H])([H])[H])c([H])c2c(C3([H])N=C(N([H])[H])N3[H])c([H])n([H])c2c1[H]
     RDKit          3D

 28 30  0  0  0  0  0  0  0  0999 V2000
   -4.1758    1.9493    0.2109 C   0  0  0  0  0  0  0  0  0  0  0  0
   -2.7876    1.8951    0.4353 O   0  0  0  0  0  0  0  0  0  0  0  0
   -2.1502    0.6599    0.2254 C   0  0  0  0  0  0  0  0  0  0  0  0
   -2.8528   -0.4538   -0.1831 C   0  0  0  0  0  0  0  0  0  0  0  0
   -2.1779   -1.6377   -0.3731 C   0  0  0  0  0  0  0  0  0  0  0  0
   -0.8145   -1.7234   -0.1612 C   0  0  0  0  0  0  0  0  0  0  0  0
    0.0811   -2.7362   -0.2662 N   0  0  0  0  0  0  0  0  0  0  0  0
    1.3074   -2.3115    0.0556 C   0  0  0  0  0  0  0  0  0  0  0  0
    1.2507   -0.9511    0.3951 C   0  0  0  0  0  0  0  0  0  0  0  0
    2.3733   -0.0947    0.7991 C   0  0  0  0  0  0  0  0  0  0  0  0
    2.5122    1.1854    0.2119 N   0  0  0  0  0  0  0  0  0  0  0  0
    3.7508    0.6689   -0.2764 C   0  0  0  0  0  0  0  0  0  0  0  0
    4.7483    1.2975   -1.0856 N   0  0  0  0  0  0  0  0  0  0  0  0
    3.6528   -0.5055    0.2461 N   0  0  0  0  0  0  0  0  0  0  0  0
   -0.0790   -0.6143    0.2515 C   0  0  0  0  0  0  0  0  0  0  0  0
   -0.7857    0.5751    0.4378 C   0  0  0  0  0  0  0  0  0  0  0  0
   -4.7183    1.2938    0.9483 H   0  0  0  0  0  0  0  0  0  0  0  0
   -4.4141    1.5293   -0.8069 H   0  0  0  0  0  0  0  0  0  0  0  0
   -4.5791    2.9680    0.2917 H   0  0  0  0  0  0  0  0  0  0  0  0
   -3.9230   -0.3977   -0.3524 H   0  0  0  0  0  0  0  0  0  0  0  0
   -2.7387   -2.4947   -0.6909 H   0  0  0  0  0  0  0  0  0  0  0  0
   -0.2230   -3.6901   -0.5640 H   0  0  0  0  0  0  0  0  0  0  0  0
    2.2218   -2.8817    0.0678 H   0  0  0  0  0  0  0  0  0  0  0  0
    2.4917   -0.0669    1.9193 H   0  0  0  0  0  0  0  0  0  0  0  0
    1.9833    2.0714    0.1572 H   0  0  0  0  0  0  0  0  0  0  0  0
    5.3032    0.7154   -1.7626 H   0  0  0  0  0  0  0  0  0  0  0  0
    4.9421    2.3255   -1.0224 H   0  0  0  0  0  0  0  0  0  0  0  0
   -0.1991    1.4246    0.7627 H   0  0  0  0  0  0  0  0  0  0  0  0
  1  2  1  0
  2  3  1  0
  3  4  2  0
  4  5  1  0
  5  6  2  0
  6  7  1  0
  7  8  1  0
  8  9  2  0
  9 10  1  0
 10 11  1  0
 11 12  1  0
 12 13  1  0
 12 14  2  0
  9 15  1  0
 15 16  2  0
 16  3  1  0
 15  6  1  0
 14 10  1  0
  1 17  1  0
  1 18  1  0
  1 19  1  0
  4 20  1  0
  5 21  1  0
  7 22  1  0
  8 23  1  0
 10 24  1  0
 11 25  1  0
 13 26  1  0
 13 27  1  0
 16 28  1  0
M  END
$$$$
[H]OC(=O)C([H])([H])Oc1c([H])c(-c2c([H])c([H])c3c([H])c([H])c([H])c([H])c3c2[H])c([H])c(-c2c([H])c([H])c([H])c(S(=O)(=O)N([H])[H])c2[H])c1OC([H])([H])C(=O)O[H]
     RDKit          3D

 57 60  0  0  0  0  0  0  0  0999 V2000
   -6.7682   -1.5538    0.0953 N   0  0  0  0  0  0  0  0  0  0  0  0
   -5.5440   -2.7998    0.0638 S   0  0  0  0  0  0  0  0  0  0  0  0
   -6.1360   -4.0202   -0.5784 O   0  0  0  0  0  0  0  0  0  0  0  0
   -5.1321   -3.1378    1.4769 O   0  0  0  0  0  0  0  0  0  0  0  0
   -4.1828   -2.2178   -0.8592 C   0  0  0  0  0  0  0  0  0  0  0  0
   -4.1366   -2.4255   -2.2226 C   0  0  0  0  0  0  0  0  0  0  0  0
   -3.0859   -1.9853   -2.9897 C   0  0  0  0  0  0  0  0  0  0  0  0
   -2.0246   -1.3098   -2.4134 C   0  0  0  0  0  0  0  0  0  0  0  0
   -2.0594   -1.0988   -1.0676 C   0  0  0  0  0  0  0  0  0  0  0  0
   -3.1125   -1.5403   -0.2994 C   0  0  0  0  0  0  0  0  0  0  0  0
   -0.9565   -0.4215   -0.4181 C   0  0  0  0  0  0  0  0  0  0  0  0
    0.3354   -0.8706   -0.5956 C   0  0  0  0  0  0  0  0  0  0  0  0
    1.3944   -0.2793    0.0397 C   0  0  0  0  0  0  0  0  0  0  0  0
    1.1366    0.7827    0.8677 C   0  0  0  0  0  0  0  0  0  0  0  0
   -0.1777    1.2413    1.0498 C   0  0  0  0  0  0  0  0  0  0  0  0
   -0.3969    2.3196    1.9081 O   0  0  0  0  0  0  0  0  0  0  0  0
    0.6153    2.9799    2.6055 C   0  0  0  0  0  0  0  0  0  0  0  0
    0.0031    4.0674    3.4120 C   0  0  0  0  0  0  0  0  0  0  0  0
   -1.3659    4.2944    3.3948 O   0  0  0  0  0  0  0  0  0  0  0  0
    0.7025    4.8209    4.1388 O   0  0  0  0  0  0  0  0  0  0  0  0
   -1.2622    0.6716    0.4245 C   0  0  0  0  0  0  0  0  0  0  0  0
   -2.5455    1.0361    0.5296 O   0  0  0  0  0  0  0  0  0  0  0  0
   -3.4763    1.7839   -0.0709 C   0  0  0  0  0  0  0  0  0  0  0  0
   -3.3834    3.2136   -0.2874 C   0  0  0  0  0  0  0  0  0  0  0  0
   -2.3266    4.0171    0.0383 O   0  0  0  0  0  0  0  0  0  0  0  0
   -4.3647    3.8603   -0.8427 O   0  0  0  0  0  0  0  0  0  0  0  0
    2.7634   -0.7681   -0.1608 C   0  0  0  0  0  0  0  0  0  0  0  0
    2.9833   -2.1037   -0.3999 C   0  0  0  0  0  0  0  0  0  0  0  0
    4.2708   -2.5601   -0.5883 C   0  0  0  0  0  0  0  0  0  0  0  0
    5.3555   -1.6960   -0.5416 C   0  0  0  0  0  0  0  0  0  0  0  0
    6.6422   -2.1564   -0.7307 C   0  0  0  0  0  0  0  0  0  0  0  0
    7.7027   -1.2641   -0.6772 C   0  0  0  0  0  0  0  0  0  0  0  0
    7.5263    0.0830   -0.4398 C   0  0  0  0  0  0  0  0  0  0  0  0
    6.2321    0.5180   -0.2542 C   0  0  0  0  0  0  0  0  0  0  0  0
    5.1534   -0.3514   -0.3025 C   0  0  0  0  0  0  0  0  0  0  0  0
    3.8539    0.0731   -0.1183 C   0  0  0  0  0  0  0  0  0  0  0  0
   -7.0603   -1.4237   -0.9200 H   0  0  0  0  0  0  0  0  0  0  0  0
   -7.6227   -1.9464    0.5618 H   0  0  0  0  0  0  0  0  0  0  0  0
   -4.9356   -2.9504   -2.7501 H   0  0  0  0  0  0  0  0  0  0  0  0
   -3.0627   -2.1524   -4.0427 H   0  0  0  0  0  0  0  0  0  0  0  0
   -1.1898   -0.9562   -2.9984 H   0  0  0  0  0  0  0  0  0  0  0  0
   -3.1461   -1.3774    0.7642 H   0  0  0  0  0  0  0  0  0  0  0  0
    0.5374   -1.7150   -1.2530 H   0  0  0  0  0  0  0  0  0  0  0  0
    1.9579    1.2713    1.3855 H   0  0  0  0  0  0  0  0  0  0  0  0
    1.1143    2.2414    3.2957 H   0  0  0  0  0  0  0  0  0  0  0  0
    1.4261    3.3770    1.9720 H   0  0  0  0  0  0  0  0  0  0  0  0
   -1.8107    4.5180    4.2698 H   0  0  0  0  0  0  0  0  0  0  0  0
   -3.6000    1.3573   -1.1465 H   0  0  0  0  0  0  0  0  0  0  0  0
   -4.5275    1.6007    0.3193 H   0  0  0  0  0  0  0  0  0  0  0  0
   -2.4251    4.7653    0.7084 H   0  0  0  0  0  0  0  0  0  0  0  0
    2.1212   -2.7559   -0.4309 H   0  0  0  0  0  0  0  0  0  0  0  0
    4.4588   -3.6063   -0.7765 H   0  0  0  0  0  0  0  0  0  0  0  0
    6.7672   -3.2122   -0.9159 H   0  0  0  0  0  0  0  0  0  0  0  0
    8.6935   -1.6426   -0.8268 H   0  0  0  0  0  0  0  0  0  0  0  0
    8.3898    0.7313   -0.4090 H   0  0  0  0  0  0  0  0  0  0  0  0
    6.0343    1.5543   -0.0657 H   0  0  0  0  0  0  0  0  0  0  0  0
    3.6469    1.1191    0.0720 H   0  0  0  0  0  0  0  0  0  0  0  0
  1  2  1  0
  2  3  2  0
  2  4  2  0
  2  5  1  0
  5  6  2  0
  6  7  1  0
  7  8  2  0
  8  9  1  0
  9 10  2  0
  9 11  1  0
 11 12  2  0
 12 13  1  0
 13 14  2  0
 14 15  1  0
 15 16  1  0
 16 17  1  0
 17 18  1  0
 18 19  1  0
 18 20  2  0
 15 21  2  0
 21 22  1  0
 22 23  1  0
 23 24  1  0
 24 25  1  0
 24 26  2  0
 13 27  1  0
 27 28  2  0
 28 29  1  0
 29 30  2  0
 30 31  1  0
 31 32  2  0
 32 33  1  0
 33 34  2  0
 34 35  1  0
 35 36  2  0
 10  5  1  0
 21 11  1  0
 36 27  1  0
 35 30  1  0
  1 37  1  0
  1 38  1  0
  6 39  1  0
  7 40  1  0
  8 41  1  0
 10 42  1  0
 12 43  1  0
 14 44  1  0
 17 45  1  0
 17 46  1  0
 19 47  1  0
 23 48  1  0
 23 49  1  0
 25 50  1  0
 28 51  1  0
 29 52  1  0
 31 53  1  0
 32 54  1  0
 33 55  1  0
 34 56  1  0
 36 57  1  0
M  END
$$$$
[H]c1c([H])c(-c2c([H])c(=O)c3c([H])c(C([H])([H])[H])c([H])c([H])c3n2[H])c([H])c([N+](=O)[O-])c1F
     RDKit          3D

 33 35  0  0  0  0  0  0  0  0999 V2000
   -5.6442    0.4542   -0.3890 C   0  0  0  0  0  0  0  0  0  0  0  0
   -4.1696    0.4546   -0.3137 C   0  0  0  0  0  0  0  0  0  0  0  0
   -3.4983    1.6262   -0.5717 C   0  0  0  0  0  0  0  0  0  0  0  0
   -2.1229    1.6209   -0.4995 C   0  0  0  0  0  0  0  0  0  0  0  0
   -1.4349    0.4433   -0.1700 C   0  0  0  0  0  0  0  0  0  0  0  0
   -0.0927    0.4553   -0.1031 N   0  0  0  0  0  0  0  0  0  0  0  0
    0.6515   -0.6530    0.2128 C   0  0  0  0  0  0  0  0  0  0  0  0
   -0.0078   -1.8281    0.4724 C   0  0  0  0  0  0  0  0  0  0  0  0
   -1.3828   -1.8463    0.4055 C   0  0  0  0  0  0  0  0  0  0  0  0
   -1.9766   -2.9248    0.6445 O   0  0  0  0  0  0  0  0  0  0  0  0
   -2.1160   -0.7171    0.0848 C   0  0  0  0  0  0  0  0  0  0  0  0
   -3.4907   -0.7196    0.0146 C   0  0  0  0  0  0  0  0  0  0  0  0
    2.0986   -0.5294    0.2570 C   0  0  0  0  0  0  0  0  0  0  0  0
    2.8632   -1.6201    0.5721 C   0  0  0  0  0  0  0  0  0  0  0  0
    4.2541   -1.5795    0.6342 C   0  0  0  0  0  0  0  0  0  0  0  0
    4.8992   -0.4068    0.3719 C   0  0  0  0  0  0  0  0  0  0  0  0
    6.2701   -0.3559    0.4302 F   0  0  0  0  0  0  0  0  0  0  0  0
    4.1626    0.7116    0.0511 C   0  0  0  0  0  0  0  0  0  0  0  0
    2.7716    0.6415   -0.0037 C   0  0  0  0  0  0  0  0  0  0  0  0
    4.8250    1.9375   -0.2245 N   0  0  0  0  0  0  0  0  0  0  0  0
    6.1118    1.9491   -0.7222 O   0  0  0  0  0  0  0  0  0  0  0  0
    4.2812    3.0414   -0.0323 O   0  0  0  0  0  0  0  0  0  0  0  0
   -6.0199    1.2666   -1.0503 H   0  0  0  0  0  0  0  0  0  0  0  0
   -6.0517    0.4963    0.6257 H   0  0  0  0  0  0  0  0  0  0  0  0
   -5.9474   -0.5005   -0.8964 H   0  0  0  0  0  0  0  0  0  0  0  0
   -4.0636    2.5110   -0.8216 H   0  0  0  0  0  0  0  0  0  0  0  0
   -1.5837    2.5430   -0.7015 H   0  0  0  0  0  0  0  0  0  0  0  0
    0.3504    1.3749   -0.3102 H   0  0  0  0  0  0  0  0  0  0  0  0
    0.5546   -2.7014    0.7202 H   0  0  0  0  0  0  0  0  0  0  0  0
   -4.0152   -1.6261    0.2139 H   0  0  0  0  0  0  0  0  0  0  0  0
    2.4505   -2.6137    0.8016 H   0  0  0  0  0  0  0  0  0  0  0  0
    4.8234   -2.4592    0.8860 H   0  0  0  0  0  0  0  0  0  0  0  0
    2.2501    1.5541   -0.2614 H   0  0  0  0  0  0  0  0  0  0  0  0
  1  2  1  0
  2  3  2  0
  3  4  1  0
  4  5  2  0
  5  6  1  0
  6  7  1  0
  7  8  2  0
  8  9  1  0
  9 10  2  0
  9 11  1  0
 11 12  2  0
  7 13  1  0
 13 14  2  0
 14 15  1  0
 15 16  2  0
 16 17  1  0
 16 18  1  0
 18 19  2  0
 18 20  1  0
 20 21  1  0
 20 22  2  0
 12  2  1  0
 19 13  1  0
 11  5  1  0
  1 23  1  0
  1 24  1  0
  1 25  1  0
  3 26  1  0
  4 27  1  0
  6 28  1  0
  8 29  1  0
 12 30  1  0
 14 31  1  0
 15 32  1  0
 19 33  1  0
M  CHG  2  20   1  21  -1
M  END
$$$$
[H]c1nc([H])c(-c2c(OC([H])([H])C3([H])C([H])([H])OC([H])([H])C3([H])[H])nc3sc(N([H])C(=O)N([H])C([H])([H])C([H])([H])[H])nc3c2[H])c([H])c1[H]
     RDKit          3D

 49 52  0  0  0  0  0  0  0  0999 V2000
    8.1217    0.1396   -0.1909 C   0  0  0  0  0  0  0  0  0  0  0  0
    8.0189   -0.6991    1.0827 C   0  0  0  0  0  0  0  0  0  0  0  0
    6.9433   -1.6471    0.9498 N   0  0  0  0  0  0  0  0  0  0  0  0
    5.5992   -1.2533    0.7331 C   0  0  0  0  0  0  0  0  0  0  0  0
    5.3808   -0.0022    0.6598 O   0  0  0  0  0  0  0  0  0  0  0  0
    4.5461   -2.1958    0.6035 N   0  0  0  0  0  0  0  0  0  0  0  0
    3.2105   -1.7728    0.3871 C   0  0  0  0  0  0  0  0  0  0  0  0
    2.7552   -0.5373    0.2784 N   0  0  0  0  0  0  0  0  0  0  0  0
    1.4896   -0.3278    0.0795 C   0  0  0  0  0  0  0  0  0  0  0  0
    0.8614    0.9251   -0.0561 C   0  0  0  0  0  0  0  0  0  0  0  0
   -0.4856    0.9724   -0.2621 C   0  0  0  0  0  0  0  0  0  0  0  0
   -1.1369    2.2913   -0.4056 C   0  0  0  0  0  0  0  0  0  0  0  0
   -2.0536    2.5665   -1.3971 C   0  0  0  0  0  0  0  0  0  0  0  0
   -2.6189    3.8269   -1.4607 C   0  0  0  0  0  0  0  0  0  0  0  0
   -2.2705    4.7940   -0.5456 C   0  0  0  0  0  0  0  0  0  0  0  0
   -1.3813    4.4922    0.3987 N   0  0  0  0  0  0  0  0  0  0  0  0
   -0.8147    3.2901    0.4932 C   0  0  0  0  0  0  0  0  0  0  0  0
   -1.3071   -0.1259   -0.3516 C   0  0  0  0  0  0  0  0  0  0  0  0
   -2.6733   -0.0691   -0.5605 O   0  0  0  0  0  0  0  0  0  0  0  0
   -3.4583   -1.2259   -0.6426 C   0  0  0  0  0  0  0  0  0  0  0  0
   -4.8960   -0.8370   -0.8730 C   0  0  0  0  0  0  0  0  0  0  0  0
   -5.8107   -2.0242   -0.9738 C   0  0  0  0  0  0  0  0  0  0  0  0
   -6.7012   -1.8823    0.2640 C   0  0  0  0  0  0  0  0  0  0  0  0
   -6.7620   -0.5127    0.4145 O   0  0  0  0  0  0  0  0  0  0  0  0
   -5.4094   -0.1448    0.3754 C   0  0  0  0  0  0  0  0  0  0  0  0
   -0.6841   -1.3245   -0.2186 N   0  0  0  0  0  0  0  0  0  0  0  0
    0.6645   -1.4155   -0.0109 C   0  0  0  0  0  0  0  0  0  0  0  0
    1.7906   -2.6995    0.2012 S   0  0  0  0  0  0  0  0  0  0  0  0
    9.1909    0.4207   -0.2991 H   0  0  0  0  0  0  0  0  0  0  0  0
    7.8457   -0.4406   -1.0827 H   0  0  0  0  0  0  0  0  0  0  0  0
    7.5063    1.0396   -0.0276 H   0  0  0  0  0  0  0  0  0  0  0  0
    8.9853   -1.2147    1.2453 H   0  0  0  0  0  0  0  0  0  0  0  0
    7.8768   -0.0054    1.9354 H   0  0  0  0  0  0  0  0  0  0  0  0
    7.1560   -2.6586    1.0145 H   0  0  0  0  0  0  0  0  0  0  0  0
    4.7483   -3.2008    0.6664 H   0  0  0  0  0  0  0  0  0  0  0  0
    1.4140    1.8504   -0.0019 H   0  0  0  0  0  0  0  0  0  0  0  0
   -2.3178    1.8032   -2.1085 H   0  0  0  0  0  0  0  0  0  0  0  0
   -3.3406    4.0826   -2.2217 H   0  0  0  0  0  0  0  0  0  0  0  0
   -2.7190    5.7976   -0.5941 H   0  0  0  0  0  0  0  0  0  0  0  0
   -0.0953    3.0556    1.2621 H   0  0  0  0  0  0  0  0  0  0  0  0
   -3.0731   -1.8337   -1.4980 H   0  0  0  0  0  0  0  0  0  0  0  0
   -3.3345   -1.8335    0.2618 H   0  0  0  0  0  0  0  0  0  0  0  0
   -4.9401   -0.1655   -1.7522 H   0  0  0  0  0  0  0  0  0  0  0  0
   -6.4297   -2.0285   -1.8913 H   0  0  0  0  0  0  0  0  0  0  0  0
   -5.2947   -2.9885   -0.8959 H   0  0  0  0  0  0  0  0  0  0  0  0
   -6.2377   -2.3870    1.1133 H   0  0  0  0  0  0  0  0  0  0  0  0
   -7.7023   -2.3370    0.0843 H   0  0  0  0  0  0  0  0  0  0  0  0
   -4.8574   -0.5049    1.2650 H   0  0  0  0  0  0  0  0  0  0  0  0
   -5.2994    0.9475    0.2113 H   0  0  0  0  0  0  0  0  0  0  0  0
  1  2  1  0
  2  3  1  0
  3  4  1  0
  4  5  2  0
  4  6  1  0
  6  7  1  0
  7  8  2  0
  8  9  1  0
  9 10  2  0
 10 11  1  0
 11 12  1  0
 12 13  2  0
 13 14  1  0
 14 15  2  0
 15 16  1  0
 16 17  2  0
 11 18  2  0
 18 19  1  0
 19 20  1  0
 20 21  1  0
 21 22  1  0
 22 23  1  0
 23 24  1  0
 24 25  1  0
 18 26  1  0
 26 27  2  0
 27 28  1  0
 28  7  1  0
 27  9  1  0
 17 12  1  0
 25 21  1  0
  1 29  1  0
  1 30  1  0
  1 31  1  0
  2 32  1  0
  2 33  1  0
  3 34  1  0
  6 35  1  0
 10 36  1  0
 13 37  1  0
 14 38  1  0
 15 39  1  0
 17 40  1  0
 20 41  1  0
 20 42  1  0
 21 43  1  0
 22 44  1  0
 22 45  1  0
 23 46  1  0
 23 47  1  0
 25 48  1  0
 25 49  1  0
M  END
$$$$
[H]Cl.[H]c1c([H])c([H])c(C([H])([H])O[C@]23C([H])([H])C([H])([H])N(C(=O)c4nc5c([H])c([H])c([H])c([H])c5c([H])c4[H])C([H])([H])[C@]2([H])C3([H])[H])c([H])c1[H]
     RDKit          2D

 51 54  0  0  0  0  0  0  0  0999 V2000
    8.0442    0.0000    0.0000 Cl  0  0  0  0  0  0  0  0  0  0  0  0
    3.0000   -2.5981    0.0000 O   0  0  0  0  0  0  0  0  0  0  0  0
    1.5000   -2.5981    0.0000 C   0  0  0  0  0  0  0  0  0  0  0  0
    0.7500   -3.8971    0.0000 N   0  0  0  0  0  0  0  0  0  0  0  0
   -0.7500   -3.8971    0.0000 C   0  0  0  0  0  0  0  0  0  0  0  0
   -1.5000   -5.1962    0.0000 C   0  0  0  0  0  0  0  0  0  0  0  0
   -0.7500   -6.4952    0.0000 C   0  0  0  0  0  0  0  0  0  0  0  0
   -0.0000   -7.7942    0.0000 C   0  0  0  0  0  0  0  0  0  0  0  0
    0.7500   -6.4952    0.0000 C   0  0  0  0  0  0  0  0  0  0  0  0
    1.5000   -5.1962    0.0000 C   0  0  0  0  0  0  0  0  0  0  0  0
    0.5490   -5.7452    0.0000 O   0  0  0  0  0  0  0  0  0  0  0  0
    1.8481   -6.4952    0.0000 C   0  0  0  0  0  0  0  0  0  0  0  0
    3.1471   -7.2452    0.0000 C   0  0  0  0  0  0  0  0  0  0  0  0
    3.1471   -8.7452    0.0000 C   0  0  0  0  0  0  0  0  0  0  0  0
    4.4462   -9.4952    0.0000 C   0  0  0  0  0  0  0  0  0  0  0  0
    5.7452   -8.7452    0.0000 C   0  0  0  0  0  0  0  0  0  0  0  0
    5.7452   -7.2452    0.0000 C   0  0  0  0  0  0  0  0  0  0  0  0
    4.4462   -6.4952    0.0000 C   0  0  0  0  0  0  0  0  0  0  0  0
    0.7500   -1.2990    0.0000 C   0  0  0  0  0  0  0  0  0  0  0  0
    1.5000    0.0000    0.0000 C   0  0  0  0  0  0  0  0  0  0  0  0
    0.7500    1.2990    0.0000 C   0  0  0  0  0  0  0  0  0  0  0  0
   -0.7500    1.2990    0.0000 C   0  0  0  0  0  0  0  0  0  0  0  0
   -1.5000    2.5981    0.0000 C   0  0  0  0  0  0  0  0  0  0  0  0
   -3.0000    2.5981    0.0000 C   0  0  0  0  0  0  0  0  0  0  0  0
   -3.7500    1.2990    0.0000 C   0  0  0  0  0  0  0  0  0  0  0  0
   -3.0000    0.0000    0.0000 C   0  0  0  0  0  0  0  0  0  0  0  0
   -1.5000    0.0000    0.0000 C   0  0  0  0  0  0  0  0  0  0  0  0
   -0.7500   -1.2990    0.0000 N   0  0  0  0  0  0  0  0  0  0  0  0
    9.3433    0.7500    0.0000 H   0  0  0  0  0  0  0  0  0  0  0  0
   -2.1595   -3.3841    0.0000 H   0  0  0  0  0  0  0  0  0  0  0  0
   -0.4895   -2.4199    0.0000 H   0  0  0  0  0  0  0  0  0  0  0  0
   -2.6491   -6.1603    0.0000 H   0  0  0  0  0  0  0  0  0  0  0  0
   -2.6491   -4.2320    0.0000 H   0  0  0  0  0  0  0  0  0  0  0  0
   -1.1491   -8.7584    0.0000 H   0  0  0  0  0  0  0  0  0  0  0  0
    1.1491   -8.7584    0.0000 H   0  0  0  0  0  0  0  0  0  0  0  0
    1.8290   -7.5372    0.0000 H   0  0  0  0  0  0  0  0  0  0  0  0
    2.6491   -4.2320    0.0000 H   0  0  0  0  0  0  0  0  0  0  0  0
    2.6491   -6.1603    0.0000 H   0  0  0  0  0  0  0  0  0  0  0  0
    1.0981   -7.7942    0.0000 H   0  0  0  0  0  0  0  0  0  0  0  0
    2.5981   -5.1962    0.0000 H   0  0  0  0  0  0  0  0  0  0  0  0
    1.8481   -9.4952    0.0000 H   0  0  0  0  0  0  0  0  0  0  0  0
    4.4462  -10.9952    0.0000 H   0  0  0  0  0  0  0  0  0  0  0  0
    7.0442   -9.4952    0.0000 H   0  0  0  0  0  0  0  0  0  0  0  0
    7.0442   -6.4952    0.0000 H   0  0  0  0  0  0  0  0  0  0  0  0
    4.4462   -4.9952    0.0000 H   0  0  0  0  0  0  0  0  0  0  0  0
    3.0000    0.0000    0.0000 H   0  0  0  0  0  0  0  0  0  0  0  0
    1.5000    2.5981    0.0000 H   0  0  0  0  0  0  0  0  0  0  0  0
   -0.7500    3.8971    0.0000 H   0  0  0  0  0  0  0  0  0  0  0  0
   -3.7500    3.8971    0.0000 H   0  0  0  0  0  0  0  0  0  0  0  0
   -5.2500    1.2990    0.0000 H   0  0  0  0  0  0  0  0  0  0  0  0
   -3.7500   -1.2990    0.0000 H   0  0  0  0  0  0  0  0  0  0  0  0
  2  3  2  0
  3  4  1  0
  4  5  1  0
  5  6  1  0
  6  7  1  0
  7  8  1  0
  8  9  1  0
  9 10  1  0
  7 11  1  6
 11 12  1  0
 12 13  1  0
 13 14  2  0
 14 15  1  0
 15 16  2  0
 16 17  1  0
 17 18  2  0
  3 19  1  0
 19 20  2  0
 20 21  1  0
 21 22  2  0
 22 23  1  0
 23 24  2  0
 24 25  1  0
 25 26  2  0
 26 27  1  0
 27 28  2  0
 10  4  1  0
 18 13  1  0
 28 19  1  0
  9  7  1  0
 27 22  1  0
  1 29  1  0
  5 30  1  0
  5 31  1  0
  6 32  1  0
  6 33  1  0
  8 34  1  0
  8 35  1  0
  9 36  1  1
 10 37  1  0
 10 38  1  0
 12 39  1  0
 12 40  1  0
 14 41  1  0
 15 42  1  0
 16 43  1  0
 17 44  1  0
 18 45  1  0
 20 46  1  0
 21 47  1  0
 23 48  1  0
 24 49  1  0
 25 50  1  0
 26 51  1  0
M  END
$$$$
[H]C1=C(C([H])([H])[H])C(=O)c2nc1n1c2C([H])([H])C([H])([H])[C@]2([H])C(=O)N(C([H])([H])[H])C([H])([H])[C@]12[H]
     RDKit          3D

 34 37  0  0  0  0  0  0  0  0999 V2000
    4.8395    0.6077    1.9689 C   0  0  0  0  0  0  0  0  0  0  0  0
    3.5632    0.3083    1.2938 C   0  0  0  0  0  0  0  0  0  0  0  0
    2.4418    1.0068    1.7438 C   0  0  0  0  0  0  0  0  0  0  0  0
    1.2077    0.5568    0.9189 C   0  0  0  0  0  0  0  0  0  0  0  0
    0.2437    0.1076    0.1733 N   0  0  0  0  0  0  0  0  0  0  0  0
   -1.0647    0.3682    0.3284 C   0  0  1  0  0  0  0  0  0  0  0  0
   -1.6967    1.2243   -0.7361 C   0  0  0  0  0  0  0  0  0  0  0  0
   -3.0740    0.8432   -0.5096 N   0  0  0  0  0  0  0  0  0  0  0  0
   -4.2631    1.6534   -0.6872 C   0  0  0  0  0  0  0  0  0  0  0  0
   -3.0655   -0.5133   -0.0575 C   0  0  0  0  0  0  0  0  0  0  0  0
   -4.0858   -1.1405    0.2638 O   0  0  0  0  0  0  0  0  0  0  0  0
   -1.7161   -1.0509   -0.0209 C   0  0  1  0  0  0  0  0  0  0  0  0
   -1.2534   -1.6301   -1.2623 C   0  0  0  0  0  0  0  0  0  0  0  0
    0.2200   -1.7040   -1.6623 C   0  0  0  0  0  0  0  0  0  0  0  0
    0.8445   -0.8828   -0.7322 C   0  0  0  0  0  0  0  0  0  0  0  0
    2.1256   -0.8633   -0.3629 C   0  0  0  0  0  0  0  0  0  0  0  0
    1.9277   -0.1038    0.4027 N   0  0  0  0  0  0  0  0  0  0  0  0
    3.5939   -0.7284    0.1858 C   0  0  0  0  0  0  0  0  0  0  0  0
    4.0992   -1.4874   -0.4892 O   0  0  0  0  0  0  0  0  0  0  0  0
    4.6326    0.5546    3.0631 H   0  0  0  0  0  0  0  0  0  0  0  0
    5.5024   -0.2445    1.7679 H   0  0  0  0  0  0  0  0  0  0  0  0
    5.2167    1.5844    1.6449 H   0  0  0  0  0  0  0  0  0  0  0  0
    2.0205    1.6413    2.3474 H   0  0  0  0  0  0  0  0  0  0  0  0
   -1.5483    0.6161    1.2682 H   0  0  0  0  0  0  0  0  0  0  0  0
   -1.6206    2.2996   -0.4623 H   0  0  0  0  0  0  0  0  0  0  0  0
   -1.3365    1.0199   -1.7460 H   0  0  0  0  0  0  0  0  0  0  0  0
   -4.4732    1.7489   -1.7919 H   0  0  0  0  0  0  0  0  0  0  0  0
   -4.0821    2.6858   -0.3079 H   0  0  0  0  0  0  0  0  0  0  0  0
   -5.1387    1.1691   -0.2325 H   0  0  0  0  0  0  0  0  0  0  0  0
   -1.5692   -1.6447    0.8921 H   0  0  0  0  0  0  0  0  0  0  0  0
   -1.6912   -1.0990   -2.1307 H   0  0  0  0  0  0  0  0  0  0  0  0
   -1.5737   -2.6924   -1.3005 H   0  0  0  0  0  0  0  0  0  0  0  0
    0.2916   -1.3861   -2.7372 H   0  0  0  0  0  0  0  0  0  0  0  0
    0.4822   -2.8248   -1.6333 H   0  0  0  0  0  0  0  0  0  0  0  0
  1  2  1  0
  2  3  2  0
  3  4  1  0
  4  5  1  0
  5  6  1  0
  6  7  1  0
  7  8  1  0
  8  9  1  0
  8 10  1  0
 10 11  2  0
 10 12  1  0
 12 13  1  0
 13 14  1  0
 14 15  1  0
 15 16  2  0
 16 17  1  0
 16 18  1  0
 18 19  2  0
 18  2  1  0
 17  4  2  0
 15  5  1  0
 12  6  1  0
  1 20  1  0
  1 21  1  0
  1 22  1  0
  3 23  1  0
  6 24  1  1
  7 25  1  0
  7 26  1  0
  9 27  1  0
  9 28  1  0
  9 29  1  0
 12 30  1  1
 13 31  1  0
 13 32  1  0
 14 33  1  0
 14 34  1  0
M  END
$$$$
[H]c1nc([H])c2c(c1[H])c(=O)n(C1([H])C([H])([H])C([H])([H])C([H])([H])C([H])([H])C1([H])[H])c(=O)n2C([H])([H])C([H])(C([H])([H])[H])C([H])([H])[H]
     RDKit          3D

 45 47  0  0  0  0  0  0  0  0999 V2000
   -4.9062   -1.2483   -0.6108 C   0  0  0  0  0  0  0  0  0  0  0  0
   -3.6311   -0.8135    0.0522 C   0  0  0  0  0  0  0  0  0  0  0  0
   -2.9574   -1.9859    0.6466 C   0  0  0  0  0  0  0  0  0  0  0  0
   -2.8188   -0.0307   -0.9552 C   0  0  0  0  0  0  0  0  0  0  0  0
   -1.5770    0.4581   -0.4955 N   0  0  0  0  0  0  0  0  0  0  0  0
   -1.4948    1.6639    0.0901 C   0  0  0  0  0  0  0  0  0  0  0  0
   -2.5833    2.4794    0.2849 C   0  0  0  0  0  0  0  0  0  0  0  0
   -2.4630    3.6768    0.8746 N   0  0  0  0  0  0  0  0  0  0  0  0
   -1.2338    4.0999    1.2927 C   0  0  0  0  0  0  0  0  0  0  0  0
   -0.1372    3.2988    1.1064 C   0  0  0  0  0  0  0  0  0  0  0  0
   -0.2135    2.0576    0.5037 C   0  0  0  0  0  0  0  0  0  0  0  0
    0.8923    1.2550    0.3198 C   0  0  0  0  0  0  0  0  0  0  0  0
    1.9845    1.7176    0.7325 O   0  0  0  0  0  0  0  0  0  0  0  0
    0.7618    0.0545   -0.2717 N   0  0  0  0  0  0  0  0  0  0  0  0
    1.9418   -0.7767   -0.4559 C   0  0  0  0  0  0  0  0  0  0  0  0
    2.4317   -1.1865    0.8752 C   0  0  0  0  0  0  0  0  0  0  0  0
    3.8974   -1.1806    1.0954 C   0  0  0  0  0  0  0  0  0  0  0  0
    4.6915   -1.4009   -0.1783 C   0  0  0  0  0  0  0  0  0  0  0  0
    4.3368   -0.2092   -1.0436 C   0  0  0  0  0  0  0  0  0  0  0  0
    2.9001   -0.1389   -1.3871 C   0  0  0  0  0  0  0  0  0  0  0  0
   -0.4663   -0.3214   -0.6676 C   0  0  0  0  0  0  0  0  0  0  0  0
   -0.5404   -1.4534   -1.2173 O   0  0  0  0  0  0  0  0  0  0  0  0
   -4.6669   -1.4772   -1.6740 H   0  0  0  0  0  0  0  0  0  0  0  0
   -5.3035   -2.1895   -0.1646 H   0  0  0  0  0  0  0  0  0  0  0  0
   -5.7242   -0.5013   -0.5289 H   0  0  0  0  0  0  0  0  0  0  0  0
   -3.9352   -0.1317    0.8973 H   0  0  0  0  0  0  0  0  0  0  0  0
   -2.8067   -2.8313   -0.0567 H   0  0  0  0  0  0  0  0  0  0  0  0
   -2.0462   -1.7404    1.2379 H   0  0  0  0  0  0  0  0  0  0  0  0
   -3.6738   -2.3983    1.4195 H   0  0  0  0  0  0  0  0  0  0  0  0
   -3.5320    0.6612   -1.3949 H   0  0  0  0  0  0  0  0  0  0  0  0
   -2.6097   -0.7755   -1.7849 H   0  0  0  0  0  0  0  0  0  0  0  0
   -3.5437    2.1439   -0.0419 H   0  0  0  0  0  0  0  0  0  0  0  0
   -1.2134    5.0663    1.7550 H   0  0  0  0  0  0  0  0  0  0  0  0
    0.8313    3.6332    1.4363 H   0  0  0  0  0  0  0  0  0  0  0  0
    1.5628   -1.7103   -0.9725 H   0  0  0  0  0  0  0  0  0  0  0  0
    1.9769   -0.5480    1.6929 H   0  0  0  0  0  0  0  0  0  0  0  0
    2.0692   -2.2235    1.1559 H   0  0  0  0  0  0  0  0  0  0  0  0
    4.2869   -0.2409    1.5432 H   0  0  0  0  0  0  0  0  0  0  0  0
    4.2188   -1.9934    1.7962 H   0  0  0  0  0  0  0  0  0  0  0  0
    5.7751   -1.2913    0.0788 H   0  0  0  0  0  0  0  0  0  0  0  0
    4.4729   -2.3582   -0.6613 H   0  0  0  0  0  0  0  0  0  0  0  0
    5.0031   -0.2223   -1.9211 H   0  0  0  0  0  0  0  0  0  0  0  0
    4.6093    0.6962   -0.4469 H   0  0  0  0  0  0  0  0  0  0  0  0
    2.6374    0.9540   -1.5136 H   0  0  0  0  0  0  0  0  0  0  0  0
    2.7962   -0.5374   -2.4427 H   0  0  0  0  0  0  0  0  0  0  0  0
  1  2  1  0
  2  3  1  0
  2  4  1  0
  4  5  1  0
  5  6  1  0
  6  7  2  0
  7  8  1  0
  8  9  2  0
  9 10  1  0
 10 11  2  0
 11 12  1  0
 12 13  2  0
 12 14  1  0
 14 15  1  0
 15 16  1  0
 16 17  1  0
 17 18  1  0
 18 19  1  0
 19 20  1  0
 14 21  1  0
 21 22  2  0
 21  5  1  0
 11  6  1  0
 20 15  1  0
  1 23  1  0
  1 24  1  0
  1 25  1  0
  2 26  1  0
  3 27  1  0
  3 28  1  0
  3 29  1  0
  4 30  1  0
  4 31  1  0
  7 32  1  0
  9 33  1  0
 10 34  1  0
 15 35  1  0
 16 36  1  0
 16 37  1  0
 17 38  1  0
 17 39  1  0
 18 40  1  0
 18 41  1  0
 19 42  1  0
 19 43  1  0
 20 44  1  0
 20 45  1  0
M  END
$$$$
[H]ON([H])C(=O)[C@]1([H])N(S(=O)(=O)C([H])([H])[H])C([H])([H])C([H])([H])C([H])([H])SC1(C([H])([H])[H])C([H])([H])[H]
     RDKit          3D

 35 35  0  0  0  0  0  0  0  0999 V2000
   -2.7263    0.3075   -0.7020 C   0  0  0  0  0  0  0  0  0  0  0  0
   -1.2174    0.2518   -0.8993 C   0  0  0  0  0  0  0  0  0  0  0  0
   -0.7981    1.2425   -1.9325 C   0  0  0  0  0  0  0  0  0  0  0  0
   -0.8303   -1.4040   -1.4795 S   0  0  0  0  0  0  0  0  0  0  0  0
   -0.8762   -2.6197   -0.1340 C   0  0  0  0  0  0  0  0  0  0  0  0
    0.4248   -2.6418    0.6244 C   0  0  0  0  0  0  0  0  0  0  0  0
    0.7745   -1.3840    1.3235 C   0  0  0  0  0  0  0  0  0  0  0  0
    0.6958   -0.1716    0.5915 N   0  0  0  0  0  0  0  0  0  0  0  0
   -0.5329    0.4558    0.4588 C   0  0  1  0  0  0  0  0  0  0  0  0
   -0.7197    1.8196    0.9478 C   0  0  0  0  0  0  0  0  0  0  0  0
   -1.8267    2.4100    0.6947 O   0  0  0  0  0  0  0  0  0  0  0  0
    0.2194    2.5687    1.6898 N   0  0  0  0  0  0  0  0  0  0  0  0
   -0.0481    3.8495    2.1051 O   0  0  0  0  0  0  0  0  0  0  0  0
    2.1150    0.4270   -0.0315 S   0  0  0  0  0  0  0  0  0  0  0  0
    2.8324   -0.7272   -1.2205 C   0  0  0  0  0  0  0  0  0  0  0  0
    3.2318    0.5857    0.9867 O   0  0  0  0  0  0  0  0  0  0  0  0
    2.0426    1.7422   -0.7414 O   0  0  0  0  0  0  0  0  0  0  0  0
   -3.1441    1.2950   -1.0522 H   0  0  0  0  0  0  0  0  0  0  0  0
   -3.0290    0.0519    0.3171 H   0  0  0  0  0  0  0  0  0  0  0  0
   -3.1854   -0.4311   -1.3903 H   0  0  0  0  0  0  0  0  0  0  0  0
   -1.6808    1.3300   -2.6385 H   0  0  0  0  0  0  0  0  0  0  0  0
   -0.6562    2.2715   -1.5635 H   0  0  0  0  0  0  0  0  0  0  0  0
    0.0017    0.8279   -2.5421 H   0  0  0  0  0  0  0  0  0  0  0  0
   -1.7348   -2.4844    0.5378 H   0  0  0  0  0  0  0  0  0  0  0  0
   -0.9880   -3.6162   -0.6111 H   0  0  0  0  0  0  0  0  0  0  0  0
    0.2832   -3.4236    1.4246 H   0  0  0  0  0  0  0  0  0  0  0  0
    1.2087   -3.0132   -0.0304 H   0  0  0  0  0  0  0  0  0  0  0  0
    0.2374   -1.2852    2.2961 H   0  0  0  0  0  0  0  0  0  0  0  0
    1.8586   -1.4987    1.6349 H   0  0  0  0  0  0  0  0  0  0  0  0
   -1.2476   -0.1545    1.1425 H   0  0  0  0  0  0  0  0  0  0  0  0
    1.1530    2.2200    1.9754 H   0  0  0  0  0  0  0  0  0  0  0  0
   -0.9517    3.9398    2.4671 H   0  0  0  0  0  0  0  0  0  0  0  0
    3.8485   -0.2844   -1.4513 H   0  0  0  0  0  0  0  0  0  0  0  0
    3.0512   -1.6557   -0.6852 H   0  0  0  0  0  0  0  0  0  0  0  0
    2.2147   -0.8012   -2.1124 H   0  0  0  0  0  0  0  0  0  0  0  0
  1  2  1  0
  2  3  1  0
  2  4  1  0
  4  5  1  0
  5  6  1  0
  6  7  1  0
  7  8  1  0
  8  9  1  0
  9 10  1  0
 10 11  2  0
 10 12  1  0
 12 13  1  0
  8 14  1  0
 14 15  1  0
 14 16  2  0
 14 17  2  0
  9  2  1  0
  1 18  1  0
  1 19  1  0
  1 20  1  0
  3 21  1  0
  3 22  1  0
  3 23  1  0
  5 24  1  0
  5 25  1  0
  6 26  1  0
  6 27  1  0
  7 28  1  0
  7 29  1  0
  9 30  1  1
 12 31  1  0
 13 32  1  0
 15 33  1  0
 15 34  1  0
 15 35  1  0
M  END
$$$$
[H]c1c([H])c([H])c(-c2c([H])c(C([H])([H])[H])c(C([H])([H])[H])c([H])c2C(=O)N2C([H])([H])C([H])([H])C([H])([H])[C@@]2([H])C(=O)N([H])[C@]([H])(C(=O)N(C([H])([H])[H])C([H])([H])c2c([H])c([H])c([H])c([H])c2[H])C([H])([H])c2c([H])c([H])c(C#N)c([H])c2[H])c([H])c1[H]
     RDKit          3D

 83 87  0  0  0  0  0  0  0  0999 V2000
   -7.4300    1.6431   -2.0351 C   0  0  0  0  0  0  0  0  0  0  0  0
   -6.4150    0.6413   -1.6593 C   0  0  0  0  0  0  0  0  0  0  0  0
   -5.0767    0.9750   -1.7056 C   0  0  0  0  0  0  0  0  0  0  0  0
   -4.0717    0.0581   -1.3468 C   0  0  0  0  0  0  0  0  0  0  0  0
   -2.7238    0.5880   -1.4278 C   0  0  0  0  0  0  0  0  0  0  0  0
   -2.1163    0.5148   -2.5182 O   0  0  0  0  0  0  0  0  0  0  0  0
   -2.1241    1.1864   -0.2655 N   0  0  0  0  0  0  0  0  0  0  0  0
   -2.7886    1.2394    1.0451 C   0  0  0  0  0  0  0  0  0  0  0  0
   -1.6249    1.4528    2.0079 C   0  0  0  0  0  0  0  0  0  0  0  0
   -0.8194    2.4554    1.1933 C   0  0  0  0  0  0  0  0  0  0  0  0
   -0.8761    1.8515   -0.1867 C   0  0  1  0  0  0  0  0  0  0  0  0
    0.3414    0.9919   -0.3548 C   0  0  0  0  0  0  0  0  0  0  0  0
    0.2632   -0.2333   -0.6863 O   0  0  0  0  0  0  0  0  0  0  0  0
    1.5659    1.6549   -0.1166 N   0  0  0  0  0  0  0  0  0  0  0  0
    2.8141    0.8579   -0.2794 C   0  0  1  0  0  0  0  0  0  0  0  0
    3.8758    1.7435   -0.8323 C   0  0  0  0  0  0  0  0  0  0  0  0
    4.2399    2.9122   -0.0004 C   0  0  0  0  0  0  0  0  0  0  0  0
    5.1879    2.7448    0.9873 C   0  0  0  0  0  0  0  0  0  0  0  0
    5.5623    3.8062    1.7528 C   0  0  0  0  0  0  0  0  0  0  0  0
    5.0223    5.0667    1.5774 C   0  0  0  0  0  0  0  0  0  0  0  0
    4.0772    5.2262    0.5878 C   0  0  0  0  0  0  0  0  0  0  0  0
    3.6792    4.1786   -0.1986 C   0  0  0  0  0  0  0  0  0  0  0  0
    5.4203    6.1909    2.3941 C   0  0  0  0  0  0  0  0  0  0  0  0
    5.7599    7.0930    3.0623 N   0  0  0  0  0  0  0  0  0  0  0  0
    3.0586    0.2888    1.0570 C   0  0  0  0  0  0  0  0  0  0  0  0
    2.3763    0.7513    2.0673 O   0  0  0  0  0  0  0  0  0  0  0  0
    3.9855   -0.7331    1.3191 N   0  0  0  0  0  0  0  0  0  0  0  0
    4.0860   -1.1225    2.7567 C   0  0  0  0  0  0  0  0  0  0  0  0
    4.7670   -1.3907    0.3525 C   0  0  0  0  0  0  0  0  0  0  0  0
    4.1617   -2.6263   -0.2448 C   0  0  0  0  0  0  0  0  0  0  0  0
    2.9375   -3.0837    0.1687 C   0  0  0  0  0  0  0  0  0  0  0  0
    2.3980   -4.2263   -0.3888 C   0  0  0  0  0  0  0  0  0  0  0  0
    3.0533   -4.9493   -1.3712 C   0  0  0  0  0  0  0  0  0  0  0  0
    4.2821   -4.4508   -1.7559 C   0  0  0  0  0  0  0  0  0  0  0  0
    4.8385   -3.3213   -1.2190 C   0  0  0  0  0  0  0  0  0  0  0  0
   -4.4254   -1.1704   -0.9510 C   0  0  0  0  0  0  0  0  0  0  0  0
   -5.7963   -1.4942   -0.9104 C   0  0  0  0  0  0  0  0  0  0  0  0
   -6.7880   -0.6230   -1.2523 C   0  0  0  0  0  0  0  0  0  0  0  0
   -8.2333   -1.0103   -1.1852 C   0  0  0  0  0  0  0  0  0  0  0  0
   -3.4456   -2.1775   -0.5535 C   0  0  0  0  0  0  0  0  0  0  0  0
   -2.4134   -2.6159   -1.3354 C   0  0  0  0  0  0  0  0  0  0  0  0
   -1.4783   -3.5704   -0.9217 C   0  0  0  0  0  0  0  0  0  0  0  0
   -1.6185   -4.0830    0.3315 C   0  0  0  0  0  0  0  0  0  0  0  0
   -2.6452   -3.6751    1.1631 C   0  0  0  0  0  0  0  0  0  0  0  0
   -3.5473   -2.7377    0.7333 C   0  0  0  0  0  0  0  0  0  0  0  0
   -8.4042    1.5207   -1.5252 H   0  0  0  0  0  0  0  0  0  0  0  0
   -7.0713    2.6569   -1.7684 H   0  0  0  0  0  0  0  0  0  0  0  0
   -7.5508    1.6588   -3.1525 H   0  0  0  0  0  0  0  0  0  0  0  0
   -4.7689    1.9569   -2.0234 H   0  0  0  0  0  0  0  0  0  0  0  0
   -3.3954    0.3698    1.2646 H   0  0  0  0  0  0  0  0  0  0  0  0
   -3.4399    2.1279    1.1127 H   0  0  0  0  0  0  0  0  0  0  0  0
   -1.0507    0.5079    2.0482 H   0  0  0  0  0  0  0  0  0  0  0  0
   -1.9413    1.8095    2.9808 H   0  0  0  0  0  0  0  0  0  0  0  0
   -1.3666    3.4490    1.2116 H   0  0  0  0  0  0  0  0  0  0  0  0
    0.2031    2.5706    1.5920 H   0  0  0  0  0  0  0  0  0  0  0  0
   -0.8148    2.6897   -0.9645 H   0  0  0  0  0  0  0  0  0  0  0  0
    1.6428    2.6358    0.1615 H   0  0  0  0  0  0  0  0  0  0  0  0
    2.6134    0.0175   -0.9766 H   0  0  0  0  0  0  0  0  0  0  0  0
    3.4637    2.2254   -1.8056 H   0  0  0  0  0  0  0  0  0  0  0  0
    4.7893    1.2536   -1.1768 H   0  0  0  0  0  0  0  0  0  0  0  0
    5.6253    1.7778    1.1382 H   0  0  0  0  0  0  0  0  0  0  0  0
    6.3066    3.6569    2.5255 H   0  0  0  0  0  0  0  0  0  0  0  0
    3.6645    6.2387    0.4630 H   0  0  0  0  0  0  0  0  0  0  0  0
    2.9439    4.2851   -0.9779 H   0  0  0  0  0  0  0  0  0  0  0  0
    4.0818   -0.1885    3.3636 H   0  0  0  0  0  0  0  0  0  0  0  0
    5.0066   -1.6607    2.9693 H   0  0  0  0  0  0  0  0  0  0  0  0
    3.1645   -1.6808    3.0185 H   0  0  0  0  0  0  0  0  0  0  0  0
    5.7555   -1.6925    0.8471 H   0  0  0  0  0  0  0  0  0  0  0  0
    5.0750   -0.7406   -0.4614 H   0  0  0  0  0  0  0  0  0  0  0  0
    2.3689   -2.5427    0.9498 H   0  0  0  0  0  0  0  0  0  0  0  0
    1.4206   -4.5957   -0.0573 H   0  0  0  0  0  0  0  0  0  0  0  0
    2.6210   -5.8578   -1.8114 H   0  0  0  0  0  0  0  0  0  0  0  0
    4.7899   -5.0330   -2.5330 H   0  0  0  0  0  0  0  0  0  0  0  0
    5.8225   -2.9766   -1.5690 H   0  0  0  0  0  0  0  0  0  0  0  0
   -6.0227   -2.5121   -0.5776 H   0  0  0  0  0  0  0  0  0  0  0  0
   -8.6979   -1.1082   -2.1711 H   0  0  0  0  0  0  0  0  0  0  0  0
   -8.8244   -0.2480   -0.5961 H   0  0  0  0  0  0  0  0  0  0  0  0
   -8.3054   -1.9648   -0.6267 H   0  0  0  0  0  0  0  0  0  0  0  0
   -2.2749   -2.2552   -2.3419 H   0  0  0  0  0  0  0  0  0  0  0  0
   -0.6785   -3.8695   -1.5979 H   0  0  0  0  0  0  0  0  0  0  0  0
   -0.9354   -4.8191    0.7093 H   0  0  0  0  0  0  0  0  0  0  0  0
   -2.7421   -4.0933    2.1627 H   0  0  0  0  0  0  0  0  0  0  0  0
   -4.3698   -2.3872    1.3410 H   0  0  0  0  0  0  0  0  0  0  0  0
  1  2  1  0
  2  3  2  0
  3  4  1  0
  4  5  1  0
  5  6  2  0
  5  7  1  0
  7  8  1  0
  8  9  1  0
  9 10  1  0
 10 11  1  0
 11 12  1  0
 12 13  2  0
 12 14  1  0
 14 15  1  0
 15 16  1  0
 16 17  1  0
 17 18  2  0
 18 19  1  0
 19 20  2  0
 20 21  1  0
 21 22  2  0
 20 23  1  0
 23 24  3  0
 15 25  1  0
 25 26  2  0
 25 27  1  0
 27 28  1  0
 27 29  1  0
 29 30  1  0
 30 31  2  0
 31 32  1  0
 32 33  2  0
 33 34  1  0
 34 35  2  0
  4 36  2  0
 36 37  1  0
 37 38  2  0
 38 39  1  0
 36 40  1  0
 40 41  2  0
 41 42  1  0
 42 43  2  0
 43 44  1  0
 44 45  2  0
 38  2  1  0
 45 40  1  0
 11  7  1  0
 22 17  1  0
 35 30  1  0
  1 46  1  0
  1 47  1  0
  1 48  1  0
  3 49  1  0
  8 50  1  0
  8 51  1  0
  9 52  1  0
  9 53  1  0
 10 54  1  0
 10 55  1  0
 11 56  1  6
 14 57  1  0
 15 58  1  6
 16 59  1  0
 16 60  1  0
 18 61  1  0
 19 62  1  0
 21 63  1  0
 22 64  1  0
 28 65  1  0
 28 66  1  0
 28 67  1  0
 29 68  1  0
 29 69  1  0
 31 70  1  0
 32 71  1  0
 33 72  1  0
 34 73  1  0
 35 74  1  0
 37 75  1  0
 39 76  1  0
 39 77  1  0
 39 78  1  0
 41 79  1  0
 42 80  1  0
 43 81  1  0
 44 82  1  0
 45 83  1  0
M  END
$$$$
[H]OC(=O)C(=O)N([H])[C@]([H])(C([H])([H])c1nc2c([H])c([H])c([H])c([H])c2c([H])c1[H])C([H])([H])[C@]([H])(C(=O)N([H])[C@]([H])(C(=O)O[H])C([H])([H])c1c([H])c([H])c([H])c([H])c1[H])C([H])([H])[H]
     RDKit          3D

 62 64  0  0  0  0  0  0  0  0999 V2000
   -0.3650   -3.1206   -0.7316 C   0  0  0  0  0  0  0  0  0  0  0  0
    0.0047   -1.6927   -0.7326 C   0  0  2  0  0  0  0  0  0  0  0  0
    1.1876   -1.2355    0.0262 C   0  0  0  0  0  0  0  0  0  0  0  0
    2.4978   -1.8095   -0.3671 C   0  0  1  0  0  0  0  0  0  0  0  0
    3.6730   -1.2849    0.3770 C   0  0  0  0  0  0  0  0  0  0  0  0
    3.9708    0.1526    0.2137 C   0  0  0  0  0  0  0  0  0  0  0  0
    3.4655    0.9625   -0.7702 C   0  0  0  0  0  0  0  0  0  0  0  0
    3.7617    2.3244   -0.8502 C   0  0  0  0  0  0  0  0  0  0  0  0
    4.5928    2.9050    0.0827 C   0  0  0  0  0  0  0  0  0  0  0  0
    4.9084    4.2607    0.0325 C   0  0  0  0  0  0  0  0  0  0  0  0
    5.7458    4.8186    0.9827 C   0  0  0  0  0  0  0  0  0  0  0  0
    6.2564    4.0056    1.9733 C   0  0  0  0  0  0  0  0  0  0  0  0
    5.9280    2.6780    1.9960 C   0  0  0  0  0  0  0  0  0  0  0  0
    5.0931    2.0736    1.0658 C   0  0  0  0  0  0  0  0  0  0  0  0
    4.7907    0.7669    1.1182 N   0  0  0  0  0  0  0  0  0  0  0  0
    2.5161   -3.2456   -0.1912 N   0  0  0  0  0  0  0  0  0  0  0  0
    2.3823   -3.9271    1.0396 C   0  0  0  0  0  0  0  0  0  0  0  0
    2.2280   -3.2833    2.0938 O   0  0  0  0  0  0  0  0  0  0  0  0
    2.4215   -5.3780    1.1002 C   0  0  0  0  0  0  0  0  0  0  0  0
    2.2914   -6.0482    2.2938 O   0  0  0  0  0  0  0  0  0  0  0  0
    2.5763   -6.0271    0.0477 O   0  0  0  0  0  0  0  0  0  0  0  0
   -1.1973   -0.9428   -0.2029 C   0  0  0  0  0  0  0  0  0  0  0  0
   -1.0892   -0.2574    0.8332 O   0  0  0  0  0  0  0  0  0  0  0  0
   -2.4467   -1.0034   -0.8616 N   0  0  0  0  0  0  0  0  0  0  0  0
   -3.5856   -0.2566   -0.3076 C   0  0  1  0  0  0  0  0  0  0  0  0
   -3.9945    0.6909   -1.3895 C   0  0  0  0  0  0  0  0  0  0  0  0
   -5.1274    1.5193   -0.9886 C   0  0  0  0  0  0  0  0  0  0  0  0
   -4.9069    2.6680   -0.2572 C   0  0  0  0  0  0  0  0  0  0  0  0
   -5.9341    3.5135    0.1146 C   0  0  0  0  0  0  0  0  0  0  0  0
   -7.2146    3.1559   -0.2829 C   0  0  0  0  0  0  0  0  0  0  0  0
   -7.4698    2.0209   -1.0107 C   0  0  0  0  0  0  0  0  0  0  0  0
   -6.4050    1.2115   -1.3552 C   0  0  0  0  0  0  0  0  0  0  0  0
   -4.6582   -1.1650    0.0815 C   0  0  0  0  0  0  0  0  0  0  0  0
   -5.8006   -0.7900    0.7252 O   0  0  0  0  0  0  0  0  0  0  0  0
   -4.5405   -2.4193   -0.1873 O   0  0  0  0  0  0  0  0  0  0  0  0
    0.2720   -3.8266   -1.2485 H   0  0  0  0  0  0  0  0  0  0  0  0
   -1.3898   -3.2600   -1.2352 H   0  0  0  0  0  0  0  0  0  0  0  0
   -0.5715   -3.5342    0.2972 H   0  0  0  0  0  0  0  0  0  0  0  0
    0.0543   -1.3773   -1.8142 H   0  0  0  0  0  0  0  0  0  0  0  0
    1.2196   -0.1295   -0.0547 H   0  0  0  0  0  0  0  0  0  0  0  0
    0.9887   -1.4155    1.1334 H   0  0  0  0  0  0  0  0  0  0  0  0
    2.6351   -1.5773   -1.4642 H   0  0  0  0  0  0  0  0  0  0  0  0
    4.5774   -1.8497    0.0468 H   0  0  0  0  0  0  0  0  0  0  0  0
    3.6059   -1.4764    1.4661 H   0  0  0  0  0  0  0  0  0  0  0  0
    2.8170    0.5420   -1.5461 H   0  0  0  0  0  0  0  0  0  0  0  0
    3.3614    2.9471   -1.6216 H   0  0  0  0  0  0  0  0  0  0  0  0
    4.4933    4.8620   -0.7517 H   0  0  0  0  0  0  0  0  0  0  0  0
    6.0055    5.8720    0.9635 H   0  0  0  0  0  0  0  0  0  0  0  0
    6.9124    4.4750    2.7061 H   0  0  0  0  0  0  0  0  0  0  0  0
    6.3360    2.0569    2.7774 H   0  0  0  0  0  0  0  0  0  0  0  0
    2.6472   -3.8265   -1.0873 H   0  0  0  0  0  0  0  0  0  0  0  0
    3.0821   -6.5433    2.7126 H   0  0  0  0  0  0  0  0  0  0  0  0
   -2.5322   -1.5742   -1.7212 H   0  0  0  0  0  0  0  0  0  0  0  0
   -3.2236    0.2575    0.5994 H   0  0  0  0  0  0  0  0  0  0  0  0
   -4.2058    0.1417   -2.3468 H   0  0  0  0  0  0  0  0  0  0  0  0
   -3.1611    1.3890   -1.6448 H   0  0  0  0  0  0  0  0  0  0  0  0
   -3.8914    2.9134    0.0345 H   0  0  0  0  0  0  0  0  0  0  0  0
   -5.7769    4.4158    0.6869 H   0  0  0  0  0  0  0  0  0  0  0  0
   -8.0198    3.8285    0.0148 H   0  0  0  0  0  0  0  0  0  0  0  0
   -8.4771    1.7783   -1.2995 H   0  0  0  0  0  0  0  0  0  0  0  0
   -6.6100    0.3171   -1.9298 H   0  0  0  0  0  0  0  0  0  0  0  0
   -6.7053   -1.2467    0.6155 H   0  0  0  0  0  0  0  0  0  0  0  0
  1  2  1  0
  2  3  1  0
  3  4  1  0
  4  5  1  0
  5  6  1  0
  6  7  2  0
  7  8  1  0
  8  9  2  0
  9 10  1  0
 10 11  2  0
 11 12  1  0
 12 13  2  0
 13 14  1  0
 14 15  2  0
  4 16  1  0
 16 17  1  0
 17 18  2  0
 17 19  1  0
 19 20  1  0
 19 21  2  0
  2 22  1  0
 22 23  2  0
 22 24  1  0
 24 25  1  0
 25 26  1  0
 26 27  1  0
 27 28  2  0
 28 29  1  0
 29 30  2  0
 30 31  1  0
 31 32  2  0
 25 33  1  0
 33 34  1  0
 33 35  2  0
 15  6  1  0
 32 27  1  0
 14  9  1  0
  1 36  1  0
  1 37  1  0
  1 38  1  0
  2 39  1  6
  3 40  1  0
  3 41  1  0
  4 42  1  6
  5 43  1  0
  5 44  1  0
  7 45  1  0
  8 46  1  0
 10 47  1  0
 11 48  1  0
 12 49  1  0
 13 50  1  0
 16 51  1  0
 20 52  1  0
 24 53  1  0
 25 54  1  1
 26 55  1  0
 26 56  1  0
 28 57  1  0
 29 58  1  0
 30 59  1  0
 31 60  1  0
 32 61  1  0
 34 62  1  0
M  END
$$$$
[H]c1nc([H])c(C(=O)N2C([H])([H])C([H])([H])C3([H])C(C#Cc4c([H])c([H])c([H])c(Cl)c4[H])=NOC23[H])nc1[H]
     RDKit          3D

 38 41  0  0  0  0  0  0  0  0999 V2000
   -6.5606    3.9707    0.5211 Cl  0  0  0  0  0  0  0  0  0  0  0  0
   -6.0795    2.2842    0.3703 C   0  0  0  0  0  0  0  0  0  0  0  0
   -7.0615    1.3447    0.1294 C   0  0  0  0  0  0  0  0  0  0  0  0
   -6.7021    0.0000    0.0061 C   0  0  0  0  0  0  0  0  0  0  0  0
   -5.3714   -0.3536    0.1287 C   0  0  0  0  0  0  0  0  0  0  0  0
   -4.4020    0.6251    0.3729 C   0  0  0  0  0  0  0  0  0  0  0  0
   -4.7393    1.9513    0.4967 C   0  0  0  0  0  0  0  0  0  0  0  0
   -3.0167    0.2705    0.5023 C   0  0  0  0  0  0  0  0  0  0  0  0
   -1.8412   -0.0523    0.6148 C   0  0  0  0  0  0  0  0  0  0  0  0
   -0.4693   -0.4546    0.7490 C   0  0  0  0  0  0  0  0  0  0  0  0
    0.3394    0.0782    1.6049 N   0  0  0  0  0  0  0  0  0  0  0  0
    1.5893   -0.4901    1.5238 O   0  0  0  0  0  0  0  0  0  0  0  0
    1.7177   -1.1302    0.2651 C   0  0  0  0  0  0  0  0  0  0  0  0
    0.2724   -1.4942   -0.0076 C   0  0  0  0  0  0  0  0  0  0  0  0
    0.1738   -1.2064   -1.4891 C   0  0  0  0  0  0  0  0  0  0  0  0
    0.9450    0.0943   -1.5708 C   0  0  0  0  0  0  0  0  0  0  0  0
    2.1166   -0.2098   -0.7564 N   0  0  0  0  0  0  0  0  0  0  0  0
    3.3968    0.3392   -0.9820 C   0  0  0  0  0  0  0  0  0  0  0  0
    3.5890    1.1558   -1.9498 O   0  0  0  0  0  0  0  0  0  0  0  0
    4.5556    0.0291   -0.1595 C   0  0  0  0  0  0  0  0  0  0  0  0
    5.7970    0.6016   -0.4299 C   0  0  0  0  0  0  0  0  0  0  0  0
    6.8933    0.3262    0.3253 N   0  0  0  0  0  0  0  0  0  0  0  0
    6.7808   -0.5105    1.3489 C   0  0  0  0  0  0  0  0  0  0  0  0
    5.5716   -1.0719    1.6172 C   0  0  0  0  0  0  0  0  0  0  0  0
    4.5035   -0.8015    0.8787 N   0  0  0  0  0  0  0  0  0  0  0  0
   -8.1163    1.6436    0.0345 H   0  0  0  0  0  0  0  0  0  0  0  0
   -7.4190   -0.7663   -0.1798 H   0  0  0  0  0  0  0  0  0  0  0  0
   -5.0143   -1.3606    0.0474 H   0  0  0  0  0  0  0  0  0  0  0  0
   -4.0352    2.7407    0.6839 H   0  0  0  0  0  0  0  0  0  0  0  0
    2.3281   -2.0444    0.3448 H   0  0  0  0  0  0  0  0  0  0  0  0
    0.0144   -2.5155    0.2662 H   0  0  0  0  0  0  0  0  0  0  0  0
    0.6077   -1.9969   -2.0997 H   0  0  0  0  0  0  0  0  0  0  0  0
   -0.8999   -1.0179   -1.7599 H   0  0  0  0  0  0  0  0  0  0  0  0
    0.3385    0.8720   -1.0786 H   0  0  0  0  0  0  0  0  0  0  0  0
    1.2199    0.3539   -2.6121 H   0  0  0  0  0  0  0  0  0  0  0  0
    5.8571    1.2736   -1.2632 H   0  0  0  0  0  0  0  0  0  0  0  0
    7.6659   -0.7200    1.9423 H   0  0  0  0  0  0  0  0  0  0  0  0
    5.4551   -1.7583    2.4479 H   0  0  0  0  0  0  0  0  0  0  0  0
  1  2  1  0
  2  3  2  0
  3  4  1  0
  4  5  2  0
  5  6  1  0
  6  7  2  0
  6  8  1  0
  8  9  3  0
  9 10  1  0
 10 11  2  0
 11 12  1  0
 12 13  1  0
 13 14  1  0
 14 15  1  0
 15 16  1  0
 16 17  1  0
 17 18  1  0
 18 19  2  0
 18 20  1  0
 20 21  2  0
 21 22  1  0
 22 23  2  0
 23 24  1  0
 24 25  2  0
  7  2  1  0
 14 10  1  0
 25 20  1  0
 17 13  1  0
  3 26  1  0
  4 27  1  0
  5 28  1  0
  7 29  1  0
 13 30  1  0
 14 31  1  0
 15 32  1  0
 15 33  1  0
 16 34  1  0
 16 35  1  0
 21 36  1  0
 23 37  1  0
 24 38  1  0
M  END
$$$$
[H]/C(=C(/[H])c1c([H])c(F)c(C2([H])C(=O)N(C([H])([H])[H])C([H])([H])C([H])([H])C2([H])C([H])([H])[H])c([H])c1OC([H])([H])[H])c1c([H])c([H])c2c(c1[H])C([H])([H])C([H])([H])C2([H])[H]
     RDKit          3D

 57 60  0  0  0  0  0  0  0  0999 V2000
   -0.3032   -2.6925   -1.0445 C   0  0  0  0  0  0  0  0  0  0  0  0
    0.3356   -1.5269   -0.6017 O   0  0  0  0  0  0  0  0  0  0  0  0
   -0.3792   -0.5507    0.0583 C   0  0  0  0  0  0  0  0  0  0  0  0
   -1.7453   -0.7233    0.2734 C   0  0  0  0  0  0  0  0  0  0  0  0
   -2.5478    0.2177    0.9355 C   0  0  0  0  0  0  0  0  0  0  0  0
   -3.9208   -0.2009    1.1636 C   0  0  0  0  0  0  0  0  0  0  0  0
   -4.4086   -1.0177   -0.0112 C   0  0  0  0  0  0  0  0  0  0  0  0
   -4.8023   -2.4231    0.3476 C   0  0  0  0  0  0  0  0  0  0  0  0
   -5.6254   -0.3990   -0.6876 C   0  0  0  0  0  0  0  0  0  0  0  0
   -5.7309    1.0983   -0.4720 C   0  0  0  0  0  0  0  0  0  0  0  0
   -5.9695    1.2436    0.9529 N   0  0  0  0  0  0  0  0  0  0  0  0
   -7.1415    1.8592    1.4882 C   0  0  0  0  0  0  0  0  0  0  0  0
   -4.8983    0.6750    1.7470 C   0  0  0  0  0  0  0  0  0  0  0  0
   -4.9250    1.0186    2.9593 O   0  0  0  0  0  0  0  0  0  0  0  0
   -1.9215    1.3430    1.3756 C   0  0  0  0  0  0  0  0  0  0  0  0
   -2.6624    2.2829    2.0006 F   0  0  0  0  0  0  0  0  0  0  0  0
   -0.5811    1.5249    1.1702 C   0  0  0  0  0  0  0  0  0  0  0  0
    0.2222    0.5896    0.5100 C   0  0  0  0  0  0  0  0  0  0  0  0
    1.6423    0.8647    0.3578 C   0  0  0  0  0  0  0  0  0  0  0  0
    2.5607    0.1391   -0.2016 C   0  0  0  0  0  0  0  0  0  0  0  0
    3.9946    0.4821   -0.3203 C   0  0  0  0  0  0  0  0  0  0  0  0
    4.4873    1.6477    0.1976 C   0  0  0  0  0  0  0  0  0  0  0  0
    5.8504    1.8991    0.0736 C   0  0  0  0  0  0  0  0  0  0  0  0
    6.7334    1.0580   -0.5324 C   0  0  0  0  0  0  0  0  0  0  0  0
    8.1909    1.0889   -0.7809 C   0  0  0  0  0  0  0  0  0  0  0  0
    8.5399   -0.3279   -1.1414 C   0  0  0  0  0  0  0  0  0  0  0  0
    7.2770   -0.9340   -1.6836 C   0  0  0  0  0  0  0  0  0  0  0  0
    6.1863   -0.1162   -1.0460 C   0  0  0  0  0  0  0  0  0  0  0  0
    4.8471   -0.3977   -0.9424 C   0  0  0  0  0  0  0  0  0  0  0  0
    0.4225   -3.4413   -1.4281 H   0  0  0  0  0  0  0  0  0  0  0  0
   -0.8455   -3.1675   -0.1665 H   0  0  0  0  0  0  0  0  0  0  0  0
   -1.0928   -2.4385   -1.7691 H   0  0  0  0  0  0  0  0  0  0  0  0
   -2.1316   -1.6639   -0.0872 H   0  0  0  0  0  0  0  0  0  0  0  0
   -3.7793   -1.0372    1.9838 H   0  0  0  0  0  0  0  0  0  0  0  0
   -3.6667   -1.0748   -0.8347 H   0  0  0  0  0  0  0  0  0  0  0  0
   -4.1472   -2.8221    1.1611 H   0  0  0  0  0  0  0  0  0  0  0  0
   -5.8851   -2.4944    0.6419 H   0  0  0  0  0  0  0  0  0  0  0  0
   -4.6646   -3.1289   -0.5052 H   0  0  0  0  0  0  0  0  0  0  0  0
   -5.5783   -0.5425   -1.7851 H   0  0  0  0  0  0  0  0  0  0  0  0
   -6.5574   -0.8625   -0.3477 H   0  0  0  0  0  0  0  0  0  0  0  0
   -6.5929    1.4515   -1.0585 H   0  0  0  0  0  0  0  0  0  0  0  0
   -4.7915    1.6404   -0.7365 H   0  0  0  0  0  0  0  0  0  0  0  0
   -7.3073    2.8835    1.0826 H   0  0  0  0  0  0  0  0  0  0  0  0
   -7.1254    1.9412    2.5969 H   0  0  0  0  0  0  0  0  0  0  0  0
   -8.0748    1.2843    1.2560 H   0  0  0  0  0  0  0  0  0  0  0  0
   -0.1150    2.4307    1.5307 H   0  0  0  0  0  0  0  0  0  0  0  0
    2.0305    1.8307    0.7711 H   0  0  0  0  0  0  0  0  0  0  0  0
    2.2950   -0.7931   -0.6207 H   0  0  0  0  0  0  0  0  0  0  0  0
    3.8620    2.3981    0.7109 H   0  0  0  0  0  0  0  0  0  0  0  0
    6.2245    2.8289    0.4887 H   0  0  0  0  0  0  0  0  0  0  0  0
    8.4218    1.8111   -1.5932 H   0  0  0  0  0  0  0  0  0  0  0  0
    8.7500    1.3799    0.1495 H   0  0  0  0  0  0  0  0  0  0  0  0
    8.8240   -0.8825   -0.2238 H   0  0  0  0  0  0  0  0  0  0  0  0
    9.3940   -0.3946   -1.8487 H   0  0  0  0  0  0  0  0  0  0  0  0
    7.1849   -1.9900   -1.3689 H   0  0  0  0  0  0  0  0  0  0  0  0
    7.1783   -0.7932   -2.7794 H   0  0  0  0  0  0  0  0  0  0  0  0
    4.4630   -1.3380   -1.3658 H   0  0  0  0  0  0  0  0  0  0  0  0
  1  2  1  0
  2  3  1  0
  3  4  2  0
  4  5  1  0
  5  6  1  0
  6  7  1  0
  7  8  1  0
  7  9  1  0
  9 10  1  0
 10 11  1  0
 11 12  1  0
 11 13  1  0
 13 14  2  0
  5 15  2  0
 15 16  1  0
 15 17  1  0
 17 18  2  0
 18 19  1  0
 19 20  2  0
 20 21  1  0
 21 22  2  0
 22 23  1  0
 23 24  2  0
 24 25  1  0
 25 26  1  0
 26 27  1  0
 27 28  1  0
 28 29  2  0
 18  3  1  0
 29 21  1  0
 13  6  1  0
 28 24  1  0
  1 30  1  0
  1 31  1  0
  1 32  1  0
  4 33  1  0
  6 34  1  0
  7 35  1  0
  8 36  1  0
  8 37  1  0
  8 38  1  0
  9 39  1  0
  9 40  1  0
 10 41  1  0
 10 42  1  0
 12 43  1  0
 12 44  1  0
 12 45  1  0
 17 46  1  0
 19 47  1  0
 20 48  1  0
 22 49  1  0
 23 50  1  0
 25 51  1  0
 25 52  1  0
 26 53  1  0
 26 54  1  0
 27 55  1  0
 27 56  1  0
 29 57  1  0
M  END
$$$$
[H]c1c([H])c(N([H])C(=O)c2c(C([H])([H])[H])c(C(=O)C(=O)N([H])C3(C(=O)N([H])[H])C([H])([H])C(F)(F)C3([H])[H])c3n2C([H])([H])C([H])([H])C3([H])[H])c([H])c(C#N)c1F
     RDKit          3D

 55 58  0  0  0  0  0  0  0  0999 V2000
   -0.2672   -0.2489    2.1598 C   0  0  0  0  0  0  0  0  0  0  0  0
   -0.5001   -0.6175    0.7347 C   0  0  0  0  0  0  0  0  0  0  0  0
    0.4713   -1.1166   -0.0970 C   0  0  0  0  0  0  0  0  0  0  0  0
    1.8782   -1.3760    0.2379 C   0  0  0  0  0  0  0  0  0  0  0  0
    2.2206   -2.5005    0.6860 O   0  0  0  0  0  0  0  0  0  0  0  0
    2.9122   -0.3712    0.0712 C   0  0  0  0  0  0  0  0  0  0  0  0
    2.5545    0.7469   -0.3771 O   0  0  0  0  0  0  0  0  0  0  0  0
    4.2545   -0.5998    0.3840 N   0  0  0  0  0  0  0  0  0  0  0  0
    5.3307    0.3382    0.2431 C   0  0  0  0  0  0  0  0  0  0  0  0
    6.6780   -0.1921    0.7143 C   0  0  0  0  0  0  0  0  0  0  0  0
    6.5372    0.6497    1.9882 C   0  0  0  0  0  0  0  0  0  0  0  0
    6.1213   -0.0864    3.0749 F   0  0  0  0  0  0  0  0  0  0  0  0
    7.6358    1.4130    2.2860 F   0  0  0  0  0  0  0  0  0  0  0  0
    5.4092    1.4121    1.2821 C   0  0  0  0  0  0  0  0  0  0  0  0
    5.5196    0.8031   -1.1755 C   0  0  0  0  0  0  0  0  0  0  0  0
    6.5123    1.7487   -1.5084 N   0  0  0  0  0  0  0  0  0  0  0  0
    4.7919    0.3527   -2.0866 O   0  0  0  0  0  0  0  0  0  0  0  0
   -0.1331   -1.3340   -1.3334 C   0  0  0  0  0  0  0  0  0  0  0  0
    0.2207   -1.8380   -2.6994 C   0  0  0  0  0  0  0  0  0  0  0  0
   -1.0084   -1.5880   -3.5011 C   0  0  0  0  0  0  0  0  0  0  0  0
   -2.0928   -1.1960   -2.5548 C   0  0  0  0  0  0  0  0  0  0  0  0
   -1.4295   -0.9841   -1.2745 N   0  0  0  0  0  0  0  0  0  0  0  0
   -1.6711   -0.5414   -0.0081 C   0  0  0  0  0  0  0  0  0  0  0  0
   -2.9485   -0.0492    0.5350 C   0  0  0  0  0  0  0  0  0  0  0  0
   -2.8923    0.3410    1.7528 O   0  0  0  0  0  0  0  0  0  0  0  0
   -4.1393    0.0012   -0.1884 N   0  0  0  0  0  0  0  0  0  0  0  0
   -5.3878    0.4428    0.2411 C   0  0  0  0  0  0  0  0  0  0  0  0
   -6.4143    0.6984   -0.6975 C   0  0  0  0  0  0  0  0  0  0  0  0
   -7.6610    1.1175   -0.3289 C   0  0  0  0  0  0  0  0  0  0  0  0
   -7.9723    1.3099    0.9812 C   0  0  0  0  0  0  0  0  0  0  0  0
   -9.2320    1.7299    1.2998 F   0  0  0  0  0  0  0  0  0  0  0  0
   -7.0191    1.0787    1.9422 C   0  0  0  0  0  0  0  0  0  0  0  0
   -5.7412    0.6473    1.5417 C   0  0  0  0  0  0  0  0  0  0  0  0
   -7.3265    1.2752    3.3272 C   0  0  0  0  0  0  0  0  0  0  0  0
   -7.5591    1.4446    4.4509 N   0  0  0  0  0  0  0  0  0  0  0  0
   -0.4525    0.8283    2.3208 H   0  0  0  0  0  0  0  0  0  0  0  0
    0.7325   -0.5839    2.5032 H   0  0  0  0  0  0  0  0  0  0  0  0
   -0.9926   -0.7969    2.8298 H   0  0  0  0  0  0  0  0  0  0  0  0
    4.4974   -1.5659    0.7634 H   0  0  0  0  0  0  0  0  0  0  0  0
    7.5533    0.1849    0.1473 H   0  0  0  0  0  0  0  0  0  0  0  0
    6.7150   -1.2560    0.9464 H   0  0  0  0  0  0  0  0  0  0  0  0
    5.7403    2.3912    0.8530 H   0  0  0  0  0  0  0  0  0  0  0  0
    4.5315    1.4803    1.9606 H   0  0  0  0  0  0  0  0  0  0  0  0
    6.4231    2.7363   -1.2183 H   0  0  0  0  0  0  0  0  0  0  0  0
    7.3419    1.4565   -2.0493 H   0  0  0  0  0  0  0  0  0  0  0  0
    0.4302   -2.9202   -2.6952 H   0  0  0  0  0  0  0  0  0  0  0  0
    1.1338   -1.3406   -3.0880 H   0  0  0  0  0  0  0  0  0  0  0  0
   -1.3533   -2.4916   -4.0533 H   0  0  0  0  0  0  0  0  0  0  0  0
   -0.7744   -0.8201   -4.2680 H   0  0  0  0  0  0  0  0  0  0  0  0
   -2.8773   -1.9770   -2.4419 H   0  0  0  0  0  0  0  0  0  0  0  0
   -2.5167   -0.2329   -2.9598 H   0  0  0  0  0  0  0  0  0  0  0  0
   -4.0971   -0.3445   -1.1952 H   0  0  0  0  0  0  0  0  0  0  0  0
   -6.1741    0.5483   -1.7389 H   0  0  0  0  0  0  0  0  0  0  0  0
   -8.4496    1.3120   -1.0749 H   0  0  0  0  0  0  0  0  0  0  0  0
   -5.0636    0.4805    2.3550 H   0  0  0  0  0  0  0  0  0  0  0  0
  1  2  1  0
  2  3  1  0
  3  4  1  0
  4  5  2  0
  4  6  1  0
  6  7  2  0
  6  8  1  0
  8  9  1  0
  9 10  1  0
 10 11  1  0
 11 12  1  0
 11 13  1  0
 11 14  1  0
  9 15  1  0
 15 16  1  0
 15 17  2  0
  3 18  2  0
 18 19  1  0
 19 20  1  0
 20 21  1  0
 21 22  1  0
 22 23  1  0
 23 24  1  0
 24 25  2  0
 24 26  1  0
 26 27  1  0
 27 28  2  0
 28 29  1  0
 29 30  2  0
 30 31  1  0
 30 32  1  0
 32 33  2  0
 32 34  1  0
 34 35  3  0
 23  2  2  0
 33 27  1  0
 14  9  1  0
 22 18  1  0
  1 36  1  0
  1 37  1  0
  1 38  1  0
  8 39  1  0
 10 40  1  0
 10 41  1  0
 14 42  1  0
 14 43  1  0
 16 44  1  0
 16 45  1  0
 19 46  1  0
 19 47  1  0
 20 48  1  0
 20 49  1  0
 21 50  1  0
 21 51  1  0
 26 52  1  0
 28 53  1  0
 29 54  1  0
 33 55  1  0
M  END
$$$$
[H]c1c([H])c2c3c(c1[H])[C@@](C([H])([H])[H])(C(=O)C2([H])C([H])([H])C([H])([H])C([H])([H])C([H])([H])Cl)C([H])([H])C3([H])[H]
     RDKit          3D

 37 39  0  0  0  0  0  0  0  0999 V2000
   -2.3579    0.2680   -1.5539 C   0  0  0  0  0  0  0  0  0  0  0  0
   -1.9825   -0.2263   -0.1089 C   0  0  2  0  0  0  0  0  0  0  0  0
   -2.4512   -1.6538    0.0893 C   0  0  0  0  0  0  0  0  0  0  0  0
   -3.2421   -0.7135    0.1557 C   0  0  0  0  0  0  0  0  0  0  0  0
   -2.1252    0.3864    0.5315 C   0  0  0  0  0  0  0  0  0  0  0  0
   -2.5764    0.6617    1.0122 C   0  0  0  0  0  0  0  0  0  0  0  0
   -2.4854    1.7654    1.9298 C   0  0  0  0  0  0  0  0  0  0  0  0
   -1.4444    2.5763    2.0840 C   0  0  0  0  0  0  0  0  0  0  0  0
   -0.4728    2.1207    1.1691 C   0  0  0  0  0  0  0  0  0  0  0  0
   -0.8365    1.0678    0.4442 C   0  0  0  0  0  0  0  0  0  0  0  0
    0.2453    0.5624   -0.4770 C   0  0  0  0  0  0  0  0  0  0  0  0
    1.5038    0.3534    0.2492 C   0  0  0  0  0  0  0  0  0  0  0  0
    2.5313   -0.1566   -0.7264 C   0  0  0  0  0  0  0  0  0  0  0  0
    3.8178   -0.3679    0.0270 C   0  0  0  0  0  0  0  0  0  0  0  0
    4.8531   -0.8818   -0.9571 C   0  0  0  0  0  0  0  0  0  0  0  0
    5.0754    0.3183   -2.2405 Cl  0  0  0  0  0  0  0  0  0  0  0  0
   -0.5799   -0.6113   -0.2620 C   0  0  0  0  0  0  0  0  0  0  0  0
   -0.1566   -1.6399   -0.2261 O   0  0  0  0  0  0  0  0  0  0  0  0
   -2.8328   -0.5901   -2.0358 H   0  0  0  0  0  0  0  0  0  0  0  0
   -1.4952    0.5506   -2.1028 H   0  0  0  0  0  0  0  0  0  0  0  0
   -2.9722    1.1438   -1.3372 H   0  0  0  0  0  0  0  0  0  0  0  0
   -2.2855   -2.1465   -0.8613 H   0  0  0  0  0  0  0  0  0  0  0  0
   -1.9256   -2.1173    0.9367 H   0  0  0  0  0  0  0  0  0  0  0  0
   -3.8084   -1.0172    1.0763 H   0  0  0  0  0  0  0  0  0  0  0  0
   -4.0132   -0.3383   -0.4384 H   0  0  0  0  0  0  0  0  0  0  0  0
   -3.3722    1.8332    2.4754 H   0  0  0  0  0  0  0  0  0  0  0  0
   -1.3443    3.3797    2.7325 H   0  0  0  0  0  0  0  0  0  0  0  0
    0.4643    2.6114    1.0891 H   0  0  0  0  0  0  0  0  0  0  0  0
    0.1892    1.1728   -1.3268 H   0  0  0  0  0  0  0  0  0  0  0  0
    1.8710    1.3075    0.6392 H   0  0  0  0  0  0  0  0  0  0  0  0
    1.3701   -0.3245    1.1045 H   0  0  0  0  0  0  0  0  0  0  0  0
    2.6994    0.6388   -1.4765 H   0  0  0  0  0  0  0  0  0  0  0  0
    2.1526   -1.1012   -1.1561 H   0  0  0  0  0  0  0  0  0  0  0  0
    3.6498   -1.0823    0.8535 H   0  0  0  0  0  0  0  0  0  0  0  0
    4.1319    0.6185    0.4411 H   0  0  0  0  0  0  0  0  0  0  0  0
    5.7807   -1.0733   -0.3789 H   0  0  0  0  0  0  0  0  0  0  0  0
    4.4246   -1.8320   -1.3746 H   0  0  0  0  0  0  0  0  0  0  0  0
  2  1  1  6
  2  3  1  0
  3  4  1  0
  4  5  1  0
  5  6  2  0
  6  7  1  0
  7  8  2  0
  8  9  1  0
  9 10  2  0
 10 11  1  0
 11 12  1  0
 12 13  1  0
 13 14  1  0
 14 15  1  0
 15 16  1  0
 11 17  1  0
 17 18  2  0
  6  2  1  0
 17  2  1  0
 10  5  1  0
  1 19  1  0
  1 20  1  0
  1 21  1  0
  3 22  1  0
  3 23  1  0
  4 24  1  0
  4 25  1  0
  7 26  1  0
  8 27  1  0
  9 28  1  0
 11 29  1  0
 12 30  1  0
 12 31  1  0
 13 32  1  0
 13 33  1  0
 14 34  1  0
 14 35  1  0
 15 36  1  0
 15 37  1  0
M  END
$$$$
[H]OC(=O)C([H])([H])Oc1c([H])c([H])c([H])c2c1c(C(=O)C(=O)N([H])[H])c(C([H])([H])C([H])([H])[H])n2C([H])([H])c1c([H])c([H])c([H])c([H])c1[H]
     RDKit          3D

 48 50  0  0  0  0  0  0  0  0999 V2000
    1.5527    2.5939    1.3463 C   0  0  0  0  0  0  0  0  0  0  0  0
    1.2316    2.3902   -0.1145 C   0  0  0  0  0  0  0  0  0  0  0  0
    0.5790    1.0839   -0.3959 C   0  0  0  0  0  0  0  0  0  0  0  0
   -0.7546    0.8284   -0.0584 C   0  0  0  0  0  0  0  0  0  0  0  0
   -1.6609    1.7647    0.6190 C   0  0  0  0  0  0  0  0  0  0  0  0
   -1.7477    1.7945    1.8709 O   0  0  0  0  0  0  0  0  0  0  0  0
   -2.4924    2.6941   -0.1508 C   0  0  0  0  0  0  0  0  0  0  0  0
   -3.3733    3.6062    0.4909 N   0  0  0  0  0  0  0  0  0  0  0  0
   -2.4103    2.6684   -1.3997 O   0  0  0  0  0  0  0  0  0  0  0  0
   -1.0611   -0.4479   -0.4719 C   0  0  0  0  0  0  0  0  0  0  0  0
   -2.2096   -1.2165   -0.4104 C   0  0  0  0  0  0  0  0  0  0  0  0
   -3.3678   -0.6936    0.1843 O   0  0  0  0  0  0  0  0  0  0  0  0
   -4.5399   -1.4881    0.2430 C   0  0  0  0  0  0  0  0  0  0  0  0
   -5.6270   -0.7484    0.9036 C   0  0  0  0  0  0  0  0  0  0  0  0
   -5.4040    0.5373    1.3587 O   0  0  0  0  0  0  0  0  0  0  0  0
   -6.7580   -1.2805    1.0561 O   0  0  0  0  0  0  0  0  0  0  0  0
   -2.1970   -2.4876   -0.9360 C   0  0  0  0  0  0  0  0  0  0  0  0
   -1.0545   -2.9859   -1.5155 C   0  0  0  0  0  0  0  0  0  0  0  0
    0.0810   -2.2211   -1.5740 C   0  0  0  0  0  0  0  0  0  0  0  0
    0.1000   -0.9407   -1.0541 C   0  0  0  0  0  0  0  0  0  0  0  0
    1.0888   -0.0010   -1.0010 N   0  0  0  0  0  0  0  0  0  0  0  0
    2.4035   -0.1840   -1.5265 C   0  0  0  0  0  0  0  0  0  0  0  0
    3.4196   -0.7157   -0.6031 C   0  0  0  0  0  0  0  0  0  0  0  0
    3.6545   -2.0636   -0.4306 C   0  0  0  0  0  0  0  0  0  0  0  0
    4.6407   -2.5315    0.4547 C   0  0  0  0  0  0  0  0  0  0  0  0
    5.4189   -1.6693    1.1906 C   0  0  0  0  0  0  0  0  0  0  0  0
    5.1956   -0.3267    1.0277 C   0  0  0  0  0  0  0  0  0  0  0  0
    4.2369    0.1140    0.1669 C   0  0  0  0  0  0  0  0  0  0  0  0
    2.6524    2.8010    1.4141 H   0  0  0  0  0  0  0  0  0  0  0  0
    1.0249    3.4672    1.7772 H   0  0  0  0  0  0  0  0  0  0  0  0
    1.3002    1.6632    1.8777 H   0  0  0  0  0  0  0  0  0  0  0  0
    0.5874    3.2322   -0.4352 H   0  0  0  0  0  0  0  0  0  0  0  0
    2.1536    2.4698   -0.7557 H   0  0  0  0  0  0  0  0  0  0  0  0
   -4.3639    3.4363    0.6858 H   0  0  0  0  0  0  0  0  0  0  0  0
   -2.9639    4.5228    0.7831 H   0  0  0  0  0  0  0  0  0  0  0  0
   -4.8680   -1.7258   -0.8094 H   0  0  0  0  0  0  0  0  0  0  0  0
   -4.3288   -2.4634    0.7272 H   0  0  0  0  0  0  0  0  0  0  0  0
   -5.9664    1.3337    1.0917 H   0  0  0  0  0  0  0  0  0  0  0  0
   -3.1234   -3.0668   -0.8696 H   0  0  0  0  0  0  0  0  0  0  0  0
   -1.0424   -3.9898   -1.9318 H   0  0  0  0  0  0  0  0  0  0  0  0
    0.9680   -2.6586   -2.0525 H   0  0  0  0  0  0  0  0  0  0  0  0
    2.7802    0.7494   -2.0479 H   0  0  0  0  0  0  0  0  0  0  0  0
    2.3334   -0.9181   -2.3874 H   0  0  0  0  0  0  0  0  0  0  0  0
    3.0689   -2.7836   -0.9982 H   0  0  0  0  0  0  0  0  0  0  0  0
    4.7716   -3.6025    0.5411 H   0  0  0  0  0  0  0  0  0  0  0  0
    6.1641   -2.0742    1.8582 H   0  0  0  0  0  0  0  0  0  0  0  0
    5.8213    0.3567    1.6193 H   0  0  0  0  0  0  0  0  0  0  0  0
    4.0860    1.1769    0.0546 H   0  0  0  0  0  0  0  0  0  0  0  0
  1  2  1  0
  2  3  1  0
  3  4  2  0
  4  5  1  0
  5  6  2  0
  5  7  1  0
  7  8  1  0
  7  9  2  0
  4 10  1  0
 10 11  2  0
 11 12  1  0
 12 13  1  0
 13 14  1  0
 14 15  1  0
 14 16  2  0
 11 17  1  0
 17 18  2  0
 18 19  1  0
 19 20  2  0
 20 21  1  0
 21 22  1  0
 22 23  1  0
 23 24  2  0
 24 25  1  0
 25 26  2  0
 26 27  1  0
 27 28  2  0
 21  3  1  0
 28 23  1  0
 20 10  1  0
  1 29  1  0
  1 30  1  0
  1 31  1  0
  2 32  1  0
  2 33  1  0
  8 34  1  0
  8 35  1  0
 13 36  1  0
 13 37  1  0
 15 38  1  0
 17 39  1  0
 18 40  1  0
 19 41  1  0
 22 42  1  0
 22 43  1  0
 24 44  1  0
 25 45  1  0
 26 46  1  0
 27 47  1  0
 28 48  1  0
M  END
$$$$
[H]c1nc(N([H])c2c([H])c([H])c(C(=O)N3C([H])([H])C([H])([H])SC([H])([H])C3([H])[H])c(Cl)c2[H])c2nc([H])c([C@@]([H])(N3C([H])([H])C([H])([H])C([H])([H])C([H])([H])[C@]3([H])C([H])([H])[H])C([H])([H])[H])n2n1
     RDKit          3D

 64 68  0  0  0  0  0  0  0  0999 V2000
   -5.4974    2.1208   -1.3348 C   0  0  0  0  0  0  0  0  0  0  0  0
   -4.5566    0.9388   -1.2743 C   0  0  2  0  0  0  0  0  0  0  0  0
   -4.9855   -0.1097   -0.4151 N   0  0  0  0  0  0  0  0  0  0  0  0
   -5.1063    0.2152    0.9561 C   0  0  0  0  0  0  0  0  0  0  0  0
   -6.5224    0.5882    1.2954 C   0  0  0  0  0  0  0  0  0  0  0  0
   -7.5148   -0.4412    0.8575 C   0  0  0  0  0  0  0  0  0  0  0  0
   -7.3059   -0.9312   -0.5416 C   0  0  0  0  0  0  0  0  0  0  0  0
   -5.8713   -1.0589   -0.9435 C   0  0  2  0  0  0  0  0  0  0  0  0
   -5.3338   -2.4600   -0.6183 C   0  0  0  0  0  0  0  0  0  0  0  0
   -3.1765    1.3819   -0.9418 C   0  0  0  0  0  0  0  0  0  0  0  0
   -2.7430    2.6842   -0.8226 C   0  0  0  0  0  0  0  0  0  0  0  0
   -1.4167    2.6909   -0.5097 N   0  0  0  0  0  0  0  0  0  0  0  0
   -1.0338    1.4190   -0.4361 C   0  0  0  0  0  0  0  0  0  0  0  0
    0.2396    0.8900   -0.1449 C   0  0  0  0  0  0  0  0  0  0  0  0
    1.3257    1.7232    0.0970 N   0  0  0  0  0  0  0  0  0  0  0  0
    2.6261    1.3237    0.4174 C   0  0  0  0  0  0  0  0  0  0  0  0
    2.9444    0.1411    1.0126 C   0  0  0  0  0  0  0  0  0  0  0  0
    4.2743   -0.2090    1.2779 C   0  0  0  0  0  0  0  0  0  0  0  0
    5.3212    0.6094    0.9585 C   0  0  0  0  0  0  0  0  0  0  0  0
    6.7101    0.2820    1.2223 C   0  0  0  0  0  0  0  0  0  0  0  0
    7.2139    0.6059    2.3191 O   0  0  0  0  0  0  0  0  0  0  0  0
    7.4738   -0.4020    0.2246 N   0  0  0  0  0  0  0  0  0  0  0  0
    8.8601   -0.7198    0.4951 C   0  0  0  0  0  0  0  0  0  0  0  0
    8.9897   -2.2039    0.7367 C   0  0  0  0  0  0  0  0  0  0  0  0
    8.0578   -3.1546   -0.4973 S   0  0  0  0  0  0  0  0  0  0  0  0
    6.5853   -2.2369   -1.0389 C   0  0  0  0  0  0  0  0  0  0  0  0
    6.9051   -0.7727   -1.0355 C   0  0  0  0  0  0  0  0  0  0  0  0
    4.9858    1.8108    0.3543 C   0  0  0  0  0  0  0  0  0  0  0  0
    6.3058    2.8850   -0.0665 Cl  0  0  0  0  0  0  0  0  0  0  0  0
    3.7085    2.1646    0.0904 C   0  0  0  0  0  0  0  0  0  0  0  0
    0.3016   -0.4348   -0.1495 N   0  0  0  0  0  0  0  0  0  0  0  0
   -0.7592   -1.2144   -0.4097 C   0  0  0  0  0  0  0  0  0  0  0  0
   -1.9693   -0.6999   -0.6863 N   0  0  0  0  0  0  0  0  0  0  0  0
   -2.0795    0.6185   -0.6932 N   0  0  0  0  0  0  0  0  0  0  0  0
   -5.3362    2.8345   -0.5050 H   0  0  0  0  0  0  0  0  0  0  0  0
   -6.5132    1.7404   -1.4289 H   0  0  0  0  0  0  0  0  0  0  0  0
   -5.2266    2.7006   -2.2661 H   0  0  0  0  0  0  0  0  0  0  0  0
   -4.5517    0.5118   -2.3220 H   0  0  0  0  0  0  0  0  0  0  0  0
   -4.4703    1.1053    1.1659 H   0  0  0  0  0  0  0  0  0  0  0  0
   -4.7283   -0.5985    1.6133 H   0  0  0  0  0  0  0  0  0  0  0  0
   -6.5758    0.6292    2.4229 H   0  0  0  0  0  0  0  0  0  0  0  0
   -6.7806    1.5891    0.9506 H   0  0  0  0  0  0  0  0  0  0  0  0
   -7.5477   -1.2704    1.6006 H   0  0  0  0  0  0  0  0  0  0  0  0
   -8.5265    0.0295    0.8926 H   0  0  0  0  0  0  0  0  0  0  0  0
   -7.7569   -1.9565   -0.5979 H   0  0  0  0  0  0  0  0  0  0  0  0
   -7.8834   -0.3218   -1.2695 H   0  0  0  0  0  0  0  0  0  0  0  0
   -5.8388   -1.0010   -2.0631 H   0  0  0  0  0  0  0  0  0  0  0  0
   -6.0140   -3.2037   -1.0798 H   0  0  0  0  0  0  0  0  0  0  0  0
   -5.2484   -2.6021    0.4724 H   0  0  0  0  0  0  0  0  0  0  0  0
   -4.3623   -2.5331   -1.1484 H   0  0  0  0  0  0  0  0  0  0  0  0
   -3.3452    3.5781   -0.9528 H   0  0  0  0  0  0  0  0  0  0  0  0
    1.1635    2.7782    0.0375 H   0  0  0  0  0  0  0  0  0  0  0  0
    2.1784   -0.5488    1.3132 H   0  0  0  0  0  0  0  0  0  0  0  0
    4.4555   -1.1635    1.7523 H   0  0  0  0  0  0  0  0  0  0  0  0
    9.1747   -0.1487    1.3864 H   0  0  0  0  0  0  0  0  0  0  0  0
    9.4896   -0.4368   -0.3864 H   0  0  0  0  0  0  0  0  0  0  0  0
   10.0776   -2.4466    0.6212 H   0  0  0  0  0  0  0  0  0  0  0  0
    8.6323   -2.4301    1.7577 H   0  0  0  0  0  0  0  0  0  0  0  0
    5.7569   -2.4286   -0.3466 H   0  0  0  0  0  0  0  0  0  0  0  0
    6.3029   -2.5864   -2.0560 H   0  0  0  0  0  0  0  0  0  0  0  0
    7.6538   -0.5228   -1.8413 H   0  0  0  0  0  0  0  0  0  0  0  0
    6.0078   -0.1614   -1.2953 H   0  0  0  0  0  0  0  0  0  0  0  0
    3.4331    3.1116   -0.3875 H   0  0  0  0  0  0  0  0  0  0  0  0
   -0.5773   -2.2916   -0.3823 H   0  0  0  0  0  0  0  0  0  0  0  0
  1  2  1  0
  2  3  1  0
  3  4  1  0
  4  5  1  0
  5  6  1  0
  6  7  1  0
  7  8  1  0
  8  9  1  0
  2 10  1  0
 10 11  2  0
 11 12  1  0
 12 13  2  0
 13 14  1  0
 14 15  1  0
 15 16  1  0
 16 17  2  0
 17 18  1  0
 18 19  2  0
 19 20  1  0
 20 21  2  0
 20 22  1  0
 22 23  1  0
 23 24  1  0
 24 25  1  0
 25 26  1  0
 26 27  1  0
 19 28  1  0
 28 29  1  0
 28 30  2  0
 14 31  2  0
 31 32  1  0
 32 33  2  0
 33 34  1  0
  8  3  1  0
 34 10  1  0
 34 13  1  0
 30 16  1  0
 27 22  1  0
  1 35  1  0
  1 36  1  0
  1 37  1  0
  2 38  1  6
  4 39  1  0
  4 40  1  0
  5 41  1  0
  5 42  1  0
  6 43  1  0
  6 44  1  0
  7 45  1  0
  7 46  1  0
  8 47  1  6
  9 48  1  0
  9 49  1  0
  9 50  1  0
 11 51  1  0
 15 52  1  0
 17 53  1  0
 18 54  1  0
 23 55  1  0
 23 56  1  0
 24 57  1  0
 24 58  1  0
 26 59  1  0
 26 60  1  0
 27 61  1  0
 27 62  1  0
 30 63  1  0
 32 64  1  0
M  END
$$$$
[H]c1nc([H])c([H])c(C([H])([H])N(c2c([H])c([H])c3c([H])c(S(=O)(=O)N([H])[C@@]([H])(c4c([H])c([H])c(Cl)c([H])c4[H])C([H])([H])[H])c([H])c([H])c3c2[H])C([H])(C([H])([H])[H])C([H])([H])[H])c1[H]
     RDKit          3D

 62 65  0  0  0  0  0  0  0  0999 V2000
   -3.3659   -0.7189    2.5504 C   0  0  0  0  0  0  0  0  0  0  0  0
   -4.4758   -0.2534    1.6408 C   0  0  0  0  0  0  0  0  0  0  0  0
   -5.6709   -1.1904    1.8477 C   0  0  0  0  0  0  0  0  0  0  0  0
   -4.0084   -0.3234    0.2740 N   0  0  0  0  0  0  0  0  0  0  0  0
   -4.8530    0.0741   -0.8511 C   0  0  0  0  0  0  0  0  0  0  0  0
   -5.3398    1.4731   -0.6720 C   0  0  0  0  0  0  0  0  0  0  0  0
   -6.6369    1.6483   -0.2213 C   0  0  0  0  0  0  0  0  0  0  0  0
   -7.1072    2.9155   -0.0455 C   0  0  0  0  0  0  0  0  0  0  0  0
   -6.3403    3.9933   -0.3004 N   0  0  0  0  0  0  0  0  0  0  0  0
   -5.0718    3.8711   -0.7408 C   0  0  0  0  0  0  0  0  0  0  0  0
   -4.5887    2.5782   -0.9210 C   0  0  0  0  0  0  0  0  0  0  0  0
   -2.6994   -0.7930    0.0106 C   0  0  0  0  0  0  0  0  0  0  0  0
   -2.4969   -2.1656    0.1504 C   0  0  0  0  0  0  0  0  0  0  0  0
   -1.2357   -2.6441   -0.1034 C   0  0  0  0  0  0  0  0  0  0  0  0
   -0.1847   -1.8148   -0.4862 C   0  0  0  0  0  0  0  0  0  0  0  0
    1.0722   -2.3178   -0.7382 C   0  0  0  0  0  0  0  0  0  0  0  0
    2.1413   -1.5337   -1.1255 C   0  0  0  0  0  0  0  0  0  0  0  0
    1.9275   -0.1858   -1.2625 C   0  0  0  0  0  0  0  0  0  0  0  0
    0.6723    0.3454   -1.0132 C   0  0  0  0  0  0  0  0  0  0  0  0
   -0.3848   -0.4573   -0.6261 C   0  0  0  0  0  0  0  0  0  0  0  0
   -1.6581    0.0371   -0.3708 C   0  0  0  0  0  0  0  0  0  0  0  0
    3.6897   -2.2889   -1.3731 S   0  0  0  0  0  0  0  0  0  0  0  0
    4.3034   -1.9395   -2.6908 O   0  0  0  0  0  0  0  0  0  0  0  0
    3.5095   -3.7754   -1.3230 O   0  0  0  0  0  0  0  0  0  0  0  0
    4.7006   -1.8203   -0.0498 N   0  0  0  0  0  0  0  0  0  0  0  0
    5.8281   -1.0327   -0.5099 C   0  0  2  0  0  0  0  0  0  0  0  0
    7.0893   -1.7878   -0.2016 C   0  0  0  0  0  0  0  0  0  0  0  0
    5.9065    0.3218    0.0302 C   0  0  0  0  0  0  0  0  0  0  0  0
    5.6558    0.5829    1.3457 C   0  0  0  0  0  0  0  0  0  0  0  0
    5.7448    1.8700    1.8036 C   0  0  0  0  0  0  0  0  0  0  0  0
    6.0867    2.9207    0.9528 C   0  0  0  0  0  0  0  0  0  0  0  0
    6.2040    4.5691    1.5269 Cl  0  0  0  0  0  0  0  0  0  0  0  0
    6.3457    2.6697   -0.3928 C   0  0  0  0  0  0  0  0  0  0  0  0
    6.2522    1.3709   -0.8363 C   0  0  0  0  0  0  0  0  0  0  0  0
   -3.3970   -1.8244    2.6891 H   0  0  0  0  0  0  0  0  0  0  0  0
   -3.4977   -0.2468    3.5492 H   0  0  0  0  0  0  0  0  0  0  0  0
   -2.3836   -0.4192    2.1587 H   0  0  0  0  0  0  0  0  0  0  0  0
   -4.7715    0.7639    1.9599 H   0  0  0  0  0  0  0  0  0  0  0  0
   -6.0994   -1.4980    0.8540 H   0  0  0  0  0  0  0  0  0  0  0  0
   -6.4888   -0.6807    2.3906 H   0  0  0  0  0  0  0  0  0  0  0  0
   -5.3738   -2.0722    2.4593 H   0  0  0  0  0  0  0  0  0  0  0  0
   -5.7056   -0.6323   -0.9647 H   0  0  0  0  0  0  0  0  0  0  0  0
   -4.2747    0.0388   -1.7932 H   0  0  0  0  0  0  0  0  0  0  0  0
   -7.2728    0.7924   -0.0107 H   0  0  0  0  0  0  0  0  0  0  0  0
   -8.1337    3.0376    0.3079 H   0  0  0  0  0  0  0  0  0  0  0  0
   -4.4376    4.7159   -0.9497 H   0  0  0  0  0  0  0  0  0  0  0  0
   -3.5818    2.4982   -1.2707 H   0  0  0  0  0  0  0  0  0  0  0  0
   -3.3207   -2.8186    0.4472 H   0  0  0  0  0  0  0  0  0  0  0  0
   -1.0541   -3.7063   -0.0010 H   0  0  0  0  0  0  0  0  0  0  0  0
    1.1884   -3.3943   -0.6174 H   0  0  0  0  0  0  0  0  0  0  0  0
    2.7604    0.4407   -1.5650 H   0  0  0  0  0  0  0  0  0  0  0  0
    0.5040    1.4240   -1.1201 H   0  0  0  0  0  0  0  0  0  0  0  0
   -1.8329    1.0896   -0.4700 H   0  0  0  0  0  0  0  0  0  0  0  0
    4.1594   -1.2959    0.6763 H   0  0  0  0  0  0  0  0  0  0  0  0
    5.7493   -0.9877   -1.6406 H   0  0  0  0  0  0  0  0  0  0  0  0
    7.0624   -2.7840   -0.6978 H   0  0  0  0  0  0  0  0  0  0  0  0
    8.0075   -1.2211   -0.4959 H   0  0  0  0  0  0  0  0  0  0  0  0
    7.1791   -1.9938    0.8822 H   0  0  0  0  0  0  0  0  0  0  0  0
    5.3914   -0.2044    2.0117 H   0  0  0  0  0  0  0  0  0  0  0  0
    5.5596    2.1621    2.8326 H   0  0  0  0  0  0  0  0  0  0  0  0
    6.6117    3.4990   -1.0492 H   0  0  0  0  0  0  0  0  0  0  0  0
    6.4412    1.1189   -1.8717 H   0  0  0  0  0  0  0  0  0  0  0  0
  1  2  1  0
  2  3  1  0
  2  4  1  0
  4  5  1  0
  5  6  1  0
  6  7  2  0
  7  8  1  0
  8  9  2  0
  9 10  1  0
 10 11  2  0
  4 12  1  0
 12 13  2  0
 13 14  1  0
 14 15  2  0
 15 16  1  0
 16 17  2  0
 17 18  1  0
 18 19  2  0
 19 20  1  0
 20 21  2  0
 17 22  1  0
 22 23  2  0
 22 24  2  0
 22 25  1  0
 25 26  1  0
 26 27  1  0
 26 28  1  0
 28 29  2  0
 29 30  1  0
 30 31  2  0
 31 32  1  0
 31 33  1  0
 33 34  2  0
 11  6  1  0
 21 12  1  0
 34 28  1  0
 20 15  1  0
  1 35  1  0
  1 36  1  0
  1 37  1  0
  2 38  1  0
  3 39  1  0
  3 40  1  0
  3 41  1  0
  5 42  1  0
  5 43  1  0
  7 44  1  0
  8 45  1  0
 10 46  1  0
 11 47  1  0
 13 48  1  0
 14 49  1  0
 16 50  1  0
 18 51  1  0
 19 52  1  0
 21 53  1  0
 25 54  1  0
 26 55  1  6
 27 56  1  0
 27 57  1  0
 27 58  1  0
 29 59  1  0
 30 60  1  0
 33 61  1  0
 34 62  1  0
M  END
$$$$
[H]OC([H])([H])C([H])(O[H])C([H])([H])N1C([H])([H])C([H])([H])C([H])(c2nc([H])c([H])nc2Oc2c([H])c([H])c(N([H])c3nc4c([H])c([H])c([H])c([H])c4s3)c([H])c2[H])C([H])([H])C1([H])[H]
     RDKit          3D

 61 65  0  0  0  0  0  0  0  0999 V2000
    8.6358    0.7695    0.4319 O   0  0  0  0  0  0  0  0  0  0  0  0
    7.6613   -0.1374    0.7162 C   0  0  0  0  0  0  0  0  0  0  0  0
    7.5893   -1.2631   -0.3444 C   0  0  0  0  0  0  0  0  0  0  0  0
    7.3188   -0.6651   -1.5398 O   0  0  0  0  0  0  0  0  0  0  0  0
    6.4214   -2.1459    0.0992 C   0  0  0  0  0  0  0  0  0  0  0  0
    5.2745   -1.3287    0.2540 N   0  0  0  0  0  0  0  0  0  0  0  0
    4.2944   -1.9583    1.1775 C   0  0  0  0  0  0  0  0  0  0  0  0
    3.7902   -0.6640    1.9183 C   0  0  0  0  0  0  0  0  0  0  0  0
    3.1018    0.0748    0.7735 C   0  0  0  0  0  0  0  0  0  0  0  0
    3.0946   -0.5860   -0.5356 C   0  0  0  0  0  0  0  0  0  0  0  0
    4.5437   -1.0022   -0.9359 C   0  0  0  0  0  0  0  0  0  0  0  0
    2.1654    1.0834    1.1448 C   0  0  0  0  0  0  0  0  0  0  0  0
    2.6737    2.2310    1.8308 N   0  0  0  0  0  0  0  0  0  0  0  0
    1.8864    3.2910    2.0585 C   0  0  0  0  0  0  0  0  0  0  0  0
    0.5793    3.2743    1.6394 C   0  0  0  0  0  0  0  0  0  0  0  0
    0.1156    2.1937    1.0094 N   0  0  0  0  0  0  0  0  0  0  0  0
    0.8678    1.1101    0.7543 C   0  0  0  0  0  0  0  0  0  0  0  0
    0.2527   -0.0068    0.0783 O   0  0  0  0  0  0  0  0  0  0  0  0
   -1.1440    0.2199   -0.0860 C   0  0  0  0  0  0  0  0  0  0  0  0
   -1.6294    0.9319   -1.1468 C   0  0  0  0  0  0  0  0  0  0  0  0
   -2.9754    1.1622   -1.2730 C   0  0  0  0  0  0  0  0  0  0  0  0
   -3.9161    0.6823   -0.3220 C   0  0  0  0  0  0  0  0  0  0  0  0
   -5.2105    1.1632   -0.3860 N   0  0  0  0  0  0  0  0  0  0  0  0
   -6.5051    0.6403   -0.4275 C   0  0  0  0  0  0  0  0  0  0  0  0
   -7.1317   -0.4938   -0.5163 N   0  0  0  0  0  0  0  0  0  0  0  0
   -8.4255   -0.6061   -0.5150 C   0  0  0  0  0  0  0  0  0  0  0  0
   -9.1826   -1.7850   -0.6259 C   0  0  0  0  0  0  0  0  0  0  0  0
  -10.5574   -1.7313   -0.6127 C   0  0  0  0  0  0  0  0  0  0  0  0
  -11.2680   -0.5716   -0.4968 C   0  0  0  0  0  0  0  0  0  0  0  0
  -10.5561    0.5881   -0.3909 C   0  0  0  0  0  0  0  0  0  0  0  0
   -9.1452    0.5536   -0.4058 C   0  0  0  0  0  0  0  0  0  0  0  0
   -7.9359    1.7267   -0.3163 S   0  0  0  0  0  0  0  0  0  0  0  0
   -3.3994   -0.0380    0.7226 C   0  0  0  0  0  0  0  0  0  0  0  0
   -2.0207   -0.2723    0.8459 C   0  0  0  0  0  0  0  0  0  0  0  0
    8.3822    1.6271    0.9085 H   0  0  0  0  0  0  0  0  0  0  0  0
    7.7457   -0.6371    1.7099 H   0  0  0  0  0  0  0  0  0  0  0  0
    6.6508    0.2959    0.6944 H   0  0  0  0  0  0  0  0  0  0  0  0
    8.5266   -1.8135   -0.2732 H   0  0  0  0  0  0  0  0  0  0  0  0
    7.7034    0.2369   -1.6355 H   0  0  0  0  0  0  0  0  0  0  0  0
    6.6640   -2.7494    1.0005 H   0  0  0  0  0  0  0  0  0  0  0  0
    6.2914   -2.8994   -0.7262 H   0  0  0  0  0  0  0  0  0  0  0  0
    3.4468   -2.3968    0.6385 H   0  0  0  0  0  0  0  0  0  0  0  0
    4.8313   -2.6009    1.8540 H   0  0  0  0  0  0  0  0  0  0  0  0
    3.1009   -0.9669    2.7117 H   0  0  0  0  0  0  0  0  0  0  0  0
    4.6509   -0.1615    2.3337 H   0  0  0  0  0  0  0  0  0  0  0  0
    4.1024    0.8213    0.5268 H   0  0  0  0  0  0  0  0  0  0  0  0
    2.4490   -1.4095   -0.7546 H   0  0  0  0  0  0  0  0  0  0  0  0
    2.8118    0.2199   -1.2932 H   0  0  0  0  0  0  0  0  0  0  0  0
    4.5097   -1.8647   -1.6089 H   0  0  0  0  0  0  0  0  0  0  0  0
    4.9662   -0.0871   -1.4072 H   0  0  0  0  0  0  0  0  0  0  0  0
    2.3058    4.1851    2.5672 H   0  0  0  0  0  0  0  0  0  0  0  0
   -0.0332    4.1334    1.8245 H   0  0  0  0  0  0  0  0  0  0  0  0
   -0.9420    1.3304   -1.9113 H   0  0  0  0  0  0  0  0  0  0  0  0
   -3.4171    1.7148   -2.0840 H   0  0  0  0  0  0  0  0  0  0  0  0
   -5.2203    2.2994   -0.4174 H   0  0  0  0  0  0  0  0  0  0  0  0
   -8.6985   -2.7438   -0.7335 H   0  0  0  0  0  0  0  0  0  0  0  0
  -11.0945   -2.7053   -0.7098 H   0  0  0  0  0  0  0  0  0  0  0  0
  -12.3366   -0.5420   -0.4969 H   0  0  0  0  0  0  0  0  0  0  0  0
  -10.9731    1.5605   -0.2921 H   0  0  0  0  0  0  0  0  0  0  0  0
   -4.0658   -0.4480    1.4845 H   0  0  0  0  0  0  0  0  0  0  0  0
   -1.6218   -0.8397    1.6829 H   0  0  0  0  0  0  0  0  0  0  0  0
  1  2  1  0
  2  3  1  0
  3  4  1  0
  3  5  1  0
  5  6  1  0
  6  7  1  0
  7  8  1  0
  8  9  1  0
  9 10  1  0
 10 11  1  0
  9 12  1  0
 12 13  2  0
 13 14  1  0
 14 15  2  0
 15 16  1  0
 16 17  2  0
 17 18  1  0
 18 19  1  0
 19 20  2  0
 20 21  1  0
 21 22  2  0
 22 23  1  0
 23 24  1  0
 24 25  2  0
 25 26  1  0
 26 27  2  0
 27 28  1  0
 28 29  2  0
 29 30  1  0
 30 31  2  0
 31 32  1  0
 22 33  1  0
 33 34  2  0
 11  6  1  0
 17 12  1  0
 34 19  1  0
 32 24  1  0
 31 26  1  0
  1 35  1  0
  2 36  1  0
  2 37  1  0
  3 38  1  0
  4 39  1  0
  5 40  1  0
  5 41  1  0
  7 42  1  0
  7 43  1  0
  8 44  1  0
  8 45  1  0
  9 46  1  0
 10 47  1  0
 10 48  1  0
 11 49  1  0
 11 50  1  0
 14 51  1  0
 15 52  1  0
 20 53  1  0
 21 54  1  0
 23 55  1  0
 27 56  1  0
 28 57  1  0
 29 58  1  0
 30 59  1  0
 33 60  1  0
 34 61  1  0
M  END
$$$$
[H]OC([H])([H])O[C@]1([H])C([H])([H])C([H])([H])[C@]([H])(c2nc3c([H])c([H])c([H])c(-c4c([H])c([H])c(C([H])([H])[H])c([H])c4[H])c3c(=O)n2-c2c([H])nc3c([H])c([H])c([H])c([H])c3c2[H])C([H])([H])C1([H])[H]
     RDKit          3D

 66 71  0  0  0  0  0  0  0  0999 V2000
   -7.6734   -0.2208   -1.4708 C   0  0  0  0  0  0  0  0  0  0  0  0
   -6.4072   -0.7671   -0.8653 C   0  0  0  0  0  0  0  0  0  0  0  0
   -5.5999   -1.6268   -1.5906 C   0  0  0  0  0  0  0  0  0  0  0  0
   -4.4309   -2.1144   -0.9950 C   0  0  0  0  0  0  0  0  0  0  0  0
   -4.0833   -1.7520    0.2850 C   0  0  0  0  0  0  0  0  0  0  0  0
   -4.8970   -0.8998    0.9851 C   0  0  0  0  0  0  0  0  0  0  0  0
   -6.0665   -0.3959    0.4242 C   0  0  0  0  0  0  0  0  0  0  0  0
   -2.8840   -2.3091    0.8815 C   0  0  0  0  0  0  0  0  0  0  0  0
   -2.9632   -3.5371    1.5613 C   0  0  0  0  0  0  0  0  0  0  0  0
   -1.8700   -4.0996    2.1514 C   0  0  0  0  0  0  0  0  0  0  0  0
   -0.6586   -3.4487    2.0794 C   0  0  0  0  0  0  0  0  0  0  0  0
   -0.5925   -2.2430    1.4086 C   0  0  0  0  0  0  0  0  0  0  0  0
    0.5927   -1.6125    1.3380 N   0  0  0  0  0  0  0  0  0  0  0  0
    0.7322   -0.4211    0.6894 C   0  0  0  0  0  0  0  0  0  0  0  0
    2.0479    0.2069    0.6524 C   0  0  2  0  0  0  0  0  0  0  0  0
    2.9916   -0.7575   -0.0783 C   0  0  0  0  0  0  0  0  0  0  0  0
    3.7594   -1.5108    0.9700 C   0  0  0  0  0  0  0  0  0  0  0  0
    4.8117   -0.5505    1.5227 C   0  0  1  0  0  0  0  0  0  0  0  0
    4.0776    0.6698    2.0010 C   0  0  0  0  0  0  0  0  0  0  0  0
    2.5851    0.4663    2.0665 C   0  0  0  0  0  0  0  0  0  0  0  0
    5.5666   -1.1316    2.5181 O   0  0  0  0  0  0  0  0  0  0  0  0
    6.9078   -1.2043    2.1190 C   0  0  0  0  0  0  0  0  0  0  0  0
    7.4376    0.0440    1.8563 O   0  0  0  0  0  0  0  0  0  0  0  0
   -0.3095    0.1697    0.0952 N   0  0  0  0  0  0  0  0  0  0  0  0
   -0.1173    1.3921   -0.5585 C   0  0  0  0  0  0  0  0  0  0  0  0
   -0.2838    2.5809    0.1449 C   0  0  0  0  0  0  0  0  0  0  0  0
   -0.1058    3.7631   -0.4573 N   0  0  0  0  0  0  0  0  0  0  0  0
    0.2403    3.8534   -1.7632 C   0  0  0  0  0  0  0  0  0  0  0  0
    0.4216    5.0848   -2.3750 C   0  0  0  0  0  0  0  0  0  0  0  0
    0.7791    5.1784   -3.7240 C   0  0  0  0  0  0  0  0  0  0  0  0
    0.9605    4.0395   -4.4813 C   0  0  0  0  0  0  0  0  0  0  0  0
    0.7758    2.8218   -3.8556 C   0  0  0  0  0  0  0  0  0  0  0  0
    0.4221    2.7141   -2.5219 C   0  0  0  0  0  0  0  0  0  0  0  0
    0.2362    1.5063   -1.8912 C   0  0  0  0  0  0  0  0  0  0  0  0
   -1.5209   -0.4383    0.1466 C   0  0  0  0  0  0  0  0  0  0  0  0
   -2.4924    0.1233   -0.4148 O   0  0  0  0  0  0  0  0  0  0  0  0
   -1.6839   -1.6461    0.7993 C   0  0  0  0  0  0  0  0  0  0  0  0
   -7.8538    0.7754   -1.0195 H   0  0  0  0  0  0  0  0  0  0  0  0
   -8.5027   -0.9273   -1.2262 H   0  0  0  0  0  0  0  0  0  0  0  0
   -7.5333   -0.1438   -2.5601 H   0  0  0  0  0  0  0  0  0  0  0  0
   -5.9047   -1.8844   -2.5823 H   0  0  0  0  0  0  0  0  0  0  0  0
   -3.8085   -2.7860   -1.5734 H   0  0  0  0  0  0  0  0  0  0  0  0
   -4.6508   -0.5995    1.9866 H   0  0  0  0  0  0  0  0  0  0  0  0
   -6.7267    0.2774    0.9529 H   0  0  0  0  0  0  0  0  0  0  0  0
   -3.9133   -4.0440    1.6156 H   0  0  0  0  0  0  0  0  0  0  0  0
   -1.9649   -5.0552    2.6722 H   0  0  0  0  0  0  0  0  0  0  0  0
    0.1894   -3.9196    2.5571 H   0  0  0  0  0  0  0  0  0  0  0  0
    2.1043    1.1517    0.1244 H   0  0  0  0  0  0  0  0  0  0  0  0
    3.7455   -0.1797   -0.6814 H   0  0  0  0  0  0  0  0  0  0  0  0
    2.4219   -1.4386   -0.7496 H   0  0  0  0  0  0  0  0  0  0  0  0
    3.1326   -1.9233    1.7748 H   0  0  0  0  0  0  0  0  0  0  0  0
    4.2529   -2.3830    0.4758 H   0  0  0  0  0  0  0  0  0  0  0  0
    5.4561   -0.2783    0.6373 H   0  0  0  0  0  0  0  0  0  0  0  0
    4.2451    1.5544    1.3304 H   0  0  0  0  0  0  0  0  0  0  0  0
    4.4344    0.9494    3.0140 H   0  0  0  0  0  0  0  0  0  0  0  0
    2.2719   -0.3116    2.7724 H   0  0  0  0  0  0  0  0  0  0  0  0
    2.1460    1.4528    2.3599 H   0  0  0  0  0  0  0  0  0  0  0  0
    7.4795   -1.7229    2.9031 H   0  0  0  0  0  0  0  0  0  0  0  0
    6.9512   -1.7994    1.1670 H   0  0  0  0  0  0  0  0  0  0  0  0
    8.1758    0.0030    1.2082 H   0  0  0  0  0  0  0  0  0  0  0  0
   -0.5652    2.5321    1.2084 H   0  0  0  0  0  0  0  0  0  0  0  0
    0.2852    5.9907   -1.8030 H   0  0  0  0  0  0  0  0  0  0  0  0
    0.9137    6.1526   -4.1747 H   0  0  0  0  0  0  0  0  0  0  0  0
    1.2369    4.1410   -5.5223 H   0  0  0  0  0  0  0  0  0  0  0  0
    0.9090    1.9029   -4.4164 H   0  0  0  0  0  0  0  0  0  0  0  0
    0.3670    0.5860   -2.4430 H   0  0  0  0  0  0  0  0  0  0  0  0
  1  2  1  0
  2  3  2  0
  3  4  1  0
  4  5  2  0
  5  6  1  0
  6  7  2  0
  5  8  1  0
  8  9  2  0
  9 10  1  0
 10 11  2  0
 11 12  1  0
 12 13  1  0
 13 14  2  0
 14 15  1  0
 15 16  1  0
 16 17  1  0
 17 18  1  0
 18 19  1  0
 19 20  1  0
 18 21  1  0
 21 22  1  0
 22 23  1  0
 14 24  1  0
 24 25  1  0
 25 26  2  0
 26 27  1  0
 27 28  2  0
 28 29  1  0
 29 30  2  0
 30 31  1  0
 31 32  2  0
 32 33  1  0
 33 34  2  0
 24 35  1  0
 35 36  2  0
 35 37  1  0
  7  2  1  0
 37  8  1  0
 37 12  2  0
 20 15  1  0
 34 25  1  0
 33 28  1  0
  1 38  1  0
  1 39  1  0
  1 40  1  0
  3 41  1  0
  4 42  1  0
  6 43  1  0
  7 44  1  0
  9 45  1  0
 10 46  1  0
 11 47  1  0
 15 48  1  6
 16 49  1  0
 16 50  1  0
 17 51  1  0
 17 52  1  0
 18 53  1  6
 19 54  1  0
 19 55  1  0
 20 56  1  0
 20 57  1  0
 22 58  1  0
 22 59  1  0
 23 60  1  0
 26 61  1  0
 29 62  1  0
 30 63  1  0
 31 64  1  0
 32 65  1  0
 34 66  1  0
M  END
$$$$
[H]/C(C(=O)N1C([H])([H])C([H])([H])C([H])([H])[C@@]1([H])C(=O)N([H])C([H])([H])C1(c2c([H])c([H])c(OC([H])([H])[H])c([H])c2[H])C(=O)O[C@]1([H])C([H])([H])C1([H])C([H])([H])C([H])([H])C1([H])[H])=C(/[H])c1c([H])c([H])c([H])c(Cl)c1[H]
     RDKit          3D

 71 75  0  0  0  0  0  0  0  0999 V2000
   -3.9375   -5.4922    1.0150 C   0  0  0  0  0  0  0  0  0  0  0  0
   -3.7005   -4.3667    1.8239 O   0  0  0  0  0  0  0  0  0  0  0  0
   -3.4470   -3.1271    1.2289 C   0  0  0  0  0  0  0  0  0  0  0  0
   -3.2144   -2.0220    2.0017 C   0  0  0  0  0  0  0  0  0  0  0  0
   -2.9631   -0.7914    1.4004 C   0  0  0  0  0  0  0  0  0  0  0  0
   -2.9438   -0.6650    0.0279 C   0  0  0  0  0  0  0  0  0  0  0  0
   -3.1833   -1.8055   -0.7099 C   0  0  0  0  0  0  0  0  0  0  0  0
   -3.4296   -3.0090   -0.1405 C   0  0  0  0  0  0  0  0  0  0  0  0
   -2.6435    0.5701   -0.6934 C   0  0  0  0  0  0  0  0  0  0  0  0
   -1.1988    0.6402   -1.1139 C   0  0  0  0  0  0  0  0  0  0  0  0
   -0.3434    0.5967    0.0453 N   0  0  0  0  0  0  0  0  0  0  0  0
    1.0836    0.6406   -0.0782 C   0  0  0  0  0  0  0  0  0  0  0  0
    1.6544    0.7187   -1.1930 O   0  0  0  0  0  0  0  0  0  0  0  0
    1.9208    0.5931    1.1413 C   0  0  2  0  0  0  0  0  0  0  0  0
    1.7277    1.8623    1.9403 C   0  0  0  0  0  0  0  0  0  0  0  0
    2.4510    2.8212    0.9760 C   0  0  0  0  0  0  0  0  0  0  0  0
    3.6662    2.0261    0.5588 C   0  0  0  0  0  0  0  0  0  0  0  0
    3.3244    0.6530    0.7788 N   0  0  0  0  0  0  0  0  0  0  0  0
    4.1057   -0.5328    0.7043 C   0  0  0  0  0  0  0  0  0  0  0  0
    3.4923   -1.6267    1.0317 O   0  0  0  0  0  0  0  0  0  0  0  0
    5.4717   -0.7077    0.3208 C   0  0  0  0  0  0  0  0  0  0  0  0
    6.3513    0.1766   -0.0787 C   0  0  0  0  0  0  0  0  0  0  0  0
    7.7432   -0.1245   -0.4489 C   0  0  0  0  0  0  0  0  0  0  0  0
    8.5383    0.9508   -0.8513 C   0  0  0  0  0  0  0  0  0  0  0  0
    9.8514    0.8090   -1.2225 C   0  0  0  0  0  0  0  0  0  0  0  0
   10.4059   -0.4411   -1.1971 C   0  0  0  0  0  0  0  0  0  0  0  0
    9.6350   -1.5083   -0.8032 C   0  0  0  0  0  0  0  0  0  0  0  0
   10.3730   -3.0947   -0.7814 Cl  0  0  0  0  0  0  0  0  0  0  0  0
    8.3033   -1.3581   -0.4278 C   0  0  0  0  0  0  0  0  0  0  0  0
   -3.6056    0.8681   -1.8365 C   0  0  1  0  0  0  0  0  0  0  0  0
   -5.0045    0.4314   -1.7618 C   0  0  0  0  0  0  0  0  0  0  0  0
   -5.8215    0.9709   -0.6084 C   0  0  0  0  0  0  0  0  0  0  0  0
   -7.2674    0.4685   -0.6243 C   0  0  0  0  0  0  0  0  0  0  0  0
   -7.7819    1.8988   -0.5294 C   0  0  0  0  0  0  0  0  0  0  0  0
   -6.3645    2.3696   -0.7940 C   0  0  0  0  0  0  0  0  0  0  0  0
   -3.4655    2.2324   -1.3823 O   0  0  0  0  0  0  0  0  0  0  0  0
   -3.0736    1.8517   -0.0843 C   0  0  0  0  0  0  0  0  0  0  0  0
   -3.1417    2.4729    0.9954 O   0  0  0  0  0  0  0  0  0  0  0  0
   -4.1132   -6.3861    1.6122 H   0  0  0  0  0  0  0  0  0  0  0  0
   -3.1136   -5.6213    0.2709 H   0  0  0  0  0  0  0  0  0  0  0  0
   -4.8599   -5.3186    0.3988 H   0  0  0  0  0  0  0  0  0  0  0  0
   -3.2150   -2.0530    3.0750 H   0  0  0  0  0  0  0  0  0  0  0  0
   -2.7856    0.0979    2.0232 H   0  0  0  0  0  0  0  0  0  0  0  0
   -3.1690   -1.7718   -1.8122 H   0  0  0  0  0  0  0  0  0  0  0  0
   -3.6141   -3.8850   -0.7465 H   0  0  0  0  0  0  0  0  0  0  0  0
   -0.9303   -0.1650   -1.8329 H   0  0  0  0  0  0  0  0  0  0  0  0
   -0.9933    1.6315   -1.6094 H   0  0  0  0  0  0  0  0  0  0  0  0
   -0.7200    0.5377    1.0030 H   0  0  0  0  0  0  0  0  0  0  0  0
    1.6977   -0.3114    1.7564 H   0  0  0  0  0  0  0  0  0  0  0  0
    0.6870    2.1443    2.0850 H   0  0  0  0  0  0  0  0  0  0  0  0
    2.2997    1.7658    2.8767 H   0  0  0  0  0  0  0  0  0  0  0  0
    1.7961    3.1125    0.1505 H   0  0  0  0  0  0  0  0  0  0  0  0
    2.7980    3.6674    1.6003 H   0  0  0  0  0  0  0  0  0  0  0  0
    3.8458    2.1718   -0.5255 H   0  0  0  0  0  0  0  0  0  0  0  0
    4.5571    2.3435    1.1636 H   0  0  0  0  0  0  0  0  0  0  0  0
    5.8924   -1.7433    0.3533 H   0  0  0  0  0  0  0  0  0  0  0  0
    6.0188    1.1923   -0.1491 H   0  0  0  0  0  0  0  0  0  0  0  0
    8.1010    1.9631   -0.8752 H   0  0  0  0  0  0  0  0  0  0  0  0
   10.4110    1.7011   -1.5264 H   0  0  0  0  0  0  0  0  0  0  0  0
   11.4596   -0.5571   -1.4946 H   0  0  0  0  0  0  0  0  0  0  0  0
    7.7222   -2.2167   -0.1226 H   0  0  0  0  0  0  0  0  0  0  0  0
   -3.1610    0.7125   -2.8408 H   0  0  0  0  0  0  0  0  0  0  0  0
   -5.2174   -0.6434   -1.8960 H   0  0  0  0  0  0  0  0  0  0  0  0
   -5.5166    0.8950   -2.6813 H   0  0  0  0  0  0  0  0  0  0  0  0
   -5.4378    0.8322    0.3995 H   0  0  0  0  0  0  0  0  0  0  0  0
   -7.5534   -0.0667   -1.5301 H   0  0  0  0  0  0  0  0  0  0  0  0
   -7.5752   -0.0921    0.2808 H   0  0  0  0  0  0  0  0  0  0  0  0
   -8.4817    2.1073   -1.3679 H   0  0  0  0  0  0  0  0  0  0  0  0
   -8.1751    2.1962    0.4477 H   0  0  0  0  0  0  0  0  0  0  0  0
   -5.9848    3.1228   -0.0769 H   0  0  0  0  0  0  0  0  0  0  0  0
   -6.2375    2.6864   -1.8398 H   0  0  0  0  0  0  0  0  0  0  0  0
  1  2  1  0
  2  3  1  0
  3  4  2  0
  4  5  1  0
  5  6  2  0
  6  7  1  0
  7  8  2  0
  6  9  1  0
  9 10  1  0
 10 11  1  0
 11 12  1  0
 12 13  2  0
 12 14  1  0
 14 15  1  0
 15 16  1  0
 16 17  1  0
 17 18  1  0
 18 19  1  0
 19 20  2  0
 19 21  1  0
 21 22  2  0
 22 23  1  0
 23 24  2  0
 24 25  1  0
 25 26  2  0
 26 27  1  0
 27 28  1  0
 27 29  2  0
  9 30  1  0
 30 31  1  0
 31 32  1  0
 32 33  1  0
 33 34  1  0
 34 35  1  0
 30 36  1  0
 36 37  1  0
 37 38  2  0
  8  3  1  0
 37  9  1  0
 18 14  1  0
 29 23  1  0
 35 32  1  0
  1 39  1  0
  1 40  1  0
  1 41  1  0
  4 42  1  0
  5 43  1  0
  7 44  1  0
  8 45  1  0
 10 46  1  0
 10 47  1  0
 11 48  1  0
 14 49  1  1
 15 50  1  0
 15 51  1  0
 16 52  1  0
 16 53  1  0
 17 54  1  0
 17 55  1  0
 21 56  1  0
 22 57  1  0
 24 58  1  0
 25 59  1  0
 26 60  1  0
 29 61  1  0
 30 62  1  6
 31 63  1  0
 31 64  1  0
 32 65  1  0
 33 66  1  0
 33 67  1  0
 34 68  1  0
 34 69  1  0
 35 70  1  0
 35 71  1  0
M  END
$$$$
[H]c1nc(N([H])[H])c(C2([H])c3c([H])c(OC([H])([H])[H])c([H])c([H])c3OC([H])([H])C2([H])[H])nc1-c1nc2c(c(C(=O)N([H])[H])c1[H])OC([H])([H])C([H])([H])N2C([H])([H])C([H])([H])[H]
     RDKit          3D

 60 64  0  0  0  0  0  0  0  0999 V2000
   -5.5129    0.2546   -2.6313 C   0  0  0  0  0  0  0  0  0  0  0  0
   -5.4300   -0.6661   -1.4507 C   0  0  0  0  0  0  0  0  0  0  0  0
   -5.2404    0.1584   -0.2586 N   0  0  0  0  0  0  0  0  0  0  0  0
   -6.3439    1.0016    0.1535 C   0  0  0  0  0  0  0  0  0  0  0  0
   -6.2169    1.4834    1.5726 C   0  0  0  0  0  0  0  0  0  0  0  0
   -5.2144    0.8367    2.2943 O   0  0  0  0  0  0  0  0  0  0  0  0
   -3.9975    0.4376    1.7625 C   0  0  0  0  0  0  0  0  0  0  0  0
   -2.8300    0.3774    2.4567 C   0  0  0  0  0  0  0  0  0  0  0  0
   -1.6864   -0.0393    1.8016 C   0  0  0  0  0  0  0  0  0  0  0  0
   -1.6924   -0.3948    0.4682 C   0  0  0  0  0  0  0  0  0  0  0  0
   -2.8629   -0.3205   -0.1760 N   0  0  0  0  0  0  0  0  0  0  0  0
   -3.9996    0.0764    0.4114 C   0  0  0  0  0  0  0  0  0  0  0  0
   -0.5084   -0.8409   -0.2544 C   0  0  0  0  0  0  0  0  0  0  0  0
   -0.6125   -1.1809   -1.5874 C   0  0  0  0  0  0  0  0  0  0  0  0
    0.4799   -1.5956   -2.2513 N   0  0  0  0  0  0  0  0  0  0  0  0
    1.6769   -1.6773   -1.6098 C   0  0  0  0  0  0  0  0  0  0  0  0
    2.7970   -2.1184   -2.3340 N   0  0  0  0  0  0  0  0  0  0  0  0
    1.8225   -1.3482   -0.2854 C   0  0  0  0  0  0  0  0  0  0  0  0
    0.7005   -0.9290    0.3725 N   0  0  0  0  0  0  0  0  0  0  0  0
    3.0902   -1.4263    0.4097 C   0  0  0  0  0  0  0  0  0  0  0  0
    3.8148   -2.7468    0.3062 C   0  0  0  0  0  0  0  0  0  0  0  0
    4.7683   -2.7928    1.5108 C   0  0  0  0  0  0  0  0  0  0  0  0
    5.6662   -1.7103    1.3538 O   0  0  0  0  0  0  0  0  0  0  0  0
    5.3567   -0.5812    0.5729 C   0  0  0  0  0  0  0  0  0  0  0  0
    6.3497    0.3367    0.3106 C   0  0  0  0  0  0  0  0  0  0  0  0
    6.0483    1.4441   -0.4539 C   0  0  0  0  0  0  0  0  0  0  0  0
    4.7882    1.6813   -0.9752 C   0  0  0  0  0  0  0  0  0  0  0  0
    4.5004    2.8032   -1.7447 O   0  0  0  0  0  0  0  0  0  0  0  0
    5.5518    3.7124   -1.9858 C   0  0  0  0  0  0  0  0  0  0  0  0
    3.8187    0.7208   -0.6804 C   0  0  0  0  0  0  0  0  0  0  0  0
    4.0872   -0.3831    0.0727 C   0  0  0  0  0  0  0  0  0  0  0  0
   -2.8206    0.7448    3.8670 C   0  0  0  0  0  0  0  0  0  0  0  0
   -3.9740    1.1571    4.5655 N   0  0  0  0  0  0  0  0  0  0  0  0
   -1.7286    0.6881    4.4811 O   0  0  0  0  0  0  0  0  0  0  0  0
   -6.1697   -0.2159   -3.4035 H   0  0  0  0  0  0  0  0  0  0  0  0
   -5.9969    1.2292   -2.3736 H   0  0  0  0  0  0  0  0  0  0  0  0
   -4.5148    0.4944   -3.0028 H   0  0  0  0  0  0  0  0  0  0  0  0
   -6.3672   -1.2610   -1.3084 H   0  0  0  0  0  0  0  0  0  0  0  0
   -4.6116   -1.4005   -1.5703 H   0  0  0  0  0  0  0  0  0  0  0  0
   -7.2770    0.4113    0.0202 H   0  0  0  0  0  0  0  0  0  0  0  0
   -6.4419    1.9038   -0.4963 H   0  0  0  0  0  0  0  0  0  0  0  0
   -7.1947    1.3193    2.0958 H   0  0  0  0  0  0  0  0  0  0  0  0
   -6.0371    2.5821    1.6450 H   0  0  0  0  0  0  0  0  0  0  0  0
   -0.7488   -0.0990    2.3210 H   0  0  0  0  0  0  0  0  0  0  0  0
   -1.5867   -1.0983   -2.0514 H   0  0  0  0  0  0  0  0  0  0  0  0
    3.0111   -3.1605   -2.3722 H   0  0  0  0  0  0  0  0  0  0  0  0
    3.4554   -1.5110   -2.8524 H   0  0  0  0  0  0  0  0  0  0  0  0
    2.9024   -1.2858    1.5186 H   0  0  0  0  0  0  0  0  0  0  0  0
    3.1629   -3.6211    0.2883 H   0  0  0  0  0  0  0  0  0  0  0  0
    4.5402   -2.7335   -0.5615 H   0  0  0  0  0  0  0  0  0  0  0  0
    4.2267   -2.7903    2.4581 H   0  0  0  0  0  0  0  0  0  0  0  0
    5.3541   -3.7421    1.3379 H   0  0  0  0  0  0  0  0  0  0  0  0
    7.3488    0.1936    0.6962 H   0  0  0  0  0  0  0  0  0  0  0  0
    6.7963    2.1992   -0.6907 H   0  0  0  0  0  0  0  0  0  0  0  0
    5.9945    4.0424   -1.0104 H   0  0  0  0  0  0  0  0  0  0  0  0
    5.1352    4.6225   -2.4555 H   0  0  0  0  0  0  0  0  0  0  0  0
    6.3658    3.2980   -2.6125 H   0  0  0  0  0  0  0  0  0  0  0  0
    2.8285    0.8687   -1.0683 H   0  0  0  0  0  0  0  0  0  0  0  0
   -4.3567    0.5398    5.3081 H   0  0  0  0  0  0  0  0  0  0  0  0
   -4.4645    2.0513    4.3761 H   0  0  0  0  0  0  0  0  0  0  0  0
  1  2  1  0
  2  3  1  0
  3  4  1  0
  4  5  1  0
  5  6  1  0
  6  7  1  0
  7  8  2  0
  8  9  1  0
  9 10  2  0
 10 11  1  0
 11 12  2  0
 10 13  1  0
 13 14  2  0
 14 15  1  0
 15 16  2  0
 16 17  1  0
 16 18  1  0
 18 19  2  0
 18 20  1  0
 20 21  1  0
 21 22  1  0
 22 23  1  0
 23 24  1  0
 24 25  2  0
 25 26  1  0
 26 27  2  0
 27 28  1  0
 28 29  1  0
 27 30  1  0
 30 31  2  0
  8 32  1  0
 32 33  1  0
 32 34  2  0
 12  3  1  0
 19 13  1  0
 31 20  1  0
 12  7  1  0
 31 24  1  0
  1 35  1  0
  1 36  1  0
  1 37  1  0
  2 38  1  0
  2 39  1  0
  4 40  1  0
  4 41  1  0
  5 42  1  0
  5 43  1  0
  9 44  1  0
 14 45  1  0
 17 46  1  0
 17 47  1  0
 20 48  1  0
 21 49  1  0
 21 50  1  0
 22 51  1  0
 22 52  1  0
 25 53  1  0
 26 54  1  0
 29 55  1  0
 29 56  1  0
 29 57  1  0
 30 58  1  0
 33 59  1  0
 33 60  1  0
M  END
$$$$
[H]c1c([H])c([H])c2c(c1[H])c1c3c(c4c5c([H])c([H])c([H])c([H])c5n5c4c1n2[C@@]1(C([H])([H])[H])O[C@]5([H])C([H])([H])[C@@]([H])(N([H])C([H])([H])[H])[C@@]1([H])OC([H])([H])[H])C(=O)N([H])C3([H])[H]
     RDKit          3D

 61 68  0  0  0  0  0  0  0  0999 V2000
   -3.3415   -2.0929    0.8927 C   0  0  0  0  0  0  0  0  0  0  0  0
   -2.7520   -0.8244    0.5060 N   0  0  0  0  0  0  0  0  0  0  0  0
   -2.5947   -0.7699   -0.9652 C   0  0  2  0  0  0  0  0  0  0  0  0
   -1.6635   -1.8336   -1.3456 C   0  0  0  0  0  0  0  0  0  0  0  0
   -0.4098   -1.3263   -1.9401 C   0  0  1  0  0  0  0  0  0  0  0  0
   -0.2904   -0.0961   -2.3609 O   0  0  0  0  0  0  0  0  0  0  0  0
   -0.9141    0.9817   -1.7381 C   0  0  1  0  0  0  0  0  0  0  0  0
   -0.8729    2.0231   -2.8643 C   0  0  0  0  0  0  0  0  0  0  0  0
   -2.2914    0.6326   -1.4119 C   0  0  2  0  0  0  0  0  0  0  0  0
   -2.9229    1.4324   -0.4622 O   0  0  0  0  0  0  0  0  0  0  0  0
   -4.0664    2.0564   -0.9455 C   0  0  0  0  0  0  0  0  0  0  0  0
   -0.0747    1.3904   -0.5981 N   0  0  0  0  0  0  0  0  0  0  0  0
    0.0066    2.5943   -0.0347 C   0  0  0  0  0  0  0  0  0  0  0  0
   -0.6403    3.7755   -0.2701 C   0  0  0  0  0  0  0  0  0  0  0  0
   -0.3753    4.9057    0.4704 C   0  0  0  0  0  0  0  0  0  0  0  0
    0.5715    4.8915    1.4994 C   0  0  0  0  0  0  0  0  0  0  0  0
    1.2169    3.7192    1.7374 C   0  0  0  0  0  0  0  0  0  0  0  0
    0.9447    2.6014    0.9941 C   0  0  0  0  0  0  0  0  0  0  0  0
    1.4533    1.3308    1.0530 C   0  0  0  0  0  0  0  0  0  0  0  0
    2.4134    0.7192    1.8621 C   0  0  0  0  0  0  0  0  0  0  0  0
    3.2252    1.2814    2.9656 C   0  0  0  0  0  0  0  0  0  0  0  0
    4.0513    0.2282    3.4563 N   0  0  0  0  0  0  0  0  0  0  0  0
    3.7725   -0.9500    2.6928 C   0  0  0  0  0  0  0  0  0  0  0  0
    4.3602   -2.0093    2.9202 O   0  0  0  0  0  0  0  0  0  0  0  0
    2.7553   -0.6238    1.7110 C   0  0  0  0  0  0  0  0  0  0  0  0
    2.1006   -1.3257    0.7242 C   0  0  0  0  0  0  0  0  0  0  0  0
    2.1422   -2.6347    0.2794 C   0  0  0  0  0  0  0  0  0  0  0  0
    2.8759   -3.7217    0.6638 C   0  0  0  0  0  0  0  0  0  0  0  0
    2.6892   -4.9254    0.0128 C   0  0  0  0  0  0  0  0  0  0  0  0
    1.7808   -5.0386   -1.0084 C   0  0  0  0  0  0  0  0  0  0  0  0
    1.0343   -3.9515   -1.4066 C   0  0  0  0  0  0  0  0  0  0  0  0
    1.2263   -2.7646   -0.7562 C   0  0  0  0  0  0  0  0  0  0  0  0
    0.6469   -1.5975   -0.9447 N   0  0  0  0  0  0  0  0  0  0  0  0
    1.1358   -0.7009   -0.0851 C   0  0  0  0  0  0  0  0  0  0  0  0
    0.8119    0.6350    0.0794 C   0  0  0  0  0  0  0  0  0  0  0  0
   -3.9345   -1.8764    1.8249 H   0  0  0  0  0  0  0  0  0  0  0  0
   -2.5804   -2.8202    1.1896 H   0  0  0  0  0  0  0  0  0  0  0  0
   -4.0376   -2.4413    0.1071 H   0  0  0  0  0  0  0  0  0  0  0  0
   -1.8252   -0.7857    0.9817 H   0  0  0  0  0  0  0  0  0  0  0  0
   -3.6418   -1.0758   -1.3069 H   0  0  0  0  0  0  0  0  0  0  0  0
   -1.4743   -2.5407   -0.4944 H   0  0  0  0  0  0  0  0  0  0  0  0
   -2.1827   -2.5069   -2.1019 H   0  0  0  0  0  0  0  0  0  0  0  0
   -0.1764   -2.0147   -2.8352 H   0  0  0  0  0  0  0  0  0  0  0  0
   -1.8561    2.5173   -2.9808 H   0  0  0  0  0  0  0  0  0  0  0  0
   -0.0367    2.7359   -2.7018 H   0  0  0  0  0  0  0  0  0  0  0  0
   -0.6761    1.5932   -3.8662 H   0  0  0  0  0  0  0  0  0  0  0  0
   -2.9127    0.7625   -2.3525 H   0  0  0  0  0  0  0  0  0  0  0  0
   -4.5472    2.6842   -0.1440 H   0  0  0  0  0  0  0  0  0  0  0  0
   -3.8494    2.7776   -1.7563 H   0  0  0  0  0  0  0  0  0  0  0  0
   -4.7942    1.3294   -1.3803 H   0  0  0  0  0  0  0  0  0  0  0  0
   -1.3647    3.8112   -1.0348 H   0  0  0  0  0  0  0  0  0  0  0  0
   -0.8845    5.8355    0.2847 H   0  0  0  0  0  0  0  0  0  0  0  0
    0.7949    5.7654    2.0918 H   0  0  0  0  0  0  0  0  0  0  0  0
    1.9682    3.6487    2.5304 H   0  0  0  0  0  0  0  0  0  0  0  0
    3.8868    2.0907    2.5395 H   0  0  0  0  0  0  0  0  0  0  0  0
    2.5967    1.6993    3.7873 H   0  0  0  0  0  0  0  0  0  0  0  0
    4.7363    0.3270    4.2421 H   0  0  0  0  0  0  0  0  0  0  0  0
    3.5871   -3.7061    1.4353 H   0  0  0  0  0  0  0  0  0  0  0  0
    3.2659   -5.8106    0.3031 H   0  0  0  0  0  0  0  0  0  0  0  0
    1.6292   -5.9934   -1.5280 H   0  0  0  0  0  0  0  0  0  0  0  0
    0.3048   -4.0175   -2.2172 H   0  0  0  0  0  0  0  0  0  0  0  0
  1  2  1  0
  2  3  1  0
  3  4  1  0
  4  5  1  0
  5  6  1  0
  6  7  1  0
  7  8  1  6
  7  9  1  0
  9 10  1  0
 10 11  1  0
  7 12  1  0
 12 13  1  0
 13 14  2  0
 14 15  1  0
 15 16  2  0
 16 17  1  0
 17 18  2  0
 18 19  1  0
 19 20  2  0
 20 21  1  0
 21 22  1  0
 22 23  1  0
 23 24  2  0
 23 25  1  0
 25 26  2  0
 26 27  1  0
 27 28  2  0
 28 29  1  0
 29 30  2  0
 30 31  1  0
 31 32  2  0
 32 33  1  0
 33 34  1  0
 34 35  2  0
  9  3  1  0
 35 12  1  0
 33  5  1  0
 18 13  1  0
 35 19  1  0
 25 20  1  0
 34 26  1  0
 32 27  1  0
  1 36  1  0
  1 37  1  0
  1 38  1  0
  2 39  1  0
  3 40  1  6
  4 41  1  0
  4 42  1  0
  5 43  1  6
  8 44  1  0
  8 45  1  0
  8 46  1  0
  9 47  1  6
 11 48  1  0
 11 49  1  0
 11 50  1  0
 14 51  1  0
 15 52  1  0
 16 53  1  0
 17 54  1  0
 21 55  1  0
 21 56  1  0
 22 57  1  0
 28 58  1  0
 29 59  1  0
 30 60  1  0
 31 61  1  0
M  END
$$$$
[H]c1nc(F)c(C2([H])N=C(N([H])[H])c3c([H])nc([H])c([H])c3C2([H])[H])c([H])c1[H]
     RDKit          3D

 29 31  0  0  0  0  0  0  0  0999 V2000
   -1.6309    2.5249   -1.2276 N   0  0  0  0  0  0  0  0  0  0  0  0
   -1.1242    1.2127   -0.9567 C   0  0  0  0  0  0  0  0  0  0  0  0
   -0.1125    0.7972   -1.5754 N   0  0  0  0  0  0  0  0  0  0  0  0
    0.5259   -0.5110   -1.4052 C   0  0  0  0  0  0  0  0  0  0  0  0
   -0.2929   -1.4579   -0.6255 C   0  0  0  0  0  0  0  0  0  0  0  0
   -1.4063   -0.9328    0.1516 C   0  0  0  0  0  0  0  0  0  0  0  0
   -2.0547   -1.7538    1.0533 C   0  0  0  0  0  0  0  0  0  0  0  0
   -3.1295   -1.2558    1.7523 C   0  0  0  0  0  0  0  0  0  0  0  0
   -3.5624   -0.0009    1.5778 N   0  0  0  0  0  0  0  0  0  0  0  0
   -2.9470    0.8395    0.6949 C   0  0  0  0  0  0  0  0  0  0  0  0
   -1.8614    0.3661   -0.0200 C   0  0  0  0  0  0  0  0  0  0  0  0
    1.7906   -0.1609   -0.6508 C   0  0  0  0  0  0  0  0  0  0  0  0
    1.8020   -0.2448    0.7238 C   0  0  0  0  0  0  0  0  0  0  0  0
    2.9513    0.1466    1.3921 C   0  0  0  0  0  0  0  0  0  0  0  0
    4.0727    0.6123    0.7318 C   0  0  0  0  0  0  0  0  0  0  0  0
    4.0021    0.6723   -0.6158 N   0  0  0  0  0  0  0  0  0  0  0  0
    2.9203    0.3084   -1.3154 C   0  0  0  0  0  0  0  0  0  0  0  0
    2.8966    0.3878   -2.6639 F   0  0  0  0  0  0  0  0  0  0  0  0
   -1.6621    2.8672   -2.2335 H   0  0  0  0  0  0  0  0  0  0  0  0
   -1.9605    3.1423   -0.4601 H   0  0  0  0  0  0  0  0  0  0  0  0
    0.8019   -0.8879   -2.3894 H   0  0  0  0  0  0  0  0  0  0  0  0
   -0.6734   -2.2937   -1.2832 H   0  0  0  0  0  0  0  0  0  0  0  0
    0.3823   -2.0272    0.0859 H   0  0  0  0  0  0  0  0  0  0  0  0
   -1.7244   -2.7555    1.2025 H   0  0  0  0  0  0  0  0  0  0  0  0
   -3.6781   -1.8589    2.4681 H   0  0  0  0  0  0  0  0  0  0  0  0
   -3.2454    1.8416    0.5117 H   0  0  0  0  0  0  0  0  0  0  0  0
    0.9598   -0.5839    1.2954 H   0  0  0  0  0  0  0  0  0  0  0  0
    2.9955    0.1014    2.4934 H   0  0  0  0  0  0  0  0  0  0  0  0
    4.9646    0.9046    1.2880 H   0  0  0  0  0  0  0  0  0  0  0  0
  1  2  1  0
  2  3  2  0
  3  4  1  0
  4  5  1  0
  5  6  1  0
  6  7  2  0
  7  8  1  0
  8  9  2  0
  9 10  1  0
 10 11  2  0
  4 12  1  0
 12 13  2  0
 13 14  1  0
 14 15  2  0
 15 16  1  0
 16 17  2  0
 17 18  1  0
 11  2  1  0
 17 12  1  0
 11  6  1  0
  1 19  1  0
  1 20  1  0
  4 21  1  0
  5 22  1  0
  5 23  1  0
  7 24  1  0
  8 25  1  0
 10 26  1  0
 13 27  1  0
 14 28  1  0
 15 29  1  0
M  END
$$$$
[H]c1nc(Oc2c([H])c([H])c(N([H])C(=O)N([H])c3c([H])c([H])c4c(c3[H])C([H])([H])N(C([H])([H])C([H])([H])[H])C([H])([H])C4([H])[H])c([H])c2C([H])([H])[H])c([H])c(N([H])C([H])([H])[H])n1
     RDKit          3D

 60 63  0  0  0  0  0  0  0  0999 V2000
   -6.6486    2.2210   -1.0858 C   0  0  0  0  0  0  0  0  0  0  0  0
   -7.4583    1.0734   -0.4875 C   0  0  0  0  0  0  0  0  0  0  0  0
   -7.1594   -0.1307   -1.2056 N   0  0  0  0  0  0  0  0  0  0  0  0
   -7.8539   -1.2890   -0.7332 C   0  0  0  0  0  0  0  0  0  0  0  0
   -7.4092   -1.7490    0.6203 C   0  0  0  0  0  0  0  0  0  0  0  0
   -5.9905   -1.4262    0.8412 C   0  0  0  0  0  0  0  0  0  0  0  0
   -5.4750   -1.8315    2.0885 C   0  0  0  0  0  0  0  0  0  0  0  0
   -4.1620   -1.5744    2.3862 C   0  0  0  0  0  0  0  0  0  0  0  0
   -3.3244   -0.9160    1.4720 C   0  0  0  0  0  0  0  0  0  0  0  0
   -2.0156   -0.6657    1.8698 N   0  0  0  0  0  0  0  0  0  0  0  0
   -0.9366   -0.5446    0.9423 C   0  0  0  0  0  0  0  0  0  0  0  0
   -1.1781   -0.6804   -0.2649 O   0  0  0  0  0  0  0  0  0  0  0  0
    0.3590   -0.2784    1.3977 N   0  0  0  0  0  0  0  0  0  0  0  0
    1.5133   -0.1407    0.6099 C   0  0  0  0  0  0  0  0  0  0  0  0
    1.6964   -0.5871   -0.6797 C   0  0  0  0  0  0  0  0  0  0  0  0
    2.8369   -0.4002   -1.4056 C   0  0  0  0  0  0  0  0  0  0  0  0
    3.9316    0.2978   -0.8230 C   0  0  0  0  0  0  0  0  0  0  0  0
    4.9975    0.4135   -1.6485 O   0  0  0  0  0  0  0  0  0  0  0  0
    6.2872   -0.0247   -1.5985 C   0  0  0  0  0  0  0  0  0  0  0  0
    7.3601    0.6272   -1.0663 C   0  0  0  0  0  0  0  0  0  0  0  0
    8.6212    0.0931   -1.0745 C   0  0  0  0  0  0  0  0  0  0  0  0
    9.7022    0.8123   -0.5087 N   0  0  0  0  0  0  0  0  0  0  0  0
    9.5116    2.1196    0.0854 C   0  0  0  0  0  0  0  0  0  0  0  0
    8.8047   -1.1160   -1.6288 N   0  0  0  0  0  0  0  0  0  0  0  0
    7.7439   -1.7821   -2.1670 C   0  0  0  0  0  0  0  0  0  0  0  0
    6.5233   -1.2729   -2.1620 N   0  0  0  0  0  0  0  0  0  0  0  0
    3.7969    0.7606    0.4568 C   0  0  0  0  0  0  0  0  0  0  0  0
    4.9008    1.5265    1.1445 C   0  0  0  0  0  0  0  0  0  0  0  0
    2.6223    0.5373    1.1286 C   0  0  0  0  0  0  0  0  0  0  0  0
   -3.8489   -0.5348    0.2746 C   0  0  0  0  0  0  0  0  0  0  0  0
   -5.1974   -0.7868   -0.0593 C   0  0  0  0  0  0  0  0  0  0  0  0
   -5.7428   -0.3642   -1.3650 C   0  0  0  0  0  0  0  0  0  0  0  0
   -6.5216    2.0569   -2.1832 H   0  0  0  0  0  0  0  0  0  0  0  0
   -7.1638    3.1774   -0.8528 H   0  0  0  0  0  0  0  0  0  0  0  0
   -5.6230    2.2445   -0.6576 H   0  0  0  0  0  0  0  0  0  0  0  0
   -7.2192    1.0332    0.5949 H   0  0  0  0  0  0  0  0  0  0  0  0
   -8.5479    1.2796   -0.5618 H   0  0  0  0  0  0  0  0  0  0  0  0
   -7.6935   -2.0937   -1.5067 H   0  0  0  0  0  0  0  0  0  0  0  0
   -8.9390   -1.0155   -0.6810 H   0  0  0  0  0  0  0  0  0  0  0  0
   -7.5045   -2.8777    0.6574 H   0  0  0  0  0  0  0  0  0  0  0  0
   -8.0650   -1.3083    1.4292 H   0  0  0  0  0  0  0  0  0  0  0  0
   -6.1005   -2.3417    2.8131 H   0  0  0  0  0  0  0  0  0  0  0  0
   -3.7710   -1.8858    3.3414 H   0  0  0  0  0  0  0  0  0  0  0  0
   -1.8166   -0.5587    2.9110 H   0  0  0  0  0  0  0  0  0  0  0  0
    0.5063   -0.1679    2.4520 H   0  0  0  0  0  0  0  0  0  0  0  0
    0.8514   -1.1467   -1.1288 H   0  0  0  0  0  0  0  0  0  0  0  0
    2.8802   -0.7871   -2.4052 H   0  0  0  0  0  0  0  0  0  0  0  0
    7.2369    1.6034   -0.6494 H   0  0  0  0  0  0  0  0  0  0  0  0
   10.6686    0.4228   -0.5028 H   0  0  0  0  0  0  0  0  0  0  0  0
    8.7529    2.0368    0.8874 H   0  0  0  0  0  0  0  0  0  0  0  0
    9.1059    2.7839   -0.7319 H   0  0  0  0  0  0  0  0  0  0  0  0
   10.4518    2.5578    0.4404 H   0  0  0  0  0  0  0  0  0  0  0  0
    7.9473   -2.7707   -2.6101 H   0  0  0  0  0  0  0  0  0  0  0  0
    4.4559    1.9740    2.0622 H   0  0  0  0  0  0  0  0  0  0  0  0
    5.6232    0.7851    1.4959 H   0  0  0  0  0  0  0  0  0  0  0  0
    5.2799    2.3235    0.4969 H   0  0  0  0  0  0  0  0  0  0  0  0
    2.5460    0.9152    2.1398 H   0  0  0  0  0  0  0  0  0  0  0  0
   -3.3144   -0.0019   -0.5063 H   0  0  0  0  0  0  0  0  0  0  0  0
   -5.5934   -1.1602   -2.1307 H   0  0  0  0  0  0  0  0  0  0  0  0
   -5.2411    0.5352   -1.7307 H   0  0  0  0  0  0  0  0  0  0  0  0
  1  2  1  0
  2  3  1  0
  3  4  1  0
  4  5  1  0
  5  6  1  0
  6  7  2  0
  7  8  1  0
  8  9  2  0
  9 10  1  0
 10 11  1  0
 11 12  2  0
 11 13  1  0
 13 14  1  0
 14 15  2  0
 15 16  1  0
 16 17  2  0
 17 18  1  0
 18 19  1  0
 19 20  2  0
 20 21  1  0
 21 22  1  0
 22 23  1  0
 21 24  2  0
 24 25  1  0
 25 26  2  0
 17 27  1  0
 27 28  1  0
 27 29  2  0
  9 30  1  0
 30 31  2  0
 31 32  1  0
 32  3  1  0
 31  6  1  0
 29 14  1  0
 26 19  1  0
  1 33  1  0
  1 34  1  0
  1 35  1  0
  2 36  1  0
  2 37  1  0
  4 38  1  0
  4 39  1  0
  5 40  1  0
  5 41  1  0
  7 42  1  0
  8 43  1  0
 10 44  1  0
 13 45  1  0
 15 46  1  0
 16 47  1  0
 20 48  1  0
 22 49  1  0
 23 50  1  0
 23 51  1  0
 23 52  1  0
 25 53  1  0
 28 54  1  0
 28 55  1  0
 28 56  1  0
 29 57  1  0
 30 58  1  0
 32 59  1  0
 32 60  1  0
M  END
$$$$
[H]OC(C([H])([H])[H])(C([H])([H])[H])C([H])([H])N1C(=O)C2=C(C1([H])C(=O)C([H])(C([H])([H])[H])C([H])([H])[H])C([H])(c1c([H])c([H])c([H])c([H])c1-c1nnnn1[H])N(C1([H])C([H])([H])C([H])([H])N(C([H])([H])[H])C([H])([H])C1([H])[H])[C@@]([H])(C([H])([H])C([H])([H])[H])C2([H])[H]
     RDKit          3D

 83 87  0  0  0  0  0  0  0  0999 V2000
   -0.2508    1.6787    3.1126 C   0  0  0  0  0  0  0  0  0  0  0  0
    0.7025    0.5688    3.4727 C   0  0  0  0  0  0  0  0  0  0  0  0
    0.7313   -0.5859    2.5231 C   0  0  1  0  0  0  0  0  0  0  0  0
   -0.6655   -1.1553    2.5204 C   0  0  0  0  0  0  0  0  0  0  0  0
   -1.3288   -1.0051    1.1952 C   0  0  0  0  0  0  0  0  0  0  0  0
   -0.8026   -0.5544    0.1470 C   0  0  0  0  0  0  0  0  0  0  0  0
   -1.7833   -0.5357   -0.9862 C   0  0  0  0  0  0  0  0  0  0  0  0
   -2.8819   -1.3064   -0.5329 N   0  0  0  0  0  0  0  0  0  0  0  0
   -3.9489   -1.9031   -1.3016 C   0  0  0  0  0  0  0  0  0  0  0  0
   -5.2515   -1.2446   -1.4044 C   0  0  0  0  0  0  0  0  0  0  0  0
   -5.3801   -0.0759   -2.3371 C   0  0  0  0  0  0  0  0  0  0  0  0
   -6.1644   -2.3264   -2.1006 C   0  0  0  0  0  0  0  0  0  0  0  0
   -5.8750   -1.0201   -0.1635 O   0  0  0  0  0  0  0  0  0  0  0  0
   -2.6692   -1.5050    0.8848 C   0  0  0  0  0  0  0  0  0  0  0  0
   -3.5367   -2.0217    1.6345 O   0  0  0  0  0  0  0  0  0  0  0  0
   -2.0325    0.8569   -1.4157 C   0  0  0  0  0  0  0  0  0  0  0  0
   -2.0361    1.0581   -2.6475 O   0  0  0  0  0  0  0  0  0  0  0  0
   -2.2685    2.0347   -0.5852 C   0  0  0  0  0  0  0  0  0  0  0  0
   -2.5381    3.2815   -1.4486 C   0  0  0  0  0  0  0  0  0  0  0  0
   -3.3767    1.9435    0.4220 C   0  0  0  0  0  0  0  0  0  0  0  0
    0.6512   -0.0976    0.1259 C   0  0  0  0  0  0  0  0  0  0  0  0
    1.3396   -0.5420    1.3058 N   0  0  0  0  0  0  0  0  0  0  0  0
    2.7023   -0.6087    1.1091 C   0  0  0  0  0  0  0  0  0  0  0  0
    3.3977    0.6189    1.6512 C   0  0  0  0  0  0  0  0  0  0  0  0
    4.4414    0.3198    2.6958 C   0  0  0  0  0  0  0  0  0  0  0  0
    5.4632   -0.5772    2.1822 N   0  0  0  0  0  0  0  0  0  0  0  0
    6.4347    0.2027    1.4005 C   0  0  0  0  0  0  0  0  0  0  0  0
    4.8799   -1.6207    1.3516 C   0  0  0  0  0  0  0  0  0  0  0  0
    3.4329   -1.7734    1.7652 C   0  0  0  0  0  0  0  0  0  0  0  0
    1.2609   -0.5024   -1.1533 C   0  0  0  0  0  0  0  0  0  0  0  0
    1.1519   -1.8845   -1.4442 C   0  0  0  0  0  0  0  0  0  0  0  0
    1.7212   -2.4059   -2.5716 C   0  0  0  0  0  0  0  0  0  0  0  0
    2.4207   -1.5988   -3.4617 C   0  0  0  0  0  0  0  0  0  0  0  0
    2.5167   -0.2686   -3.1684 C   0  0  0  0  0  0  0  0  0  0  0  0
    1.9420    0.3132   -2.0124 C   0  0  0  0  0  0  0  0  0  0  0  0
    2.0911    1.7585   -1.8453 C   0  0  0  0  0  0  0  0  0  0  0  0
    1.5297    2.5532   -0.9617 N   0  0  0  0  0  0  0  0  0  0  0  0
    1.8498    3.8138   -1.0990 N   0  0  0  0  0  0  0  0  0  0  0  0
    2.6746    3.8293   -2.1441 N   0  0  0  0  0  0  0  0  0  0  0  0
    2.8353    2.5856   -2.6145 N   0  0  0  0  0  0  0  0  0  0  0  0
   -1.3014    1.3411    3.0751 H   0  0  0  0  0  0  0  0  0  0  0  0
    0.0462    2.1763    2.1760 H   0  0  0  0  0  0  0  0  0  0  0  0
   -0.2250    2.4570    3.9118 H   0  0  0  0  0  0  0  0  0  0  0  0
    1.6440    0.8839    3.9113 H   0  0  0  0  0  0  0  0  0  0  0  0
    0.1878    0.1372    4.4296 H   0  0  0  0  0  0  0  0  0  0  0  0
    1.3251   -1.3803    3.1284 H   0  0  0  0  0  0  0  0  0  0  0  0
   -1.3502   -0.6823    3.2540 H   0  0  0  0  0  0  0  0  0  0  0  0
   -0.6863   -2.2461    2.7561 H   0  0  0  0  0  0  0  0  0  0  0  0
   -1.2374   -1.0508   -1.8390 H   0  0  0  0  0  0  0  0  0  0  0  0
   -3.5981   -2.1018   -2.3682 H   0  0  0  0  0  0  0  0  0  0  0  0
   -4.1466   -2.9655   -0.9438 H   0  0  0  0  0  0  0  0  0  0  0  0
   -5.1547    0.9002   -1.9140 H   0  0  0  0  0  0  0  0  0  0  0  0
   -4.6261   -0.2388   -3.1595 H   0  0  0  0  0  0  0  0  0  0  0  0
   -6.3831   -0.0569   -2.8172 H   0  0  0  0  0  0  0  0  0  0  0  0
   -5.9705   -3.2691   -1.5913 H   0  0  0  0  0  0  0  0  0  0  0  0
   -7.1961   -1.9792   -2.1185 H   0  0  0  0  0  0  0  0  0  0  0  0
   -5.7401   -2.3891   -3.1235 H   0  0  0  0  0  0  0  0  0  0  0  0
   -6.6378   -0.4142   -0.3475 H   0  0  0  0  0  0  0  0  0  0  0  0
   -1.3635    2.3418    0.0014 H   0  0  0  0  0  0  0  0  0  0  0  0
   -2.4761    4.1765   -0.8220 H   0  0  0  0  0  0  0  0  0  0  0  0
   -3.5037    3.1749   -1.9698 H   0  0  0  0  0  0  0  0  0  0  0  0
   -1.7154    3.3493   -2.1942 H   0  0  0  0  0  0  0  0  0  0  0  0
   -4.1322    1.1900    0.2213 H   0  0  0  0  0  0  0  0  0  0  0  0
   -2.9819    1.7170    1.4552 H   0  0  0  0  0  0  0  0  0  0  0  0
   -3.8854    2.9403    0.5682 H   0  0  0  0  0  0  0  0  0  0  0  0
    0.5632    0.9684    0.2200 H   0  0  0  0  0  0  0  0  0  0  0  0
    2.9649   -0.7140    0.0591 H   0  0  0  0  0  0  0  0  0  0  0  0
    2.7474    1.4237    1.9803 H   0  0  0  0  0  0  0  0  0  0  0  0
    4.0097    1.1103    0.8145 H   0  0  0  0  0  0  0  0  0  0  0  0
    4.9759    1.2994    2.8730 H   0  0  0  0  0  0  0  0  0  0  0  0
    4.0390    0.0302    3.6808 H   0  0  0  0  0  0  0  0  0  0  0  0
    7.3746    0.2405    1.9687 H   0  0  0  0  0  0  0  0  0  0  0  0
    6.5370   -0.1917    0.3655 H   0  0  0  0  0  0  0  0  0  0  0  0
    6.0661    1.2623    1.2831 H   0  0  0  0  0  0  0  0  0  0  0  0
    4.9193   -1.4070    0.2850 H   0  0  0  0  0  0  0  0  0  0  0  0
    5.3997   -2.5591    1.6396 H   0  0  0  0  0  0  0  0  0  0  0  0
    3.0845   -2.7387    1.3690 H   0  0  0  0  0  0  0  0  0  0  0  0
    3.4415   -1.7203    2.8697 H   0  0  0  0  0  0  0  0  0  0  0  0
    0.6197   -2.5492   -0.7852 H   0  0  0  0  0  0  0  0  0  0  0  0
    1.6556   -3.4686   -2.8245 H   0  0  0  0  0  0  0  0  0  0  0  0
    2.8714   -1.9902   -4.3456 H   0  0  0  0  0  0  0  0  0  0  0  0
    3.0459    0.4033   -3.8245 H   0  0  0  0  0  0  0  0  0  0  0  0
    3.4128    2.2916   -3.4085 H   0  0  0  0  0  0  0  0  0  0  0  0
  1  2  1  0
  2  3  1  0
  3  4  1  0
  4  5  1  0
  5  6  2  0
  6  7  1  0
  7  8  1  0
  8  9  1  0
  9 10  1  0
 10 11  1  0
 10 12  1  0
 10 13  1  0
  8 14  1  0
 14 15  2  0
  7 16  1  0
 16 17  2  0
 16 18  1  0
 18 19  1  0
 18 20  1  0
  6 21  1  0
 21 22  1  0
 22 23  1  0
 23 24  1  0
 24 25  1  0
 25 26  1  0
 26 27  1  0
 26 28  1  0
 28 29  1  0
 21 30  1  0
 30 31  2  0
 31 32  1  0
 32 33  2  0
 33 34  1  0
 34 35  2  0
 35 36  1  0
 36 37  2  0
 37 38  1  0
 38 39  2  0
 39 40  1  0
 22  3  1  0
 29 23  1  0
 35 30  1  0
 40 36  1  0
 14  5  1  0
  1 41  1  0
  1 42  1  0
  1 43  1  0
  2 44  1  0
  2 45  1  0
  3 46  1  1
  4 47  1  0
  4 48  1  0
  7 49  1  0
  9 50  1  0
  9 51  1  0
 11 52  1  0
 11 53  1  0
 11 54  1  0
 12 55  1  0
 12 56  1  0
 12 57  1  0
 13 58  1  0
 18 59  1  0
 19 60  1  0
 19 61  1  0
 19 62  1  0
 20 63  1  0
 20 64  1  0
 20 65  1  0
 21 66  1  0
 23 67  1  0
 24 68  1  0
 24 69  1  0
 25 70  1  0
 25 71  1  0
 27 72  1  0
 27 73  1  0
 27 74  1  0
 28 75  1  0
 28 76  1  0
 29 77  1  0
 29 78  1  0
 31 79  1  0
 32 80  1  0
 33 81  1  0
 34 82  1  0
 40 83  1  0
M  END
$$$$
[H]OC([H])([H])[C@@]1(O[H])C([H])([H])[C@@]2([H])O[C@]1(C([H])([H])[H])n1c3c([H])c([H])c([H])c([H])c3c3c4c(c5c6c([H])c([H])c([H])c([H])c6n2c5c31)C(=O)N([H])C4([H])[H]
     RDKit          3D

 54 61  0  0  0  0  0  0  0  0999 V2000
    3.1800    0.8838    1.3878 C   0  0  0  0  0  0  0  0  0  0  0  0
    2.1176    0.2237    0.5774 C   0  0  2  0  0  0  0  0  0  0  0  0
    1.6968   -0.7870    1.4854 O   0  0  0  0  0  0  0  0  0  0  0  0
    1.2511   -1.8639    0.7986 C   0  0  2  0  0  0  0  0  0  0  0  0
    2.0328   -1.9517   -0.4419 C   0  0  0  0  0  0  0  0  0  0  0  0
    2.6347   -0.5714   -0.5849 C   0  0  1  0  0  0  0  0  0  0  0  0
    2.2138   -0.0799   -1.8115 O   0  0  0  0  0  0  0  0  0  0  0  0
    4.1191   -0.7109   -0.6110 C   0  0  0  0  0  0  0  0  0  0  0  0
    4.4589   -1.5975   -1.6334 O   0  0  0  0  0  0  0  0  0  0  0  0
   -0.2014   -1.7853    0.5955 N   0  0  0  0  0  0  0  0  0  0  0  0
   -1.1044   -2.7499    0.6347 C   0  0  0  0  0  0  0  0  0  0  0  0
   -0.9179   -4.0868    0.8734 C   0  0  0  0  0  0  0  0  0  0  0  0
   -2.0299   -4.9199    0.8648 C   0  0  0  0  0  0  0  0  0  0  0  0
   -3.2823   -4.4161    0.6235 C   0  0  0  0  0  0  0  0  0  0  0  0
   -3.4758   -3.0511    0.3794 C   0  0  0  0  0  0  0  0  0  0  0  0
   -2.3768   -2.2421    0.3902 C   0  0  0  0  0  0  0  0  0  0  0  0
   -2.2053   -0.8905    0.1945 C   0  0  0  0  0  0  0  0  0  0  0  0
   -3.0670    0.1511   -0.0975 C   0  0  0  0  0  0  0  0  0  0  0  0
   -4.5001    0.2660   -0.2996 C   0  0  0  0  0  0  0  0  0  0  0  0
   -5.3884   -0.5871   -0.2658 O   0  0  0  0  0  0  0  0  0  0  0  0
   -4.7851    1.6416   -0.5724 N   0  0  0  0  0  0  0  0  0  0  0  0
   -3.5735    2.4248   -0.5610 C   0  0  0  0  0  0  0  0  0  0  0  0
   -2.5314    1.4168   -0.2472 C   0  0  0  0  0  0  0  0  0  0  0  0
   -1.1701    1.6669   -0.1133 C   0  0  0  0  0  0  0  0  0  0  0  0
   -0.3770    2.7657   -0.2198 C   0  0  0  0  0  0  0  0  0  0  0  0
   -0.7006    4.0705   -0.5126 C   0  0  0  0  0  0  0  0  0  0  0  0
    0.3203    5.0230   -0.5829 C   0  0  0  0  0  0  0  0  0  0  0  0
    1.6233    4.6180   -0.3553 C   0  0  0  0  0  0  0  0  0  0  0  0
    1.9232    3.2989   -0.0625 C   0  0  0  0  0  0  0  0  0  0  0  0
    0.9354    2.3466    0.0129 C   0  0  0  0  0  0  0  0  0  0  0  0
    0.9590    1.0103    0.2643 N   0  0  0  0  0  0  0  0  0  0  0  0
   -0.3578    0.6223    0.1746 C   0  0  0  0  0  0  0  0  0  0  0  0
   -0.8544   -0.6533    0.3299 C   0  0  0  0  0  0  0  0  0  0  0  0
    4.0624    1.2462    0.8471 H   0  0  0  0  0  0  0  0  0  0  0  0
    3.5596    0.1949    2.1815 H   0  0  0  0  0  0  0  0  0  0  0  0
    2.7312    1.7230    1.9466 H   0  0  0  0  0  0  0  0  0  0  0  0
    1.4219   -2.7643    1.4120 H   0  0  0  0  0  0  0  0  0  0  0  0
    1.4720   -2.2700   -1.3403 H   0  0  0  0  0  0  0  0  0  0  0  0
    2.8377   -2.7359   -0.3258 H   0  0  0  0  0  0  0  0  0  0  0  0
    2.8799   -0.3390   -2.4928 H   0  0  0  0  0  0  0  0  0  0  0  0
    4.5238   -1.1579    0.3296 H   0  0  0  0  0  0  0  0  0  0  0  0
    4.6358    0.2581   -0.8438 H   0  0  0  0  0  0  0  0  0  0  0  0
    4.7979   -2.4633   -1.2908 H   0  0  0  0  0  0  0  0  0  0  0  0
    0.0592   -4.4684    1.0598 H   0  0  0  0  0  0  0  0  0  0  0  0
   -1.8569   -5.9719    1.0560 H   0  0  0  0  0  0  0  0  0  0  0  0
   -4.1224   -5.0759    0.6219 H   0  0  0  0  0  0  0  0  0  0  0  0
   -4.4721   -2.7398    0.2018 H   0  0  0  0  0  0  0  0  0  0  0  0
   -5.7336    2.0654   -0.7610 H   0  0  0  0  0  0  0  0  0  0  0  0
   -3.6366    3.2333    0.1993 H   0  0  0  0  0  0  0  0  0  0  0  0
   -3.3846    2.8954   -1.5673 H   0  0  0  0  0  0  0  0  0  0  0  0
   -1.7294    4.3700   -0.6881 H   0  0  0  0  0  0  0  0  0  0  0  0
    0.0587    6.0490   -0.8135 H   0  0  0  0  0  0  0  0  0  0  0  0
    2.3774    5.3965   -0.4223 H   0  0  0  0  0  0  0  0  0  0  0  0
    2.9510    3.0689    0.0761 H   0  0  0  0  0  0  0  0  0  0  0  0
  2  1  1  1
  2  3  1  0
  3  4  1  0
  4  5  1  0
  5  6  1  0
  6  7  1  6
  6  8  1  0
  8  9  1  0
  4 10  1  0
 10 11  1  0
 11 12  2  0
 12 13  1  0
 13 14  2  0
 14 15  1  0
 15 16  2  0
 16 17  1  0
 17 18  2  0
 18 19  1  0
 19 20  2  0
 19 21  1  0
 21 22  1  0
 22 23  1  0
 23 24  2  0
 24 25  1  0
 25 26  2  0
 26 27  1  0
 27 28  2  0
 28 29  1  0
 29 30  2  0
 30 31  1  0
 31 32  1  0
 32 33  2  0
  6  2  1  0
 33 10  1  0
 31  2  1  0
 16 11  1  0
 33 17  1  0
 23 18  1  0
 32 24  1  0
 30 25  1  0
  1 34  1  0
  1 35  1  0
  1 36  1  0
  4 37  1  1
  5 38  1  0
  5 39  1  0
  7 40  1  0
  8 41  1  0
  8 42  1  0
  9 43  1  0
 12 44  1  0
 13 45  1  0
 14 46  1  0
 15 47  1  0
 21 48  1  0
 22 49  1  0
 22 50  1  0
 26 51  1  0
 27 52  1  0
 28 53  1  0
 29 54  1  0
M  END
$$$$
[H]Oc1c([H])c(Oc2c([H])c([H])c([H])c([H])c2[H])c(C#N)c(C([H])([H])C([H])([H])[H])c1[H]
     RDKit          3D

 31 32  0  0  0  0  0  0  0  0999 V2000
    3.3790    0.2673    1.6729 C   0  0  0  0  0  0  0  0  0  0  0  0
    3.3701    0.6168    0.2260 C   0  0  0  0  0  0  0  0  0  0  0  0
    2.3009   -0.0236   -0.5692 C   0  0  0  0  0  0  0  0  0  0  0  0
    2.5330   -1.1118   -1.3732 C   0  0  0  0  0  0  0  0  0  0  0  0
    1.5096   -1.6882   -2.0913 C   0  0  0  0  0  0  0  0  0  0  0  0
    1.7450   -2.7975   -2.9117 O   0  0  0  0  0  0  0  0  0  0  0  0
    0.2539   -1.1827   -2.0097 C   0  0  0  0  0  0  0  0  0  0  0  0
   -0.0346   -0.0638   -1.1956 C   0  0  0  0  0  0  0  0  0  0  0  0
   -1.3245    0.3517   -1.1956 O   0  0  0  0  0  0  0  0  0  0  0  0
   -2.2924    0.4333   -0.2416 C   0  0  0  0  0  0  0  0  0  0  0  0
   -2.7244    1.5915    0.3566 C   0  0  0  0  0  0  0  0  0  0  0  0
   -3.7026    1.5955    1.3077 C   0  0  0  0  0  0  0  0  0  0  0  0
   -4.3302    0.4296    1.7383 C   0  0  0  0  0  0  0  0  0  0  0  0
   -3.9099   -0.7423    1.1495 C   0  0  0  0  0  0  0  0  0  0  0  0
   -2.9312   -0.7484    0.1975 C   0  0  0  0  0  0  0  0  0  0  0  0
    0.9928    0.4821   -0.5020 C   0  0  0  0  0  0  0  0  0  0  0  0
    0.7939    1.6365    0.3092 C   0  0  0  0  0  0  0  0  0  0  0  0
    0.6648    2.5907    0.9647 N   0  0  0  0  0  0  0  0  0  0  0  0
    3.3048   -0.8416    1.7852 H   0  0  0  0  0  0  0  0  0  0  0  0
    2.6929    0.8082    2.3200 H   0  0  0  0  0  0  0  0  0  0  0  0
    4.4142    0.5294    2.0494 H   0  0  0  0  0  0  0  0  0  0  0  0
    4.3430    0.2628   -0.2141 H   0  0  0  0  0  0  0  0  0  0  0  0
    3.3389    1.7207    0.1249 H   0  0  0  0  0  0  0  0  0  0  0  0
    3.5492   -1.4929   -1.4166 H   0  0  0  0  0  0  0  0  0  0  0  0
    0.9910   -3.2136   -3.4339 H   0  0  0  0  0  0  0  0  0  0  0  0
   -0.5406   -1.6447   -2.5782 H   0  0  0  0  0  0  0  0  0  0  0  0
   -2.2519    2.5376    0.0431 H   0  0  0  0  0  0  0  0  0  0  0  0
   -4.0231    2.5378    1.7633 H   0  0  0  0  0  0  0  0  0  0  0  0
   -5.0988    0.4947    2.4948 H   0  0  0  0  0  0  0  0  0  0  0  0
   -4.4058   -1.6534    1.4915 H   0  0  0  0  0  0  0  0  0  0  0  0
   -2.6070   -1.6816   -0.2616 H   0  0  0  0  0  0  0  0  0  0  0  0
  1  2  1  0
  2  3  1  0
  3  4  2  0
  4  5  1  0
  5  6  1  0
  5  7  2  0
  7  8  1  0
  8  9  1  0
  9 10  1  0
 10 11  2  0
 11 12  1  0
 12 13  2  0
 13 14  1  0
 14 15  2  0
  8 16  2  0
 16 17  1  0
 17 18  3  0
 16  3  1  0
 15 10  1  0
  1 19  1  0
  1 20  1  0
  1 21  1  0
  2 22  1  0
  2 23  1  0
  4 24  1  0
  6 25  1  0
  7 26  1  0
 11 27  1  0
 12 28  1  0
 13 29  1  0
 14 30  1  0
 15 31  1  0
M  END
$$$$
[H]c1c([H])c(C(F)(F)F)c([H])c(C([H])([H])N2C([H])([H])C([H])([H])N(c3nc(N([H])[C@@]4([H])C(=O)N([H])C([H])([H])C([H])([H])C([H])([H])C4([H])[H])c(C#N)c(=S)n3[H])C([H])([H])C2([H])[H])c1[H]
     RDKit          3D

 61 64  0  0  0  0  0  0  0  0999 V2000
    7.7217    1.3212    3.1514 F   0  0  0  0  0  0  0  0  0  0  0  0
    8.1960    0.6738    2.0110 C   0  0  0  0  0  0  0  0  0  0  0  0
    8.7168    1.6745    1.1792 F   0  0  0  0  0  0  0  0  0  0  0  0
    9.1973   -0.1979    2.3439 F   0  0  0  0  0  0  0  0  0  0  0  0
    7.0994   -0.0252    1.3067 C   0  0  0  0  0  0  0  0  0  0  0  0
    7.2260   -1.3851    1.0743 C   0  0  0  0  0  0  0  0  0  0  0  0
    6.2267   -2.0518    0.3914 C   0  0  0  0  0  0  0  0  0  0  0  0
    5.1211   -1.3526   -0.0485 C   0  0  0  0  0  0  0  0  0  0  0  0
    4.9462   -0.0036    0.1570 C   0  0  0  0  0  0  0  0  0  0  0  0
    3.8320    0.8018   -0.3153 C   0  0  0  0  0  0  0  0  0  0  0  0
    2.7490    1.0178    0.6435 N   0  0  0  0  0  0  0  0  0  0  0  0
    1.8849    1.9677    0.0691 C   0  0  0  0  0  0  0  0  0  0  0  0
    0.4374    1.8339    0.4199 C   0  0  0  0  0  0  0  0  0  0  0  0
    0.1365    0.4228    0.3958 N   0  0  0  0  0  0  0  0  0  0  0  0
    0.8107   -0.3161    1.4754 C   0  0  0  0  0  0  0  0  0  0  0  0
    2.3225   -0.2023    1.1771 C   0  0  0  0  0  0  0  0  0  0  0  0
   -0.6500   -0.1628   -0.6023 C   0  0  0  0  0  0  0  0  0  0  0  0
   -1.9730   -0.3095   -0.6188 N   0  0  0  0  0  0  0  0  0  0  0  0
   -2.6884   -0.8726   -1.6086 C   0  0  0  0  0  0  0  0  0  0  0  0
   -4.0795   -0.9838   -1.5835 N   0  0  0  0  0  0  0  0  0  0  0  0
   -4.9648   -0.5542   -0.5401 C   0  0  2  0  0  0  0  0  0  0  0  0
   -4.8150    0.9238   -0.2693 C   0  0  0  0  0  0  0  0  0  0  0  0
   -6.1748    1.4588    0.1366 C   0  0  0  0  0  0  0  0  0  0  0  0
   -6.5157    1.2595    1.5730 C   0  0  0  0  0  0  0  0  0  0  0  0
   -6.8858   -0.1952    1.8629 C   0  0  0  0  0  0  0  0  0  0  0  0
   -5.6172   -0.9391    1.8954 N   0  0  0  0  0  0  0  0  0  0  0  0
   -4.7516   -1.2337    0.7660 C   0  0  0  0  0  0  0  0  0  0  0  0
   -3.8525   -2.0530    0.9281 O   0  0  0  0  0  0  0  0  0  0  0  0
   -2.0173   -1.3608   -2.7369 C   0  0  0  0  0  0  0  0  0  0  0  0
   -2.7096   -1.9739   -3.8299 C   0  0  0  0  0  0  0  0  0  0  0  0
   -3.2554   -2.4888   -4.7040 N   0  0  0  0  0  0  0  0  0  0  0  0
   -0.6472   -1.2182   -2.7378 C   0  0  0  0  0  0  0  0  0  0  0  0
    0.1317   -1.7931   -4.0619 S   0  0  0  0  0  0  0  0  0  0  0  0
   -0.0011   -0.6481   -1.7223 N   0  0  0  0  0  0  0  0  0  0  0  0
    5.9879    0.6432    0.8600 C   0  0  0  0  0  0  0  0  0  0  0  0
    8.1063   -1.9238    1.4275 H   0  0  0  0  0  0  0  0  0  0  0  0
    6.3604   -3.1176    0.2299 H   0  0  0  0  0  0  0  0  0  0  0  0
    4.3896   -1.9442   -0.5861 H   0  0  0  0  0  0  0  0  0  0  0  0
    3.4026    0.3303   -1.2323 H   0  0  0  0  0  0  0  0  0  0  0  0
    4.2392    1.7983   -0.6138 H   0  0  0  0  0  0  0  0  0  0  0  0
    1.9490    1.9460   -1.0581 H   0  0  0  0  0  0  0  0  0  0  0  0
    2.2540    2.9890    0.3928 H   0  0  0  0  0  0  0  0  0  0  0  0
   -0.1987    2.3816   -0.3069 H   0  0  0  0  0  0  0  0  0  0  0  0
    0.2372    2.3145    1.4065 H   0  0  0  0  0  0  0  0  0  0  0  0
    0.5549   -1.3761    1.4957 H   0  0  0  0  0  0  0  0  0  0  0  0
    0.6199    0.2310    2.4146 H   0  0  0  0  0  0  0  0  0  0  0  0
    2.8094   -0.3936    2.1630 H   0  0  0  0  0  0  0  0  0  0  0  0
    2.6004   -1.1006    0.5423 H   0  0  0  0  0  0  0  0  0  0  0  0
   -4.5594   -1.4264   -2.4278 H   0  0  0  0  0  0  0  0  0  0  0  0
   -6.0406   -0.7396   -0.7909 H   0  0  0  0  0  0  0  0  0  0  0  0
   -4.3906    1.4778   -1.1345 H   0  0  0  0  0  0  0  0  0  0  0  0
   -4.1263    1.0775    0.5957 H   0  0  0  0  0  0  0  0  0  0  0  0
   -6.2713    2.5325   -0.1525 H   0  0  0  0  0  0  0  0  0  0  0  0
   -6.9006    0.9180   -0.5457 H   0  0  0  0  0  0  0  0  0  0  0  0
   -5.6060    1.5056    2.1947 H   0  0  0  0  0  0  0  0  0  0  0  0
   -7.3654    1.9167    1.8509 H   0  0  0  0  0  0  0  0  0  0  0  0
   -7.4304   -0.5925    0.9516 H   0  0  0  0  0  0  0  0  0  0  0  0
   -7.4191   -0.3393    2.7959 H   0  0  0  0  0  0  0  0  0  0  0  0
   -5.2954   -1.2987    2.8010 H   0  0  0  0  0  0  0  0  0  0  0  0
    1.0169   -0.5496   -1.7425 H   0  0  0  0  0  0  0  0  0  0  0  0
    5.9194    1.7058    1.0612 H   0  0  0  0  0  0  0  0  0  0  0  0
  1  2  1  0
  2  3  1  0
  2  4  1  0
  2  5  1  0
  5  6  2  0
  6  7  1  0
  7  8  2  0
  8  9  1  0
  9 10  1  0
 10 11  1  0
 11 12  1  0
 12 13  1  0
 13 14  1  0
 14 15  1  0
 15 16  1  0
 14 17  1  0
 17 18  2  0
 18 19  1  0
 19 20  1  0
 20 21  1  0
 21 22  1  0
 22 23  1  0
 23 24  1  0
 24 25  1  0
 25 26  1  0
 26 27  1  0
 27 28  2  0
 19 29  2  0
 29 30  1  0
 30 31  3  0
 29 32  1  0
 32 33  2  0
 32 34  1  0
  9 35  2  0
 35  5  1  0
 16 11  1  0
 34 17  1  0
 27 21  1  0
  6 36  1  0
  7 37  1  0
  8 38  1  0
 10 39  1  0
 10 40  1  0
 12 41  1  0
 12 42  1  0
 13 43  1  0
 13 44  1  0
 15 45  1  0
 15 46  1  0
 16 47  1  0
 16 48  1  0
 20 49  1  0
 21 50  1  6
 22 51  1  0
 22 52  1  0
 23 53  1  0
 23 54  1  0
 24 55  1  0
 24 56  1  0
 25 57  1  0
 25 58  1  0
 26 59  1  0
 34 60  1  0
 35 61  1  0
M  END
$$$$
[H]c1c([H])c([C@]([H])(N([H])C(=O)N([H])c2nc3c(OC([H])([H])[H])c([H])c([H])c([H])c3s2)C([H])([H])[H])c([H])c(F)c1OC([H])([H])[H]
     RDKit          3D

 44 46  0  0  0  0  0  0  0  0999 V2000
    7.3163   -1.1240   -1.5059 C   0  0  0  0  0  0  0  0  0  0  0  0
    6.0098   -0.9126   -1.0154 O   0  0  0  0  0  0  0  0  0  0  0  0
    5.7713    0.2045   -0.2291 C   0  0  0  0  0  0  0  0  0  0  0  0
    6.7777    1.0727    0.0592 C   0  0  0  0  0  0  0  0  0  0  0  0
    6.6564    2.2117    0.8279 C   0  0  0  0  0  0  0  0  0  0  0  0
    5.3844    2.4601    1.3329 C   0  0  0  0  0  0  0  0  0  0  0  0
    4.3342    1.5782    1.0476 C   0  0  0  0  0  0  0  0  0  0  0  0
    2.6620    1.4984    1.4489 S   0  0  0  0  0  0  0  0  0  0  0  0
    2.2740    0.0586    0.6238 C   0  0  0  0  0  0  0  0  0  0  0  0
    1.0350   -0.6563    0.4974 N   0  0  0  0  0  0  0  0  0  0  0  0
   -0.1219   -0.1236    1.1553 C   0  0  0  0  0  0  0  0  0  0  0  0
   -0.0466    0.9511    1.8299 O   0  0  0  0  0  0  0  0  0  0  0  0
   -1.3393   -0.8126    1.0394 N   0  0  0  0  0  0  0  0  0  0  0  0
   -2.5111   -0.2874    1.6966 C   0  0  2  0  0  0  0  0  0  0  0  0
   -3.0486   -1.3387    2.6689 C   0  0  0  0  0  0  0  0  0  0  0  0
   -3.5768   -0.0870    0.6784 C   0  0  0  0  0  0  0  0  0  0  0  0
   -3.8624   -1.0348   -0.2678 C   0  0  0  0  0  0  0  0  0  0  0  0
   -4.8597   -0.8581   -1.2288 C   0  0  0  0  0  0  0  0  0  0  0  0
   -5.5887    0.3060   -1.2354 C   0  0  0  0  0  0  0  0  0  0  0  0
   -6.5793    0.5038   -2.1749 O   0  0  0  0  0  0  0  0  0  0  0  0
   -6.8471   -0.4867   -3.1308 C   0  0  0  0  0  0  0  0  0  0  0  0
   -5.3173    1.2663   -0.2961 C   0  0  0  0  0  0  0  0  0  0  0  0
   -6.0104    2.4305   -0.2638 F   0  0  0  0  0  0  0  0  0  0  0  0
   -4.3191    1.0916    0.6672 C   0  0  0  0  0  0  0  0  0  0  0  0
    3.4216   -0.2867    0.0899 N   0  0  0  0  0  0  0  0  0  0  0  0
    4.4797    0.4546    0.2824 C   0  0  0  0  0  0  0  0  0  0  0  0
    7.3007   -1.9238   -2.3003 H   0  0  0  0  0  0  0  0  0  0  0  0
    8.0120   -1.5099   -0.7300 H   0  0  0  0  0  0  0  0  0  0  0  0
    7.7328   -0.2137   -2.0141 H   0  0  0  0  0  0  0  0  0  0  0  0
    7.8058    0.9174   -0.3194 H   0  0  0  0  0  0  0  0  0  0  0  0
    7.4583    2.8964    1.0529 H   0  0  0  0  0  0  0  0  0  0  0  0
    5.1571    3.3006    1.9374 H   0  0  0  0  0  0  0  0  0  0  0  0
    0.9519   -1.5261   -0.0424 H   0  0  0  0  0  0  0  0  0  0  0  0
   -1.4377   -1.6957    0.4955 H   0  0  0  0  0  0  0  0  0  0  0  0
   -2.2964    0.6523    2.2517 H   0  0  0  0  0  0  0  0  0  0  0  0
   -2.8653   -2.3436    2.2250 H   0  0  0  0  0  0  0  0  0  0  0  0
   -4.1402   -1.2366    2.7654 H   0  0  0  0  0  0  0  0  0  0  0  0
   -2.5623   -1.2779    3.6546 H   0  0  0  0  0  0  0  0  0  0  0  0
   -3.3026   -1.9504   -0.2765 H   0  0  0  0  0  0  0  0  0  0  0  0
   -5.0122   -1.6625   -1.9344 H   0  0  0  0  0  0  0  0  0  0  0  0
   -7.0737   -1.4492   -2.5873 H   0  0  0  0  0  0  0  0  0  0  0  0
   -7.7296   -0.1959   -3.7410 H   0  0  0  0  0  0  0  0  0  0  0  0
   -6.0014   -0.6893   -3.8065 H   0  0  0  0  0  0  0  0  0  0  0  0
   -4.0912    1.8278    1.4087 H   0  0  0  0  0  0  0  0  0  0  0  0
  1  2  1  0
  2  3  1  0
  3  4  2  0
  4  5  1  0
  5  6  2  0
  6  7  1  0
  7  8  1  0
  8  9  1  0
  9 10  1  0
 10 11  1  0
 11 12  2  0
 11 13  1  0
 13 14  1  0
 14 15  1  0
 14 16  1  0
 16 17  2  0
 17 18  1  0
 18 19  2  0
 19 20  1  0
 20 21  1  0
 19 22  1  0
 22 23  1  0
 22 24  2  0
  9 25  2  0
 25 26  1  0
 26  3  1  0
 26  7  2  0
 24 16  1  0
  1 27  1  0
  1 28  1  0
  1 29  1  0
  4 30  1  0
  5 31  1  0
  6 32  1  0
 10 33  1  0
 13 34  1  0
 14 35  1  1
 15 36  1  0
 15 37  1  0
 15 38  1  0
 17 39  1  0
 18 40  1  0
 21 41  1  0
 21 42  1  0
 21 43  1  0
 24 44  1  0
M  END
$$$$
[H]c1c([H])c([H])c(-c2c([H])c(OC([H])([H])C([H])([H])C([H])([H])N(C([H])([H])[H])C([H])([H])C([H])([H])N([H])C(=O)C([H])([H])[H])c([H])c([H])c2OC([H])([H])C([H])([H])[H])c([H])c1[H]
     RDKit          3D

 57 58  0  0  0  0  0  0  0  0999 V2000
   -6.9776    2.6025   -1.7161 C   0  0  0  0  0  0  0  0  0  0  0  0
   -5.5356    2.4519   -1.3341 C   0  0  0  0  0  0  0  0  0  0  0  0
   -5.2510    1.1827   -0.7547 O   0  0  0  0  0  0  0  0  0  0  0  0
   -3.9537    0.9356   -0.3642 C   0  0  0  0  0  0  0  0  0  0  0  0
   -2.9480    1.8601   -0.5153 C   0  0  0  0  0  0  0  0  0  0  0  0
   -1.6440    1.5523   -0.0989 C   0  0  0  0  0  0  0  0  0  0  0  0
   -1.3508    0.3319    0.4617 C   0  0  0  0  0  0  0  0  0  0  0  0
   -0.0974    0.0006    0.8722 O   0  0  0  0  0  0  0  0  0  0  0  0
    1.1151    0.6068    0.8641 C   0  0  0  0  0  0  0  0  0  0  0  0
    1.7176    0.8986   -0.4940 C   0  0  0  0  0  0  0  0  0  0  0  0
    3.0456    1.5713   -0.3981 C   0  0  0  0  0  0  0  0  0  0  0  0
    4.0830    0.8380    0.2740 N   0  0  0  0  0  0  0  0  0  0  0  0
    5.2590    1.6164    0.3939 C   0  0  0  0  0  0  0  0  0  0  0  0
    4.1797   -0.5077   -0.1159 C   0  0  0  0  0  0  0  0  0  0  0  0
    5.2102   -1.3805    0.4762 C   0  0  0  0  0  0  0  0  0  0  0  0
    6.5812   -1.0570    0.2306 N   0  0  0  0  0  0  0  0  0  0  0  0
    7.6035   -1.8440    0.8049 C   0  0  0  0  0  0  0  0  0  0  0  0
    9.0341   -1.5337    0.5693 C   0  0  0  0  0  0  0  0  0  0  0  0
    7.3253   -2.8268    1.5301 O   0  0  0  0  0  0  0  0  0  0  0  0
   -2.3888   -0.6135    0.6146 C   0  0  0  0  0  0  0  0  0  0  0  0
   -3.6495   -0.2825    0.1991 C   0  0  0  0  0  0  0  0  0  0  0  0
   -4.7248   -1.2485    0.3584 C   0  0  0  0  0  0  0  0  0  0  0  0
   -4.4717   -2.5528   -0.0403 C   0  0  0  0  0  0  0  0  0  0  0  0
   -5.4149   -3.5593    0.0665 C   0  0  0  0  0  0  0  0  0  0  0  0
   -6.6629   -3.2729    0.5881 C   0  0  0  0  0  0  0  0  0  0  0  0
   -6.9224   -1.9785    0.9868 C   0  0  0  0  0  0  0  0  0  0  0  0
   -5.9636   -0.9641    0.8763 C   0  0  0  0  0  0  0  0  0  0  0  0
   -7.4535    3.4116   -1.1273 H   0  0  0  0  0  0  0  0  0  0  0  0
   -7.5606    1.6692   -1.5006 H   0  0  0  0  0  0  0  0  0  0  0  0
   -7.0903    2.8886   -2.7965 H   0  0  0  0  0  0  0  0  0  0  0  0
   -4.8476    2.5809   -2.1957 H   0  0  0  0  0  0  0  0  0  0  0  0
   -5.2875    3.2051   -0.5589 H   0  0  0  0  0  0  0  0  0  0  0  0
   -3.1658    2.8170   -0.9531 H   0  0  0  0  0  0  0  0  0  0  0  0
   -0.9035    2.3198   -0.2217 H   0  0  0  0  0  0  0  0  0  0  0  0
    1.8433    0.0147    1.4920 H   0  0  0  0  0  0  0  0  0  0  0  0
    1.0556    1.5801    1.4618 H   0  0  0  0  0  0  0  0  0  0  0  0
    1.7618   -0.0745   -1.0386 H   0  0  0  0  0  0  0  0  0  0  0  0
    1.0022    1.5054   -1.0666 H   0  0  0  0  0  0  0  0  0  0  0  0
    2.9347    2.6063   -0.0174 H   0  0  0  0  0  0  0  0  0  0  0  0
    3.4057    1.7057   -1.4613 H   0  0  0  0  0  0  0  0  0  0  0  0
    5.7669    1.8226   -0.5816 H   0  0  0  0  0  0  0  0  0  0  0  0
    4.9302    2.6546    0.7287 H   0  0  0  0  0  0  0  0  0  0  0  0
    5.9851    1.3162    1.1477 H   0  0  0  0  0  0  0  0  0  0  0  0
    3.2156   -1.0688   -0.0770 H   0  0  0  0  0  0  0  0  0  0  0  0
    4.4034   -0.4957   -1.2374 H   0  0  0  0  0  0  0  0  0  0  0  0
    5.0699   -2.4004   -0.0153 H   0  0  0  0  0  0  0  0  0  0  0  0
    5.0202   -1.6298    1.5543 H   0  0  0  0  0  0  0  0  0  0  0  0
    6.8479   -0.2710   -0.3741 H   0  0  0  0  0  0  0  0  0  0  0  0
    9.4417   -0.8643    1.3791 H   0  0  0  0  0  0  0  0  0  0  0  0
    9.1556   -1.0327   -0.4106 H   0  0  0  0  0  0  0  0  0  0  0  0
    9.6563   -2.4616    0.6119 H   0  0  0  0  0  0  0  0  0  0  0  0
   -2.1413   -1.5691    1.0592 H   0  0  0  0  0  0  0  0  0  0  0  0
   -3.5138   -2.8118   -0.4508 H   0  0  0  0  0  0  0  0  0  0  0  0
   -5.2197   -4.5722   -0.2424 H   0  0  0  0  0  0  0  0  0  0  0  0
   -7.4474   -4.0097    0.7007 H   0  0  0  0  0  0  0  0  0  0  0  0
   -7.8801   -1.6939    1.4025 H   0  0  0  0  0  0  0  0  0  0  0  0
   -6.1826    0.0309    1.1924 H   0  0  0  0  0  0  0  0  0  0  0  0
  1  2  1  0
  2  3  1  0
  3  4  1  0
  4  5  2  0
  5  6  1  0
  6  7  2  0
  7  8  1  0
  8  9  1  0
  9 10  1  0
 10 11  1  0
 11 12  1  0
 12 13  1  0
 12 14  1  0
 14 15  1  0
 15 16  1  0
 16 17  1  0
 17 18  1  0
 17 19  2  0
  7 20  1  0
 20 21  2  0
 21 22  1  0
 22 23  2  0
 23 24  1  0
 24 25  2  0
 25 26  1  0
 26 27  2  0
 21  4  1  0
 27 22  1  0
  1 28  1  0
  1 29  1  0
  1 30  1  0
  2 31  1  0
  2 32  1  0
  5 33  1  0
  6 34  1  0
  9 35  1  0
  9 36  1  0
 10 37  1  0
 10 38  1  0
 11 39  1  0
 11 40  1  0
 13 41  1  0
 13 42  1  0
 13 43  1  0
 14 44  1  0
 14 45  1  0
 15 46  1  0
 15 47  1  0
 16 48  1  0
 18 49  1  0
 18 50  1  0
 18 51  1  0
 20 52  1  0
 23 53  1  0
 24 54  1  0
 25 55  1  0
 26 56  1  0
 27 57  1  0
M  END
$$$$
[H]c1c([H])c(C([H])(C(=O)N([H])C([H])([H])c2c([H])c([H])c(C(F)(F)F)c([H])c2N2C([H])([H])C([H])([H])C([H])(C([H])([H])[H])C([H])([H])C2([H])[H])C([H])([H])[H])c([H])c(F)c1N([H])S(=O)(=O)C([H])([H])[H]
     RDKit          3D

 64 66  0  0  0  0  0  0  0  0999 V2000
    2.6106   -2.0761   -0.0390 C   0  0  0  0  0  0  0  0  0  0  0  0
    2.6043   -0.9181   -1.1221 C   0  0  0  0  0  0  0  0  0  0  0  0
    1.3174   -0.2508   -1.0725 C   0  0  0  0  0  0  0  0  0  0  0  0
    1.0677    0.9518   -0.8627 O   0  0  0  0  0  0  0  0  0  0  0  0
    0.1732   -1.0736   -1.2823 N   0  0  0  0  0  0  0  0  0  0  0  0
   -1.1960   -0.6718   -1.2290 C   0  0  0  0  0  0  0  0  0  0  0  0
   -1.6952   -0.3400    0.1384 C   0  0  0  0  0  0  0  0  0  0  0  0
   -0.8999   -0.4105    1.2763 C   0  0  0  0  0  0  0  0  0  0  0  0
   -1.3781   -0.1132    2.5289 C   0  0  0  0  0  0  0  0  0  0  0  0
   -2.6863    0.2696    2.6833 C   0  0  0  0  0  0  0  0  0  0  0  0
   -3.4568    0.3389    1.5730 C   0  0  0  0  0  0  0  0  0  0  0  0
   -3.0182    0.0458    0.2698 C   0  0  0  0  0  0  0  0  0  0  0  0
   -3.9368    0.1072   -0.7990 N   0  0  0  0  0  0  0  0  0  0  0  0
   -4.4687   -1.1081   -1.3950 C   0  0  0  0  0  0  0  0  0  0  0  0
   -5.9762   -1.1654   -1.2429 C   0  0  0  0  0  0  0  0  0  0  0  0
   -6.5359    0.1341   -0.7295 C   0  0  0  0  0  0  0  0  0  0  0  0
   -8.0182    0.1060   -0.9994 C   0  0  0  0  0  0  0  0  0  0  0  0
   -5.9464    1.3427   -1.3889 C   0  0  0  0  0  0  0  0  0  0  0  0
   -4.4322    1.3419   -1.4036 C   0  0  0  0  0  0  0  0  0  0  0  0
   -3.2041    0.5567    4.0743 C   0  0  0  0  0  0  0  0  0  0  0  0
   -2.8158   -0.4040    4.9632 F   0  0  0  0  0  0  0  0  0  0  0  0
   -2.9569    1.8362    4.4774 F   0  0  0  0  0  0  0  0  0  0  0  0
   -4.6102    0.4331    3.9661 F   0  0  0  0  0  0  0  0  0  0  0  0
    3.8101   -0.1563   -0.8779 C   0  0  0  0  0  0  0  0  0  0  0  0
    5.0080   -0.6185   -1.4391 C   0  0  0  0  0  0  0  0  0  0  0  0
    6.2224   -0.0369   -1.1497 C   0  0  0  0  0  0  0  0  0  0  0  0
    6.2813    1.0170   -0.3008 C   0  0  0  0  0  0  0  0  0  0  0  0
    7.5519    1.5490    0.1012 N   0  0  0  0  0  0  0  0  0  0  0  0
    8.2879    0.6308    1.3894 S   0  0  0  0  0  0  0  0  0  0  0  0
    9.7884   -0.1591    0.9543 C   0  0  0  0  0  0  0  0  0  0  0  0
    7.2849   -0.4554    1.7912 O   0  0  0  0  0  0  0  0  0  0  0  0
    8.4295    1.5174    2.6297 O   0  0  0  0  0  0  0  0  0  0  0  0
    5.1131    1.4907    0.2532 C   0  0  0  0  0  0  0  0  0  0  0  0
    5.2238    2.5576    1.1052 F   0  0  0  0  0  0  0  0  0  0  0  0
    3.8694    0.9103   -0.0298 C   0  0  0  0  0  0  0  0  0  0  0  0
    3.2895   -2.8591   -0.4166 H   0  0  0  0  0  0  0  0  0  0  0  0
    1.5853   -2.4383    0.0055 H   0  0  0  0  0  0  0  0  0  0  0  0
    2.9081   -1.6340    0.9345 H   0  0  0  0  0  0  0  0  0  0  0  0
    2.6744   -1.5218   -2.0601 H   0  0  0  0  0  0  0  0  0  0  0  0
    0.3271   -2.1173   -1.5054 H   0  0  0  0  0  0  0  0  0  0  0  0
   -1.2309    0.3067   -1.8065 H   0  0  0  0  0  0  0  0  0  0  0  0
   -1.8780   -1.3792   -1.7385 H   0  0  0  0  0  0  0  0  0  0  0  0
    0.1337   -0.7122    1.1993 H   0  0  0  0  0  0  0  0  0  0  0  0
   -0.7225   -0.1615    3.3860 H   0  0  0  0  0  0  0  0  0  0  0  0
   -4.5194    0.6262    1.6528 H   0  0  0  0  0  0  0  0  0  0  0  0
   -4.0170   -2.0250   -0.9928 H   0  0  0  0  0  0  0  0  0  0  0  0
   -4.2469   -1.0776   -2.4790 H   0  0  0  0  0  0  0  0  0  0  0  0
   -6.4917   -1.4119   -2.1900 H   0  0  0  0  0  0  0  0  0  0  0  0
   -6.2100   -1.9531   -0.4806 H   0  0  0  0  0  0  0  0  0  0  0  0
   -6.4305    0.1341    0.3700 H   0  0  0  0  0  0  0  0  0  0  0  0
   -8.4353   -0.9443   -1.0113 H   0  0  0  0  0  0  0  0  0  0  0  0
   -8.2958    0.6300   -1.9362 H   0  0  0  0  0  0  0  0  0  0  0  0
   -8.6092    0.6058   -0.1850 H   0  0  0  0  0  0  0  0  0  0  0  0
   -6.3734    2.2325   -0.8890 H   0  0  0  0  0  0  0  0  0  0  0  0
   -6.3155    1.3613   -2.4442 H   0  0  0  0  0  0  0  0  0  0  0  0
   -3.9810    2.2156   -0.9123 H   0  0  0  0  0  0  0  0  0  0  0  0
   -4.0686    1.3128   -2.4429 H   0  0  0  0  0  0  0  0  0  0  0  0
    4.9538   -1.4376   -2.1087 H   0  0  0  0  0  0  0  0  0  0  0  0
    7.1440   -0.4162   -1.6043 H   0  0  0  0  0  0  0  0  0  0  0  0
    7.9793    2.3770   -0.3179 H   0  0  0  0  0  0  0  0  0  0  0  0
    9.6398   -0.9816    0.2263 H   0  0  0  0  0  0  0  0  0  0  0  0
   10.5729    0.5581    0.6023 H   0  0  0  0  0  0  0  0  0  0  0  0
   10.1891   -0.6480    1.8909 H   0  0  0  0  0  0  0  0  0  0  0  0
    3.0168    1.3437    0.4417 H   0  0  0  0  0  0  0  0  0  0  0  0
  1  2  1  0
  2  3  1  0
  3  4  2  0
  3  5  1  0
  5  6  1  0
  6  7  1  0
  7  8  2  0
  8  9  1  0
  9 10  2  0
 10 11  1  0
 11 12  2  0
 12 13  1  0
 13 14  1  0
 14 15  1  0
 15 16  1  0
 16 17  1  0
 16 18  1  0
 18 19  1  0
 10 20  1  0
 20 21  1  0
 20 22  1  0
 20 23  1  0
  2 24  1  0
 24 25  2  0
 25 26  1  0
 26 27  2  0
 27 28  1  0
 28 29  1  0
 29 30  1  0
 29 31  2  0
 29 32  2  0
 27 33  1  0
 33 34  1  0
 33 35  2  0
 12  7  1  0
 19 13  1  0
 35 24  1  0
  1 36  1  0
  1 37  1  0
  1 38  1  0
  2 39  1  0
  5 40  1  0
  6 41  1  0
  6 42  1  0
  8 43  1  0
  9 44  1  0
 11 45  1  0
 14 46  1  0
 14 47  1  0
 15 48  1  0
 15 49  1  0
 16 50  1  0
 17 51  1  0
 17 52  1  0
 17 53  1  0
 18 54  1  0
 18 55  1  0
 19 56  1  0
 19 57  1  0
 25 58  1  0
 26 59  1  0
 28 60  1  0
 30 61  1  0
 30 62  1  0
 30 63  1  0
 35 64  1  0
M  END
$$$$
[H]c1c([H])c(C([H])(c2c([H])c([H])c(OC([H])([H])[H])c([H])c2[H])N2C(=O)c3c(Br)c4c([H])c([H])c([H])c([H])c4n3C([H])([H])C2([H])[H])c([H])c([H])c1F
     RDKit          3D

 51 55  0  0  0  0  0  0  0  0999 V2000
   -5.4362   -3.2831    1.9231 C   0  0  0  0  0  0  0  0  0  0  0  0
   -4.4039   -2.5243    2.5115 O   0  0  0  0  0  0  0  0  0  0  0  0
   -3.5777   -1.7415    1.7328 C   0  0  0  0  0  0  0  0  0  0  0  0
   -2.5649   -0.9908    2.2658 C   0  0  0  0  0  0  0  0  0  0  0  0
   -1.7345   -0.2028    1.4739 C   0  0  0  0  0  0  0  0  0  0  0  0
   -1.8896   -0.1400    0.1244 C   0  0  0  0  0  0  0  0  0  0  0  0
   -2.9314   -0.9159   -0.3967 C   0  0  0  0  0  0  0  0  0  0  0  0
   -3.7586   -1.6968    0.3637 C   0  0  0  0  0  0  0  0  0  0  0  0
   -1.0960    0.6486   -0.8318 C   0  0  0  0  0  0  0  0  0  0  0  0
    0.3150    0.6309   -0.7132 N   0  0  0  0  0  0  0  0  0  0  0  0
    1.1059    1.2270    0.3302 C   0  0  0  0  0  0  0  0  0  0  0  0
    1.9920    0.1730    0.9456 C   0  0  0  0  0  0  0  0  0  0  0  0
    2.8168   -0.4116   -0.0773 N   0  0  0  0  0  0  0  0  0  0  0  0
    2.4050   -0.5001   -1.3511 C   0  0  0  0  0  0  0  0  0  0  0  0
    1.1060    0.0205   -1.7661 C   0  0  0  0  0  0  0  0  0  0  0  0
    0.6823   -0.0480   -2.9575 O   0  0  0  0  0  0  0  0  0  0  0  0
    3.4128   -1.1215   -2.0827 C   0  0  0  0  0  0  0  0  0  0  0  0
    3.3150   -1.4814   -3.9378 Br  0  0  0  0  0  0  0  0  0  0  0  0
    4.4486   -1.4082   -1.2217 C   0  0  0  0  0  0  0  0  0  0  0  0
    5.6722   -2.0082   -1.4035 C   0  0  0  0  0  0  0  0  0  0  0  0
    6.5584   -2.1853   -0.3547 C   0  0  0  0  0  0  0  0  0  0  0  0
    6.1685   -1.7355    0.8896 C   0  0  0  0  0  0  0  0  0  0  0  0
    4.9401   -1.1344    1.0662 C   0  0  0  0  0  0  0  0  0  0  0  0
    4.0421   -0.9542    0.0070 C   0  0  0  0  0  0  0  0  0  0  0  0
   -1.6042    2.0412   -0.8367 C   0  0  0  0  0  0  0  0  0  0  0  0
   -2.7131    2.4180   -0.1424 C   0  0  0  0  0  0  0  0  0  0  0  0
   -3.1543    3.7165   -0.1648 C   0  0  0  0  0  0  0  0  0  0  0  0
   -2.4657    4.6647   -0.9035 C   0  0  0  0  0  0  0  0  0  0  0  0
   -2.9088    5.9438   -0.9195 F   0  0  0  0  0  0  0  0  0  0  0  0
   -1.3386    4.3216   -1.6198 C   0  0  0  0  0  0  0  0  0  0  0  0
   -0.9266    3.0048   -1.5718 C   0  0  0  0  0  0  0  0  0  0  0  0
   -6.2084   -2.6453    1.4476 H   0  0  0  0  0  0  0  0  0  0  0  0
   -5.0432   -3.9956    1.1679 H   0  0  0  0  0  0  0  0  0  0  0  0
   -5.9648   -3.8750    2.7002 H   0  0  0  0  0  0  0  0  0  0  0  0
   -2.3689   -0.9819    3.3405 H   0  0  0  0  0  0  0  0  0  0  0  0
   -0.9488    0.3790    1.9352 H   0  0  0  0  0  0  0  0  0  0  0  0
   -3.1311   -0.9263   -1.4654 H   0  0  0  0  0  0  0  0  0  0  0  0
   -4.5572   -2.2836   -0.0916 H   0  0  0  0  0  0  0  0  0  0  0  0
   -1.3504    0.1956   -1.8542 H   0  0  0  0  0  0  0  0  0  0  0  0
    1.8045    2.0142   -0.1459 H   0  0  0  0  0  0  0  0  0  0  0  0
    0.5473    1.8398    1.0558 H   0  0  0  0  0  0  0  0  0  0  0  0
    2.5985    0.6817    1.7336 H   0  0  0  0  0  0  0  0  0  0  0  0
    1.3391   -0.5667    1.4439 H   0  0  0  0  0  0  0  0  0  0  0  0
    5.9327   -2.3427   -2.3904 H   0  0  0  0  0  0  0  0  0  0  0  0
    7.5234   -2.6589   -0.4998 H   0  0  0  0  0  0  0  0  0  0  0  0
    6.8619   -1.8716    1.7212 H   0  0  0  0  0  0  0  0  0  0  0  0
    4.6216   -0.7772    2.0355 H   0  0  0  0  0  0  0  0  0  0  0  0
   -3.2541    1.6903    0.4291 H   0  0  0  0  0  0  0  0  0  0  0  0
   -4.0538    4.0227    0.3985 H   0  0  0  0  0  0  0  0  0  0  0  0
   -0.7916    5.0743   -2.2066 H   0  0  0  0  0  0  0  0  0  0  0  0
   -0.0334    2.7000   -2.1308 H   0  0  0  0  0  0  0  0  0  0  0  0
  1  2  1  0
  2  3  1  0
  3  4  2  0
  4  5  1  0
  5  6  2  0
  6  7  1  0
  7  8  2  0
  6  9  1  0
  9 10  1  0
 10 11  1  0
 11 12  1  0
 12 13  1  0
 13 14  1  0
 14 15  1  0
 15 16  2  0
 14 17  2  0
 17 18  1  0
 17 19  1  0
 19 20  2  0
 20 21  1  0
 21 22  2  0
 22 23  1  0
 23 24  2  0
  9 25  1  0
 25 26  2  0
 26 27  1  0
 27 28  2  0
 28 29  1  0
 28 30  1  0
 30 31  2  0
  8  3  1  0
 15 10  1  0
 24 19  1  0
 31 25  1  0
 24 13  1  0
  1 32  1  0
  1 33  1  0
  1 34  1  0
  4 35  1  0
  5 36  1  0
  7 37  1  0
  8 38  1  0
  9 39  1  0
 11 40  1  0
 11 41  1  0
 12 42  1  0
 12 43  1  0
 20 44  1  0
 21 45  1  0
 22 46  1  0
 23 47  1  0
 26 48  1  0
 27 49  1  0
 30 50  1  0
 31 51  1  0
M  END
$$$$
[H]c1c([H])c(S(=O)(=O)N([H])C2([H])C([H])([H])C2([H])[H])c([H])c(-c2c([H])c([H])c([H])c3nc(C([H])([H])[H])c([H])c([H])c23)c1N([H])[H]
     RDKit          3D

 44 47  0  0  0  0  0  0  0  0999 V2000
    3.3378    4.1722    2.5490 C   0  0  0  0  0  0  0  0  0  0  0  0
    3.0295    2.9164    1.8338 C   0  0  0  0  0  0  0  0  0  0  0  0
    1.7585    2.3672    1.8807 C   0  0  0  0  0  0  0  0  0  0  0  0
    1.4479    1.1984    1.2216 C   0  0  0  0  0  0  0  0  0  0  0  0
    2.3982    0.5112    0.4755 C   0  0  0  0  0  0  0  0  0  0  0  0
    2.1372   -0.6585   -0.1868 C   0  0  0  0  0  0  0  0  0  0  0  0
    3.1536   -1.2720   -0.8920 C   0  0  0  0  0  0  0  0  0  0  0  0
    4.4237   -0.7343   -0.9454 C   0  0  0  0  0  0  0  0  0  0  0  0
    4.6649    0.4376   -0.2766 C   0  0  0  0  0  0  0  0  0  0  0  0
    3.6726    1.0965    0.4506 C   0  0  0  0  0  0  0  0  0  0  0  0
    3.9359    2.2311    1.1026 N   0  0  0  0  0  0  0  0  0  0  0  0
    0.7969   -1.2188   -0.1628 C   0  0  0  0  0  0  0  0  0  0  0  0
   -0.1048   -1.0079   -1.1791 C   0  0  0  0  0  0  0  0  0  0  0  0
   -1.3826   -1.5598   -1.1602 C   0  0  0  0  0  0  0  0  0  0  0  0
   -1.7024   -2.3294   -0.0705 C   0  0  0  0  0  0  0  0  0  0  0  0
   -0.7917   -2.5539    0.9778 C   0  0  0  0  0  0  0  0  0  0  0  0
    0.4694   -1.9956    0.9343 C   0  0  0  0  0  0  0  0  0  0  0  0
    1.4056   -2.1952    1.9865 N   0  0  0  0  0  0  0  0  0  0  0  0
   -2.4938   -1.2553   -2.4800 S   0  0  0  0  0  0  0  0  0  0  0  0
   -3.1349   -2.5650   -2.8171 O   0  0  0  0  0  0  0  0  0  0  0  0
   -1.6212   -0.9135   -3.6804 O   0  0  0  0  0  0  0  0  0  0  0  0
   -3.5360    0.0298   -2.2568 N   0  0  0  0  0  0  0  0  0  0  0  0
   -4.4637    0.0060   -1.1849 C   0  0  0  0  0  0  0  0  0  0  0  0
   -5.0975    1.1216   -0.5144 C   0  0  0  0  0  0  0  0  0  0  0  0
   -5.9366    0.2415   -1.4609 C   0  0  0  0  0  0  0  0  0  0  0  0
    2.9135    5.0749    2.0659 H   0  0  0  0  0  0  0  0  0  0  0  0
    4.4584    4.2921    2.6060 H   0  0  0  0  0  0  0  0  0  0  0  0
    2.9791    4.1310    3.5786 H   0  0  0  0  0  0  0  0  0  0  0  0
    1.0027    2.8763    2.4527 H   0  0  0  0  0  0  0  0  0  0  0  0
    0.4347    0.7874    1.2786 H   0  0  0  0  0  0  0  0  0  0  0  0
    2.9553   -2.1865   -1.4100 H   0  0  0  0  0  0  0  0  0  0  0  0
    5.2273   -1.1956   -1.4855 H   0  0  0  0  0  0  0  0  0  0  0  0
    5.6430    0.8844   -0.2975 H   0  0  0  0  0  0  0  0  0  0  0  0
    0.1725   -0.3907   -2.0430 H   0  0  0  0  0  0  0  0  0  0  0  0
   -2.6956   -2.7665   -0.0347 H   0  0  0  0  0  0  0  0  0  0  0  0
   -1.0722   -3.1669    1.8302 H   0  0  0  0  0  0  0  0  0  0  0  0
    2.4380   -2.2670    1.8661 H   0  0  0  0  0  0  0  0  0  0  0  0
    1.0387   -2.2758    2.9611 H   0  0  0  0  0  0  0  0  0  0  0  0
   -4.0468    0.2306   -3.1409 H   0  0  0  0  0  0  0  0  0  0  0  0
   -4.3400   -0.9273   -0.5780 H   0  0  0  0  0  0  0  0  0  0  0  0
   -5.4739    1.0509    0.5437 H   0  0  0  0  0  0  0  0  0  0  0  0
   -5.0722    2.1723   -0.8616 H   0  0  0  0  0  0  0  0  0  0  0  0
   -6.2217    0.6634   -2.4462 H   0  0  0  0  0  0  0  0  0  0  0  0
   -6.7076   -0.4201   -1.0300 H   0  0  0  0  0  0  0  0  0  0  0  0
  1  2  1  0
  2  3  2  0
  3  4  1  0
  4  5  2  0
  5  6  1  0
  6  7  2  0
  7  8  1  0
  8  9  2  0
  9 10  1  0
 10 11  2  0
  6 12  1  0
 12 13  2  0
 13 14  1  0
 14 15  2  0
 15 16  1  0
 16 17  2  0
 17 18  1  0
 14 19  1  0
 19 20  2  0
 19 21  2  0
 19 22  1  0
 22 23  1  0
 23 24  1  0
 24 25  1  0
 11  2  1  0
 17 12  1  0
 25 23  1  0
 10  5  1  0
  1 26  1  0
  1 27  1  0
  1 28  1  0
  3 29  1  0
  4 30  1  0
  7 31  1  0
  8 32  1  0
  9 33  1  0
 13 34  1  0
 15 35  1  0
 16 36  1  0
 18 37  1  0
 18 38  1  0
 22 39  1  0
 23 40  1  0
 24 41  1  0
 24 42  1  0
 25 43  1  0
 25 44  1  0
M  END
$$$$
[H]Oc1c([H])c([H])c([H])c(C([H])([H])[C@@]2([H])C(=O)N([H])[C@]([H])([C@@]([H])(C([H])([H])[H])C([H])([H])C([H])([H])[H])C(=O)N([H])[C@@]([H])(C([H])(N([H])C(=O)[C@]([H])(C([H])([H])C([H])(C([H])([H])[H])C([H])([H])[H])[C@@]([H])(C([H])([H])[H])C([H])([H])N([H])[H])C([H])(C([H])([H])[H])C([H])([H])[H])C(=O)N([H])[C@@]([H])([C@]([H])(O[H])C([H])([H])[H])C(=O)N2[H])c1[H]
     RDKit          3D

103104  0  0  0  0  0  0  0  0999 V2000
    2.6665   -4.4561    0.9490 C   0  0  0  0  0  0  0  0  0  0  0  0
    2.1447   -3.8694   -0.3282 C   0  0  0  0  0  0  0  0  0  0  0  0
    1.3940   -2.5826   -0.0460 C   0  0  2  0  0  0  0  0  0  0  0  0
    0.9141   -2.1282   -1.3866 C   0  0  0  0  0  0  0  0  0  0  0  0
    2.1572   -1.6042    0.7587 C   0  0  1  0  0  0  0  0  0  0  0  0
    3.3815   -1.0346    0.2899 N   0  0  0  0  0  0  0  0  0  0  0  0
    3.9706   -0.5190   -0.8176 C   0  0  0  0  0  0  0  0  0  0  0  0
    4.5550   -1.4422   -1.5837 O   0  0  0  0  0  0  0  0  0  0  0  0
    4.1906    0.7771   -1.4804 C   0  0  2  0  0  0  0  0  0  0  0  0
    5.6961    0.9898   -1.7274 C   0  0  0  0  0  0  0  0  0  0  0  0
    6.5573    1.0249   -0.5764 C   0  0  0  0  0  0  0  0  0  0  0  0
    6.8336    2.2300    0.1065 C   0  0  0  0  0  0  0  0  0  0  0  0
    7.6552    2.2990    1.1951 C   0  0  0  0  0  0  0  0  0  0  0  0
    8.2616    1.1805    1.6852 C   0  0  0  0  0  0  0  0  0  0  0  0
    8.0202   -0.0186    1.0490 C   0  0  0  0  0  0  0  0  0  0  0  0
    8.6202   -1.1515    1.5270 O   0  0  0  0  0  0  0  0  0  0  0  0
    7.1780   -0.0799   -0.0652 C   0  0  0  0  0  0  0  0  0  0  0  0
    3.6232    1.9694   -0.9924 N   0  0  0  0  0  0  0  0  0  0  0  0
    2.4193    2.3066   -0.3834 C   0  0  0  0  0  0  0  0  0  0  0  0
    2.5414    2.9860    0.7118 O   0  0  0  0  0  0  0  0  0  0  0  0
    1.0426    1.9909   -0.8277 C   0  0  1  0  0  0  0  0  0  0  0  0
    0.0607    2.5882    0.0908 N   0  0  0  0  0  0  0  0  0  0  0  0
   -1.0271    1.8261    0.6035 C   0  0  0  0  0  0  0  0  0  0  0  0
   -2.1042    2.4326    0.7125 O   0  0  0  0  0  0  0  0  0  0  0  0
   -0.7806    0.3992    0.9532 C   0  0  1  0  0  0  0  0  0  0  0  0
    0.4880    0.2695    1.5866 N   0  0  0  0  0  0  0  0  0  0  0  0
    1.4208   -0.7647    1.7222 C   0  0  0  0  0  0  0  0  0  0  0  0
    1.6645   -1.0051    2.9915 O   0  0  0  0  0  0  0  0  0  0  0  0
   -1.9096   -0.2137    1.7951 C   0  0  0  0  0  0  0  0  0  0  0  0
   -3.1229   -0.1242    1.0548 N   0  0  0  0  0  0  0  0  0  0  0  0
   -3.5858   -1.1443    0.1745 C   0  0  0  0  0  0  0  0  0  0  0  0
   -2.8462   -2.1631    0.0883 O   0  0  0  0  0  0  0  0  0  0  0  0
   -4.8201   -1.0957   -0.6144 C   0  0  2  0  0  0  0  0  0  0  0  0
   -5.0069    0.2044   -1.3406 C   0  0  0  0  0  0  0  0  0  0  0  0
   -3.8809    0.4836   -2.3177 C   0  0  0  0  0  0  0  0  0  0  0  0
   -3.7868   -0.5952   -3.3623 C   0  0  0  0  0  0  0  0  0  0  0  0
   -4.2017    1.7905   -3.0306 C   0  0  0  0  0  0  0  0  0  0  0  0
   -5.9859   -1.5666    0.1754 C   0  0  1  0  0  0  0  0  0  0  0  0
   -5.8191   -2.9995    0.6589 C   0  0  0  0  0  0  0  0  0  0  0  0
   -6.4128   -0.7470    1.3345 C   0  0  0  0  0  0  0  0  0  0  0  0
   -6.8174    0.6033    1.0080 N   0  0  0  0  0  0  0  0  0  0  0  0
   -1.9039    0.0795    3.2203 C   0  0  0  0  0  0  0  0  0  0  0  0
   -3.0987   -0.6148    3.9092 C   0  0  0  0  0  0  0  0  0  0  0  0
   -1.9597    1.4974    3.6726 C   0  0  0  0  0  0  0  0  0  0  0  0
    0.6777    2.5932   -2.1660 C   0  0  1  0  0  0  0  0  0  0  0  0
    0.6453    4.1110   -2.1199 C   0  0  0  0  0  0  0  0  0  0  0  0
    1.4476    2.2004   -3.2192 O   0  0  0  0  0  0  0  0  0  0  0  0
    3.6734   -4.0922    1.2420 H   0  0  0  0  0  0  0  0  0  0  0  0
    1.9664   -4.3124    1.7980 H   0  0  0  0  0  0  0  0  0  0  0  0
    2.7613   -5.5760    0.8668 H   0  0  0  0  0  0  0  0  0  0  0  0
    2.9896   -3.7524   -1.0271 H   0  0  0  0  0  0  0  0  0  0  0  0
    1.4228   -4.6238   -0.7416 H   0  0  0  0  0  0  0  0  0  0  0  0
    0.5108   -2.8630    0.5418 H   0  0  0  0  0  0  0  0  0  0  0  0
    1.4995   -1.2435   -1.6957 H   0  0  0  0  0  0  0  0  0  0  0  0
   -0.1821   -1.9222   -1.3990 H   0  0  0  0  0  0  0  0  0  0  0  0
    1.0836   -2.8895   -2.1670 H   0  0  0  0  0  0  0  0  0  0  0  0
    2.5834   -2.4380    1.5071 H   0  0  0  0  0  0  0  0  0  0  0  0
    4.0803   -1.0335    1.1517 H   0  0  0  0  0  0  0  0  0  0  0  0
    3.8350    0.7226   -2.5712 H   0  0  0  0  0  0  0  0  0  0  0  0
    6.0315    0.1293   -2.3790 H   0  0  0  0  0  0  0  0  0  0  0  0
    5.8644    1.8902   -2.3533 H   0  0  0  0  0  0  0  0  0  0  0  0
    6.3809    3.1273   -0.2584 H   0  0  0  0  0  0  0  0  0  0  0  0
    7.8262    3.2483    1.6740 H   0  0  0  0  0  0  0  0  0  0  0  0
    8.9109    1.2160    2.5393 H   0  0  0  0  0  0  0  0  0  0  0  0
    9.5267   -1.4244    1.1728 H   0  0  0  0  0  0  0  0  0  0  0  0
    7.0596   -1.0415   -0.4985 H   0  0  0  0  0  0  0  0  0  0  0  0
    4.2546    2.8625   -1.1188 H   0  0  0  0  0  0  0  0  0  0  0  0
    0.8699    0.9007   -0.8933 H   0  0  0  0  0  0  0  0  0  0  0  0
    0.2233    3.5894    0.3172 H   0  0  0  0  0  0  0  0  0  0  0  0
   -0.9120   -0.1315   -0.0102 H   0  0  0  0  0  0  0  0  0  0  0  0
    0.7622    1.2040    2.0805 H   0  0  0  0  0  0  0  0  0  0  0  0
   -1.6165   -1.3299    1.7031 H   0  0  0  0  0  0  0  0  0  0  0  0
   -3.7799    0.7128    1.1043 H   0  0  0  0  0  0  0  0  0  0  0  0
   -4.7034   -1.8610   -1.4775 H   0  0  0  0  0  0  0  0  0  0  0  0
   -4.9170    1.0316   -0.5778 H   0  0  0  0  0  0  0  0  0  0  0  0
   -5.9505    0.2406   -1.8938 H   0  0  0  0  0  0  0  0  0  0  0  0
   -2.9157    0.6105   -1.7603 H   0  0  0  0  0  0  0  0  0  0  0  0
   -2.8599   -1.2198   -3.2152 H   0  0  0  0  0  0  0  0  0  0  0  0
   -4.6763   -1.2469   -3.4102 H   0  0  0  0  0  0  0  0  0  0  0  0
   -3.6880   -0.1689   -4.3931 H   0  0  0  0  0  0  0  0  0  0  0  0
   -3.7707    2.6632   -2.4597 H   0  0  0  0  0  0  0  0  0  0  0  0
   -5.3118    1.9369   -2.9747 H   0  0  0  0  0  0  0  0  0  0  0  0
   -3.8410    1.8102   -4.0734 H   0  0  0  0  0  0  0  0  0  0  0  0
   -6.8818   -1.6318   -0.5290 H   0  0  0  0  0  0  0  0  0  0  0  0
   -5.1991   -3.0804    1.5618 H   0  0  0  0  0  0  0  0  0  0  0  0
   -5.4869   -3.6656   -0.1816 H   0  0  0  0  0  0  0  0  0  0  0  0
   -6.8440   -3.3563    0.9305 H   0  0  0  0  0  0  0  0  0  0  0  0
   -5.6580   -0.6887    2.1421 H   0  0  0  0  0  0  0  0  0  0  0  0
   -7.3165   -1.2031    1.8458 H   0  0  0  0  0  0  0  0  0  0  0  0
   -7.7853    0.6866    0.6767 H   0  0  0  0  0  0  0  0  0  0  0  0
   -6.7291    1.2214    1.8669 H   0  0  0  0  0  0  0  0  0  0  0  0
   -1.0234   -0.3747    3.7753 H   0  0  0  0  0  0  0  0  0  0  0  0
   -3.3143   -1.5772    3.4163 H   0  0  0  0  0  0  0  0  0  0  0  0
   -2.9514   -0.6834    4.9952 H   0  0  0  0  0  0  0  0  0  0  0  0
   -3.9689    0.0496    3.7264 H   0  0  0  0  0  0  0  0  0  0  0  0
   -1.1008    2.1262    3.3606 H   0  0  0  0  0  0  0  0  0  0  0  0
   -2.8829    2.0478    3.4236 H   0  0  0  0  0  0  0  0  0  0  0  0
   -1.9198    1.5674    4.8093 H   0  0  0  0  0  0  0  0  0  0  0  0
   -0.3751    2.2298   -2.3628 H   0  0  0  0  0  0  0  0  0  0  0  0
   -0.2102    4.5057   -1.5477 H   0  0  0  0  0  0  0  0  0  0  0  0
    1.6314    4.4320   -1.7379 H   0  0  0  0  0  0  0  0  0  0  0  0
    0.5784    4.4915   -3.1675 H   0  0  0  0  0  0  0  0  0  0  0  0
    1.2891    1.2647   -3.5241 H   0  0  0  0  0  0  0  0  0  0  0  0
  1  2  1  0
  2  3  1  0
  3  4  1  0
  3  5  1  0
  5  6  1  0
  6  7  1  0
  7  8  2  0
  7  9  1  0
  9 10  1  0
 10 11  1  0
 11 12  2  0
 12 13  1  0
 13 14  2  0
 14 15  1  0
 15 16  1  0
 15 17  2  0
  9 18  1  0
 18 19  1  0
 19 20  2  0
 19 21  1  0
 21 22  1  0
 22 23  1  0
 23 24  2  0
 23 25  1  0
 25 26  1  0
 26 27  1  0
 27 28  2  0
 25 29  1  0
 29 30  1  0
 30 31  1  0
 31 32  2  0
 31 33  1  0
 33 34  1  0
 34 35  1  0
 35 36  1  0
 35 37  1  0
 33 38  1  0
 38 39  1  0
 38 40  1  0
 40 41  1  0
 29 42  1  0
 42 43  1  0
 42 44  1  0
 21 45  1  0
 45 46  1  0
 45 47  1  0
 27  5  1  0
 17 11  1  0
  1 48  1  0
  1 49  1  0
  1 50  1  0
  2 51  1  0
  2 52  1  0
  3 53  1  1
  4 54  1  0
  4 55  1  0
  4 56  1  0
  5 57  1  1
  6 58  1  0
  9 59  1  6
 10 60  1  0
 10 61  1  0
 12 62  1  0
 13 63  1  0
 14 64  1  0
 16 65  1  0
 17 66  1  0
 18 67  1  0
 21 68  1  6
 22 69  1  0
 25 70  1  6
 26 71  1  0
 29 72  1  0
 30 73  1  0
 33 74  1  6
 34 75  1  0
 34 76  1  0
 35 77  1  0
 36 78  1  0
 36 79  1  0
 36 80  1  0
 37 81  1  0
 37 82  1  0
 37 83  1  0
 38 84  1  6
 39 85  1  0
 39 86  1  0
 39 87  1  0
 40 88  1  0
 40 89  1  0
 41 90  1  0
 41 91  1  0
 42 92  1  0
 43 93  1  0
 43 94  1  0
 43 95  1  0
 44 96  1  0
 44 97  1  0
 44 98  1  0
 45 99  1  6
 46100  1  0
 46101  1  0
 46102  1  0
 47103  1  0
M  END
$$$$
[H]Oc1c([H])c([H])c(C2(OC(=O)N([H])c3c([H])c([H])c(Cl)c(Br)c3[H])OC(F)(F)S2(=O)=O)c([H])c1[H]
     RDKit          3D

 36 38  0  0  0  0  0  0  0  0999 V2000
   -6.1051    0.4607    2.1787 O   0  0  0  0  0  0  0  0  0  0  0  0
   -4.9105    0.3116    1.4392 C   0  0  0  0  0  0  0  0  0  0  0  0
   -4.4082   -0.9389    1.2121 C   0  0  0  0  0  0  0  0  0  0  0  0
   -3.2477   -1.0888    0.4941 C   0  0  0  0  0  0  0  0  0  0  0  0
   -2.5542   -0.0152   -0.0174 C   0  0  0  0  0  0  0  0  0  0  0  0
   -3.0926    1.2269    0.2330 C   0  0  0  0  0  0  0  0  0  0  0  0
   -4.2525    1.4106    0.9483 C   0  0  0  0  0  0  0  0  0  0  0  0
   -1.2771   -0.1634   -0.8123 C   0  0  0  0  0  0  0  0  0  0  0  0
   -0.2489   -0.0308    0.0601 O   0  0  0  0  0  0  0  0  0  0  0  0
    1.1315   -0.0731   -0.1800 C   0  0  0  0  0  0  0  0  0  0  0  0
    1.3009   -0.2579   -1.3863 O   0  0  0  0  0  0  0  0  0  0  0  0
    2.0557    0.0804    0.8507 N   0  0  0  0  0  0  0  0  0  0  0  0
    3.4506    0.0508    0.6937 C   0  0  0  0  0  0  0  0  0  0  0  0
    4.0874   -0.1357   -0.5062 C   0  0  0  0  0  0  0  0  0  0  0  0
    5.4923   -0.1508   -0.5684 C   0  0  0  0  0  0  0  0  0  0  0  0
    6.2729    0.0181    0.5535 C   0  0  0  0  0  0  0  0  0  0  0  0
    8.0045   -0.0057    0.4423 Cl  0  0  0  0  0  0  0  0  0  0  0  0
    5.6178    0.2051    1.7562 C   0  0  0  0  0  0  0  0  0  0  0  0
    6.6998    0.4384    3.3061 Br  0  0  0  0  0  0  0  0  0  0  0  0
    4.2614    0.2198    1.8169 C   0  0  0  0  0  0  0  0  0  0  0  0
   -1.2391    0.9413   -1.7015 O   0  0  0  0  0  0  0  0  0  0  0  0
   -1.6312    0.3459   -2.8929 C   0  0  0  0  0  0  0  0  0  0  0  0
   -0.7899    0.5703   -3.9704 F   0  0  0  0  0  0  0  0  0  0  0  0
   -2.9518    0.7412   -3.1550 F   0  0  0  0  0  0  0  0  0  0  0  0
   -1.4552   -1.2085   -2.1020 S   0  0  0  0  0  0  0  0  0  0  0  0
   -0.4471   -2.1383   -2.6204 O   0  0  0  0  0  0  0  0  0  0  0  0
   -2.8067   -1.9200   -2.1393 O   0  0  0  0  0  0  0  0  0  0  0  0
   -7.0043    0.4669    1.7477 H   0  0  0  0  0  0  0  0  0  0  0  0
   -4.9292   -1.7896    1.5993 H   0  0  0  0  0  0  0  0  0  0  0  0
   -2.8322   -2.0768    0.3061 H   0  0  0  0  0  0  0  0  0  0  0  0
   -2.5311    2.0696   -0.1791 H   0  0  0  0  0  0  0  0  0  0  0  0
   -4.6230    2.4149    1.1101 H   0  0  0  0  0  0  0  0  0  0  0  0
    1.6603    0.2306    1.8242 H   0  0  0  0  0  0  0  0  0  0  0  0
    3.5621   -0.2765   -1.4379 H   0  0  0  0  0  0  0  0  0  0  0  0
    5.9656   -0.3020   -1.5432 H   0  0  0  0  0  0  0  0  0  0  0  0
    3.7747    0.3688    2.7768 H   0  0  0  0  0  0  0  0  0  0  0  0
  1  2  1  0
  2  3  2  0
  3  4  1  0
  4  5  2  0
  5  6  1  0
  6  7  2  0
  5  8  1  0
  8  9  1  0
  9 10  1  0
 10 11  2  0
 10 12  1  0
 12 13  1  0
 13 14  2  0
 14 15  1  0
 15 16  2  0
 16 17  1  0
 16 18  1  0
 18 19  1  0
 18 20  2  0
  8 21  1  0
 21 22  1  0
 22 23  1  0
 22 24  1  0
 22 25  1  0
 25 26  2  0
 25 27  2  0
  7  2  1  0
 25  8  1  0
 20 13  1  0
  1 28  1  0
  3 29  1  0
  4 30  1  0
  6 31  1  0
  7 32  1  0
 12 33  1  0
 14 34  1  0
 15 35  1  0
 20 36  1  0
M  END
$$$$
[H]c1c([H])c(C2=C(c3c([H])n(C([H])([H])[H])c4c([H])c([H])c([H])c([H])c34)C(=O)N([H])C2=O)c2c(c1[H])c([H])c([H])n2[H]
     RDKit          3D

 41 45  0  0  0  0  0  0  0  0999 V2000
    2.1982   -1.0161    3.0029 C   0  0  0  0  0  0  0  0  0  0  0  0
    1.9885   -0.5343    1.6294 N   0  0  0  0  0  0  0  0  0  0  0  0
    1.0279   -0.8965    0.7992 C   0  0  0  0  0  0  0  0  0  0  0  0
    1.1873   -0.2167   -0.3990 C   0  0  0  0  0  0  0  0  0  0  0  0
    0.3384   -0.3040   -1.5894 C   0  0  0  0  0  0  0  0  0  0  0  0
   -0.9789   -0.1728   -1.6783 C   0  0  0  0  0  0  0  0  0  0  0  0
   -1.4166   -0.3398   -3.0549 C   0  0  0  0  0  0  0  0  0  0  0  0
   -2.5775   -0.2869   -3.5756 O   0  0  0  0  0  0  0  0  0  0  0  0
   -0.2475   -0.5938   -3.8236 N   0  0  0  0  0  0  0  0  0  0  0  0
    0.8633   -0.5756   -2.9174 C   0  0  0  0  0  0  0  0  0  0  0  0
    2.0572   -0.7696   -3.2743 O   0  0  0  0  0  0  0  0  0  0  0  0
   -1.8420    0.1523   -0.5547 C   0  0  0  0  0  0  0  0  0  0  0  0
   -1.5371    1.2916    0.1943 C   0  0  0  0  0  0  0  0  0  0  0  0
   -2.3592    1.5782    1.2595 C   0  0  0  0  0  0  0  0  0  0  0  0
   -3.4412    0.7930    1.5948 C   0  0  0  0  0  0  0  0  0  0  0  0
   -3.7213   -0.3417    0.8269 C   0  0  0  0  0  0  0  0  0  0  0  0
   -4.6957   -1.3086    0.9163 C   0  0  0  0  0  0  0  0  0  0  0  0
   -4.4648   -2.1944   -0.1035 C   0  0  0  0  0  0  0  0  0  0  0  0
   -3.4022   -1.8111   -0.8030 N   0  0  0  0  0  0  0  0  0  0  0  0
   -2.9171   -0.6584   -0.2485 C   0  0  0  0  0  0  0  0  0  0  0  0
    2.3022    0.5769   -0.2339 C   0  0  0  0  0  0  0  0  0  0  0  0
    2.9758    1.4839   -1.0239 C   0  0  0  0  0  0  0  0  0  0  0  0
    4.1033    2.1753   -0.5967 C   0  0  0  0  0  0  0  0  0  0  0  0
    4.5669    1.9410    0.6760 C   0  0  0  0  0  0  0  0  0  0  0  0
    3.9148    1.0411    1.4906 C   0  0  0  0  0  0  0  0  0  0  0  0
    2.7950    0.3593    1.0584 C   0  0  0  0  0  0  0  0  0  0  0  0
    2.1849   -0.2170    3.7398 H   0  0  0  0  0  0  0  0  0  0  0  0
    1.4281   -1.7630    3.2853 H   0  0  0  0  0  0  0  0  0  0  0  0
    3.1730   -1.5814    3.0489 H   0  0  0  0  0  0  0  0  0  0  0  0
    0.2576   -1.6000    1.0236 H   0  0  0  0  0  0  0  0  0  0  0  0
   -0.2115   -0.7602   -4.8468 H   0  0  0  0  0  0  0  0  0  0  0  0
   -0.6890    1.9018   -0.0746 H   0  0  0  0  0  0  0  0  0  0  0  0
   -2.1813    2.4429    1.8806 H   0  0  0  0  0  0  0  0  0  0  0  0
   -4.1030    0.9939    2.4237 H   0  0  0  0  0  0  0  0  0  0  0  0
   -5.4832   -1.3253    1.6735 H   0  0  0  0  0  0  0  0  0  0  0  0
   -5.0534   -3.0802   -0.3187 H   0  0  0  0  0  0  0  0  0  0  0  0
   -2.9508   -2.2676   -1.6356 H   0  0  0  0  0  0  0  0  0  0  0  0
    2.5936    1.6755   -2.0234 H   0  0  0  0  0  0  0  0  0  0  0  0
    4.5842    2.8834   -1.2842 H   0  0  0  0  0  0  0  0  0  0  0  0
    5.4504    2.4736    1.0277 H   0  0  0  0  0  0  0  0  0  0  0  0
    4.2829    0.8516    2.5087 H   0  0  0  0  0  0  0  0  0  0  0  0
  1  2  1  0
  2  3  1  0
  3  4  2  0
  4  5  1  0
  5  6  2  0
  6  7  1  0
  7  8  2  0
  7  9  1  0
  9 10  1  0
 10 11  2  0
  6 12  1  0
 12 13  2  0
 13 14  1  0
 14 15  2  0
 15 16  1  0
 16 17  1  0
 17 18  2  0
 18 19  1  0
 19 20  1  0
  4 21  1  0
 21 22  2  0
 22 23  1  0
 23 24  2  0
 24 25  1  0
 25 26  2  0
 26  2  1  0
 10  5  1  0
 20 12  1  0
 26 21  1  0
 20 16  2  0
  1 27  1  0
  1 28  1  0
  1 29  1  0
  3 30  1  0
  9 31  1  0
 13 32  1  0
 14 33  1  0
 15 34  1  0
 17 35  1  0
 18 36  1  0
 19 37  1  0
 22 38  1  0
 23 39  1  0
 24 40  1  0
 25 41  1  0
M  END
$$$$
[H]c1c([H])c([H])c2c(c1[H])c1c(nc([H])n1[H])c(=O)n2[H]
     RDKit          3D

 21 23  0  0  0  0  0  0  0  0999 V2000
   -2.4977   -2.5405   -0.4576 O   0  0  0  0  0  0  0  0  0  0  0  0
   -1.6116   -1.6422   -0.2956 C   0  0  0  0  0  0  0  0  0  0  0  0
   -0.3138   -1.9618   -0.2386 N   0  0  0  0  0  0  0  0  0  0  0  0
    0.6622   -1.0563   -0.0694 C   0  0  0  0  0  0  0  0  0  0  0  0
    1.9712   -1.4682   -0.0219 C   0  0  0  0  0  0  0  0  0  0  0  0
    2.9343   -0.4798    0.1555 C   0  0  0  0  0  0  0  0  0  0  0  0
    2.5965    0.8583    0.2791 C   0  0  0  0  0  0  0  0  0  0  0  0
    1.2713    1.2332    0.2263 C   0  0  0  0  0  0  0  0  0  0  0  0
    0.2973    0.2711    0.0510 C   0  0  0  0  0  0  0  0  0  0  0  0
   -1.0324    0.6390   -0.0029 C   0  0  0  0  0  0  0  0  0  0  0  0
   -1.6872    1.7955    0.0781 N   0  0  0  0  0  0  0  0  0  0  0  0
   -3.0162    1.6209   -0.0355 C   0  0  0  0  0  0  0  0  0  0  0  0
   -3.1878    0.2960   -0.1938 N   0  0  0  0  0  0  0  0  0  0  0  0
   -1.9996   -0.3434   -0.1799 C   0  0  0  0  0  0  0  0  0  0  0  0
   -0.0192   -2.9720   -0.3291 H   0  0  0  0  0  0  0  0  0  0  0  0
    2.2604   -2.5116   -0.1164 H   0  0  0  0  0  0  0  0  0  0  0  0
    3.9621   -0.7663    0.1969 H   0  0  0  0  0  0  0  0  0  0  0  0
    3.3841    1.6033    0.4172 H   0  0  0  0  0  0  0  0  0  0  0  0
    1.0171    2.2801    0.3237 H   0  0  0  0  0  0  0  0  0  0  0  0
   -1.2239    2.7296    0.2141 H   0  0  0  0  0  0  0  0  0  0  0  0
   -3.7670    2.4151   -0.0013 H   0  0  0  0  0  0  0  0  0  0  0  0
  1  2  2  0
  2  3  1  0
  3  4  1  0
  4  5  2  0
  5  6  1  0
  6  7  2  0
  7  8  1  0
  8  9  2  0
  9 10  1  0
 10 11  1  0
 11 12  1  0
 12 13  2  0
 13 14  1  0
 14  2  1  0
  9  4  1  0
 14 10  2  0
  3 15  1  0
  5 16  1  0
  6 17  1  0
  7 18  1  0
  8 19  1  0
 11 20  1  0
 12 21  1  0
M  END
$$$$
