[H]c1nc([H])n([H])c1C([H])(c1c([H])c([H])c(Cl)c([H])c1[H])n1c([H])nc([H])c1[H]
     RDKit          3D

 29 31  0  0  0  0  0  0  0  0999 V2000
    5.4471   -0.1049    0.5956 Cl  0  0  0  0  0  0  0  0  0  0  0  0
    3.7216   -0.0222    0.2861 C   0  0  0  0  0  0  0  0  0  0  0  0
    3.2419   -0.1954   -0.9800 C   0  0  0  0  0  0  0  0  0  0  0  0
    1.9057   -0.1332   -1.2308 C   0  0  0  0  0  0  0  0  0  0  0  0
    0.9546    0.1072   -0.2285 C   0  0  0  0  0  0  0  0  0  0  0  0
    1.4855    0.2754    1.0313 C   0  0  0  0  0  0  0  0  0  0  0  0
    2.8407    0.2146    1.2994 C   0  0  0  0  0  0  0  0  0  0  0  0
   -0.5118    0.1711   -0.5287 C   0  0  0  0  0  0  0  0  0  0  0  0
   -1.1614   -1.1455   -0.4499 C   0  0  0  0  0  0  0  0  0  0  0  0
   -1.5914   -1.8492    0.6488 C   0  0  0  0  0  0  0  0  0  0  0  0
   -2.1391   -3.0206    0.2852 N   0  0  0  0  0  0  0  0  0  0  0  0
   -2.0635   -3.0731   -1.0346 C   0  0  0  0  0  0  0  0  0  0  0  0
   -1.4898   -1.9769   -1.4906 N   0  0  0  0  0  0  0  0  0  0  0  0
   -1.1937    1.2570    0.0961 N   0  0  0  0  0  0  0  0  0  0  0  0
   -1.6017    1.4219    1.3678 C   0  0  0  0  0  0  0  0  0  0  0  0
   -2.2236    2.6477    1.5078 C   0  0  0  0  0  0  0  0  0  0  0  0
   -2.1966    3.2458    0.3000 N   0  0  0  0  0  0  0  0  0  0  0  0
   -1.5885    2.4194   -0.5240 C   0  0  0  0  0  0  0  0  0  0  0  0
    3.9154   -0.3821   -1.7887 H   0  0  0  0  0  0  0  0  0  0  0  0
    1.5150   -0.2694   -2.2325 H   0  0  0  0  0  0  0  0  0  0  0  0
    0.8484    0.4629    1.8626 H   0  0  0  0  0  0  0  0  0  0  0  0
    3.2199    0.3508    2.2962 H   0  0  0  0  0  0  0  0  0  0  0  0
   -0.5160    0.4082   -1.6474 H   0  0  0  0  0  0  0  0  0  0  0  0
   -1.5185   -1.5496    1.6686 H   0  0  0  0  0  0  0  0  0  0  0  0
   -2.4263   -3.9065   -1.6410 H   0  0  0  0  0  0  0  0  0  0  0  0
   -1.3152   -1.7796   -2.5008 H   0  0  0  0  0  0  0  0  0  0  0  0
   -1.4858    0.7380    2.1855 H   0  0  0  0  0  0  0  0  0  0  0  0
   -2.6497    3.0455    2.4196 H   0  0  0  0  0  0  0  0  0  0  0  0
   -1.4232    2.6427   -1.5731 H   0  0  0  0  0  0  0  0  0  0  0  0
  1  2  1  0
  2  3  2  0
  3  4  1  0
  4  5  2  0
  5  6  1  0
  6  7  2  0
  5  8  1  0
  8  9  1  0
  9 10  2  0
 10 11  1  0
 11 12  2  0
 12 13  1  0
  8 14  1  0
 14 15  1  0
 15 16  2  0
 16 17  1  0
 17 18  2  0
  7  2  1  0
 13  9  1  0
 18 14  1  0
  3 19  1  0
  4 20  1  0
  6 21  1  0
  7 22  1  0
  8 23  1  0
 10 24  1  0
 12 25  1  0
 13 26  1  0
 15 27  1  0
 16 28  1  0
 18 29  1  0
M  END
$$$$
[H]C([H])=C([H])C(=O)N([H])[C@]1([H])C([H])([H])C([H])([H])[C@@]([H])(n2c([H])c(-c3c([H])c([H])c(Oc4c([H])c([H])c([H])c([H])c4[H])c([H])c3[H])c3c(N([H])[H])nc([H])nc32)C([H])([H])C1([H])[H]
     RDKit          3D

 61 65  0  0  0  0  0  0  0  0999 V2000
   -2.5738   -1.7781    2.4609 N   0  0  0  0  0  0  0  0  0  0  0  0
   -1.1524   -1.7199    2.4791 C   0  0  0  0  0  0  0  0  0  0  0  0
   -0.4481   -2.3230    3.4617 N   0  0  0  0  0  0  0  0  0  0  0  0
    0.8916   -2.2471    3.4935 C   0  0  0  0  0  0  0  0  0  0  0  0
    1.5718   -1.5711    2.5524 N   0  0  0  0  0  0  0  0  0  0  0  0
    0.9373   -0.9467    1.5448 C   0  0  0  0  0  0  0  0  0  0  0  0
    1.3915   -0.2050    0.4994 N   0  0  0  0  0  0  0  0  0  0  0  0
    0.3228    0.1838   -0.1925 C   0  0  0  0  0  0  0  0  0  0  0  0
   -0.8372   -0.3003    0.3936 C   0  0  0  0  0  0  0  0  0  0  0  0
   -2.2019   -0.1225   -0.1006 C   0  0  0  0  0  0  0  0  0  0  0  0
   -3.0049   -1.1556   -0.5364 C   0  0  0  0  0  0  0  0  0  0  0  0
   -4.2926   -0.9647   -0.9872 C   0  0  0  0  0  0  0  0  0  0  0  0
   -4.8546    0.2921   -1.0269 C   0  0  0  0  0  0  0  0  0  0  0  0
   -6.1515    0.5155   -1.4766 O   0  0  0  0  0  0  0  0  0  0  0  0
   -7.2488    0.4915   -0.6281 C   0  0  0  0  0  0  0  0  0  0  0  0
   -8.5265    0.7079   -1.0532 C   0  0  0  0  0  0  0  0  0  0  0  0
   -9.5532    0.6672   -0.1530 C   0  0  0  0  0  0  0  0  0  0  0  0
   -9.3519    0.4116    1.1951 C   0  0  0  0  0  0  0  0  0  0  0  0
   -8.0502    0.1960    1.6005 C   0  0  0  0  0  0  0  0  0  0  0  0
   -7.0066    0.2345    0.7019 C   0  0  0  0  0  0  0  0  0  0  0  0
   -4.0473    1.3301   -0.5894 C   0  0  0  0  0  0  0  0  0  0  0  0
   -2.7662    1.1528   -0.1390 C   0  0  0  0  0  0  0  0  0  0  0  0
   -0.4643   -1.0180    1.4976 C   0  0  0  0  0  0  0  0  0  0  0  0
    2.8044    0.0750    0.2418 C   0  0  1  0  0  0  0  0  0  0  0  0
    3.3801   -0.8289   -0.8091 C   0  0  0  0  0  0  0  0  0  0  0  0
    4.3874   -0.1853   -1.6972 C   0  0  0  0  0  0  0  0  0  0  0  0
    5.2511    0.8403   -1.0420 C   0  0  1  0  0  0  0  0  0  0  0  0
    4.4623    1.8054   -0.1676 C   0  0  0  0  0  0  0  0  0  0  0  0
    2.9712    1.5109   -0.2629 C   0  0  0  0  0  0  0  0  0  0  0  0
    6.3751    0.2976   -0.3451 N   0  0  0  0  0  0  0  0  0  0  0  0
    7.7228    0.5398   -0.6661 C   0  0  0  0  0  0  0  0  0  0  0  0
    7.9815    1.2902   -1.6397 O   0  0  0  0  0  0  0  0  0  0  0  0
    8.8278   -0.0374    0.0758 C   0  0  0  0  0  0  0  0  0  0  0  0
   10.0767    0.2170   -0.2611 C   0  0  0  0  0  0  0  0  0  0  0  0
   -3.2028   -0.9719    2.6627 H   0  0  0  0  0  0  0  0  0  0  0  0
   -3.0293   -2.6872    2.2306 H   0  0  0  0  0  0  0  0  0  0  0  0
    1.4486   -2.7401    4.2944 H   0  0  0  0  0  0  0  0  0  0  0  0
    0.3088    0.7889   -1.0869 H   0  0  0  0  0  0  0  0  0  0  0  0
   -2.5606   -2.1692   -0.5179 H   0  0  0  0  0  0  0  0  0  0  0  0
   -4.8679   -1.8048   -1.3124 H   0  0  0  0  0  0  0  0  0  0  0  0
   -8.6683    0.9088   -2.1242 H   0  0  0  0  0  0  0  0  0  0  0  0
  -10.5801    0.8394   -0.4847 H   0  0  0  0  0  0  0  0  0  0  0  0
  -10.1592    0.3795    1.9030 H   0  0  0  0  0  0  0  0  0  0  0  0
   -7.8246   -0.0086    2.6387 H   0  0  0  0  0  0  0  0  0  0  0  0
   -5.9908    0.0590    1.0600 H   0  0  0  0  0  0  0  0  0  0  0  0
   -4.5044    2.3251   -0.6253 H   0  0  0  0  0  0  0  0  0  0  0  0
   -2.1542    1.9773    0.1976 H   0  0  0  0  0  0  0  0  0  0  0  0
    3.4001    0.0100    1.1757 H   0  0  0  0  0  0  0  0  0  0  0  0
    3.7265   -1.7733   -0.3373 H   0  0  0  0  0  0  0  0  0  0  0  0
    2.5140   -1.1379   -1.4658 H   0  0  0  0  0  0  0  0  0  0  0  0
    5.0618   -0.9921   -2.0798 H   0  0  0  0  0  0  0  0  0  0  0  0
    3.9187    0.2580   -2.6093 H   0  0  0  0  0  0  0  0  0  0  0  0
    5.6709    1.4828   -1.8719 H   0  0  0  0  0  0  0  0  0  0  0  0
    4.7926    1.6177    0.8886 H   0  0  0  0  0  0  0  0  0  0  0  0
    4.6737    2.8518   -0.3781 H   0  0  0  0  0  0  0  0  0  0  0  0
    2.4457    2.2316    0.3672 H   0  0  0  0  0  0  0  0  0  0  0  0
    2.6800    1.5412   -1.3243 H   0  0  0  0  0  0  0  0  0  0  0  0
    6.1787   -0.3330    0.4727 H   0  0  0  0  0  0  0  0  0  0  0  0
    8.6865   -0.6932    0.9271 H   0  0  0  0  0  0  0  0  0  0  0  0
   10.9301   -0.1883    0.2594 H   0  0  0  0  0  0  0  0  0  0  0  0
   10.2822    0.8727   -1.1127 H   0  0  0  0  0  0  0  0  0  0  0  0
  1  2  1  0
  2  3  2  0
  3  4  1  0
  4  5  2  0
  5  6  1  0
  6  7  1  0
  7  8  1  0
  8  9  2  0
  9 10  1  0
 10 11  2  0
 11 12  1  0
 12 13  2  0
 13 14  1  0
 14 15  1  0
 15 16  2  0
 16 17  1  0
 17 18  2  0
 18 19  1  0
 19 20  2  0
 13 21  1  0
 21 22  2  0
  9 23  1  0
  7 24  1  0
 24 25  1  0
 25 26  1  0
 26 27  1  0
 27 28  1  0
 28 29  1  0
 27 30  1  0
 30 31  1  0
 31 32  2  0
 31 33  1  0
 33 34  2  3
 23  2  1  0
 29 24  1  0
 23  6  2  0
 22 10  1  0
 20 15  1  0
  1 35  1  0
  1 36  1  0
  4 37  1  0
  8 38  1  0
 11 39  1  0
 12 40  1  0
 16 41  1  0
 17 42  1  0
 18 43  1  0
 19 44  1  0
 20 45  1  0
 21 46  1  0
 22 47  1  0
 24 48  1  1
 25 49  1  0
 25 50  1  0
 26 51  1  0
 26 52  1  0
 27 53  1  6
 28 54  1  0
 28 55  1  0
 29 56  1  0
 29 57  1  0
 30 58  1  0
 33 59  1  0
 34 60  1  0
 34 61  1  0
M  END
$$$$
[H]N=C(N([H])[H])N([H])C([H])([H])C([H])([H])C([H])([H])[C@@]([H])(C(=O)c1nc2c([H])c([H])c([H])c([H])c2s1)N([H])C(=O)[C@@]([H])(N([H])C(=O)[C@@]1([H])N(C(=O)[C@]([H])(N([H])C(=O)OC([H])([H])c2c([H])c([H])c([H])c([H])c2[H])C([H])([H])c2c([H])c([H])c([H])c([H])c2[H])C([H])([H])C([H])([H])C1([H])[H])C([H])([H])C([H])([H])C([H])([H])N([H])C(=N[H])N([H])[H]
     RDKit          3D

110114  0  0  0  0  0  0  0  0999 V2000
    0.3640   -0.8634    7.5499 N   0  0  0  0  0  0  0  0  0  0  0  0
    1.1485   -1.7002    6.7004 C   0  0  0  0  0  0  0  0  0  0  0  0
    1.8302   -2.6375    7.2461 N   0  0  0  0  0  0  0  0  0  0  0  0
    1.1953   -1.5333    5.2985 N   0  0  0  0  0  0  0  0  0  0  0  0
    2.4082   -1.3850    4.5230 C   0  0  0  0  0  0  0  0  0  0  0  0
    2.1077   -1.2363    3.0499 C   0  0  0  0  0  0  0  0  0  0  0  0
    1.2748   -0.0380    2.7501 C   0  0  0  0  0  0  0  0  0  0  0  0
    0.9622    0.0372    1.2240 C   0  0  2  0  0  0  0  0  0  0  0  0
    0.2464   -1.1967    0.9378 N   0  0  0  0  0  0  0  0  0  0  0  0
   -1.1558   -1.2614    1.1866 C   0  0  0  0  0  0  0  0  0  0  0  0
   -1.6372   -0.1531    1.6565 O   0  0  0  0  0  0  0  0  0  0  0  0
   -1.9832   -2.4166    0.9618 C   0  0  2  0  0  0  0  0  0  0  0  0
   -1.3605   -3.5723    1.7482 C   0  0  0  0  0  0  0  0  0  0  0  0
   -0.9773   -4.6301    0.7745 C   0  0  0  0  0  0  0  0  0  0  0  0
   -1.3355   -4.0755   -0.5595 C   0  0  0  0  0  0  0  0  0  0  0  0
   -2.1726   -2.9364   -0.3502 N   0  0  0  0  0  0  0  0  0  0  0  0
   -3.0750   -2.4023   -1.3254 C   0  0  0  0  0  0  0  0  0  0  0  0
   -3.2330   -3.0169   -2.4102 O   0  0  0  0  0  0  0  0  0  0  0  0
   -3.8293   -1.1593   -1.1058 C   0  0  1  0  0  0  0  0  0  0  0  0
   -3.1938    0.0229   -1.8176 C   0  0  0  0  0  0  0  0  0  0  0  0
   -3.1176   -0.0411   -3.2543 C   0  0  0  0  0  0  0  0  0  0  0  0
   -2.0843   -0.6452   -3.9155 C   0  0  0  0  0  0  0  0  0  0  0  0
   -2.0044   -0.6867   -5.2943 C   0  0  0  0  0  0  0  0  0  0  0  0
   -2.9807   -0.1105   -6.0582 C   0  0  0  0  0  0  0  0  0  0  0  0
   -4.0363    0.5079   -5.4333 C   0  0  0  0  0  0  0  0  0  0  0  0
   -4.0881    0.5329   -4.0406 C   0  0  0  0  0  0  0  0  0  0  0  0
   -5.2381   -1.2650   -1.4951 N   0  0  0  0  0  0  0  0  0  0  0  0
   -6.2446   -0.6466   -0.7014 C   0  0  0  0  0  0  0  0  0  0  0  0
   -5.9081   -0.0102    0.3037 O   0  0  0  0  0  0  0  0  0  0  0  0
   -7.5783   -0.7339   -1.0200 O   0  0  0  0  0  0  0  0  0  0  0  0
   -8.5108   -0.0924   -0.2331 C   0  0  0  0  0  0  0  0  0  0  0  0
   -8.6185   -0.4242    1.1742 C   0  0  0  0  0  0  0  0  0  0  0  0
   -8.1207   -1.5838    1.7084 C   0  0  0  0  0  0  0  0  0  0  0  0
   -8.2118   -1.8950    3.0554 C   0  0  0  0  0  0  0  0  0  0  0  0
   -8.8492   -0.9515    3.8615 C   0  0  0  0  0  0  0  0  0  0  0  0
   -9.3531    0.2104    3.3459 C   0  0  0  0  0  0  0  0  0  0  0  0
   -9.2366    0.4695    2.0097 C   0  0  0  0  0  0  0  0  0  0  0  0
    2.2556    0.1933    0.5777 C   0  0  0  0  0  0  0  0  0  0  0  0
    2.7328   -0.7264   -0.1259 O   0  0  0  0  0  0  0  0  0  0  0  0
    2.9660    1.3914    0.7571 N   0  0  0  0  0  0  0  0  0  0  0  0
    4.2648    1.6184    0.1810 C   0  0  1  0  0  0  0  0  0  0  0  0
    4.1487    2.5654   -1.0129 C   0  0  0  0  0  0  0  0  0  0  0  0
    3.2717    1.9305   -2.0586 C   0  0  0  0  0  0  0  0  0  0  0  0
    3.1370    2.8107   -3.2845 C   0  0  0  0  0  0  0  0  0  0  0  0
    2.2962    2.1180   -4.2346 N   0  0  0  0  0  0  0  0  0  0  0  0
    2.0290    2.6280   -5.5288 C   0  0  0  0  0  0  0  0  0  0  0  0
    1.3324    3.8550   -5.6524 N   0  0  0  0  0  0  0  0  0  0  0  0
    2.4047    2.0118   -6.5790 N   0  0  0  0  0  0  0  0  0  0  0  0
    5.2222    2.0929    1.1918 C   0  0  0  0  0  0  0  0  0  0  0  0
    4.8227    2.3004    2.3652 O   0  0  0  0  0  0  0  0  0  0  0  0
    6.6233    2.3195    0.8338 C   0  0  0  0  0  0  0  0  0  0  0  0
    7.2605    2.1554   -0.3015 N   0  0  0  0  0  0  0  0  0  0  0  0
    8.5306    2.4249   -0.3925 C   0  0  0  0  0  0  0  0  0  0  0  0
    9.3380    2.2940   -1.5317 C   0  0  0  0  0  0  0  0  0  0  0  0
   10.6685    2.5992   -1.5291 C   0  0  0  0  0  0  0  0  0  0  0  0
   11.2918    3.0546   -0.4001 C   0  0  0  0  0  0  0  0  0  0  0  0
   10.5377    3.1976    0.7382 C   0  0  0  0  0  0  0  0  0  0  0  0
    9.1657    2.8811    0.7289 C   0  0  0  0  0  0  0  0  0  0  0  0
    7.8950    2.8986    1.8637 S   0  0  0  0  0  0  0  0  0  0  0  0
    0.7097   -0.5487    8.4758 H   0  0  0  0  0  0  0  0  0  0  0  0
   -0.5867   -0.5500    7.2389 H   0  0  0  0  0  0  0  0  0  0  0  0
    2.4038   -3.2608    6.6787 H   0  0  0  0  0  0  0  0  0  0  0  0
    0.2836   -1.5194    4.7762 H   0  0  0  0  0  0  0  0  0  0  0  0
    2.9619   -0.5154    4.9056 H   0  0  0  0  0  0  0  0  0  0  0  0
    3.0471   -2.2783    4.6756 H   0  0  0  0  0  0  0  0  0  0  0  0
    3.1159   -1.0842    2.5591 H   0  0  0  0  0  0  0  0  0  0  0  0
    1.6791   -2.1231    2.5883 H   0  0  0  0  0  0  0  0  0  0  0  0
    0.3013   -0.0208    3.2628 H   0  0  0  0  0  0  0  0  0  0  0  0
    1.7959    0.9119    2.9760 H   0  0  0  0  0  0  0  0  0  0  0  0
    0.3329    0.9427    1.1707 H   0  0  0  0  0  0  0  0  0  0  0  0
    0.7695   -2.0091    0.5620 H   0  0  0  0  0  0  0  0  0  0  0  0
   -3.0140   -2.2718    1.4582 H   0  0  0  0  0  0  0  0  0  0  0  0
   -2.0390   -3.9317    2.5308 H   0  0  0  0  0  0  0  0  0  0  0  0
   -0.4160   -3.2559    2.2681 H   0  0  0  0  0  0  0  0  0  0  0  0
    0.0881   -4.9345    0.8497 H   0  0  0  0  0  0  0  0  0  0  0  0
   -1.6650   -5.5089    0.9604 H   0  0  0  0  0  0  0  0  0  0  0  0
   -0.4352   -3.8653   -1.1693 H   0  0  0  0  0  0  0  0  0  0  0  0
   -1.9763   -4.8130   -1.1459 H   0  0  0  0  0  0  0  0  0  0  0  0
   -3.8056   -0.8946   -0.0441 H   0  0  0  0  0  0  0  0  0  0  0  0
   -3.7358    0.9322   -1.4126 H   0  0  0  0  0  0  0  0  0  0  0  0
   -2.1670    0.1401   -1.3664 H   0  0  0  0  0  0  0  0  0  0  0  0
   -1.2825   -1.1193   -3.3653 H   0  0  0  0  0  0  0  0  0  0  0  0
   -1.1720   -1.1734   -5.7846 H   0  0  0  0  0  0  0  0  0  0  0  0
   -2.9465   -0.1286   -7.1634 H   0  0  0  0  0  0  0  0  0  0  0  0
   -4.8056    0.9647   -6.0200 H   0  0  0  0  0  0  0  0  0  0  0  0
   -4.9169    1.0287   -3.5907 H   0  0  0  0  0  0  0  0  0  0  0  0
   -5.5405   -1.7773   -2.3371 H   0  0  0  0  0  0  0  0  0  0  0  0
   -9.5094   -0.2133   -0.7614 H   0  0  0  0  0  0  0  0  0  0  0  0
   -8.3186    1.0277   -0.3827 H   0  0  0  0  0  0  0  0  0  0  0  0
   -7.6170   -2.3369    1.0944 H   0  0  0  0  0  0  0  0  0  0  0  0
   -7.8200   -2.8126    3.4949 H   0  0  0  0  0  0  0  0  0  0  0  0
   -8.9451   -1.1576    4.9366 H   0  0  0  0  0  0  0  0  0  0  0  0
   -9.8558    0.9388    4.0191 H   0  0  0  0  0  0  0  0  0  0  0  0
   -9.6421    1.4000    1.6028 H   0  0  0  0  0  0  0  0  0  0  0  0
    2.5491    2.1603    1.3300 H   0  0  0  0  0  0  0  0  0  0  0  0
    4.6344    0.6254   -0.2059 H   0  0  0  0  0  0  0  0  0  0  0  0
    5.0946    2.9498   -1.3763 H   0  0  0  0  0  0  0  0  0  0  0  0
    3.5690    3.4683   -0.6459 H   0  0  0  0  0  0  0  0  0  0  0  0
    2.2701    1.7054   -1.6851 H   0  0  0  0  0  0  0  0  0  0  0  0
    3.7924    0.9803   -2.3588 H   0  0  0  0  0  0  0  0  0  0  0  0
    2.7228    3.7945   -3.0358 H   0  0  0  0  0  0  0  0  0  0  0  0
    4.1722    2.8609   -3.7218 H   0  0  0  0  0  0  0  0  0  0  0  0
    1.8456    1.1955   -3.9939 H   0  0  0  0  0  0  0  0  0  0  0  0
    0.7564    4.1862   -4.8513 H   0  0  0  0  0  0  0  0  0  0  0  0
    1.3836    4.4193   -6.5091 H   0  0  0  0  0  0  0  0  0  0  0  0
    2.9163    1.1204   -6.4971 H   0  0  0  0  0  0  0  0  0  0  0  0
    8.9211    1.9343   -2.4807 H   0  0  0  0  0  0  0  0  0  0  0  0
   11.2650    2.4797   -2.4647 H   0  0  0  0  0  0  0  0  0  0  0  0
   12.3218    3.2941   -0.3967 H   0  0  0  0  0  0  0  0  0  0  0  0
   10.9119    3.5483    1.6944 H   0  0  0  0  0  0  0  0  0  0  0  0
  1  2  1  0
  2  3  2  3
  2  4  1  0
  4  5  1  0
  5  6  1  0
  6  7  1  0
  7  8  1  0
  8  9  1  0
  9 10  1  0
 10 11  2  0
 10 12  1  0
 12 13  1  0
 13 14  1  0
 14 15  1  0
 15 16  1  0
 16 17  1  0
 17 18  2  0
 17 19  1  0
 19 20  1  0
 20 21  1  0
 21 22  2  0
 22 23  1  0
 23 24  2  0
 24 25  1  0
 25 26  2  0
 19 27  1  0
 27 28  1  0
 28 29  2  0
 28 30  1  0
 30 31  1  0
 31 32  1  0
 32 33  2  0
 33 34  1  0
 34 35  2  0
 35 36  1  0
 36 37  2  0
  8 38  1  0
 38 39  2  0
 38 40  1  0
 40 41  1  0
 41 42  1  0
 42 43  1  0
 43 44  1  0
 44 45  1  0
 45 46  1  0
 46 47  1  0
 46 48  2  3
 41 49  1  0
 49 50  2  0
 49 51  1  0
 51 52  2  0
 52 53  1  0
 53 54  2  0
 54 55  1  0
 55 56  2  0
 56 57  1  0
 57 58  2  0
 58 59  1  0
 16 12  1  0
 26 21  1  0
 37 32  1  0
 59 51  1  0
 58 53  1  0
  1 60  1  0
  1 61  1  0
  3 62  1  0
  4 63  1  0
  5 64  1  0
  5 65  1  0
  6 66  1  0
  6 67  1  0
  7 68  1  0
  7 69  1  0
  8 70  1  1
  9 71  1  0
 12 72  1  1
 13 73  1  0
 13 74  1  0
 14 75  1  0
 14 76  1  0
 15 77  1  0
 15 78  1  0
 19 79  1  1
 20 80  1  0
 20 81  1  0
 22 82  1  0
 23 83  1  0
 24 84  1  0
 25 85  1  0
 26 86  1  0
 27 87  1  0
 31 88  1  0
 31 89  1  0
 33 90  1  0
 34 91  1  0
 35 92  1  0
 36 93  1  0
 37 94  1  0
 40 95  1  0
 41 96  1  6
 42 97  1  0
 42 98  1  0
 43 99  1  0
 43100  1  0
 44101  1  0
 44102  1  0
 45103  1  0
 47104  1  0
 47105  1  0
 48106  1  0
 54107  1  0
 55108  1  0
 56109  1  0
 57110  1  0
M  END
$$$$
[H]c1c([H])c([H])c(C([H])([H])[C@@]([H])(C(=O)N([H])[H])N([H])C(=O)[C@@]([H])(N([H])C(=O)[C@@]([H])(N([H])C(=O)C([H])([H])N([H])C(=O)[C@@]([H])(N([H])C(=O)[C@@]([H])(N([H])[H])C([H])([H])c2c([H])n([H])c3c([H])c([H])c([H])c([H])c23)C([H])(C([H])([H])[H])C([H])([H])[H])C([H])([H])c2c([H])c([H])c([H])c([H])c2[H])C([H])([H])C([H])(C([H])([H])[H])C([H])([H])[H])c([H])c1[H]
     RDKit          3D

110113  0  0  0  0  0  0  0  0999 V2000
   -7.8415   -1.7937   -2.8255 C   0  0  0  0  0  0  0  0  0  0  0  0
   -6.4213   -1.3053   -2.5000 C   0  0  0  0  0  0  0  0  0  0  0  0
   -6.1352   -0.1564   -3.4313 C   0  0  0  0  0  0  0  0  0  0  0  0
   -6.4660   -0.8782   -1.0422 C   0  0  0  0  0  0  0  0  0  0  0  0
   -5.1480   -0.3670   -0.5528 C   0  0  2  0  0  0  0  0  0  0  0  0
   -4.1106   -1.3313   -0.6456 N   0  0  0  0  0  0  0  0  0  0  0  0
   -2.7220   -1.1591   -0.7374 C   0  0  0  0  0  0  0  0  0  0  0  0
   -2.3057    0.0238   -0.7154 O   0  0  0  0  0  0  0  0  0  0  0  0
   -1.7392   -2.2301   -0.8598 C   0  0  2  0  0  0  0  0  0  0  0  0
   -1.9283   -3.5419   -0.2684 C   0  0  0  0  0  0  0  0  0  0  0  0
   -2.0530   -3.7925    1.1422 C   0  0  0  0  0  0  0  0  0  0  0  0
   -3.2678   -3.7881    1.7907 C   0  0  0  0  0  0  0  0  0  0  0  0
   -3.4045   -4.0609    3.1575 C   0  0  0  0  0  0  0  0  0  0  0  0
   -2.2770   -4.3527    3.9120 C   0  0  0  0  0  0  0  0  0  0  0  0
   -1.0614   -4.3605    3.2774 C   0  0  0  0  0  0  0  0  0  0  0  0
   -0.9539   -4.0882    1.9326 C   0  0  0  0  0  0  0  0  0  0  0  0
   -0.3518   -1.7440   -0.7327 N   0  0  0  0  0  0  0  0  0  0  0  0
    0.1372   -0.9955    0.3207 C   0  0  0  0  0  0  0  0  0  0  0  0
   -0.6262   -0.6513    1.3266 O   0  0  0  0  0  0  0  0  0  0  0  0
    1.4988   -0.5150    0.4663 C   0  0  0  0  0  0  0  0  0  0  0  0
    2.4104   -0.7853   -0.6318 N   0  0  0  0  0  0  0  0  0  0  0  0
    3.7738   -0.4649   -0.5451 C   0  0  0  0  0  0  0  0  0  0  0  0
    4.1283    0.0614    0.5748 O   0  0  0  0  0  0  0  0  0  0  0  0
    4.7631   -0.6831   -1.5993 C   0  0  1  0  0  0  0  0  0  0  0  0
    6.1098   -0.3725   -1.1187 N   0  0  0  0  0  0  0  0  0  0  0  0
    6.7275    0.9017   -1.2513 C   0  0  0  0  0  0  0  0  0  0  0  0
    6.1070    1.8470   -1.7947 O   0  0  0  0  0  0  0  0  0  0  0  0
    8.0997    1.1433   -0.7558 C   0  0  1  0  0  0  0  0  0  0  0  0
    8.9802    0.0308   -0.9196 N   0  0  0  0  0  0  0  0  0  0  0  0
    8.6028    2.4691   -1.2171 C   0  0  0  0  0  0  0  0  0  0  0  0
    9.9851    2.7398   -0.7690 C   0  0  0  0  0  0  0  0  0  0  0  0
   11.1371    2.7424   -1.5428 C   0  0  0  0  0  0  0  0  0  0  0  0
   12.1735    3.0376   -0.7441 N   0  0  0  0  0  0  0  0  0  0  0  0
   11.7498    3.2290    0.5262 C   0  0  0  0  0  0  0  0  0  0  0  0
   12.4628    3.5317    1.6710 C   0  0  0  0  0  0  0  0  0  0  0  0
   11.7895    3.6583    2.8713 C   0  0  0  0  0  0  0  0  0  0  0  0
   10.4211    3.4803    2.9011 C   0  0  0  0  0  0  0  0  0  0  0  0
    9.7395    3.1808    1.7450 C   0  0  0  0  0  0  0  0  0  0  0  0
   10.3866    3.0449    0.5134 C   0  0  0  0  0  0  0  0  0  0  0  0
    4.8411   -2.0173   -2.2549 C   0  0  0  0  0  0  0  0  0  0  0  0
    6.0242   -1.9566   -3.2663 C   0  0  0  0  0  0  0  0  0  0  0  0
    3.6418   -2.3677   -3.1310 C   0  0  0  0  0  0  0  0  0  0  0  0
   -5.2345    0.3746    0.7326 C   0  0  0  0  0  0  0  0  0  0  0  0
   -4.1933    0.8592    1.2332 O   0  0  0  0  0  0  0  0  0  0  0  0
   -6.4554    0.5471    1.4038 N   0  0  0  0  0  0  0  0  0  0  0  0
   -6.5215    1.3205    2.6340 C   0  0  1  0  0  0  0  0  0  0  0  0
   -7.8762    1.7659    3.0193 C   0  0  0  0  0  0  0  0  0  0  0  0
   -8.5573    2.6130    1.9822 C   0  0  0  0  0  0  0  0  0  0  0  0
   -8.4186    3.9801    1.9495 C   0  0  0  0  0  0  0  0  0  0  0  0
   -9.0663    4.7646    0.9954 C   0  0  0  0  0  0  0  0  0  0  0  0
   -9.8667    4.1406    0.0615 C   0  0  0  0  0  0  0  0  0  0  0  0
  -10.0179    2.7585    0.0799 C   0  0  0  0  0  0  0  0  0  0  0  0
   -9.3640    2.0306    1.0352 C   0  0  0  0  0  0  0  0  0  0  0  0
   -5.9677    0.4353    3.7490 C   0  0  0  0  0  0  0  0  0  0  0  0
   -5.8723    0.8765    5.0831 N   0  0  0  0  0  0  0  0  0  0  0  0
   -5.5948   -0.7166    3.4246 O   0  0  0  0  0  0  0  0  0  0  0  0
   -8.2472   -2.3377   -1.9183 H   0  0  0  0  0  0  0  0  0  0  0  0
   -8.5369   -0.9384   -2.9736 H   0  0  0  0  0  0  0  0  0  0  0  0
   -7.8358   -2.5347   -3.6259 H   0  0  0  0  0  0  0  0  0  0  0  0
   -5.7549   -2.1696   -2.6462 H   0  0  0  0  0  0  0  0  0  0  0  0
   -5.0364    0.0395   -3.4975 H   0  0  0  0  0  0  0  0  0  0  0  0
   -6.6887    0.7298   -3.0467 H   0  0  0  0  0  0  0  0  0  0  0  0
   -6.4726   -0.4496   -4.4465 H   0  0  0  0  0  0  0  0  0  0  0  0
   -6.7398   -1.7931   -0.4695 H   0  0  0  0  0  0  0  0  0  0  0  0
   -7.2920   -0.1455   -0.9257 H   0  0  0  0  0  0  0  0  0  0  0  0
   -4.8566    0.4832   -1.3066 H   0  0  0  0  0  0  0  0  0  0  0  0
   -4.4397   -2.3469   -0.6717 H   0  0  0  0  0  0  0  0  0  0  0  0
   -1.7813   -2.4326   -2.0211 H   0  0  0  0  0  0  0  0  0  0  0  0
   -1.0286   -4.1799   -0.6131 H   0  0  0  0  0  0  0  0  0  0  0  0
   -2.7686   -4.0653   -0.8217 H   0  0  0  0  0  0  0  0  0  0  0  0
   -4.2143   -3.5866    1.3033 H   0  0  0  0  0  0  0  0  0  0  0  0
   -4.3553   -4.0562    3.6661 H   0  0  0  0  0  0  0  0  0  0  0  0
   -2.4023   -4.5568    4.9535 H   0  0  0  0  0  0  0  0  0  0  0  0
   -0.1839   -4.5952    3.8943 H   0  0  0  0  0  0  0  0  0  0  0  0
    0.0398   -4.1169    1.5018 H   0  0  0  0  0  0  0  0  0  0  0  0
    0.3009   -2.0125   -1.5244 H   0  0  0  0  0  0  0  0  0  0  0  0
    1.4502    0.6045    0.6078 H   0  0  0  0  0  0  0  0  0  0  0  0
    1.9190   -0.9227    1.4302 H   0  0  0  0  0  0  0  0  0  0  0  0
    2.0261   -1.2046   -1.4881 H   0  0  0  0  0  0  0  0  0  0  0  0
    4.4837    0.0844   -2.3959 H   0  0  0  0  0  0  0  0  0  0  0  0
    6.6317   -1.1399   -0.6486 H   0  0  0  0  0  0  0  0  0  0  0  0
    7.9578    1.2060    0.3893 H   0  0  0  0  0  0  0  0  0  0  0  0
    9.7548   -0.0608   -0.2631 H   0  0  0  0  0  0  0  0  0  0  0  0
    9.1991   -0.1726   -1.9241 H   0  0  0  0  0  0  0  0  0  0  0  0
    7.9425    3.2412   -0.7563 H   0  0  0  0  0  0  0  0  0  0  0  0
    8.5277    2.5113   -2.3301 H   0  0  0  0  0  0  0  0  0  0  0  0
   11.1276    2.5309   -2.5998 H   0  0  0  0  0  0  0  0  0  0  0  0
   13.1589    3.1009   -1.0777 H   0  0  0  0  0  0  0  0  0  0  0  0
   13.5390    3.6663    1.6270 H   0  0  0  0  0  0  0  0  0  0  0  0
   12.3446    3.8936    3.7732 H   0  0  0  0  0  0  0  0  0  0  0  0
    9.9215    3.5817    3.8517 H   0  0  0  0  0  0  0  0  0  0  0  0
    8.6631    3.0366    1.7359 H   0  0  0  0  0  0  0  0  0  0  0  0
    5.1084   -2.8087   -1.5484 H   0  0  0  0  0  0  0  0  0  0  0  0
    6.6700   -2.8531   -3.1466 H   0  0  0  0  0  0  0  0  0  0  0  0
    5.6429   -1.8549   -4.2912 H   0  0  0  0  0  0  0  0  0  0  0  0
    6.6367   -1.0866   -3.0279 H   0  0  0  0  0  0  0  0  0  0  0  0
    3.1348   -1.4779   -3.4838 H   0  0  0  0  0  0  0  0  0  0  0  0
    2.9530   -3.0343   -2.5974 H   0  0  0  0  0  0  0  0  0  0  0  0
    4.0234   -2.8963   -4.0626 H   0  0  0  0  0  0  0  0  0  0  0  0
   -7.3288    0.1137    1.0394 H   0  0  0  0  0  0  0  0  0  0  0  0
   -5.8046    2.1773    2.6123 H   0  0  0  0  0  0  0  0  0  0  0  0
   -7.7720    2.4062    3.9329 H   0  0  0  0  0  0  0  0  0  0  0  0
   -8.5460    0.9031    3.2407 H   0  0  0  0  0  0  0  0  0  0  0  0
   -7.7994    4.4640    2.6751 H   0  0  0  0  0  0  0  0  0  0  0  0
   -8.9312    5.8632    1.0002 H   0  0  0  0  0  0  0  0  0  0  0  0
  -10.3697    4.7668   -0.6832 H   0  0  0  0  0  0  0  0  0  0  0  0
  -10.6642    2.2867   -0.6797 H   0  0  0  0  0  0  0  0  0  0  0  0
   -9.4871    0.9630    1.0549 H   0  0  0  0  0  0  0  0  0  0  0  0
   -4.9671    0.7425    5.5570 H   0  0  0  0  0  0  0  0  0  0  0  0
   -6.7230    1.3211    5.5430 H   0  0  0  0  0  0  0  0  0  0  0  0
  1  2  1  0
  2  3  1  0
  2  4  1  0
  4  5  1  0
  5  6  1  0
  6  7  1  0
  7  8  2  0
  7  9  1  0
  9 10  1  0
 10 11  1  0
 11 12  2  0
 12 13  1  0
 13 14  2  0
 14 15  1  0
 15 16  2  0
  9 17  1  0
 17 18  1  0
 18 19  2  0
 18 20  1  0
 20 21  1  0
 21 22  1  0
 22 23  2  0
 22 24  1  0
 24 25  1  0
 25 26  1  0
 26 27  2  0
 26 28  1  0
 28 29  1  0
 28 30  1  0
 30 31  1  0
 31 32  2  0
 32 33  1  0
 33 34  1  0
 34 35  2  0
 35 36  1  0
 36 37  2  0
 37 38  1  0
 38 39  2  0
 24 40  1  0
 40 41  1  0
 40 42  1  0
  5 43  1  0
 43 44  2  0
 43 45  1  0
 45 46  1  0
 46 47  1  0
 47 48  1  0
 48 49  2  0
 49 50  1  0
 50 51  2  0
 51 52  1  0
 52 53  2  0
 46 54  1  0
 54 55  1  0
 54 56  2  0
 16 11  1  0
 39 31  1  0
 53 48  1  0
 39 34  1  0
  1 57  1  0
  1 58  1  0
  1 59  1  0
  2 60  1  0
  3 61  1  0
  3 62  1  0
  3 63  1  0
  4 64  1  0
  4 65  1  0
  5 66  1  6
  6 67  1  0
  9 68  1  6
 10 69  1  0
 10 70  1  0
 12 71  1  0
 13 72  1  0
 14 73  1  0
 15 74  1  0
 16 75  1  0
 17 76  1  0
 20 77  1  0
 20 78  1  0
 21 79  1  0
 24 80  1  6
 25 81  1  0
 28 82  1  1
 29 83  1  0
 29 84  1  0
 30 85  1  0
 30 86  1  0
 32 87  1  0
 33 88  1  0
 35 89  1  0
 36 90  1  0
 37 91  1  0
 38 92  1  0
 40 93  1  0
 41 94  1  0
 41 95  1  0
 41 96  1  0
 42 97  1  0
 42 98  1  0
 42 99  1  0
 45100  1  0
 46101  1  6
 47102  1  0
 47103  1  0
 49104  1  0
 50105  1  0
 51106  1  0
 52107  1  0
 53108  1  0
 55109  1  0
 55110  1  0
M  END
$$$$
[H]c1nc([H])n(-c2c([H])c([H])c([H])c(C3=Nc4c([H])c(C([H])([H])[H])c(C(F)(F)F)c([H])c4N([H])C(=O)C3([H])[H])c2[H])c1[H]
     RDKit          3D

 43 46  0  0  0  0  0  0  0  0999 V2000
   -5.2728   -1.7520    0.8609 C   0  0  0  0  0  0  0  0  0  0  0  0
   -4.3031   -0.7638    0.2689 C   0  0  0  0  0  0  0  0  0  0  0  0
   -2.9516   -1.0039    0.2670 C   0  0  0  0  0  0  0  0  0  0  0  0
   -2.0712   -0.0987   -0.2736 C   0  0  0  0  0  0  0  0  0  0  0  0
   -0.7200   -0.5215   -0.1845 N   0  0  0  0  0  0  0  0  0  0  0  0
    0.3884    0.1940   -0.1581 C   0  0  0  0  0  0  0  0  0  0  0  0
    0.4944    1.6580   -0.2174 C   0  0  0  0  0  0  0  0  0  0  0  0
   -0.3669    2.2681   -1.2974 C   0  0  0  0  0  0  0  0  0  0  0  0
    0.1912    2.9921   -2.1617 O   0  0  0  0  0  0  0  0  0  0  0  0
   -1.7699    2.0842   -1.4098 N   0  0  0  0  0  0  0  0  0  0  0  0
   -2.5935    1.0801   -0.8245 C   0  0  0  0  0  0  0  0  0  0  0  0
   -3.9365    1.3367   -0.8319 C   0  0  0  0  0  0  0  0  0  0  0  0
   -4.7877    0.4100   -0.2830 C   0  0  0  0  0  0  0  0  0  0  0  0
   -6.2358    0.6843   -0.2918 C   0  0  0  0  0  0  0  0  0  0  0  0
   -6.7667    0.7174    1.0055 F   0  0  0  0  0  0  0  0  0  0  0  0
   -6.4369    1.9586   -0.7841 F   0  0  0  0  0  0  0  0  0  0  0  0
   -6.9555   -0.1597   -1.1140 F   0  0  0  0  0  0  0  0  0  0  0  0
    1.6125   -0.6184   -0.0555 C   0  0  0  0  0  0  0  0  0  0  0  0
    1.5241   -2.0007   -0.0411 C   0  0  0  0  0  0  0  0  0  0  0  0
    2.6666   -2.7487    0.0652 C   0  0  0  0  0  0  0  0  0  0  0  0
    3.9007   -2.1437    0.1579 C   0  0  0  0  0  0  0  0  0  0  0  0
    4.0201   -0.7790    0.1465 C   0  0  0  0  0  0  0  0  0  0  0  0
    2.8394   -0.0297    0.0372 C   0  0  0  0  0  0  0  0  0  0  0  0
    5.2891   -0.1457    0.2416 N   0  0  0  0  0  0  0  0  0  0  0  0
    5.5965    1.0974   -0.1716 C   0  0  0  0  0  0  0  0  0  0  0  0
    6.9254    1.3414    0.0958 C   0  0  0  0  0  0  0  0  0  0  0  0
    7.4189    0.2250    0.6785 N   0  0  0  0  0  0  0  0  0  0  0  0
    6.4013   -0.6809    0.7616 C   0  0  0  0  0  0  0  0  0  0  0  0
   -4.6950   -2.6736    1.1654 H   0  0  0  0  0  0  0  0  0  0  0  0
   -5.6838   -1.3639    1.8112 H   0  0  0  0  0  0  0  0  0  0  0  0
   -6.0086   -2.0814    0.1287 H   0  0  0  0  0  0  0  0  0  0  0  0
   -2.6148   -1.9391    0.7113 H   0  0  0  0  0  0  0  0  0  0  0  0
    0.1364    2.0339    0.7748 H   0  0  0  0  0  0  0  0  0  0  0  0
    1.4996    2.0027   -0.4346 H   0  0  0  0  0  0  0  0  0  0  0  0
   -2.3055    2.7741   -2.0051 H   0  0  0  0  0  0  0  0  0  0  0  0
   -4.2630    2.2653   -1.2737 H   0  0  0  0  0  0  0  0  0  0  0  0
    0.5404   -2.4357   -0.1157 H   0  0  0  0  0  0  0  0  0  0  0  0
    2.5929   -3.8494    0.0764 H   0  0  0  0  0  0  0  0  0  0  0  0
    4.7813   -2.7766    0.2406 H   0  0  0  0  0  0  0  0  0  0  0  0
    3.0167    1.0336    0.0421 H   0  0  0  0  0  0  0  0  0  0  0  0
    4.9212    1.8047   -0.6404 H   0  0  0  0  0  0  0  0  0  0  0  0
    7.4207    2.2623   -0.1368 H   0  0  0  0  0  0  0  0  0  0  0  0
    6.5611   -1.6580    1.1967 H   0  0  0  0  0  0  0  0  0  0  0  0
  1  2  1  0
  2  3  2  0
  3  4  1  0
  4  5  1  0
  5  6  2  0
  6  7  1  0
  7  8  1  0
  8  9  2  0
  8 10  1  0
 10 11  1  0
 11 12  1  0
 12 13  2  0
 13 14  1  0
 14 15  1  0
 14 16  1  0
 14 17  1  0
  6 18  1  0
 18 19  2  0
 19 20  1  0
 20 21  2  0
 21 22  1  0
 22 23  2  0
 22 24  1  0
 24 25  1  0
 25 26  2  0
 26 27  1  0
 27 28  2  0
 13  2  1  0
 23 18  1  0
 28 24  1  0
 11  4  2  0
  1 29  1  0
  1 30  1  0
  1 31  1  0
  3 32  1  0
  7 33  1  0
  7 34  1  0
 10 35  1  0
 12 36  1  0
 19 37  1  0
 20 38  1  0
 21 39  1  0
 23 40  1  0
 25 41  1  0
 26 42  1  0
 28 43  1  0
M  END
$$$$
[H]c1c([H])c(C([H])([H])N([H])C(=O)c2nc(-c3c([H])c([H])c(OC([H])([H])[H])c4nc(C(F)(F)F)c([H])c([H])c34)oc2C([H])([H])N([H])[H])c([H])c([H])c1F
     RDKit          3D

 52 55  0  0  0  0  0  0  0  0999 V2000
   -7.0309   -2.1214   -1.9490 C   0  0  0  0  0  0  0  0  0  0  0  0
   -5.8834   -1.6684   -1.6638 O   0  0  0  0  0  0  0  0  0  0  0  0
   -4.6618   -1.3037   -1.4857 C   0  0  0  0  0  0  0  0  0  0  0  0
   -3.6037   -1.8034   -2.2061 C   0  0  0  0  0  0  0  0  0  0  0  0
   -2.3149   -1.3810   -1.9683 C   0  0  0  0  0  0  0  0  0  0  0  0
   -2.0520   -0.4447   -1.0015 C   0  0  0  0  0  0  0  0  0  0  0  0
   -0.7098    0.0047   -0.6741 C   0  0  0  0  0  0  0  0  0  0  0  0
    0.2835    0.5170   -1.3827 N   0  0  0  0  0  0  0  0  0  0  0  0
    1.3342    0.7791   -0.6337 C   0  0  0  0  0  0  0  0  0  0  0  0
    2.7129    1.2322   -0.9006 C   0  0  0  0  0  0  0  0  0  0  0  0
    3.1554    2.1990   -0.2394 O   0  0  0  0  0  0  0  0  0  0  0  0
    3.5147    0.5905   -1.8565 N   0  0  0  0  0  0  0  0  0  0  0  0
    4.8817    0.8339   -2.2338 C   0  0  0  0  0  0  0  0  0  0  0  0
    5.7253    0.3016   -1.1108 C   0  0  0  0  0  0  0  0  0  0  0  0
    5.1000   -0.3537   -0.0430 C   0  0  0  0  0  0  0  0  0  0  0  0
    5.8428   -0.8060    1.0218 C   0  0  0  0  0  0  0  0  0  0  0  0
    7.1771   -0.6608    1.1076 C   0  0  0  0  0  0  0  0  0  0  0  0
    7.9024   -1.0872    2.1937 F   0  0  0  0  0  0  0  0  0  0  0  0
    7.8368   -0.0195    0.0538 C   0  0  0  0  0  0  0  0  0  0  0  0
    7.0548    0.4400   -1.0215 C   0  0  0  0  0  0  0  0  0  0  0  0
    0.9748    0.3983    0.6689 C   0  0  0  0  0  0  0  0  0  0  0  0
    1.7079    0.4304    1.9404 C   0  0  0  0  0  0  0  0  0  0  0  0
    0.8769   -0.2053    3.0283 N   0  0  0  0  0  0  0  0  0  0  0  0
   -0.2398   -0.0453    0.5619 O   0  0  0  0  0  0  0  0  0  0  0  0
   -3.1261    0.0641   -0.2759 C   0  0  0  0  0  0  0  0  0  0  0  0
   -2.8759    1.0561    0.6746 C   0  0  0  0  0  0  0  0  0  0  0  0
   -3.9719    1.5918    1.3828 C   0  0  0  0  0  0  0  0  0  0  0  0
   -5.2119    1.1306    1.1151 C   0  0  0  0  0  0  0  0  0  0  0  0
   -5.4640    0.1824    0.1993 N   0  0  0  0  0  0  0  0  0  0  0  0
   -4.4289   -0.3203   -0.4708 C   0  0  0  0  0  0  0  0  0  0  0  0
   -6.3641    1.7065    1.8985 C   0  0  0  0  0  0  0  0  0  0  0  0
   -5.9590    2.5212    2.9087 F   0  0  0  0  0  0  0  0  0  0  0  0
   -7.0789    0.6476    2.4355 F   0  0  0  0  0  0  0  0  0  0  0  0
   -7.1707    2.4280    1.0576 F   0  0  0  0  0  0  0  0  0  0  0  0
   -7.2342   -2.2450   -3.0609 H   0  0  0  0  0  0  0  0  0  0  0  0
   -7.9516   -1.5378   -1.5715 H   0  0  0  0  0  0  0  0  0  0  0  0
   -7.1832   -3.1762   -1.5361 H   0  0  0  0  0  0  0  0  0  0  0  0
   -3.7956   -2.5625   -2.9827 H   0  0  0  0  0  0  0  0  0  0  0  0
   -1.4549   -1.7631   -2.5240 H   0  0  0  0  0  0  0  0  0  0  0  0
    3.0603   -0.2188   -2.4070 H   0  0  0  0  0  0  0  0  0  0  0  0
    5.1439    0.1770   -3.1252 H   0  0  0  0  0  0  0  0  0  0  0  0
    5.0800    1.8881   -2.4489 H   0  0  0  0  0  0  0  0  0  0  0  0
    4.0428   -0.5718   -0.0088 H   0  0  0  0  0  0  0  0  0  0  0  0
    5.3117   -1.3064    1.8447 H   0  0  0  0  0  0  0  0  0  0  0  0
    8.8781    0.0952    0.0941 H   0  0  0  0  0  0  0  0  0  0  0  0
    7.6167    0.9191   -1.8243 H   0  0  0  0  0  0  0  0  0  0  0  0
    1.9661    1.4253    2.3350 H   0  0  0  0  0  0  0  0  0  0  0  0
    2.6747   -0.1531    1.8858 H   0  0  0  0  0  0  0  0  0  0  0  0
    0.0902   -0.6493    2.4895 H   0  0  0  0  0  0  0  0  0  0  0  0
    1.4682   -0.9418    3.4840 H   0  0  0  0  0  0  0  0  0  0  0  0
   -1.9084    1.4308    0.8401 H   0  0  0  0  0  0  0  0  0  0  0  0
   -3.7389    2.3560    2.0896 H   0  0  0  0  0  0  0  0  0  0  0  0
  1  2  1  0
  2  3  1  0
  3  4  2  0
  4  5  1  0
  5  6  2  0
  6  7  1  0
  7  8  2  0
  8  9  1  0
  9 10  1  0
 10 11  2  0
 10 12  1  0
 12 13  1  0
 13 14  1  0
 14 15  2  0
 15 16  1  0
 16 17  2  0
 17 18  1  0
 17 19  1  0
 19 20  2  0
  9 21  2  0
 21 22  1  0
 22 23  1  0
 21 24  1  0
  6 25  1  0
 25 26  2  0
 26 27  1  0
 27 28  2  0
 28 29  1  0
 29 30  2  0
 28 31  1  0
 31 32  1  0
 31 33  1  0
 31 34  1  0
 30  3  1  0
 24  7  1  0
 30 25  1  0
 20 14  1  0
  1 35  1  0
  1 36  1  0
  1 37  1  0
  4 38  1  0
  5 39  1  0
 12 40  1  0
 13 41  1  0
 13 42  1  0
 15 43  1  0
 16 44  1  0
 19 45  1  0
 20 46  1  0
 22 47  1  0
 22 48  1  0
 23 49  1  0
 23 50  1  0
 26 51  1  0
 27 52  1  0
M  END
$$$$
[H]/C(=C1/C(=O)N([H])c2c([H])c([H])c(N([H])S(=O)(=O)c3c([H])c([H])c(N4C([H])([H])C([H])([H])N(C([H])([H])[H])C([H])([H])C4([H])[H])c([H])c3[H])c([H])c21)c1c([H])c([H])c([H])c([H])c1[H]
     RDKit          3D

 60 64  0  0  0  0  0  0  0  0999 V2000
   -6.3518    0.7791   -2.9199 C   0  0  0  0  0  0  0  0  0  0  0  0
   -6.1616   -0.3669   -2.0863 N   0  0  0  0  0  0  0  0  0  0  0  0
   -6.5918   -0.1520   -0.7522 C   0  0  0  0  0  0  0  0  0  0  0  0
   -5.5131   -0.1447    0.2796 C   0  0  0  0  0  0  0  0  0  0  0  0
   -4.1934    0.0845   -0.2056 N   0  0  0  0  0  0  0  0  0  0  0  0
   -3.8462   -0.0548   -1.5954 C   0  0  0  0  0  0  0  0  0  0  0  0
   -4.8792   -0.9693   -2.2277 C   0  0  0  0  0  0  0  0  0  0  0  0
   -3.1789    0.4633    0.7240 C   0  0  0  0  0  0  0  0  0  0  0  0
   -1.9205    0.7665    0.2878 C   0  0  0  0  0  0  0  0  0  0  0  0
   -0.9059    1.1379    1.1777 C   0  0  0  0  0  0  0  0  0  0  0  0
   -1.1605    1.2053    2.5241 C   0  0  0  0  0  0  0  0  0  0  0  0
   -2.4211    0.9022    2.9665 C   0  0  0  0  0  0  0  0  0  0  0  0
   -3.4346    0.5315    2.0816 C   0  0  0  0  0  0  0  0  0  0  0  0
    0.0985    1.6653    3.6187 S   0  0  0  0  0  0  0  0  0  0  0  0
   -0.4597    2.3851    4.8350 O   0  0  0  0  0  0  0  0  0  0  0  0
    1.0371    2.6469    2.9699 O   0  0  0  0  0  0  0  0  0  0  0  0
    0.9226    0.2405    4.1086 N   0  0  0  0  0  0  0  0  0  0  0  0
    1.6094   -0.6086    3.2046 C   0  0  0  0  0  0  0  0  0  0  0  0
    1.4315   -1.9721    3.3098 C   0  0  0  0  0  0  0  0  0  0  0  0
    2.0795   -2.8385    2.4500 C   0  0  0  0  0  0  0  0  0  0  0  0
    2.9159   -2.3263    1.4733 C   0  0  0  0  0  0  0  0  0  0  0  0
    3.6781   -3.0081    0.4898 N   0  0  0  0  0  0  0  0  0  0  0  0
    4.3919   -2.0291   -0.2986 C   0  0  0  0  0  0  0  0  0  0  0  0
    5.1570   -2.3288   -1.2485 O   0  0  0  0  0  0  0  0  0  0  0  0
    4.0453   -0.7310    0.2277 C   0  0  0  0  0  0  0  0  0  0  0  0
    4.4236    0.4515   -0.1772 C   0  0  0  0  0  0  0  0  0  0  0  0
    5.3014    0.6622   -1.2955 C   0  0  0  0  0  0  0  0  0  0  0  0
    4.9914    0.2615   -2.5709 C   0  0  0  0  0  0  0  0  0  0  0  0
    5.8543    0.4579   -3.6249 C   0  0  0  0  0  0  0  0  0  0  0  0
    7.0662    1.0703   -3.4227 C   0  0  0  0  0  0  0  0  0  0  0  0
    7.3795    1.4742   -2.1426 C   0  0  0  0  0  0  0  0  0  0  0  0
    6.5244    1.2801   -1.0942 C   0  0  0  0  0  0  0  0  0  0  0  0
    3.1230   -0.9659    1.3324 C   0  0  0  0  0  0  0  0  0  0  0  0
    2.4500   -0.1381    2.2195 C   0  0  0  0  0  0  0  0  0  0  0  0
   -5.6927    0.7596   -3.8153 H   0  0  0  0  0  0  0  0  0  0  0  0
   -7.4234    0.9150   -3.2070 H   0  0  0  0  0  0  0  0  0  0  0  0
   -6.0758    1.6856   -2.3445 H   0  0  0  0  0  0  0  0  0  0  0  0
   -7.2461    0.7597   -0.7163 H   0  0  0  0  0  0  0  0  0  0  0  0
   -7.2940   -0.9961   -0.4849 H   0  0  0  0  0  0  0  0  0  0  0  0
   -5.7566    0.7158    0.9718 H   0  0  0  0  0  0  0  0  0  0  0  0
   -5.5600   -1.0465    0.9542 H   0  0  0  0  0  0  0  0  0  0  0  0
   -2.8690   -0.5558   -1.7623 H   0  0  0  0  0  0  0  0  0  0  0  0
   -3.9190    0.9383   -2.0570 H   0  0  0  0  0  0  0  0  0  0  0  0
   -4.8409   -1.9866   -1.8193 H   0  0  0  0  0  0  0  0  0  0  0  0
   -4.6438   -1.0475   -3.3100 H   0  0  0  0  0  0  0  0  0  0  0  0
   -1.6709    0.7300   -0.7556 H   0  0  0  0  0  0  0  0  0  0  0  0
    0.0554    1.3594    0.7459 H   0  0  0  0  0  0  0  0  0  0  0  0
   -2.6939    0.9345    4.0185 H   0  0  0  0  0  0  0  0  0  0  0  0
   -4.4136    0.2960    2.4347 H   0  0  0  0  0  0  0  0  0  0  0  0
    0.9186   -0.0134    5.1162 H   0  0  0  0  0  0  0  0  0  0  0  0
    0.7750   -2.3714    4.0766 H   0  0  0  0  0  0  0  0  0  0  0  0
    1.9308   -3.9084    2.5436 H   0  0  0  0  0  0  0  0  0  0  0  0
    3.7489   -4.0323    0.3196 H   0  0  0  0  0  0  0  0  0  0  0  0
    4.0626    1.3674    0.3536 H   0  0  0  0  0  0  0  0  0  0  0  0
    4.0135   -0.2199   -2.7497 H   0  0  0  0  0  0  0  0  0  0  0  0
    5.5920    0.1351   -4.6201 H   0  0  0  0  0  0  0  0  0  0  0  0
    7.7701    1.2364   -4.2530 H   0  0  0  0  0  0  0  0  0  0  0  0
    8.3593    1.9664   -1.9950 H   0  0  0  0  0  0  0  0  0  0  0  0
    6.8194    1.6189   -0.0971 H   0  0  0  0  0  0  0  0  0  0  0  0
    2.5921    0.9280    2.1342 H   0  0  0  0  0  0  0  0  0  0  0  0
  1  2  1  0
  2  3  1  0
  3  4  1  0
  4  5  1  0
  5  6  1  0
  6  7  1  0
  5  8  1  0
  8  9  2  0
  9 10  1  0
 10 11  2  0
 11 12  1  0
 12 13  2  0
 11 14  1  0
 14 15  2  0
 14 16  2  0
 14 17  1  0
 17 18  1  0
 18 19  2  0
 19 20  1  0
 20 21  2  0
 21 22  1  0
 22 23  1  0
 23 24  2  0
 23 25  1  0
 25 26  2  0
 26 27  1  0
 27 28  2  0
 28 29  1  0
 29 30  2  0
 30 31  1  0
 31 32  2  0
 25 33  1  0
 33 34  2  0
  7  2  1  0
 13  8  1  0
 34 18  1  0
 33 21  1  0
 32 27  1  0
  1 35  1  0
  1 36  1  0
  1 37  1  0
  3 38  1  0
  3 39  1  0
  4 40  1  0
  4 41  1  0
  6 42  1  0
  6 43  1  0
  7 44  1  0
  7 45  1  0
  9 46  1  0
 10 47  1  0
 12 48  1  0
 13 49  1  0
 17 50  1  0
 19 51  1  0
 20 52  1  0
 22 53  1  0
 26 54  1  0
 28 55  1  0
 29 56  1  0
 30 57  1  0
 31 58  1  0
 32 59  1  0
 34 60  1  0
M  END
$$$$
[H]c1c([H])c(S(=O)(=O)N([H])c2c([H])c(C(F)(F)F)c([H])c(C(F)(F)F)c2[H])c([H])c([H])c1OC([H])([H])[H]
     RDKit          3D

 37 38  0  0  0  0  0  0  0  0999 V2000
    5.9258    1.7749    0.8136 C   0  0  0  0  0  0  0  0  0  0  0  0
    5.5331    1.0889   -0.2947 O   0  0  0  0  0  0  0  0  0  0  0  0
    4.4741    0.3637   -0.5423 C   0  0  0  0  0  0  0  0  0  0  0  0
    3.5488    0.3224    0.4026 C   0  0  0  0  0  0  0  0  0  0  0  0
    2.3328   -0.2737    0.6298 C   0  0  0  0  0  0  0  0  0  0  0  0
    1.9710   -1.0591   -0.4339 C   0  0  0  0  0  0  0  0  0  0  0  0
    2.8598   -1.1364   -1.5816 C   0  0  0  0  0  0  0  0  0  0  0  0
    4.0682   -0.4575   -1.6434 C   0  0  0  0  0  0  0  0  0  0  0  0
    0.5557   -2.0637   -0.2428 S   0  0  0  0  0  0  0  0  0  0  0  0
    0.3362   -2.3224    1.2691 O   0  0  0  0  0  0  0  0  0  0  0  0
    0.8587   -3.4140   -0.9089 O   0  0  0  0  0  0  0  0  0  0  0  0
   -0.7756   -1.3799   -0.9549 N   0  0  0  0  0  0  0  0  0  0  0  0
   -1.9321   -0.6896   -0.5655 C   0  0  0  0  0  0  0  0  0  0  0  0
   -2.6567   -1.1436    0.5429 C   0  0  0  0  0  0  0  0  0  0  0  0
   -3.7101   -0.5524    1.0982 C   0  0  0  0  0  0  0  0  0  0  0  0
   -4.1153    0.6761    0.5090 C   0  0  0  0  0  0  0  0  0  0  0  0
   -3.4660    1.2341   -0.6217 C   0  0  0  0  0  0  0  0  0  0  0  0
   -2.3977    0.4328   -1.0589 C   0  0  0  0  0  0  0  0  0  0  0  0
   -3.8665    2.4937   -1.2567 C   0  0  0  0  0  0  0  0  0  0  0  0
   -4.5038    3.3813   -0.4052 F   0  0  0  0  0  0  0  0  0  0  0  0
   -2.8141    3.1768   -1.8645 F   0  0  0  0  0  0  0  0  0  0  0  0
   -4.8091    2.1900   -2.2404 F   0  0  0  0  0  0  0  0  0  0  0  0
   -4.4902   -1.1764    2.1920 C   0  0  0  0  0  0  0  0  0  0  0  0
   -5.6832   -0.5857    2.4383 F   0  0  0  0  0  0  0  0  0  0  0  0
   -4.6772   -2.5168    1.8693 F   0  0  0  0  0  0  0  0  0  0  0  0
   -3.6961   -1.1965    3.3745 F   0  0  0  0  0  0  0  0  0  0  0  0
    5.6257    2.8217    0.8916 H   0  0  0  0  0  0  0  0  0  0  0  0
    7.0545    1.7535    0.8960 H   0  0  0  0  0  0  0  0  0  0  0  0
    5.5959    1.3026    1.7797 H   0  0  0  0  0  0  0  0  0  0  0  0
    3.7778    1.0257    1.3340 H   0  0  0  0  0  0  0  0  0  0  0  0
    1.7440   -0.1375    1.5009 H   0  0  0  0  0  0  0  0  0  0  0  0
    2.5510   -1.7877   -2.3640 H   0  0  0  0  0  0  0  0  0  0  0  0
    4.7139   -0.5146   -2.4901 H   0  0  0  0  0  0  0  0  0  0  0  0
   -0.7679   -1.5310   -2.0986 H   0  0  0  0  0  0  0  0  0  0  0  0
   -2.3171   -2.0863    1.0268 H   0  0  0  0  0  0  0  0  0  0  0  0
   -4.9459    1.1654    0.9844 H   0  0  0  0  0  0  0  0  0  0  0  0
   -1.9023    0.8212   -1.9846 H   0  0  0  0  0  0  0  0  0  0  0  0
  1  2  1  0
  2  3  1  0
  3  4  2  0
  4  5  1  0
  5  6  2  0
  6  7  1  0
  7  8  2  0
  6  9  1  0
  9 10  2  0
  9 11  2  0
  9 12  1  0
 12 13  1  0
 13 14  2  0
 14 15  1  0
 15 16  2  0
 16 17  1  0
 17 18  2  0
 17 19  1  0
 19 20  1  0
 19 21  1  0
 19 22  1  0
 15 23  1  0
 23 24  1  0
 23 25  1  0
 23 26  1  0
  8  3  1  0
 18 13  1  0
  1 27  1  0
  1 28  1  0
  1 29  1  0
  4 30  1  0
  5 31  1  0
  7 32  1  0
  8 33  1  0
 12 34  1  0
 14 35  1  0
 16 36  1  0
 18 37  1  0
M  END
$$$$
[H]OC(=O)c1c([H])c([H])c(-c2c([H])c3c([H])c(Oc4c([H])nc(S(=O)(=O)C([H])([H])[H])c([H])c4[H])c(C4([H])N(C([H])([H])[H])C(=O)C([H])([H])C4([H])[H])c([H])c3n2[H])c([H])c1[H]
     RDKit          3D

 59 63  0  0  0  0  0  0  0  0999 V2000
   -2.9058   -3.4742   -0.9986 C   0  0  0  0  0  0  0  0  0  0  0  0
   -2.0398   -3.1904    0.1183 N   0  0  0  0  0  0  0  0  0  0  0  0
   -1.9110   -1.9028    0.8309 C   0  0  0  0  0  0  0  0  0  0  0  0
   -1.5817   -2.3365    2.2037 C   0  0  0  0  0  0  0  0  0  0  0  0
   -1.0049   -3.6882    2.1443 C   0  0  0  0  0  0  0  0  0  0  0  0
   -1.1495   -4.1085    0.7344 C   0  0  0  0  0  0  0  0  0  0  0  0
   -0.5798   -5.0962    0.2078 O   0  0  0  0  0  0  0  0  0  0  0  0
   -0.8215   -1.1208    0.1627 C   0  0  0  0  0  0  0  0  0  0  0  0
    0.4518   -1.1260    0.6574 C   0  0  0  0  0  0  0  0  0  0  0  0
    1.4728   -0.4933    0.0135 C   0  0  0  0  0  0  0  0  0  0  0  0
    2.7924   -0.3744    0.3255 N   0  0  0  0  0  0  0  0  0  0  0  0
    3.4171    0.3502   -0.6187 C   0  0  0  0  0  0  0  0  0  0  0  0
    2.4613    0.6936   -1.5464 C   0  0  0  0  0  0  0  0  0  0  0  0
    1.2419    0.1764   -1.1687 C   0  0  0  0  0  0  0  0  0  0  0  0
   -0.0390    0.1817   -1.6629 C   0  0  0  0  0  0  0  0  0  0  0  0
   -1.1018   -0.4682   -1.0029 C   0  0  0  0  0  0  0  0  0  0  0  0
   -2.3361   -0.3721   -1.6209 O   0  0  0  0  0  0  0  0  0  0  0  0
   -3.4279    0.3273   -1.1753 C   0  0  0  0  0  0  0  0  0  0  0  0
   -3.2691    1.3640   -0.2558 C   0  0  0  0  0  0  0  0  0  0  0  0
   -4.3312    2.0985    0.2250 C   0  0  0  0  0  0  0  0  0  0  0  0
   -5.6007    1.8025   -0.2153 C   0  0  0  0  0  0  0  0  0  0  0  0
   -5.7577    0.8078   -1.0981 N   0  0  0  0  0  0  0  0  0  0  0  0
   -4.7256    0.0856   -1.5728 C   0  0  0  0  0  0  0  0  0  0  0  0
   -6.9458    2.7392    0.3997 S   0  0  0  0  0  0  0  0  0  0  0  0
   -6.3749    3.9750    1.5328 C   0  0  0  0  0  0  0  0  0  0  0  0
   -7.7486    3.3644   -0.6905 O   0  0  0  0  0  0  0  0  0  0  0  0
   -7.8725    1.8279    1.1872 O   0  0  0  0  0  0  0  0  0  0  0  0
    4.8447    0.6929   -0.6240 C   0  0  0  0  0  0  0  0  0  0  0  0
    5.3883    1.4377   -1.6385 C   0  0  0  0  0  0  0  0  0  0  0  0
    6.7191    1.7617   -1.6441 C   0  0  0  0  0  0  0  0  0  0  0  0
    7.5609    1.3462   -0.6224 C   0  0  0  0  0  0  0  0  0  0  0  0
    6.9942    0.5989    0.3868 C   0  0  0  0  0  0  0  0  0  0  0  0
    5.6593    0.2626    0.4111 C   0  0  0  0  0  0  0  0  0  0  0  0
    8.9848    1.6884   -0.6187 C   0  0  0  0  0  0  0  0  0  0  0  0
    9.7728    1.2513    0.4162 O   0  0  0  0  0  0  0  0  0  0  0  0
    9.4387    2.3711   -1.5633 O   0  0  0  0  0  0  0  0  0  0  0  0
   -3.2232   -4.5346   -1.0518 H   0  0  0  0  0  0  0  0  0  0  0  0
   -2.3121   -3.2552   -1.9247 H   0  0  0  0  0  0  0  0  0  0  0  0
   -3.8363   -2.8746   -0.9818 H   0  0  0  0  0  0  0  0  0  0  0  0
   -2.8519   -1.3829    0.8047 H   0  0  0  0  0  0  0  0  0  0  0  0
   -0.9783   -1.6006    2.7829 H   0  0  0  0  0  0  0  0  0  0  0  0
   -2.5710   -2.4226    2.7576 H   0  0  0  0  0  0  0  0  0  0  0  0
    0.0759   -3.7702    2.4124 H   0  0  0  0  0  0  0  0  0  0  0  0
   -1.5377   -4.3920    2.8366 H   0  0  0  0  0  0  0  0  0  0  0  0
    0.6602   -1.6406    1.5843 H   0  0  0  0  0  0  0  0  0  0  0  0
    3.2237   -0.7837    1.1596 H   0  0  0  0  0  0  0  0  0  0  0  0
    2.6162    1.2745   -2.4364 H   0  0  0  0  0  0  0  0  0  0  0  0
   -0.2192    0.7153   -2.6034 H   0  0  0  0  0  0  0  0  0  0  0  0
   -2.2446    1.5725    0.0739 H   0  0  0  0  0  0  0  0  0  0  0  0
   -4.1471    2.9049    0.9495 H   0  0  0  0  0  0  0  0  0  0  0  0
   -4.9075   -0.7095   -2.2868 H   0  0  0  0  0  0  0  0  0  0  0  0
   -5.9042    4.8086    0.9901 H   0  0  0  0  0  0  0  0  0  0  0  0
   -5.6367    3.4918    2.2131 H   0  0  0  0  0  0  0  0  0  0  0  0
   -7.2648    4.3222    2.1360 H   0  0  0  0  0  0  0  0  0  0  0  0
    4.7626    1.7710   -2.4384 H   0  0  0  0  0  0  0  0  0  0  0  0
    7.1670    2.3591   -2.4533 H   0  0  0  0  0  0  0  0  0  0  0  0
    7.6174    0.2462    1.2178 H   0  0  0  0  0  0  0  0  0  0  0  0
    5.2114   -0.3240    1.2020 H   0  0  0  0  0  0  0  0  0  0  0  0
   10.6250    0.7707    0.2258 H   0  0  0  0  0  0  0  0  0  0  0  0
  1  2  1  0
  2  3  1  0
  3  4  1  0
  4  5  1  0
  5  6  1  0
  6  7  2  0
  3  8  1  0
  8  9  2  0
  9 10  1  0
 10 11  1  0
 11 12  1  0
 12 13  2  0
 13 14  1  0
 14 15  1  0
 15 16  2  0
 16 17  1  0
 17 18  1  0
 18 19  2  0
 19 20  1  0
 20 21  2  0
 21 22  1  0
 22 23  2  0
 21 24  1  0
 24 25  1  0
 24 26  2  0
 24 27  2  0
 12 28  1  0
 28 29  2  0
 29 30  1  0
 30 31  2  0
 31 32  1  0
 32 33  2  0
 31 34  1  0
 34 35  1  0
 34 36  2  0
  6  2  1  0
 16  8  1  0
 23 18  1  0
 33 28  1  0
 14 10  2  0
  1 37  1  0
  1 38  1  0
  1 39  1  0
  3 40  1  0
  4 41  1  0
  4 42  1  0
  5 43  1  0
  5 44  1  0
  9 45  1  0
 11 46  1  0
 13 47  1  0
 15 48  1  0
 19 49  1  0
 20 50  1  0
 23 51  1  0
 25 52  1  0
 25 53  1  0
 25 54  1  0
 29 55  1  0
 30 56  1  0
 32 57  1  0
 33 58  1  0
 35 59  1  0
M  END
$$$$
[H]N=C(c1c([H])c([H])c([H])c(C([H])([H])[C@@]([H])(C(=O)N2C([H])([H])C([H])([H])C([H])([H])[C@@]2([H])C(=O)N([H])[C@]([H])(C([H])=O)C([H])([H])C([H])([H])C([H])([H])N([H])C(=N[H])N([H])[H])N([H])C(=O)OC(C([H])([H])[H])(C([H])([H])[H])C([H])([H])[H])c1[H])N([H])[H]
     RDKit          3D

 79 80  0  0  0  0  0  0  0  0999 V2000
   -7.1967    2.6302    0.1839 C   0  0  0  0  0  0  0  0  0  0  0  0
   -6.0914    3.3420   -0.6124 C   0  0  0  0  0  0  0  0  0  0  0  0
   -6.6378    3.6262   -2.0003 C   0  0  0  0  0  0  0  0  0  0  0  0
   -5.7589    4.6461    0.0364 C   0  0  0  0  0  0  0  0  0  0  0  0
   -4.9983    2.4797   -0.7822 O   0  0  0  0  0  0  0  0  0  0  0  0
   -4.2976    1.9594    0.2866 C   0  0  0  0  0  0  0  0  0  0  0  0
   -4.6596    2.2827    1.4453 O   0  0  0  0  0  0  0  0  0  0  0  0
   -3.1920    1.0798    0.1173 N   0  0  0  0  0  0  0  0  0  0  0  0
   -2.4486    0.5345    1.2644 C   0  0  1  0  0  0  0  0  0  0  0  0
   -2.7799   -0.9197    1.4250 C   0  0  0  0  0  0  0  0  0  0  0  0
   -2.4835   -1.7598    0.2545 C   0  0  0  0  0  0  0  0  0  0  0  0
   -1.3025   -2.4423    0.1633 C   0  0  0  0  0  0  0  0  0  0  0  0
   -1.0913   -3.2009   -0.9688 C   0  0  0  0  0  0  0  0  0  0  0  0
   -2.0307   -3.2883   -1.9998 C   0  0  0  0  0  0  0  0  0  0  0  0
   -3.2229   -2.6025   -1.9126 C   0  0  0  0  0  0  0  0  0  0  0  0
   -3.4132   -1.8432   -0.7602 C   0  0  0  0  0  0  0  0  0  0  0  0
   -4.2233   -2.6661   -2.9580 C   0  0  0  0  0  0  0  0  0  0  0  0
   -5.4215   -1.9305   -2.8074 N   0  0  0  0  0  0  0  0  0  0  0  0
   -4.0305   -3.3716   -3.9996 N   0  0  0  0  0  0  0  0  0  0  0  0
   -1.0166    0.8239    1.1904 C   0  0  0  0  0  0  0  0  0  0  0  0
   -0.6272    1.2869    0.0417 O   0  0  0  0  0  0  0  0  0  0  0  0
   -0.0557    0.6626    2.2133 N   0  0  0  0  0  0  0  0  0  0  0  0
   -0.2315    0.1586    3.5464 C   0  0  0  0  0  0  0  0  0  0  0  0
    0.4642    1.2588    4.3692 C   0  0  0  0  0  0  0  0  0  0  0  0
    1.6823    1.5485    3.5360 C   0  0  0  0  0  0  0  0  0  0  0  0
    1.3325    1.0377    2.1371 C   0  0  1  0  0  0  0  0  0  0  0  0
    2.2755   -0.0350    1.8162 C   0  0  0  0  0  0  0  0  0  0  0  0
    1.8816   -1.2001    1.6351 O   0  0  0  0  0  0  0  0  0  0  0  0
    3.6643    0.2274    1.7043 N   0  0  0  0  0  0  0  0  0  0  0  0
    4.6234   -0.8250    1.3865 C   0  0  1  0  0  0  0  0  0  0  0  0
    5.3153   -0.4740    0.1145 C   0  0  0  0  0  0  0  0  0  0  0  0
    6.3353   -1.4883   -0.3195 C   0  0  0  0  0  0  0  0  0  0  0  0
    6.9429   -0.9895   -1.6164 C   0  0  0  0  0  0  0  0  0  0  0  0
    7.9379   -1.8687   -2.1410 N   0  0  0  0  0  0  0  0  0  0  0  0
    8.5866   -1.5270   -3.3488 C   0  0  0  0  0  0  0  0  0  0  0  0
    8.2784   -2.2335   -4.5375 N   0  0  0  0  0  0  0  0  0  0  0  0
    9.4465   -0.5816   -3.3563 N   0  0  0  0  0  0  0  0  0  0  0  0
    5.5530   -1.0657    2.5132 C   0  0  0  0  0  0  0  0  0  0  0  0
    5.4872   -0.4439    3.5567 O   0  0  0  0  0  0  0  0  0  0  0  0
   -8.1822    2.7839   -0.3243 H   0  0  0  0  0  0  0  0  0  0  0  0
   -7.2051    2.9335    1.2415 H   0  0  0  0  0  0  0  0  0  0  0  0
   -7.0175    1.5218    0.1510 H   0  0  0  0  0  0  0  0  0  0  0  0
   -6.6895    4.7159   -2.2094 H   0  0  0  0  0  0  0  0  0  0  0  0
   -7.6993    3.2624   -2.1046 H   0  0  0  0  0  0  0  0  0  0  0  0
   -6.0224    3.1824   -2.8045 H   0  0  0  0  0  0  0  0  0  0  0  0
   -4.7411    4.7099    0.4542 H   0  0  0  0  0  0  0  0  0  0  0  0
   -5.8949    5.4911   -0.6706 H   0  0  0  0  0  0  0  0  0  0  0  0
   -6.4873    4.8313    0.8774 H   0  0  0  0  0  0  0  0  0  0  0  0
   -2.8591    0.7823   -0.8175 H   0  0  0  0  0  0  0  0  0  0  0  0
   -2.9102    1.0432    2.1656 H   0  0  0  0  0  0  0  0  0  0  0  0
   -2.1953   -1.3305    2.2710 H   0  0  0  0  0  0  0  0  0  0  0  0
   -3.8598   -1.0378    1.7487 H   0  0  0  0  0  0  0  0  0  0  0  0
   -0.5362   -2.4338    0.9179 H   0  0  0  0  0  0  0  0  0  0  0  0
   -0.1607   -3.7463   -1.0538 H   0  0  0  0  0  0  0  0  0  0  0  0
   -1.7781   -3.9115   -2.8549 H   0  0  0  0  0  0  0  0  0  0  0  0
   -4.3567   -1.3055   -0.6996 H   0  0  0  0  0  0  0  0  0  0  0  0
   -5.8327   -1.4250   -3.6151 H   0  0  0  0  0  0  0  0  0  0  0  0
   -5.9018   -1.8837   -1.8981 H   0  0  0  0  0  0  0  0  0  0  0  0
   -3.2273   -3.9509   -4.2522 H   0  0  0  0  0  0  0  0  0  0  0  0
   -1.2903    0.0745    3.8743 H   0  0  0  0  0  0  0  0  0  0  0  0
    0.3383   -0.7717    3.7547 H   0  0  0  0  0  0  0  0  0  0  0  0
   -0.1912    2.1535    4.3367 H   0  0  0  0  0  0  0  0  0  0  0  0
    0.6982    0.9258    5.3884 H   0  0  0  0  0  0  0  0  0  0  0  0
    1.9217    2.6311    3.4940 H   0  0  0  0  0  0  0  0  0  0  0  0
    2.5192    0.9684    3.9747 H   0  0  0  0  0  0  0  0  0  0  0  0
    1.5090    1.8669    1.4171 H   0  0  0  0  0  0  0  0  0  0  0  0
    3.9866    1.2112    1.8571 H   0  0  0  0  0  0  0  0  0  0  0  0
    4.0449   -1.7654    1.2263 H   0  0  0  0  0  0  0  0  0  0  0  0
    5.8845    0.4819    0.3017 H   0  0  0  0  0  0  0  0  0  0  0  0
    4.6051   -0.2626   -0.6807 H   0  0  0  0  0  0  0  0  0  0  0  0
    5.7637   -2.4193   -0.5885 H   0  0  0  0  0  0  0  0  0  0  0  0
    7.0911   -1.6905    0.4461 H   0  0  0  0  0  0  0  0  0  0  0  0
    7.4534   -0.0206   -1.3556 H   0  0  0  0  0  0  0  0  0  0  0  0
    6.1371   -0.7420   -2.3187 H   0  0  0  0  0  0  0  0  0  0  0  0
    8.2108   -2.7574   -1.6725 H   0  0  0  0  0  0  0  0  0  0  0  0
    7.8249   -3.1852   -4.5216 H   0  0  0  0  0  0  0  0  0  0  0  0
    8.4759   -1.8643   -5.5030 H   0  0  0  0  0  0  0  0  0  0  0  0
    9.6562   -0.0777   -2.4732 H   0  0  0  0  0  0  0  0  0  0  0  0
    6.3229   -1.8167    2.4225 H   0  0  0  0  0  0  0  0  0  0  0  0
  1  2  1  0
  2  3  1  0
  2  4  1  0
  2  5  1  0
  5  6  1  0
  6  7  2  0
  6  8  1  0
  8  9  1  0
  9 10  1  0
 10 11  1  0
 11 12  2  0
 12 13  1  0
 13 14  2  0
 14 15  1  0
 15 16  2  0
 15 17  1  0
 17 18  1  0
 17 19  2  3
  9 20  1  0
 20 21  2  0
 20 22  1  0
 22 23  1  0
 23 24  1  0
 24 25  1  0
 25 26  1  0
 26 27  1  0
 27 28  2  0
 27 29  1  0
 29 30  1  0
 30 31  1  0
 31 32  1  0
 32 33  1  0
 33 34  1  0
 34 35  1  0
 35 36  1  0
 35 37  2  3
 30 38  1  0
 38 39  2  0
 16 11  1  0
 26 22  1  0
  1 40  1  0
  1 41  1  0
  1 42  1  0
  3 43  1  0
  3 44  1  0
  3 45  1  0
  4 46  1  0
  4 47  1  0
  4 48  1  0
  8 49  1  0
  9 50  1  1
 10 51  1  0
 10 52  1  0
 12 53  1  0
 13 54  1  0
 14 55  1  0
 16 56  1  0
 18 57  1  0
 18 58  1  0
 19 59  1  0
 23 60  1  0
 23 61  1  0
 24 62  1  0
 24 63  1  0
 25 64  1  0
 25 65  1  0
 26 66  1  6
 29 67  1  0
 30 68  1  6
 31 69  1  0
 31 70  1  0
 32 71  1  0
 32 72  1  0
 33 73  1  0
 33 74  1  0
 34 75  1  0
 36 76  1  0
 36 77  1  0
 37 78  1  0
 38 79  1  0
M  END
$$$$
[H]c1c([H])c([H])c(C([H])([H])[C@@]2([H])C(=O)N([H])[C@]([H])(C([H])([H])c3c([H])c([H])c([H])c([H])c3[H])C(=O)N([H])[C@@]([H])([C@@]([H])(C([H])([H])[H])C([H])([H])C([H])([H])[H])C(=O)N([H])[C@@]([H])(C([H])(C([H])([H])[H])C([H])([H])[H])C(=O)N2[H])c([H])c1[H]
     RDKit          3D

 75 77  0  0  0  0  0  0  0  0999 V2000
   -1.5929   -3.3472    2.3052 C   0  0  0  0  0  0  0  0  0  0  0  0
   -2.9374   -3.2068    1.6566 C   0  0  0  0  0  0  0  0  0  0  0  0
   -3.2422   -1.8345    1.1269 C   0  0  2  0  0  0  0  0  0  0  0  0
   -4.6031   -1.8097    0.5267 C   0  0  0  0  0  0  0  0  0  0  0  0
   -2.1445   -1.3552    0.1801 C   0  0  2  0  0  0  0  0  0  0  0  0
   -2.5160   -0.0355   -0.2730 N   0  0  0  0  0  0  0  0  0  0  0  0
   -1.7183    1.0680   -0.5550 C   0  0  0  0  0  0  0  0  0  0  0  0
   -1.8977    1.5739   -1.7323 O   0  0  0  0  0  0  0  0  0  0  0  0
   -0.7136    1.7369    0.2759 C   0  0  1  0  0  0  0  0  0  0  0  0
   -1.4806    2.7166    1.1882 C   0  0  0  0  0  0  0  0  0  0  0  0
   -2.2247    3.7101    0.4131 C   0  0  0  0  0  0  0  0  0  0  0  0
   -3.5293    3.4661    0.0604 C   0  0  0  0  0  0  0  0  0  0  0  0
   -4.2727    4.3649   -0.6680 C   0  0  0  0  0  0  0  0  0  0  0  0
   -3.6935    5.5482   -1.0577 C   0  0  0  0  0  0  0  0  0  0  0  0
   -2.3850    5.7903   -0.7025 C   0  0  0  0  0  0  0  0  0  0  0  0
   -1.6427    4.8918    0.0253 C   0  0  0  0  0  0  0  0  0  0  0  0
    0.1450    0.8996    1.0505 N   0  0  0  0  0  0  0  0  0  0  0  0
    1.4145    0.4002    0.8001 C   0  0  0  0  0  0  0  0  0  0  0  0
    2.1229    0.0831    1.8287 O   0  0  0  0  0  0  0  0  0  0  0  0
    2.1100    0.1630   -0.4758 C   0  0  2  0  0  0  0  0  0  0  0  0
    2.8983    1.4154   -0.8344 C   0  0  0  0  0  0  0  0  0  0  0  0
    3.9106    1.7795    0.1828 C   0  0  0  0  0  0  0  0  0  0  0  0
    5.1582    1.2190    0.0661 C   0  0  0  0  0  0  0  0  0  0  0  0
    6.1211    1.5526    0.9936 C   0  0  0  0  0  0  0  0  0  0  0  0
    5.8576    2.4314    2.0283 C   0  0  0  0  0  0  0  0  0  0  0  0
    4.6105    3.0014    2.1578 C   0  0  0  0  0  0  0  0  0  0  0  0
    3.6627    2.6499    1.2140 C   0  0  0  0  0  0  0  0  0  0  0  0
    1.2721   -0.1359   -1.5986 N   0  0  0  0  0  0  0  0  0  0  0  0
    0.8693   -1.4197   -2.0398 C   0  0  0  0  0  0  0  0  0  0  0  0
    0.6607   -1.5961   -3.2947 O   0  0  0  0  0  0  0  0  0  0  0  0
    0.6530   -2.6124   -1.2174 C   0  0  1  0  0  0  0  0  0  0  0  0
   -0.7219   -3.0641   -1.1613 N   0  0  0  0  0  0  0  0  0  0  0  0
   -1.8832   -2.2944   -0.9343 C   0  0  0  0  0  0  0  0  0  0  0  0
   -2.8176   -2.4128   -1.7747 O   0  0  0  0  0  0  0  0  0  0  0  0
    1.5343   -3.6880   -1.8765 C   0  0  0  0  0  0  0  0  0  0  0  0
    1.4502   -4.9975   -1.1697 C   0  0  0  0  0  0  0  0  0  0  0  0
    2.9619   -3.2732   -1.9991 C   0  0  0  0  0  0  0  0  0  0  0  0
   -0.9305   -3.9953    1.6978 H   0  0  0  0  0  0  0  0  0  0  0  0
   -1.0911   -2.3729    2.4676 H   0  0  0  0  0  0  0  0  0  0  0  0
   -1.6859   -3.8235    3.3202 H   0  0  0  0  0  0  0  0  0  0  0  0
   -3.7105   -3.4505    2.4439 H   0  0  0  0  0  0  0  0  0  0  0  0
   -3.0005   -3.9667    0.8270 H   0  0  0  0  0  0  0  0  0  0  0  0
   -3.1927   -1.1429    1.9981 H   0  0  0  0  0  0  0  0  0  0  0  0
   -5.1434   -2.7720    0.7801 H   0  0  0  0  0  0  0  0  0  0  0  0
   -4.7001   -1.5528   -0.5184 H   0  0  0  0  0  0  0  0  0  0  0  0
   -5.2140   -1.0368    1.0826 H   0  0  0  0  0  0  0  0  0  0  0  0
   -1.2668   -1.2244    0.8372 H   0  0  0  0  0  0  0  0  0  0  0  0
   -3.5654    0.1040   -0.4134 H   0  0  0  0  0  0  0  0  0  0  0  0
   -0.0882    2.4212   -0.3378 H   0  0  0  0  0  0  0  0  0  0  0  0
   -2.1920    2.1495    1.8229 H   0  0  0  0  0  0  0  0  0  0  0  0
   -0.7563    3.1880    1.9054 H   0  0  0  0  0  0  0  0  0  0  0  0
   -4.0294    2.5281    0.3557 H   0  0  0  0  0  0  0  0  0  0  0  0
   -5.2922    4.1732   -0.9432 H   0  0  0  0  0  0  0  0  0  0  0  0
   -4.2424    6.2988   -1.6397 H   0  0  0  0  0  0  0  0  0  0  0  0
   -1.9145    6.7286   -1.0074 H   0  0  0  0  0  0  0  0  0  0  0  0
   -0.5999    5.1216    0.2896 H   0  0  0  0  0  0  0  0  0  0  0  0
   -0.2923    0.6213    1.9919 H   0  0  0  0  0  0  0  0  0  0  0  0
    2.8910   -0.6350   -0.3434 H   0  0  0  0  0  0  0  0  0  0  0  0
    2.1985    2.2703   -0.9390 H   0  0  0  0  0  0  0  0  0  0  0  0
    3.4217    1.2711   -1.8215 H   0  0  0  0  0  0  0  0  0  0  0  0
    5.4160    0.5202   -0.7324 H   0  0  0  0  0  0  0  0  0  0  0  0
    7.1229    1.1384    0.9476 H   0  0  0  0  0  0  0  0  0  0  0  0
    6.6070    2.7054    2.7693 H   0  0  0  0  0  0  0  0  0  0  0  0
    4.3787    3.6828    2.9461 H   0  0  0  0  0  0  0  0  0  0  0  0
    2.6679    3.0945    1.3040 H   0  0  0  0  0  0  0  0  0  0  0  0
    0.9168    0.6678   -2.1646 H   0  0  0  0  0  0  0  0  0  0  0  0
    1.0034   -2.5078   -0.1809 H   0  0  0  0  0  0  0  0  0  0  0  0
   -0.8154   -4.1205   -1.3169 H   0  0  0  0  0  0  0  0  0  0  0  0
    1.1670   -3.8719   -2.9303 H   0  0  0  0  0  0  0  0  0  0  0  0
    1.4976   -4.8236   -0.0756 H   0  0  0  0  0  0  0  0  0  0  0  0
    0.6159   -5.6297   -1.4789 H   0  0  0  0  0  0  0  0  0  0  0  0
    2.3884   -5.5658   -1.4277 H   0  0  0  0  0  0  0  0  0  0  0  0
    3.5674   -3.4776   -1.0928 H   0  0  0  0  0  0  0  0  0  0  0  0
    3.4227   -3.8774   -2.8135 H   0  0  0  0  0  0  0  0  0  0  0  0
    3.0445   -2.2165   -2.3252 H   0  0  0  0  0  0  0  0  0  0  0  0
  1  2  1  0
  2  3  1  0
  3  4  1  0
  3  5  1  0
  5  6  1  0
  6  7  1  0
  7  8  2  0
  7  9  1  0
  9 10  1  0
 10 11  1  0
 11 12  2  0
 12 13  1  0
 13 14  2  0
 14 15  1  0
 15 16  2  0
  9 17  1  0
 17 18  1  0
 18 19  2  0
 18 20  1  0
 20 21  1  0
 21 22  1  0
 22 23  2  0
 23 24  1  0
 24 25  2  0
 25 26  1  0
 26 27  2  0
 20 28  1  0
 28 29  1  0
 29 30  2  0
 29 31  1  0
 31 32  1  0
 32 33  1  0
 33 34  2  0
 31 35  1  0
 35 36  1  0
 35 37  1  0
 33  5  1  0
 16 11  1  0
 27 22  1  0
  1 38  1  0
  1 39  1  0
  1 40  1  0
  2 41  1  0
  2 42  1  0
  3 43  1  1
  4 44  1  0
  4 45  1  0
  4 46  1  0
  5 47  1  1
  6 48  1  0
  9 49  1  6
 10 50  1  0
 10 51  1  0
 12 52  1  0
 13 53  1  0
 14 54  1  0
 15 55  1  0
 16 56  1  0
 17 57  1  0
 20 58  1  1
 21 59  1  0
 21 60  1  0
 23 61  1  0
 24 62  1  0
 25 63  1  0
 26 64  1  0
 27 65  1  0
 28 66  1  0
 31 67  1  1
 32 68  1  0
 35 69  1  0
 36 70  1  0
 36 71  1  0
 36 72  1  0
 37 73  1  0
 37 74  1  0
 37 75  1  0
M  END
$$$$
[H]c1nc(N([H])c2c([H])c(OC([H])([H])[H])c(OC([H])([H])[H])c(OC([H])([H])[H])c2[H])nc(N([H])c2nc3c(c([H])c2[H])OC(C([H])([H])[H])(C([H])([H])[H])C(=O)N3[H])c1F
     RDKit          3D

 57 60  0  0  0  0  0  0  0  0999 V2000
   -5.6364    2.1181   -1.8630 C   0  0  0  0  0  0  0  0  0  0  0  0
   -5.8443    0.7587   -1.5880 O   0  0  0  0  0  0  0  0  0  0  0  0
   -4.8072    0.0010   -1.0783 C   0  0  0  0  0  0  0  0  0  0  0  0
   -3.5618    0.6012   -0.8432 C   0  0  0  0  0  0  0  0  0  0  0  0
   -2.5031   -0.0703   -0.3477 C   0  0  0  0  0  0  0  0  0  0  0  0
   -1.2316    0.4626   -0.0655 N   0  0  0  0  0  0  0  0  0  0  0  0
   -0.9067    1.8244    0.0656 C   0  0  0  0  0  0  0  0  0  0  0  0
   -1.7494    2.8585   -0.0431 N   0  0  0  0  0  0  0  0  0  0  0  0
   -1.4116    4.1432    0.0863 C   0  0  0  0  0  0  0  0  0  0  0  0
   -0.1125    4.4539    0.3502 C   0  0  0  0  0  0  0  0  0  0  0  0
    0.3587    5.6995    0.5032 F   0  0  0  0  0  0  0  0  0  0  0  0
    0.8217    3.4140    0.4762 C   0  0  0  0  0  0  0  0  0  0  0  0
    2.1801    3.7060    0.7505 N   0  0  0  0  0  0  0  0  0  0  0  0
    3.1050    2.6399    0.8733 C   0  0  0  0  0  0  0  0  0  0  0  0
    4.4571    2.8965    1.1446 C   0  0  0  0  0  0  0  0  0  0  0  0
    5.3443    1.8517    1.2613 C   0  0  0  0  0  0  0  0  0  0  0  0
    4.9285    0.5481    1.1161 C   0  0  0  0  0  0  0  0  0  0  0  0
    5.7961   -0.5293    1.2273 O   0  0  0  0  0  0  0  0  0  0  0  0
    5.5066   -1.7939    0.6515 C   0  0  0  0  0  0  0  0  0  0  0  0
    6.2846   -2.8749    1.3459 C   0  0  0  0  0  0  0  0  0  0  0  0
    5.8127   -1.7705   -0.8228 C   0  0  0  0  0  0  0  0  0  0  0  0
    4.0556   -2.1122    0.8177 C   0  0  0  0  0  0  0  0  0  0  0  0
    3.6763   -3.3008    1.0572 O   0  0  0  0  0  0  0  0  0  0  0  0
    3.1427   -1.0383    0.6962 N   0  0  0  0  0  0  0  0  0  0  0  0
    3.5828    0.3027    0.8467 C   0  0  0  0  0  0  0  0  0  0  0  0
    2.7547    1.3550    0.7416 N   0  0  0  0  0  0  0  0  0  0  0  0
    0.3826    2.1601    0.3289 N   0  0  0  0  0  0  0  0  0  0  0  0
   -2.7045   -1.4372   -0.0691 C   0  0  0  0  0  0  0  0  0  0  0  0
   -3.9082   -2.0549   -0.2874 C   0  0  0  0  0  0  0  0  0  0  0  0
   -4.0666   -3.3859   -0.0045 O   0  0  0  0  0  0  0  0  0  0  0  0
   -2.9762   -4.1177    0.5153 C   0  0  0  0  0  0  0  0  0  0  0  0
   -4.9761   -1.3425   -0.7952 C   0  0  0  0  0  0  0  0  0  0  0  0
   -6.2188   -1.9257   -1.0338 O   0  0  0  0  0  0  0  0  0  0  0  0
   -7.1743   -1.9137    0.0186 C   0  0  0  0  0  0  0  0  0  0  0  0
   -4.7813    2.3111   -2.5387 H   0  0  0  0  0  0  0  0  0  0  0  0
   -5.4850    2.7232   -0.9417 H   0  0  0  0  0  0  0  0  0  0  0  0
   -6.5386    2.5082   -2.4098 H   0  0  0  0  0  0  0  0  0  0  0  0
   -3.4970    1.6360   -1.0973 H   0  0  0  0  0  0  0  0  0  0  0  0
   -0.4103   -0.2136    0.0641 H   0  0  0  0  0  0  0  0  0  0  0  0
   -2.1604    4.9024   -0.0184 H   0  0  0  0  0  0  0  0  0  0  0  0
    2.4712    4.6872    0.8556 H   0  0  0  0  0  0  0  0  0  0  0  0
    4.7318    3.9285    1.2492 H   0  0  0  0  0  0  0  0  0  0  0  0
    6.3943    2.0780    1.4734 H   0  0  0  0  0  0  0  0  0  0  0  0
    5.7812   -3.1588    2.2953 H   0  0  0  0  0  0  0  0  0  0  0  0
    7.3278   -2.5920    1.5737 H   0  0  0  0  0  0  0  0  0  0  0  0
    6.3119   -3.7970    0.7168 H   0  0  0  0  0  0  0  0  0  0  0  0
    5.5475   -2.7321   -1.2838 H   0  0  0  0  0  0  0  0  0  0  0  0
    5.2428   -0.9509   -1.3072 H   0  0  0  0  0  0  0  0  0  0  0  0
    6.8942   -1.5474   -0.9277 H   0  0  0  0  0  0  0  0  0  0  0  0
    2.1474   -1.2464    0.4955 H   0  0  0  0  0  0  0  0  0  0  0  0
   -1.8577   -2.0119    0.3366 H   0  0  0  0  0  0  0  0  0  0  0  0
   -2.2185   -4.1935   -0.2936 H   0  0  0  0  0  0  0  0  0  0  0  0
   -3.3828   -5.1246    0.7905 H   0  0  0  0  0  0  0  0  0  0  0  0
   -2.5554   -3.6060    1.4036 H   0  0  0  0  0  0  0  0  0  0  0  0
   -7.4919   -2.9486    0.2973 H   0  0  0  0  0  0  0  0  0  0  0  0
   -8.0902   -1.3564   -0.3279 H   0  0  0  0  0  0  0  0  0  0  0  0
   -6.7818   -1.4227    0.9319 H   0  0  0  0  0  0  0  0  0  0  0  0
  1  2  1  0
  2  3  1  0
  3  4  2  0
  4  5  1  0
  5  6  1  0
  6  7  1  0
  7  8  2  0
  8  9  1  0
  9 10  2  0
 10 11  1  0
 10 12  1  0
 12 13  1  0
 13 14  1  0
 14 15  2  0
 15 16  1  0
 16 17  2  0
 17 18  1  0
 18 19  1  0
 19 20  1  0
 19 21  1  0
 19 22  1  0
 22 23  2  0
 22 24  1  0
 24 25  1  0
 25 26  2  0
 12 27  2  0
  5 28  2  0
 28 29  1  0
 29 30  1  0
 30 31  1  0
 29 32  2  0
 32 33  1  0
 33 34  1  0
 32  3  1  0
 27  7  1  0
 26 14  1  0
 25 17  1  0
  1 35  1  0
  1 36  1  0
  1 37  1  0
  4 38  1  0
  6 39  1  0
  9 40  1  0
 13 41  1  0
 15 42  1  0
 16 43  1  0
 20 44  1  0
 20 45  1  0
 20 46  1  0
 21 47  1  0
 21 48  1  0
 21 49  1  0
 24 50  1  0
 28 51  1  0
 31 52  1  0
 31 53  1  0
 31 54  1  0
 34 55  1  0
 34 56  1  0
 34 57  1  0
M  END
$$$$
[H]c1c([H])c([H])c(-c2c([H])c([H])c([H])c([H])c2C(=O)N([H])C([H])([H])C2(c3c([H])c([H])c(OC([H])([H])[H])c(OC([H])([H])[H])c3[H])C([H])([H])C([H])([H])C([H])([H])C([H])([H])C2([H])[H])c([H])c1[H]
     RDKit          3D

 63 66  0  0  0  0  0  0  0  0999 V2000
    5.2678    4.5640   -0.2852 C   0  0  0  0  0  0  0  0  0  0  0  0
    5.5620    3.2073    0.0064 O   0  0  0  0  0  0  0  0  0  0  0  0
    4.4931    2.3210    0.0188 C   0  0  0  0  0  0  0  0  0  0  0  0
    3.1996    2.6571   -0.2295 C   0  0  0  0  0  0  0  0  0  0  0  0
    2.1588    1.7073   -0.2005 C   0  0  0  0  0  0  0  0  0  0  0  0
    2.4281    0.3963    0.0825 C   0  0  0  0  0  0  0  0  0  0  0  0
    3.7348    0.0548    0.3326 C   0  0  0  0  0  0  0  0  0  0  0  0
    4.7530    0.9967    0.3030 C   0  0  0  0  0  0  0  0  0  0  0  0
    6.0417    0.5878    0.5672 O   0  0  0  0  0  0  0  0  0  0  0  0
    6.4627   -0.7097    0.8719 C   0  0  0  0  0  0  0  0  0  0  0  0
    1.3380   -0.6258    0.1329 C   0  0  0  0  0  0  0  0  0  0  0  0
    0.0440    0.1483    0.3289 C   0  0  0  0  0  0  0  0  0  0  0  0
   -1.1310   -0.6630    0.4272 N   0  0  0  0  0  0  0  0  0  0  0  0
   -2.3974   -0.0452    0.6460 C   0  0  0  0  0  0  0  0  0  0  0  0
   -2.3878    1.1987    0.7392 O   0  0  0  0  0  0  0  0  0  0  0  0
   -3.6117   -0.8514    0.7532 C   0  0  0  0  0  0  0  0  0  0  0  0
   -3.5098   -2.1256    1.2939 C   0  0  0  0  0  0  0  0  0  0  0  0
   -4.5595   -2.9947    1.4147 C   0  0  0  0  0  0  0  0  0  0  0  0
   -5.7880   -2.5583    0.9662 C   0  0  0  0  0  0  0  0  0  0  0  0
   -5.9235   -1.3056    0.4282 C   0  0  0  0  0  0  0  0  0  0  0  0
   -4.8238   -0.4153    0.3100 C   0  0  0  0  0  0  0  0  0  0  0  0
   -5.1204    0.8936   -0.2429 C   0  0  0  0  0  0  0  0  0  0  0  0
   -5.1884    2.0015    0.5408 C   0  0  0  0  0  0  0  0  0  0  0  0
   -5.4661    3.2319   -0.0160 C   0  0  0  0  0  0  0  0  0  0  0  0
   -5.6809    3.3777   -1.3656 C   0  0  0  0  0  0  0  0  0  0  0  0
   -5.6152    2.2617   -2.1671 C   0  0  0  0  0  0  0  0  0  0  0  0
   -5.3328    1.0166   -1.5940 C   0  0  0  0  0  0  0  0  0  0  0  0
    1.5773   -1.4572    1.3575 C   0  0  0  0  0  0  0  0  0  0  0  0
    1.5242   -2.9174    1.1542 C   0  0  0  0  0  0  0  0  0  0  0  0
    2.2606   -3.4423   -0.0206 C   0  0  0  0  0  0  0  0  0  0  0  0
    2.2754   -2.5487   -1.2038 C   0  0  0  0  0  0  0  0  0  0  0  0
    1.2954   -1.4305   -1.1431 C   0  0  0  0  0  0  0  0  0  0  0  0
    6.1998    5.1103   -0.6121 H   0  0  0  0  0  0  0  0  0  0  0  0
    4.5733    4.6798   -1.1459 H   0  0  0  0  0  0  0  0  0  0  0  0
    4.8303    5.1123    0.5590 H   0  0  0  0  0  0  0  0  0  0  0  0
    2.9399    3.6859   -0.4617 H   0  0  0  0  0  0  0  0  0  0  0  0
    1.1632    2.0804   -0.4066 H   0  0  0  0  0  0  0  0  0  0  0  0
    3.9696   -0.9650    0.5511 H   0  0  0  0  0  0  0  0  0  0  0  0
    6.7135   -1.2366   -0.0738 H   0  0  0  0  0  0  0  0  0  0  0  0
    7.3634   -0.7239    1.5348 H   0  0  0  0  0  0  0  0  0  0  0  0
    5.7213   -1.3398    1.3934 H   0  0  0  0  0  0  0  0  0  0  0  0
   -0.1408    0.7513   -0.6334 H   0  0  0  0  0  0  0  0  0  0  0  0
    0.1488    0.9136    1.1161 H   0  0  0  0  0  0  0  0  0  0  0  0
   -1.0974   -1.6741    0.3397 H   0  0  0  0  0  0  0  0  0  0  0  0
   -2.5397   -2.4532    1.6468 H   0  0  0  0  0  0  0  0  0  0  0  0
   -4.4734   -3.9787    1.8369 H   0  0  0  0  0  0  0  0  0  0  0  0
   -6.6528   -3.2085    1.0395 H   0  0  0  0  0  0  0  0  0  0  0  0
   -6.9038   -0.9909    0.0849 H   0  0  0  0  0  0  0  0  0  0  0  0
   -5.0259    1.9041    1.6155 H   0  0  0  0  0  0  0  0  0  0  0  0
   -5.5216    4.1205    0.6060 H   0  0  0  0  0  0  0  0  0  0  0  0
   -5.9041    4.3608   -1.8109 H   0  0  0  0  0  0  0  0  0  0  0  0
   -5.7856    2.3917   -3.2111 H   0  0  0  0  0  0  0  0  0  0  0  0
   -5.2805    0.1321   -2.2210 H   0  0  0  0  0  0  0  0  0  0  0  0
    2.5201   -1.1465    1.8996 H   0  0  0  0  0  0  0  0  0  0  0  0
    0.7415   -1.2242    2.1106 H   0  0  0  0  0  0  0  0  0  0  0  0
    0.4513   -3.2317    1.0218 H   0  0  0  0  0  0  0  0  0  0  0  0
    1.8603   -3.4607    2.0890 H   0  0  0  0  0  0  0  0  0  0  0  0
    3.3170   -3.6715    0.3146 H   0  0  0  0  0  0  0  0  0  0  0  0
    1.8558   -4.4580   -0.2783 H   0  0  0  0  0  0  0  0  0  0  0  0
    3.3166   -2.2344   -1.4194 H   0  0  0  0  0  0  0  0  0  0  0  0
    1.9786   -3.1662   -2.1044 H   0  0  0  0  0  0  0  0  0  0  0  0
    0.2829   -1.8482   -1.3118 H   0  0  0  0  0  0  0  0  0  0  0  0
    1.4983   -0.7623   -2.0155 H   0  0  0  0  0  0  0  0  0  0  0  0
  1  2  1  0
  2  3  1  0
  3  4  2  0
  4  5  1  0
  5  6  2  0
  6  7  1  0
  7  8  2  0
  8  9  1  0
  9 10  1  0
  6 11  1  0
 11 12  1  0
 12 13  1  0
 13 14  1  0
 14 15  2  0
 14 16  1  0
 16 17  2  0
 17 18  1  0
 18 19  2  0
 19 20  1  0
 20 21  2  0
 21 22  1  0
 22 23  2  0
 23 24  1  0
 24 25  2  0
 25 26  1  0
 26 27  2  0
 11 28  1  0
 28 29  1  0
 29 30  1  0
 30 31  1  0
 31 32  1  0
  8  3  1  0
 32 11  1  0
 21 16  1  0
 27 22  1  0
  1 33  1  0
  1 34  1  0
  1 35  1  0
  4 36  1  0
  5 37  1  0
  7 38  1  0
 10 39  1  0
 10 40  1  0
 10 41  1  0
 12 42  1  0
 12 43  1  0
 13 44  1  0
 17 45  1  0
 18 46  1  0
 19 47  1  0
 20 48  1  0
 23 49  1  0
 24 50  1  0
 25 51  1  0
 26 52  1  0
 27 53  1  0
 28 54  1  0
 28 55  1  0
 29 56  1  0
 29 57  1  0
 30 58  1  0
 30 59  1  0
 31 60  1  0
 31 61  1  0
 32 62  1  0
 32 63  1  0
M  END
$$$$
[H]OB(O[H])[C@@]([H])(N([H])C(=O)[C@@]([H])(N([H])C(=O)c1nc([H])c([H])nc1[H])C([H])([H])c1c([H])c([H])c([H])c([H])c1[H])C([H])([H])C([H])(C([H])([H])[H])C([H])([H])[H]
     RDKit          3D

 53 54  0  0  0  0  0  0  0  0999 V2000
    5.2013    0.8170    0.0086 C   0  0  0  0  0  0  0  0  0  0  0  0
    4.3190    0.3937   -1.1321 C   0  0  0  0  0  0  0  0  0  0  0  0
    4.9295    1.0028   -2.4113 C   0  0  0  0  0  0  0  0  0  0  0  0
    2.8827    0.7336   -1.0208 C   0  0  0  0  0  0  0  0  0  0  0  0
    2.1858    0.1339    0.1544 C   0  0  2  0  0  0  0  0  0  0  0  0
    0.7692    0.5114    0.1492 N   0  0  0  0  0  0  0  0  0  0  0  0
   -0.2413   -0.4499   -0.0878 C   0  0  0  0  0  0  0  0  0  0  0  0
    0.1658   -1.6445   -0.2921 O   0  0  0  0  0  0  0  0  0  0  0  0
   -1.6910   -0.2149   -0.1293 C   0  0  2  0  0  0  0  0  0  0  0  0
   -2.3256    0.0284    1.2058 C   0  0  0  0  0  0  0  0  0  0  0  0
   -1.8577    1.1662    1.9838 C   0  0  0  0  0  0  0  0  0  0  0  0
   -2.3634    2.4305    1.7709 C   0  0  0  0  0  0  0  0  0  0  0  0
   -1.9832    3.5246    2.5100 C   0  0  0  0  0  0  0  0  0  0  0  0
   -1.0603    3.3815    3.5112 C   0  0  0  0  0  0  0  0  0  0  0  0
   -0.5320    2.1334    3.7540 C   0  0  0  0  0  0  0  0  0  0  0  0
   -0.9296    1.0285    2.9920 C   0  0  0  0  0  0  0  0  0  0  0  0
   -2.3468   -1.4444   -0.6247 N   0  0  0  0  0  0  0  0  0  0  0  0
   -3.1107   -1.3851   -1.8067 C   0  0  0  0  0  0  0  0  0  0  0  0
   -3.2450   -0.2907   -2.4543 O   0  0  0  0  0  0  0  0  0  0  0  0
   -3.7816   -2.5529   -2.3496 C   0  0  0  0  0  0  0  0  0  0  0  0
   -4.5221   -2.4682   -3.5048 C   0  0  0  0  0  0  0  0  0  0  0  0
   -5.1625   -3.5308   -4.0439 N   0  0  0  0  0  0  0  0  0  0  0  0
   -5.0835   -4.7346   -3.4370 C   0  0  0  0  0  0  0  0  0  0  0  0
   -4.3467   -4.8412   -2.2786 C   0  0  0  0  0  0  0  0  0  0  0  0
   -3.7179   -3.7658   -1.7622 N   0  0  0  0  0  0  0  0  0  0  0  0
    2.7695    0.6746    1.5181 B   0  0  0  0  0  0  0  0  0  0  0  0
    2.5265    2.1058    1.8085 O   0  0  0  0  0  0  0  0  0  0  0  0
    3.0234   -0.2476    2.6290 O   0  0  0  0  0  0  0  0  0  0  0  0
    4.9972    1.8263    0.3683 H   0  0  0  0  0  0  0  0  0  0  0  0
    5.3170    0.0424    0.8033 H   0  0  0  0  0  0  0  0  0  0  0  0
    6.2532    0.8919   -0.4328 H   0  0  0  0  0  0  0  0  0  0  0  0
    4.4352   -0.7089   -1.2948 H   0  0  0  0  0  0  0  0  0  0  0  0
    5.2331    2.0533   -2.1426 H   0  0  0  0  0  0  0  0  0  0  0  0
    5.8514    0.4318   -2.6207 H   0  0  0  0  0  0  0  0  0  0  0  0
    4.2306    0.9808   -3.2472 H   0  0  0  0  0  0  0  0  0  0  0  0
    2.7750    1.8569   -1.0354 H   0  0  0  0  0  0  0  0  0  0  0  0
    2.3834    0.3904   -1.9712 H   0  0  0  0  0  0  0  0  0  0  0  0
    2.2231   -0.9598    0.0569 H   0  0  0  0  0  0  0  0  0  0  0  0
    0.5068    1.4986    0.3100 H   0  0  0  0  0  0  0  0  0  0  0  0
   -1.9542    0.5864   -0.8509 H   0  0  0  0  0  0  0  0  0  0  0  0
   -2.1719   -0.9306    1.7999 H   0  0  0  0  0  0  0  0  0  0  0  0
   -3.4579    0.0530    1.1074 H   0  0  0  0  0  0  0  0  0  0  0  0
   -3.0914    2.5898    0.9939 H   0  0  0  0  0  0  0  0  0  0  0  0
   -2.4138    4.5078    2.3023 H   0  0  0  0  0  0  0  0  0  0  0  0
   -0.7621    4.2428    4.0918 H   0  0  0  0  0  0  0  0  0  0  0  0
    0.1910    1.9917    4.5299 H   0  0  0  0  0  0  0  0  0  0  0  0
   -0.4857    0.0830    3.2251 H   0  0  0  0  0  0  0  0  0  0  0  0
   -2.2432   -2.3287   -0.1089 H   0  0  0  0  0  0  0  0  0  0  0  0
   -4.6119   -1.5137   -4.0269 H   0  0  0  0  0  0  0  0  0  0  0  0
   -5.5903   -5.5747   -3.8640 H   0  0  0  0  0  0  0  0  0  0  0  0
   -4.2674   -5.7963   -1.7717 H   0  0  0  0  0  0  0  0  0  0  0  0
    2.5093    2.2408    2.7855 H   0  0  0  0  0  0  0  0  0  0  0  0
    3.6720   -0.9503    2.4041 H   0  0  0  0  0  0  0  0  0  0  0  0
  1  2  1  0
  2  3  1  0
  2  4  1  0
  4  5  1  0
  5  6  1  0
  6  7  1  0
  7  8  2  0
  7  9  1  0
  9 10  1  0
 10 11  1  0
 11 12  2  0
 12 13  1  0
 13 14  2  0
 14 15  1  0
 15 16  2  0
  9 17  1  0
 17 18  1  0
 18 19  2  0
 18 20  1  0
 20 21  2  0
 21 22  1  0
 22 23  2  0
 23 24  1  0
 24 25  2  0
  5 26  1  0
 26 27  1  0
 26 28  1  0
 16 11  1  0
 25 20  1  0
  1 29  1  0
  1 30  1  0
  1 31  1  0
  2 32  1  0
  3 33  1  0
  3 34  1  0
  3 35  1  0
  4 36  1  0
  4 37  1  0
  5 38  1  1
  6 39  1  0
  9 40  1  6
 10 41  1  0
 10 42  1  0
 12 43  1  0
 13 44  1  0
 14 45  1  0
 15 46  1  0
 16 47  1  0
 17 48  1  0
 21 49  1  0
 23 50  1  0
 24 51  1  0
 27 52  1  0
 28 53  1  0
M  END
$$$$
[H]c1c([H])c(C#N)c([H])c(N2C([H])([H])N([H])C(=O)C23C([H])([H])C([H])([H])N(C(=O)c2c([H])c([H])c(N(C([H])([H])[H])C([H])([H])[H])c([H])c2[H])C([H])([H])C3([H])[H])c1[H]
     RDKit          3D

 55 58  0  0  0  0  0  0  0  0999 V2000
   -7.1848   -1.6673   -0.6453 C   0  0  0  0  0  0  0  0  0  0  0  0
   -6.8057   -0.3621   -0.1110 N   0  0  0  0  0  0  0  0  0  0  0  0
   -7.8481    0.5444    0.3368 C   0  0  0  0  0  0  0  0  0  0  0  0
   -5.4444    0.0393   -0.0196 C   0  0  0  0  0  0  0  0  0  0  0  0
   -4.4798   -0.8170   -0.4416 C   0  0  0  0  0  0  0  0  0  0  0  0
   -3.1500   -0.4210   -0.3507 C   0  0  0  0  0  0  0  0  0  0  0  0
   -2.7612    0.8042    0.1490 C   0  0  0  0  0  0  0  0  0  0  0  0
   -3.8052    1.6527    0.5726 C   0  0  0  0  0  0  0  0  0  0  0  0
   -5.1149    1.2723    0.4873 C   0  0  0  0  0  0  0  0  0  0  0  0
   -1.4323    1.3015    0.2675 C   0  0  0  0  0  0  0  0  0  0  0  0
   -1.3267    2.4820    0.8301 O   0  0  0  0  0  0  0  0  0  0  0  0
   -0.1694    0.8012   -0.0920 N   0  0  0  0  0  0  0  0  0  0  0  0
    1.0481    1.5741    0.1854 C   0  0  0  0  0  0  0  0  0  0  0  0
    2.0554    0.7534    0.9376 C   0  0  0  0  0  0  0  0  0  0  0  0
    2.2664   -0.5839    0.2595 C   0  0  0  0  0  0  0  0  0  0  0  0
    1.4990   -0.6311   -1.0443 C   0  0  0  0  0  0  0  0  0  0  0  0
    0.0289   -0.4414   -0.7394 C   0  0  0  0  0  0  0  0  0  0  0  0
    3.6070   -0.9869    0.1445 N   0  0  0  0  0  0  0  0  0  0  0  0
    3.7220   -2.4084    0.2871 C   0  0  0  0  0  0  0  0  0  0  0  0
    2.3705   -2.8331    0.6067 N   0  0  0  0  0  0  0  0  0  0  0  0
    1.6865   -1.6784    1.1014 C   0  0  0  0  0  0  0  0  0  0  0  0
    0.8248   -1.6183    2.0115 O   0  0  0  0  0  0  0  0  0  0  0  0
    4.7274   -0.1663   -0.1230 C   0  0  0  0  0  0  0  0  0  0  0  0
    5.9977   -0.5463    0.3631 C   0  0  0  0  0  0  0  0  0  0  0  0
    7.1396    0.1379    0.1462 C   0  0  0  0  0  0  0  0  0  0  0  0
    7.1032    1.2977   -0.6000 C   0  0  0  0  0  0  0  0  0  0  0  0
    5.8812    1.7176   -1.1023 C   0  0  0  0  0  0  0  0  0  0  0  0
    4.7384    0.9863   -0.8557 C   0  0  0  0  0  0  0  0  0  0  0  0
    5.8705    2.9182   -1.8695 C   0  0  0  0  0  0  0  0  0  0  0  0
    5.8632    3.8901   -2.5044 N   0  0  0  0  0  0  0  0  0  0  0  0
   -6.9831   -2.4784    0.0867 H   0  0  0  0  0  0  0  0  0  0  0  0
   -8.2640   -1.6645   -0.8802 H   0  0  0  0  0  0  0  0  0  0  0  0
   -6.6347   -1.8405   -1.6082 H   0  0  0  0  0  0  0  0  0  0  0  0
   -8.8279    0.1718    0.0060 H   0  0  0  0  0  0  0  0  0  0  0  0
   -7.7818    0.7501    1.4210 H   0  0  0  0  0  0  0  0  0  0  0  0
   -7.6414    1.5184   -0.1808 H   0  0  0  0  0  0  0  0  0  0  0  0
   -4.7371   -1.8015   -0.8467 H   0  0  0  0  0  0  0  0  0  0  0  0
   -2.4377   -1.1307   -0.6863 H   0  0  0  0  0  0  0  0  0  0  0  0
   -3.5540    2.6212    0.9705 H   0  0  0  0  0  0  0  0  0  0  0  0
   -5.8685    1.9756    0.8318 H   0  0  0  0  0  0  0  0  0  0  0  0
    0.7532    2.4477    0.7753 H   0  0  0  0  0  0  0  0  0  0  0  0
    1.4287    1.9210   -0.7900 H   0  0  0  0  0  0  0  0  0  0  0  0
    2.9900    1.2948    0.9844 H   0  0  0  0  0  0  0  0  0  0  0  0
    1.6617    0.5808    1.9518 H   0  0  0  0  0  0  0  0  0  0  0  0
    1.5611   -1.6973   -1.4182 H   0  0  0  0  0  0  0  0  0  0  0  0
    1.8554    0.0778   -1.8050 H   0  0  0  0  0  0  0  0  0  0  0  0
   -0.5398   -0.5035   -1.7216 H   0  0  0  0  0  0  0  0  0  0  0  0
   -0.2575   -1.2823   -0.0730 H   0  0  0  0  0  0  0  0  0  0  0  0
    4.1270   -2.9177   -0.6033 H   0  0  0  0  0  0  0  0  0  0  0  0
    4.3864   -2.7156    1.1265 H   0  0  0  0  0  0  0  0  0  0  0  0
    1.9601   -3.7869    0.5073 H   0  0  0  0  0  0  0  0  0  0  0  0
    6.0153   -1.4731    0.9572 H   0  0  0  0  0  0  0  0  0  0  0  0
    8.0571   -0.2507    0.5700 H   0  0  0  0  0  0  0  0  0  0  0  0
    8.0215    1.8378   -0.7678 H   0  0  0  0  0  0  0  0  0  0  0  0
    3.8030    1.3345   -1.2621 H   0  0  0  0  0  0  0  0  0  0  0  0
  1  2  1  0
  2  3  1  0
  2  4  1  0
  4  5  2  0
  5  6  1  0
  6  7  2  0
  7  8  1  0
  8  9  2  0
  7 10  1  0
 10 11  2  0
 10 12  1  0
 12 13  1  0
 13 14  1  0
 14 15  1  0
 15 16  1  0
 16 17  1  0
 15 18  1  0
 18 19  1  0
 19 20  1  0
 20 21  1  0
 21 22  2  0
 18 23  1  0
 23 24  2  0
 24 25  1  0
 25 26  2  0
 26 27  1  0
 27 28  2  0
 27 29  1  0
 29 30  3  0
  9  4  1  0
 17 12  1  0
 28 23  1  0
 21 15  1  0
  1 31  1  0
  1 32  1  0
  1 33  1  0
  3 34  1  0
  3 35  1  0
  3 36  1  0
  5 37  1  0
  6 38  1  0
  8 39  1  0
  9 40  1  0
 13 41  1  0
 13 42  1  0
 14 43  1  0
 14 44  1  0
 16 45  1  0
 16 46  1  0
 17 47  1  0
 17 48  1  0
 19 49  1  0
 19 50  1  0
 20 51  1  0
 24 52  1  0
 25 53  1  0
 26 54  1  0
 28 55  1  0
M  END
$$$$
[H]OC(=O)[C@@]([H])(N([H])C(=O)[C@@]([H])(N([H])C(=O)[C@@]([H])(N([H])C(=O)[C@@]([H])(N([H])C(=O)[C@@]([H])(N([H])C(=O)[C@@]([H])(N([H])C(=O)[C@@]([H])(N([H])C(=O)C([H])([H])[H])C([H])([H])O[H])C([H])(C([H])([H])[H])C([H])([H])[H])C([H])([H])C([H])([H])C([H])([H])N=C(N([H])[H])N([H])[H])C([H])([H])O[H])C([H])([H])O[H])C([H])([H])O[H])C([H])([H])O[H]
     RDKit          3D

102101  0  0  0  0  0  0  0  0999 V2000
   -8.4646   -6.5328   -1.4823 C   0  0  0  0  0  0  0  0  0  0  0  0
   -7.1713   -5.9283   -1.1239 C   0  0  0  0  0  0  0  0  0  0  0  0
   -6.3866   -6.5574   -0.3781 O   0  0  0  0  0  0  0  0  0  0  0  0
   -6.7782   -4.6524   -1.5952 N   0  0  0  0  0  0  0  0  0  0  0  0
   -5.5040   -4.0555   -1.2441 C   0  0  1  0  0  0  0  0  0  0  0  0
   -4.6341   -3.8791   -2.4766 C   0  0  0  0  0  0  0  0  0  0  0  0
   -5.2011   -3.0679   -3.4346 O   0  0  0  0  0  0  0  0  0  0  0  0
   -5.6718   -2.7948   -0.5040 C   0  0  0  0  0  0  0  0  0  0  0  0
   -6.8269   -2.3747   -0.2599 O   0  0  0  0  0  0  0  0  0  0  0  0
   -4.5721   -2.0283   -0.0509 N   0  0  0  0  0  0  0  0  0  0  0  0
   -4.7755   -0.7653    0.6875 C   0  0  1  0  0  0  0  0  0  0  0  0
   -4.2108   -0.8154    2.0434 C   0  0  0  0  0  0  0  0  0  0  0  0
   -4.7948   -2.0014    2.8436 C   0  0  0  0  0  0  0  0  0  0  0  0
   -4.6209    0.4463    2.8265 C   0  0  0  0  0  0  0  0  0  0  0  0
   -4.2491    0.3279   -0.1383 C   0  0  0  0  0  0  0  0  0  0  0  0
   -4.5703    0.2496   -1.4008 O   0  0  0  0  0  0  0  0  0  0  0  0
   -3.4830    1.3905    0.2166 N   0  0  0  0  0  0  0  0  0  0  0  0
   -3.0394    2.4336   -0.7899 C   0  0  1  0  0  0  0  0  0  0  0  0
   -3.5624    3.7138   -0.3010 C   0  0  0  0  0  0  0  0  0  0  0  0
   -3.3430    4.9717   -0.9994 C   0  0  0  0  0  0  0  0  0  0  0  0
   -1.9583    5.4955   -1.1381 C   0  0  0  0  0  0  0  0  0  0  0  0
   -1.3289    5.7080    0.1740 N   0  0  0  0  0  0  0  0  0  0  0  0
   -1.3496    6.8104    0.8061 C   0  0  0  0  0  0  0  0  0  0  0  0
   -0.7109    6.9005    2.0618 N   0  0  0  0  0  0  0  0  0  0  0  0
   -2.0107    7.9204    0.2387 N   0  0  0  0  0  0  0  0  0  0  0  0
   -1.5992    2.1985   -0.8752 C   0  0  0  0  0  0  0  0  0  0  0  0
   -0.9762    2.0590    0.2050 O   0  0  0  0  0  0  0  0  0  0  0  0
   -0.8498    2.1024   -2.0878 N   0  0  0  0  0  0  0  0  0  0  0  0
    0.5348    1.8398   -2.2327 C   0  0  1  0  0  0  0  0  0  0  0  0
    1.3537    3.0635   -2.0302 C   0  0  0  0  0  0  0  0  0  0  0  0
    1.1028    4.0645   -2.9459 O   0  0  0  0  0  0  0  0  0  0  0  0
    1.0187    0.6318   -1.5278 C   0  0  0  0  0  0  0  0  0  0  0  0
    0.2122   -0.0912   -0.9271 O   0  0  0  0  0  0  0  0  0  0  0  0
    2.3731    0.3094   -1.5397 N   0  0  0  0  0  0  0  0  0  0  0  0
    3.0136   -0.8146   -0.9094 C   0  0  1  0  0  0  0  0  0  0  0  0
    3.5810   -1.7938   -1.9026 C   0  0  0  0  0  0  0  0  0  0  0  0
    2.4945   -2.2375   -2.6762 O   0  0  0  0  0  0  0  0  0  0  0  0
    4.0020   -0.4563    0.0962 C   0  0  0  0  0  0  0  0  0  0  0  0
    4.2394    0.7329    0.4148 O   0  0  0  0  0  0  0  0  0  0  0  0
    4.7393   -1.4663    0.7560 N   0  0  0  0  0  0  0  0  0  0  0  0
    5.7313   -1.2157    1.7622 C   0  0  1  0  0  0  0  0  0  0  0  0
    5.7018   -2.1339    2.9339 C   0  0  0  0  0  0  0  0  0  0  0  0
    5.9070   -3.4757    2.5439 O   0  0  0  0  0  0  0  0  0  0  0  0
    7.0776   -1.2511    1.0809 C   0  0  0  0  0  0  0  0  0  0  0  0
    7.1328   -1.4349   -0.1750 O   0  0  0  0  0  0  0  0  0  0  0  0
    8.2740   -1.0867    1.7866 N   0  0  0  0  0  0  0  0  0  0  0  0
    9.5412   -1.1144    1.1126 C   0  0  1  0  0  0  0  0  0  0  0  0
   10.3658    0.1153    1.3892 C   0  0  0  0  0  0  0  0  0  0  0  0
   10.6053    0.1999    2.7729 O   0  0  0  0  0  0  0  0  0  0  0  0
   10.3014   -2.3087    1.5729 C   0  0  0  0  0  0  0  0  0  0  0  0
   11.5785   -2.4925    1.0248 O   0  0  0  0  0  0  0  0  0  0  0  0
    9.8075   -3.0904    2.4031 O   0  0  0  0  0  0  0  0  0  0  0  0
   -9.2970   -5.8716   -1.0971 H   0  0  0  0  0  0  0  0  0  0  0  0
   -8.5867   -7.4732   -0.9090 H   0  0  0  0  0  0  0  0  0  0  0  0
   -8.5871   -6.7120   -2.5710 H   0  0  0  0  0  0  0  0  0  0  0  0
   -7.4678   -4.1490   -2.2257 H   0  0  0  0  0  0  0  0  0  0  0  0
   -4.9789   -4.7745   -0.5832 H   0  0  0  0  0  0  0  0  0  0  0  0
   -3.6700   -3.4255   -2.1310 H   0  0  0  0  0  0  0  0  0  0  0  0
   -4.3912   -4.8989   -2.8398 H   0  0  0  0  0  0  0  0  0  0  0  0
   -6.1719   -3.0279   -3.3435 H   0  0  0  0  0  0  0  0  0  0  0  0
   -3.5924   -2.3338   -0.2256 H   0  0  0  0  0  0  0  0  0  0  0  0
   -5.8954   -0.6443    0.7877 H   0  0  0  0  0  0  0  0  0  0  0  0
   -3.1343   -0.9016    2.0671 H   0  0  0  0  0  0  0  0  0  0  0  0
   -5.8531   -2.1410    2.6321 H   0  0  0  0  0  0  0  0  0  0  0  0
   -4.6894   -1.7100    3.9095 H   0  0  0  0  0  0  0  0  0  0  0  0
   -4.1419   -2.8541    2.6663 H   0  0  0  0  0  0  0  0  0  0  0  0
   -5.1576    1.1336    2.1618 H   0  0  0  0  0  0  0  0  0  0  0  0
   -3.7556    0.9580    3.2687 H   0  0  0  0  0  0  0  0  0  0  0  0
   -5.2611    0.1504    3.7009 H   0  0  0  0  0  0  0  0  0  0  0  0
   -3.1094    1.6027    1.1429 H   0  0  0  0  0  0  0  0  0  0  0  0
   -3.5375    2.1357   -1.7264 H   0  0  0  0  0  0  0  0  0  0  0  0
   -4.6982    3.5689   -0.1996 H   0  0  0  0  0  0  0  0  0  0  0  0
   -3.2916    3.8971    0.7917 H   0  0  0  0  0  0  0  0  0  0  0  0
   -3.8106    4.9072   -2.0290 H   0  0  0  0  0  0  0  0  0  0  0  0
   -3.9834    5.7793   -0.5118 H   0  0  0  0  0  0  0  0  0  0  0  0
   -1.2668    4.9665   -1.7585 H   0  0  0  0  0  0  0  0  0  0  0  0
   -2.0412    6.5641   -1.5419 H   0  0  0  0  0  0  0  0  0  0  0  0
   -0.4068    7.8358    2.4425 H   0  0  0  0  0  0  0  0  0  0  0  0
   -0.5073    6.0809    2.6670 H   0  0  0  0  0  0  0  0  0  0  0  0
   -3.0522    7.9965    0.2236 H   0  0  0  0  0  0  0  0  0  0  0  0
   -1.4628    8.7017   -0.1833 H   0  0  0  0  0  0  0  0  0  0  0  0
   -1.4337    2.2550   -2.9686 H   0  0  0  0  0  0  0  0  0  0  0  0
    0.6787    1.4960   -3.3498 H   0  0  0  0  0  0  0  0  0  0  0  0
    2.4288    2.8518   -1.8984 H   0  0  0  0  0  0  0  0  0  0  0  0
    1.0296    3.4962   -1.0342 H   0  0  0  0  0  0  0  0  0  0  0  0
    1.5800    3.7934   -3.7874 H   0  0  0  0  0  0  0  0  0  0  0  0
    3.0410    0.9452   -2.0694 H   0  0  0  0  0  0  0  0  0  0  0  0
    2.1930   -1.3757   -0.3720 H   0  0  0  0  0  0  0  0  0  0  0  0
    3.9636   -2.6931   -1.3985 H   0  0  0  0  0  0  0  0  0  0  0  0
    4.3895   -1.3743   -2.5105 H   0  0  0  0  0  0  0  0  0  0  0  0
    2.5441   -1.9199   -3.6089 H   0  0  0  0  0  0  0  0  0  0  0  0
    4.5656   -2.4653    0.5150 H   0  0  0  0  0  0  0  0  0  0  0  0
    5.6502   -0.1360    2.0851 H   0  0  0  0  0  0  0  0  0  0  0  0
    6.5585   -1.8722    3.5898 H   0  0  0  0  0  0  0  0  0  0  0  0
    4.7922   -2.0150    3.5363 H   0  0  0  0  0  0  0  0  0  0  0  0
    5.1536   -4.0558    2.7910 H   0  0  0  0  0  0  0  0  0  0  0  0
    8.2531   -0.9423    2.8141 H   0  0  0  0  0  0  0  0  0  0  0  0
    9.3624   -1.1769    0.0023 H   0  0  0  0  0  0  0  0  0  0  0  0
   11.3359    0.0087    0.8911 H   0  0  0  0  0  0  0  0  0  0  0  0
    9.8547    1.0361    1.0429 H   0  0  0  0  0  0  0  0  0  0  0  0
    9.7589    0.3668    3.2809 H   0  0  0  0  0  0  0  0  0  0  0  0
   12.0538   -3.3521    1.2571 H   0  0  0  0  0  0  0  0  0  0  0  0
  1  2  1  0
  2  3  2  0
  2  4  1  0
  4  5  1  0
  5  6  1  0
  6  7  1  0
  5  8  1  0
  8  9  2  0
  8 10  1  0
 10 11  1  0
 11 12  1  0
 12 13  1  0
 12 14  1  0
 11 15  1  0
 15 16  2  0
 15 17  1  0
 17 18  1  0
 18 19  1  0
 19 20  1  0
 20 21  1  0
 21 22  1  0
 22 23  2  3
 23 24  1  0
 23 25  1  0
 18 26  1  0
 26 27  2  0
 26 28  1  0
 28 29  1  0
 29 30  1  0
 30 31  1  0
 29 32  1  0
 32 33  2  0
 32 34  1  0
 34 35  1  0
 35 36  1  0
 36 37  1  0
 35 38  1  0
 38 39  2  0
 38 40  1  0
 40 41  1  0
 41 42  1  0
 42 43  1  0
 41 44  1  0
 44 45  2  0
 44 46  1  0
 46 47  1  0
 47 48  1  0
 48 49  1  0
 47 50  1  0
 50 51  1  0
 50 52  2  0
  1 53  1  0
  1 54  1  0
  1 55  1  0
  4 56  1  0
  5 57  1  1
  6 58  1  0
  6 59  1  0
  7 60  1  0
 10 61  1  0
 11 62  1  1
 12 63  1  0
 13 64  1  0
 13 65  1  0
 13 66  1  0
 14 67  1  0
 14 68  1  0
 14 69  1  0
 17 70  1  0
 18 71  1  6
 19 72  1  0
 19 73  1  0
 20 74  1  0
 20 75  1  0
 21 76  1  0
 21 77  1  0
 24 78  1  0
 24 79  1  0
 25 80  1  0
 25 81  1  0
 28 82  1  0
 29 83  1  6
 30 84  1  0
 30 85  1  0
 31 86  1  0
 34 87  1  0
 35 88  1  1
 36 89  1  0
 36 90  1  0
 37 91  1  0
 40 92  1  0
 41 93  1  1
 42 94  1  0
 42 95  1  0
 43 96  1  0
 46 97  1  0
 47 98  1  6
 48 99  1  0
 48100  1  0
 49101  1  0
 51102  1  0
M  END
$$$$
[H]Oc1c([H])c([H])c(C([H])([H])[C@@]2([H])C(=O)N([H])[C@@]([H])(C([H])([H])C([H])(C([H])([H])[H])C([H])([H])[H])C(=O)N([H])[C@@]([H])(C([H])([H])c3c([H])c([H])c([H])c([H])c3[H])C(=O)N([H])[C@@]([H])([C@@]([H])(C([H])([H])[H])C([H])([H])C([H])([H])[H])C(=O)N([H])[C@@]([H])(C([H])(C([H])([H])[H])C([H])([H])[H])C(=O)N2[H])c([H])c1[H]
     RDKit          3D

 95 97  0  0  0  0  0  0  0  0999 V2000
   -4.4632   -4.7273   -0.8417 C   0  0  0  0  0  0  0  0  0  0  0  0
   -3.3840   -3.6375   -0.8271 C   0  0  0  0  0  0  0  0  0  0  0  0
   -3.3584   -3.0290    0.5240 C   0  0  2  0  0  0  0  0  0  0  0  0
   -4.7367   -2.4331    0.7949 C   0  0  0  0  0  0  0  0  0  0  0  0
   -2.2528   -2.0114    0.7608 C   0  0  2  0  0  0  0  0  0  0  0  0
   -2.3467   -0.9267   -0.1604 N   0  0  0  0  0  0  0  0  0  0  0  0
   -2.2406    0.4541    0.0220 C   0  0  0  0  0  0  0  0  0  0  0  0
   -2.9899    1.1726   -0.7347 O   0  0  0  0  0  0  0  0  0  0  0  0
   -1.3981    1.2039    0.9508 C   0  0  2  0  0  0  0  0  0  0  0  0
   -2.0116    1.4361    2.3150 C   0  0  0  0  0  0  0  0  0  0  0  0
   -3.2582    2.1874    2.2763 C   0  0  0  0  0  0  0  0  0  0  0  0
   -4.4692    1.5703    2.1685 C   0  0  0  0  0  0  0  0  0  0  0  0
   -5.6334    2.2968    2.1314 C   0  0  0  0  0  0  0  0  0  0  0  0
   -5.5965    3.6645    2.2029 C   0  0  0  0  0  0  0  0  0  0  0  0
   -4.3894    4.3256    2.3126 C   0  0  0  0  0  0  0  0  0  0  0  0
   -3.2269    3.5588    2.3475 C   0  0  0  0  0  0  0  0  0  0  0  0
   -1.0720    2.5501    0.4521 N   0  0  0  0  0  0  0  0  0  0  0  0
    0.1702    3.1746    0.4815 C   0  0  0  0  0  0  0  0  0  0  0  0
    0.2900    4.2786    1.1348 O   0  0  0  0  0  0  0  0  0  0  0  0
    1.4379    2.7270   -0.1639 C   0  0  2  0  0  0  0  0  0  0  0  0
    2.3556    3.8901   -0.4191 C   0  0  0  0  0  0  0  0  0  0  0  0
    1.8652    4.9775   -1.2950 C   0  0  0  0  0  0  0  0  0  0  0  0
    1.5177    4.5933   -2.7106 C   0  0  0  0  0  0  0  0  0  0  0  0
    2.9275    6.0894   -1.4416 C   0  0  0  0  0  0  0  0  0  0  0  0
    1.2330    1.9160   -1.3358 N   0  0  0  0  0  0  0  0  0  0  0  0
    1.9337    0.7805   -1.7634 C   0  0  0  0  0  0  0  0  0  0  0  0
    2.5864    0.8443   -2.8656 O   0  0  0  0  0  0  0  0  0  0  0  0
    2.0398   -0.5479   -1.1095 C   0  0  2  0  0  0  0  0  0  0  0  0
    3.4539   -0.9610   -0.7889 C   0  0  0  0  0  0  0  0  0  0  0  0
    4.1708   -0.0654    0.1273 C   0  0  0  0  0  0  0  0  0  0  0  0
    4.0743   -0.2346    1.5116 C   0  0  0  0  0  0  0  0  0  0  0  0
    4.7628    0.5938    2.3679 C   0  0  0  0  0  0  0  0  0  0  0  0
    5.5596    1.6049    1.8973 C   0  0  0  0  0  0  0  0  0  0  0  0
    6.2663    2.4559    2.7587 O   0  0  0  0  0  0  0  0  0  0  0  0
    5.6562    1.7737    0.5417 C   0  0  0  0  0  0  0  0  0  0  0  0
    4.9613    0.9371   -0.3285 C   0  0  0  0  0  0  0  0  0  0  0  0
    1.5239   -1.5794   -2.0210 N   0  0  0  0  0  0  0  0  0  0  0  0
    0.6486   -2.6359   -1.7120 C   0  0  0  0  0  0  0  0  0  0  0  0
   -0.3738   -2.6977   -2.5001 O   0  0  0  0  0  0  0  0  0  0  0  0
    0.7130   -3.6380   -0.6808 C   0  0  1  0  0  0  0  0  0  0  0  0
   -0.1281   -3.5460    0.4775 N   0  0  0  0  0  0  0  0  0  0  0  0
   -0.9328   -2.5693    1.0456 C   0  0  0  0  0  0  0  0  0  0  0  0
   -0.3762   -2.0119    2.0954 O   0  0  0  0  0  0  0  0  0  0  0  0
    0.5493   -5.0359   -1.3245 C   0  0  0  0  0  0  0  0  0  0  0  0
    0.6035   -6.1167   -0.3051 C   0  0  0  0  0  0  0  0  0  0  0  0
    1.6789   -5.2476   -2.3055 C   0  0  0  0  0  0  0  0  0  0  0  0
   -5.4519   -4.2567   -0.8874 H   0  0  0  0  0  0  0  0  0  0  0  0
   -4.3845   -5.3739    0.0752 H   0  0  0  0  0  0  0  0  0  0  0  0
   -4.2950   -5.4164   -1.7083 H   0  0  0  0  0  0  0  0  0  0  0  0
   -2.4316   -4.1770   -0.9846 H   0  0  0  0  0  0  0  0  0  0  0  0
   -3.6368   -2.9294   -1.6385 H   0  0  0  0  0  0  0  0  0  0  0  0
   -3.2505   -3.8120    1.3195 H   0  0  0  0  0  0  0  0  0  0  0  0
   -4.7400   -1.8424    1.7180 H   0  0  0  0  0  0  0  0  0  0  0  0
   -5.0198   -1.7734   -0.0418 H   0  0  0  0  0  0  0  0  0  0  0  0
   -5.4639   -3.2825    0.9101 H   0  0  0  0  0  0  0  0  0  0  0  0
   -2.6619   -1.5080    1.7363 H   0  0  0  0  0  0  0  0  0  0  0  0
   -2.5326   -1.2342   -1.1694 H   0  0  0  0  0  0  0  0  0  0  0  0
   -0.4334    0.6692    1.0309 H   0  0  0  0  0  0  0  0  0  0  0  0
   -2.1435    0.5030    2.8465 H   0  0  0  0  0  0  0  0  0  0  0  0
   -1.2162    1.9991    2.8911 H   0  0  0  0  0  0  0  0  0  0  0  0
   -4.5341    0.5000    2.1113 H   0  0  0  0  0  0  0  0  0  0  0  0
   -6.6169    1.7973    2.0439 H   0  0  0  0  0  0  0  0  0  0  0  0
   -6.4800    4.3002    2.1787 H   0  0  0  0  0  0  0  0  0  0  0  0
   -4.3597    5.4120    2.3694 H   0  0  0  0  0  0  0  0  0  0  0  0
   -2.3076    4.1346    2.4339 H   0  0  0  0  0  0  0  0  0  0  0  0
   -1.8920    3.0700    0.0500 H   0  0  0  0  0  0  0  0  0  0  0  0
    1.9450    2.1263    0.6507 H   0  0  0  0  0  0  0  0  0  0  0  0
    3.3019    3.5068   -0.8777 H   0  0  0  0  0  0  0  0  0  0  0  0
    2.6675    4.3147    0.5674 H   0  0  0  0  0  0  0  0  0  0  0  0
    1.0098    5.4923   -0.7927 H   0  0  0  0  0  0  0  0  0  0  0  0
    2.0030    3.6672   -3.0252 H   0  0  0  0  0  0  0  0  0  0  0  0
    0.4108    4.4391   -2.7791 H   0  0  0  0  0  0  0  0  0  0  0  0
    1.7390    5.4270   -3.4274 H   0  0  0  0  0  0  0  0  0  0  0  0
    3.9013    5.6323   -1.6929 H   0  0  0  0  0  0  0  0  0  0  0  0
    2.6381    6.7081   -2.3156 H   0  0  0  0  0  0  0  0  0  0  0  0
    2.9393    6.7417   -0.5628 H   0  0  0  0  0  0  0  0  0  0  0  0
    0.4228    2.2474   -1.9565 H   0  0  0  0  0  0  0  0  0  0  0  0
    1.5078   -0.5537   -0.1399 H   0  0  0  0  0  0  0  0  0  0  0  0
    3.3638   -1.9385   -0.2384 H   0  0  0  0  0  0  0  0  0  0  0  0
    4.0357   -1.2006   -1.7058 H   0  0  0  0  0  0  0  0  0  0  0  0
    3.4399   -1.0387    1.8527 H   0  0  0  0  0  0  0  0  0  0  0  0
    4.6900    0.4641    3.4395 H   0  0  0  0  0  0  0  0  0  0  0  0
    7.2169    2.1990    3.0450 H   0  0  0  0  0  0  0  0  0  0  0  0
    6.2656    2.5486    0.1274 H   0  0  0  0  0  0  0  0  0  0  0  0
    5.0464    1.0743   -1.4110 H   0  0  0  0  0  0  0  0  0  0  0  0
    1.8893   -1.4570   -3.0184 H   0  0  0  0  0  0  0  0  0  0  0  0
    1.8149   -3.7232   -0.3470 H   0  0  0  0  0  0  0  0  0  0  0  0
   -0.0724   -4.4963    1.0254 H   0  0  0  0  0  0  0  0  0  0  0  0
   -0.3939   -5.0298   -1.8552 H   0  0  0  0  0  0  0  0  0  0  0  0
   -0.4129   -6.2995    0.1215 H   0  0  0  0  0  0  0  0  0  0  0  0
    1.3586   -5.9507    0.4922 H   0  0  0  0  0  0  0  0  0  0  0  0
    0.8873   -7.0658   -0.8266 H   0  0  0  0  0  0  0  0  0  0  0  0
    1.6257   -4.6023   -3.1916 H   0  0  0  0  0  0  0  0  0  0  0  0
    2.6707   -5.1102   -1.8418 H   0  0  0  0  0  0  0  0  0  0  0  0
    1.5990   -6.3063   -2.6638 H   0  0  0  0  0  0  0  0  0  0  0  0
  1  2  1  0
  2  3  1  0
  3  4  1  0
  3  5  1  0
  5  6  1  0
  6  7  1  0
  7  8  2  0
  7  9  1  0
  9 10  1  0
 10 11  1  0
 11 12  2  0
 12 13  1  0
 13 14  2  0
 14 15  1  0
 15 16  2  0
  9 17  1  0
 17 18  1  0
 18 19  2  0
 18 20  1  0
 20 21  1  0
 21 22  1  0
 22 23  1  0
 22 24  1  0
 20 25  1  0
 25 26  1  0
 26 27  2  0
 26 28  1  0
 28 29  1  0
 29 30  1  0
 30 31  2  0
 31 32  1  0
 32 33  2  0
 33 34  1  0
 33 35  1  0
 35 36  2  0
 28 37  1  0
 37 38  1  0
 38 39  2  0
 38 40  1  0
 40 41  1  0
 41 42  1  0
 42 43  2  0
 40 44  1  0
 44 45  1  0
 44 46  1  0
 42  5  1  0
 16 11  1  0
 36 30  1  0
  1 47  1  0
  1 48  1  0
  1 49  1  0
  2 50  1  0
  2 51  1  0
  3 52  1  1
  4 53  1  0
  4 54  1  0
  4 55  1  0
  5 56  1  1
  6 57  1  0
  9 58  1  1
 10 59  1  0
 10 60  1  0
 12 61  1  0
 13 62  1  0
 14 63  1  0
 15 64  1  0
 16 65  1  0
 17 66  1  0
 20 67  1  1
 21 68  1  0
 21 69  1  0
 22 70  1  0
 23 71  1  0
 23 72  1  0
 23 73  1  0
 24 74  1  0
 24 75  1  0
 24 76  1  0
 25 77  1  0
 28 78  1  1
 29 79  1  0
 29 80  1  0
 31 81  1  0
 32 82  1  0
 34 83  1  0
 35 84  1  0
 36 85  1  0
 37 86  1  0
 40 87  1  1
 41 88  1  0
 44 89  1  0
 45 90  1  0
 45 91  1  0
 45 92  1  0
 46 93  1  0
 46 94  1  0
 46 95  1  0
M  END
$$$$
[H]c1nc(N([H])[H])c(C(=O)N([H])c2nc([H])c([H])c([H])c2N2C([H])([H])C([H])([H])C(N([H])[H])(C([H])([H])[H])C([H])([H])C2([H])[H])nc1-c1nc(N2C([H])([H])C([H])([H])OC([H])([H])C2([H])[H])nc([H])c1C(F)(F)F
     RDKit          3D

 69 73  0  0  0  0  0  0  0  0999 V2000
   -6.1325    2.1512   -0.3579 C   0  0  0  0  0  0  0  0  0  0  0  0
   -5.2681    1.3446    0.5498 C   0  0  0  0  0  0  0  0  0  0  0  0
   -5.7499    1.4539    1.9120 N   0  0  0  0  0  0  0  0  0  0  0  0
   -5.2285   -0.0770    0.0927 C   0  0  0  0  0  0  0  0  0  0  0  0
   -4.2944   -0.9668    0.8595 C   0  0  0  0  0  0  0  0  0  0  0  0
   -3.0361   -0.3475    1.1323 N   0  0  0  0  0  0  0  0  0  0  0  0
   -3.0021    1.0856    1.3498 C   0  0  0  0  0  0  0  0  0  0  0  0
   -3.8470    1.8726    0.3988 C   0  0  0  0  0  0  0  0  0  0  0  0
   -1.7789   -0.9994    1.2357 C   0  0  0  0  0  0  0  0  0  0  0  0
   -1.2712   -1.3297    2.5027 C   0  0  0  0  0  0  0  0  0  0  0  0
   -0.0718   -1.9754    2.6792 C   0  0  0  0  0  0  0  0  0  0  0  0
    0.6247   -2.2883    1.5334 C   0  0  0  0  0  0  0  0  0  0  0  0
    0.1701   -1.9877    0.3217 N   0  0  0  0  0  0  0  0  0  0  0  0
   -1.0283   -1.3454    0.1396 C   0  0  0  0  0  0  0  0  0  0  0  0
   -1.5578   -1.1458   -1.1512 N   0  0  0  0  0  0  0  0  0  0  0  0
   -0.9596   -1.3329   -2.4013 C   0  0  0  0  0  0  0  0  0  0  0  0
   -1.8355   -1.3237   -3.4123 O   0  0  0  0  0  0  0  0  0  0  0  0
    0.3776   -1.5352   -2.8463 C   0  0  0  0  0  0  0  0  0  0  0  0
    1.4277   -1.1781   -2.1430 N   0  0  0  0  0  0  0  0  0  0  0  0
    2.7321   -1.2339   -2.5613 C   0  0  0  0  0  0  0  0  0  0  0  0
    2.8922   -1.7078   -3.8105 C   0  0  0  0  0  0  0  0  0  0  0  0
    1.8162   -2.0898   -4.5760 N   0  0  0  0  0  0  0  0  0  0  0  0
    0.5695   -2.0243   -4.1546 C   0  0  0  0  0  0  0  0  0  0  0  0
   -0.5375   -2.4345   -4.9698 N   0  0  0  0  0  0  0  0  0  0  0  0
    3.7281   -0.6635   -1.6407 C   0  0  0  0  0  0  0  0  0  0  0  0
    3.2082   -0.1183   -0.4764 N   0  0  0  0  0  0  0  0  0  0  0  0
    3.9427    0.4043    0.4803 C   0  0  0  0  0  0  0  0  0  0  0  0
    5.3029    0.4371    0.3792 N   0  0  0  0  0  0  0  0  0  0  0  0
    5.8233   -0.0763   -0.7193 C   0  0  0  0  0  0  0  0  0  0  0  0
    5.0681   -0.6436   -1.7730 C   0  0  0  0  0  0  0  0  0  0  0  0
    5.8115   -1.0991   -2.9426 C   0  0  0  0  0  0  0  0  0  0  0  0
    5.6319   -0.3923   -4.0900 F   0  0  0  0  0  0  0  0  0  0  0  0
    5.8889   -2.4919   -3.0733 F   0  0  0  0  0  0  0  0  0  0  0  0
    7.1863   -0.8185   -2.6606 F   0  0  0  0  0  0  0  0  0  0  0  0
    3.4199    1.0189    1.6442 N   0  0  0  0  0  0  0  0  0  0  0  0
    4.3186    1.4497    2.7300 C   0  0  0  0  0  0  0  0  0  0  0  0
    3.4445    1.6061    3.9435 C   0  0  0  0  0  0  0  0  0  0  0  0
    2.4337    2.5307    3.7847 O   0  0  0  0  0  0  0  0  0  0  0  0
    1.9497    2.6629    2.5089 C   0  0  0  0  0  0  0  0  0  0  0  0
    2.0331    1.2893    1.8504 C   0  0  0  0  0  0  0  0  0  0  0  0
   -5.9398    1.8632   -1.4230 H   0  0  0  0  0  0  0  0  0  0  0  0
   -7.1873    2.0437   -0.0810 H   0  0  0  0  0  0  0  0  0  0  0  0
   -5.8519    3.2328   -0.2115 H   0  0  0  0  0  0  0  0  0  0  0  0
   -6.7483    1.8235    1.8839 H   0  0  0  0  0  0  0  0  0  0  0  0
   -5.1570    2.1444    2.4515 H   0  0  0  0  0  0  0  0  0  0  0  0
   -4.9206   -0.0468   -0.9964 H   0  0  0  0  0  0  0  0  0  0  0  0
   -6.2685   -0.4616    0.0726 H   0  0  0  0  0  0  0  0  0  0  0  0
   -4.8257   -1.2619    1.8075 H   0  0  0  0  0  0  0  0  0  0  0  0
   -4.2267   -1.9196    0.2916 H   0  0  0  0  0  0  0  0  0  0  0  0
   -3.2689    1.3001    2.4257 H   0  0  0  0  0  0  0  0  0  0  0  0
   -1.9588    1.4837    1.2552 H   0  0  0  0  0  0  0  0  0  0  0  0
   -3.5385    1.5790   -0.6280 H   0  0  0  0  0  0  0  0  0  0  0  0
   -3.7447    2.9313    0.6160 H   0  0  0  0  0  0  0  0  0  0  0  0
   -1.8981   -1.0384    3.3569 H   0  0  0  0  0  0  0  0  0  0  0  0
    0.2877   -2.2157    3.6615 H   0  0  0  0  0  0  0  0  0  0  0  0
    1.5902   -2.8063    1.6811 H   0  0  0  0  0  0  0  0  0  0  0  0
   -2.6304   -0.9822   -1.1784 H   0  0  0  0  0  0  0  0  0  0  0  0
    3.8289   -1.8176   -4.2527 H   0  0  0  0  0  0  0  0  0  0  0  0
   -0.8380   -1.8237   -5.7418 H   0  0  0  0  0  0  0  0  0  0  0  0
   -1.0452   -3.3267   -4.8096 H   0  0  0  0  0  0  0  0  0  0  0  0
    6.8943   -0.0700   -0.8322 H   0  0  0  0  0  0  0  0  0  0  0  0
    4.7442    2.4585    2.4701 H   0  0  0  0  0  0  0  0  0  0  0  0
    5.0745    0.6801    2.9098 H   0  0  0  0  0  0  0  0  0  0  0  0
    4.0273    1.8954    4.8465 H   0  0  0  0  0  0  0  0  0  0  0  0
    2.9752    0.6114    4.1565 H   0  0  0  0  0  0  0  0  0  0  0  0
    0.8717    2.9163    2.5708 H   0  0  0  0  0  0  0  0  0  0  0  0
    2.4753    3.3932    1.8945 H   0  0  0  0  0  0  0  0  0  0  0  0
    1.4106    1.2102    0.9424 H   0  0  0  0  0  0  0  0  0  0  0  0
    1.6658    0.5237    2.5730 H   0  0  0  0  0  0  0  0  0  0  0  0
  1  2  1  0
  2  3  1  0
  2  4  1  0
  4  5  1  0
  5  6  1  0
  6  7  1  0
  7  8  1  0
  6  9  1  0
  9 10  2  0
 10 11  1  0
 11 12  2  0
 12 13  1  0
 13 14  2  0
 14 15  1  0
 15 16  1  0
 16 17  2  0
 16 18  1  0
 18 19  2  0
 19 20  1  0
 20 21  2  0
 21 22  1  0
 22 23  2  0
 23 24  1  0
 20 25  1  0
 25 26  2  0
 26 27  1  0
 27 28  2  0
 28 29  1  0
 29 30  2  0
 30 31  1  0
 31 32  1  0
 31 33  1  0
 31 34  1  0
 27 35  1  0
 35 36  1  0
 36 37  1  0
 37 38  1  0
 38 39  1  0
 39 40  1  0
  8  2  1  0
 14  9  1  0
 23 18  1  0
 30 25  1  0
 40 35  1  0
  1 41  1  0
  1 42  1  0
  1 43  1  0
  3 44  1  0
  3 45  1  0
  4 46  1  0
  4 47  1  0
  5 48  1  0
  5 49  1  0
  7 50  1  0
  7 51  1  0
  8 52  1  0
  8 53  1  0
 10 54  1  0
 11 55  1  0
 12 56  1  0
 15 57  1  0
 21 58  1  0
 24 59  1  0
 24 60  1  0
 29 61  1  0
 36 62  1  0
 36 63  1  0
 37 64  1  0
 37 65  1  0
 39 66  1  0
 39 67  1  0
 40 68  1  0
 40 69  1  0
M  END
$$$$
[H]c1c([H])c([H])c(Oc2c([H])c([H])c(-c3nn(C4([H])C([H])([H])N(C#N)C([H])([H])C([H])([H])C4([H])[H])c(N([H])[H])c3C(=O)N([H])[H])c([H])c2[H])c([H])c1[H]
     RDKit          3D

 52 55  0  0  0  0  0  0  0  0999 V2000
    0.3309   -0.3581   -3.8480 N   0  0  0  0  0  0  0  0  0  0  0  0
   -0.9462   -0.2252   -3.2713 C   0  0  0  0  0  0  0  0  0  0  0  0
   -1.9122   -0.0348   -4.0954 O   0  0  0  0  0  0  0  0  0  0  0  0
   -1.2323   -0.2845   -1.8320 C   0  0  0  0  0  0  0  0  0  0  0  0
   -2.4960   -0.1064   -1.2863 C   0  0  0  0  0  0  0  0  0  0  0  0
   -3.6670    0.1244   -2.0616 N   0  0  0  0  0  0  0  0  0  0  0  0
   -2.4010   -0.1901    0.0367 N   0  0  0  0  0  0  0  0  0  0  0  0
   -1.1404   -0.4117    0.3264 N   0  0  0  0  0  0  0  0  0  0  0  0
   -0.3710   -0.4815   -0.7887 C   0  0  0  0  0  0  0  0  0  0  0  0
    1.0756   -0.6928   -0.8118 C   0  0  0  0  0  0  0  0  0  0  0  0
    1.9135    0.1920   -0.1161 C   0  0  0  0  0  0  0  0  0  0  0  0
    3.2782    0.0190   -0.0474 C   0  0  0  0  0  0  0  0  0  0  0  0
    3.8884   -1.0489   -0.6699 C   0  0  0  0  0  0  0  0  0  0  0  0
    5.2636   -1.2297   -0.6055 O   0  0  0  0  0  0  0  0  0  0  0  0
    6.1113   -0.3888    0.0631 C   0  0  0  0  0  0  0  0  0  0  0  0
    6.6845    0.7036   -0.5812 C   0  0  0  0  0  0  0  0  0  0  0  0
    7.5320    1.5243    0.1290 C   0  0  0  0  0  0  0  0  0  0  0  0
    7.8002    1.2574    1.4561 C   0  0  0  0  0  0  0  0  0  0  0  0
    7.2296    0.1734    2.0901 C   0  0  0  0  0  0  0  0  0  0  0  0
    6.3913   -0.6342    1.3788 C   0  0  0  0  0  0  0  0  0  0  0  0
    3.0835   -1.9287   -1.3573 C   0  0  0  0  0  0  0  0  0  0  0  0
    1.6978   -1.7501   -1.4246 C   0  0  0  0  0  0  0  0  0  0  0  0
   -3.5222   -0.0540    0.9696 C   0  0  0  0  0  0  0  0  0  0  0  0
   -3.9295    1.3848    0.9817 C   0  0  0  0  0  0  0  0  0  0  0  0
   -5.2065    1.6462    1.7207 C   0  0  0  0  0  0  0  0  0  0  0  0
   -6.3289    0.7379    1.3388 C   0  0  0  0  0  0  0  0  0  0  0  0
   -5.9272   -0.4076    0.5821 N   0  0  0  0  0  0  0  0  0  0  0  0
   -4.6331   -1.0087    0.6777 C   0  0  0  0  0  0  0  0  0  0  0  0
   -6.8527   -0.9894   -0.3157 C   0  0  0  0  0  0  0  0  0  0  0  0
   -7.5981   -1.4633   -1.0630 N   0  0  0  0  0  0  0  0  0  0  0  0
    0.5927   -1.1687   -4.4546 H   0  0  0  0  0  0  0  0  0  0  0  0
    1.0701    0.3611   -3.6855 H   0  0  0  0  0  0  0  0  0  0  0  0
   -4.0568    1.0663   -2.2653 H   0  0  0  0  0  0  0  0  0  0  0  0
   -4.2056   -0.6842   -2.4759 H   0  0  0  0  0  0  0  0  0  0  0  0
    1.4080    1.0342    0.3715 H   0  0  0  0  0  0  0  0  0  0  0  0
    3.9048    0.7154    0.4957 H   0  0  0  0  0  0  0  0  0  0  0  0
    6.4637    0.9025   -1.6300 H   0  0  0  0  0  0  0  0  0  0  0  0
    8.0130    2.4003   -0.3265 H   0  0  0  0  0  0  0  0  0  0  0  0
    8.4625    1.9096    1.9882 H   0  0  0  0  0  0  0  0  0  0  0  0
    7.4791    0.0156    3.1353 H   0  0  0  0  0  0  0  0  0  0  0  0
    5.9353   -1.4964    1.8771 H   0  0  0  0  0  0  0  0  0  0  0  0
    3.5567   -2.7604   -1.8424 H   0  0  0  0  0  0  0  0  0  0  0  0
    1.0939   -2.4868   -1.9657 H   0  0  0  0  0  0  0  0  0  0  0  0
   -3.1223   -0.2984    1.9747 H   0  0  0  0  0  0  0  0  0  0  0  0
   -3.1194    1.9413    1.5405 H   0  0  0  0  0  0  0  0  0  0  0  0
   -3.9897    1.8588   -0.0013 H   0  0  0  0  0  0  0  0  0  0  0  0
   -5.4952    2.7110    1.5033 H   0  0  0  0  0  0  0  0  0  0  0  0
   -5.0125    1.5921    2.8116 H   0  0  0  0  0  0  0  0  0  0  0  0
   -6.8986    0.4136    2.2543 H   0  0  0  0  0  0  0  0  0  0  0  0
   -7.0828    1.3022    0.7197 H   0  0  0  0  0  0  0  0  0  0  0  0
   -4.7117   -1.8138    1.4669 H   0  0  0  0  0  0  0  0  0  0  0  0
   -4.4009   -1.5901   -0.2621 H   0  0  0  0  0  0  0  0  0  0  0  0
  1  2  1  0
  2  3  2  0
  2  4  1  0
  4  5  2  0
  5  6  1  0
  5  7  1  0
  7  8  1  0
  8  9  2  0
  9 10  1  0
 10 11  2  0
 11 12  1  0
 12 13  2  0
 13 14  1  0
 14 15  1  0
 15 16  2  0
 16 17  1  0
 17 18  2  0
 18 19  1  0
 19 20  2  0
 13 21  1  0
 21 22  2  0
  7 23  1  0
 23 24  1  0
 24 25  1  0
 25 26  1  0
 26 27  1  0
 27 28  1  0
 27 29  1  0
 29 30  3  0
  9  4  1  0
 22 10  1  0
 28 23  1  0
 20 15  1  0
  1 31  1  0
  1 32  1  0
  6 33  1  0
  6 34  1  0
 11 35  1  0
 12 36  1  0
 16 37  1  0
 17 38  1  0
 18 39  1  0
 19 40  1  0
 20 41  1  0
 21 42  1  0
 22 43  1  0
 23 44  1  0
 24 45  1  0
 24 46  1  0
 25 47  1  0
 25 48  1  0
 26 49  1  0
 26 50  1  0
 28 51  1  0
 28 52  1  0
M  END
$$$$
[H]N=C(N([H])[H])N([H])C([H])([H])C([H])([H])C([H])([H])[C@@]1([H])C(=O)N2C([H])([H])C([H])([H])C([H])([H])[C@@]2([H])C(=O)N([H])[C@@]([H])(C([H])(C([H])([H])[H])C([H])([H])[H])C(=O)N([H])[C@@]([H])(C([H])([H])c2c([H])c([H])c([H])c([H])c2[H])C(=O)N2C([H])([H])C([H])([H])C([H])([H])[C@@]2([H])C(=O)N1[H]
     RDKit          3D

 87 90  0  0  0  0  0  0  0  0999 V2000
   -2.1695   -3.9440   -2.3241 C   0  0  0  0  0  0  0  0  0  0  0  0
   -1.7904   -3.8040   -0.8523 C   0  0  0  0  0  0  0  0  0  0  0  0
   -2.7100   -4.6856   -0.0683 C   0  0  0  0  0  0  0  0  0  0  0  0
   -1.8850   -2.3237   -0.4697 C   0  0  2  0  0  0  0  0  0  0  0  0
   -1.5395   -2.1264    0.9199 N   0  0  0  0  0  0  0  0  0  0  0  0
   -0.2371   -2.0145    1.4695 C   0  0  0  0  0  0  0  0  0  0  0  0
   -0.1365   -1.1528    2.4078 O   0  0  0  0  0  0  0  0  0  0  0  0
    0.9574   -2.7260    1.1249 C   0  0  2  0  0  0  0  0  0  0  0  0
    1.9999   -2.7666    2.2634 C   0  0  0  0  0  0  0  0  0  0  0  0
    3.1595   -3.4386    1.5063 C   0  0  0  0  0  0  0  0  0  0  0  0
    2.6933   -3.5423    0.0666 C   0  0  0  0  0  0  0  0  0  0  0  0
    1.8126   -2.3265    0.0490 N   0  0  0  0  0  0  0  0  0  0  0  0
    1.8571   -1.2070   -0.7812 C   0  0  0  0  0  0  0  0  0  0  0  0
    1.5621   -1.4855   -2.0261 O   0  0  0  0  0  0  0  0  0  0  0  0
    2.1638    0.2073   -0.5679 C   0  0  2  0  0  0  0  0  0  0  0  0
    3.4884    0.3629    0.2540 C   0  0  0  0  0  0  0  0  0  0  0  0
    3.7048    1.8157    0.3991 C   0  0  0  0  0  0  0  0  0  0  0  0
    4.8651    2.3132    1.1528 C   0  0  0  0  0  0  0  0  0  0  0  0
    6.1204    1.9137    0.6176 N   0  0  0  0  0  0  0  0  0  0  0  0
    6.5935    0.5885    0.6857 C   0  0  0  0  0  0  0  0  0  0  0  0
    7.2487   -0.0673   -0.3985 N   0  0  0  0  0  0  0  0  0  0  0  0
    6.4496   -0.0768    1.7815 N   0  0  0  0  0  0  0  0  0  0  0  0
    1.1656    1.0393    0.0122 N   0  0  0  0  0  0  0  0  0  0  0  0
    0.2261    1.8864   -0.5993 C   0  0  0  0  0  0  0  0  0  0  0  0
    0.1691    3.1007   -0.1886 O   0  0  0  0  0  0  0  0  0  0  0  0
   -0.7022    1.4993   -1.6735 C   0  0  2  0  0  0  0  0  0  0  0  0
   -0.0645    1.8524   -3.0312 C   0  0  0  0  0  0  0  0  0  0  0  0
   -0.1707    3.3554   -2.9489 C   0  0  0  0  0  0  0  0  0  0  0  0
   -1.4557    3.6103   -2.2599 C   0  0  0  0  0  0  0  0  0  0  0  0
   -1.9031    2.2904   -1.7804 N   0  0  0  0  0  0  0  0  0  0  0  0
   -3.2356    1.8897   -1.5085 C   0  0  0  0  0  0  0  0  0  0  0  0
   -4.1657    2.6044   -2.0776 O   0  0  0  0  0  0  0  0  0  0  0  0
   -3.6585    0.7605   -0.6590 C   0  0  2  0  0  0  0  0  0  0  0  0
   -3.2951    0.8192    0.7790 C   0  0  0  0  0  0  0  0  0  0  0  0
   -3.8905    1.9752    1.4927 C   0  0  0  0  0  0  0  0  0  0  0  0
   -5.1455    1.8554    2.1028 C   0  0  0  0  0  0  0  0  0  0  0  0
   -5.7154    2.9288    2.7723 C   0  0  0  0  0  0  0  0  0  0  0  0
   -5.0628    4.1474    2.8575 C   0  0  0  0  0  0  0  0  0  0  0  0
   -3.8303    4.2766    2.2625 C   0  0  0  0  0  0  0  0  0  0  0  0
   -3.2762    3.1854    1.5949 C   0  0  0  0  0  0  0  0  0  0  0  0
   -3.6157   -0.5385   -1.2906 N   0  0  0  0  0  0  0  0  0  0  0  0
   -3.2083   -1.7817   -0.8441 C   0  0  0  0  0  0  0  0  0  0  0  0
   -4.1380   -2.6866   -0.7125 O   0  0  0  0  0  0  0  0  0  0  0  0
   -2.7541   -3.0931   -2.6996 H   0  0  0  0  0  0  0  0  0  0  0  0
   -1.2530   -3.9990   -2.9684 H   0  0  0  0  0  0  0  0  0  0  0  0
   -2.7142   -4.8892   -2.5241 H   0  0  0  0  0  0  0  0  0  0  0  0
   -0.7734   -4.1791   -0.7748 H   0  0  0  0  0  0  0  0  0  0  0  0
   -3.0676   -4.2423    0.8831 H   0  0  0  0  0  0  0  0  0  0  0  0
   -3.5631   -5.0727   -0.6859 H   0  0  0  0  0  0  0  0  0  0  0  0
   -2.1501   -5.6015    0.2164 H   0  0  0  0  0  0  0  0  0  0  0  0
   -1.1339   -1.8535   -1.1469 H   0  0  0  0  0  0  0  0  0  0  0  0
   -2.3838   -2.0672    1.5720 H   0  0  0  0  0  0  0  0  0  0  0  0
    0.7541   -3.8601    1.0179 H   0  0  0  0  0  0  0  0  0  0  0  0
    1.6653   -3.4453    3.0761 H   0  0  0  0  0  0  0  0  0  0  0  0
    2.2546   -1.7732    2.6210 H   0  0  0  0  0  0  0  0  0  0  0  0
    4.0352   -2.7593    1.5778 H   0  0  0  0  0  0  0  0  0  0  0  0
    3.3704   -4.4422    1.9417 H   0  0  0  0  0  0  0  0  0  0  0  0
    3.4525   -3.5832   -0.6710 H   0  0  0  0  0  0  0  0  0  0  0  0
    2.0475   -4.4405   -0.0339 H   0  0  0  0  0  0  0  0  0  0  0  0
    2.5112    0.6826   -1.5465 H   0  0  0  0  0  0  0  0  0  0  0  0
    3.2434   -0.0863    1.2345 H   0  0  0  0  0  0  0  0  0  0  0  0
    4.2668   -0.2201   -0.2519 H   0  0  0  0  0  0  0  0  0  0  0  0
    2.7313    2.2385    0.8167 H   0  0  0  0  0  0  0  0  0  0  0  0
    3.6866    2.2463   -0.6573 H   0  0  0  0  0  0  0  0  0  0  0  0
    4.8438    3.4504    1.0603 H   0  0  0  0  0  0  0  0  0  0  0  0
    4.7898    2.1222    2.2579 H   0  0  0  0  0  0  0  0  0  0  0  0
    6.7853    2.5949    0.1282 H   0  0  0  0  0  0  0  0  0  0  0  0
    7.7223    0.5065   -1.1366 H   0  0  0  0  0  0  0  0  0  0  0  0
    7.2739   -1.0890   -0.4831 H   0  0  0  0  0  0  0  0  0  0  0  0
    5.9900    0.3634    2.6011 H   0  0  0  0  0  0  0  0  0  0  0  0
    1.1537    1.0073    1.0907 H   0  0  0  0  0  0  0  0  0  0  0  0
   -0.9102    0.4079   -1.6893 H   0  0  0  0  0  0  0  0  0  0  0  0
    0.9407    1.4652   -3.1464 H   0  0  0  0  0  0  0  0  0  0  0  0
   -0.7506    1.5129   -3.8411 H   0  0  0  0  0  0  0  0  0  0  0  0
   -0.1395    3.7965   -3.9738 H   0  0  0  0  0  0  0  0  0  0  0  0
    0.7320    3.8030   -2.4474 H   0  0  0  0  0  0  0  0  0  0  0  0
   -1.4236    4.3697   -1.4782 H   0  0  0  0  0  0  0  0  0  0  0  0
   -2.1655    4.0025   -3.0271 H   0  0  0  0  0  0  0  0  0  0  0  0
   -4.8239    0.9574   -0.5492 H   0  0  0  0  0  0  0  0  0  0  0  0
   -2.2420    0.8177    1.0138 H   0  0  0  0  0  0  0  0  0  0  0  0
   -3.7535   -0.0891    1.2580 H   0  0  0  0  0  0  0  0  0  0  0  0
   -5.7066    0.9448    2.0773 H   0  0  0  0  0  0  0  0  0  0  0  0
   -6.6870    2.8697    3.2563 H   0  0  0  0  0  0  0  0  0  0  0  0
   -5.4741    5.0068    3.3707 H   0  0  0  0  0  0  0  0  0  0  0  0
   -3.2899    5.2137    2.3080 H   0  0  0  0  0  0  0  0  0  0  0  0
   -2.3142    3.3362    1.1477 H   0  0  0  0  0  0  0  0  0  0  0  0
   -4.0119   -0.5139   -2.3048 H   0  0  0  0  0  0  0  0  0  0  0  0
  1  2  1  0
  2  3  1  0
  2  4  1  0
  4  5  1  0
  5  6  1  0
  6  7  2  0
  6  8  1  0
  8  9  1  0
  9 10  1  0
 10 11  1  0
 11 12  1  0
 12 13  1  0
 13 14  2  0
 13 15  1  0
 15 16  1  0
 16 17  1  0
 17 18  1  0
 18 19  1  0
 19 20  1  0
 20 21  1  0
 20 22  2  3
 15 23  1  0
 23 24  1  0
 24 25  2  0
 24 26  1  0
 26 27  1  0
 27 28  1  0
 28 29  1  0
 29 30  1  0
 30 31  1  0
 31 32  2  0
 31 33  1  0
 33 34  1  0
 34 35  1  0
 35 36  2  0
 36 37  1  0
 37 38  2  0
 38 39  1  0
 39 40  2  0
 33 41  1  0
 41 42  1  0
 42 43  2  0
 42  4  1  0
 12  8  1  0
 30 26  1  0
 40 35  1  0
  1 44  1  0
  1 45  1  0
  1 46  1  0
  2 47  1  0
  3 48  1  0
  3 49  1  0
  3 50  1  0
  4 51  1  6
  5 52  1  0
  8 53  1  6
  9 54  1  0
  9 55  1  0
 10 56  1  0
 10 57  1  0
 11 58  1  0
 11 59  1  0
 15 60  1  6
 16 61  1  0
 16 62  1  0
 17 63  1  0
 17 64  1  0
 18 65  1  0
 18 66  1  0
 19 67  1  0
 21 68  1  0
 21 69  1  0
 22 70  1  0
 23 71  1  0
 26 72  1  6
 27 73  1  0
 27 74  1  0
 28 75  1  0
 28 76  1  0
 29 77  1  0
 29 78  1  0
 33 79  1  1
 34 80  1  0
 34 81  1  0
 36 82  1  0
 37 83  1  0
 38 84  1  0
 39 85  1  0
 40 86  1  0
 41 87  1  0
M  END
$$$$
[H]OC(=O)c1c([H])c([H])c(-c2sc(N([H])C(=O)c3c([H])c([H])c(OC([H])([H])[H])c([H])c3[H])nc2[H])c(OC([H])([H])c2c([H])c([H])c([H])c([H])c2[H])c1[H]
     RDKit          3D

 53 56  0  0  0  0  0  0  0  0999 V2000
  -10.3334   -0.9807    0.0839 C   0  0  0  0  0  0  0  0  0  0  0  0
   -9.6614    0.1623    0.5910 O   0  0  0  0  0  0  0  0  0  0  0  0
   -8.2759    0.2068    0.4653 C   0  0  0  0  0  0  0  0  0  0  0  0
   -7.6298    1.3010    0.9505 C   0  0  0  0  0  0  0  0  0  0  0  0
   -6.2710    1.4511    0.8811 C   0  0  0  0  0  0  0  0  0  0  0  0
   -5.5148    0.4420    0.2891 C   0  0  0  0  0  0  0  0  0  0  0  0
   -6.1772   -0.6516   -0.1939 C   0  0  0  0  0  0  0  0  0  0  0  0
   -7.5508   -0.8001   -0.1222 C   0  0  0  0  0  0  0  0  0  0  0  0
   -4.0758    0.6395    0.2371 C   0  0  0  0  0  0  0  0  0  0  0  0
   -3.5655    1.6603    0.7823 O   0  0  0  0  0  0  0  0  0  0  0  0
   -3.2685   -0.2987   -0.4141 N   0  0  0  0  0  0  0  0  0  0  0  0
   -1.8363   -0.1138   -0.4727 C   0  0  0  0  0  0  0  0  0  0  0  0
   -0.9589   -0.9128   -1.0496 N   0  0  0  0  0  0  0  0  0  0  0  0
    0.3055   -0.6107   -1.0190 C   0  0  0  0  0  0  0  0  0  0  0  0
    0.6905    0.5245   -0.3911 C   0  0  0  0  0  0  0  0  0  0  0  0
   -0.8560    1.1297    0.1495 S   0  0  0  0  0  0  0  0  0  0  0  0
    1.9959    1.1694   -0.1619 C   0  0  0  0  0  0  0  0  0  0  0  0
    2.0000    2.3763    0.5538 C   0  0  0  0  0  0  0  0  0  0  0  0
    3.1915    3.0116    0.7906 C   0  0  0  0  0  0  0  0  0  0  0  0
    4.4014    2.4960    0.3421 C   0  0  0  0  0  0  0  0  0  0  0  0
    4.3999    1.3178   -0.3572 C   0  0  0  0  0  0  0  0  0  0  0  0
    3.1936    0.6726   -0.5976 C   0  0  0  0  0  0  0  0  0  0  0  0
    3.1678   -0.5118   -1.2993 O   0  0  0  0  0  0  0  0  0  0  0  0
    4.1865   -1.2524   -1.8443 C   0  0  0  0  0  0  0  0  0  0  0  0
    5.1049   -1.7270   -0.7834 C   0  0  0  0  0  0  0  0  0  0  0  0
    4.6046   -1.8665    0.5167 C   0  0  0  0  0  0  0  0  0  0  0  0
    5.3842   -2.2970    1.5387 C   0  0  0  0  0  0  0  0  0  0  0  0
    6.7032   -2.6060    1.2948 C   0  0  0  0  0  0  0  0  0  0  0  0
    7.2087   -2.4721    0.0141 C   0  0  0  0  0  0  0  0  0  0  0  0
    6.4144   -2.0349   -1.0207 C   0  0  0  0  0  0  0  0  0  0  0  0
    5.6613    3.1644    0.5906 C   0  0  0  0  0  0  0  0  0  0  0  0
    6.8399    2.6272    0.1328 O   0  0  0  0  0  0  0  0  0  0  0  0
    5.6801    4.2376    1.2255 O   0  0  0  0  0  0  0  0  0  0  0  0
  -10.2527   -0.9638   -1.0189 H   0  0  0  0  0  0  0  0  0  0  0  0
   -9.8224   -1.8600    0.5345 H   0  0  0  0  0  0  0  0  0  0  0  0
  -11.3828   -0.9838    0.4482 H   0  0  0  0  0  0  0  0  0  0  0  0
   -8.1817    2.1140    1.4213 H   0  0  0  0  0  0  0  0  0  0  0  0
   -5.7846    2.3516    1.2852 H   0  0  0  0  0  0  0  0  0  0  0  0
   -5.6268   -1.4577   -0.6600 H   0  0  0  0  0  0  0  0  0  0  0  0
   -8.0724   -1.6637   -0.5039 H   0  0  0  0  0  0  0  0  0  0  0  0
   -3.6868   -1.1325   -0.8594 H   0  0  0  0  0  0  0  0  0  0  0  0
    1.0406   -1.2918   -1.5092 H   0  0  0  0  0  0  0  0  0  0  0  0
    1.0442    2.7669    0.8980 H   0  0  0  0  0  0  0  0  0  0  0  0
    3.2117    3.9450    1.3424 H   0  0  0  0  0  0  0  0  0  0  0  0
    5.3259    0.8948   -0.7301 H   0  0  0  0  0  0  0  0  0  0  0  0
    3.7640   -2.1883   -2.3121 H   0  0  0  0  0  0  0  0  0  0  0  0
    4.7290   -0.7520   -2.6744 H   0  0  0  0  0  0  0  0  0  0  0  0
    3.5700   -1.6259    0.7134 H   0  0  0  0  0  0  0  0  0  0  0  0
    4.9966   -2.4032    2.5378 H   0  0  0  0  0  0  0  0  0  0  0  0
    7.3431   -2.9503    2.0910 H   0  0  0  0  0  0  0  0  0  0  0  0
    8.2480   -2.7190   -0.1626 H   0  0  0  0  0  0  0  0  0  0  0  0
    6.7954   -1.9267   -2.0203 H   0  0  0  0  0  0  0  0  0  0  0  0
    7.5827    2.3927    0.8025 H   0  0  0  0  0  0  0  0  0  0  0  0
  1  2  1  0
  2  3  1  0
  3  4  2  0
  4  5  1  0
  5  6  2  0
  6  7  1  0
  7  8  2  0
  6  9  1  0
  9 10  2  0
  9 11  1  0
 11 12  1  0
 12 13  2  0
 13 14  1  0
 14 15  2  0
 15 16  1  0
 15 17  1  0
 17 18  2  0
 18 19  1  0
 19 20  2  0
 20 21  1  0
 21 22  2  0
 22 23  1  0
 23 24  1  0
 24 25  1  0
 25 26  2  0
 26 27  1  0
 27 28  2  0
 28 29  1  0
 29 30  2  0
 20 31  1  0
 31 32  1  0
 31 33  2  0
  8  3  1  0
 16 12  1  0
 22 17  1  0
 30 25  1  0
  1 34  1  0
  1 35  1  0
  1 36  1  0
  4 37  1  0
  5 38  1  0
  7 39  1  0
  8 40  1  0
 11 41  1  0
 14 42  1  0
 18 43  1  0
 19 44  1  0
 21 45  1  0
 24 46  1  0
 24 47  1  0
 26 48  1  0
 27 49  1  0
 28 50  1  0
 29 51  1  0
 30 52  1  0
 32 53  1  0
M  END
$$$$
[H]c1c([H])c([H])c(-c2nsc(N3C([H])([H])C([H])([H])[C@]([H])(N([H])C(=O)c4c([H])c(OC([H])([H])[H])c(OC([H])([H])[H])c(OC([H])([H])[H])c4[H])C3([H])[H])n2)c([H])c1[H]
     RDKit          3D

 55 58  0  0  0  0  0  0  0  0999 V2000
   -3.9206    1.0969   -3.3107 C   0  0  0  0  0  0  0  0  0  0  0  0
   -5.0469    0.8413   -2.4829 O   0  0  0  0  0  0  0  0  0  0  0  0
   -4.8152    0.6052   -1.1451 C   0  0  0  0  0  0  0  0  0  0  0  0
   -3.5375    0.6119   -0.6191 C   0  0  0  0  0  0  0  0  0  0  0  0
   -3.3644    0.3674    0.7411 C   0  0  0  0  0  0  0  0  0  0  0  0
   -4.4524    0.1247    1.5397 C   0  0  0  0  0  0  0  0  0  0  0  0
   -5.7578    0.1109    1.0361 C   0  0  0  0  0  0  0  0  0  0  0  0
   -6.8659   -0.1343    1.8252 O   0  0  0  0  0  0  0  0  0  0  0  0
   -6.6430   -0.3857    3.2049 C   0  0  0  0  0  0  0  0  0  0  0  0
   -5.8857    0.3581   -0.3175 C   0  0  0  0  0  0  0  0  0  0  0  0
   -7.1533    0.3574   -0.8718 O   0  0  0  0  0  0  0  0  0  0  0  0
   -7.8682    1.5776   -0.8965 C   0  0  0  0  0  0  0  0  0  0  0  0
   -2.0145    0.3528    1.2803 C   0  0  0  0  0  0  0  0  0  0  0  0
   -1.8221    0.8932    2.3973 O   0  0  0  0  0  0  0  0  0  0  0  0
   -0.9806   -0.2665    0.5318 N   0  0  0  0  0  0  0  0  0  0  0  0
    0.3871   -0.2956    1.0444 C   0  0  1  0  0  0  0  0  0  0  0  0
    0.6979   -1.7005    1.5620 C   0  0  0  0  0  0  0  0  0  0  0  0
    1.8971   -2.1858    0.8096 C   0  0  0  0  0  0  0  0  0  0  0  0
    2.3531   -1.0855   -0.0066 N   0  0  0  0  0  0  0  0  0  0  0  0
    1.4149   -0.0018    0.0009 C   0  0  0  0  0  0  0  0  0  0  0  0
    3.6049   -1.1261   -0.7103 C   0  0  0  0  0  0  0  0  0  0  0  0
    4.7677   -0.5821   -0.3845 N   0  0  0  0  0  0  0  0  0  0  0  0
    5.7999   -0.7668   -1.1592 C   0  0  0  0  0  0  0  0  0  0  0  0
    5.6190   -1.5082   -2.2561 N   0  0  0  0  0  0  0  0  0  0  0  0
    3.9990   -1.9318   -2.1786 S   0  0  0  0  0  0  0  0  0  0  0  0
    7.1290   -0.1787   -0.8561 C   0  0  0  0  0  0  0  0  0  0  0  0
    8.1888   -0.4789   -1.6733 C   0  0  0  0  0  0  0  0  0  0  0  0
    9.4424    0.0855   -1.3863 C   0  0  0  0  0  0  0  0  0  0  0  0
    9.6174    0.9210   -0.3160 C   0  0  0  0  0  0  0  0  0  0  0  0
    8.5405    1.2290    0.5171 C   0  0  0  0  0  0  0  0  0  0  0  0
    7.3126    0.6582    0.2119 C   0  0  0  0  0  0  0  0  0  0  0  0
   -4.2062    1.2343   -4.3684 H   0  0  0  0  0  0  0  0  0  0  0  0
   -3.3641    1.9967   -2.9138 H   0  0  0  0  0  0  0  0  0  0  0  0
   -3.2276    0.2355   -3.2132 H   0  0  0  0  0  0  0  0  0  0  0  0
   -2.6712    0.8032   -1.2311 H   0  0  0  0  0  0  0  0  0  0  0  0
   -4.3484   -0.0687    2.6007 H   0  0  0  0  0  0  0  0  0  0  0  0
   -6.0127    0.3478    3.7040 H   0  0  0  0  0  0  0  0  0  0  0  0
   -7.6665   -0.4869    3.6670 H   0  0  0  0  0  0  0  0  0  0  0  0
   -6.1991   -1.4153    3.3281 H   0  0  0  0  0  0  0  0  0  0  0  0
   -8.9612    1.4122   -0.7655 H   0  0  0  0  0  0  0  0  0  0  0  0
   -7.4717    2.3227   -0.1832 H   0  0  0  0  0  0  0  0  0  0  0  0
   -7.7515    2.0604   -1.9093 H   0  0  0  0  0  0  0  0  0  0  0  0
   -1.1789   -0.7043   -0.3803 H   0  0  0  0  0  0  0  0  0  0  0  0
    0.4627    0.3741    1.9330 H   0  0  0  0  0  0  0  0  0  0  0  0
   -0.2035   -2.3563    1.3876 H   0  0  0  0  0  0  0  0  0  0  0  0
    0.8217   -1.7043    2.6641 H   0  0  0  0  0  0  0  0  0  0  0  0
    1.6591   -3.0887    0.1786 H   0  0  0  0  0  0  0  0  0  0  0  0
    2.6555   -2.5307    1.5249 H   0  0  0  0  0  0  0  0  0  0  0  0
    1.8997    0.9785    0.2794 H   0  0  0  0  0  0  0  0  0  0  0  0
    0.9721    0.1913   -1.0007 H   0  0  0  0  0  0  0  0  0  0  0  0
    8.1074   -1.1289   -2.5291 H   0  0  0  0  0  0  0  0  0  0  0  0
   10.2740   -0.1605   -2.0393 H   0  0  0  0  0  0  0  0  0  0  0  0
   10.5932    1.3319   -0.1318 H   0  0  0  0  0  0  0  0  0  0  0  0
    8.6858    1.8917    1.3595 H   0  0  0  0  0  0  0  0  0  0  0  0
    6.4883    0.9016    0.8579 H   0  0  0  0  0  0  0  0  0  0  0  0
  1  2  1  0
  2  3  1  0
  3  4  2  0
  4  5  1  0
  5  6  2  0
  6  7  1  0
  7  8  1  0
  8  9  1  0
  7 10  2  0
 10 11  1  0
 11 12  1  0
  5 13  1  0
 13 14  2  0
 13 15  1  0
 15 16  1  0
 16 17  1  0
 17 18  1  0
 18 19  1  0
 19 20  1  0
 19 21  1  0
 21 22  2  0
 22 23  1  0
 23 24  2  0
 24 25  1  0
 23 26  1  0
 26 27  2  0
 27 28  1  0
 28 29  2  0
 29 30  1  0
 30 31  2  0
 10  3  1  0
 20 16  1  0
 25 21  1  0
 31 26  1  0
  1 32  1  0
  1 33  1  0
  1 34  1  0
  4 35  1  0
  6 36  1  0
  9 37  1  0
  9 38  1  0
  9 39  1  0
 12 40  1  0
 12 41  1  0
 12 42  1  0
 15 43  1  0
 16 44  1  1
 17 45  1  0
 17 46  1  0
 18 47  1  0
 18 48  1  0
 20 49  1  0
 20 50  1  0
 27 51  1  0
 28 52  1  0
 29 53  1  0
 30 54  1  0
 31 55  1  0
M  END
$$$$
[H]O[C@@]1([H])C([H])([H])C([H])([H])[C@]2([H])[C@]1(C([H])([H])[H])C([H])([H])C([H])([H])[C@]1([H])[C@]3([H])C(=C([H])C(=O)C([H])([H])C3([H])[H])C([H])([H])C([H])([H])[C@@]21[H]
     RDKit          3D

 46 49  0  0  0  0  0  0  0  0999 V2000
    2.5880    1.2762    1.0752 C   0  0  0  0  0  0  0  0  0  0  0  0
    2.1587    0.6304   -0.2204 C   0  0  2  0  0  0  0  0  0  0  0  0
    1.3387    1.5512   -1.0337 C   0  0  0  0  0  0  0  0  0  0  0  0
   -0.1184    1.5810   -0.6680 C   0  0  0  0  0  0  0  0  0  0  0  0
   -0.7031    0.2581   -0.3304 C   0  0  1  0  0  0  0  0  0  0  0  0
    0.1291   -0.5428    0.6522 C   0  0  1  0  0  0  0  0  0  0  0  0
   -0.5042   -1.9278    0.7543 C   0  0  0  0  0  0  0  0  0  0  0  0
   -1.8820   -1.8018    1.3575 C   0  0  0  0  0  0  0  0  0  0  0  0
   -2.6554   -0.8548    0.5090 C   0  0  0  0  0  0  0  0  0  0  0  0
   -3.8048   -1.2509    0.0219 C   0  0  0  0  0  0  0  0  0  0  0  0
   -4.5670   -0.3302   -0.8086 C   0  0  0  0  0  0  0  0  0  0  0  0
   -5.3146   -0.7324   -1.7321 O   0  0  0  0  0  0  0  0  0  0  0  0
   -4.3996    1.1327   -0.4870 C   0  0  0  0  0  0  0  0  0  0  0  0
   -2.9090    1.3786   -0.5748 C   0  0  0  0  0  0  0  0  0  0  0  0
   -2.0819    0.4757    0.2649 C   0  0  2  0  0  0  0  0  0  0  0  0
    1.4576   -0.6969    0.0229 C   0  0  2  0  0  0  0  0  0  0  0  0
    2.4889   -1.4464    0.7544 C   0  0  0  0  0  0  0  0  0  0  0  0
    3.7752   -1.0421    0.0304 C   0  0  0  0  0  0  0  0  0  0  0  0
    3.3834    0.0904   -0.9032 C   0  0  2  0  0  0  0  0  0  0  0  0
    4.3842    1.0233   -1.0611 O   0  0  0  0  0  0  0  0  0  0  0  0
    1.7533    1.5417    1.7252 H   0  0  0  0  0  0  0  0  0  0  0  0
    3.3099    0.6562    1.6377 H   0  0  0  0  0  0  0  0  0  0  0  0
    3.1188    2.2116    0.8043 H   0  0  0  0  0  0  0  0  0  0  0  0
    1.5075    1.3525   -2.1108 H   0  0  0  0  0  0  0  0  0  0  0  0
    1.7251    2.5975   -0.8609 H   0  0  0  0  0  0  0  0  0  0  0  0
   -0.6666    1.9869   -1.5431 H   0  0  0  0  0  0  0  0  0  0  0  0
   -0.3307    2.2818    0.1724 H   0  0  0  0  0  0  0  0  0  0  0  0
   -0.8249   -0.3869   -1.2413 H   0  0  0  0  0  0  0  0  0  0  0  0
    0.1373   -0.0373    1.6237 H   0  0  0  0  0  0  0  0  0  0  0  0
    0.1313   -2.5986    1.3572 H   0  0  0  0  0  0  0  0  0  0  0  0
   -0.5978   -2.3391   -0.2647 H   0  0  0  0  0  0  0  0  0  0  0  0
   -1.7768   -1.3733    2.3760 H   0  0  0  0  0  0  0  0  0  0  0  0
   -2.3520   -2.8012    1.3954 H   0  0  0  0  0  0  0  0  0  0  0  0
   -4.2151   -2.2452    0.2128 H   0  0  0  0  0  0  0  0  0  0  0  0
   -4.7838    1.3660    0.5088 H   0  0  0  0  0  0  0  0  0  0  0  0
   -4.8690    1.7374   -1.3036 H   0  0  0  0  0  0  0  0  0  0  0  0
   -2.6526    1.3319   -1.6626 H   0  0  0  0  0  0  0  0  0  0  0  0
   -2.7481    2.4303   -0.2383 H   0  0  0  0  0  0  0  0  0  0  0  0
   -1.8775    0.9284    1.2820 H   0  0  0  0  0  0  0  0  0  0  0  0
    1.3205   -1.1557   -0.9844 H   0  0  0  0  0  0  0  0  0  0  0  0
    2.3542   -2.5565    0.6387 H   0  0  0  0  0  0  0  0  0  0  0  0
    2.5607   -1.2582    1.8278 H   0  0  0  0  0  0  0  0  0  0  0  0
    4.1627   -1.9060   -0.5603 H   0  0  0  0  0  0  0  0  0  0  0  0
    4.5680   -0.7488    0.7277 H   0  0  0  0  0  0  0  0  0  0  0  0
    3.0575   -0.3791   -1.8531 H   0  0  0  0  0  0  0  0  0  0  0  0
    5.2241    0.5921   -1.2901 H   0  0  0  0  0  0  0  0  0  0  0  0
  2  1  1  1
  2  3  1  0
  3  4  1  0
  4  5  1  0
  5  6  1  0
  6  7  1  0
  7  8  1  0
  8  9  1  0
  9 10  2  0
 10 11  1  0
 11 12  2  0
 11 13  1  0
 13 14  1  0
 14 15  1  0
  6 16  1  0
 16 17  1  0
 17 18  1  0
 18 19  1  0
 19 20  1  0
 16  2  1  0
 19  2  1  0
 15  5  1  0
 15  9  1  0
  1 21  1  0
  1 22  1  0
  1 23  1  0
  3 24  1  0
  3 25  1  0
  4 26  1  0
  4 27  1  0
  5 28  1  6
  6 29  1  1
  7 30  1  0
  7 31  1  0
  8 32  1  0
  8 33  1  0
 10 34  1  0
 13 35  1  0
 13 36  1  0
 14 37  1  0
 14 38  1  0
 15 39  1  1
 16 40  1  6
 17 41  1  0
 17 42  1  0
 18 43  1  0
 18 44  1  0
 19 45  1  6
 20 46  1  0
M  END
$$$$
[H]c1c([H])c([H])c2c(c1[H])c1c3c(c4c5c([H])c([H])c([H])c([H])c5n5c4c1n2[C@@]1(C([H])([H])[H])O[C@]5([H])C([H])([H])[C@]([H])(N([H])C([H])([H])[H])[C@@]1([H])OC([H])([H])[H])C(=O)N([H])C3([H])[H]
     RDKit          3D

 61 68  0  0  0  0  0  0  0  0999 V2000
   -4.1558   -1.9431    1.1588 C   0  0  0  0  0  0  0  0  0  0  0  0
   -2.9510   -1.2988    1.5181 N   0  0  0  0  0  0  0  0  0  0  0  0
   -2.0807   -0.8600    0.4920 C   0  0  1  0  0  0  0  0  0  0  0  0
   -1.6342   -2.0226   -0.3955 C   0  0  0  0  0  0  0  0  0  0  0  0
   -0.7617   -1.5377   -1.5088 C   0  0  1  0  0  0  0  0  0  0  0  0
   -0.9681   -0.3443   -1.9998 O   0  0  0  0  0  0  0  0  0  0  0  0
   -1.4493    0.7203   -1.2530 C   0  0  1  0  0  0  0  0  0  0  0  0
   -1.8886    1.6949   -2.3320 C   0  0  0  0  0  0  0  0  0  0  0  0
   -2.5793    0.2007   -0.4212 C   0  0  2  0  0  0  0  0  0  0  0  0
   -3.2483    1.1396    0.3092 O   0  0  0  0  0  0  0  0  0  0  0  0
   -4.5606    1.3976    0.0437 C   0  0  0  0  0  0  0  0  0  0  0  0
   -0.3147    1.2600   -0.4993 N   0  0  0  0  0  0  0  0  0  0  0  0
   -0.1830    2.5167   -0.0369 C   0  0  0  0  0  0  0  0  0  0  0  0
   -0.9889    3.6063   -0.0588 C   0  0  0  0  0  0  0  0  0  0  0  0
   -0.6121    4.8097    0.5000 C   0  0  0  0  0  0  0  0  0  0  0  0
    0.6187    4.9759    1.1199 C   0  0  0  0  0  0  0  0  0  0  0  0
    1.4479    3.8772    1.1500 C   0  0  0  0  0  0  0  0  0  0  0  0
    1.0593    2.6881    0.5903 C   0  0  0  0  0  0  0  0  0  0  0  0
    1.6976    1.4894    0.5031 C   0  0  0  0  0  0  0  0  0  0  0  0
    2.9401    1.0641    0.9343 C   0  0  0  0  0  0  0  0  0  0  0  0
    4.0147    1.7914    1.6605 C   0  0  0  0  0  0  0  0  0  0  0  0
    5.0836    0.8687    1.8446 N   0  0  0  0  0  0  0  0  0  0  0  0
    4.7142   -0.3865    1.2763 C   0  0  0  0  0  0  0  0  0  0  0  0
    5.4696   -1.3577    1.3091 O   0  0  0  0  0  0  0  0  0  0  0  0
    3.3871   -0.2475    0.7186 C   0  0  0  0  0  0  0  0  0  0  0  0
    2.5135   -1.0867    0.0529 C   0  0  0  0  0  0  0  0  0  0  0  0
    2.5652   -2.4180   -0.3313 C   0  0  0  0  0  0  0  0  0  0  0  0
    3.5101   -3.3771   -0.2018 C   0  0  0  0  0  0  0  0  0  0  0  0
    3.2584   -4.6635   -0.7091 C   0  0  0  0  0  0  0  0  0  0  0  0
    2.0695   -4.9340   -1.3251 C   0  0  0  0  0  0  0  0  0  0  0  0
    1.0884   -3.9802   -1.4726 C   0  0  0  0  0  0  0  0  0  0  0  0
    1.3575   -2.7294   -0.9683 C   0  0  0  0  0  0  0  0  0  0  0  0
    0.6082   -1.6368   -0.9706 N   0  0  0  0  0  0  0  0  0  0  0  0
    1.2675   -0.6351   -0.3712 C   0  0  0  0  0  0  0  0  0  0  0  0
    0.8452    0.6650   -0.1514 C   0  0  0  0  0  0  0  0  0  0  0  0
   -4.9798   -1.5161    1.7909 H   0  0  0  0  0  0  0  0  0  0  0  0
   -4.1702   -3.0438    1.4002 H   0  0  0  0  0  0  0  0  0  0  0  0
   -4.4563   -1.7550    0.1088 H   0  0  0  0  0  0  0  0  0  0  0  0
   -2.5027   -1.7423    2.3291 H   0  0  0  0  0  0  0  0  0  0  0  0
   -1.1574   -0.4745    1.0562 H   0  0  0  0  0  0  0  0  0  0  0  0
   -1.1276   -2.7482    0.2625 H   0  0  0  0  0  0  0  0  0  0  0  0
   -2.5365   -2.4864   -0.8252 H   0  0  0  0  0  0  0  0  0  0  0  0
   -0.8051   -2.2939   -2.3191 H   0  0  0  0  0  0  0  0  0  0  0  0
   -2.8708    2.1485   -2.1755 H   0  0  0  0  0  0  0  0  0  0  0  0
   -1.0891    2.4862   -2.4855 H   0  0  0  0  0  0  0  0  0  0  0  0
   -1.9558    1.2339   -3.3525 H   0  0  0  0  0  0  0  0  0  0  0  0
   -3.2952   -0.2451   -1.1383 H   0  0  0  0  0  0  0  0  0  0  0  0
   -4.8579    2.1968    0.8179 H   0  0  0  0  0  0  0  0  0  0  0  0
   -4.7134    1.9913   -0.9141 H   0  0  0  0  0  0  0  0  0  0  0  0
   -5.2774    0.5845    0.0931 H   0  0  0  0  0  0  0  0  0  0  0  0
   -1.9377    3.5500   -0.5099 H   0  0  0  0  0  0  0  0  0  0  0  0
   -1.2582    5.6788    0.4803 H   0  0  0  0  0  0  0  0  0  0  0  0
    0.9168    5.9220    1.5600 H   0  0  0  0  0  0  0  0  0  0  0  0
    2.4244    3.9900    1.6355 H   0  0  0  0  0  0  0  0  0  0  0  0
    4.3906    2.6434    1.0489 H   0  0  0  0  0  0  0  0  0  0  0  0
    3.6444    2.1852    2.6335 H   0  0  0  0  0  0  0  0  0  0  0  0
    5.9851    1.1013    2.3240 H   0  0  0  0  0  0  0  0  0  0  0  0
    4.4514   -3.2125    0.2699 H   0  0  0  0  0  0  0  0  0  0  0  0
    4.0299   -5.4241   -0.5965 H   0  0  0  0  0  0  0  0  0  0  0  0
    1.8571   -5.9210   -1.7227 H   0  0  0  0  0  0  0  0  0  0  0  0
    0.1517   -4.1556   -1.9466 H   0  0  0  0  0  0  0  0  0  0  0  0
  1  2  1  0
  2  3  1  0
  3  4  1  0
  4  5  1  0
  5  6  1  0
  6  7  1  0
  7  8  1  6
  7  9  1  0
  9 10  1  0
 10 11  1  0
  7 12  1  0
 12 13  1  0
 13 14  2  0
 14 15  1  0
 15 16  2  0
 16 17  1  0
 17 18  2  0
 18 19  1  0
 19 20  2  0
 20 21  1  0
 21 22  1  0
 22 23  1  0
 23 24  2  0
 23 25  1  0
 25 26  2  0
 26 27  1  0
 27 28  2  0
 28 29  1  0
 29 30  2  0
 30 31  1  0
 31 32  2  0
 32 33  1  0
 33 34  1  0
 34 35  2  0
  9  3  1  0
 35 12  1  0
 33  5  1  0
 18 13  1  0
 35 19  1  0
 25 20  1  0
 34 26  1  0
 32 27  1  0
  1 36  1  0
  1 37  1  0
  1 38  1  0
  2 39  1  0
  3 40  1  1
  4 41  1  0
  4 42  1  0
  5 43  1  6
  8 44  1  0
  8 45  1  0
  8 46  1  0
  9 47  1  6
 11 48  1  0
 11 49  1  0
 11 50  1  0
 14 51  1  0
 15 52  1  0
 16 53  1  0
 17 54  1  0
 21 55  1  0
 21 56  1  0
 22 57  1  0
 28 58  1  0
 29 59  1  0
 30 60  1  0
 31 61  1  0
M  END
$$$$
[H]c1nc(C([H])([H])[H])c(-c2c([H])c(N3C([H])([H])C([H])([H])OC([H])([H])C3([H])[H])nc(N3C([H])([H])C([H])([H])OC([H])([H])C3([H])[H])c2[H])c([H])c1N([H])C(=O)c1c([H])c([H])c([H])c(C(F)(F)F)c1[H]
     RDKit          3D

 66 70  0  0  0  0  0  0  0  0999 V2000
   -0.9390   -0.3677    3.1319 C   0  0  0  0  0  0  0  0  0  0  0  0
    0.3037   -0.1831    2.3383 C   0  0  0  0  0  0  0  0  0  0  0  0
    1.5091   -0.3205    2.8909 N   0  0  0  0  0  0  0  0  0  0  0  0
    2.6574   -0.1614    2.2306 C   0  0  0  0  0  0  0  0  0  0  0  0
    2.5794    0.1639    0.9001 C   0  0  0  0  0  0  0  0  0  0  0  0
    3.7638    0.2529    0.1130 N   0  0  0  0  0  0  0  0  0  0  0  0
    4.8412   -0.6442    0.3310 C   0  0  0  0  0  0  0  0  0  0  0  0
    4.7409   -1.5288    1.2262 O   0  0  0  0  0  0  0  0  0  0  0  0
    6.0911   -0.6312   -0.4185 C   0  0  0  0  0  0  0  0  0  0  0  0
    6.1940   -1.3459   -1.6086 C   0  0  0  0  0  0  0  0  0  0  0  0
    7.3923   -1.3516   -2.3131 C   0  0  0  0  0  0  0  0  0  0  0  0
    8.4908   -0.6669   -1.8667 C   0  0  0  0  0  0  0  0  0  0  0  0
    8.4072    0.0439   -0.6943 C   0  0  0  0  0  0  0  0  0  0  0  0
    7.2102    0.0446   -0.0000 C   0  0  0  0  0  0  0  0  0  0  0  0
    9.5992    0.7836   -0.2122 C   0  0  0  0  0  0  0  0  0  0  0  0
   10.0443    1.6095   -1.2278 F   0  0  0  0  0  0  0  0  0  0  0  0
    9.2075    1.5219    0.8963 F   0  0  0  0  0  0  0  0  0  0  0  0
   10.6093   -0.0451    0.1836 F   0  0  0  0  0  0  0  0  0  0  0  0
    1.3306    0.3215    0.2790 C   0  0  0  0  0  0  0  0  0  0  0  0
    0.1692    0.1507    0.9827 C   0  0  0  0  0  0  0  0  0  0  0  0
   -1.1777    0.2227    0.4212 C   0  0  0  0  0  0  0  0  0  0  0  0
   -1.9044   -0.9736    0.2305 C   0  0  0  0  0  0  0  0  0  0  0  0
   -3.2007   -0.9720   -0.2387 C   0  0  0  0  0  0  0  0  0  0  0  0
   -3.7725    0.2093   -0.5143 N   0  0  0  0  0  0  0  0  0  0  0  0
   -3.1395    1.3913   -0.3587 C   0  0  0  0  0  0  0  0  0  0  0  0
   -1.8350    1.3900    0.1111 C   0  0  0  0  0  0  0  0  0  0  0  0
   -3.8467    2.5827   -0.6434 N   0  0  0  0  0  0  0  0  0  0  0  0
   -5.3009    2.6878   -0.4976 C   0  0  0  0  0  0  0  0  0  0  0  0
   -5.6542    4.1538   -0.4015 C   0  0  0  0  0  0  0  0  0  0  0  0
   -4.7614    4.9066    0.3162 O   0  0  0  0  0  0  0  0  0  0  0  0
   -3.4671    4.8787   -0.1360 C   0  0  0  0  0  0  0  0  0  0  0  0
   -3.1720    3.7818   -1.1166 C   0  0  0  0  0  0  0  0  0  0  0  0
   -3.8455   -2.2211   -0.4485 N   0  0  0  0  0  0  0  0  0  0  0  0
   -3.2328   -3.2635   -1.2596 C   0  0  0  0  0  0  0  0  0  0  0  0
   -3.2254   -4.5363   -0.4459 C   0  0  0  0  0  0  0  0  0  0  0  0
   -4.5402   -4.8682   -0.1735 O   0  0  0  0  0  0  0  0  0  0  0  0
   -5.1859   -3.9613    0.6546 C   0  0  0  0  0  0  0  0  0  0  0  0
   -5.1337   -2.5350    0.1471 C   0  0  0  0  0  0  0  0  0  0  0  0
   -0.6418   -0.4317    4.2167 H   0  0  0  0  0  0  0  0  0  0  0  0
   -1.5838    0.5250    3.0010 H   0  0  0  0  0  0  0  0  0  0  0  0
   -1.4457   -1.3163    2.8809 H   0  0  0  0  0  0  0  0  0  0  0  0
    3.5915   -0.2777    2.7886 H   0  0  0  0  0  0  0  0  0  0  0  0
    3.8283    0.9824   -0.6232 H   0  0  0  0  0  0  0  0  0  0  0  0
    5.3301   -1.8816   -1.9587 H   0  0  0  0  0  0  0  0  0  0  0  0
    7.4389   -1.9197   -3.2350 H   0  0  0  0  0  0  0  0  0  0  0  0
    9.4067   -0.7048   -2.4473 H   0  0  0  0  0  0  0  0  0  0  0  0
    7.1753    0.6131    0.9222 H   0  0  0  0  0  0  0  0  0  0  0  0
    1.2685    0.5807   -0.7688 H   0  0  0  0  0  0  0  0  0  0  0  0
   -1.4172   -1.9143    0.4600 H   0  0  0  0  0  0  0  0  0  0  0  0
   -1.3349    2.3114    0.2397 H   0  0  0  0  0  0  0  0  0  0  0  0
   -5.6659    2.1620    0.4135 H   0  0  0  0  0  0  0  0  0  0  0  0
   -5.7393    2.2885   -1.4382 H   0  0  0  0  0  0  0  0  0  0  0  0
   -5.8662    4.5899   -1.3971 H   0  0  0  0  0  0  0  0  0  0  0  0
   -6.6274    4.1987    0.1629 H   0  0  0  0  0  0  0  0  0  0  0  0
   -2.8050    4.6731    0.7565 H   0  0  0  0  0  0  0  0  0  0  0  0
   -3.1385    5.8751   -0.5552 H   0  0  0  0  0  0  0  0  0  0  0  0
   -3.5693    4.0768   -2.1370 H   0  0  0  0  0  0  0  0  0  0  0  0
   -2.0767    3.6767   -1.1690 H   0  0  0  0  0  0  0  0  0  0  0  0
   -3.9395   -3.3959   -2.1336 H   0  0  0  0  0  0  0  0  0  0  0  0
   -2.2310   -3.0078   -1.6332 H   0  0  0  0  0  0  0  0  0  0  0  0
   -2.6419   -4.3199    0.4678 H   0  0  0  0  0  0  0  0  0  0  0  0
   -2.8065   -5.3984   -1.0099 H   0  0  0  0  0  0  0  0  0  0  0  0
   -4.8138   -4.0236    1.7098 H   0  0  0  0  0  0  0  0  0  0  0  0
   -6.2527   -4.2522    0.6847 H   0  0  0  0  0  0  0  0  0  0  0  0
   -5.3389   -1.8893    1.0413 H   0  0  0  0  0  0  0  0  0  0  0  0
   -5.9102   -2.3400   -0.6014 H   0  0  0  0  0  0  0  0  0  0  0  0
  1  2  1  0
  2  3  2  0
  3  4  1  0
  4  5  2  0
  5  6  1  0
  6  7  1  0
  7  8  2  0
  7  9  1  0
  9 10  2  0
 10 11  1  0
 11 12  2  0
 12 13  1  0
 13 14  2  0
 13 15  1  0
 15 16  1  0
 15 17  1  0
 15 18  1  0
  5 19  1  0
 19 20  2  0
 20 21  1  0
 21 22  2  0
 22 23  1  0
 23 24  2  0
 24 25  1  0
 25 26  2  0
 25 27  1  0
 27 28  1  0
 28 29  1  0
 29 30  1  0
 30 31  1  0
 31 32  1  0
 23 33  1  0
 33 34  1  0
 34 35  1  0
 35 36  1  0
 36 37  1  0
 37 38  1  0
 20  2  1  0
 26 21  1  0
 32 27  1  0
 38 33  1  0
 14  9  1  0
  1 39  1  0
  1 40  1  0
  1 41  1  0
  4 42  1  0
  6 43  1  0
 10 44  1  0
 11 45  1  0
 12 46  1  0
 14 47  1  0
 19 48  1  0
 22 49  1  0
 26 50  1  0
 28 51  1  0
 28 52  1  0
 29 53  1  0
 29 54  1  0
 31 55  1  0
 31 56  1  0
 32 57  1  0
 32 58  1  0
 34 59  1  0
 34 60  1  0
 35 61  1  0
 35 62  1  0
 37 63  1  0
 37 64  1  0
 38 65  1  0
 38 66  1  0
M  END
$$$$
[H]C1=C(c2c([H])c(C3([H])C([H])([H])C([H])([H])N(C(=O)C([H])([H])[H])C([H])([H])C3([H])[H])c([H])c([H])c2N([H])C(=O)c2nc([H])c(C#N)n2[H])C([H])([H])C([H])([H])C(C([H])([H])[H])(C([H])([H])[H])C1([H])[H]
     RDKit          3D

 64 67  0  0  0  0  0  0  0  0999 V2000
    7.9436   -1.3663    0.0079 C   0  0  0  0  0  0  0  0  0  0  0  0
    7.1098   -0.8136   -1.1098 C   0  0  0  0  0  0  0  0  0  0  0  0
    7.6341   -0.0908   -1.9920 O   0  0  0  0  0  0  0  0  0  0  0  0
    5.7228   -1.0913   -1.1969 N   0  0  0  0  0  0  0  0  0  0  0  0
    4.9822   -0.5200   -2.3045 C   0  0  0  0  0  0  0  0  0  0  0  0
    3.5133   -0.5449   -1.8598 C   0  0  0  0  0  0  0  0  0  0  0  0
    3.5029   -0.0824   -0.4190 C   0  0  0  0  0  0  0  0  0  0  0  0
    3.9079   -1.2345    0.4477 C   0  0  0  0  0  0  0  0  0  0  0  0
    5.0911   -1.9244   -0.1949 C   0  0  0  0  0  0  0  0  0  0  0  0
    2.1318    0.4061   -0.1237 C   0  0  0  0  0  0  0  0  0  0  0  0
    1.9982    1.7178    0.2398 C   0  0  0  0  0  0  0  0  0  0  0  0
    0.7562    2.2771    0.5371 C   0  0  0  0  0  0  0  0  0  0  0  0
   -0.3882    1.5100    0.4717 C   0  0  0  0  0  0  0  0  0  0  0  0
   -1.6411    2.1598    0.6026 N   0  0  0  0  0  0  0  0  0  0  0  0
   -1.9258    3.3257    1.3094 C   0  0  0  0  0  0  0  0  0  0  0  0
   -1.0879    3.9647    1.9506 O   0  0  0  0  0  0  0  0  0  0  0  0
   -3.3140    3.8466    1.3018 C   0  0  0  0  0  0  0  0  0  0  0  0
   -4.3816    3.3163    0.6706 N   0  0  0  0  0  0  0  0  0  0  0  0
   -5.4671    4.0671    0.8955 C   0  0  0  0  0  0  0  0  0  0  0  0
   -5.0732    5.1139    1.7004 C   0  0  0  0  0  0  0  0  0  0  0  0
   -3.7685    4.9465    1.9243 N   0  0  0  0  0  0  0  0  0  0  0  0
   -5.9013    6.1657    2.1922 C   0  0  0  0  0  0  0  0  0  0  0  0
   -6.5824    7.0229    2.5827 N   0  0  0  0  0  0  0  0  0  0  0  0
   -0.2627    0.1885    0.1114 C   0  0  0  0  0  0  0  0  0  0  0  0
    1.0163   -0.3540   -0.1889 C   0  0  0  0  0  0  0  0  0  0  0  0
   -1.3546   -0.7534    0.1828 C   0  0  0  0  0  0  0  0  0  0  0  0
   -1.3143   -1.9107   -0.5437 C   0  0  0  0  0  0  0  0  0  0  0  0
   -2.4194   -2.8652   -0.4680 C   0  0  0  0  0  0  0  0  0  0  0  0
   -3.7825   -2.3032   -0.3584 C   0  0  0  0  0  0  0  0  0  0  0  0
   -4.3931   -2.1627   -1.7409 C   0  0  0  0  0  0  0  0  0  0  0  0
   -4.6466   -3.3308    0.3613 C   0  0  0  0  0  0  0  0  0  0  0  0
   -3.8049   -0.9873    0.3201 C   0  0  0  0  0  0  0  0  0  0  0  0
   -2.5120   -0.6675    1.0787 C   0  0  0  0  0  0  0  0  0  0  0  0
    7.9416   -2.4936   -0.0448 H   0  0  0  0  0  0  0  0  0  0  0  0
    8.9802   -1.0489   -0.1523 H   0  0  0  0  0  0  0  0  0  0  0  0
    7.6005   -0.9972    0.9840 H   0  0  0  0  0  0  0  0  0  0  0  0
    5.0882   -1.1334   -3.1969 H   0  0  0  0  0  0  0  0  0  0  0  0
    5.2321    0.5469   -2.4774 H   0  0  0  0  0  0  0  0  0  0  0  0
    3.2084   -1.6038   -1.8910 H   0  0  0  0  0  0  0  0  0  0  0  0
    2.8997    0.1091   -2.5169 H   0  0  0  0  0  0  0  0  0  0  0  0
    4.2609    0.7049   -0.3084 H   0  0  0  0  0  0  0  0  0  0  0  0
    3.1344   -1.9747    0.6458 H   0  0  0  0  0  0  0  0  0  0  0  0
    4.2827   -0.8560    1.4362 H   0  0  0  0  0  0  0  0  0  0  0  0
    4.7160   -2.8244   -0.7334 H   0  0  0  0  0  0  0  0  0  0  0  0
    5.8535   -2.2127    0.5483 H   0  0  0  0  0  0  0  0  0  0  0  0
    2.8731    2.3729    0.3095 H   0  0  0  0  0  0  0  0  0  0  0  0
    0.6853    3.3132    0.8020 H   0  0  0  0  0  0  0  0  0  0  0  0
   -2.4644    1.7309    0.0457 H   0  0  0  0  0  0  0  0  0  0  0  0
   -6.4889    3.9252    0.5365 H   0  0  0  0  0  0  0  0  0  0  0  0
   -3.2117    5.6086    2.5142 H   0  0  0  0  0  0  0  0  0  0  0  0
    1.1363   -1.3905   -0.4686 H   0  0  0  0  0  0  0  0  0  0  0  0
   -0.4826   -2.1041   -1.1725 H   0  0  0  0  0  0  0  0  0  0  0  0
   -2.3795   -3.5808   -1.3327 H   0  0  0  0  0  0  0  0  0  0  0  0
   -2.2145   -3.5262    0.4270 H   0  0  0  0  0  0  0  0  0  0  0  0
   -4.0480   -1.2179   -2.1699 H   0  0  0  0  0  0  0  0  0  0  0  0
   -5.5010   -2.1201   -1.6002 H   0  0  0  0  0  0  0  0  0  0  0  0
   -4.1930   -3.0383   -2.3889 H   0  0  0  0  0  0  0  0  0  0  0  0
   -5.6164   -2.8806    0.5511 H   0  0  0  0  0  0  0  0  0  0  0  0
   -4.6650   -4.2351   -0.2779 H   0  0  0  0  0  0  0  0  0  0  0  0
   -4.1759   -3.6255    1.3394 H   0  0  0  0  0  0  0  0  0  0  0  0
   -4.5965   -0.9472    1.1161 H   0  0  0  0  0  0  0  0  0  0  0  0
   -4.0063   -0.1895   -0.4363 H   0  0  0  0  0  0  0  0  0  0  0  0
   -2.4737   -1.5329    1.8371 H   0  0  0  0  0  0  0  0  0  0  0  0
   -2.6645    0.1966    1.6872 H   0  0  0  0  0  0  0  0  0  0  0  0
  1  2  1  0
  2  3  2  0
  2  4  1  0
  4  5  1  0
  5  6  1  0
  6  7  1  0
  7  8  1  0
  8  9  1  0
  7 10  1  0
 10 11  2  0
 11 12  1  0
 12 13  2  0
 13 14  1  0
 14 15  1  0
 15 16  2  0
 15 17  1  0
 17 18  2  0
 18 19  1  0
 19 20  2  0
 20 21  1  0
 20 22  1  0
 22 23  3  0
 13 24  1  0
 24 25  2  0
 24 26  1  0
 26 27  2  0
 27 28  1  0
 28 29  1  0
 29 30  1  0
 29 31  1  0
 29 32  1  0
 32 33  1  0
  9  4  1  0
 25 10  1  0
 33 26  1  0
 21 17  1  0
  1 34  1  0
  1 35  1  0
  1 36  1  0
  5 37  1  0
  5 38  1  0
  6 39  1  0
  6 40  1  0
  7 41  1  0
  8 42  1  0
  8 43  1  0
  9 44  1  0
  9 45  1  0
 11 46  1  0
 12 47  1  0
 14 48  1  0
 19 49  1  0
 21 50  1  0
 25 51  1  0
 27 52  1  0
 28 53  1  0
 28 54  1  0
 30 55  1  0
 30 56  1  0
 30 57  1  0
 31 58  1  0
 31 59  1  0
 31 60  1  0
 32 61  1  0
 32 62  1  0
 33 63  1  0
 33 64  1  0
M  END
$$$$
[H]c1c([H])c(C2([H])c3c(nc(-c4c([H])c(C(=O)N([H])C(C([H])([H])[H])(C([H])([H])[H])C([H])([H])[H])c([H])c([H])c4OC([H])([H])[H])n3C([H])(C([H])([H])[H])C([H])([H])[H])C(=O)N2c2c([H])c(Cl)c([H])c([H])c2C([H])([H])[H])c([H])c([H])c1Cl
     RDKit          3D

 76 80  0  0  0  0  0  0  0  0999 V2000
    0.5083   -4.0553    1.7516 C   0  0  0  0  0  0  0  0  0  0  0  0
    0.5067   -2.8921    0.9841 O   0  0  0  0  0  0  0  0  0  0  0  0
    1.6426   -2.2371    0.5531 C   0  0  0  0  0  0  0  0  0  0  0  0
    2.8888   -2.7397    0.8861 C   0  0  0  0  0  0  0  0  0  0  0  0
    4.0353   -2.1054    0.4694 C   0  0  0  0  0  0  0  0  0  0  0  0
    3.9471   -0.9484   -0.2931 C   0  0  0  0  0  0  0  0  0  0  0  0
    2.6935   -0.4803   -0.6034 C   0  0  0  0  0  0  0  0  0  0  0  0
    1.5448   -1.0853   -0.2065 C   0  0  0  0  0  0  0  0  0  0  0  0
    0.1780   -0.6263   -0.4978 C   0  0  0  0  0  0  0  0  0  0  0  0
   -0.6051   -1.2095   -1.4601 N   0  0  0  0  0  0  0  0  0  0  0  0
   -1.8106   -0.6215   -1.4731 C   0  0  0  0  0  0  0  0  0  0  0  0
   -3.1244   -0.6082   -2.1546 C   0  0  0  0  0  0  0  0  0  0  0  0
   -3.3857   -1.4189   -3.0962 O   0  0  0  0  0  0  0  0  0  0  0  0
   -3.8554    0.4051   -1.5399 N   0  0  0  0  0  0  0  0  0  0  0  0
   -3.1189    0.9742   -0.4768 C   0  0  0  0  0  0  0  0  0  0  0  0
   -1.7902    0.3303   -0.5184 C   0  0  0  0  0  0  0  0  0  0  0  0
   -0.5451    0.3088    0.0718 N   0  0  0  0  0  0  0  0  0  0  0  0
   -0.2083    1.1873    1.1435 C   0  0  0  0  0  0  0  0  0  0  0  0
    1.1012    1.8851    1.0919 C   0  0  0  0  0  0  0  0  0  0  0  0
   -0.2618    0.4516    2.5005 C   0  0  0  0  0  0  0  0  0  0  0  0
   -3.7356    0.9218    0.8461 C   0  0  0  0  0  0  0  0  0  0  0  0
   -4.0301   -0.2716    1.4532 C   0  0  0  0  0  0  0  0  0  0  0  0
   -4.6265   -0.2542    2.6799 C   0  0  0  0  0  0  0  0  0  0  0  0
   -4.9444    0.9312    3.3306 C   0  0  0  0  0  0  0  0  0  0  0  0
   -5.7105    0.9436    4.9025 Cl  0  0  0  0  0  0  0  0  0  0  0  0
   -4.6528    2.1252    2.7304 C   0  0  0  0  0  0  0  0  0  0  0  0
   -4.0466    2.1066    1.4843 C   0  0  0  0  0  0  0  0  0  0  0  0
   -5.1693    0.7758   -2.0206 C   0  0  0  0  0  0  0  0  0  0  0  0
   -5.3967    2.0677   -2.4594 C   0  0  0  0  0  0  0  0  0  0  0  0
   -6.6304    2.4579   -2.9232 C   0  0  0  0  0  0  0  0  0  0  0  0
   -6.9087    4.1011   -3.4799 Cl  0  0  0  0  0  0  0  0  0  0  0  0
   -7.6753    1.5489   -2.9569 C   0  0  0  0  0  0  0  0  0  0  0  0
   -7.4319    0.2727   -2.5188 C   0  0  0  0  0  0  0  0  0  0  0  0
   -6.1685   -0.1219   -2.0456 C   0  0  0  0  0  0  0  0  0  0  0  0
   -6.0688   -1.5223   -1.6161 C   0  0  0  0  0  0  0  0  0  0  0  0
    5.1628   -0.2636   -0.7331 C   0  0  0  0  0  0  0  0  0  0  0  0
    5.1150    0.4575   -1.7446 O   0  0  0  0  0  0  0  0  0  0  0  0
    6.3782   -0.4051   -0.0298 N   0  0  0  0  0  0  0  0  0  0  0  0
    7.5927    0.2696   -0.4600 C   0  0  0  0  0  0  0  0  0  0  0  0
    8.6949   -0.0824    0.5121 C   0  0  0  0  0  0  0  0  0  0  0  0
    8.0103   -0.3322   -1.8037 C   0  0  0  0  0  0  0  0  0  0  0  0
    7.4596    1.7521   -0.5309 C   0  0  0  0  0  0  0  0  0  0  0  0
   -0.5107   -4.4977    1.7109 H   0  0  0  0  0  0  0  0  0  0  0  0
    0.6970   -3.7912    2.8081 H   0  0  0  0  0  0  0  0  0  0  0  0
    1.2008   -4.8411    1.4055 H   0  0  0  0  0  0  0  0  0  0  0  0
    3.0215   -3.6401    1.4816 H   0  0  0  0  0  0  0  0  0  0  0  0
    5.0286   -2.4793    0.7159 H   0  0  0  0  0  0  0  0  0  0  0  0
    2.6190    0.4149   -1.1994 H   0  0  0  0  0  0  0  0  0  0  0  0
   -3.0353    2.0746   -0.7461 H   0  0  0  0  0  0  0  0  0  0  0  0
   -0.9813    2.0182    1.1759 H   0  0  0  0  0  0  0  0  0  0  0  0
    1.0122    2.8801    1.6569 H   0  0  0  0  0  0  0  0  0  0  0  0
    1.9066    1.3843    1.7030 H   0  0  0  0  0  0  0  0  0  0  0  0
    1.4426    2.2290    0.1007 H   0  0  0  0  0  0  0  0  0  0  0  0
   -0.9585   -0.3895    2.4731 H   0  0  0  0  0  0  0  0  0  0  0  0
    0.7319    0.0446    2.7803 H   0  0  0  0  0  0  0  0  0  0  0  0
   -0.5045    1.2024    3.3059 H   0  0  0  0  0  0  0  0  0  0  0  0
   -3.7913   -1.1738    0.9625 H   0  0  0  0  0  0  0  0  0  0  0  0
   -4.8653   -1.1793    3.1729 H   0  0  0  0  0  0  0  0  0  0  0  0
   -4.8777    3.0734    3.1931 H   0  0  0  0  0  0  0  0  0  0  0  0
   -3.8323    3.0688    1.0412 H   0  0  0  0  0  0  0  0  0  0  0  0
   -4.5665    2.7594   -2.4217 H   0  0  0  0  0  0  0  0  0  0  0  0
   -8.6339    1.8868   -3.3270 H   0  0  0  0  0  0  0  0  0  0  0  0
   -8.2578   -0.4340   -2.5493 H   0  0  0  0  0  0  0  0  0  0  0  0
   -6.9861   -1.8004   -1.0124 H   0  0  0  0  0  0  0  0  0  0  0  0
   -5.2216   -1.7330   -0.9508 H   0  0  0  0  0  0  0  0  0  0  0  0
   -6.0883   -2.2291   -2.4932 H   0  0  0  0  0  0  0  0  0  0  0  0
    6.3869   -1.0149    0.8257 H   0  0  0  0  0  0  0  0  0  0  0  0
    8.6273   -1.1766    0.7516 H   0  0  0  0  0  0  0  0  0  0  0  0
    9.6939    0.0939    0.0975 H   0  0  0  0  0  0  0  0  0  0  0  0
    8.5482    0.4957    1.4463 H   0  0  0  0  0  0  0  0  0  0  0  0
    9.1216   -0.3048   -1.8518 H   0  0  0  0  0  0  0  0  0  0  0  0
    7.5319    0.1708   -2.6491 H   0  0  0  0  0  0  0  0  0  0  0  0
    7.7170   -1.4166   -1.7266 H   0  0  0  0  0  0  0  0  0  0  0  0
    6.5202    2.0504   -0.0261 H   0  0  0  0  0  0  0  0  0  0  0  0
    7.4520    2.0353   -1.6121 H   0  0  0  0  0  0  0  0  0  0  0  0
    8.2938    2.2262    0.0081 H   0  0  0  0  0  0  0  0  0  0  0  0
  1  2  1  0
  2  3  1  0
  3  4  2  0
  4  5  1  0
  5  6  2  0
  6  7  1  0
  7  8  2  0
  8  9  1  0
  9 10  2  0
 10 11  1  0
 11 12  1  0
 12 13  2  0
 12 14  1  0
 14 15  1  0
 15 16  1  0
 16 17  1  0
 17 18  1  0
 18 19  1  0
 18 20  1  0
 15 21  1  0
 21 22  2  0
 22 23  1  0
 23 24  2  0
 24 25  1  0
 24 26  1  0
 26 27  2  0
 14 28  1  0
 28 29  2  0
 29 30  1  0
 30 31  1  0
 30 32  2  0
 32 33  1  0
 33 34  2  0
 34 35  1  0
  6 36  1  0
 36 37  2  0
 36 38  1  0
 38 39  1  0
 39 40  1  0
 39 41  1  0
 39 42  1  0
  8  3  1  0
 17  9  1  0
 27 21  1  0
 34 28  1  0
 16 11  2  0
  1 43  1  0
  1 44  1  0
  1 45  1  0
  4 46  1  0
  5 47  1  0
  7 48  1  0
 15 49  1  0
 18 50  1  0
 19 51  1  0
 19 52  1  0
 19 53  1  0
 20 54  1  0
 20 55  1  0
 20 56  1  0
 22 57  1  0
 23 58  1  0
 26 59  1  0
 27 60  1  0
 29 61  1  0
 32 62  1  0
 33 63  1  0
 35 64  1  0
 35 65  1  0
 35 66  1  0
 38 67  1  0
 40 68  1  0
 40 69  1  0
 40 70  1  0
 41 71  1  0
 41 72  1  0
 41 73  1  0
 42 74  1  0
 42 75  1  0
 42 76  1  0
M  END
$$$$
[H]c1c([H])c(N([H])C(=O)C2(C(=O)N([H])c3c([H])c([H])c(-c4c([H])c([H])c([H])c5c4c(N([H])[H])nn5[H])c([H])c3[H])C([H])([H])C2([H])[H])c([H])c([H])c1F
     RDKit          3D

 52 56  0  0  0  0  0  0  0  0999 V2000
   -3.1272   -2.3033    2.7335 N   0  0  0  0  0  0  0  0  0  0  0  0
   -4.4812   -2.2160    2.3465 C   0  0  0  0  0  0  0  0  0  0  0  0
   -5.5150   -2.6361    3.1353 N   0  0  0  0  0  0  0  0  0  0  0  0
   -6.6486   -2.4531    2.5123 N   0  0  0  0  0  0  0  0  0  0  0  0
   -6.4356   -1.9155    1.3074 C   0  0  0  0  0  0  0  0  0  0  0  0
   -7.2318   -1.5435    0.2674 C   0  0  0  0  0  0  0  0  0  0  0  0
   -6.6876   -1.0154   -0.8944 C   0  0  0  0  0  0  0  0  0  0  0  0
   -5.3300   -0.8634   -1.0005 C   0  0  0  0  0  0  0  0  0  0  0  0
   -4.4853   -1.2379    0.0574 C   0  0  0  0  0  0  0  0  0  0  0  0
   -3.0520   -1.0070   -0.0791 C   0  0  0  0  0  0  0  0  0  0  0  0
   -2.3147   -0.1483    0.6994 C   0  0  0  0  0  0  0  0  0  0  0  0
   -0.9618    0.0070    0.5071 C   0  0  0  0  0  0  0  0  0  0  0  0
   -0.2529   -0.6899   -0.4824 C   0  0  0  0  0  0  0  0  0  0  0  0
    1.1551   -0.4418   -0.6141 N   0  0  0  0  0  0  0  0  0  0  0  0
    2.0822   -1.1908   -1.3086 C   0  0  0  0  0  0  0  0  0  0  0  0
    1.7221   -2.2566   -1.8969 O   0  0  0  0  0  0  0  0  0  0  0  0
    3.5124   -0.8688   -1.4354 C   0  0  0  0  0  0  0  0  0  0  0  0
    4.2885   -1.6370   -2.4758 C   0  0  0  0  0  0  0  0  0  0  0  0
    4.3866   -2.0563   -1.0773 C   0  0  0  0  0  0  0  0  0  0  0  0
    4.0997    0.4574   -1.1734 C   0  0  0  0  0  0  0  0  0  0  0  0
    5.3839    0.4288   -1.0152 O   0  0  0  0  0  0  0  0  0  0  0  0
    3.5136    1.7015   -1.0800 N   0  0  0  0  0  0  0  0  0  0  0  0
    4.1495    2.9455   -0.8168 C   0  0  0  0  0  0  0  0  0  0  0  0
    5.4557    3.2366   -1.1082 C   0  0  0  0  0  0  0  0  0  0  0  0
    6.0103    4.4655   -0.7852 C   0  0  0  0  0  0  0  0  0  0  0  0
    5.2508    5.4159   -0.1643 C   0  0  0  0  0  0  0  0  0  0  0  0
    5.7917    6.6110    0.1498 F   0  0  0  0  0  0  0  0  0  0  0  0
    3.9563    5.1293    0.1242 C   0  0  0  0  0  0  0  0  0  0  0  0
    3.3922    3.9334   -0.1819 C   0  0  0  0  0  0  0  0  0  0  0  0
   -0.9806   -1.5418   -1.2571 C   0  0  0  0  0  0  0  0  0  0  0  0
   -2.3619   -1.6944   -1.0530 C   0  0  0  0  0  0  0  0  0  0  0  0
   -5.0516   -1.7525    1.1779 C   0  0  0  0  0  0  0  0  0  0  0  0
   -2.5114   -3.0084    2.3035 H   0  0  0  0  0  0  0  0  0  0  0  0
   -2.7562   -1.6597    3.4470 H   0  0  0  0  0  0  0  0  0  0  0  0
   -7.5898   -2.7003    2.9178 H   0  0  0  0  0  0  0  0  0  0  0  0
   -8.3061   -1.6680    0.3635 H   0  0  0  0  0  0  0  0  0  0  0  0
   -7.3967   -0.7498   -1.6660 H   0  0  0  0  0  0  0  0  0  0  0  0
   -4.9134   -0.4564   -1.8974 H   0  0  0  0  0  0  0  0  0  0  0  0
   -2.8375    0.4216    1.4821 H   0  0  0  0  0  0  0  0  0  0  0  0
   -0.3910    0.6948    1.1376 H   0  0  0  0  0  0  0  0  0  0  0  0
    1.5516    0.3951   -0.0704 H   0  0  0  0  0  0  0  0  0  0  0  0
    5.1706   -1.1751   -2.9331 H   0  0  0  0  0  0  0  0  0  0  0  0
    3.6694   -2.2234   -3.1775 H   0  0  0  0  0  0  0  0  0  0  0  0
    5.2642   -1.8092   -0.4518 H   0  0  0  0  0  0  0  0  0  0  0  0
    3.9296   -3.0183   -0.7847 H   0  0  0  0  0  0  0  0  0  0  0  0
    2.4743    1.8004   -1.2728 H   0  0  0  0  0  0  0  0  0  0  0  0
    6.0817    2.5168   -1.6156 H   0  0  0  0  0  0  0  0  0  0  0  0
    7.0378    4.6769   -1.0213 H   0  0  0  0  0  0  0  0  0  0  0  0
    3.3336    5.8710    0.6171 H   0  0  0  0  0  0  0  0  0  0  0  0
    2.3710    3.7225    0.0524 H   0  0  0  0  0  0  0  0  0  0  0  0
   -0.5170   -2.1092   -2.0511 H   0  0  0  0  0  0  0  0  0  0  0  0
   -2.8974   -2.3839   -1.6935 H   0  0  0  0  0  0  0  0  0  0  0  0
  1  2  1  0
  2  3  2  0
  3  4  1  0
  4  5  1  0
  5  6  2  0
  6  7  1  0
  7  8  2  0
  8  9  1  0
  9 10  1  0
 10 11  2  0
 11 12  1  0
 12 13  2  0
 13 14  1  0
 14 15  1  0
 15 16  2  0
 15 17  1  0
 17 18  1  0
 18 19  1  0
 17 20  1  0
 20 21  2  0
 20 22  1  0
 22 23  1  0
 23 24  2  0
 24 25  1  0
 25 26  2  0
 26 27  1  0
 26 28  1  0
 28 29  2  0
 13 30  1  0
 30 31  2  0
  9 32  2  0
 32  2  1  0
 32  5  1  0
 31 10  1  0
 19 17  1  0
 29 23  1  0
  1 33  1  0
  1 34  1  0
  4 35  1  0
  6 36  1  0
  7 37  1  0
  8 38  1  0
 11 39  1  0
 12 40  1  0
 14 41  1  0
 18 42  1  0
 18 43  1  0
 19 44  1  0
 19 45  1  0
 22 46  1  0
 24 47  1  0
 25 48  1  0
 28 49  1  0
 29 50  1  0
 30 51  1  0
 31 52  1  0
M  END
$$$$
[H]c1c([H])c([H])c2c(c1[H])N=c1c([H])c([H])c(Cl)c([H])c1=C(N1C([H])([H])C([H])([H])N(C([H])([H])[H])C([H])([H])C1([H])[H])C2([H])[H]
     RDKit          3D

 43 46  0  0  0  0  0  0  0  0999 V2000
    4.2674    1.7127    1.0138 C   0  0  0  0  0  0  0  0  0  0  0  0
    3.7924    0.4094    0.6705 N   0  0  0  0  0  0  0  0  0  0  0  0
    3.4430    0.2301   -0.6981 C   0  0  0  0  0  0  0  0  0  0  0  0
    1.9684    0.4946   -0.9370 C   0  0  0  0  0  0  0  0  0  0  0  0
    1.2279   -0.3326   -0.0270 N   0  0  0  0  0  0  0  0  0  0  0  0
    1.9117   -1.0955    0.9702 C   0  0  0  0  0  0  0  0  0  0  0  0
    2.9496   -0.2067    1.6358 C   0  0  0  0  0  0  0  0  0  0  0  0
   -0.2159   -0.2936   -0.1526 C   0  0  0  0  0  0  0  0  0  0  0  0
   -0.8025   -1.1444   -0.9692 C   0  0  0  0  0  0  0  0  0  0  0  0
    0.1270   -1.9504   -1.5781 C   0  0  0  0  0  0  0  0  0  0  0  0
   -0.3105   -2.9150   -2.4786 C   0  0  0  0  0  0  0  0  0  0  0  0
    0.8963   -3.9384   -3.2489 Cl  0  0  0  0  0  0  0  0  0  0  0  0
   -1.6444   -3.0741   -2.7670 C   0  0  0  0  0  0  0  0  0  0  0  0
   -2.5801   -2.2752   -2.1652 C   0  0  0  0  0  0  0  0  0  0  0  0
   -2.1659   -1.3086   -1.2654 C   0  0  0  0  0  0  0  0  0  0  0  0
   -3.1982   -0.6783   -0.8232 N   0  0  0  0  0  0  0  0  0  0  0  0
   -3.2531    0.3905    0.1147 C   0  0  0  0  0  0  0  0  0  0  0  0
   -4.5456    0.8239    0.3541 C   0  0  0  0  0  0  0  0  0  0  0  0
   -4.7960    1.8395    1.2233 C   0  0  0  0  0  0  0  0  0  0  0  0
   -3.7588    2.4503    1.8779 C   0  0  0  0  0  0  0  0  0  0  0  0
   -2.4803    2.0342    1.6522 C   0  0  0  0  0  0  0  0  0  0  0  0
   -2.1947    0.9855    0.7577 C   0  0  0  0  0  0  0  0  0  0  0  0
   -0.7564    0.7643    0.7219 C   0  0  0  0  0  0  0  0  0  0  0  0
    5.1993    1.6746    1.6151 H   0  0  0  0  0  0  0  0  0  0  0  0
    3.4929    2.3740    1.4642 H   0  0  0  0  0  0  0  0  0  0  0  0
    4.5633    2.2329    0.0555 H   0  0  0  0  0  0  0  0  0  0  0  0
    3.6178   -0.8452   -0.9673 H   0  0  0  0  0  0  0  0  0  0  0  0
    4.0109    0.8588   -1.3837 H   0  0  0  0  0  0  0  0  0  0  0  0
    1.6898    0.3844   -1.9817 H   0  0  0  0  0  0  0  0  0  0  0  0
    1.7719    1.5672   -0.6495 H   0  0  0  0  0  0  0  0  0  0  0  0
    2.3371   -2.0393    0.6356 H   0  0  0  0  0  0  0  0  0  0  0  0
    1.1939   -1.3511    1.8096 H   0  0  0  0  0  0  0  0  0  0  0  0
    3.5964   -0.8467    2.2930 H   0  0  0  0  0  0  0  0  0  0  0  0
    2.3990    0.4966    2.2885 H   0  0  0  0  0  0  0  0  0  0  0  0
    1.2018   -1.8702   -1.3881 H   0  0  0  0  0  0  0  0  0  0  0  0
   -1.9703   -3.8403   -3.4800 H   0  0  0  0  0  0  0  0  0  0  0  0
   -3.6171   -2.4048   -2.3946 H   0  0  0  0  0  0  0  0  0  0  0  0
   -5.3634    0.3283   -0.1743 H   0  0  0  0  0  0  0  0  0  0  0  0
   -5.8179    2.1945    1.4234 H   0  0  0  0  0  0  0  0  0  0  0  0
   -3.9194    3.2726    2.5863 H   0  0  0  0  0  0  0  0  0  0  0  0
   -1.6380    2.5145    2.1699 H   0  0  0  0  0  0  0  0  0  0  0  0
   -0.2953    1.7522    0.4242 H   0  0  0  0  0  0  0  0  0  0  0  0
   -0.3337    0.6246    1.7722 H   0  0  0  0  0  0  0  0  0  0  0  0
  1  2  1  0
  2  3  1  0
  3  4  1  0
  4  5  1  0
  5  6  1  0
  6  7  1  0
  5  8  1  0
  8  9  2  0
  9 10  1  0
 10 11  2  0
 11 12  1  0
 11 13  1  0
 13 14  2  0
 14 15  1  0
 15 16  2  0
 16 17  1  0
 17 18  2  0
 18 19  1  0
 19 20  2  0
 20 21  1  0
 21 22  2  0
 22 23  1  0
  7  2  1  0
 23  8  1  0
 15  9  1  0
 22 17  1  0
  1 24  1  0
  1 25  1  0
  1 26  1  0
  3 27  1  0
  3 28  1  0
  4 29  1  0
  4 30  1  0
  6 31  1  0
  6 32  1  0
  7 33  1  0
  7 34  1  0
 10 35  1  0
 13 36  1  0
 14 37  1  0
 18 38  1  0
 19 39  1  0
 20 40  1  0
 21 41  1  0
 23 42  1  0
 23 43  1  0
M  END
$$$$
[H]O[C@@]([H])(C([H])([H])C(=O)N([H])[C@]([H])(C(=O)N([H])[C@@]([H])(C([H])([H])C([H])(C([H])([H])[H])C([H])([H])[H])C([H])(C([H])([H])[H])C([H])([H])[H])C([H])([H])[H])[C@@]([H])(N([H])C(=O)[C@@]([H])(N([H])C(=O)C([H])([H])C([H])(C([H])([H])[H])C([H])([H])[H])C([H])(C([H])([H])[H])C([H])([H])[H])C([H])(C([H])([H])[H])C([H])([H])[H]
     RDKit          3D

 91 90  0  0  0  0  0  0  0  0999 V2000
   -8.5135    2.5854    0.4722 C   0  0  0  0  0  0  0  0  0  0  0  0
   -7.3755    1.5146    0.1157 C   0  0  0  0  0  0  0  0  0  0  0  0
   -7.5501    1.4295   -1.3773 C   0  0  0  0  0  0  0  0  0  0  0  0
   -7.6519    0.3547    0.9435 C   0  0  0  0  0  0  0  0  0  0  0  0
   -6.9184   -0.8914    1.0984 C   0  0  2  0  0  0  0  0  0  0  0  0
   -5.5409   -0.7565    1.5730 N   0  0  0  0  0  0  0  0  0  0  0  0
   -5.0153    0.2478    2.3735 C   0  0  0  0  0  0  0  0  0  0  0  0
   -5.6750    1.2404    2.8052 O   0  0  0  0  0  0  0  0  0  0  0  0
   -3.5469    0.1378    2.7259 C   0  0  2  0  0  0  0  0  0  0  0  0
   -3.2638    1.2242    3.7775 C   0  0  0  0  0  0  0  0  0  0  0  0
   -2.7456    0.4456    1.5527 N   0  0  0  0  0  0  0  0  0  0  0  0
   -1.4395   -0.1056    1.4714 C   0  0  0  0  0  0  0  0  0  0  0  0
   -0.9748   -0.7730    2.4067 O   0  0  0  0  0  0  0  0  0  0  0  0
   -0.6271    0.1130    0.2410 C   0  0  0  0  0  0  0  0  0  0  0  0
    0.8236   -0.3661    0.4314 C   0  0  2  0  0  0  0  0  0  0  0  0
    1.3254    0.4568    1.4094 O   0  0  0  0  0  0  0  0  0  0  0  0
    1.5119   -0.4154   -0.8752 C   0  0  1  0  0  0  0  0  0  0  0  0
    2.9419   -0.7533   -0.7766 N   0  0  0  0  0  0  0  0  0  0  0  0
    3.9232    0.0069   -1.4071 C   0  0  0  0  0  0  0  0  0  0  0  0
    3.5608    1.0452   -2.0605 O   0  0  0  0  0  0  0  0  0  0  0  0
    5.3708   -0.2574   -1.4059 C   0  0  1  0  0  0  0  0  0  0  0  0
    6.0787    0.9502   -1.3115 N   0  0  0  0  0  0  0  0  0  0  0  0
    6.9722    1.4727   -0.4022 C   0  0  0  0  0  0  0  0  0  0  0  0
    7.3070    0.8634    0.6316 O   0  0  0  0  0  0  0  0  0  0  0  0
    7.6167    2.8181   -0.5867 C   0  0  0  0  0  0  0  0  0  0  0  0
    8.5227    3.1833    0.5634 C   0  0  0  0  0  0  0  0  0  0  0  0
    9.6481    2.1986    0.7607 C   0  0  0  0  0  0  0  0  0  0  0  0
    7.7756    3.3762    1.8515 C   0  0  0  0  0  0  0  0  0  0  0  0
    5.8221   -1.5051   -0.7334 C   0  0  0  0  0  0  0  0  0  0  0  0
    5.1584   -2.7294   -1.4385 C   0  0  0  0  0  0  0  0  0  0  0  0
    7.3083   -1.7535   -0.7378 C   0  0  0  0  0  0  0  0  0  0  0  0
    0.8382   -1.4463   -1.7820 C   0  0  0  0  0  0  0  0  0  0  0  0
    1.4633   -1.5996   -3.1219 C   0  0  0  0  0  0  0  0  0  0  0  0
    0.7537   -2.7921   -1.1040 C   0  0  0  0  0  0  0  0  0  0  0  0
   -6.9348   -1.9633    0.0880 C   0  0  0  0  0  0  0  0  0  0  0  0
   -6.3558   -1.6612   -1.2585 C   0  0  0  0  0  0  0  0  0  0  0  0
   -8.2805   -2.6543   -0.0933 C   0  0  0  0  0  0  0  0  0  0  0  0
   -8.4474    2.8310    1.5249 H   0  0  0  0  0  0  0  0  0  0  0  0
   -8.3891    3.4188   -0.2352 H   0  0  0  0  0  0  0  0  0  0  0  0
   -9.4364    2.0471    0.2229 H   0  0  0  0  0  0  0  0  0  0  0  0
   -6.4628    2.1068    0.2979 H   0  0  0  0  0  0  0  0  0  0  0  0
   -6.5744    1.3224   -1.9213 H   0  0  0  0  0  0  0  0  0  0  0  0
   -8.2557    0.7077   -1.7449 H   0  0  0  0  0  0  0  0  0  0  0  0
   -7.9239    2.4302   -1.7857 H   0  0  0  0  0  0  0  0  0  0  0  0
   -7.8374    0.7660    2.0100 H   0  0  0  0  0  0  0  0  0  0  0  0
   -8.7586    0.0025    0.7426 H   0  0  0  0  0  0  0  0  0  0  0  0
   -7.4180   -1.3564    2.0635 H   0  0  0  0  0  0  0  0  0  0  0  0
   -4.8798   -1.5312    1.2520 H   0  0  0  0  0  0  0  0  0  0  0  0
   -3.3214   -0.8276    3.1147 H   0  0  0  0  0  0  0  0  0  0  0  0
   -4.1608    1.4467    4.3538 H   0  0  0  0  0  0  0  0  0  0  0  0
   -2.4132    0.8856    4.3926 H   0  0  0  0  0  0  0  0  0  0  0  0
   -2.8840    2.1156    3.1962 H   0  0  0  0  0  0  0  0  0  0  0  0
   -3.0912    1.0488    0.7877 H   0  0  0  0  0  0  0  0  0  0  0  0
   -0.5999    1.2105    0.0463 H   0  0  0  0  0  0  0  0  0  0  0  0
   -1.1456   -0.3461   -0.5909 H   0  0  0  0  0  0  0  0  0  0  0  0
    0.7246   -1.3877    0.8826 H   0  0  0  0  0  0  0  0  0  0  0  0
    1.8109    1.2393    1.0743 H   0  0  0  0  0  0  0  0  0  0  0  0
    1.4372    0.5406   -1.3889 H   0  0  0  0  0  0  0  0  0  0  0  0
    3.2189   -1.5674   -0.1957 H   0  0  0  0  0  0  0  0  0  0  0  0
    5.5756   -0.5725   -2.5426 H   0  0  0  0  0  0  0  0  0  0  0  0
    5.8764    1.6460   -2.1520 H   0  0  0  0  0  0  0  0  0  0  0  0
    8.2434    2.7713   -1.4968 H   0  0  0  0  0  0  0  0  0  0  0  0
    6.9062    3.6255   -0.7344 H   0  0  0  0  0  0  0  0  0  0  0  0
    9.0334    4.1624    0.3240 H   0  0  0  0  0  0  0  0  0  0  0  0
    9.8870    1.6565   -0.2033 H   0  0  0  0  0  0  0  0  0  0  0  0
   10.5995    2.7042    1.0258 H   0  0  0  0  0  0  0  0  0  0  0  0
    9.4385    1.4783    1.5679 H   0  0  0  0  0  0  0  0  0  0  0  0
    8.2568    4.2211    2.4006 H   0  0  0  0  0  0  0  0  0  0  0  0
    7.8018    2.4985    2.5322 H   0  0  0  0  0  0  0  0  0  0  0  0
    6.7403    3.6954    1.6030 H   0  0  0  0  0  0  0  0  0  0  0  0
    5.4543   -1.5292    0.2964 H   0  0  0  0  0  0  0  0  0  0  0  0
    4.6747   -3.3398   -0.6970 H   0  0  0  0  0  0  0  0  0  0  0  0
    5.9589   -3.2954   -1.9802 H   0  0  0  0  0  0  0  0  0  0  0  0
    4.4204   -2.3097   -2.1362 H   0  0  0  0  0  0  0  0  0  0  0  0
    7.8834   -1.0902   -1.3801 H   0  0  0  0  0  0  0  0  0  0  0  0
    7.4861   -2.7913   -1.1902 H   0  0  0  0  0  0  0  0  0  0  0  0
    7.6489   -1.8859    0.2975 H   0  0  0  0  0  0  0  0  0  0  0  0
   -0.1870   -1.0928   -1.9563 H   0  0  0  0  0  0  0  0  0  0  0  0
    2.4131   -1.0863   -3.2431 H   0  0  0  0  0  0  0  0  0  0  0  0
    1.7145   -2.7028   -3.2831 H   0  0  0  0  0  0  0  0  0  0  0  0
    0.7481   -1.3786   -3.9602 H   0  0  0  0  0  0  0  0  0  0  0  0
   -0.0781   -2.8902   -0.4139 H   0  0  0  0  0  0  0  0  0  0  0  0
    1.7417   -3.0159   -0.6552 H   0  0  0  0  0  0  0  0  0  0  0  0
    0.6338   -3.5479   -1.9141 H   0  0  0  0  0  0  0  0  0  0  0  0
   -6.2770   -2.7984    0.5140 H   0  0  0  0  0  0  0  0  0  0  0  0
   -7.0981   -1.5152   -2.0574 H   0  0  0  0  0  0  0  0  0  0  0  0
   -5.7446   -2.5567   -1.6399 H   0  0  0  0  0  0  0  0  0  0  0  0
   -5.5675   -0.8623   -1.2290 H   0  0  0  0  0  0  0  0  0  0  0  0
   -8.4379   -3.3565    0.7144 H   0  0  0  0  0  0  0  0  0  0  0  0
   -9.0938   -1.9336   -0.2891 H   0  0  0  0  0  0  0  0  0  0  0  0
   -8.1579   -3.2518   -1.0417 H   0  0  0  0  0  0  0  0  0  0  0  0
  1  2  1  0
  2  3  1  0
  2  4  1  0
  4  5  1  0
  5  6  1  0
  6  7  1  0
  7  8  2  0
  7  9  1  0
  9 10  1  0
  9 11  1  0
 11 12  1  0
 12 13  2  0
 12 14  1  0
 14 15  1  0
 15 16  1  0
 15 17  1  0
 17 18  1  0
 18 19  1  0
 19 20  2  0
 19 21  1  0
 21 22  1  0
 22 23  1  0
 23 24  2  0
 23 25  1  0
 25 26  1  0
 26 27  1  0
 26 28  1  0
 21 29  1  0
 29 30  1  0
 29 31  1  0
 17 32  1  0
 32 33  1  0
 32 34  1  0
  5 35  1  0
 35 36  1  0
 35 37  1  0
  1 38  1  0
  1 39  1  0
  1 40  1  0
  2 41  1  0
  3 42  1  0
  3 43  1  0
  3 44  1  0
  4 45  1  0
  4 46  1  0
  5 47  1  1
  6 48  1  0
  9 49  1  1
 10 50  1  0
 10 51  1  0
 10 52  1  0
 11 53  1  0
 14 54  1  0
 14 55  1  0
 15 56  1  1
 16 57  1  0
 17 58  1  6
 18 59  1  0
 21 60  1  6
 22 61  1  0
 25 62  1  0
 25 63  1  0
 26 64  1  0
 27 65  1  0
 27 66  1  0
 27 67  1  0
 28 68  1  0
 28 69  1  0
 28 70  1  0
 29 71  1  0
 30 72  1  0
 30 73  1  0
 30 74  1  0
 31 75  1  0
 31 76  1  0
 31 77  1  0
 32 78  1  0
 33 79  1  0
 33 80  1  0
 33 81  1  0
 34 82  1  0
 34 83  1  0
 34 84  1  0
 35 85  1  0
 36 86  1  0
 36 87  1  0
 36 88  1  0
 37 89  1  0
 37 90  1  0
 37 91  1  0
M  END
$$$$
[H]Oc1c([H])c([H])c(C([H])([H])[C@@]([H])(C(=O)N2C([H])([H])C([H])([H])C([H])([H])[C@@]2([H])C(=O)N([H])[C@]([H])(C(=O)N([H])[C@]([H])(C(=O)N([H])[H])C([H])([H])C([H])(C([H])([H])[H])C([H])([H])[H])C([H])([H])c2c([H])c([H])c([H])c([H])c2[H])N([H])[H])c([H])c1[H]
     RDKit          3D

 78 80  0  0  0  0  0  0  0  0999 V2000
   -6.3414   -2.5616   -0.0210 C   0  0  0  0  0  0  0  0  0  0  0  0
   -4.9349   -2.9162   -0.4065 C   0  0  0  0  0  0  0  0  0  0  0  0
   -4.9891   -4.2442   -1.1438 C   0  0  0  0  0  0  0  0  0  0  0  0
   -4.2195   -1.9331   -1.2404 C   0  0  0  0  0  0  0  0  0  0  0  0
   -4.0231   -0.5591   -0.6572 C   0  0  2  0  0  0  0  0  0  0  0  0
   -3.2840   -0.6110    0.5882 N   0  0  0  0  0  0  0  0  0  0  0  0
   -1.9146   -0.3053    0.6889 C   0  0  0  0  0  0  0  0  0  0  0  0
   -1.3366    0.0341   -0.4019 O   0  0  0  0  0  0  0  0  0  0  0  0
   -1.0933   -0.3402    1.9007 C   0  0  2  0  0  0  0  0  0  0  0  0
   -1.5568    0.5210    3.0335 C   0  0  0  0  0  0  0  0  0  0  0  0
   -1.6433    1.9488    2.8027 C   0  0  0  0  0  0  0  0  0  0  0  0
   -2.8508    2.4813    2.3985 C   0  0  0  0  0  0  0  0  0  0  0  0
   -3.0199    3.8468    2.1461 C   0  0  0  0  0  0  0  0  0  0  0  0
   -1.9625    4.7196    2.2968 C   0  0  0  0  0  0  0  0  0  0  0  0
   -0.7607    4.1828    2.7005 C   0  0  0  0  0  0  0  0  0  0  0  0
   -0.5972    2.8384    2.9482 C   0  0  0  0  0  0  0  0  0  0  0  0
    0.3212   -0.0774    1.5991 N   0  0  0  0  0  0  0  0  0  0  0  0
    1.3435   -0.9852    1.9160 C   0  0  0  0  0  0  0  0  0  0  0  0
    1.0537   -2.0640    2.4785 O   0  0  0  0  0  0  0  0  0  0  0  0
    2.7621   -0.7118    1.6093 C   0  0  2  0  0  0  0  0  0  0  0  0
    3.5768   -0.5615    2.8703 C   0  0  0  0  0  0  0  0  0  0  0  0
    4.4409    0.6367    2.6082 C   0  0  0  0  0  0  0  0  0  0  0  0
    3.5239    1.4681    1.7314 C   0  0  0  0  0  0  0  0  0  0  0  0
    2.9541    0.4611    0.8106 N   0  0  0  0  0  0  0  0  0  0  0  0
    2.7165    0.7285   -0.5491 C   0  0  0  0  0  0  0  0  0  0  0  0
    2.9686    1.9098   -0.9705 O   0  0  0  0  0  0  0  0  0  0  0  0
    2.2030   -0.2196   -1.5385 C   0  0  1  0  0  0  0  0  0  0  0  0
    1.8191    0.5245   -2.7563 N   0  0  0  0  0  0  0  0  0  0  0  0
    3.1983   -1.2539   -1.9983 C   0  0  0  0  0  0  0  0  0  0  0  0
    4.4008   -0.6909   -2.6353 C   0  0  0  0  0  0  0  0  0  0  0  0
    4.4927   -0.4492   -3.9923 C   0  0  0  0  0  0  0  0  0  0  0  0
    5.6445    0.0785   -4.5373 C   0  0  0  0  0  0  0  0  0  0  0  0
    6.7543    0.3908   -3.7729 C   0  0  0  0  0  0  0  0  0  0  0  0
    7.9126    0.9246   -4.3425 O   0  0  0  0  0  0  0  0  0  0  0  0
    6.6553    0.1466   -2.4176 C   0  0  0  0  0  0  0  0  0  0  0  0
    5.5036   -0.3819   -1.8664 C   0  0  0  0  0  0  0  0  0  0  0  0
   -5.2153    0.2910   -0.6380 C   0  0  0  0  0  0  0  0  0  0  0  0
   -5.9712    0.4291   -1.8347 N   0  0  0  0  0  0  0  0  0  0  0  0
   -5.6352    0.9219    0.3593 O   0  0  0  0  0  0  0  0  0  0  0  0
   -6.2913   -1.8269    0.8119 H   0  0  0  0  0  0  0  0  0  0  0  0
   -6.9509   -2.2327   -0.8707 H   0  0  0  0  0  0  0  0  0  0  0  0
   -6.8756   -3.5026    0.3427 H   0  0  0  0  0  0  0  0  0  0  0  0
   -4.2980   -3.0880    0.5154 H   0  0  0  0  0  0  0  0  0  0  0  0
   -5.8712   -4.2925   -1.8162 H   0  0  0  0  0  0  0  0  0  0  0  0
   -4.9334   -5.0784   -0.4204 H   0  0  0  0  0  0  0  0  0  0  0  0
   -4.0973   -4.3604   -1.8078 H   0  0  0  0  0  0  0  0  0  0  0  0
   -4.7670   -1.8491   -2.2215 H   0  0  0  0  0  0  0  0  0  0  0  0
   -3.2175   -2.3416   -1.5438 H   0  0  0  0  0  0  0  0  0  0  0  0
   -3.2788   -0.0657   -1.3848 H   0  0  0  0  0  0  0  0  0  0  0  0
   -3.8074   -0.8909    1.4420 H   0  0  0  0  0  0  0  0  0  0  0  0
   -1.1158   -1.3771    2.2921 H   0  0  0  0  0  0  0  0  0  0  0  0
   -0.8679    0.3391    3.8865 H   0  0  0  0  0  0  0  0  0  0  0  0
   -2.5440    0.1391    3.3605 H   0  0  0  0  0  0  0  0  0  0  0  0
   -3.7239    1.8595    2.2681 H   0  0  0  0  0  0  0  0  0  0  0  0
   -3.9733    4.2519    1.8299 H   0  0  0  0  0  0  0  0  0  0  0  0
   -2.1040    5.7747    2.0979 H   0  0  0  0  0  0  0  0  0  0  0  0
    0.0738    4.8914    2.8171 H   0  0  0  0  0  0  0  0  0  0  0  0
    0.3422    2.4326    3.2616 H   0  0  0  0  0  0  0  0  0  0  0  0
    0.5503    0.8173    1.1353 H   0  0  0  0  0  0  0  0  0  0  0  0
    3.2100   -1.5805    1.0648 H   0  0  0  0  0  0  0  0  0  0  0  0
    2.9231   -0.2805    3.7398 H   0  0  0  0  0  0  0  0  0  0  0  0
    4.1698   -1.4713    3.1040 H   0  0  0  0  0  0  0  0  0  0  0  0
    5.3477    0.3557    1.9940 H   0  0  0  0  0  0  0  0  0  0  0  0
    4.7147    1.1869    3.5108 H   0  0  0  0  0  0  0  0  0  0  0  0
    2.7319    1.9574    2.3310 H   0  0  0  0  0  0  0  0  0  0  0  0
    4.0510    2.2517    1.1670 H   0  0  0  0  0  0  0  0  0  0  0  0
    1.2993   -0.7578   -1.2059 H   0  0  0  0  0  0  0  0  0  0  0  0
    1.4630    1.4809   -2.4834 H   0  0  0  0  0  0  0  0  0  0  0  0
    1.0290    0.0579   -3.2485 H   0  0  0  0  0  0  0  0  0  0  0  0
    3.4767   -1.9679   -1.2387 H   0  0  0  0  0  0  0  0  0  0  0  0
    2.6732   -1.8472   -2.8038 H   0  0  0  0  0  0  0  0  0  0  0  0
    3.6247   -0.6888   -4.6145 H   0  0  0  0  0  0  0  0  0  0  0  0
    5.7146    0.2682   -5.6131 H   0  0  0  0  0  0  0  0  0  0  0  0
    7.9323    1.9534   -4.3872 H   0  0  0  0  0  0  0  0  0  0  0  0
    7.4932    0.3713   -1.7700 H   0  0  0  0  0  0  0  0  0  0  0  0
    5.4950   -0.5503   -0.7780 H   0  0  0  0  0  0  0  0  0  0  0  0
   -6.2582   -0.3763   -2.4336 H   0  0  0  0  0  0  0  0  0  0  0  0
   -6.2363    1.4196   -2.0968 H   0  0  0  0  0  0  0  0  0  0  0  0
  1  2  1  0
  2  3  1  0
  2  4  1  0
  4  5  1  0
  5  6  1  0
  6  7  1  0
  7  8  2  0
  7  9  1  0
  9 10  1  0
 10 11  1  0
 11 12  2  0
 12 13  1  0
 13 14  2  0
 14 15  1  0
 15 16  2  0
  9 17  1  0
 17 18  1  0
 18 19  2  0
 18 20  1  0
 20 21  1  0
 21 22  1  0
 22 23  1  0
 23 24  1  0
 24 25  1  0
 25 26  2  0
 25 27  1  0
 27 28  1  0
 27 29  1  0
 29 30  1  0
 30 31  2  0
 31 32  1  0
 32 33  2  0
 33 34  1  0
 33 35  1  0
 35 36  2  0
  5 37  1  0
 37 38  1  0
 37 39  2  0
 16 11  1  0
 24 20  1  0
 36 30  1  0
  1 40  1  0
  1 41  1  0
  1 42  1  0
  2 43  1  0
  3 44  1  0
  3 45  1  0
  3 46  1  0
  4 47  1  0
  4 48  1  0
  5 49  1  6
  6 50  1  0
  9 51  1  1
 10 52  1  0
 10 53  1  0
 12 54  1  0
 13 55  1  0
 14 56  1  0
 15 57  1  0
 16 58  1  0
 17 59  1  0
 20 60  1  6
 21 61  1  0
 21 62  1  0
 22 63  1  0
 22 64  1  0
 23 65  1  0
 23 66  1  0
 27 67  1  1
 28 68  1  0
 28 69  1  0
 29 70  1  0
 29 71  1  0
 31 72  1  0
 32 73  1  0
 34 74  1  0
 35 75  1  0
 36 76  1  0
 38 77  1  0
 38 78  1  0
M  END
$$$$
[H]O[C@]1(C([H])([H])C([H])([H])[H])C([H])([H])C([H])([H])[C@@]2([H])[C@]3([H])C([H])([H])C([H])([H])C4=C([H])C(=O)C([H])([H])C([H])([H])[C@]4(C([H])([H])[H])[C@@]3(C([H])([H])[H])C([H])([H])C([H])([H])C([H])([H])[C@@]21C([H])([H])[H]
     RDKit          3D

 61 64  0  0  0  0  0  0  0  0999 V2000
   -5.7282    0.6468    0.0355 C   0  0  0  0  0  0  0  0  0  0  0  0
   -4.5329    0.0112   -0.6826 C   0  0  0  0  0  0  0  0  0  0  0  0
   -3.2851    0.3648    0.0592 C   0  0  1  0  0  0  0  0  0  0  0  0
   -3.0734    1.7307    0.1283 O   0  0  0  0  0  0  0  0  0  0  0  0
   -3.2587   -0.2152    1.4541 C   0  0  0  0  0  0  0  0  0  0  0  0
   -1.8466   -0.6903    1.7193 C   0  0  0  0  0  0  0  0  0  0  0  0
   -1.0789    0.0419    0.6039 C   0  0  1  0  0  0  0  0  0  0  0  0
    0.2907   -0.4343    0.4474 C   0  0  2  0  0  0  0  0  0  0  0  0
    0.8008   -1.0222    1.7524 C   0  0  0  0  0  0  0  0  0  0  0  0
    1.8981   -2.0059    1.3099 C   0  0  0  0  0  0  0  0  0  0  0  0
    2.9728   -1.0998    0.8010 C   0  0  0  0  0  0  0  0  0  0  0  0
    4.1934   -1.3406    1.2053 C   0  0  0  0  0  0  0  0  0  0  0  0
    5.3885   -0.5640    0.8189 C   0  0  0  0  0  0  0  0  0  0  0  0
    6.5485   -0.9047    1.0671 O   0  0  0  0  0  0  0  0  0  0  0  0
    5.1096    0.6938    0.0897 C   0  0  0  0  0  0  0  0  0  0  0  0
    3.6671    1.1230    0.3952 C   0  0  0  0  0  0  0  0  0  0  0  0
    2.7085    0.0250   -0.1108 C   0  0  1  0  0  0  0  0  0  0  0  0
    3.2292   -0.2768   -1.5090 C   0  0  0  0  0  0  0  0  0  0  0  0
    1.2879    0.4927   -0.1648 C   0  0  2  0  0  0  0  0  0  0  0  0
    1.2603    1.9016    0.3473 C   0  0  0  0  0  0  0  0  0  0  0  0
    0.8292    0.5869   -1.6378 C   0  0  0  0  0  0  0  0  0  0  0  0
   -0.4811    1.2765   -1.7975 C   0  0  0  0  0  0  0  0  0  0  0  0
   -1.6487    0.2965   -1.8438 C   0  0  0  0  0  0  0  0  0  0  0  0
   -2.0360   -0.2619   -0.5326 C   0  0  2  0  0  0  0  0  0  0  0  0
   -2.3229   -1.7350   -0.6875 C   0  0  0  0  0  0  0  0  0  0  0  0
   -6.6332    0.0849   -0.3028 H   0  0  0  0  0  0  0  0  0  0  0  0
   -5.8150    1.7292   -0.2181 H   0  0  0  0  0  0  0  0  0  0  0  0
   -5.6526    0.5352    1.1265 H   0  0  0  0  0  0  0  0  0  0  0  0
   -4.5477    0.3472   -1.7177 H   0  0  0  0  0  0  0  0  0  0  0  0
   -4.7128   -1.0809   -0.6157 H   0  0  0  0  0  0  0  0  0  0  0  0
   -3.3353    2.1807   -0.7000 H   0  0  0  0  0  0  0  0  0  0  0  0
   -3.4794    0.5675    2.2267 H   0  0  0  0  0  0  0  0  0  0  0  0
   -3.9857   -1.0433    1.5791 H   0  0  0  0  0  0  0  0  0  0  0  0
   -1.4836   -0.3608    2.7135 H   0  0  0  0  0  0  0  0  0  0  0  0
   -1.8206   -1.7876    1.5826 H   0  0  0  0  0  0  0  0  0  0  0  0
   -1.2549    1.1026    0.8490 H   0  0  0  0  0  0  0  0  0  0  0  0
    0.2284   -1.3132   -0.2703 H   0  0  0  0  0  0  0  0  0  0  0  0
    1.2871   -0.2492    2.3942 H   0  0  0  0  0  0  0  0  0  0  0  0
    0.0696   -1.6099    2.2967 H   0  0  0  0  0  0  0  0  0  0  0  0
    2.2219   -2.6569    2.1064 H   0  0  0  0  0  0  0  0  0  0  0  0
    1.5038   -2.5484    0.4273 H   0  0  0  0  0  0  0  0  0  0  0  0
    4.3865   -2.1831    1.8908 H   0  0  0  0  0  0  0  0  0  0  0  0
    5.7452    1.4846    0.5637 H   0  0  0  0  0  0  0  0  0  0  0  0
    5.3421    0.6856   -0.9708 H   0  0  0  0  0  0  0  0  0  0  0  0
    3.5487    2.0706   -0.1276 H   0  0  0  0  0  0  0  0  0  0  0  0
    3.6568    1.1838    1.5088 H   0  0  0  0  0  0  0  0  0  0  0  0
    3.5575    0.6980   -1.9768 H   0  0  0  0  0  0  0  0  0  0  0  0
    2.5512   -0.8373   -2.1440 H   0  0  0  0  0  0  0  0  0  0  0  0
    4.1651   -0.8873   -1.4947 H   0  0  0  0  0  0  0  0  0  0  0  0
    1.8778    2.0688    1.2669 H   0  0  0  0  0  0  0  0  0  0  0  0
    1.6249    2.5545   -0.5046 H   0  0  0  0  0  0  0  0  0  0  0  0
    0.3005    2.3307    0.6072 H   0  0  0  0  0  0  0  0  0  0  0  0
    0.6137   -0.4895   -1.9174 H   0  0  0  0  0  0  0  0  0  0  0  0
    1.5772    1.0536   -2.2690 H   0  0  0  0  0  0  0  0  0  0  0  0
   -0.4860    1.7569   -2.8221 H   0  0  0  0  0  0  0  0  0  0  0  0
   -0.7396    2.0561   -1.1018 H   0  0  0  0  0  0  0  0  0  0  0  0
   -2.5363    0.7505   -2.3292 H   0  0  0  0  0  0  0  0  0  0  0  0
   -1.3199   -0.5235   -2.5148 H   0  0  0  0  0  0  0  0  0  0  0  0
   -3.0849   -2.1059    0.0291 H   0  0  0  0  0  0  0  0  0  0  0  0
   -2.8231   -1.8325   -1.6971 H   0  0  0  0  0  0  0  0  0  0  0  0
   -1.4392   -2.3725   -0.7420 H   0  0  0  0  0  0  0  0  0  0  0  0
  1  2  1  0
  2  3  1  0
  3  4  1  1
  3  5  1  0
  5  6  1  0
  6  7  1  0
  7  8  1  0
  8  9  1  0
  9 10  1  0
 10 11  1  0
 11 12  2  0
 12 13  1  0
 13 14  2  0
 13 15  1  0
 15 16  1  0
 16 17  1  0
 17 18  1  6
 17 19  1  0
 19 20  1  1
 19 21  1  0
 21 22  1  0
 22 23  1  0
 23 24  1  0
 24 25  1  6
 24  3  1  0
 24  7  1  0
 19  8  1  0
 17 11  1  0
  1 26  1  0
  1 27  1  0
  1 28  1  0
  2 29  1  0
  2 30  1  0
  4 31  1  0
  5 32  1  0
  5 33  1  0
  6 34  1  0
  6 35  1  0
  7 36  1  1
  8 37  1  6
  9 38  1  0
  9 39  1  0
 10 40  1  0
 10 41  1  0
 12 42  1  0
 15 43  1  0
 15 44  1  0
 16 45  1  0
 16 46  1  0
 18 47  1  0
 18 48  1  0
 18 49  1  0
 20 50  1  0
 20 51  1  0
 20 52  1  0
 21 53  1  0
 21 54  1  0
 22 55  1  0
 22 56  1  0
 23 57  1  0
 23 58  1  0
 25 59  1  0
 25 60  1  0
 25 61  1  0
M  END
$$$$
[H]N=C(N([H])[H])N([H])C([H])([H])C([H])([H])C([H])([H])[C@@]([H])(C(=O)c1nc([H])c([H])s1)N([H])C(=O)[C@@]([H])(N([H])C(=O)[C@@]1([H])N(C(=O)[C@]([H])(N([H])C(=O)OC([H])([H])c2c([H])c([H])c([H])c([H])c2[H])C([H])([H])c2c([H])c([H])c([H])c([H])c2[H])C([H])([H])C([H])([H])C1([H])[H])C([H])([H])C([H])([H])C([H])([H])N([H])C(=N[H])N([H])[H]
     RDKit          3D

104107  0  0  0  0  0  0  0  0999 V2000
    2.4636   -6.7272    1.1234 N   0  0  0  0  0  0  0  0  0  0  0  0
    3.3454   -6.2959    0.0337 C   0  0  0  0  0  0  0  0  0  0  0  0
    4.0922   -7.0436   -0.5433 N   0  0  0  0  0  0  0  0  0  0  0  0
    3.2211   -4.8642   -0.1913 N   0  0  0  0  0  0  0  0  0  0  0  0
    3.4919   -4.0431    0.9526 C   0  0  0  0  0  0  0  0  0  0  0  0
    3.2373   -2.6014    0.7267 C   0  0  0  0  0  0  0  0  0  0  0  0
    1.8072   -2.3156    0.3315 C   0  0  0  0  0  0  0  0  0  0  0  0
    1.5770   -0.8158    0.1907 C   0  0  2  0  0  0  0  0  0  0  0  0
    0.2649   -0.5546   -0.2225 N   0  0  0  0  0  0  0  0  0  0  0  0
   -0.5629    0.2421    0.6349 C   0  0  0  0  0  0  0  0  0  0  0  0
    0.0069    0.6416    1.7017 O   0  0  0  0  0  0  0  0  0  0  0  0
   -1.9369    0.6183    0.4173 C   0  0  2  0  0  0  0  0  0  0  0  0
   -2.2312    1.9347    1.2162 C   0  0  0  0  0  0  0  0  0  0  0  0
   -2.3609    1.4661    2.6520 C   0  0  0  0  0  0  0  0  0  0  0  0
   -2.5081   -0.0420    2.5242 C   0  0  0  0  0  0  0  0  0  0  0  0
   -2.8930   -0.2197    1.1265 N   0  0  0  0  0  0  0  0  0  0  0  0
   -3.9975   -0.8847    0.6350 C   0  0  0  0  0  0  0  0  0  0  0  0
   -4.6345   -1.6786    1.3375 O   0  0  0  0  0  0  0  0  0  0  0  0
   -4.4913   -0.6568   -0.7810 C   0  0  1  0  0  0  0  0  0  0  0  0
   -3.9963   -1.6130   -1.7693 C   0  0  0  0  0  0  0  0  0  0  0  0
   -4.3719   -3.0404   -1.5388 C   0  0  0  0  0  0  0  0  0  0  0  0
   -3.5538   -3.8089   -0.7592 C   0  0  0  0  0  0  0  0  0  0  0  0
   -3.8291   -5.1198   -0.5091 C   0  0  0  0  0  0  0  0  0  0  0  0
   -4.9762   -5.7364   -1.0508 C   0  0  0  0  0  0  0  0  0  0  0  0
   -5.7720   -4.9243   -1.8314 C   0  0  0  0  0  0  0  0  0  0  0  0
   -5.4928   -3.5955   -2.0828 C   0  0  0  0  0  0  0  0  0  0  0  0
   -5.9459   -0.6682   -0.6240 N   0  0  0  0  0  0  0  0  0  0  0  0
   -6.6116    0.4582   -0.0246 C   0  0  0  0  0  0  0  0  0  0  0  0
   -5.9549    1.4485    0.3570 O   0  0  0  0  0  0  0  0  0  0  0  0
   -7.9811    0.4706    0.1539 O   0  0  0  0  0  0  0  0  0  0  0  0
   -8.6691    1.5064    0.7715 C   0  0  0  0  0  0  0  0  0  0  0  0
   -8.6065    2.8411    0.2277 C   0  0  0  0  0  0  0  0  0  0  0  0
   -8.7337    3.9102    1.0927 C   0  0  0  0  0  0  0  0  0  0  0  0
   -8.7032    5.2377    0.6589 C   0  0  0  0  0  0  0  0  0  0  0  0
   -8.5405    5.4945   -0.6805 C   0  0  0  0  0  0  0  0  0  0  0  0
   -8.4144    4.3973   -1.5474 C   0  0  0  0  0  0  0  0  0  0  0  0
   -8.4467    3.1015   -1.1019 C   0  0  0  0  0  0  0  0  0  0  0  0
    2.6683   -0.1430   -0.5692 C   0  0  0  0  0  0  0  0  0  0  0  0
    2.6353   -0.1542   -1.8172 O   0  0  0  0  0  0  0  0  0  0  0  0
    3.6974    0.4852    0.1174 N   0  0  0  0  0  0  0  0  0  0  0  0
    4.9133    1.1959   -0.3496 C   0  0  1  0  0  0  0  0  0  0  0  0
    4.4470    2.3920   -1.0845 C   0  0  0  0  0  0  0  0  0  0  0  0
    5.1765    3.4491   -1.7195 C   0  0  0  0  0  0  0  0  0  0  0  0
    5.9522    4.5086   -1.0854 C   0  0  0  0  0  0  0  0  0  0  0  0
    7.0907    4.3782   -0.3028 N   0  0  0  0  0  0  0  0  0  0  0  0
    8.4089    4.0100   -0.6050 C   0  0  0  0  0  0  0  0  0  0  0  0
    9.4298    4.0210    0.4132 N   0  0  0  0  0  0  0  0  0  0  0  0
    8.7871    3.6731   -1.7679 N   0  0  0  0  0  0  0  0  0  0  0  0
    5.7237    1.3427    0.8502 C   0  0  0  0  0  0  0  0  0  0  0  0
    5.2206    1.8472    1.9197 O   0  0  0  0  0  0  0  0  0  0  0  0
    7.1163    0.9307    0.9571 C   0  0  0  0  0  0  0  0  0  0  0  0
    7.9255    0.3879    0.0419 N   0  0  0  0  0  0  0  0  0  0  0  0
    9.1393    0.0861    0.3567 C   0  0  0  0  0  0  0  0  0  0  0  0
    9.5683    0.3299    1.6276 C   0  0  0  0  0  0  0  0  0  0  0  0
    8.1623    1.0041    2.3302 S   0  0  0  0  0  0  0  0  0  0  0  0
    2.5081   -7.7189    1.3953 H   0  0  0  0  0  0  0  0  0  0  0  0
    1.8212   -6.0871    1.5975 H   0  0  0  0  0  0  0  0  0  0  0  0
    4.6516   -7.5982   -0.9773 H   0  0  0  0  0  0  0  0  0  0  0  0
    2.9599   -4.5489   -1.1159 H   0  0  0  0  0  0  0  0  0  0  0  0
    2.9468   -4.4509    1.8531 H   0  0  0  0  0  0  0  0  0  0  0  0
    4.5762   -4.2400    1.2194 H   0  0  0  0  0  0  0  0  0  0  0  0
    3.9798   -2.1408    0.0800 H   0  0  0  0  0  0  0  0  0  0  0  0
    3.3586   -2.0892    1.7325 H   0  0  0  0  0  0  0  0  0  0  0  0
    1.1027   -2.6912    1.1138 H   0  0  0  0  0  0  0  0  0  0  0  0
    1.5931   -2.8635   -0.5980 H   0  0  0  0  0  0  0  0  0  0  0  0
    1.6875   -0.3759    1.2459 H   0  0  0  0  0  0  0  0  0  0  0  0
   -0.1407   -0.9172   -1.1296 H   0  0  0  0  0  0  0  0  0  0  0  0
   -2.1651    0.8378   -0.6058 H   0  0  0  0  0  0  0  0  0  0  0  0
   -1.4200    2.6446    1.1368 H   0  0  0  0  0  0  0  0  0  0  0  0
   -3.2362    2.2740    0.8915 H   0  0  0  0  0  0  0  0  0  0  0  0
   -3.2799    1.8887    3.1261 H   0  0  0  0  0  0  0  0  0  0  0  0
   -1.5003    1.6707    3.2873 H   0  0  0  0  0  0  0  0  0  0  0  0
   -3.3338   -0.3392    3.2135 H   0  0  0  0  0  0  0  0  0  0  0  0
   -1.6364   -0.6104    2.8421 H   0  0  0  0  0  0  0  0  0  0  0  0
   -4.1895    0.3704   -0.9863 H   0  0  0  0  0  0  0  0  0  0  0  0
   -2.8969   -1.5321   -1.9167 H   0  0  0  0  0  0  0  0  0  0  0  0
   -4.4672   -1.3688   -2.7578 H   0  0  0  0  0  0  0  0  0  0  0  0
   -2.6320   -3.3549   -0.3133 H   0  0  0  0  0  0  0  0  0  0  0  0
   -3.1857   -5.7694    0.1113 H   0  0  0  0  0  0  0  0  0  0  0  0
   -5.1755   -6.7777   -0.8520 H   0  0  0  0  0  0  0  0  0  0  0  0
   -6.6633   -5.4065   -2.2444 H   0  0  0  0  0  0  0  0  0  0  0  0
   -6.1626   -3.0300   -2.6995 H   0  0  0  0  0  0  0  0  0  0  0  0
   -6.5074   -1.4634   -0.9243 H   0  0  0  0  0  0  0  0  0  0  0  0
   -8.4179    1.4616    1.8749 H   0  0  0  0  0  0  0  0  0  0  0  0
   -9.7713    1.1970    0.7753 H   0  0  0  0  0  0  0  0  0  0  0  0
   -8.8573    3.7850    2.1663 H   0  0  0  0  0  0  0  0  0  0  0  0
   -8.8042    6.0544    1.3697 H   0  0  0  0  0  0  0  0  0  0  0  0
   -8.5135    6.5193   -1.0517 H   0  0  0  0  0  0  0  0  0  0  0  0
   -8.2941    4.6774   -2.6026 H   0  0  0  0  0  0  0  0  0  0  0  0
   -8.3476    2.3075   -1.8174 H   0  0  0  0  0  0  0  0  0  0  0  0
    3.5885    0.4477    1.1956 H   0  0  0  0  0  0  0  0  0  0  0  0
    5.3686    0.5383   -1.1255 H   0  0  0  0  0  0  0  0  0  0  0  0
    3.5894    2.8939   -0.4733 H   0  0  0  0  0  0  0  0  0  0  0  0
    3.7650    1.9372   -1.9341 H   0  0  0  0  0  0  0  0  0  0  0  0
    4.4018    3.9863   -2.4232 H   0  0  0  0  0  0  0  0  0  0  0  0
    5.8543    3.0290   -2.5659 H   0  0  0  0  0  0  0  0  0  0  0  0
    6.2662    5.2117   -1.9715 H   0  0  0  0  0  0  0  0  0  0  0  0
    5.2075    5.2780   -0.5786 H   0  0  0  0  0  0  0  0  0  0  0  0
    6.9499    4.6030    0.7538 H   0  0  0  0  0  0  0  0  0  0  0  0
   10.3937    3.6916    0.2418 H   0  0  0  0  0  0  0  0  0  0  0  0
    9.1473    4.3806    1.3636 H   0  0  0  0  0  0  0  0  0  0  0  0
    8.1194    3.6572   -2.5824 H   0  0  0  0  0  0  0  0  0  0  0  0
    9.8403   -0.3767   -0.3786 H   0  0  0  0  0  0  0  0  0  0  0  0
   10.5667    0.1444    2.0719 H   0  0  0  0  0  0  0  0  0  0  0  0
  1  2  1  0
  2  3  2  3
  2  4  1  0
  4  5  1  0
  5  6  1  0
  6  7  1  0
  7  8  1  0
  8  9  1  0
  9 10  1  0
 10 11  2  0
 10 12  1  0
 12 13  1  0
 13 14  1  0
 14 15  1  0
 15 16  1  0
 16 17  1  0
 17 18  2  0
 17 19  1  0
 19 20  1  0
 20 21  1  0
 21 22  2  0
 22 23  1  0
 23 24  2  0
 24 25  1  0
 25 26  2  0
 19 27  1  0
 27 28  1  0
 28 29  2  0
 28 30  1  0
 30 31  1  0
 31 32  1  0
 32 33  2  0
 33 34  1  0
 34 35  2  0
 35 36  1  0
 36 37  2  0
  8 38  1  0
 38 39  2  0
 38 40  1  0
 40 41  1  0
 41 42  1  0
 42 43  1  0
 43 44  1  0
 44 45  1  0
 45 46  1  0
 46 47  1  0
 46 48  2  3
 41 49  1  0
 49 50  2  0
 49 51  1  0
 51 52  2  0
 52 53  1  0
 53 54  2  0
 54 55  1  0
 16 12  1  0
 26 21  1  0
 37 32  1  0
 55 51  1  0
  1 56  1  0
  1 57  1  0
  3 58  1  0
  4 59  1  0
  5 60  1  0
  5 61  1  0
  6 62  1  0
  6 63  1  0
  7 64  1  0
  7 65  1  0
  8 66  1  1
  9 67  1  0
 12 68  1  6
 13 69  1  0
 13 70  1  0
 14 71  1  0
 14 72  1  0
 15 73  1  0
 15 74  1  0
 19 75  1  6
 20 76  1  0
 20 77  1  0
 22 78  1  0
 23 79  1  0
 24 80  1  0
 25 81  1  0
 26 82  1  0
 27 83  1  0
 31 84  1  0
 31 85  1  0
 33 86  1  0
 34 87  1  0
 35 88  1  0
 36 89  1  0
 37 90  1  0
 40 91  1  0
 41 92  1  6
 42 93  1  0
 42 94  1  0
 43 95  1  0
 43 96  1  0
 44 97  1  0
 44 98  1  0
 45 99  1  0
 47100  1  0
 47101  1  0
 48102  1  0
 53103  1  0
 54104  1  0
M  END
$$$$
[H]c1nc(N([H])c2c([H])c([H])c(N3C([H])([H])C([H])([H])C([H])(N(C([H])([H])[H])C([H])([H])[H])C([H])([H])C3([H])[H])c([H])c2OC([H])([H])[H])nc(N([H])c2c([H])c([H])c([H])c([H])c2S(=O)(=O)C([H])(C([H])([H])[H])C([H])([H])[H])c1Cl
     RDKit          3D

 73 76  0  0  0  0  0  0  0  0999 V2000
   -1.4887   -3.5880    1.2680 C   0  0  0  0  0  0  0  0  0  0  0  0
   -0.7608   -2.5452    0.6863 O   0  0  0  0  0  0  0  0  0  0  0  0
   -1.4161   -1.4468    0.1649 C   0  0  0  0  0  0  0  0  0  0  0  0
   -2.7697   -1.3138    0.1835 C   0  0  0  0  0  0  0  0  0  0  0  0
   -3.4310   -0.2298   -0.3300 C   0  0  0  0  0  0  0  0  0  0  0  0
   -2.6699    0.7643   -0.8887 C   0  0  0  0  0  0  0  0  0  0  0  0
   -1.2837    0.6857   -0.9374 C   0  0  0  0  0  0  0  0  0  0  0  0
   -0.6456   -0.4090   -0.4169 C   0  0  0  0  0  0  0  0  0  0  0  0
    0.7306   -0.5530   -0.4331 N   0  0  0  0  0  0  0  0  0  0  0  0
    1.7028    0.3458   -0.9492 C   0  0  0  0  0  0  0  0  0  0  0  0
    1.4800    1.5214   -1.5269 N   0  0  0  0  0  0  0  0  0  0  0  0
    2.4593    2.3096   -1.9876 C   0  0  0  0  0  0  0  0  0  0  0  0
    3.7698    1.9304   -1.8818 C   0  0  0  0  0  0  0  0  0  0  0  0
    5.0878    2.9156   -2.4745 Cl  0  0  0  0  0  0  0  0  0  0  0  0
    4.0678    0.6884   -1.2753 C   0  0  0  0  0  0  0  0  0  0  0  0
    5.4172    0.3014   -1.1217 N   0  0  0  0  0  0  0  0  0  0  0  0
    5.8705   -0.9049   -0.5954 C   0  0  0  0  0  0  0  0  0  0  0  0
    5.0906   -2.0601   -0.5353 C   0  0  0  0  0  0  0  0  0  0  0  0
    5.6105   -3.2759   -0.1172 C   0  0  0  0  0  0  0  0  0  0  0  0
    6.9209   -3.3878    0.2545 C   0  0  0  0  0  0  0  0  0  0  0  0
    7.6858   -2.2549    0.1966 C   0  0  0  0  0  0  0  0  0  0  0  0
    7.2100   -1.0030   -0.2158 C   0  0  0  0  0  0  0  0  0  0  0  0
    8.2797    0.3289   -0.1092 S   0  0  0  0  0  0  0  0  0  0  0  0
    9.7039   -0.2341    0.1061 O   0  0  0  0  0  0  0  0  0  0  0  0
    8.4312    1.1263   -1.3815 O   0  0  0  0  0  0  0  0  0  0  0  0
    8.0255    1.4139    1.2573 C   0  0  0  0  0  0  0  0  0  0  0  0
    9.1794    2.4149    1.3719 C   0  0  0  0  0  0  0  0  0  0  0  0
    6.7769    2.1937    1.2396 C   0  0  0  0  0  0  0  0  0  0  0  0
    3.0226    0.0056   -0.8635 N   0  0  0  0  0  0  0  0  0  0  0  0
   -4.8624   -0.0923   -0.3072 N   0  0  0  0  0  0  0  0  0  0  0  0
   -5.5849   -1.1673    0.3276 C   0  0  0  0  0  0  0  0  0  0  0  0
   -7.0407   -0.9434    0.5155 C   0  0  0  0  0  0  0  0  0  0  0  0
   -7.4356    0.4949    0.3818 C   0  0  0  0  0  0  0  0  0  0  0  0
   -6.9640    0.9951   -0.9680 C   0  0  0  0  0  0  0  0  0  0  0  0
   -5.4597    1.0612   -0.8960 C   0  0  0  0  0  0  0  0  0  0  0  0
   -8.8564    0.6589    0.5708 N   0  0  0  0  0  0  0  0  0  0  0  0
   -9.2782    2.0230    0.4605 C   0  0  0  0  0  0  0  0  0  0  0  0
   -9.6390   -0.2430   -0.2416 C   0  0  0  0  0  0  0  0  0  0  0  0
   -0.7931   -4.1921    1.9054 H   0  0  0  0  0  0  0  0  0  0  0  0
   -1.9544   -4.2113    0.4616 H   0  0  0  0  0  0  0  0  0  0  0  0
   -2.2604   -3.2007    1.9817 H   0  0  0  0  0  0  0  0  0  0  0  0
   -3.3514   -2.1246    0.6360 H   0  0  0  0  0  0  0  0  0  0  0  0
   -3.1295    1.6488   -1.3125 H   0  0  0  0  0  0  0  0  0  0  0  0
   -0.7832    1.5103   -1.3929 H   0  0  0  0  0  0  0  0  0  0  0  0
    1.1068   -1.4691    0.0044 H   0  0  0  0  0  0  0  0  0  0  0  0
    2.2213    3.2667   -2.4541 H   0  0  0  0  0  0  0  0  0  0  0  0
    6.1140    0.9939   -1.4647 H   0  0  0  0  0  0  0  0  0  0  0  0
    4.0603   -2.0188   -0.8381 H   0  0  0  0  0  0  0  0  0  0  0  0
    4.9515   -4.1295   -0.0940 H   0  0  0  0  0  0  0  0  0  0  0  0
    7.3564   -4.3431    0.5885 H   0  0  0  0  0  0  0  0  0  0  0  0
    8.7315   -2.3610    0.4975 H   0  0  0  0  0  0  0  0  0  0  0  0
    8.1309    0.7711    2.1790 H   0  0  0  0  0  0  0  0  0  0  0  0
    9.2341    2.9999    0.4280 H   0  0  0  0  0  0  0  0  0  0  0  0
    8.8903    3.1190    2.1704 H   0  0  0  0  0  0  0  0  0  0  0  0
   10.1385    1.9091    1.5465 H   0  0  0  0  0  0  0  0  0  0  0  0
    6.6586    2.6546    0.2401 H   0  0  0  0  0  0  0  0  0  0  0  0
    5.9200    1.5461    1.5414 H   0  0  0  0  0  0  0  0  0  0  0  0
    6.8570    3.0425    1.9945 H   0  0  0  0  0  0  0  0  0  0  0  0
   -5.4057   -2.0834   -0.2985 H   0  0  0  0  0  0  0  0  0  0  0  0
   -5.1129   -1.3839    1.3330 H   0  0  0  0  0  0  0  0  0  0  0  0
   -7.3369   -1.2598    1.5530 H   0  0  0  0  0  0  0  0  0  0  0  0
   -7.5857   -1.5404   -0.2484 H   0  0  0  0  0  0  0  0  0  0  0  0
   -6.9204    1.0822    1.1579 H   0  0  0  0  0  0  0  0  0  0  0  0
   -7.3716    2.0047   -1.1693 H   0  0  0  0  0  0  0  0  0  0  0  0
   -7.2424    0.3151   -1.7855 H   0  0  0  0  0  0  0  0  0  0  0  0
   -5.0229    1.2094   -1.9181 H   0  0  0  0  0  0  0  0  0  0  0  0
   -5.2243    1.9555   -0.2465 H   0  0  0  0  0  0  0  0  0  0  0  0
   -9.3583    2.3936   -0.5797 H   0  0  0  0  0  0  0  0  0  0  0  0
   -8.5425    2.6556    1.0032 H   0  0  0  0  0  0  0  0  0  0  0  0
  -10.3018    2.1167    0.9062 H   0  0  0  0  0  0  0  0  0  0  0  0
  -10.5738    0.3178   -0.5167 H   0  0  0  0  0  0  0  0  0  0  0  0
   -9.1485   -0.5590   -1.1630 H   0  0  0  0  0  0  0  0  0  0  0  0
   -9.8879   -1.1629    0.3397 H   0  0  0  0  0  0  0  0  0  0  0  0
  1  2  1  0
  2  3  1  0
  3  4  2  0
  4  5  1  0
  5  6  2  0
  6  7  1  0
  7  8  2  0
  8  9  1  0
  9 10  1  0
 10 11  2  0
 11 12  1  0
 12 13  2  0
 13 14  1  0
 13 15  1  0
 15 16  1  0
 16 17  1  0
 17 18  2  0
 18 19  1  0
 19 20  2  0
 20 21  1  0
 21 22  2  0
 22 23  1  0
 23 24  2  0
 23 25  2  0
 23 26  1  0
 26 27  1  0
 26 28  1  0
 15 29  2  0
  5 30  1  0
 30 31  1  0
 31 32  1  0
 32 33  1  0
 33 34  1  0
 34 35  1  0
 33 36  1  0
 36 37  1  0
 36 38  1  0
  8  3  1  0
 29 10  1  0
 35 30  1  0
 22 17  1  0
  1 39  1  0
  1 40  1  0
  1 41  1  0
  4 42  1  0
  6 43  1  0
  7 44  1  0
  9 45  1  0
 12 46  1  0
 16 47  1  0
 18 48  1  0
 19 49  1  0
 20 50  1  0
 21 51  1  0
 26 52  1  0
 27 53  1  0
 27 54  1  0
 27 55  1  0
 28 56  1  0
 28 57  1  0
 28 58  1  0
 31 59  1  0
 31 60  1  0
 32 61  1  0
 32 62  1  0
 33 63  1  0
 34 64  1  0
 34 65  1  0
 35 66  1  0
 35 67  1  0
 37 68  1  0
 37 69  1  0
 37 70  1  0
 38 71  1  0
 38 72  1  0
 38 73  1  0
M  END
$$$$
[H]N=C(N([H])[H])N([H])C([H])([H])C([H])([H])C([H])([H])[C@@]([H])(C(=O)c1nc([H])c([H])s1)N([H])C(=O)[C@@]([H])(N([H])C(=O)[C@@]([H])(N([H])C(=O)OC([H])([H])c1c([H])c([H])c([H])c([H])c1[H])C([H])([H])c1c([H])c([H])c([H])c([H])c1[H])C([H])([H])C([H])([H])C([H])([H])N([H])C(=N[H])N([H])[H]
     RDKit          3D

 90 92  0  0  0  0  0  0  0  0999 V2000
    1.4520    6.2565    2.7194 N   0  0  0  0  0  0  0  0  0  0  0  0
    0.5288    5.2719    3.1537 C   0  0  0  0  0  0  0  0  0  0  0  0
   -0.5391    5.6472    3.7609 N   0  0  0  0  0  0  0  0  0  0  0  0
    0.7609    3.9073    2.9324 N   0  0  0  0  0  0  0  0  0  0  0  0
   -0.1869    3.0599    2.2023 C   0  0  0  0  0  0  0  0  0  0  0  0
   -0.1650    3.5270    0.7841 C   0  0  0  0  0  0  0  0  0  0  0  0
   -1.0826    2.7957   -0.1242 C   0  0  0  0  0  0  0  0  0  0  0  0
   -0.7988    1.3109   -0.2672 C   0  0  2  0  0  0  0  0  0  0  0  0
    0.5409    1.2008   -0.8087 N   0  0  0  0  0  0  0  0  0  0  0  0
    1.5401    0.4139   -0.1860 C   0  0  0  0  0  0  0  0  0  0  0  0
    1.1757   -0.1975    0.8825 O   0  0  0  0  0  0  0  0  0  0  0  0
    2.9317    0.2248   -0.6184 C   0  0  2  0  0  0  0  0  0  0  0  0
    3.1183   -0.3011   -2.0087 C   0  0  0  0  0  0  0  0  0  0  0  0
    2.5315   -1.6101   -2.2809 C   0  0  0  0  0  0  0  0  0  0  0  0
    1.2705   -1.7393   -2.8040 C   0  0  0  0  0  0  0  0  0  0  0  0
    0.7580   -3.0067   -3.0291 C   0  0  0  0  0  0  0  0  0  0  0  0
    1.5203   -4.1190   -2.7255 C   0  0  0  0  0  0  0  0  0  0  0  0
    2.7911   -4.0161   -2.1996 C   0  0  0  0  0  0  0  0  0  0  0  0
    3.2741   -2.7359   -1.9861 C   0  0  0  0  0  0  0  0  0  0  0  0
    3.6376   -0.6024    0.3545 N   0  0  0  0  0  0  0  0  0  0  0  0
    4.6856   -0.1720    1.1822 C   0  0  0  0  0  0  0  0  0  0  0  0
    5.0708    1.0171    1.1005 O   0  0  0  0  0  0  0  0  0  0  0  0
    5.3202   -0.9975    2.0920 O   0  0  0  0  0  0  0  0  0  0  0  0
    6.3542   -0.6673    2.9498 C   0  0  0  0  0  0  0  0  0  0  0  0
    7.6058   -0.2218    2.3446 C   0  0  0  0  0  0  0  0  0  0  0  0
    7.9349   -0.3146    1.0131 C   0  0  0  0  0  0  0  0  0  0  0  0
    9.1282    0.1183    0.5015 C   0  0  0  0  0  0  0  0  0  0  0  0
   10.0559    0.6753    1.3435 C   0  0  0  0  0  0  0  0  0  0  0  0
    9.7861    0.7963    2.6883 C   0  0  0  0  0  0  0  0  0  0  0  0
    8.5860    0.3550    3.1662 C   0  0  0  0  0  0  0  0  0  0  0  0
   -1.7659    0.8266   -1.2848 C   0  0  0  0  0  0  0  0  0  0  0  0
   -1.4674    0.8673   -2.4887 O   0  0  0  0  0  0  0  0  0  0  0  0
   -3.0417    0.3097   -0.9094 N   0  0  0  0  0  0  0  0  0  0  0  0
   -4.0080   -0.1628   -1.8787 C   0  0  1  0  0  0  0  0  0  0  0  0
   -3.9845   -1.6520   -1.9530 C   0  0  0  0  0  0  0  0  0  0  0  0
   -4.2704   -2.4329   -0.7390 C   0  0  0  0  0  0  0  0  0  0  0  0
   -5.5960   -2.2829   -0.0918 C   0  0  0  0  0  0  0  0  0  0  0  0
   -5.6353   -3.1983    1.0763 N   0  0  0  0  0  0  0  0  0  0  0  0
   -6.7963   -3.2555    1.8588 C   0  0  0  0  0  0  0  0  0  0  0  0
   -7.9756   -2.5736    1.4645 N   0  0  0  0  0  0  0  0  0  0  0  0
   -6.8090   -3.9316    2.9497 N   0  0  0  0  0  0  0  0  0  0  0  0
   -5.2883    0.4760   -1.6574 C   0  0  0  0  0  0  0  0  0  0  0  0
   -5.3946    1.3498   -0.7258 O   0  0  0  0  0  0  0  0  0  0  0  0
   -6.4729    0.1720   -2.4508 C   0  0  0  0  0  0  0  0  0  0  0  0
   -6.6846   -0.6536   -3.4599 N   0  0  0  0  0  0  0  0  0  0  0  0
   -7.8532   -0.7474   -3.9961 C   0  0  0  0  0  0  0  0  0  0  0  0
   -8.8608    0.0298   -3.4907 C   0  0  0  0  0  0  0  0  0  0  0  0
   -8.0418    0.8701   -2.2413 S   0  0  0  0  0  0  0  0  0  0  0  0
    1.6647    7.0453    3.3709 H   0  0  0  0  0  0  0  0  0  0  0  0
    1.8785    6.1545    1.7721 H   0  0  0  0  0  0  0  0  0  0  0  0
   -1.2538    4.9934    4.1049 H   0  0  0  0  0  0  0  0  0  0  0  0
    1.6382    3.4884    3.3027 H   0  0  0  0  0  0  0  0  0  0  0  0
    0.1171    2.0201    2.3573 H   0  0  0  0  0  0  0  0  0  0  0  0
   -1.1702    3.2455    2.6955 H   0  0  0  0  0  0  0  0  0  0  0  0
    0.8814    3.3250    0.4066 H   0  0  0  0  0  0  0  0  0  0  0  0
   -0.2683    4.6119    0.7551 H   0  0  0  0  0  0  0  0  0  0  0  0
   -2.1180    2.8853    0.3232 H   0  0  0  0  0  0  0  0  0  0  0  0
   -1.1700    3.2199   -1.1265 H   0  0  0  0  0  0  0  0  0  0  0  0
   -0.9069    0.7512    0.6661 H   0  0  0  0  0  0  0  0  0  0  0  0
    0.7911    1.7086   -1.6825 H   0  0  0  0  0  0  0  0  0  0  0  0
    3.4315    1.2169   -0.5695 H   0  0  0  0  0  0  0  0  0  0  0  0
    2.6519    0.4442   -2.7011 H   0  0  0  0  0  0  0  0  0  0  0  0
    4.2093   -0.2795   -2.2163 H   0  0  0  0  0  0  0  0  0  0  0  0
    0.6475   -0.8860   -3.0622 H   0  0  0  0  0  0  0  0  0  0  0  0
   -0.2458   -3.0979   -3.4427 H   0  0  0  0  0  0  0  0  0  0  0  0
    1.0773   -5.1059   -2.9166 H   0  0  0  0  0  0  0  0  0  0  0  0
    3.3344   -4.9190   -1.9843 H   0  0  0  0  0  0  0  0  0  0  0  0
    4.2887   -2.6632   -1.5668 H   0  0  0  0  0  0  0  0  0  0  0  0
    3.3041   -1.5968    0.4148 H   0  0  0  0  0  0  0  0  0  0  0  0
    6.0711    0.0885    3.7190 H   0  0  0  0  0  0  0  0  0  0  0  0
    6.5820   -1.5908    3.5592 H   0  0  0  0  0  0  0  0  0  0  0  0
    7.1865   -0.7665    0.3534 H   0  0  0  0  0  0  0  0  0  0  0  0
    9.3192    0.0154   -0.5474 H   0  0  0  0  0  0  0  0  0  0  0  0
   10.9971    1.0059    0.8902 H   0  0  0  0  0  0  0  0  0  0  0  0
   10.5169    1.2309    3.3281 H   0  0  0  0  0  0  0  0  0  0  0  0
    8.3654    0.4483    4.2370 H   0  0  0  0  0  0  0  0  0  0  0  0
   -3.2778    0.2720    0.0965 H   0  0  0  0  0  0  0  0  0  0  0  0
   -3.5688    0.1612   -2.8920 H   0  0  0  0  0  0  0  0  0  0  0  0
   -4.6027   -2.0123   -2.8228 H   0  0  0  0  0  0  0  0  0  0  0  0
   -2.9294   -1.9375   -2.2913 H   0  0  0  0  0  0  0  0  0  0  0  0
   -3.4671   -2.2269    0.0179 H   0  0  0  0  0  0  0  0  0  0  0  0
   -4.1370   -3.5362   -0.9717 H   0  0  0  0  0  0  0  0  0  0  0  0
   -5.8072   -1.2596    0.2591 H   0  0  0  0  0  0  0  0  0  0  0  0
   -6.4206   -2.5791   -0.7701 H   0  0  0  0  0  0  0  0  0  0  0  0
   -4.8124   -3.7898    1.3118 H   0  0  0  0  0  0  0  0  0  0  0  0
   -7.9084   -1.8242    0.7478 H   0  0  0  0  0  0  0  0  0  0  0  0
   -8.8947   -2.8118    1.8790 H   0  0  0  0  0  0  0  0  0  0  0  0
   -7.6555   -3.9886    3.5445 H   0  0  0  0  0  0  0  0  0  0  0  0
   -8.0678   -1.4308   -4.8456 H   0  0  0  0  0  0  0  0  0  0  0  0
   -9.9121    0.0831   -3.8179 H   0  0  0  0  0  0  0  0  0  0  0  0
  1  2  1  0
  2  3  2  3
  2  4  1  0
  4  5  1  0
  5  6  1  0
  6  7  1  0
  7  8  1  0
  8  9  1  0
  9 10  1  0
 10 11  2  0
 10 12  1  0
 12 13  1  0
 13 14  1  0
 14 15  2  0
 15 16  1  0
 16 17  2  0
 17 18  1  0
 18 19  2  0
 12 20  1  0
 20 21  1  0
 21 22  2  0
 21 23  1  0
 23 24  1  0
 24 25  1  0
 25 26  2  0
 26 27  1  0
 27 28  2  0
 28 29  1  0
 29 30  2  0
  8 31  1  0
 31 32  2  0
 31 33  1  0
 33 34  1  0
 34 35  1  0
 35 36  1  0
 36 37  1  0
 37 38  1  0
 38 39  1  0
 39 40  1  0
 39 41  2  3
 34 42  1  0
 42 43  2  0
 42 44  1  0
 44 45  2  0
 45 46  1  0
 46 47  2  0
 47 48  1  0
 19 14  1  0
 30 25  1  0
 48 44  1  0
  1 49  1  0
  1 50  1  0
  3 51  1  0
  4 52  1  0
  5 53  1  0
  5 54  1  0
  6 55  1  0
  6 56  1  0
  7 57  1  0
  7 58  1  0
  8 59  1  1
  9 60  1  0
 12 61  1  6
 13 62  1  0
 13 63  1  0
 15 64  1  0
 16 65  1  0
 17 66  1  0
 18 67  1  0
 19 68  1  0
 20 69  1  0
 24 70  1  0
 24 71  1  0
 26 72  1  0
 27 73  1  0
 28 74  1  0
 29 75  1  0
 30 76  1  0
 33 77  1  0
 34 78  1  6
 35 79  1  0
 35 80  1  0
 36 81  1  0
 36 82  1  0
 37 83  1  0
 37 84  1  0
 38 85  1  0
 40 86  1  0
 40 87  1  0
 41 88  1  0
 46 89  1  0
 47 90  1  0
M  END
$$$$
[H]OC(c1nn(-c2c([H])c([H])c(C([H])([H])[H])c([H])c2[H])c(N([H])C(=O)N([H])c2c([H])c([H])c(Oc3c([H])c([H])nc4c3nc([H])c(=O)n4[H])c3c([H])c([H])c([H])c([H])c23)c1[H])(C([H])([H])[H])C([H])([H])[H]
     RDKit          3D

 69 74  0  0  0  0  0  0  0  0999 V2000
   -6.2689    5.8060   -0.0747 C   0  0  0  0  0  0  0  0  0  0  0  0
   -5.7948    4.4144   -0.0157 C   0  0  0  0  0  0  0  0  0  0  0  0
   -5.3556    3.7669   -1.1451 C   0  0  0  0  0  0  0  0  0  0  0  0
   -4.9099    2.4443   -1.0835 C   0  0  0  0  0  0  0  0  0  0  0  0
   -4.9053    1.7704    0.1134 C   0  0  0  0  0  0  0  0  0  0  0  0
   -5.3451    2.4254    1.2333 C   0  0  0  0  0  0  0  0  0  0  0  0
   -5.7918    3.7378    1.1949 C   0  0  0  0  0  0  0  0  0  0  0  0
   -4.4494    0.4197    0.1466 N   0  0  0  0  0  0  0  0  0  0  0  0
   -5.1385   -0.6677   -0.1010 N   0  0  0  0  0  0  0  0  0  0  0  0
   -4.4237   -1.7730   -0.0034 C   0  0  0  0  0  0  0  0  0  0  0  0
   -3.1381   -1.3233    0.3466 C   0  0  0  0  0  0  0  0  0  0  0  0
   -3.1592    0.0522    0.4393 C   0  0  0  0  0  0  0  0  0  0  0  0
   -2.1651    0.9813    0.8279 N   0  0  0  0  0  0  0  0  0  0  0  0
   -0.7833    0.8366    0.9590 C   0  0  0  0  0  0  0  0  0  0  0  0
   -0.1711    1.8289    1.4711 O   0  0  0  0  0  0  0  0  0  0  0  0
    0.0097   -0.2656    0.5873 N   0  0  0  0  0  0  0  0  0  0  0  0
    1.4005   -0.3811    0.7606 C   0  0  0  0  0  0  0  0  0  0  0  0
    2.1585    0.3201    1.6641 C   0  0  0  0  0  0  0  0  0  0  0  0
    3.4949    0.1377    1.8622 C   0  0  0  0  0  0  0  0  0  0  0  0
    4.1825   -0.8166    1.1186 C   0  0  0  0  0  0  0  0  0  0  0  0
    5.4965   -0.9340    1.3745 O   0  0  0  0  0  0  0  0  0  0  0  0
    6.6475   -0.7478    0.7116 C   0  0  0  0  0  0  0  0  0  0  0  0
    7.6058   -1.7056    0.5493 C   0  0  0  0  0  0  0  0  0  0  0  0
    8.7512   -1.4243   -0.1436 C   0  0  0  0  0  0  0  0  0  0  0  0
    8.9628   -0.2083   -0.6786 N   0  0  0  0  0  0  0  0  0  0  0  0
    8.0369    0.7616   -0.5373 C   0  0  0  0  0  0  0  0  0  0  0  0
    8.2655    1.9908   -1.0793 N   0  0  0  0  0  0  0  0  0  0  0  0
    7.3645    2.9806   -0.9503 C   0  0  0  0  0  0  0  0  0  0  0  0
    7.5695    4.1371   -1.4552 O   0  0  0  0  0  0  0  0  0  0  0  0
    6.2231    2.6944   -0.2576 C   0  0  0  0  0  0  0  0  0  0  0  0
    5.9711    1.4965    0.2853 N   0  0  0  0  0  0  0  0  0  0  0  0
    6.8924    0.5148    0.1433 C   0  0  0  0  0  0  0  0  0  0  0  0
    3.4445   -1.5271    0.2130 C   0  0  0  0  0  0  0  0  0  0  0  0
    4.0402   -2.5070   -0.5838 C   0  0  0  0  0  0  0  0  0  0  0  0
    3.3636   -3.2435   -1.5046 C   0  0  0  0  0  0  0  0  0  0  0  0
    2.0308   -3.0384   -1.6847 C   0  0  0  0  0  0  0  0  0  0  0  0
    1.3706   -2.0694   -0.9160 C   0  0  0  0  0  0  0  0  0  0  0  0
    2.0732   -1.3435    0.0053 C   0  0  0  0  0  0  0  0  0  0  0  0
   -4.7942   -3.2009   -0.1881 C   0  0  0  0  0  0  0  0  0  0  0  0
   -3.8819   -3.8608   -1.2006 C   0  0  0  0  0  0  0  0  0  0  0  0
   -6.2455   -3.3075   -0.5144 C   0  0  0  0  0  0  0  0  0  0  0  0
   -4.5985   -3.8039    1.0652 O   0  0  0  0  0  0  0  0  0  0  0  0
   -5.5402    6.4744   -0.5825 H   0  0  0  0  0  0  0  0  0  0  0  0
   -6.3939    6.2121    0.9488 H   0  0  0  0  0  0  0  0  0  0  0  0
   -7.2684    5.8697   -0.5606 H   0  0  0  0  0  0  0  0  0  0  0  0
   -5.3628    4.2993   -2.0734 H   0  0  0  0  0  0  0  0  0  0  0  0
   -4.5724    1.9643   -1.9777 H   0  0  0  0  0  0  0  0  0  0  0  0
   -5.3365    1.8884    2.1648 H   0  0  0  0  0  0  0  0  0  0  0  0
   -6.1404    4.2642    2.0709 H   0  0  0  0  0  0  0  0  0  0  0  0
   -2.3240   -2.0052    0.5206 H   0  0  0  0  0  0  0  0  0  0  0  0
   -2.5458    1.9360    1.1633 H   0  0  0  0  0  0  0  0  0  0  0  0
   -0.4829   -1.0557    0.1499 H   0  0  0  0  0  0  0  0  0  0  0  0
    1.6743    1.0762    2.3071 H   0  0  0  0  0  0  0  0  0  0  0  0
    4.0499    0.7423    2.6124 H   0  0  0  0  0  0  0  0  0  0  0  0
    7.4778   -2.7087    0.9654 H   0  0  0  0  0  0  0  0  0  0  0  0
    9.5457   -2.1721   -0.2953 H   0  0  0  0  0  0  0  0  0  0  0  0
    9.1398    2.1511   -1.5889 H   0  0  0  0  0  0  0  0  0  0  0  0
    5.4888    3.4850   -0.1461 H   0  0  0  0  0  0  0  0  0  0  0  0
    5.0744   -2.6574   -0.4221 H   0  0  0  0  0  0  0  0  0  0  0  0
    3.8675   -3.9980   -2.1069 H   0  0  0  0  0  0  0  0  0  0  0  0
    1.4553   -3.6134   -2.4213 H   0  0  0  0  0  0  0  0  0  0  0  0
    0.3272   -1.9610   -1.1263 H   0  0  0  0  0  0  0  0  0  0  0  0
   -2.8519   -3.8546   -0.7729 H   0  0  0  0  0  0  0  0  0  0  0  0
   -4.2176   -4.9349   -1.2397 H   0  0  0  0  0  0  0  0  0  0  0  0
   -3.9531   -3.4529   -2.2050 H   0  0  0  0  0  0  0  0  0  0  0  0
   -6.7134   -2.2820   -0.5274 H   0  0  0  0  0  0  0  0  0  0  0  0
   -6.7960   -3.9107    0.2387 H   0  0  0  0  0  0  0  0  0  0  0  0
   -6.3602   -3.7416   -1.5420 H   0  0  0  0  0  0  0  0  0  0  0  0
   -5.2775   -3.3834    1.6736 H   0  0  0  0  0  0  0  0  0  0  0  0
  1  2  1  0
  2  3  2  0
  3  4  1  0
  4  5  2  0
  5  6  1  0
  6  7  2  0
  5  8  1  0
  8  9  1  0
  9 10  2  0
 10 11  1  0
 11 12  2  0
 12 13  1  0
 13 14  1  0
 14 15  2  0
 14 16  1  0
 16 17  1  0
 17 18  2  0
 18 19  1  0
 19 20  2  0
 20 21  1  0
 21 22  1  0
 22 23  2  0
 23 24  1  0
 24 25  2  0
 25 26  1  0
 26 27  1  0
 27 28  1  0
 28 29  2  0
 28 30  1  0
 30 31  2  0
 31 32  1  0
 20 33  1  0
 33 34  2  0
 34 35  1  0
 35 36  2  0
 36 37  1  0
 37 38  2  0
 10 39  1  0
 39 40  1  0
 39 41  1  0
 39 42  1  0
  7  2  1  0
 12  8  1  0
 38 17  1  0
 32 22  1  0
 38 33  1  0
 32 26  2  0
  1 43  1  0
  1 44  1  0
  1 45  1  0
  3 46  1  0
  4 47  1  0
  6 48  1  0
  7 49  1  0
 11 50  1  0
 13 51  1  0
 16 52  1  0
 18 53  1  0
 19 54  1  0
 23 55  1  0
 24 56  1  0
 27 57  1  0
 30 58  1  0
 34 59  1  0
 35 60  1  0
 36 61  1  0
 37 62  1  0
 40 63  1  0
 40 64  1  0
 40 65  1  0
 41 66  1  0
 41 67  1  0
 41 68  1  0
 42 69  1  0
M  END
$$$$
[H]OC(=O)[C@@]([H])(N([H])C(=O)[C@@]([H])(N([H])C(=O)[C@@]([H])(C([H])([H])C(=O)N([H])O[H])C([H])([H])C([H])(C([H])([H])[H])C([H])([H])[H])C([H])([H])C([H])(C([H])([H])[H])C([H])([H])[H])C([H])([H])c1c([H])nc([H])n1[H]
     RDKit          3D

 64 64  0  0  0  0  0  0  0  0999 V2000
   -1.4178    4.6549    0.5383 C   0  0  0  0  0  0  0  0  0  0  0  0
   -1.6392    3.1303    0.6884 C   0  0  0  0  0  0  0  0  0  0  0  0
   -1.8196    2.9162    2.1736 C   0  0  0  0  0  0  0  0  0  0  0  0
   -0.3974    2.4925    0.1823 C   0  0  0  0  0  0  0  0  0  0  0  0
   -0.3310    0.9998    0.2214 C   0  0  2  0  0  0  0  0  0  0  0  0
    1.0139    0.6850   -0.3343 N   0  0  0  0  0  0  0  0  0  0  0  0
    1.9935    0.0599    0.4722 C   0  0  0  0  0  0  0  0  0  0  0  0
    1.7440   -0.2299    1.6494 O   0  0  0  0  0  0  0  0  0  0  0  0
    3.3198   -0.2323   -0.1332 C   0  0  2  0  0  0  0  0  0  0  0  0
    3.1306   -1.0025   -1.3845 C   0  0  0  0  0  0  0  0  0  0  0  0
    4.3016   -1.4004   -2.1816 C   0  0  0  0  0  0  0  0  0  0  0  0
    5.1537   -0.2383   -2.6533 C   0  0  0  0  0  0  0  0  0  0  0  0
    5.1221   -2.5497   -1.7385 C   0  0  0  0  0  0  0  0  0  0  0  0
    4.2882   -0.7686    0.8565 C   0  0  0  0  0  0  0  0  0  0  0  0
    3.9472   -2.0352    1.5071 C   0  0  0  0  0  0  0  0  0  0  0  0
    2.9326   -2.6790    1.1394 O   0  0  0  0  0  0  0  0  0  0  0  0
    4.7173   -2.5968    2.5611 N   0  0  0  0  0  0  0  0  0  0  0  0
    4.3691   -3.7634    3.1327 O   0  0  0  0  0  0  0  0  0  0  0  0
   -1.3378    0.3517   -0.6240 C   0  0  0  0  0  0  0  0  0  0  0  0
   -0.9209   -0.2170   -1.6977 O   0  0  0  0  0  0  0  0  0  0  0  0
   -2.7151    0.2784   -0.3896 N   0  0  0  0  0  0  0  0  0  0  0  0
   -3.5982   -0.4019   -1.3239 C   0  0  1  0  0  0  0  0  0  0  0  0
   -4.1767   -1.6514   -0.6836 C   0  0  0  0  0  0  0  0  0  0  0  0
   -4.9654   -1.3236    0.5442 C   0  0  0  0  0  0  0  0  0  0  0  0
   -6.2985   -1.0459    0.5808 C   0  0  0  0  0  0  0  0  0  0  0  0
   -6.6242   -0.8046    1.8615 N   0  0  0  0  0  0  0  0  0  0  0  0
   -5.5164   -0.9270    2.6263 C   0  0  0  0  0  0  0  0  0  0  0  0
   -4.5033   -1.2472    1.7983 N   0  0  0  0  0  0  0  0  0  0  0  0
   -4.6785    0.4916   -1.7369 C   0  0  0  0  0  0  0  0  0  0  0  0
   -5.6518    0.0832   -2.6245 O   0  0  0  0  0  0  0  0  0  0  0  0
   -4.7451    1.6558   -1.2910 O   0  0  0  0  0  0  0  0  0  0  0  0
   -2.2245    5.1906    1.0509 H   0  0  0  0  0  0  0  0  0  0  0  0
   -1.2748    4.9330   -0.5153 H   0  0  0  0  0  0  0  0  0  0  0  0
   -0.4819    4.8769    1.0916 H   0  0  0  0  0  0  0  0  0  0  0  0
   -2.5507    2.8897    0.1054 H   0  0  0  0  0  0  0  0  0  0  0  0
   -2.3825    3.7760    2.5890 H   0  0  0  0  0  0  0  0  0  0  0  0
   -2.3640    1.9747    2.3926 H   0  0  0  0  0  0  0  0  0  0  0  0
   -0.8111    2.9348    2.6363 H   0  0  0  0  0  0  0  0  0  0  0  0
    0.4494    2.8724    0.8080 H   0  0  0  0  0  0  0  0  0  0  0  0
   -0.2064    2.7980   -0.8746 H   0  0  0  0  0  0  0  0  0  0  0  0
   -0.3988    0.6372    1.2545 H   0  0  0  0  0  0  0  0  0  0  0  0
    1.1370    0.9650   -1.3295 H   0  0  0  0  0  0  0  0  0  0  0  0
    3.7096    0.7965   -0.4219 H   0  0  0  0  0  0  0  0  0  0  0  0
    2.5120   -1.9318   -1.2175 H   0  0  0  0  0  0  0  0  0  0  0  0
    2.4695   -0.3851   -2.0584 H   0  0  0  0  0  0  0  0  0  0  0  0
    3.8381   -1.7638   -3.1839 H   0  0  0  0  0  0  0  0  0  0  0  0
    6.0641   -0.6882   -3.1147 H   0  0  0  0  0  0  0  0  0  0  0  0
    4.6440    0.3206   -3.4780 H   0  0  0  0  0  0  0  0  0  0  0  0
    5.4909    0.4096   -1.8429 H   0  0  0  0  0  0  0  0  0  0  0  0
    6.0053   -2.3029   -1.1447 H   0  0  0  0  0  0  0  0  0  0  0  0
    4.4544   -3.3259   -1.2779 H   0  0  0  0  0  0  0  0  0  0  0  0
    5.5111   -3.0925   -2.6646 H   0  0  0  0  0  0  0  0  0  0  0  0
    5.3138   -0.8133    0.4955 H   0  0  0  0  0  0  0  0  0  0  0  0
    4.3399   -0.0044    1.7132 H   0  0  0  0  0  0  0  0  0  0  0  0
    5.5703   -2.1172    2.9161 H   0  0  0  0  0  0  0  0  0  0  0  0
    3.4612   -4.0670    2.8495 H   0  0  0  0  0  0  0  0  0  0  0  0
   -3.1682    0.6822    0.4486 H   0  0  0  0  0  0  0  0  0  0  0  0
   -2.9732   -0.7749   -2.1709 H   0  0  0  0  0  0  0  0  0  0  0  0
   -3.3675   -2.3735   -0.4650 H   0  0  0  0  0  0  0  0  0  0  0  0
   -4.8436   -2.1215   -1.4420 H   0  0  0  0  0  0  0  0  0  0  0  0
   -7.0358   -1.0062   -0.2345 H   0  0  0  0  0  0  0  0  0  0  0  0
   -5.4467   -0.7933    3.7089 H   0  0  0  0  0  0  0  0  0  0  0  0
   -3.5004   -1.4159    2.0636 H   0  0  0  0  0  0  0  0  0  0  0  0
   -6.6373    0.2353   -2.4247 H   0  0  0  0  0  0  0  0  0  0  0  0
  1  2  1  0
  2  3  1  0
  2  4  1  0
  4  5  1  0
  5  6  1  0
  6  7  1  0
  7  8  2  0
  7  9  1  0
  9 10  1  0
 10 11  1  0
 11 12  1  0
 11 13  1  0
  9 14  1  0
 14 15  1  0
 15 16  2  0
 15 17  1  0
 17 18  1  0
  5 19  1  0
 19 20  2  0
 19 21  1  0
 21 22  1  0
 22 23  1  0
 23 24  1  0
 24 25  2  0
 25 26  1  0
 26 27  2  0
 27 28  1  0
 22 29  1  0
 29 30  1  0
 29 31  2  0
 28 24  1  0
  1 32  1  0
  1 33  1  0
  1 34  1  0
  2 35  1  0
  3 36  1  0
  3 37  1  0
  3 38  1  0
  4 39  1  0
  4 40  1  0
  5 41  1  1
  6 42  1  0
  9 43  1  6
 10 44  1  0
 10 45  1  0
 11 46  1  0
 12 47  1  0
 12 48  1  0
 12 49  1  0
 13 50  1  0
 13 51  1  0
 13 52  1  0
 14 53  1  0
 14 54  1  0
 17 55  1  0
 18 56  1  0
 21 57  1  0
 22 58  1  6
 23 59  1  0
 23 60  1  0
 25 61  1  0
 27 62  1  0
 28 63  1  0
 30 64  1  0
M  END
$$$$
[H]Oc1c([H])c2c(c([H])c1O[H])[C@@]1([H])C([H])([H])C([H])([H])[C@]3(C([H])([H])[H])[C@@]([H])(N([H])S(=O)(=O)c4c([H])c([H])c([H])c([H])c4[H])C([H])([H])C([H])([H])[C@@]3([H])[C@]1([H])C([H])([H])C2([H])[H]
     RDKit          3D

 59 63  0  0  0  0  0  0  0  0999 V2000
    0.1576   -0.2981   -1.8148 C   0  0  0  0  0  0  0  0  0  0  0  0
    0.4543   -0.3037   -0.3485 C   0  0  2  0  0  0  0  0  0  0  0  0
   -0.0374   -1.5364    0.3200 C   0  0  0  0  0  0  0  0  0  0  0  0
   -1.5134   -1.6507    0.1911 C   0  0  0  0  0  0  0  0  0  0  0  0
   -2.2493   -0.4068    0.5892 C   0  0  1  0  0  0  0  0  0  0  0  0
   -1.6519    0.8524   -0.0282 C   0  0  1  0  0  0  0  0  0  0  0  0
   -2.3445    2.0614    0.4997 C   0  0  0  0  0  0  0  0  0  0  0  0
   -3.6161    1.7956    1.2339 C   0  0  0  0  0  0  0  0  0  0  0  0
   -4.3977    0.7043    0.5737 C   0  0  0  0  0  0  0  0  0  0  0  0
   -5.7370    0.8208    0.3119 C   0  0  0  0  0  0  0  0  0  0  0  0
   -6.3589   -0.2496   -0.3015 C   0  0  0  0  0  0  0  0  0  0  0  0
   -7.7358   -0.1366   -0.5737 O   0  0  0  0  0  0  0  0  0  0  0  0
   -5.6911   -1.3925   -0.6454 C   0  0  0  0  0  0  0  0  0  0  0  0
   -6.3403   -2.4519   -1.2603 O   0  0  0  0  0  0  0  0  0  0  0  0
   -4.3234   -1.4639   -0.3572 C   0  0  0  0  0  0  0  0  0  0  0  0
   -3.6737   -0.4331    0.2453 C   0  0  0  0  0  0  0  0  0  0  0  0
   -0.2380    0.8588    0.3779 C   0  0  2  0  0  0  0  0  0  0  0  0
    0.5984    2.0040   -0.0166 C   0  0  0  0  0  0  0  0  0  0  0  0
    1.9719    1.4546    0.3775 C   0  0  0  0  0  0  0  0  0  0  0  0
    1.8989    0.0209   -0.1005 C   0  0  2  0  0  0  0  0  0  0  0  0
    2.6152   -0.0599   -1.3518 N   0  0  0  0  0  0  0  0  0  0  0  0
    3.9195   -1.1533   -1.3424 S   0  0  0  0  0  0  0  0  0  0  0  0
    4.5991   -1.0526   -2.6944 O   0  0  0  0  0  0  0  0  0  0  0  0
    3.5032   -2.5725   -1.1744 O   0  0  0  0  0  0  0  0  0  0  0  0
    5.1602   -0.7125   -0.1607 C   0  0  0  0  0  0  0  0  0  0  0  0
    5.1320   -1.1863    1.1330 C   0  0  0  0  0  0  0  0  0  0  0  0
    6.0722   -0.8734    2.0924 C   0  0  0  0  0  0  0  0  0  0  0  0
    7.1001   -0.0322    1.7191 C   0  0  0  0  0  0  0  0  0  0  0  0
    7.1642    0.4654    0.4282 C   0  0  0  0  0  0  0  0  0  0  0  0
    6.2004    0.1283   -0.5081 C   0  0  0  0  0  0  0  0  0  0  0  0
    0.9281   -0.9562   -2.3031 H   0  0  0  0  0  0  0  0  0  0  0  0
    0.2269    0.6715   -2.3032 H   0  0  0  0  0  0  0  0  0  0  0  0
   -0.8153   -0.7421   -2.0734 H   0  0  0  0  0  0  0  0  0  0  0  0
    0.4507   -2.4509   -0.0234 H   0  0  0  0  0  0  0  0  0  0  0  0
    0.1958   -1.4554    1.4205 H   0  0  0  0  0  0  0  0  0  0  0  0
   -1.7672   -2.0286   -0.8088 H   0  0  0  0  0  0  0  0  0  0  0  0
   -1.8481   -2.4554    0.9082 H   0  0  0  0  0  0  0  0  0  0  0  0
   -2.1574   -0.2869    1.6886 H   0  0  0  0  0  0  0  0  0  0  0  0
   -1.7805    0.8428   -1.1321 H   0  0  0  0  0  0  0  0  0  0  0  0
   -2.5723    2.7966   -0.3212 H   0  0  0  0  0  0  0  0  0  0  0  0
   -1.6729    2.6253    1.2004 H   0  0  0  0  0  0  0  0  0  0  0  0
   -3.4009    1.5375    2.2996 H   0  0  0  0  0  0  0  0  0  0  0  0
   -4.1956    2.7404    1.2692 H   0  0  0  0  0  0  0  0  0  0  0  0
   -6.2787    1.7204    0.5789 H   0  0  0  0  0  0  0  0  0  0  0  0
   -8.2533    0.6947   -0.3309 H   0  0  0  0  0  0  0  0  0  0  0  0
   -7.3278   -2.3568   -1.4496 H   0  0  0  0  0  0  0  0  0  0  0  0
   -3.7714   -2.3501   -0.6156 H   0  0  0  0  0  0  0  0  0  0  0  0
   -0.1535    0.6935    1.4625 H   0  0  0  0  0  0  0  0  0  0  0  0
    0.6161    2.2528   -1.0759 H   0  0  0  0  0  0  0  0  0  0  0  0
    0.3890    2.9226    0.5745 H   0  0  0  0  0  0  0  0  0  0  0  0
    2.7939    2.0247   -0.0481 H   0  0  0  0  0  0  0  0  0  0  0  0
    1.9883    1.4102    1.4968 H   0  0  0  0  0  0  0  0  0  0  0  0
    2.3706   -0.6752    0.6270 H   0  0  0  0  0  0  0  0  0  0  0  0
    2.9595    0.8822   -1.6186 H   0  0  0  0  0  0  0  0  0  0  0  0
    4.3113   -1.8479    1.3994 H   0  0  0  0  0  0  0  0  0  0  0  0
    6.0068   -1.2773    3.1141 H   0  0  0  0  0  0  0  0  0  0  0  0
    7.8394    0.2119    2.4788 H   0  0  0  0  0  0  0  0  0  0  0  0
    7.9969    1.1191    0.2051 H   0  0  0  0  0  0  0  0  0  0  0  0
    6.2828    0.5357   -1.5060 H   0  0  0  0  0  0  0  0  0  0  0  0
  2  1  1  6
  2  3  1  0
  3  4  1  0
  4  5  1  0
  5  6  1  0
  6  7  1  0
  7  8  1  0
  8  9  1  0
  9 10  2  0
 10 11  1  0
 11 12  1  0
 11 13  2  0
 13 14  1  0
 13 15  1  0
 15 16  2  0
  6 17  1  0
 17 18  1  0
 18 19  1  0
 19 20  1  0
 20 21  1  0
 21 22  1  0
 22 23  2  0
 22 24  2  0
 22 25  1  0
 25 26  2  0
 26 27  1  0
 27 28  2  0
 28 29  1  0
 29 30  2  0
 17  2  1  0
 30 25  1  0
 20  2  1  0
 16  5  1  0
 16  9  1  0
  1 31  1  0
  1 32  1  0
  1 33  1  0
  3 34  1  0
  3 35  1  0
  4 36  1  0
  4 37  1  0
  5 38  1  1
  6 39  1  6
  7 40  1  0
  7 41  1  0
  8 42  1  0
  8 43  1  0
 10 44  1  0
 12 45  1  0
 14 46  1  0
 15 47  1  0
 17 48  1  1
 18 49  1  0
 18 50  1  0
 19 51  1  0
 19 52  1  0
 20 53  1  1
 21 54  1  0
 26 55  1  0
 27 56  1  0
 28 57  1  0
 29 58  1  0
 30 59  1  0
M  END
$$$$
[H]c1c(OC([H])([H])[H])c(OC([H])([H])[H])c(OC([H])([H])[H])c([H])c1C(=O)N([H])[C@@]([H])(C([H])([H])c1c([H])n([H])c2c([H])c([H])c([H])c([H])c12)C(C([H])([H])[H])(C([H])([H])[H])C([H])([H])[H]
     RDKit          3D

 60 62  0  0  0  0  0  0  0  0999 V2000
    4.6178    4.0127   -0.0764 C   0  0  0  0  0  0  0  0  0  0  0  0
    5.0410    2.6912   -0.1276 O   0  0  0  0  0  0  0  0  0  0  0  0
    4.2625    1.5728   -0.3246 C   0  0  0  0  0  0  0  0  0  0  0  0
    2.8664    1.6277   -0.5018 C   0  0  0  0  0  0  0  0  0  0  0  0
    2.1444    0.5005   -0.6948 C   0  0  0  0  0  0  0  0  0  0  0  0
    2.8220   -0.6937   -0.7154 C   0  0  0  0  0  0  0  0  0  0  0  0
    4.1899   -0.7764   -0.5453 C   0  0  0  0  0  0  0  0  0  0  0  0
    4.7825   -2.0074   -0.5867 O   0  0  0  0  0  0  0  0  0  0  0  0
    4.1019   -3.2110   -0.8006 C   0  0  0  0  0  0  0  0  0  0  0  0
    4.9167    0.3612   -0.3481 C   0  0  0  0  0  0  0  0  0  0  0  0
    6.3253    0.2898   -0.1730 O   0  0  0  0  0  0  0  0  0  0  0  0
    6.9215    0.0978    1.0783 C   0  0  0  0  0  0  0  0  0  0  0  0
    0.6932    0.4812   -0.9100 C   0  0  0  0  0  0  0  0  0  0  0  0
    0.4205    1.0940   -2.0359 O   0  0  0  0  0  0  0  0  0  0  0  0
   -0.2044   -0.0910   -0.0550 N   0  0  0  0  0  0  0  0  0  0  0  0
   -1.1213   -0.6737    0.8152 C   0  0  1  0  0  0  0  0  0  0  0  0
   -1.9120    0.2927    1.5662 C   0  0  0  0  0  0  0  0  0  0  0  0
   -2.8086    1.2398    0.8765 C   0  0  0  0  0  0  0  0  0  0  0  0
   -2.4362    2.4018    0.2484 C   0  0  0  0  0  0  0  0  0  0  0  0
   -3.5340    2.9291   -0.3121 N   0  0  0  0  0  0  0  0  0  0  0  0
   -4.6014    2.1503   -0.0658 C   0  0  0  0  0  0  0  0  0  0  0  0
   -5.9541    2.2954   -0.4187 C   0  0  0  0  0  0  0  0  0  0  0  0
   -6.8853    1.3660   -0.0205 C   0  0  0  0  0  0  0  0  0  0  0  0
   -6.4186    0.2904    0.7394 C   0  0  0  0  0  0  0  0  0  0  0  0
   -5.1000    0.1525    1.0805 C   0  0  0  0  0  0  0  0  0  0  0  0
   -4.1629    1.0896    0.6774 C   0  0  0  0  0  0  0  0  0  0  0  0
   -1.6998   -1.9379    0.2781 C   0  0  0  0  0  0  0  0  0  0  0  0
   -2.4129   -1.7639   -1.0432 C   0  0  0  0  0  0  0  0  0  0  0  0
   -2.5538   -2.7532    1.1635 C   0  0  0  0  0  0  0  0  0  0  0  0
   -0.5078   -2.8852   -0.0960 C   0  0  0  0  0  0  0  0  0  0  0  0
    4.1638    4.2204    0.9248 H   0  0  0  0  0  0  0  0  0  0  0  0
    3.9672    4.3353   -0.9051 H   0  0  0  0  0  0  0  0  0  0  0  0
    5.5212    4.6696   -0.1307 H   0  0  0  0  0  0  0  0  0  0  0  0
    2.3859    2.5897   -0.4834 H   0  0  0  0  0  0  0  0  0  0  0  0
    2.2303   -1.6135   -0.8660 H   0  0  0  0  0  0  0  0  0  0  0  0
    3.4208   -3.1809   -1.6822 H   0  0  0  0  0  0  0  0  0  0  0  0
    4.7968   -4.0615   -0.9334 H   0  0  0  0  0  0  0  0  0  0  0  0
    3.4909   -3.4270    0.1117 H   0  0  0  0  0  0  0  0  0  0  0  0
    6.4331    0.6544    1.8842 H   0  0  0  0  0  0  0  0  0  0  0  0
    7.0491   -0.9686    1.3363 H   0  0  0  0  0  0  0  0  0  0  0  0
    7.9774    0.4786    0.9833 H   0  0  0  0  0  0  0  0  0  0  0  0
   -1.2244    0.2506   -0.8514 H   0  0  0  0  0  0  0  0  0  0  0  0
   -0.4120   -1.1231    1.6774 H   0  0  0  0  0  0  0  0  0  0  0  0
   -2.4543   -0.1650    2.4533 H   0  0  0  0  0  0  0  0  0  0  0  0
   -1.1663    0.9650    2.1083 H   0  0  0  0  0  0  0  0  0  0  0  0
   -1.4143    2.8348    0.2106 H   0  0  0  0  0  0  0  0  0  0  0  0
   -3.5702    3.8263   -0.8655 H   0  0  0  0  0  0  0  0  0  0  0  0
   -6.2819    3.1454   -1.0122 H   0  0  0  0  0  0  0  0  0  0  0  0
   -7.9294    1.4794   -0.2915 H   0  0  0  0  0  0  0  0  0  0  0  0
   -7.1795   -0.4359    1.0480 H   0  0  0  0  0  0  0  0  0  0  0  0
   -4.7693   -0.6820    1.6767 H   0  0  0  0  0  0  0  0  0  0  0  0
   -1.7373   -1.3881   -1.8451 H   0  0  0  0  0  0  0  0  0  0  0  0
   -2.6040   -2.8444   -1.3855 H   0  0  0  0  0  0  0  0  0  0  0  0
   -3.4021   -1.3265   -1.0102 H   0  0  0  0  0  0  0  0  0  0  0  0
   -2.4085   -2.6763    2.2387 H   0  0  0  0  0  0  0  0  0  0  0  0
   -2.3795   -3.8476    0.9118 H   0  0  0  0  0  0  0  0  0  0  0  0
   -3.6250   -2.6169    0.8520 H   0  0  0  0  0  0  0  0  0  0  0  0
    0.3220   -2.5669    0.5682 H   0  0  0  0  0  0  0  0  0  0  0  0
   -0.8051   -3.9400    0.0320 H   0  0  0  0  0  0  0  0  0  0  0  0
   -0.1877   -2.7283   -1.1268 H   0  0  0  0  0  0  0  0  0  0  0  0
  1  2  1  0
  2  3  1  0
  3  4  2  0
  4  5  1  0
  5  6  2  0
  6  7  1  0
  7  8  1  0
  8  9  1  0
  7 10  2  0
 10 11  1  0
 11 12  1  0
  5 13  1  0
 13 14  2  0
 13 15  1  0
 15 16  1  0
 16 17  1  0
 17 18  1  0
 18 19  2  0
 19 20  1  0
 20 21  1  0
 21 22  2  0
 22 23  1  0
 23 24  2  0
 24 25  1  0
 25 26  2  0
 16 27  1  0
 27 28  1  0
 27 29  1  0
 27 30  1  0
 10  3  1  0
 26 18  1  0
 26 21  1  0
  1 31  1  0
  1 32  1  0
  1 33  1  0
  4 34  1  0
  6 35  1  0
  9 36  1  0
  9 37  1  0
  9 38  1  0
 12 39  1  0
 12 40  1  0
 12 41  1  0
 15 42  1  0
 16 43  1  1
 17 44  1  0
 17 45  1  0
 19 46  1  0
 20 47  1  0
 22 48  1  0
 23 49  1  0
 24 50  1  0
 25 51  1  0
 28 52  1  0
 28 53  1  0
 28 54  1  0
 29 55  1  0
 29 56  1  0
 29 57  1  0
 30 58  1  0
 30 59  1  0
 30 60  1  0
M  END
$$$$
[H]c1nc(N2C([H])([H])C([H])([H])c3nc(N4C([H])([H])C([H])([H])C([H])([H])C([H])([H])C4([H])[H])nc(N([H])c4nc([H])c(C(F)(F)F)c([H])c4[H])c3C([H])([H])C2([H])[H])c(C(F)(F)F)c([H])c1[H]
     RDKit          3D

 63 67  0  0  0  0  0  0  0  0999 V2000
    2.2779    7.9122    0.7391 F   0  0  0  0  0  0  0  0  0  0  0  0
    2.5542    7.0462   -0.3114 C   0  0  0  0  0  0  0  0  0  0  0  0
    3.8601    7.1367   -0.6464 F   0  0  0  0  0  0  0  0  0  0  0  0
    1.7381    7.4752   -1.3664 F   0  0  0  0  0  0  0  0  0  0  0  0
    2.0907    5.6910    0.0145 C   0  0  0  0  0  0  0  0  0  0  0  0
    2.3585    4.5944   -0.7890 C   0  0  0  0  0  0  0  0  0  0  0  0
    1.8769    3.3431   -0.4719 C   0  0  0  0  0  0  0  0  0  0  0  0
    1.1071    3.1545    0.6550 C   0  0  0  0  0  0  0  0  0  0  0  0
    0.4740    1.9642    0.9939 N   0  0  0  0  0  0  0  0  0  0  0  0
    0.6020    0.6468    0.5568 C   0  0  0  0  0  0  0  0  0  0  0  0
    1.7780    0.0880    0.2880 N   0  0  0  0  0  0  0  0  0  0  0  0
    1.9052   -1.2582    0.1050 C   0  0  0  0  0  0  0  0  0  0  0  0
    0.8428   -2.1028    0.1741 N   0  0  0  0  0  0  0  0  0  0  0  0
   -0.3607   -1.5882    0.4297 C   0  0  0  0  0  0  0  0  0  0  0  0
   -1.4420   -2.6380    0.3833 C   0  0  0  0  0  0  0  0  0  0  0  0
   -2.4079   -2.1800   -0.7082 C   0  0  0  0  0  0  0  0  0  0  0  0
   -3.1237   -1.0055   -0.3171 N   0  0  0  0  0  0  0  0  0  0  0  0
   -2.6815    0.3769   -0.3273 C   0  0  0  0  0  0  0  0  0  0  0  0
   -1.6886    0.5660    0.8612 C   0  0  0  0  0  0  0  0  0  0  0  0
   -0.4797   -0.2435    0.6237 C   0  0  0  0  0  0  0  0  0  0  0  0
   -4.4391   -1.1853    0.1715 C   0  0  0  0  0  0  0  0  0  0  0  0
   -4.5941   -1.5117    1.5133 N   0  0  0  0  0  0  0  0  0  0  0  0
   -5.7816   -1.7152    2.0713 C   0  0  0  0  0  0  0  0  0  0  0  0
   -6.8822   -1.5969    1.2557 C   0  0  0  0  0  0  0  0  0  0  0  0
   -6.7605   -1.2781   -0.0736 C   0  0  0  0  0  0  0  0  0  0  0  0
   -5.5163   -1.0572   -0.6617 C   0  0  0  0  0  0  0  0  0  0  0  0
   -5.4301   -0.6818   -2.0662 C   0  0  0  0  0  0  0  0  0  0  0  0
   -4.6893   -1.4857   -2.8730 F   0  0  0  0  0  0  0  0  0  0  0  0
   -5.1373    0.6488   -2.3215 F   0  0  0  0  0  0  0  0  0  0  0  0
   -6.7518   -0.8043   -2.6048 F   0  0  0  0  0  0  0  0  0  0  0  0
    3.1707   -1.9356   -0.0073 N   0  0  0  0  0  0  0  0  0  0  0  0
    4.2125   -1.4868    0.9160 C   0  0  0  0  0  0  0  0  0  0  0  0
    5.3517   -2.4792    0.9172 C   0  0  0  0  0  0  0  0  0  0  0  0
    5.8789   -2.6875   -0.4944 C   0  0  0  0  0  0  0  0  0  0  0  0
    4.8127   -3.1047   -1.4419 C   0  0  0  0  0  0  0  0  0  0  0  0
    3.4284   -2.9885   -0.9136 C   0  0  0  0  0  0  0  0  0  0  0  0
    0.8719    4.2571    1.4320 N   0  0  0  0  0  0  0  0  0  0  0  0
    1.3312    5.4819    1.1503 C   0  0  0  0  0  0  0  0  0  0  0  0
    2.9653    4.7641   -1.6921 H   0  0  0  0  0  0  0  0  0  0  0  0
    2.0993    2.5104   -1.1162 H   0  0  0  0  0  0  0  0  0  0  0  0
   -0.2382    2.0575    1.8268 H   0  0  0  0  0  0  0  0  0  0  0  0
   -1.0429   -3.6070    0.0823 H   0  0  0  0  0  0  0  0  0  0  0  0
   -1.8964   -2.6658    1.3696 H   0  0  0  0  0  0  0  0  0  0  0  0
   -1.7679   -1.9855   -1.6223 H   0  0  0  0  0  0  0  0  0  0  0  0
   -3.1026   -2.9661   -1.0016 H   0  0  0  0  0  0  0  0  0  0  0  0
   -2.1567    0.5996   -1.2678 H   0  0  0  0  0  0  0  0  0  0  0  0
   -3.4850    1.0713   -0.0710 H   0  0  0  0  0  0  0  0  0  0  0  0
   -1.5536    1.6372    0.8923 H   0  0  0  0  0  0  0  0  0  0  0  0
   -2.2177    0.1828    1.7437 H   0  0  0  0  0  0  0  0  0  0  0  0
   -5.8344   -1.9592    3.1039 H   0  0  0  0  0  0  0  0  0  0  0  0
   -7.8462   -1.7914    1.7293 H   0  0  0  0  0  0  0  0  0  0  0  0
   -7.6530   -1.1914   -0.6952 H   0  0  0  0  0  0  0  0  0  0  0  0
    3.7408   -1.5798    1.9555 H   0  0  0  0  0  0  0  0  0  0  0  0
    4.5111   -0.4551    0.7898 H   0  0  0  0  0  0  0  0  0  0  0  0
    5.0101   -3.4634    1.2861 H   0  0  0  0  0  0  0  0  0  0  0  0
    6.1989   -2.0501    1.5086 H   0  0  0  0  0  0  0  0  0  0  0  0
    6.6719   -3.4639   -0.4300 H   0  0  0  0  0  0  0  0  0  0  0  0
    6.3533   -1.6996   -0.7975 H   0  0  0  0  0  0  0  0  0  0  0  0
    4.9700   -4.1908   -1.7379 H   0  0  0  0  0  0  0  0  0  0  0  0
    4.8992   -2.4682   -2.3556 H   0  0  0  0  0  0  0  0  0  0  0  0
    3.1995   -3.9465   -0.3645 H   0  0  0  0  0  0  0  0  0  0  0  0
    2.6913   -3.0077   -1.7633 H   0  0  0  0  0  0  0  0  0  0  0  0
    1.1267    6.3007    1.7713 H   0  0  0  0  0  0  0  0  0  0  0  0
  1  2  1  0
  2  3  1  0
  2  4  1  0
  2  5  1  0
  5  6  2  0
  6  7  1  0
  7  8  2  0
  8  9  1  0
  9 10  1  0
 10 11  2  0
 11 12  1  0
 12 13  2  0
 13 14  1  0
 14 15  1  0
 15 16  1  0
 16 17  1  0
 17 18  1  0
 18 19  1  0
 19 20  1  0
 17 21  1  0
 21 22  2  0
 22 23  1  0
 23 24  2  0
 24 25  1  0
 25 26  2  0
 26 27  1  0
 27 28  1  0
 27 29  1  0
 27 30  1  0
 12 31  1  0
 31 32  1  0
 32 33  1  0
 33 34  1  0
 34 35  1  0
 35 36  1  0
  8 37  1  0
 37 38  2  0
 38  5  1  0
 20 10  1  0
 26 21  1  0
 36 31  1  0
 20 14  2  0
  6 39  1  0
  7 40  1  0
  9 41  1  0
 15 42  1  0
 15 43  1  0
 16 44  1  0
 16 45  1  0
 18 46  1  0
 18 47  1  0
 19 48  1  0
 19 49  1  0
 23 50  1  0
 24 51  1  0
 25 52  1  0
 32 53  1  0
 32 54  1  0
 33 55  1  0
 33 56  1  0
 34 57  1  0
 34 58  1  0
 35 59  1  0
 35 60  1  0
 36 61  1  0
 36 62  1  0
 38 63  1  0
M  END
$$$$
[H]C1=C([H])C([H])(F)C([H])([H])C([H])=C1N([H])C(=O)C1(C(=O)N([H])c2c([H])c([H])c(Oc3c([H])c([H])nc4c([H])c(OC([H])([H])C([H])([H])C([H])([H])N5C([H])([H])C([H])([H])C([H])([H])C5([H])[H])c(OC([H])([H])[H])c([H])c34)c(F)c2[H])C([H])([H])C1([H])[H]
     RDKit          3D

 81 86  0  0  0  0  0  0  0  0999 V2000
   -3.5877    0.0230   -2.5605 C   0  0  0  0  0  0  0  0  0  0  0  0
   -4.4433   -0.0435   -1.4508 O   0  0  0  0  0  0  0  0  0  0  0  0
   -3.9880   -0.2494   -0.1491 C   0  0  0  0  0  0  0  0  0  0  0  0
   -2.6478   -0.3994    0.1096 C   0  0  0  0  0  0  0  0  0  0  0  0
   -2.1587   -0.6042    1.3755 C   0  0  0  0  0  0  0  0  0  0  0  0
   -0.7923   -0.7567    1.6112 C   0  0  0  0  0  0  0  0  0  0  0  0
    0.0250   -0.6916    0.5279 O   0  0  0  0  0  0  0  0  0  0  0  0
    1.3913   -0.8525    0.4754 C   0  0  0  0  0  0  0  0  0  0  0  0
    2.2342    0.1729    0.0692 C   0  0  0  0  0  0  0  0  0  0  0  0
    3.5918   -0.0103    0.0220 C   0  0  0  0  0  0  0  0  0  0  0  0
    4.2120   -1.2204    0.3732 C   0  0  0  0  0  0  0  0  0  0  0  0
    5.6358   -1.3113    0.3171 N   0  0  0  0  0  0  0  0  0  0  0  0
    6.4056   -2.4553    0.1478 C   0  0  0  0  0  0  0  0  0  0  0  0
    5.7718   -3.5663    0.0427 O   0  0  0  0  0  0  0  0  0  0  0  0
    7.8601   -2.5227    0.0895 C   0  0  0  0  0  0  0  0  0  0  0  0
    8.4588   -3.8753   -0.2867 C   0  0  0  0  0  0  0  0  0  0  0  0
    8.4428   -3.4847    1.1392 C   0  0  0  0  0  0  0  0  0  0  0  0
    8.7035   -1.3424   -0.2300 C   0  0  0  0  0  0  0  0  0  0  0  0
    9.9255   -1.4864    0.1717 O   0  0  0  0  0  0  0  0  0  0  0  0
    8.2626   -0.2155   -0.8859 N   0  0  0  0  0  0  0  0  0  0  0  0
    8.9663    0.9916   -1.2279 C   0  0  0  0  0  0  0  0  0  0  0  0
   10.2261    1.1961   -0.9431 C   0  0  0  0  0  0  0  0  0  0  0  0
   10.9546    2.4310   -1.2907 C   0  0  0  0  0  0  0  0  0  0  0  0
   10.1946    3.4846   -1.9837 C   0  0  0  0  0  0  0  0  0  0  0  0
   10.2335    4.6437   -1.1848 F   0  0  0  0  0  0  0  0  0  0  0  0
    8.8021    3.1813   -2.2644 C   0  0  0  0  0  0  0  0  0  0  0  0
    8.2359    2.0634   -1.9301 C   0  0  0  0  0  0  0  0  0  0  0  0
    3.3805   -2.2291    0.7736 C   0  0  0  0  0  0  0  0  0  0  0  0
    1.9865   -2.0377    0.8203 C   0  0  0  0  0  0  0  0  0  0  0  0
    1.2365   -3.0982    1.2142 F   0  0  0  0  0  0  0  0  0  0  0  0
   -0.4287   -0.9581    2.9201 C   0  0  0  0  0  0  0  0  0  0  0  0
   -1.3521   -1.0070    3.9339 C   0  0  0  0  0  0  0  0  0  0  0  0
   -2.6377   -0.8567    3.6575 N   0  0  0  0  0  0  0  0  0  0  0  0
   -3.0892   -0.6527    2.3915 C   0  0  0  0  0  0  0  0  0  0  0  0
   -4.4416   -0.5052    2.1646 C   0  0  0  0  0  0  0  0  0  0  0  0
   -4.8811   -0.3029    0.8827 C   0  0  0  0  0  0  0  0  0  0  0  0
   -6.2490   -0.1596    0.6965 O   0  0  0  0  0  0  0  0  0  0  0  0
   -7.1921   -0.2052    1.7204 C   0  0  0  0  0  0  0  0  0  0  0  0
   -8.5663   -0.0150    1.1322 C   0  0  0  0  0  0  0  0  0  0  0  0
   -8.6955    1.3020    0.4220 C   0  0  0  0  0  0  0  0  0  0  0  0
  -10.0037    1.4621   -0.1281 N   0  0  0  0  0  0  0  0  0  0  0  0
  -10.2287    2.6808   -0.8350 C   0  0  0  0  0  0  0  0  0  0  0  0
  -11.1566    2.3511   -2.0081 C   0  0  0  0  0  0  0  0  0  0  0  0
  -11.7165    1.0092   -1.5741 C   0  0  0  0  0  0  0  0  0  0  0  0
  -10.4689    0.3786   -0.9383 C   0  0  0  0  0  0  0  0  0  0  0  0
   -4.1462    0.4826   -3.4058 H   0  0  0  0  0  0  0  0  0  0  0  0
   -2.7486    0.7305   -2.3481 H   0  0  0  0  0  0  0  0  0  0  0  0
   -3.2042   -0.9751   -2.8684 H   0  0  0  0  0  0  0  0  0  0  0  0
   -1.9172   -0.3599   -0.6920 H   0  0  0  0  0  0  0  0  0  0  0  0
    1.7492    1.1006   -0.1989 H   0  0  0  0  0  0  0  0  0  0  0  0
    4.2444    0.7990   -0.2985 H   0  0  0  0  0  0  0  0  0  0  0  0
    6.1068   -0.3582    0.4880 H   0  0  0  0  0  0  0  0  0  0  0  0
    7.7266   -4.6220   -0.6534 H   0  0  0  0  0  0  0  0  0  0  0  0
    9.4183   -3.8918   -0.8472 H   0  0  0  0  0  0  0  0  0  0  0  0
    9.4104   -3.1476    1.6028 H   0  0  0  0  0  0  0  0  0  0  0  0
    7.7630   -3.9592    1.8454 H   0  0  0  0  0  0  0  0  0  0  0  0
    7.2650   -0.2466   -1.2614 H   0  0  0  0  0  0  0  0  0  0  0  0
   10.8241    0.4296   -0.4110 H   0  0  0  0  0  0  0  0  0  0  0  0
   11.8456    2.1794   -1.9484 H   0  0  0  0  0  0  0  0  0  0  0  0
   11.3908    2.8108   -0.3161 H   0  0  0  0  0  0  0  0  0  0  0  0
   10.6645    3.7949   -2.9610 H   0  0  0  0  0  0  0  0  0  0  0  0
    8.2315    3.9729   -2.7929 H   0  0  0  0  0  0  0  0  0  0  0  0
    7.1670    1.8981   -2.1758 H   0  0  0  0  0  0  0  0  0  0  0  0
    3.7856   -3.1876    1.0764 H   0  0  0  0  0  0  0  0  0  0  0  0
    0.6075   -1.0712    3.1537 H   0  0  0  0  0  0  0  0  0  0  0  0
   -1.0717   -1.1659    4.9745 H   0  0  0  0  0  0  0  0  0  0  0  0
   -5.1120   -0.5552    3.0169 H   0  0  0  0  0  0  0  0  0  0  0  0
   -7.1820   -1.2490    2.1462 H   0  0  0  0  0  0  0  0  0  0  0  0
   -6.9796    0.4646    2.5680 H   0  0  0  0  0  0  0  0  0  0  0  0
   -9.3685   -0.0413    1.9143 H   0  0  0  0  0  0  0  0  0  0  0  0
   -8.7385   -0.8568    0.4359 H   0  0  0  0  0  0  0  0  0  0  0  0
   -8.5595    2.1075    1.1881 H   0  0  0  0  0  0  0  0  0  0  0  0
   -7.8715    1.4342   -0.3151 H   0  0  0  0  0  0  0  0  0  0  0  0
  -10.7856    3.4045   -0.1999 H   0  0  0  0  0  0  0  0  0  0  0  0
   -9.3011    3.1863   -1.1756 H   0  0  0  0  0  0  0  0  0  0  0  0
  -11.9700    3.1048   -2.1030 H   0  0  0  0  0  0  0  0  0  0  0  0
  -10.5960    2.2617   -2.9622 H   0  0  0  0  0  0  0  0  0  0  0  0
  -12.4672    1.2054   -0.7918 H   0  0  0  0  0  0  0  0  0  0  0  0
  -12.0978    0.4163   -2.4102 H   0  0  0  0  0  0  0  0  0  0  0  0
  -10.7030   -0.5229   -0.3684 H   0  0  0  0  0  0  0  0  0  0  0  0
   -9.7919    0.1704   -1.8195 H   0  0  0  0  0  0  0  0  0  0  0  0
  1  2  1  0
  2  3  1  0
  3  4  2  0
  4  5  1  0
  5  6  2  0
  6  7  1  0
  7  8  1  0
  8  9  2  0
  9 10  1  0
 10 11  2  0
 11 12  1  0
 12 13  1  0
 13 14  2  0
 13 15  1  0
 15 16  1  0
 16 17  1  0
 15 18  1  0
 18 19  2  0
 18 20  1  0
 20 21  1  0
 21 22  2  0
 22 23  1  0
 23 24  1  0
 24 25  1  0
 24 26  1  0
 26 27  2  0
 11 28  1  0
 28 29  2  0
 29 30  1  0
  6 31  1  0
 31 32  2  0
 32 33  1  0
 33 34  2  0
 34 35  1  0
 35 36  2  0
 36 37  1  0
 37 38  1  0
 38 39  1  0
 39 40  1  0
 40 41  1  0
 41 42  1  0
 42 43  1  0
 43 44  1  0
 44 45  1  0
 36  3  1  0
 45 41  1  0
 34  5  1  0
 29  8  1  0
 17 15  1  0
 27 21  1  0
  1 46  1  0
  1 47  1  0
  1 48  1  0
  4 49  1  0
  9 50  1  0
 10 51  1  0
 12 52  1  0
 16 53  1  0
 16 54  1  0
 17 55  1  0
 17 56  1  0
 20 57  1  0
 22 58  1  0
 23 59  1  0
 23 60  1  0
 24 61  1  0
 26 62  1  0
 27 63  1  0
 28 64  1  0
 31 65  1  0
 32 66  1  0
 35 67  1  0
 38 68  1  0
 38 69  1  0
 39 70  1  0
 39 71  1  0
 40 72  1  0
 40 73  1  0
 42 74  1  0
 42 75  1  0
 43 76  1  0
 43 77  1  0
 44 78  1  0
 44 79  1  0
 45 80  1  0
 45 81  1  0
M  END
$$$$
[H]N=C(c1c([H])c([H])c(C([H])([H])N([H])C(=O)[C@@]([H])(N([H])C(=O)[C@@]([H])(N([H])C(=O)[C@@]([H])(N([H])C(=O)[C@@]([H])(N([H])C(=O)[C@@]([H])(N([H])C(=O)[C@@]([H])(N([H])C(=O)[C@@]([H])(N([H])C(=O)C([H])([H])[H])C([H])(C([H])([H])[H])C([H])([H])[H])C([H])([H])C([H])([H])C(=O)N([H])[H])C([H])([H])C([H])([H])C(=O)N([H])[H])C([H])([H])C([H])(C([H])([H])[H])C([H])([H])[H])C([H])([H])C([H])([H])C(=O)N([H])[H])C([H])([H])C([H])([H])C(=O)N([H])[H])C([H])([H])C([H])([H])C([H])([H])N([H])C(=N[H])N([H])[H])c([H])c1[H])N([H])[H]
     RDKit          3D

153153  0  0  0  0  0  0  0  0999 V2000
   -0.1542    3.2904   -3.2038 C   0  0  0  0  0  0  0  0  0  0  0  0
   -0.8559    3.6217   -1.9221 C   0  0  0  0  0  0  0  0  0  0  0  0
   -0.8016    5.1318   -1.7095 C   0  0  0  0  0  0  0  0  0  0  0  0
   -2.2499    3.1646   -1.7886 C   0  0  0  0  0  0  0  0  0  0  0  0
   -2.5063    1.6595   -1.8120 C   0  0  2  0  0  0  0  0  0  0  0  0
   -3.8725    1.4055   -1.6974 N   0  0  0  0  0  0  0  0  0  0  0  0
   -4.7180    0.6309   -0.8948 C   0  0  0  0  0  0  0  0  0  0  0  0
   -4.2823   -0.0649    0.0452 O   0  0  0  0  0  0  0  0  0  0  0  0
   -6.1765    0.6219   -1.1709 C   0  0  2  0  0  0  0  0  0  0  0  0
   -6.7641    1.9464   -1.5755 C   0  0  0  0  0  0  0  0  0  0  0  0
   -8.2690    1.8062   -1.7756 C   0  0  0  0  0  0  0  0  0  0  0  0
   -8.8407    3.0875   -2.2310 C   0  0  0  0  0  0  0  0  0  0  0  0
  -10.2016    3.4672   -2.1662 N   0  0  0  0  0  0  0  0  0  0  0  0
   -8.0314    3.9465   -2.7423 O   0  0  0  0  0  0  0  0  0  0  0  0
   -6.9362   -0.1943   -0.3480 N   0  0  0  0  0  0  0  0  0  0  0  0
   -7.2226   -0.1628    1.0416 C   0  0  0  0  0  0  0  0  0  0  0  0
   -6.7429    0.7925    1.7139 O   0  0  0  0  0  0  0  0  0  0  0  0
   -8.0667   -1.1700    1.6873 C   0  0  2  0  0  0  0  0  0  0  0  0
   -7.6308   -2.5596    1.6234 C   0  0  0  0  0  0  0  0  0  0  0  0
   -7.4394   -3.2350    0.3119 C   0  0  0  0  0  0  0  0  0  0  0  0
   -7.0322   -4.6537    0.5285 C   0  0  0  0  0  0  0  0  0  0  0  0
   -6.8373   -5.4569   -0.6160 N   0  0  0  0  0  0  0  0  0  0  0  0
   -6.8654   -5.1202    1.6604 O   0  0  0  0  0  0  0  0  0  0  0  0
   -9.4565   -0.8508    1.4515 N   0  0  0  0  0  0  0  0  0  0  0  0
  -10.5459   -1.2879    2.1958 C   0  0  0  0  0  0  0  0  0  0  0  0
  -10.2577   -2.0333    3.1992 O   0  0  0  0  0  0  0  0  0  0  0  0
  -11.9705   -1.0017    1.9702 C   0  0  1  0  0  0  0  0  0  0  0  0
  -12.7400   -0.6780    3.1366 N   0  0  0  0  0  0  0  0  0  0  0  0
  -12.2904   -0.1007    4.3318 C   0  0  0  0  0  0  0  0  0  0  0  0
  -13.1730    0.1654    5.5048 C   0  0  0  0  0  0  0  0  0  0  0  0
  -11.0871    0.2225    4.4655 O   0  0  0  0  0  0  0  0  0  0  0  0
  -12.3548   -0.1933    0.8061 C   0  0  0  0  0  0  0  0  0  0  0  0
  -12.0337   -0.7648   -0.5618 C   0  0  0  0  0  0  0  0  0  0  0  0
  -11.8510    1.2426    0.9131 C   0  0  0  0  0  0  0  0  0  0  0  0
   -1.6127    1.1392   -0.6515 C   0  0  0  0  0  0  0  0  0  0  0  0
   -2.0191    1.4760    0.4487 O   0  0  0  0  0  0  0  0  0  0  0  0
   -0.5108    0.3900   -1.0251 N   0  0  0  0  0  0  0  0  0  0  0  0
    0.6374   -0.3710   -1.2198 C   0  0  1  0  0  0  0  0  0  0  0  0
    0.8954   -0.5546   -2.7083 C   0  0  0  0  0  0  0  0  0  0  0  0
    2.1282   -1.2806   -3.0678 C   0  0  0  0  0  0  0  0  0  0  0  0
    2.2299   -1.3621   -4.5740 C   0  0  0  0  0  0  0  0  0  0  0  0
    3.4810   -1.3967   -5.2330 N   0  0  0  0  0  0  0  0  0  0  0  0
    1.1521   -1.4015   -5.2127 O   0  0  0  0  0  0  0  0  0  0  0  0
    1.9374    0.0480   -0.5999 C   0  0  0  0  0  0  0  0  0  0  0  0
    2.2012    1.2448   -0.4334 O   0  0  0  0  0  0  0  0  0  0  0  0
    2.7915   -0.9939   -0.2329 N   0  0  0  0  0  0  0  0  0  0  0  0
    4.0927   -0.9777    0.3799 C   0  0  1  0  0  0  0  0  0  0  0  0
    3.8861   -1.4271    1.8250 C   0  0  0  0  0  0  0  0  0  0  0  0
    3.0306   -0.4789    2.6241 C   0  0  0  0  0  0  0  0  0  0  0  0
    3.6801    0.8515    2.7859 C   0  0  0  0  0  0  0  0  0  0  0  0
    2.9745    1.8458    3.5614 N   0  0  0  0  0  0  0  0  0  0  0  0
    4.7691    1.1913    2.3218 O   0  0  0  0  0  0  0  0  0  0  0  0
    5.0377   -1.9399   -0.2772 C   0  0  0  0  0  0  0  0  0  0  0  0
    4.4330   -2.8238   -0.9813 O   0  0  0  0  0  0  0  0  0  0  0  0
    6.4242   -1.8846   -0.1601 N   0  0  0  0  0  0  0  0  0  0  0  0
    7.7903   -2.0378   -0.2123 C   0  0  1  0  0  0  0  0  0  0  0  0
    8.2191   -1.2083   -1.4339 C   0  0  0  0  0  0  0  0  0  0  0  0
    9.6097   -1.2471   -1.8882 C   0  0  0  0  0  0  0  0  0  0  0  0
   10.1120   -2.5033   -2.4877 C   0  0  0  0  0  0  0  0  0  0  0  0
   10.1872   -3.7112   -1.7855 N   0  0  0  0  0  0  0  0  0  0  0  0
   11.0924   -4.0812   -0.7837 C   0  0  0  0  0  0  0  0  0  0  0  0
   12.4927   -3.8879   -0.8777 N   0  0  0  0  0  0  0  0  0  0  0  0
   10.6355   -4.6530    0.2980 N   0  0  0  0  0  0  0  0  0  0  0  0
    8.4278   -1.3675    1.0173 C   0  0  0  0  0  0  0  0  0  0  0  0
    7.4758   -0.8549    1.7423 O   0  0  0  0  0  0  0  0  0  0  0  0
    9.7048   -1.2755    1.3516 N   0  0  0  0  0  0  0  0  0  0  0  0
   11.0348   -1.1377    1.7703 C   0  0  0  0  0  0  0  0  0  0  0  0
   11.5052    0.2678    1.8456 C   0  0  0  0  0  0  0  0  0  0  0  0
   10.6689    1.3450    1.5821 C   0  0  0  0  0  0  0  0  0  0  0  0
   11.0917    2.6146    1.7476 C   0  0  0  0  0  0  0  0  0  0  0  0
   12.3952    2.8799    2.1972 C   0  0  0  0  0  0  0  0  0  0  0  0
   13.2201    1.8013    2.4530 C   0  0  0  0  0  0  0  0  0  0  0  0
   12.8035    0.4982    2.2863 C   0  0  0  0  0  0  0  0  0  0  0  0
   12.7815    4.2560    2.4021 C   0  0  0  0  0  0  0  0  0  0  0  0
   11.8280    5.2844    2.1486 N   0  0  0  0  0  0  0  0  0  0  0  0
   13.9504    4.6076    2.8288 N   0  0  0  0  0  0  0  0  0  0  0  0
   -0.7343    2.5890   -3.8301 H   0  0  0  0  0  0  0  0  0  0  0  0
    0.0710    4.2279   -3.7545 H   0  0  0  0  0  0  0  0  0  0  0  0
    0.8342    2.8160   -2.9751 H   0  0  0  0  0  0  0  0  0  0  0  0
   -0.2259    3.1723   -1.0798 H   0  0  0  0  0  0  0  0  0  0  0  0
   -1.6150    5.3370   -0.9526 H   0  0  0  0  0  0  0  0  0  0  0  0
    0.1679    5.4096   -1.2602 H   0  0  0  0  0  0  0  0  0  0  0  0
   -1.0180    5.6290   -2.6683 H   0  0  0  0  0  0  0  0  0  0  0  0
   -2.6839    3.5730   -0.8329 H   0  0  0  0  0  0  0  0  0  0  0  0
   -2.8664    3.6051   -2.6024 H   0  0  0  0  0  0  0  0  0  0  0  0
   -2.0820    1.2072   -2.7043 H   0  0  0  0  0  0  0  0  0  0  0  0
   -4.4410    1.9780   -2.4552 H   0  0  0  0  0  0  0  0  0  0  0  0
   -6.1743    0.0433   -2.2305 H   0  0  0  0  0  0  0  0  0  0  0  0
   -6.3302    2.2787   -2.5684 H   0  0  0  0  0  0  0  0  0  0  0  0
   -6.5470    2.7234   -0.8491 H   0  0  0  0  0  0  0  0  0  0  0  0
   -8.7688    1.5036   -0.8560 H   0  0  0  0  0  0  0  0  0  0  0  0
   -8.3980    1.0114   -2.5380 H   0  0  0  0  0  0  0  0  0  0  0  0
  -10.4705    4.2532   -1.5254 H   0  0  0  0  0  0  0  0  0  0  0  0
  -10.9373    3.0107   -2.7161 H   0  0  0  0  0  0  0  0  0  0  0  0
   -7.5148   -0.9869   -0.8539 H   0  0  0  0  0  0  0  0  0  0  0  0
   -7.9531   -0.9060    2.8641 H   0  0  0  0  0  0  0  0  0  0  0  0
   -8.2498   -3.2396    2.2965 H   0  0  0  0  0  0  0  0  0  0  0  0
   -6.6164   -2.6197    2.1536 H   0  0  0  0  0  0  0  0  0  0  0  0
   -6.5488   -2.7867   -0.2304 H   0  0  0  0  0  0  0  0  0  0  0  0
   -8.2786   -3.2019   -0.3725 H   0  0  0  0  0  0  0  0  0  0  0  0
   -5.9288   -5.4281   -1.1325 H   0  0  0  0  0  0  0  0  0  0  0  0
   -7.6408   -6.0756   -0.9204 H   0  0  0  0  0  0  0  0  0  0  0  0
   -9.6188   -0.2027    0.6455 H   0  0  0  0  0  0  0  0  0  0  0  0
  -12.4023   -2.0842    1.7164 H   0  0  0  0  0  0  0  0  0  0  0  0
  -13.7795   -0.9003    3.0956 H   0  0  0  0  0  0  0  0  0  0  0  0
  -12.9863    1.1992    5.8684 H   0  0  0  0  0  0  0  0  0  0  0  0
  -14.2157   -0.0305    5.2489 H   0  0  0  0  0  0  0  0  0  0  0  0
  -12.7847   -0.5227    6.3084 H   0  0  0  0  0  0  0  0  0  0  0  0
  -13.4918   -0.0986    0.8144 H   0  0  0  0  0  0  0  0  0  0  0  0
  -12.2513   -1.8652   -0.6037 H   0  0  0  0  0  0  0  0  0  0  0  0
  -11.0093   -0.6237   -0.9147 H   0  0  0  0  0  0  0  0  0  0  0  0
  -12.7626   -0.3192   -1.3045 H   0  0  0  0  0  0  0  0  0  0  0  0
  -11.2039    1.4101    1.7892 H   0  0  0  0  0  0  0  0  0  0  0  0
  -12.6823    1.9315    0.8561 H   0  0  0  0  0  0  0  0  0  0  0  0
  -11.2364    1.4101   -0.0126 H   0  0  0  0  0  0  0  0  0  0  0  0
   -0.2286    0.3388    0.3578 H   0  0  0  0  0  0  0  0  0  0  0  0
    0.4379   -1.4300   -0.8022 H   0  0  0  0  0  0  0  0  0  0  0  0
    0.8139    0.4179   -3.2529 H   0  0  0  0  0  0  0  0  0  0  0  0
    0.0115   -1.1374   -3.0968 H   0  0  0  0  0  0  0  0  0  0  0  0
    3.0740   -0.8572   -2.6975 H   0  0  0  0  0  0  0  0  0  0  0  0
    2.1047   -2.3659   -2.7535 H   0  0  0  0  0  0  0  0  0  0  0  0
    3.5130   -1.5633   -6.2613 H   0  0  0  0  0  0  0  0  0  0  0  0
    4.3598   -1.2321   -4.6986 H   0  0  0  0  0  0  0  0  0  0  0  0
    2.4518   -1.9993   -0.4318 H   0  0  0  0  0  0  0  0  0  0  0  0
    4.5063    0.0220    0.2806 H   0  0  0  0  0  0  0  0  0  0  0  0
    3.3761   -2.4072    1.8638 H   0  0  0  0  0  0  0  0  0  0  0  0
    4.8506   -1.5493    2.3245 H   0  0  0  0  0  0  0  0  0  0  0  0
    2.8245   -0.8564    3.6416 H   0  0  0  0  0  0  0  0  0  0  0  0
    2.0508   -0.3609    2.1405 H   0  0  0  0  0  0  0  0  0  0  0  0
    2.3730    1.5478    4.3401 H   0  0  0  0  0  0  0  0  0  0  0  0
    3.1162    2.8370    3.2820 H   0  0  0  0  0  0  0  0  0  0  0  0
    6.4002   -2.8819   -1.1712 H   0  0  0  0  0  0  0  0  0  0  0  0
    8.2385   -3.0042   -0.3141 H   0  0  0  0  0  0  0  0  0  0  0  0
    7.5519   -1.5073   -2.3018 H   0  0  0  0  0  0  0  0  0  0  0  0
    7.8916   -0.1353   -1.2220 H   0  0  0  0  0  0  0  0  0  0  0  0
    9.6560   -0.4759   -2.7565 H   0  0  0  0  0  0  0  0  0  0  0  0
   10.3464   -0.8132   -1.1834 H   0  0  0  0  0  0  0  0  0  0  0  0
    9.6052   -2.6713   -3.4994 H   0  0  0  0  0  0  0  0  0  0  0  0
   11.1880   -2.2867   -2.8421 H   0  0  0  0  0  0  0  0  0  0  0  0
    9.4637   -4.4736   -2.0222 H   0  0  0  0  0  0  0  0  0  0  0  0
   13.0387   -3.7783   -0.0039 H   0  0  0  0  0  0  0  0  0  0  0  0
   13.0338   -3.8464   -1.7714 H   0  0  0  0  0  0  0  0  0  0  0  0
    9.6380   -4.8403    0.4425 H   0  0  0  0  0  0  0  0  0  0  0  0
    9.3441   -0.5907    2.4997 H   0  0  0  0  0  0  0  0  0  0  0  0
   11.7395   -1.6189    1.0017 H   0  0  0  0  0  0  0  0  0  0  0  0
   11.2947   -1.6440    2.6945 H   0  0  0  0  0  0  0  0  0  0  0  0
    9.6669    1.0601    1.2423 H   0  0  0  0  0  0  0  0  0  0  0  0
   10.4032    3.4287    1.5280 H   0  0  0  0  0  0  0  0  0  0  0  0
   14.2173    2.0482    2.8080 H   0  0  0  0  0  0  0  0  0  0  0  0
   13.4706   -0.3263    2.4890 H   0  0  0  0  0  0  0  0  0  0  0  0
   11.2477    5.2948    1.2898 H   0  0  0  0  0  0  0  0  0  0  0  0
   11.7200    6.0458    2.8414 H   0  0  0  0  0  0  0  0  0  0  0  0
   14.1754    5.6256    2.9588 H   0  0  0  0  0  0  0  0  0  0  0  0
  1  2  1  0
  2  3  1  0
  2  4  1  0
  4  5  1  0
  5  6  1  0
  6  7  1  0
  7  8  2  0
  7  9  1  0
  9 10  1  0
 10 11  1  0
 11 12  1  0
 12 13  1  0
 12 14  2  0
  9 15  1  0
 15 16  1  0
 16 17  2  0
 16 18  1  0
 18 19  1  0
 19 20  1  0
 20 21  1  0
 21 22  1  0
 21 23  2  0
 18 24  1  0
 24 25  1  0
 25 26  2  0
 25 27  1  0
 27 28  1  0
 28 29  1  0
 29 30  1  0
 29 31  2  0
 27 32  1  0
 32 33  1  0
 32 34  1  0
  5 35  1  0
 35 36  2  0
 35 37  1  0
 37 38  1  0
 38 39  1  0
 39 40  1  0
 40 41  1  0
 41 42  1  0
 41 43  2  0
 38 44  1  0
 44 45  2  0
 44 46  1  0
 46 47  1  0
 47 48  1  0
 48 49  1  0
 49 50  1  0
 50 51  1  0
 50 52  2  0
 47 53  1  0
 53 54  2  0
 53 55  1  0
 55 56  1  0
 56 57  1  0
 57 58  1  0
 58 59  1  0
 59 60  1  0
 60 61  1  0
 61 62  1  0
 61 63  2  3
 56 64  1  0
 64 65  2  0
 64 66  1  0
 66 67  1  0
 67 68  1  0
 68 69  2  0
 69 70  1  0
 70 71  2  0
 71 72  1  0
 72 73  2  0
 71 74  1  0
 74 75  1  0
 74 76  2  3
 73 68  1  0
  1 77  1  0
  1 78  1  0
  1 79  1  0
  2 80  1  0
  3 81  1  0
  3 82  1  0
  3 83  1  0
  4 84  1  0
  4 85  1  0
  5 86  1  6
  6 87  1  0
  9 88  1  6
 10 89  1  0
 10 90  1  0
 11 91  1  0
 11 92  1  0
 13 93  1  0
 13 94  1  0
 15 95  1  0
 18 96  1  1
 19 97  1  0
 19 98  1  0
 20 99  1  0
 20100  1  0
 22101  1  0
 22102  1  0
 24103  1  0
 27104  1  6
 28105  1  0
 30106  1  0
 30107  1  0
 30108  1  0
 32109  1  0
 33110  1  0
 33111  1  0
 33112  1  0
 34113  1  0
 34114  1  0
 34115  1  0
 37116  1  0
 38117  1  1
 39118  1  0
 39119  1  0
 40120  1  0
 40121  1  0
 42122  1  0
 42123  1  0
 46124  1  0
 47125  1  1
 48126  1  0
 48127  1  0
 49128  1  0
 49129  1  0
 51130  1  0
 51131  1  0
 55132  1  0
 56133  1  6
 57134  1  0
 57135  1  0
 58136  1  0
 58137  1  0
 59138  1  0
 59139  1  0
 60140  1  0
 62141  1  0
 62142  1  0
 63143  1  0
 66144  1  0
 67145  1  0
 67146  1  0
 69147  1  0
 70148  1  0
 72149  1  0
 73150  1  0
 75151  1  0
 75152  1  0
 76153  1  0
M  END
$$$$
[H]C1=C(C(=O)[O-])N2C(=O)/C(=C(\[H])c3sc4c(c3[H])C(=O)C([H])([H])O4)[C@@]2([H])S1
     RDKit          3D

 27 30  0  0  0  0  0  0  0  0999 V2000
   -6.3860    1.5085    0.5261 O   0  0  0  0  0  0  0  0  0  0  0  0
   -5.4739    0.7194   -0.1861 C   0  0  0  0  0  0  0  0  0  0  0  0
   -5.9553    0.0112   -1.1050 O   0  0  0  0  0  0  0  0  0  0  0  0
   -4.0344    0.7470    0.1566 C   0  0  0  0  0  0  0  0  0  0  0  0
   -3.5744    1.5035    1.1242 C   0  0  0  0  0  0  0  0  0  0  0  0
   -1.8088    1.2087    1.1679 S   0  0  0  0  0  0  0  0  0  0  0  0
   -1.9154   -0.3805    0.2430 C   0  0  1  0  0  0  0  0  0  0  0  0
   -3.0988   -0.0223   -0.5442 N   0  0  0  0  0  0  0  0  0  0  0  0
   -2.4961   -0.7464   -1.6174 C   0  0  0  0  0  0  0  0  0  0  0  0
   -2.8427   -1.3446   -2.6741 O   0  0  0  0  0  0  0  0  0  0  0  0
   -1.1914   -0.5193   -0.9789 C   0  0  0  0  0  0  0  0  0  0  0  0
    0.0608   -0.4863   -1.4499 C   0  0  0  0  0  0  0  0  0  0  0  0
    1.2002   -0.2284   -0.5508 C   0  0  0  0  0  0  0  0  0  0  0  0
    2.3744   -0.9427   -0.4598 C   0  0  0  0  0  0  0  0  0  0  0  0
    3.3047   -0.4987    0.4062 C   0  0  0  0  0  0  0  0  0  0  0  0
    4.6651   -0.8886    0.8709 C   0  0  0  0  0  0  0  0  0  0  0  0
    5.2487   -1.9969    0.7583 O   0  0  0  0  0  0  0  0  0  0  0  0
    5.2484    0.3255    1.5278 C   0  0  0  0  0  0  0  0  0  0  0  0
    4.0650    0.9806    1.9910 O   0  0  0  0  0  0  0  0  0  0  0  0
    3.0095    0.6208    1.1217 C   0  0  0  0  0  0  0  0  0  0  0  0
    1.4467    1.0297    0.5756 S   0  0  0  0  0  0  0  0  0  0  0  0
   -4.0841    2.1697    1.7813 H   0  0  0  0  0  0  0  0  0  0  0  0
   -2.0630   -1.2653    0.8918 H   0  0  0  0  0  0  0  0  0  0  0  0
    0.1911   -0.6583   -2.5099 H   0  0  0  0  0  0  0  0  0  0  0  0
    2.4924   -1.8470   -1.1037 H   0  0  0  0  0  0  0  0  0  0  0  0
    5.7441    0.9706    0.7959 H   0  0  0  0  0  0  0  0  0  0  0  0
    5.8731    0.0303    2.3973 H   0  0  0  0  0  0  0  0  0  0  0  0
  1  2  1  0
  2  3  2  0
  2  4  1  0
  4  5  2  0
  5  6  1  0
  6  7  1  0
  7  8  1  0
  8  9  1  0
  9 10  2  0
  9 11  1  0
 11 12  2  0
 12 13  1  0
 13 14  2  0
 14 15  1  0
 15 16  1  0
 16 17  2  0
 16 18  1  0
 18 19  1  0
 19 20  1  0
 20 21  1  0
  8  4  1  0
 21 13  1  0
 11  7  1  0
 20 15  2  0
  5 22  1  0
  7 23  1  1
 12 24  1  0
 14 25  1  0
 18 26  1  0
 18 27  1  0
M  CHG  1   1  -1
M  END
$$$$
[H]c1c([H])c([H])c(C(=O)c2c([H])c([H])c([H])c([N+](=O)[O-])c2[H])c([H])c1[H]
     RDKit          3D

 26 27  0  0  0  0  0  0  0  0999 V2000
    4.6414   -1.6132    1.5545 O   0  0  0  0  0  0  0  0  0  0  0  0
    4.5782   -0.5155    0.7396 N   0  0  0  0  0  0  0  0  0  0  0  0
    5.6205    0.0877    0.4629 O   0  0  0  0  0  0  0  0  0  0  0  0
    3.3423   -0.0480    0.2049 C   0  0  0  0  0  0  0  0  0  0  0  0
    3.2634    1.0513   -0.6196 C   0  0  0  0  0  0  0  0  0  0  0  0
    2.0556    1.4703   -1.1167 C   0  0  0  0  0  0  0  0  0  0  0  0
    0.8578    0.8270   -0.8267 C   0  0  0  0  0  0  0  0  0  0  0  0
    0.9203   -0.2726   -0.0035 C   0  0  0  0  0  0  0  0  0  0  0  0
    2.1471   -0.6793    0.4867 C   0  0  0  0  0  0  0  0  0  0  0  0
   -0.2719   -0.9844    0.3537 C   0  0  0  0  0  0  0  0  0  0  0  0
   -0.1069   -2.2068    0.7116 O   0  0  0  0  0  0  0  0  0  0  0  0
   -1.6239   -0.5049    0.3635 C   0  0  0  0  0  0  0  0  0  0  0  0
   -2.6599   -1.4162    0.1458 C   0  0  0  0  0  0  0  0  0  0  0  0
   -3.9903   -1.0530    0.1588 C   0  0  0  0  0  0  0  0  0  0  0  0
   -4.3486    0.2651    0.3950 C   0  0  0  0  0  0  0  0  0  0  0  0
   -3.3157    1.1521    0.6079 C   0  0  0  0  0  0  0  0  0  0  0  0
   -1.9905    0.8024    0.5972 C   0  0  0  0  0  0  0  0  0  0  0  0
    4.1898    1.5689   -0.8594 H   0  0  0  0  0  0  0  0  0  0  0  0
    2.0124    2.3514   -1.7754 H   0  0  0  0  0  0  0  0  0  0  0  0
   -0.0739    1.1963   -1.2516 H   0  0  0  0  0  0  0  0  0  0  0  0
    2.1781   -1.5541    1.1385 H   0  0  0  0  0  0  0  0  0  0  0  0
   -2.4456   -2.4710   -0.0474 H   0  0  0  0  0  0  0  0  0  0  0  0
   -4.7974   -1.7692   -0.0119 H   0  0  0  0  0  0  0  0  0  0  0  0
   -5.3842    0.5826    0.4126 H   0  0  0  0  0  0  0  0  0  0  0  0
   -3.5720    2.1932    0.7948 H   0  0  0  0  0  0  0  0  0  0  0  0
   -1.2263    1.5397    0.7772 H   0  0  0  0  0  0  0  0  0  0  0  0
  1  2  1  0
  2  3  2  0
  2  4  1  0
  4  5  2  0
  5  6  1  0
  6  7  2  0
  7  8  1  0
  8  9  2  0
  8 10  1  0
 10 11  2  0
 10 12  1  0
 12 13  2  0
 13 14  1  0
 14 15  2  0
 15 16  1  0
 16 17  2  0
  9  4  1  0
 17 12  1  0
  5 18  1  0
  6 19  1  0
  7 20  1  0
  9 21  1  0
 13 22  1  0
 14 23  1  0
 15 24  1  0
 16 25  1  0
 17 26  1  0
M  CHG  2   1  -1   2   1
M  END
$$$$
[H]c1nc(N([H])[H])c(C(=O)N([H])c2nc([H])c([H])c([H])c2N2C([H])([H])C([H])([H])C([H])(N([H])[H])C([H])([H])C2([H])[H])nc1-c1nc(N2C([H])([H])C([H])([H])OC([H])([H])C2([H])[H])c([H])c([H])c1C(F)(F)F
     RDKit          3D

 67 71  0  0  0  0  0  0  0  0999 V2000
   -4.1726    3.7627   -1.9054 N   0  0  0  0  0  0  0  0  0  0  0  0
   -3.7083    2.3684   -1.9332 C   0  0  0  0  0  0  0  0  0  0  0  0
   -2.7285    2.2484   -3.0491 C   0  0  0  0  0  0  0  0  0  0  0  0
   -1.8455    1.0245   -2.9525 C   0  0  0  0  0  0  0  0  0  0  0  0
   -2.2241    0.1935   -1.8219 N   0  0  0  0  0  0  0  0  0  0  0  0
   -2.3182    0.8143   -0.5399 C   0  0  0  0  0  0  0  0  0  0  0  0
   -3.1469    2.0811   -0.5660 C   0  0  0  0  0  0  0  0  0  0  0  0
   -2.5350   -1.1532   -2.0885 C   0  0  0  0  0  0  0  0  0  0  0  0
   -3.3835   -1.3949   -3.1872 C   0  0  0  0  0  0  0  0  0  0  0  0
   -3.8128   -2.6668   -3.4607 C   0  0  0  0  0  0  0  0  0  0  0  0
   -3.4240   -3.7167   -2.6725 C   0  0  0  0  0  0  0  0  0  0  0  0
   -2.6203   -3.4748   -1.6384 N   0  0  0  0  0  0  0  0  0  0  0  0
   -2.1659   -2.2206   -1.3292 C   0  0  0  0  0  0  0  0  0  0  0  0
   -1.2270   -2.0600   -0.2718 N   0  0  0  0  0  0  0  0  0  0  0  0
   -0.9255   -3.1474    0.5716 C   0  0  0  0  0  0  0  0  0  0  0  0
   -1.5725   -4.2373    0.3904 O   0  0  0  0  0  0  0  0  0  0  0  0
    0.0561   -3.1335    1.6338 C   0  0  0  0  0  0  0  0  0  0  0  0
    0.8756   -2.1140    1.8537 N   0  0  0  0  0  0  0  0  0  0  0  0
    1.8382   -2.0890    2.8531 C   0  0  0  0  0  0  0  0  0  0  0  0
    1.8795   -3.1973    3.5978 C   0  0  0  0  0  0  0  0  0  0  0  0
    1.0359   -4.2633    3.3810 N   0  0  0  0  0  0  0  0  0  0  0  0
    0.1227   -4.2671    2.4191 C   0  0  0  0  0  0  0  0  0  0  0  0
   -0.7465   -5.3918    2.2132 N   0  0  0  0  0  0  0  0  0  0  0  0
    2.6558   -0.8928    2.8254 C   0  0  0  0  0  0  0  0  0  0  0  0
    2.3603   -0.0055    1.7954 N   0  0  0  0  0  0  0  0  0  0  0  0
    2.9547    1.1417    1.5854 C   0  0  0  0  0  0  0  0  0  0  0  0
    3.9672    1.4912    2.4812 C   0  0  0  0  0  0  0  0  0  0  0  0
    4.3062    0.6733    3.5097 C   0  0  0  0  0  0  0  0  0  0  0  0
    3.6318   -0.5651    3.6970 C   0  0  0  0  0  0  0  0  0  0  0  0
    4.0254   -1.3852    4.8493 C   0  0  0  0  0  0  0  0  0  0  0  0
    5.0923   -0.5917    5.4613 F   0  0  0  0  0  0  0  0  0  0  0  0
    4.7637   -2.4995    4.5316 F   0  0  0  0  0  0  0  0  0  0  0  0
    3.1111   -1.5138    5.8483 F   0  0  0  0  0  0  0  0  0  0  0  0
    2.6509    2.0018    0.4985 N   0  0  0  0  0  0  0  0  0  0  0  0
    1.6949    1.6195   -0.4859 C   0  0  0  0  0  0  0  0  0  0  0  0
    2.1256    1.9989   -1.8892 C   0  0  0  0  0  0  0  0  0  0  0  0
    3.1951    2.8867   -1.9014 O   0  0  0  0  0  0  0  0  0  0  0  0
    3.0194    3.8985   -0.9578 C   0  0  0  0  0  0  0  0  0  0  0  0
    3.3344    3.2748    0.3911 C   0  0  0  0  0  0  0  0  0  0  0  0
   -5.0615    3.8735   -2.4232 H   0  0  0  0  0  0  0  0  0  0  0  0
   -4.1682    4.1628   -0.9604 H   0  0  0  0  0  0  0  0  0  0  0  0
   -4.6114    1.7637   -2.1426 H   0  0  0  0  0  0  0  0  0  0  0  0
   -3.3277    2.1820   -4.0017 H   0  0  0  0  0  0  0  0  0  0  0  0
   -2.1483    3.1885   -3.1455 H   0  0  0  0  0  0  0  0  0  0  0  0
   -1.8635    0.4701   -3.9129 H   0  0  0  0  0  0  0  0  0  0  0  0
   -0.8093    1.3932   -2.8265 H   0  0  0  0  0  0  0  0  0  0  0  0
   -2.7512    0.0611    0.1823 H   0  0  0  0  0  0  0  0  0  0  0  0
   -1.3433    1.0929   -0.1184 H   0  0  0  0  0  0  0  0  0  0  0  0
   -3.9958    1.9389    0.1312 H   0  0  0  0  0  0  0  0  0  0  0  0
   -2.5817    2.9700   -0.2054 H   0  0  0  0  0  0  0  0  0  0  0  0
   -3.6835   -0.5560   -3.8029 H   0  0  0  0  0  0  0  0  0  0  0  0
   -4.4734   -2.8667   -4.3135 H   0  0  0  0  0  0  0  0  0  0  0  0
   -3.7668   -4.7444   -2.8847 H   0  0  0  0  0  0  0  0  0  0  0  0
   -0.7270   -1.1826   -0.1365 H   0  0  0  0  0  0  0  0  0  0  0  0
    2.5712   -3.2993    4.3654 H   0  0  0  0  0  0  0  0  0  0  0  0
   -1.6326   -5.4211    2.7528 H   0  0  0  0  0  0  0  0  0  0  0  0
   -0.5457   -6.1733    1.5623 H   0  0  0  0  0  0  0  0  0  0  0  0
    4.4588    2.4570    2.2996 H   0  0  0  0  0  0  0  0  0  0  0  0
    5.0899    0.9640    4.1857 H   0  0  0  0  0  0  0  0  0  0  0  0
    0.7424    2.1886   -0.2606 H   0  0  0  0  0  0  0  0  0  0  0  0
    1.4175    0.5489   -0.4622 H   0  0  0  0  0  0  0  0  0  0  0  0
    2.4602    1.0751   -2.4007 H   0  0  0  0  0  0  0  0  0  0  0  0
    1.3115    2.4344   -2.4780 H   0  0  0  0  0  0  0  0  0  0  0  0
    2.0025    4.2896   -0.9130 H   0  0  0  0  0  0  0  0  0  0  0  0
    3.7730    4.6796   -1.1408 H   0  0  0  0  0  0  0  0  0  0  0  0
    4.4536    3.1154    0.3994 H   0  0  0  0  0  0  0  0  0  0  0  0
    3.0712    3.8959    1.2446 H   0  0  0  0  0  0  0  0  0  0  0  0
  1  2  1  0
  2  3  1  0
  3  4  1  0
  4  5  1  0
  5  6  1  0
  6  7  1  0
  5  8  1  0
  8  9  2  0
  9 10  1  0
 10 11  2  0
 11 12  1  0
 12 13  2  0
 13 14  1  0
 14 15  1  0
 15 16  2  0
 15 17  1  0
 17 18  2  0
 18 19  1  0
 19 20  2  0
 20 21  1  0
 21 22  2  0
 22 23  1  0
 19 24  1  0
 24 25  2  0
 25 26  1  0
 26 27  2  0
 27 28  1  0
 28 29  2  0
 29 30  1  0
 30 31  1  0
 30 32  1  0
 30 33  1  0
 26 34  1  0
 34 35  1  0
 35 36  1  0
 36 37  1  0
 37 38  1  0
 38 39  1  0
  7  2  1  0
 13  8  1  0
 22 17  1  0
 29 24  1  0
 39 34  1  0
  1 40  1  0
  1 41  1  0
  2 42  1  0
  3 43  1  0
  3 44  1  0
  4 45  1  0
  4 46  1  0
  6 47  1  0
  6 48  1  0
  7 49  1  0
  7 50  1  0
  9 51  1  0
 10 52  1  0
 11 53  1  0
 14 54  1  0
 20 55  1  0
 23 56  1  0
 23 57  1  0
 27 58  1  0
 28 59  1  0
 35 60  1  0
 35 61  1  0
 36 62  1  0
 36 63  1  0
 38 64  1  0
 38 65  1  0
 39 66  1  0
 39 67  1  0
M  END
$$$$
[H]c1c([H])c([H])c(-c2c([H])c([H])c([H])c([H])c2N([H])C(=O)C2(c3c([H])c([H])c(OC([H])([H])[H])c([H])c3[H])C([H])([H])C([H])([H])C([H])([H])C2([H])[H])c([H])c1[H]
     RDKit          3D

 53 56  0  0  0  0  0  0  0  0999 V2000
   -7.1040    0.7958    1.5722 C   0  0  0  0  0  0  0  0  0  0  0  0
   -6.4101    1.3072    0.4608 O   0  0  0  0  0  0  0  0  0  0  0  0
   -5.0769    0.9831    0.2127 C   0  0  0  0  0  0  0  0  0  0  0  0
   -4.3400    0.1500    1.0199 C   0  0  0  0  0  0  0  0  0  0  0  0
   -3.0218   -0.1115    0.6895 C   0  0  0  0  0  0  0  0  0  0  0  0
   -2.4021    0.4309   -0.4255 C   0  0  0  0  0  0  0  0  0  0  0  0
   -3.1716    1.2617   -1.2126 C   0  0  0  0  0  0  0  0  0  0  0  0
   -4.4793    1.5416   -0.9150 C   0  0  0  0  0  0  0  0  0  0  0  0
   -1.0131    0.1095   -0.6774 C   0  0  0  0  0  0  0  0  0  0  0  0
   -0.3790    0.7678   -1.8368 C   0  0  0  0  0  0  0  0  0  0  0  0
   -0.5031   -0.1584   -3.0245 C   0  0  0  0  0  0  0  0  0  0  0  0
   -1.3845   -1.2811   -2.5210 C   0  0  0  0  0  0  0  0  0  0  0  0
   -0.9328   -1.3729   -1.0669 C   0  0  0  0  0  0  0  0  0  0  0  0
   -0.2096    0.3487    0.5906 C   0  0  0  0  0  0  0  0  0  0  0  0
   -0.8026    0.8592    1.5617 O   0  0  0  0  0  0  0  0  0  0  0  0
    1.1542   -0.0098    0.6217 N   0  0  0  0  0  0  0  0  0  0  0  0
    2.0331    0.1300    1.6851 C   0  0  0  0  0  0  0  0  0  0  0  0
    1.6429    0.4449    2.9591 C   0  0  0  0  0  0  0  0  0  0  0  0
    2.5295    0.5248    4.0457 C   0  0  0  0  0  0  0  0  0  0  0  0
    3.8599    0.2743    3.8234 C   0  0  0  0  0  0  0  0  0  0  0  0
    4.2878   -0.0430    2.5635 C   0  0  0  0  0  0  0  0  0  0  0  0
    3.3908   -0.1185    1.4853 C   0  0  0  0  0  0  0  0  0  0  0  0
    3.9669   -0.4120    0.1863 C   0  0  0  0  0  0  0  0  0  0  0  0
    3.8070    0.4420   -0.8647 C   0  0  0  0  0  0  0  0  0  0  0  0
    4.3584    0.1646   -2.1148 C   0  0  0  0  0  0  0  0  0  0  0  0
    5.0847   -0.9923   -2.3152 C   0  0  0  0  0  0  0  0  0  0  0  0
    5.2495   -1.8521   -1.2691 C   0  0  0  0  0  0  0  0  0  0  0  0
    4.6929   -1.5634   -0.0233 C   0  0  0  0  0  0  0  0  0  0  0  0
   -6.8617    1.3828    2.5059 H   0  0  0  0  0  0  0  0  0  0  0  0
   -8.1867    0.8676    1.3389 H   0  0  0  0  0  0  0  0  0  0  0  0
   -6.8571   -0.2593    1.7884 H   0  0  0  0  0  0  0  0  0  0  0  0
   -4.8109   -0.2828    1.8980 H   0  0  0  0  0  0  0  0  0  0  0  0
   -2.4968   -0.8008    1.3748 H   0  0  0  0  0  0  0  0  0  0  0  0
   -2.7012    1.6844   -2.0774 H   0  0  0  0  0  0  0  0  0  0  0  0
   -5.0789    2.2004   -1.5448 H   0  0  0  0  0  0  0  0  0  0  0  0
    0.7306    0.8347   -1.6250 H   0  0  0  0  0  0  0  0  0  0  0  0
   -0.6765    1.8020   -2.0455 H   0  0  0  0  0  0  0  0  0  0  0  0
   -0.9602    0.3733   -3.8848 H   0  0  0  0  0  0  0  0  0  0  0  0
    0.4625   -0.6278   -3.3145 H   0  0  0  0  0  0  0  0  0  0  0  0
   -2.4238   -0.9490   -2.5235 H   0  0  0  0  0  0  0  0  0  0  0  0
   -1.2106   -2.2301   -3.0578 H   0  0  0  0  0  0  0  0  0  0  0  0
   -1.6442   -1.9819   -0.4909 H   0  0  0  0  0  0  0  0  0  0  0  0
    0.1105   -1.7424   -1.0220 H   0  0  0  0  0  0  0  0  0  0  0  0
    1.5356   -0.4630   -0.2818 H   0  0  0  0  0  0  0  0  0  0  0  0
    0.6159    0.6517    3.2442 H   0  0  0  0  0  0  0  0  0  0  0  0
    2.1605    0.7818    5.0444 H   0  0  0  0  0  0  0  0  0  0  0  0
    4.5447    0.3387    4.6796 H   0  0  0  0  0  0  0  0  0  0  0  0
    5.3150   -0.2370    2.3902 H   0  0  0  0  0  0  0  0  0  0  0  0
    3.2431    1.3707   -0.7651 H   0  0  0  0  0  0  0  0  0  0  0  0
    4.2077    0.8629   -2.9107 H   0  0  0  0  0  0  0  0  0  0  0  0
    5.5072   -1.1827   -3.3135 H   0  0  0  0  0  0  0  0  0  0  0  0
    5.8144   -2.7579   -1.4142 H   0  0  0  0  0  0  0  0  0  0  0  0
    4.8338   -2.2579    0.7968 H   0  0  0  0  0  0  0  0  0  0  0  0
  1  2  1  0
  2  3  1  0
  3  4  2  0
  4  5  1  0
  5  6  2  0
  6  7  1  0
  7  8  2  0
  6  9  1  0
  9 10  1  0
 10 11  1  0
 11 12  1  0
 12 13  1  0
  9 14  1  0
 14 15  2  0
 14 16  1  0
 16 17  1  0
 17 18  2  0
 18 19  1  0
 19 20  2  0
 20 21  1  0
 21 22  2  0
 22 23  1  0
 23 24  2  0
 24 25  1  0
 25 26  2  0
 26 27  1  0
 27 28  2  0
  8  3  1  0
 13  9  1  0
 22 17  1  0
 28 23  1  0
  1 29  1  0
  1 30  1  0
  1 31  1  0
  4 32  1  0
  5 33  1  0
  7 34  1  0
  8 35  1  0
 10 36  1  0
 10 37  1  0
 11 38  1  0
 11 39  1  0
 12 40  1  0
 12 41  1  0
 13 42  1  0
 13 43  1  0
 16 44  1  0
 18 45  1  0
 19 46  1  0
 20 47  1  0
 21 48  1  0
 24 49  1  0
 25 50  1  0
 26 51  1  0
 27 52  1  0
 28 53  1  0
M  END
$$$$
[H]c1nc(N2C([H])([H])[C@@]3([H])N(C([H])([H])[H])C([H])([H])[C@]2([H])C3([H])[H])c([H])nc1-c1c([H])c([H])c([H])c([H])c1[H]
     RDKit          3D

 38 41  0  0  0  0  0  0  0  0999 V2000
   -5.6813   -0.2374    0.5568 C   0  0  0  0  0  0  0  0  0  0  0  0
   -4.3397   -0.8117    0.6072 N   0  0  0  0  0  0  0  0  0  0  0  0
   -3.4816    0.1925    1.2502 C   0  0  0  0  0  0  0  0  0  0  0  0
   -2.6041    0.7513    0.1496 C   0  0  2  0  0  0  0  0  0  0  0  0
   -3.5636    0.5585   -1.0421 C   0  0  0  0  0  0  0  0  0  0  0  0
   -3.8078   -0.9295   -0.7260 C   0  0  1  0  0  0  0  0  0  0  0  0
   -2.3780   -1.4062   -0.6235 C   0  0  0  0  0  0  0  0  0  0  0  0
   -1.6317   -0.2502   -0.1599 N   0  0  0  0  0  0  0  0  0  0  0  0
   -0.2279   -0.0923   -0.0228 C   0  0  0  0  0  0  0  0  0  0  0  0
    0.6340   -1.1192   -0.3477 C   0  0  0  0  0  0  0  0  0  0  0  0
    1.9607   -0.9513   -0.2115 N   0  0  0  0  0  0  0  0  0  0  0  0
    2.5242    0.1878    0.2350 C   0  0  0  0  0  0  0  0  0  0  0  0
    1.6645    1.2111    0.5587 C   0  0  0  0  0  0  0  0  0  0  0  0
    0.3214    1.0484    0.4235 N   0  0  0  0  0  0  0  0  0  0  0  0
    3.9774    0.2635    0.3448 C   0  0  0  0  0  0  0  0  0  0  0  0
    4.6343    1.3868    0.7908 C   0  0  0  0  0  0  0  0  0  0  0  0
    6.0312    1.4239    0.8834 C   0  0  0  0  0  0  0  0  0  0  0  0
    6.7928    0.3325    0.5293 C   0  0  0  0  0  0  0  0  0  0  0  0
    6.1417   -0.7918    0.0833 C   0  0  0  0  0  0  0  0  0  0  0  0
    4.7671   -0.8173   -0.0038 C   0  0  0  0  0  0  0  0  0  0  0  0
   -5.6707    0.8598    0.7216 H   0  0  0  0  0  0  0  0  0  0  0  0
   -6.1575   -0.4127   -0.4299 H   0  0  0  0  0  0  0  0  0  0  0  0
   -6.2922   -0.6599    1.3993 H   0  0  0  0  0  0  0  0  0  0  0  0
   -4.0582    0.9551    1.7810 H   0  0  0  0  0  0  0  0  0  0  0  0
   -2.8096   -0.3869    1.9210 H   0  0  0  0  0  0  0  0  0  0  0  0
   -2.2690    1.7536    0.2780 H   0  0  0  0  0  0  0  0  0  0  0  0
   -4.4856    1.1250   -0.9175 H   0  0  0  0  0  0  0  0  0  0  0  0
   -3.0440    0.6854   -1.9914 H   0  0  0  0  0  0  0  0  0  0  0  0
   -4.4187   -1.4262   -1.4447 H   0  0  0  0  0  0  0  0  0  0  0  0
   -2.3706   -2.1652    0.2128 H   0  0  0  0  0  0  0  0  0  0  0  0
   -1.9887   -1.8387   -1.5435 H   0  0  0  0  0  0  0  0  0  0  0  0
    0.2409   -2.0788   -0.7191 H   0  0  0  0  0  0  0  0  0  0  0  0
    2.0874    2.1378    0.9199 H   0  0  0  0  0  0  0  0  0  0  0  0
    4.0984    2.2630    1.0793 H   0  0  0  0  0  0  0  0  0  0  0  0
    6.5538    2.3038    1.2331 H   0  0  0  0  0  0  0  0  0  0  0  0
    7.8707    0.3214    0.5863 H   0  0  0  0  0  0  0  0  0  0  0  0
    6.7289   -1.6711   -0.2035 H   0  0  0  0  0  0  0  0  0  0  0  0
    4.2510   -1.7148   -0.3596 H   0  0  0  0  0  0  0  0  0  0  0  0
  1  2  1  0
  2  3  1  0
  3  4  1  0
  4  5  1  0
  5  6  1  0
  6  7  1  0
  7  8  1  0
  8  9  1  0
  9 10  2  0
 10 11  1  0
 11 12  2  0
 12 13  1  0
 13 14  2  0
 12 15  1  0
 15 16  2  0
 16 17  1  0
 17 18  2  0
 18 19  1  0
 19 20  2  0
  6  2  1  0
 14  9  1  0
 20 15  1  0
  8  4  1  0
  1 21  1  0
  1 22  1  0
  1 23  1  0
  3 24  1  0
  3 25  1  0
  4 26  1  1
  5 27  1  0
  5 28  1  0
  6 29  1  6
  7 30  1  0
  7 31  1  0
 10 32  1  0
 13 33  1  0
 16 34  1  0
 17 35  1  0
 18 36  1  0
 19 37  1  0
 20 38  1  0
M  END
$$$$
[H]c1c(N([H])C(=O)[C@@]2([H])N(C(=O)c3c([H])c([H])c(F)c([H])c3[H])C([H])([H])c3c([H])c([H])c([H])c([H])c3C2([H])[H])noc1C(C([H])([H])[H])(C([H])([H])[H])C([H])([H])[H]
     RDKit          3D

 55 58  0  0  0  0  0  0  0  0999 V2000
   -5.9775   -1.5296    1.1198 C   0  0  0  0  0  0  0  0  0  0  0  0
   -5.6684   -0.9174   -0.1993 C   0  0  0  0  0  0  0  0  0  0  0  0
   -6.3228   -1.7108   -1.3161 C   0  0  0  0  0  0  0  0  0  0  0  0
   -6.1557    0.5193   -0.3052 C   0  0  0  0  0  0  0  0  0  0  0  0
   -4.1869   -0.9361   -0.3967 C   0  0  0  0  0  0  0  0  0  0  0  0
   -3.2900   -0.3546    0.4944 C   0  0  0  0  0  0  0  0  0  0  0  0
   -2.0117   -0.5579   -0.0076 C   0  0  0  0  0  0  0  0  0  0  0  0
   -0.7793   -0.1336    0.6080 N   0  0  0  0  0  0  0  0  0  0  0  0
    0.4371   -0.3206   -0.0655 C   0  0  0  0  0  0  0  0  0  0  0  0
    0.4146   -0.8432   -1.2308 O   0  0  0  0  0  0  0  0  0  0  0  0
    1.7328    0.0593    0.5055 C   0  0  2  0  0  0  0  0  0  0  0  0
    1.5967    1.2450    1.4248 C   0  0  0  0  0  0  0  0  0  0  0  0
    1.6496    2.5391    0.7080 C   0  0  0  0  0  0  0  0  0  0  0  0
    1.3453    3.7085    1.4126 C   0  0  0  0  0  0  0  0  0  0  0  0
    1.3711    4.9549    0.8350 C   0  0  0  0  0  0  0  0  0  0  0  0
    1.7135    5.0313   -0.4966 C   0  0  0  0  0  0  0  0  0  0  0  0
    2.0172    3.8989   -1.2140 C   0  0  0  0  0  0  0  0  0  0  0  0
    1.9850    2.6433   -0.6102 C   0  0  0  0  0  0  0  0  0  0  0  0
    2.2961    1.4656   -1.4282 C   0  0  0  0  0  0  0  0  0  0  0  0
    2.6335    0.2960   -0.5918 N   0  0  0  0  0  0  0  0  0  0  0  0
    3.7711   -0.4308   -0.9944 C   0  0  0  0  0  0  0  0  0  0  0  0
    4.4424    0.0708   -2.0101 O   0  0  0  0  0  0  0  0  0  0  0  0
    4.3554   -1.6385   -0.4913 C   0  0  0  0  0  0  0  0  0  0  0  0
    3.7657   -2.6234    0.2500 C   0  0  0  0  0  0  0  0  0  0  0  0
    4.4628   -3.7055    0.8163 C   0  0  0  0  0  0  0  0  0  0  0  0
    5.8172   -3.8237    0.6397 C   0  0  0  0  0  0  0  0  0  0  0  0
    6.5059   -4.8698    1.1861 F   0  0  0  0  0  0  0  0  0  0  0  0
    6.4396   -2.8555   -0.1026 C   0  0  0  0  0  0  0  0  0  0  0  0
    5.7581   -1.8028   -0.6526 C   0  0  0  0  0  0  0  0  0  0  0  0
   -2.1831   -1.2402   -1.1543 N   0  0  0  0  0  0  0  0  0  0  0  0
   -3.4650   -1.4429   -1.3501 O   0  0  0  0  0  0  0  0  0  0  0  0
   -7.0768   -1.6226    1.2911 H   0  0  0  0  0  0  0  0  0  0  0  0
   -5.5466   -0.8752    1.9210 H   0  0  0  0  0  0  0  0  0  0  0  0
   -5.4919   -2.5074    1.1744 H   0  0  0  0  0  0  0  0  0  0  0  0
   -6.1160   -2.7979   -1.1904 H   0  0  0  0  0  0  0  0  0  0  0  0
   -5.9764   -1.3732   -2.3165 H   0  0  0  0  0  0  0  0  0  0  0  0
   -7.4080   -1.5511   -1.2518 H   0  0  0  0  0  0  0  0  0  0  0  0
   -5.3256    1.2268   -0.1237 H   0  0  0  0  0  0  0  0  0  0  0  0
   -6.6100    0.7372   -1.2807 H   0  0  0  0  0  0  0  0  0  0  0  0
   -6.9003    0.6796    0.4922 H   0  0  0  0  0  0  0  0  0  0  0  0
   -3.5193    0.1679    1.4188 H   0  0  0  0  0  0  0  0  0  0  0  0
   -0.8721    0.2889    1.5487 H   0  0  0  0  0  0  0  0  0  0  0  0
    2.1285   -0.7853    1.1669 H   0  0  0  0  0  0  0  0  0  0  0  0
    2.4654    1.2057    2.1631 H   0  0  0  0  0  0  0  0  0  0  0  0
    0.6888    1.1557    2.0416 H   0  0  0  0  0  0  0  0  0  0  0  0
    1.0702    3.6672    2.4642 H   0  0  0  0  0  0  0  0  0  0  0  0
    1.1247    5.8412    1.4335 H   0  0  0  0  0  0  0  0  0  0  0  0
    1.7316    6.0420   -0.9354 H   0  0  0  0  0  0  0  0  0  0  0  0
    2.2882    3.9688   -2.2525 H   0  0  0  0  0  0  0  0  0  0  0  0
    3.1286    1.6257   -2.1260 H   0  0  0  0  0  0  0  0  0  0  0  0
    1.3689    1.2130   -1.9938 H   0  0  0  0  0  0  0  0  0  0  0  0
    2.6711   -2.5980    0.3706 H   0  0  0  0  0  0  0  0  0  0  0  0
    3.8886   -4.4138    1.3824 H   0  0  0  0  0  0  0  0  0  0  0  0
    7.5212   -2.9359   -0.2509 H   0  0  0  0  0  0  0  0  0  0  0  0
    6.2968   -1.0545   -1.2238 H   0  0  0  0  0  0  0  0  0  0  0  0
  1  2  1  0
  2  3  1  0
  2  4  1  0
  2  5  1  0
  5  6  2  0
  6  7  1  0
  7  8  1  0
  8  9  1  0
  9 10  2  0
  9 11  1  0
 11 12  1  0
 12 13  1  0
 13 14  2  0
 14 15  1  0
 15 16  2  0
 16 17  1  0
 17 18  2  0
 18 19  1  0
 19 20  1  0
 20 21  1  0
 21 22  2  0
 21 23  1  0
 23 24  2  0
 24 25  1  0
 25 26  2  0
 26 27  1  0
 26 28  1  0
 28 29  2  0
  7 30  2  0
 30 31  1  0
 31  5  1  0
 20 11  1  0
 29 23  1  0
 18 13  1  0
  1 32  1  0
  1 33  1  0
  1 34  1  0
  3 35  1  0
  3 36  1  0
  3 37  1  0
  4 38  1  0
  4 39  1  0
  4 40  1  0
  6 41  1  0
  8 42  1  0
 11 43  1  1
 12 44  1  0
 12 45  1  0
 14 46  1  0
 15 47  1  0
 16 48  1  0
 17 49  1  0
 19 50  1  0
 19 51  1  0
 24 52  1  0
 25 53  1  0
 28 54  1  0
 29 55  1  0
M  END
$$$$
[H]N=C(N([H])[H])N([H])C([H])([H])C([H])([H])C([H])([H])C([H])([H])[C@@]([H])(C(=O)N([H])[C@]([H])(C(=O)O[H])C([H])([H])C(=O)O[H])N([H])C(=O)[C@@]([H])(N([H])C(=O)[C@@]([H])(N([H])C(=O)[C@@]([H])(N([H])C(=O)C([H])([H])[H])C([H])([H])O[H])C([H])(C([H])([H])[H])C([H])([H])[H])C([H])(C([H])([H])[H])C([H])([H])[H]
     RDKit          3D

 90 89  0  0  0  0  0  0  0  0999 V2000
    8.3876    2.1690    3.8928 C   0  0  0  0  0  0  0  0  0  0  0  0
    8.0786    1.5691    2.5762 C   0  0  0  0  0  0  0  0  0  0  0  0
    8.0518    2.3219    1.5774 O   0  0  0  0  0  0  0  0  0  0  0  0
    7.8135    0.1524    2.4172 N   0  0  0  0  0  0  0  0  0  0  0  0
    7.5147   -0.3526    1.1131 C   0  0  1  0  0  0  0  0  0  0  0  0
    8.3521   -1.6263    0.9272 C   0  0  0  0  0  0  0  0  0  0  0  0
    7.9606   -2.5265    1.8973 O   0  0  0  0  0  0  0  0  0  0  0  0
    6.0866   -0.8888    1.0601 C   0  0  0  0  0  0  0  0  0  0  0  0
    5.8383   -1.5045    2.1442 O   0  0  0  0  0  0  0  0  0  0  0  0
    5.2365   -0.7290    0.0413 N   0  0  0  0  0  0  0  0  0  0  0  0
    4.3332   -0.5670   -1.0248 C   0  0  1  0  0  0  0  0  0  0  0  0
    4.4835   -1.5378   -2.1277 C   0  0  0  0  0  0  0  0  0  0  0  0
    4.3674   -2.9922   -1.6910 C   0  0  0  0  0  0  0  0  0  0  0  0
    3.4949   -1.2930   -3.2561 C   0  0  0  0  0  0  0  0  0  0  0  0
    2.9537   -0.1964   -0.5587 C   0  0  0  0  0  0  0  0  0  0  0  0
    2.5881   -0.7335    0.5471 O   0  0  0  0  0  0  0  0  0  0  0  0
    2.1313    0.6555   -1.2383 N   0  0  0  0  0  0  0  0  0  0  0  0
    0.8613    1.2647   -1.1589 C   0  0  1  0  0  0  0  0  0  0  0  0
    0.4056    1.8984   -2.4466 C   0  0  0  0  0  0  0  0  0  0  0  0
    0.2130    0.9463   -3.5758 C   0  0  0  0  0  0  0  0  0  0  0  0
   -0.6027    2.9667   -2.2725 C   0  0  0  0  0  0  0  0  0  0  0  0
   -0.1788    0.8136   -0.2665 C   0  0  0  0  0  0  0  0  0  0  0  0
    0.1287    0.6438    0.9830 O   0  0  0  0  0  0  0  0  0  0  0  0
   -1.4939    0.5481   -0.5819 N   0  0  0  0  0  0  0  0  0  0  0  0
   -2.5781    0.2396    0.3132 C   0  0  1  0  0  0  0  0  0  0  0  0
   -3.7476    1.0021   -0.2800 C   0  0  0  0  0  0  0  0  0  0  0  0
   -5.0653    0.9810    0.3677 C   0  0  0  0  0  0  0  0  0  0  0  0
   -5.9358    1.8667   -0.5888 C   0  0  0  0  0  0  0  0  0  0  0  0
   -7.3180    2.1051   -0.0733 C   0  0  0  0  0  0  0  0  0  0  0  0
   -8.0186    2.8463   -1.1354 N   0  0  0  0  0  0  0  0  0  0  0  0
   -7.6517    4.1352   -1.5365 C   0  0  0  0  0  0  0  0  0  0  0  0
   -8.1970    5.2927   -0.9582 N   0  0  0  0  0  0  0  0  0  0  0  0
   -6.7641    4.2584   -2.4835 N   0  0  0  0  0  0  0  0  0  0  0  0
   -2.9597   -1.1854    0.4187 C   0  0  0  0  0  0  0  0  0  0  0  0
   -2.5468   -1.9976   -0.4298 O   0  0  0  0  0  0  0  0  0  0  0  0
   -3.7748   -1.6244    1.4732 N   0  0  0  0  0  0  0  0  0  0  0  0
   -4.1957   -3.0132    1.6561 C   0  0  1  0  0  0  0  0  0  0  0  0
   -3.3226   -3.5771    2.7886 C   0  0  0  0  0  0  0  0  0  0  0  0
   -3.5664   -4.9754    3.0806 C   0  0  0  0  0  0  0  0  0  0  0  0
   -3.0885   -5.6397    4.1791 O   0  0  0  0  0  0  0  0  0  0  0  0
   -4.2685   -5.6774    2.2797 O   0  0  0  0  0  0  0  0  0  0  0  0
   -5.6051   -2.9630    2.1249 C   0  0  0  0  0  0  0  0  0  0  0  0
   -6.3908   -4.0840    2.2996 O   0  0  0  0  0  0  0  0  0  0  0  0
   -6.1575   -1.8566    2.3943 O   0  0  0  0  0  0  0  0  0  0  0  0
    9.1486    1.6074    4.4742 H   0  0  0  0  0  0  0  0  0  0  0  0
    8.8238    3.2143    3.7415 H   0  0  0  0  0  0  0  0  0  0  0  0
    7.4991    2.3085    4.5534 H   0  0  0  0  0  0  0  0  0  0  0  0
    7.8652   -0.4150    3.2956 H   0  0  0  0  0  0  0  0  0  0  0  0
    7.6829    0.4095    0.3661 H   0  0  0  0  0  0  0  0  0  0  0  0
    9.4298   -1.4322    0.9252 H   0  0  0  0  0  0  0  0  0  0  0  0
    8.0239   -2.0240   -0.0723 H   0  0  0  0  0  0  0  0  0  0  0  0
    8.6172   -3.1700    2.2102 H   0  0  0  0  0  0  0  0  0  0  0  0
    4.3394   -1.5445    0.6237 H   0  0  0  0  0  0  0  0  0  0  0  0
    4.6956    0.4473   -1.5240 H   0  0  0  0  0  0  0  0  0  0  0  0
    5.4626   -1.4099   -2.5882 H   0  0  0  0  0  0  0  0  0  0  0  0
    5.3569   -3.4964   -1.9543 H   0  0  0  0  0  0  0  0  0  0  0  0
    3.5887   -3.5384   -2.2311 H   0  0  0  0  0  0  0  0  0  0  0  0
    4.3275   -3.1010   -0.5886 H   0  0  0  0  0  0  0  0  0  0  0  0
    3.6479   -0.2809   -3.6695 H   0  0  0  0  0  0  0  0  0  0  0  0
    3.7597   -2.0406   -4.0633 H   0  0  0  0  0  0  0  0  0  0  0  0
    2.4461   -1.5020   -2.9827 H   0  0  0  0  0  0  0  0  0  0  0  0
    2.6758    1.0881   -2.1534 H   0  0  0  0  0  0  0  0  0  0  0  0
    1.1885    2.2546   -0.5277 H   0  0  0  0  0  0  0  0  0  0  0  0
    1.3717    2.5026   -2.7604 H   0  0  0  0  0  0  0  0  0  0  0  0
    0.8794    1.2009   -4.4229 H   0  0  0  0  0  0  0  0  0  0  0  0
   -0.8315    1.0733   -4.0223 H   0  0  0  0  0  0  0  0  0  0  0  0
    0.4018   -0.1048   -3.3401 H   0  0  0  0  0  0  0  0  0  0  0  0
   -0.0190    3.8782   -1.8732 H   0  0  0  0  0  0  0  0  0  0  0  0
   -1.4566    2.7940   -1.6230 H   0  0  0  0  0  0  0  0  0  0  0  0
   -0.9188    3.2915   -3.3099 H   0  0  0  0  0  0  0  0  0  0  0  0
   -1.7353    0.5298   -1.6220 H   0  0  0  0  0  0  0  0  0  0  0  0
   -2.3731    0.5848    1.3578 H   0  0  0  0  0  0  0  0  0  0  0  0
   -3.3502    2.0754   -0.3110 H   0  0  0  0  0  0  0  0  0  0  0  0
   -3.7844    0.7405   -1.3721 H   0  0  0  0  0  0  0  0  0  0  0  0
   -5.1011    1.4517    1.3413 H   0  0  0  0  0  0  0  0  0  0  0  0
   -5.5375   -0.0471    0.3467 H   0  0  0  0  0  0  0  0  0  0  0  0
   -5.4038    2.7859   -0.8470 H   0  0  0  0  0  0  0  0  0  0  0  0
   -5.9651    1.2408   -1.5400 H   0  0  0  0  0  0  0  0  0  0  0  0
   -7.8424    1.1562    0.1716 H   0  0  0  0  0  0  0  0  0  0  0  0
   -7.3041    2.7351    0.8469 H   0  0  0  0  0  0  0  0  0  0  0  0
   -8.8200    2.3741   -1.5811 H   0  0  0  0  0  0  0  0  0  0  0  0
   -7.9323    6.2418   -1.3750 H   0  0  0  0  0  0  0  0  0  0  0  0
   -8.8267    5.3103   -0.1646 H   0  0  0  0  0  0  0  0  0  0  0  0
   -6.4288    5.1317   -2.8500 H   0  0  0  0  0  0  0  0  0  0  0  0
   -4.1372   -0.9304    2.1871 H   0  0  0  0  0  0  0  0  0  0  0  0
   -4.0588   -3.5984    0.7719 H   0  0  0  0  0  0  0  0  0  0  0  0
   -3.4983   -2.8988    3.6488 H   0  0  0  0  0  0  0  0  0  0  0  0
   -2.2367   -3.3903    2.5199 H   0  0  0  0  0  0  0  0  0  0  0  0
   -2.5158   -6.4970    4.0021 H   0  0  0  0  0  0  0  0  0  0  0  0
   -7.0074   -4.1417    3.1170 H   0  0  0  0  0  0  0  0  0  0  0  0
  1  2  1  0
  2  3  2  0
  2  4  1  0
  4  5  1  0
  5  6  1  0
  6  7  1  0
  5  8  1  0
  8  9  2  0
  8 10  1  0
 10 11  1  0
 11 12  1  0
 12 13  1  0
 12 14  1  0
 11 15  1  0
 15 16  2  0
 15 17  1  0
 17 18  1  0
 18 19  1  0
 19 20  1  0
 19 21  1  0
 18 22  1  0
 22 23  2  0
 22 24  1  0
 24 25  1  0
 25 26  1  0
 26 27  1  0
 27 28  1  0
 28 29  1  0
 29 30  1  0
 30 31  1  0
 31 32  1  0
 31 33  2  3
 25 34  1  0
 34 35  2  0
 34 36  1  0
 36 37  1  0
 37 38  1  0
 38 39  1  0
 39 40  1  0
 39 41  2  0
 37 42  1  0
 42 43  1  0
 42 44  2  0
  1 45  1  0
  1 46  1  0
  1 47  1  0
  4 48  1  0
  5 49  1  6
  6 50  1  0
  6 51  1  0
  7 52  1  0
 10 53  1  0
 11 54  1  6
 12 55  1  0
 13 56  1  0
 13 57  1  0
 13 58  1  0
 14 59  1  0
 14 60  1  0
 14 61  1  0
 17 62  1  0
 18 63  1  1
 19 64  1  0
 20 65  1  0
 20 66  1  0
 20 67  1  0
 21 68  1  0
 21 69  1  0
 21 70  1  0
 24 71  1  0
 25 72  1  1
 26 73  1  0
 26 74  1  0
 27 75  1  0
 27 76  1  0
 28 77  1  0
 28 78  1  0
 29 79  1  0
 29 80  1  0
 30 81  1  0
 32 82  1  0
 32 83  1  0
 33 84  1  0
 36 85  1  0
 37 86  1  6
 38 87  1  0
 38 88  1  0
 40 89  1  0
 43 90  1  0
M  END
$$$$
[H]c1nc2c([H])c(OC([H])([H])C([H])([H])C([H])([H])N3C([H])([H])C([H])([H])C([H])([H])C3([H])[H])c(OC([H])([H])[H])c([H])c2c(Oc2c([H])c([H])c(N([H])C(=O)N([H])N3C(=O)C([H])([H])SC3([H])c3c(F)c([H])c([H])c([H])c3F)c([H])c2F)c1[H]
     RDKit          3D

 79 84  0  0  0  0  0  0  0  0999 V2000
   -3.1503   -4.1328   -0.6195 C   0  0  0  0  0  0  0  0  0  0  0  0
   -4.2713   -3.2934   -0.7290 O   0  0  0  0  0  0  0  0  0  0  0  0
   -4.0661   -1.9352   -0.9178 C   0  0  0  0  0  0  0  0  0  0  0  0
   -2.7972   -1.4251   -0.9947 C   0  0  0  0  0  0  0  0  0  0  0  0
   -2.5717   -0.0972   -1.1790 C   0  0  0  0  0  0  0  0  0  0  0  0
   -1.2669    0.4030   -1.2354 C   0  0  0  0  0  0  0  0  0  0  0  0
   -0.2434   -0.4440   -1.1230 O   0  0  0  0  0  0  0  0  0  0  0  0
    1.1081   -0.2884   -1.1296 C   0  0  0  0  0  0  0  0  0  0  0  0
    1.8514   -0.6640   -0.0087 C   0  0  0  0  0  0  0  0  0  0  0  0
    3.2204   -0.5421    0.0742 C   0  0  0  0  0  0  0  0  0  0  0  0
    3.9189   -0.0244   -0.9933 C   0  0  0  0  0  0  0  0  0  0  0  0
    5.3254    0.0952   -0.9586 N   0  0  0  0  0  0  0  0  0  0  0  0
    6.1881   -0.8203   -0.3141 C   0  0  0  0  0  0  0  0  0  0  0  0
    5.7173   -1.8350    0.2776 O   0  0  0  0  0  0  0  0  0  0  0  0
    7.5915   -0.5607   -0.3564 N   0  0  0  0  0  0  0  0  0  0  0  0
    8.5895   -1.3582    0.2105 N   0  0  0  0  0  0  0  0  0  0  0  0
    9.6581   -0.9501    1.0845 C   0  0  0  0  0  0  0  0  0  0  0  0
   11.0507   -1.7253    0.1476 S   0  0  0  0  0  0  0  0  0  0  0  0
   10.0918   -3.1377   -0.5022 C   0  0  0  0  0  0  0  0  0  0  0  0
    8.7128   -2.7551   -0.0692 C   0  0  0  0  0  0  0  0  0  0  0  0
    7.8048   -3.6024    0.0206 O   0  0  0  0  0  0  0  0  0  0  0  0
    9.9669    0.4356    1.2977 C   0  0  0  0  0  0  0  0  0  0  0  0
    9.1436    1.4672    1.6554 C   0  0  0  0  0  0  0  0  0  0  0  0
    7.8731    1.2251    1.9590 F   0  0  0  0  0  0  0  0  0  0  0  0
    9.5654    2.7883    1.7861 C   0  0  0  0  0  0  0  0  0  0  0  0
   10.8651    3.1195    1.5565 C   0  0  0  0  0  0  0  0  0  0  0  0
   11.7423    2.1261    1.1957 C   0  0  0  0  0  0  0  0  0  0  0  0
   11.3045    0.8301    1.0716 C   0  0  0  0  0  0  0  0  0  0  0  0
   12.2286   -0.1050    0.7147 F   0  0  0  0  0  0  0  0  0  0  0  0
    3.1763    0.3465   -2.1037 C   0  0  0  0  0  0  0  0  0  0  0  0
    1.8067    0.2275   -2.1955 C   0  0  0  0  0  0  0  0  0  0  0  0
    1.1581    0.6046   -3.3534 F   0  0  0  0  0  0  0  0  0  0  0  0
   -1.1509    1.7481   -1.4041 C   0  0  0  0  0  0  0  0  0  0  0  0
   -2.2604    2.5855   -1.5163 C   0  0  0  0  0  0  0  0  0  0  0  0
   -3.5104    2.0558   -1.4561 N   0  0  0  0  0  0  0  0  0  0  0  0
   -3.6620    0.7334   -1.2892 C   0  0  0  0  0  0  0  0  0  0  0  0
   -4.9630    0.2439   -1.2160 C   0  0  0  0  0  0  0  0  0  0  0  0
   -5.1983   -1.0942   -1.0283 C   0  0  0  0  0  0  0  0  0  0  0  0
   -6.4021   -1.6943   -0.9343 O   0  0  0  0  0  0  0  0  0  0  0  0
   -7.6993   -1.2785   -0.9681 C   0  0  0  0  0  0  0  0  0  0  0  0
   -8.1239   -0.3050    0.0993 C   0  0  0  0  0  0  0  0  0  0  0  0
   -9.5981   -0.0057   -0.1179 C   0  0  0  0  0  0  0  0  0  0  0  0
  -10.1416    0.9426    0.8013 N   0  0  0  0  0  0  0  0  0  0  0  0
   -9.6156    2.2795    0.5956 C   0  0  0  0  0  0  0  0  0  0  0  0
   -8.9859    2.7533    1.8562 C   0  0  0  0  0  0  0  0  0  0  0  0
   -9.1992    1.6764    2.8628 C   0  0  0  0  0  0  0  0  0  0  0  0
  -10.0406    0.6162    2.1844 C   0  0  0  0  0  0  0  0  0  0  0  0
   -2.5562   -4.1383   -1.5415 H   0  0  0  0  0  0  0  0  0  0  0  0
   -2.5090   -3.7766    0.2283 H   0  0  0  0  0  0  0  0  0  0  0  0
   -3.4935   -5.1603   -0.3240 H   0  0  0  0  0  0  0  0  0  0  0  0
   -1.9187   -2.0722   -0.9099 H   0  0  0  0  0  0  0  0  0  0  0  0
    1.3168   -1.0807    0.8585 H   0  0  0  0  0  0  0  0  0  0  0  0
    3.6979   -0.8614    1.0148 H   0  0  0  0  0  0  0  0  0  0  0  0
    5.7286    0.9254   -1.4505 H   0  0  0  0  0  0  0  0  0  0  0  0
    7.8664    0.3354   -0.8784 H   0  0  0  0  0  0  0  0  0  0  0  0
    9.6053   -1.5383    2.0527 H   0  0  0  0  0  0  0  0  0  0  0  0
   10.1193   -3.1966   -1.6012 H   0  0  0  0  0  0  0  0  0  0  0  0
   10.3572   -4.0867    0.0114 H   0  0  0  0  0  0  0  0  0  0  0  0
    8.8560    3.5759    2.0757 H   0  0  0  0  0  0  0  0  0  0  0  0
   11.2015    4.1451    1.6560 H   0  0  0  0  0  0  0  0  0  0  0  0
   12.7787    2.3784    1.0116 H   0  0  0  0  0  0  0  0  0  0  0  0
    3.6829    0.7610   -2.9737 H   0  0  0  0  0  0  0  0  0  0  0  0
   -0.1937    2.2316   -1.4471 H   0  0  0  0  0  0  0  0  0  0  0  0
   -2.1983    3.6423   -1.6505 H   0  0  0  0  0  0  0  0  0  0  0  0
   -5.7982    0.9152   -1.3188 H   0  0  0  0  0  0  0  0  0  0  0  0
   -8.3574   -2.1828   -0.8870 H   0  0  0  0  0  0  0  0  0  0  0  0
   -7.9683   -0.8215   -1.9668 H   0  0  0  0  0  0  0  0  0  0  0  0
   -7.6058    0.6492    0.0677 H   0  0  0  0  0  0  0  0  0  0  0  0
   -8.0479   -0.7557    1.1195 H   0  0  0  0  0  0  0  0  0  0  0  0
  -10.1330   -0.9686    0.0422 H   0  0  0  0  0  0  0  0  0  0  0  0
   -9.7942    0.3558   -1.1423 H   0  0  0  0  0  0  0  0  0  0  0  0
  -10.4510    2.8913    0.2171 H   0  0  0  0  0  0  0  0  0  0  0  0
   -8.8489    2.2322   -0.2087 H   0  0  0  0  0  0  0  0  0  0  0  0
   -7.8956    3.0201    1.7382 H   0  0  0  0  0  0  0  0  0  0  0  0
   -9.5191    3.7071    2.1431 H   0  0  0  0  0  0  0  0  0  0  0  0
   -9.7134    2.0858    3.7754 H   0  0  0  0  0  0  0  0  0  0  0  0
   -8.2397    1.2446    3.2522 H   0  0  0  0  0  0  0  0  0  0  0  0
  -11.0678    0.7130    2.6250 H   0  0  0  0  0  0  0  0  0  0  0  0
   -9.6421   -0.3989    2.3211 H   0  0  0  0  0  0  0  0  0  0  0  0
  1  2  1  0
  2  3  1  0
  3  4  2  0
  4  5  1  0
  5  6  2  0
  6  7  1  0
  7  8  1  0
  8  9  2  0
  9 10  1  0
 10 11  2  0
 11 12  1  0
 12 13  1  0
 13 14  2  0
 13 15  1  0
 15 16  1  0
 16 17  1  0
 17 18  1  0
 18 19  1  0
 19 20  1  0
 20 21  2  0
 17 22  1  0
 22 23  2  0
 23 24  1  0
 23 25  1  0
 25 26  2  0
 26 27  1  0
 27 28  2  0
 28 29  1  0
 11 30  1  0
 30 31  2  0
 31 32  1  0
  6 33  1  0
 33 34  2  0
 34 35  1  0
 35 36  2  0
 36 37  1  0
 37 38  2  0
 38 39  1  0
 39 40  1  0
 40 41  1  0
 41 42  1  0
 42 43  1  0
 43 44  1  0
 44 45  1  0
 45 46  1  0
 46 47  1  0
 38  3  1  0
 47 43  1  0
 36  5  1  0
 31  8  1  0
 20 16  1  0
 28 22  1  0
  1 48  1  0
  1 49  1  0
  1 50  1  0
  4 51  1  0
  9 52  1  0
 10 53  1  0
 12 54  1  0
 15 55  1  0
 17 56  1  0
 19 57  1  0
 19 58  1  0
 25 59  1  0
 26 60  1  0
 27 61  1  0
 30 62  1  0
 33 63  1  0
 34 64  1  0
 37 65  1  0
 40 66  1  0
 40 67  1  0
 41 68  1  0
 41 69  1  0
 42 70  1  0
 42 71  1  0
 44 72  1  0
 44 73  1  0
 45 74  1  0
 45 75  1  0
 46 76  1  0
 46 77  1  0
 47 78  1  0
 47 79  1  0
M  END
$$$$
[H]c1c([H])c([H])c2c(c1[H])c1c3c(c4c5c([H])c([H])c([H])c([H])c5n5c4c1n2[C@@]1(C([H])([H])[H])O[C@]5([H])C([H])([H])[C@@]([H])(OC([H])([H])[H])[C@@]1([H])OC([H])([H])[H])C(=O)N([H])C3([H])[H]
     RDKit          3D

 60 67  0  0  0  0  0  0  0  0999 V2000
   -1.5174   -1.9207   -2.5329 C   0  0  0  0  0  0  0  0  0  0  0  0
   -1.3552   -0.8976   -1.6229 O   0  0  0  0  0  0  0  0  0  0  0  0
   -2.2067   -0.9849   -0.5410 C   0  0  2  0  0  0  0  0  0  0  0  0
   -3.2141    0.1568   -0.5170 C   0  0  1  0  0  0  0  0  0  0  0  0
   -2.3789    1.4211   -0.4795 C   0  0  0  0  0  0  0  0  0  0  0  0
   -1.5861    1.3888    0.7790 C   0  0  1  0  0  0  0  0  0  0  0  0
   -1.6045    0.2316    1.4769 O   0  0  0  0  0  0  0  0  0  0  0  0
   -1.4830   -0.9678    0.7948 C   0  0  1  0  0  0  0  0  0  0  0  0
   -2.2753   -1.9477    1.6407 C   0  0  0  0  0  0  0  0  0  0  0  0
   -0.0953   -1.2507    0.6025 N   0  0  0  0  0  0  0  0  0  0  0  0
    0.4650   -2.4988    0.5330 C   0  0  0  0  0  0  0  0  0  0  0  0
   -0.0635   -3.7681    0.5936 C   0  0  0  0  0  0  0  0  0  0  0  0
    0.7769   -4.8740    0.4785 C   0  0  0  0  0  0  0  0  0  0  0  0
    2.1361   -4.7230    0.3031 C   0  0  0  0  0  0  0  0  0  0  0  0
    2.6367   -3.4393    0.2449 C   0  0  0  0  0  0  0  0  0  0  0  0
    1.8303   -2.3186    0.3557 C   0  0  0  0  0  0  0  0  0  0  0  0
    2.0679   -0.9702    0.3178 C   0  0  0  0  0  0  0  0  0  0  0  0
    3.2270   -0.2184    0.1472 C   0  0  0  0  0  0  0  0  0  0  0  0
    4.5995   -0.7167   -0.0377 C   0  0  0  0  0  0  0  0  0  0  0  0
    5.4118    0.4647   -0.1490 N   0  0  0  0  0  0  0  0  0  0  0  0
    4.5772    1.6372   -0.0609 C   0  0  0  0  0  0  0  0  0  0  0  0
    5.0575    2.7882   -0.1436 O   0  0  0  0  0  0  0  0  0  0  0  0
    3.2183    1.1585    0.1245 C   0  0  0  0  0  0  0  0  0  0  0  0
    2.0132    1.8374    0.2760 C   0  0  0  0  0  0  0  0  0  0  0  0
    1.6036    3.1411    0.2988 C   0  0  0  0  0  0  0  0  0  0  0  0
    2.2888    4.3155    0.1793 C   0  0  0  0  0  0  0  0  0  0  0  0
    1.5619    5.5150    0.2460 C   0  0  0  0  0  0  0  0  0  0  0  0
    0.2019    5.4766    0.4268 C   0  0  0  0  0  0  0  0  0  0  0  0
   -0.4969    4.2959    0.5482 C   0  0  0  0  0  0  0  0  0  0  0  0
    0.2353    3.1016    0.4808 C   0  0  0  0  0  0  0  0  0  0  0  0
   -0.1993    1.8505    0.5688 N   0  0  0  0  0  0  0  0  0  0  0  0
    0.8785    1.0729    0.4446 C   0  0  0  0  0  0  0  0  0  0  0  0
    0.8718   -0.3105    0.4705 C   0  0  0  0  0  0  0  0  0  0  0  0
   -4.1000    0.1171   -1.5589 O   0  0  0  0  0  0  0  0  0  0  0  0
   -5.3913    0.0256   -1.0689 C   0  0  0  0  0  0  0  0  0  0  0  0
   -1.3509   -2.9296   -2.1490 H   0  0  0  0  0  0  0  0  0  0  0  0
   -0.7541   -1.7449   -3.3453 H   0  0  0  0  0  0  0  0  0  0  0  0
   -2.5029   -1.8267   -3.0713 H   0  0  0  0  0  0  0  0  0  0  0  0
   -2.8174   -1.8997   -0.6976 H   0  0  0  0  0  0  0  0  0  0  0  0
   -3.7569    0.1058    0.4390 H   0  0  0  0  0  0  0  0  0  0  0  0
   -1.7877    1.4533   -1.4035 H   0  0  0  0  0  0  0  0  0  0  0  0
   -3.0962    2.2712   -0.5326 H   0  0  0  0  0  0  0  0  0  0  0  0
   -2.0230    2.1655    1.4611 H   0  0  0  0  0  0  0  0  0  0  0  0
   -3.0163   -1.3914    2.3153 H   0  0  0  0  0  0  0  0  0  0  0  0
   -2.9545   -2.5959    1.0754 H   0  0  0  0  0  0  0  0  0  0  0  0
   -1.6489   -2.4421    2.4076 H   0  0  0  0  0  0  0  0  0  0  0  0
   -1.1054   -3.9442    0.7070 H   0  0  0  0  0  0  0  0  0  0  0  0
    0.3819   -5.8796    0.5242 H   0  0  0  0  0  0  0  0  0  0  0  0
    2.7947   -5.5972    0.2131 H   0  0  0  0  0  0  0  0  0  0  0  0
    3.6964   -3.2803    0.1090 H   0  0  0  0  0  0  0  0  0  0  0  0
    4.6958   -1.3783   -0.9327 H   0  0  0  0  0  0  0  0  0  0  0  0
    4.8956   -1.3393    0.8531 H   0  0  0  0  0  0  0  0  0  0  0  0
    6.4606    0.5335   -0.2766 H   0  0  0  0  0  0  0  0  0  0  0  0
    3.3362    4.4013    0.0381 H   0  0  0  0  0  0  0  0  0  0  0  0
    2.0375    6.4771    0.1594 H   0  0  0  0  0  0  0  0  0  0  0  0
   -0.4018    6.3919    0.4841 H   0  0  0  0  0  0  0  0  0  0  0  0
   -1.5580    4.2489    0.6897 H   0  0  0  0  0  0  0  0  0  0  0  0
   -5.4450   -0.9221   -0.4658 H   0  0  0  0  0  0  0  0  0  0  0  0
   -5.6001    0.9042   -0.3921 H   0  0  0  0  0  0  0  0  0  0  0  0
   -6.1709    0.0296   -1.8295 H   0  0  0  0  0  0  0  0  0  0  0  0
  1  2  1  0
  2  3  1  0
  3  4  1  0
  4  5  1  0
  5  6  1  0
  6  7  1  0
  7  8  1  0
  8  9  1  1
  8 10  1  0
 10 11  1  0
 11 12  2  0
 12 13  1  0
 13 14  2  0
 14 15  1  0
 15 16  2  0
 16 17  1  0
 17 18  2  0
 18 19  1  0
 19 20  1  0
 20 21  1  0
 21 22  2  0
 21 23  1  0
 23 24  2  0
 24 25  1  0
 25 26  2  0
 26 27  1  0
 27 28  2  0
 28 29  1  0
 29 30  2  0
 30 31  1  0
 31 32  1  0
 32 33  2  0
  4 34  1  0
 34 35  1  0
  8  3  1  0
 33 10  1  0
 31  6  1  0
 16 11  1  0
 33 17  1  0
 23 18  1  0
 32 24  1  0
 30 25  1  0
  1 36  1  0
  1 37  1  0
  1 38  1  0
  3 39  1  6
  4 40  1  1
  5 41  1  0
  5 42  1  0
  6 43  1  1
  9 44  1  0
  9 45  1  0
  9 46  1  0
 12 47  1  0
 13 48  1  0
 14 49  1  0
 15 50  1  0
 19 51  1  0
 19 52  1  0
 20 53  1  0
 26 54  1  0
 27 55  1  0
 28 56  1  0
 29 57  1  0
 35 58  1  0
 35 59  1  0
 35 60  1  0
M  END
$$$$
[H]c1c(OC([H])([H])[H])c([H])c2c3c(n(C([H])([H])[H])c2c1[H])C([H])([H])C([H])([H])C([H])([H])C3([H])N([H])C(=O)C(F)(F)F
     RDKit          3D

 40 42  0  0  0  0  0  0  0  0999 V2000
    4.3824    3.0028   -0.2332 C   0  0  0  0  0  0  0  0  0  0  0  0
    3.0404    2.7383    0.0475 O   0  0  0  0  0  0  0  0  0  0  0  0
    2.5527    1.4346   -0.0101 C   0  0  0  0  0  0  0  0  0  0  0  0
    3.3820    0.3816   -0.3443 C   0  0  0  0  0  0  0  0  0  0  0  0
    2.8615   -0.9001   -0.3912 C   0  0  0  0  0  0  0  0  0  0  0  0
    1.5286   -1.1489   -0.1105 C   0  0  0  0  0  0  0  0  0  0  0  0
    0.7972   -2.2733   -0.0870 N   0  0  0  0  0  0  0  0  0  0  0  0
    1.3426   -3.5843   -0.3885 C   0  0  0  0  0  0  0  0  0  0  0  0
   -0.4737   -1.9622    0.2530 C   0  0  0  0  0  0  0  0  0  0  0  0
   -1.6258   -2.9092    0.3990 C   0  0  0  0  0  0  0  0  0  0  0  0
   -2.5195   -2.2630    1.4655 C   0  0  0  0  0  0  0  0  0  0  0  0
   -2.9713   -0.9485    0.8627 C   0  0  0  0  0  0  0  0  0  0  0  0
   -1.8398    0.0753    0.8436 C   0  0  0  0  0  0  0  0  0  0  0  0
   -2.2273    1.1284   -0.0308 N   0  0  0  0  0  0  0  0  0  0  0  0
   -2.5142    2.4548    0.3207 C   0  0  0  0  0  0  0  0  0  0  0  0
   -2.4286    2.7763    1.5253 O   0  0  0  0  0  0  0  0  0  0  0  0
   -2.9131    3.5280   -0.5981 C   0  0  0  0  0  0  0  0  0  0  0  0
   -1.9037    3.6921   -1.5400 F   0  0  0  0  0  0  0  0  0  0  0  0
   -4.1353    3.3444   -1.1837 F   0  0  0  0  0  0  0  0  0  0  0  0
   -2.9815    4.7152    0.0970 F   0  0  0  0  0  0  0  0  0  0  0  0
   -0.5935   -0.6101    0.4599 C   0  0  0  0  0  0  0  0  0  0  0  0
    0.6876   -0.1037    0.2254 C   0  0  0  0  0  0  0  0  0  0  0  0
    1.2293    1.1511    0.2638 C   0  0  0  0  0  0  0  0  0  0  0  0
    4.7159    2.6294   -1.2081 H   0  0  0  0  0  0  0  0  0  0  0  0
    5.0685    2.5680    0.5475 H   0  0  0  0  0  0  0  0  0  0  0  0
    4.5747    4.0941   -0.2053 H   0  0  0  0  0  0  0  0  0  0  0  0
    4.4220    0.5750   -0.5634 H   0  0  0  0  0  0  0  0  0  0  0  0
    3.5075   -1.7144   -0.6507 H   0  0  0  0  0  0  0  0  0  0  0  0
    2.0620   -3.8761    0.4080 H   0  0  0  0  0  0  0  0  0  0  0  0
    0.5198   -4.3061   -0.4757 H   0  0  0  0  0  0  0  0  0  0  0  0
    1.9357   -3.4957   -1.3321 H   0  0  0  0  0  0  0  0  0  0  0  0
   -2.1697   -2.9203   -0.5554 H   0  0  0  0  0  0  0  0  0  0  0  0
   -1.3339   -3.8865    0.7720 H   0  0  0  0  0  0  0  0  0  0  0  0
   -3.4203   -2.8851    1.5881 H   0  0  0  0  0  0  0  0  0  0  0  0
   -1.9477   -2.1094    2.3858 H   0  0  0  0  0  0  0  0  0  0  0  0
   -3.2876   -1.1163   -0.1800 H   0  0  0  0  0  0  0  0  0  0  0  0
   -3.8178   -0.6037    1.4860 H   0  0  0  0  0  0  0  0  0  0  0  0
   -1.7922    0.4659    1.9021 H   0  0  0  0  0  0  0  0  0  0  0  0
   -2.3098    0.8883   -1.0641 H   0  0  0  0  0  0  0  0  0  0  0  0
    0.5957    1.9733    0.5215 H   0  0  0  0  0  0  0  0  0  0  0  0
  1  2  1  0
  2  3  1  0
  3  4  2  0
  4  5  1  0
  5  6  2  0
  6  7  1  0
  7  8  1  0
  7  9  1  0
  9 10  1  0
 10 11  1  0
 11 12  1  0
 12 13  1  0
 13 14  1  0
 14 15  1  0
 15 16  2  0
 15 17  1  0
 17 18  1  0
 17 19  1  0
 17 20  1  0
 13 21  1  0
 21 22  1  0
 22 23  2  0
 23  3  1  0
 22  6  1  0
 21  9  2  0
  1 24  1  0
  1 25  1  0
  1 26  1  0
  4 27  1  0
  5 28  1  0
  8 29  1  0
  8 30  1  0
  8 31  1  0
 10 32  1  0
 10 33  1  0
 11 34  1  0
 11 35  1  0
 12 36  1  0
 12 37  1  0
 13 38  1  0
 14 39  1  0
 23 40  1  0
M  END
$$$$
[H]c1c([H])c([H])c(C([H])([H])OC(=O)N([H])[C@]([H])(C(=O)N([H])[C@]([H])(C(=O)c2nc3c([H])c([H])c([H])c([H])c3s2)C([H])([H])C([H])([H])C([H])([H])N=C(N([H])[H])N([H])[H])C([H])([H])c2c([H])c([H])c([H])c([H])c2[H])c([H])c1[H]
     RDKit          3D

 73 76  0  0  0  0  0  0  0  0999 V2000
   -8.1124    2.8390    2.3680 N   0  0  0  0  0  0  0  0  0  0  0  0
   -6.9566    3.3064    1.6704 C   0  0  0  0  0  0  0  0  0  0  0  0
   -6.7394    4.6887    1.4293 N   0  0  0  0  0  0  0  0  0  0  0  0
   -6.1003    2.4584    1.2550 N   0  0  0  0  0  0  0  0  0  0  0  0
   -4.9023    2.8422    0.5407 C   0  0  0  0  0  0  0  0  0  0  0  0
   -4.0637    1.5801    0.3875 C   0  0  0  0  0  0  0  0  0  0  0  0
   -2.8007    1.9092   -0.3483 C   0  0  0  0  0  0  0  0  0  0  0  0
   -1.9524    0.6581   -0.4935 C   0  0  2  0  0  0  0  0  0  0  0  0
   -0.7247    1.0187   -1.2246 N   0  0  0  0  0  0  0  0  0  0  0  0
    0.5363    0.8670   -0.5930 C   0  0  0  0  0  0  0  0  0  0  0  0
    0.6088    0.4295    0.5849 O   0  0  0  0  0  0  0  0  0  0  0  0
    1.7497    1.2541   -1.4013 C   0  0  2  0  0  0  0  0  0  0  0  0
    1.7039    0.5346   -2.6782 C   0  0  0  0  0  0  0  0  0  0  0  0
    2.7762    0.7520   -3.6444 C   0  0  0  0  0  0  0  0  0  0  0  0
    2.7037    1.7956   -4.5524 C   0  0  0  0  0  0  0  0  0  0  0  0
    3.7303    1.9509   -5.4459 C   0  0  0  0  0  0  0  0  0  0  0  0
    4.8258    1.0823   -5.4467 C   0  0  0  0  0  0  0  0  0  0  0  0
    4.9023    0.0445   -4.5473 C   0  0  0  0  0  0  0  0  0  0  0  0
    3.8520   -0.1062   -3.6410 C   0  0  0  0  0  0  0  0  0  0  0  0
    2.8986    1.0018   -0.5624 N   0  0  0  0  0  0  0  0  0  0  0  0
    3.2958   -0.2380   -0.0435 C   0  0  0  0  0  0  0  0  0  0  0  0
    2.6476   -1.2786   -0.2912 O   0  0  0  0  0  0  0  0  0  0  0  0
    4.4158   -0.3426    0.7567 O   0  0  0  0  0  0  0  0  0  0  0  0
    4.7858   -1.6127    1.2628 C   0  0  0  0  0  0  0  0  0  0  0  0
    6.0156   -1.4905    2.0954 C   0  0  0  0  0  0  0  0  0  0  0  0
    5.9195   -1.2382    3.4607 C   0  0  0  0  0  0  0  0  0  0  0  0
    7.0513   -1.1266    4.2224 C   0  0  0  0  0  0  0  0  0  0  0  0
    8.2857   -1.2657    3.6289 C   0  0  0  0  0  0  0  0  0  0  0  0
    8.3793   -1.5123    2.2953 C   0  0  0  0  0  0  0  0  0  0  0  0
    7.2456   -1.6279    1.5110 C   0  0  0  0  0  0  0  0  0  0  0  0
   -2.6160   -0.4007   -1.2528 C   0  0  0  0  0  0  0  0  0  0  0  0
   -2.6275   -0.4029   -2.5027 O   0  0  0  0  0  0  0  0  0  0  0  0
   -3.2828   -1.4905   -0.5453 C   0  0  0  0  0  0  0  0  0  0  0  0
   -3.3882   -1.7178    0.7463 N   0  0  0  0  0  0  0  0  0  0  0  0
   -4.0316   -2.7585    1.1907 C   0  0  0  0  0  0  0  0  0  0  0  0
   -4.2112   -3.1062    2.5421 C   0  0  0  0  0  0  0  0  0  0  0  0
   -4.9018   -4.2169    2.8902 C   0  0  0  0  0  0  0  0  0  0  0  0
   -5.4654   -5.0676    1.9724 C   0  0  0  0  0  0  0  0  0  0  0  0
   -5.3029   -4.7482    0.6452 C   0  0  0  0  0  0  0  0  0  0  0  0
   -4.5891   -3.5990    0.2659 C   0  0  0  0  0  0  0  0  0  0  0  0
   -4.1522   -2.8380   -1.1988 S   0  0  0  0  0  0  0  0  0  0  0  0
   -8.0577    2.0693    3.0543 H   0  0  0  0  0  0  0  0  0  0  0  0
   -9.0453    3.2784    2.1892 H   0  0  0  0  0  0  0  0  0  0  0  0
   -6.9503    5.0688    0.4921 H   0  0  0  0  0  0  0  0  0  0  0  0
   -6.3792    5.3051    2.1695 H   0  0  0  0  0  0  0  0  0  0  0  0
   -4.3590    3.5693    1.1801 H   0  0  0  0  0  0  0  0  0  0  0  0
   -5.1374    3.3179   -0.4120 H   0  0  0  0  0  0  0  0  0  0  0  0
   -4.6556    0.8253   -0.1834 H   0  0  0  0  0  0  0  0  0  0  0  0
   -3.8165    1.2047    1.3827 H   0  0  0  0  0  0  0  0  0  0  0  0
   -2.2153    2.6038    0.3013 H   0  0  0  0  0  0  0  0  0  0  0  0
   -2.9879    2.3458   -1.3534 H   0  0  0  0  0  0  0  0  0  0  0  0
   -1.7026    0.2975    0.5118 H   0  0  0  0  0  0  0  0  0  0  0  0
   -0.8151    1.3782   -2.1810 H   0  0  0  0  0  0  0  0  0  0  0  0
    1.6394    2.3634   -1.4800 H   0  0  0  0  0  0  0  0  0  0  0  0
    1.6852   -0.5706   -2.4410 H   0  0  0  0  0  0  0  0  0  0  0  0
    0.7408    0.6877   -3.2246 H   0  0  0  0  0  0  0  0  0  0  0  0
    1.8307    2.4236   -4.4926 H   0  0  0  0  0  0  0  0  0  0  0  0
    3.6538    2.7762   -6.1499 H   0  0  0  0  0  0  0  0  0  0  0  0
    5.6189    1.2321   -6.1642 H   0  0  0  0  0  0  0  0  0  0  0  0
    5.7573   -0.6098   -4.5698 H   0  0  0  0  0  0  0  0  0  0  0  0
    3.9796   -0.9479   -2.9718 H   0  0  0  0  0  0  0  0  0  0  0  0
    3.5302    1.8294   -0.2944 H   0  0  0  0  0  0  0  0  0  0  0  0
    4.0085   -2.0661    1.8836 H   0  0  0  0  0  0  0  0  0  0  0  0
    4.9975   -2.3007    0.4024 H   0  0  0  0  0  0  0  0  0  0  0  0
    4.9256   -1.1336    3.8974 H   0  0  0  0  0  0  0  0  0  0  0  0
    7.0054   -0.9320    5.2788 H   0  0  0  0  0  0  0  0  0  0  0  0
    9.1939   -1.1830    4.2023 H   0  0  0  0  0  0  0  0  0  0  0  0
    9.3380   -1.6305    1.7791 H   0  0  0  0  0  0  0  0  0  0  0  0
    7.3224   -1.8246    0.4472 H   0  0  0  0  0  0  0  0  0  0  0  0
   -3.7946   -2.4831    3.3451 H   0  0  0  0  0  0  0  0  0  0  0  0
   -5.0229   -4.4588    3.9648 H   0  0  0  0  0  0  0  0  0  0  0  0
   -5.9991   -5.9285    2.2915 H   0  0  0  0  0  0  0  0  0  0  0  0
   -5.6968   -5.3349   -0.1637 H   0  0  0  0  0  0  0  0  0  0  0  0
  1  2  1  0
  2  3  1  0
  2  4  2  3
  4  5  1  0
  5  6  1  0
  6  7  1  0
  7  8  1  0
  8  9  1  0
  9 10  1  0
 10 11  2  0
 10 12  1  0
 12 13  1  0
 13 14  1  0
 14 15  2  0
 15 16  1  0
 16 17  2  0
 17 18  1  0
 18 19  2  0
 12 20  1  0
 20 21  1  0
 21 22  2  0
 21 23  1  0
 23 24  1  0
 24 25  1  0
 25 26  2  0
 26 27  1  0
 27 28  2  0
 28 29  1  0
 29 30  2  0
  8 31  1  0
 31 32  2  0
 31 33  1  0
 33 34  2  0
 34 35  1  0
 35 36  2  0
 36 37  1  0
 37 38  2  0
 38 39  1  0
 39 40  2  0
 40 41  1  0
 19 14  1  0
 30 25  1  0
 41 33  1  0
 40 35  1  0
  1 42  1  0
  1 43  1  0
  3 44  1  0
  3 45  1  0
  5 46  1  0
  5 47  1  0
  6 48  1  0
  6 49  1  0
  7 50  1  0
  7 51  1  0
  8 52  1  1
  9 53  1  0
 12 54  1  6
 13 55  1  0
 13 56  1  0
 15 57  1  0
 16 58  1  0
 17 59  1  0
 18 60  1  0
 19 61  1  0
 20 62  1  0
 24 63  1  0
 24 64  1  0
 26 65  1  0
 27 66  1  0
 28 67  1  0
 29 68  1  0
 30 69  1  0
 36 70  1  0
 37 71  1  0
 38 72  1  0
 39 73  1  0
M  END
$$$$
[H]N=C(N([H])[H])N([H])C([H])([H])C([H])([H])C([H])([H])[C@@]([H])(C(=O)N([H])[C@]([H])(C(=O)N([H])[H])C([H])([H])c1c([H])c([H])c([H])c([H])c1[H])N([H])C(=O)[C@@]([H])(N([H])C(=O)[C@]([H])(N([H])[H])[C@]([H])(O[H])C([H])([H])[H])C([H])([H])c1c([H])c([H])c([H])c([H])c1[H]
     RDKit          3D

 81 82  0  0  0  0  0  0  0  0999 V2000
    6.3747   -3.3738   -0.7806 C   0  0  0  0  0  0  0  0  0  0  0  0
    4.9529   -3.8560   -0.9988 C   0  0  1  0  0  0  0  0  0  0  0  0
    5.0411   -5.2363   -1.2811 O   0  0  0  0  0  0  0  0  0  0  0  0
    4.1655   -3.7536    0.2897 C   0  0  1  0  0  0  0  0  0  0  0  0
    4.9049   -4.4595    1.3126 N   0  0  0  0  0  0  0  0  0  0  0  0
    3.8935   -2.3574    0.7027 C   0  0  0  0  0  0  0  0  0  0  0  0
    4.3304   -1.9934    1.8458 O   0  0  0  0  0  0  0  0  0  0  0  0
    3.1999   -1.4352   -0.0669 N   0  0  0  0  0  0  0  0  0  0  0  0
    2.9191   -0.0207    0.3607 C   0  0  1  0  0  0  0  0  0  0  0  0
    3.6853    0.8114   -0.5499 C   0  0  0  0  0  0  0  0  0  0  0  0
    3.7363    2.2535   -0.4403 C   0  0  0  0  0  0  0  0  0  0  0  0
    3.0528    3.1247   -1.2231 C   0  0  0  0  0  0  0  0  0  0  0  0
    3.1155    4.4926   -1.0882 C   0  0  0  0  0  0  0  0  0  0  0  0
    3.8911    5.0590   -0.1327 C   0  0  0  0  0  0  0  0  0  0  0  0
    4.6139    4.2213    0.6976 C   0  0  0  0  0  0  0  0  0  0  0  0
    4.5430    2.8574    0.5530 C   0  0  0  0  0  0  0  0  0  0  0  0
    1.5094    0.0904    0.5873 C   0  0  0  0  0  0  0  0  0  0  0  0
    1.0032   -0.9788    1.1935 O   0  0  0  0  0  0  0  0  0  0  0  0
    0.5416    1.0422    0.3229 N   0  0  0  0  0  0  0  0  0  0  0  0
   -0.8696    0.8248    0.7005 C   0  0  1  0  0  0  0  0  0  0  0  0
   -1.6399    2.0438    0.9587 C   0  0  0  0  0  0  0  0  0  0  0  0
   -1.1018    2.8934    2.0901 C   0  0  0  0  0  0  0  0  0  0  0  0
   -2.0380    4.0887    2.1930 C   0  0  0  0  0  0  0  0  0  0  0  0
   -1.6616    5.0031    3.2440 N   0  0  0  0  0  0  0  0  0  0  0  0
   -2.4568    6.1476    3.4432 C   0  0  0  0  0  0  0  0  0  0  0  0
   -2.9194    6.4523    4.7521 N   0  0  0  0  0  0  0  0  0  0  0  0
   -2.7757    6.9236    2.4751 N   0  0  0  0  0  0  0  0  0  0  0  0
   -1.5323   -0.0230   -0.3218 C   0  0  0  0  0  0  0  0  0  0  0  0
   -0.8585   -0.4438   -1.2862 O   0  0  0  0  0  0  0  0  0  0  0  0
   -2.8865   -0.3513   -0.2063 N   0  0  0  0  0  0  0  0  0  0  0  0
   -3.4781   -1.2271   -1.2330 C   0  0  1  0  0  0  0  0  0  0  0  0
   -3.9776   -2.4617   -0.5602 C   0  0  0  0  0  0  0  0  0  0  0  0
   -4.5970   -3.4802   -1.4040 C   0  0  0  0  0  0  0  0  0  0  0  0
   -3.7928   -4.4326   -2.0513 C   0  0  0  0  0  0  0  0  0  0  0  0
   -4.3325   -5.4416   -2.8229 C   0  0  0  0  0  0  0  0  0  0  0  0
   -5.7005   -5.5374   -2.9783 C   0  0  0  0  0  0  0  0  0  0  0  0
   -6.4918   -4.6093   -2.3488 C   0  0  0  0  0  0  0  0  0  0  0  0
   -5.9541   -3.6041   -1.5798 C   0  0  0  0  0  0  0  0  0  0  0  0
   -4.4509   -0.4885   -2.0386 C   0  0  0  0  0  0  0  0  0  0  0  0
   -5.1411   -1.0313   -3.1431 N   0  0  0  0  0  0  0  0  0  0  0  0
   -4.7051    0.7230   -1.7444 O   0  0  0  0  0  0  0  0  0  0  0  0
    6.6516   -2.6477   -1.5717 H   0  0  0  0  0  0  0  0  0  0  0  0
    6.4569   -2.8604    0.1921 H   0  0  0  0  0  0  0  0  0  0  0  0
    7.0963   -4.2228   -0.7575 H   0  0  0  0  0  0  0  0  0  0  0  0
    4.4562   -3.3130   -1.8326 H   0  0  0  0  0  0  0  0  0  0  0  0
    5.5522   -5.3792   -2.1156 H   0  0  0  0  0  0  0  0  0  0  0  0
    3.1787   -4.2706    0.0846 H   0  0  0  0  0  0  0  0  0  0  0  0
    4.2032   -4.8576    2.0076 H   0  0  0  0  0  0  0  0  0  0  0  0
    5.5939   -3.8592    1.7766 H   0  0  0  0  0  0  0  0  0  0  0  0
    2.8180   -1.6591   -1.0095 H   0  0  0  0  0  0  0  0  0  0  0  0
    3.4374   -0.0090    1.3837 H   0  0  0  0  0  0  0  0  0  0  0  0
    4.7821    0.4644   -0.4529 H   0  0  0  0  0  0  0  0  0  0  0  0
    3.4874    0.4872   -1.6323 H   0  0  0  0  0  0  0  0  0  0  0  0
    2.4069    2.7503   -2.0172 H   0  0  0  0  0  0  0  0  0  0  0  0
    2.5353    5.1274   -1.7566 H   0  0  0  0  0  0  0  0  0  0  0  0
    3.9419    6.1493   -0.0241 H   0  0  0  0  0  0  0  0  0  0  0  0
    5.2286    4.6825    1.4534 H   0  0  0  0  0  0  0  0  0  0  0  0
    5.1250    2.2071    1.2192 H   0  0  0  0  0  0  0  0  0  0  0  0
    0.7305    1.9421   -0.1409 H   0  0  0  0  0  0  0  0  0  0  0  0
   -0.8004    0.1272    1.5973 H   0  0  0  0  0  0  0  0  0  0  0  0
   -2.6898    1.7663    1.2690 H   0  0  0  0  0  0  0  0  0  0  0  0
   -1.7925    2.6822    0.0601 H   0  0  0  0  0  0  0  0  0  0  0  0
   -1.2166    2.3397    3.0394 H   0  0  0  0  0  0  0  0  0  0  0  0
   -0.0830    3.2518    1.9387 H   0  0  0  0  0  0  0  0  0  0  0  0
   -3.0876    3.7663    2.3924 H   0  0  0  0  0  0  0  0  0  0  0  0
   -2.0725    4.6381    1.2198 H   0  0  0  0  0  0  0  0  0  0  0  0
   -0.8373    4.8665    3.8657 H   0  0  0  0  0  0  0  0  0  0  0  0
   -2.8404    7.4529    5.0916 H   0  0  0  0  0  0  0  0  0  0  0  0
   -3.3278    5.7237    5.3718 H   0  0  0  0  0  0  0  0  0  0  0  0
   -3.3527    7.7798    2.5342 H   0  0  0  0  0  0  0  0  0  0  0  0
   -3.4673   -0.0004    0.5660 H   0  0  0  0  0  0  0  0  0  0  0  0
   -2.6579   -1.5681   -1.9351 H   0  0  0  0  0  0  0  0  0  0  0  0
   -3.1703   -2.9286    0.0835 H   0  0  0  0  0  0  0  0  0  0  0  0
   -4.7620   -2.1445    0.1992 H   0  0  0  0  0  0  0  0  0  0  0  0
   -2.7230   -4.3838   -1.9499 H   0  0  0  0  0  0  0  0  0  0  0  0
   -3.7299   -6.1957   -3.3358 H   0  0  0  0  0  0  0  0  0  0  0  0
   -6.1500   -6.3354   -3.5903 H   0  0  0  0  0  0  0  0  0  0  0  0
   -7.5630   -4.6730   -2.4623 H   0  0  0  0  0  0  0  0  0  0  0  0
   -6.6456   -2.8977   -1.1056 H   0  0  0  0  0  0  0  0  0  0  0  0
   -6.1750   -0.8702   -3.1977 H   0  0  0  0  0  0  0  0  0  0  0  0
   -4.6501   -1.5852   -3.9004 H   0  0  0  0  0  0  0  0  0  0  0  0
  1  2  1  0
  2  3  1  0
  2  4  1  0
  4  5  1  0
  4  6  1  0
  6  7  2  0
  6  8  1  0
  8  9  1  0
  9 10  1  0
 10 11  1  0
 11 12  2  0
 12 13  1  0
 13 14  2  0
 14 15  1  0
 15 16  2  0
  9 17  1  0
 17 18  2  0
 17 19  1  0
 19 20  1  0
 20 21  1  0
 21 22  1  0
 22 23  1  0
 23 24  1  0
 24 25  1  0
 25 26  1  0
 25 27  2  3
 20 28  1  0
 28 29  2  0
 28 30  1  0
 30 31  1  0
 31 32  1  0
 32 33  1  0
 33 34  2  0
 34 35  1  0
 35 36  2  0
 36 37  1  0
 37 38  2  0
 31 39  1  0
 39 40  1  0
 39 41  2  0
 16 11  1  0
 38 33  1  0
  1 42  1  0
  1 43  1  0
  1 44  1  0
  2 45  1  6
  3 46  1  0
  4 47  1  6
  5 48  1  0
  5 49  1  0
  8 50  1  0
  9 51  1  1
 10 52  1  0
 10 53  1  0
 12 54  1  0
 13 55  1  0
 14 56  1  0
 15 57  1  0
 16 58  1  0
 19 59  1  0
 20 60  1  1
 21 61  1  0
 21 62  1  0
 22 63  1  0
 22 64  1  0
 23 65  1  0
 23 66  1  0
 24 67  1  0
 26 68  1  0
 26 69  1  0
 27 70  1  0
 30 71  1  0
 31 72  1  6
 32 73  1  0
 32 74  1  0
 34 75  1  0
 35 76  1  0
 36 77  1  0
 37 78  1  0
 38 79  1  0
 40 80  1  0
 40 81  1  0
M  END
$$$$
[H]OC([H])([H])C([H])([H])N1C([H])([H])C([H])([H])N(C2([H])C([H])([H])C([H])([H])N(c3c([H])c([H])c(N([H])c4nc([H])c(Cl)c(N([H])c5c([H])c([H])c([H])c([H])c5S(=O)(=O)C([H])(C([H])([H])[H])C([H])([H])[H])n4)c(OC([H])([H])[H])c3[H])C([H])([H])C2([H])[H])C([H])([H])C1([H])[H]
     RDKit          3D

 86 90  0  0  0  0  0  0  0  0999 V2000
   -2.3459   -2.1504   -4.2563 C   0  0  0  0  0  0  0  0  0  0  0  0
   -0.9888   -2.0985   -3.8706 O   0  0  0  0  0  0  0  0  0  0  0  0
   -0.6176   -1.4203   -2.7103 C   0  0  0  0  0  0  0  0  0  0  0  0
   -1.5770   -0.8045   -1.9469 C   0  0  0  0  0  0  0  0  0  0  0  0
   -1.2657   -0.1240   -0.7955 C   0  0  0  0  0  0  0  0  0  0  0  0
    0.0673   -0.0988   -0.4576 C   0  0  0  0  0  0  0  0  0  0  0  0
    1.0667   -0.7112   -1.2053 C   0  0  0  0  0  0  0  0  0  0  0  0
    0.7274   -1.3800   -2.3455 C   0  0  0  0  0  0  0  0  0  0  0  0
    1.6716   -2.0273   -3.1764 N   0  0  0  0  0  0  0  0  0  0  0  0
    3.0441   -2.1878   -3.0782 C   0  0  0  0  0  0  0  0  0  0  0  0
    3.6362   -2.9294   -4.0905 N   0  0  0  0  0  0  0  0  0  0  0  0
    4.9418   -3.1767   -4.1246 C   0  0  0  0  0  0  0  0  0  0  0  0
    5.7750   -2.7010   -3.1448 C   0  0  0  0  0  0  0  0  0  0  0  0
    7.4819   -3.0613   -3.2530 Cl  0  0  0  0  0  0  0  0  0  0  0  0
    5.2171   -1.9456   -2.1044 C   0  0  0  0  0  0  0  0  0  0  0  0
    6.1120   -1.5387   -1.1019 N   0  0  0  0  0  0  0  0  0  0  0  0
    5.9386   -0.7127    0.0129 C   0  0  0  0  0  0  0  0  0  0  0  0
    4.8734    0.1680    0.1570 C   0  0  0  0  0  0  0  0  0  0  0  0
    4.8025    0.9774    1.2704 C   0  0  0  0  0  0  0  0  0  0  0  0
    5.7488    0.9565    2.2598 C   0  0  0  0  0  0  0  0  0  0  0  0
    6.8117    0.0568    2.0826 C   0  0  0  0  0  0  0  0  0  0  0  0
    6.9358   -0.7693    1.0028 C   0  0  0  0  0  0  0  0  0  0  0  0
    8.2849   -1.8304    0.9188 S   0  0  0  0  0  0  0  0  0  0  0  0
    7.7680   -3.2451    0.9584 O   0  0  0  0  0  0  0  0  0  0  0  0
    9.2142   -1.6411   -0.2205 O   0  0  0  0  0  0  0  0  0  0  0  0
    9.2964   -1.6299    2.3919 C   0  0  0  0  0  0  0  0  0  0  0  0
   10.3484   -2.7514    2.2975 C   0  0  0  0  0  0  0  0  0  0  0  0
   10.0624   -0.3513    2.4036 C   0  0  0  0  0  0  0  0  0  0  0  0
    3.8922   -1.7527   -2.1616 N   0  0  0  0  0  0  0  0  0  0  0  0
   -2.2004    0.5129    0.0575 N   0  0  0  0  0  0  0  0  0  0  0  0
   -3.4741   -0.1017    0.2961 C   0  0  0  0  0  0  0  0  0  0  0  0
   -4.6234    0.8650    0.3140 C   0  0  0  0  0  0  0  0  0  0  0  0
   -4.2638    2.0813    1.1438 C   0  0  0  0  0  0  0  0  0  0  0  0
   -3.0368    2.7638    0.6634 C   0  0  0  0  0  0  0  0  0  0  0  0
   -1.8725    1.7645    0.6600 C   0  0  0  0  0  0  0  0  0  0  0  0
   -5.4143    2.8795    1.3399 N   0  0  0  0  0  0  0  0  0  0  0  0
   -6.0506    3.4296    0.1996 C   0  0  0  0  0  0  0  0  0  0  0  0
   -7.3767    2.7117   -0.0831 C   0  0  0  0  0  0  0  0  0  0  0  0
   -8.2662    2.9710    0.9968 N   0  0  0  0  0  0  0  0  0  0  0  0
   -9.1442    1.8806    1.3222 C   0  0  0  0  0  0  0  0  0  0  0  0
  -10.1784    1.5547    0.3038 C   0  0  0  0  0  0  0  0  0  0  0  0
  -11.0582    2.5669    0.0040 O   0  0  0  0  0  0  0  0  0  0  0  0
   -7.5691    3.3588    2.2327 C   0  0  0  0  0  0  0  0  0  0  0  0
   -6.3495    2.4395    2.3242 C   0  0  0  0  0  0  0  0  0  0  0  0
   -2.3947   -2.6541   -5.2658 H   0  0  0  0  0  0  0  0  0  0  0  0
   -2.7423   -1.1215   -4.4086 H   0  0  0  0  0  0  0  0  0  0  0  0
   -2.9300   -2.7158   -3.4951 H   0  0  0  0  0  0  0  0  0  0  0  0
   -2.6335   -0.8300   -2.2347 H   0  0  0  0  0  0  0  0  0  0  0  0
    0.3606    0.4252    0.4401 H   0  0  0  0  0  0  0  0  0  0  0  0
    2.0845   -0.6710   -0.8889 H   0  0  0  0  0  0  0  0  0  0  0  0
    1.2420   -2.4924   -4.0785 H   0  0  0  0  0  0  0  0  0  0  0  0
    5.3802   -3.7709   -4.9451 H   0  0  0  0  0  0  0  0  0  0  0  0
    7.1069   -1.9337   -1.2145 H   0  0  0  0  0  0  0  0  0  0  0  0
    4.1308    0.2164   -0.6278 H   0  0  0  0  0  0  0  0  0  0  0  0
    3.9481    1.6413    1.3242 H   0  0  0  0  0  0  0  0  0  0  0  0
    5.6853    1.5988    3.1372 H   0  0  0  0  0  0  0  0  0  0  0  0
    7.5239    0.0882    2.9110 H   0  0  0  0  0  0  0  0  0  0  0  0
    8.7490   -1.8099    3.3137 H   0  0  0  0  0  0  0  0  0  0  0  0
    9.9208   -3.7202    2.6315 H   0  0  0  0  0  0  0  0  0  0  0  0
   11.2300   -2.5372    2.9322 H   0  0  0  0  0  0  0  0  0  0  0  0
   10.7052   -2.8725    1.2574 H   0  0  0  0  0  0  0  0  0  0  0  0
    9.9643    0.0795    3.4441 H   0  0  0  0  0  0  0  0  0  0  0  0
    9.5920    0.4054    1.7422 H   0  0  0  0  0  0  0  0  0  0  0  0
   11.1403   -0.4664    2.2251 H   0  0  0  0  0  0  0  0  0  0  0  0
   -3.4353   -0.7003    1.2444 H   0  0  0  0  0  0  0  0  0  0  0  0
   -3.6305   -0.8938   -0.4929 H   0  0  0  0  0  0  0  0  0  0  0  0
   -5.4526    0.3536    0.8617 H   0  0  0  0  0  0  0  0  0  0  0  0
   -4.8710    1.1234   -0.7259 H   0  0  0  0  0  0  0  0  0  0  0  0
   -4.0022    1.6515    2.1623 H   0  0  0  0  0  0  0  0  0  0  0  0
   -2.7693    3.5499    1.4150 H   0  0  0  0  0  0  0  0  0  0  0  0
   -3.0916    3.1653   -0.3529 H   0  0  0  0  0  0  0  0  0  0  0  0
   -1.4700    1.6535    1.6842 H   0  0  0  0  0  0  0  0  0  0  0  0
   -1.0228    2.2133    0.0552 H   0  0  0  0  0  0  0  0  0  0  0  0
   -6.3709    4.4843    0.4478 H   0  0  0  0  0  0  0  0  0  0  0  0
   -5.4250    3.5274   -0.6998 H   0  0  0  0  0  0  0  0  0  0  0  0
   -7.7573    3.1900   -1.0276 H   0  0  0  0  0  0  0  0  0  0  0  0
   -7.1458    1.6564   -0.2206 H   0  0  0  0  0  0  0  0  0  0  0  0
   -9.6772    2.1490    2.2662 H   0  0  0  0  0  0  0  0  0  0  0  0
   -8.5643    0.9578    1.5119 H   0  0  0  0  0  0  0  0  0  0  0  0
   -9.7443    1.0730   -0.6152 H   0  0  0  0  0  0  0  0  0  0  0  0
  -10.8044    0.7288    0.7567 H   0  0  0  0  0  0  0  0  0  0  0  0
  -10.7455    2.9876   -0.8374 H   0  0  0  0  0  0  0  0  0  0  0  0
   -8.2178    3.1438    3.1143 H   0  0  0  0  0  0  0  0  0  0  0  0
   -7.3087    4.4153    2.2504 H   0  0  0  0  0  0  0  0  0  0  0  0
   -6.7051    1.4146    2.1874 H   0  0  0  0  0  0  0  0  0  0  0  0
   -5.8972    2.6267    3.3285 H   0  0  0  0  0  0  0  0  0  0  0  0
  1  2  1  0
  2  3  1  0
  3  4  2  0
  4  5  1  0
  5  6  2  0
  6  7  1  0
  7  8  2  0
  8  9  1  0
  9 10  1  0
 10 11  2  0
 11 12  1  0
 12 13  2  0
 13 14  1  0
 13 15  1  0
 15 16  1  0
 16 17  1  0
 17 18  2  0
 18 19  1  0
 19 20  2  0
 20 21  1  0
 21 22  2  0
 22 23  1  0
 23 24  2  0
 23 25  2  0
 23 26  1  0
 26 27  1  0
 26 28  1  0
 15 29  2  0
  5 30  1  0
 30 31  1  0
 31 32  1  0
 32 33  1  0
 33 34  1  0
 34 35  1  0
 33 36  1  0
 36 37  1  0
 37 38  1  0
 38 39  1  0
 39 40  1  0
 40 41  1  0
 41 42  1  0
 39 43  1  0
 43 44  1  0
  8  3  1  0
 29 10  1  0
 35 30  1  0
 44 36  1  0
 22 17  1  0
  1 45  1  0
  1 46  1  0
  1 47  1  0
  4 48  1  0
  6 49  1  0
  7 50  1  0
  9 51  1  0
 12 52  1  0
 16 53  1  0
 18 54  1  0
 19 55  1  0
 20 56  1  0
 21 57  1  0
 26 58  1  0
 27 59  1  0
 27 60  1  0
 27 61  1  0
 28 62  1  0
 28 63  1  0
 28 64  1  0
 31 65  1  0
 31 66  1  0
 32 67  1  0
 32 68  1  0
 33 69  1  0
 34 70  1  0
 34 71  1  0
 35 72  1  0
 35 73  1  0
 37 74  1  0
 37 75  1  0
 38 76  1  0
 38 77  1  0
 40 78  1  0
 40 79  1  0
 41 80  1  0
 41 81  1  0
 42 82  1  0
 43 83  1  0
 43 84  1  0
 44 85  1  0
 44 86  1  0
M  END
$$$$
[H]c1nc([H])c(-c2c([H])c([H])c(OC([H])([H])[H])c(OC([H])([H])[H])c2[H])c(N([H])c2c([H])c([H])c3c(c2[H])c([H])c([H])n3[H])c1C#N
     RDKit          3D

 46 49  0  0  0  0  0  0  0  0999 V2000
   -5.0738    1.8150   -1.3954 C   0  0  0  0  0  0  0  0  0  0  0  0
   -4.3884    1.2702   -0.3134 O   0  0  0  0  0  0  0  0  0  0  0  0
   -3.3430    0.3724   -0.4064 C   0  0  0  0  0  0  0  0  0  0  0  0
   -2.8862   -0.0655   -1.6389 C   0  0  0  0  0  0  0  0  0  0  0  0
   -1.8406   -0.9618   -1.6922 C   0  0  0  0  0  0  0  0  0  0  0  0
   -1.2186   -1.4499   -0.5517 C   0  0  0  0  0  0  0  0  0  0  0  0
   -1.6998   -0.9925    0.6530 C   0  0  0  0  0  0  0  0  0  0  0  0
   -2.7460   -0.0941    0.7477 C   0  0  0  0  0  0  0  0  0  0  0  0
   -3.2316    0.3675    1.9616 O   0  0  0  0  0  0  0  0  0  0  0  0
   -2.7709    0.0226    3.2270 C   0  0  0  0  0  0  0  0  0  0  0  0
   -0.1265   -2.3971   -0.7129 C   0  0  0  0  0  0  0  0  0  0  0  0
   -0.2663   -3.4832   -1.5720 C   0  0  0  0  0  0  0  0  0  0  0  0
    0.7066   -4.3914   -1.7608 N   0  0  0  0  0  0  0  0  0  0  0  0
    1.8897   -4.3089   -1.1259 C   0  0  0  0  0  0  0  0  0  0  0  0
    2.0778   -3.2515   -0.2642 C   0  0  0  0  0  0  0  0  0  0  0  0
    3.3400   -3.1628    0.4135 C   0  0  0  0  0  0  0  0  0  0  0  0
    4.3648   -3.1111    0.9647 N   0  0  0  0  0  0  0  0  0  0  0  0
    1.0787   -2.2950   -0.0529 C   0  0  0  0  0  0  0  0  0  0  0  0
    1.3285   -1.2354    0.8376 N   0  0  0  0  0  0  0  0  0  0  0  0
    1.8811    0.0084    0.4486 C   0  0  0  0  0  0  0  0  0  0  0  0
    2.1983    0.2067   -0.8783 C   0  0  0  0  0  0  0  0  0  0  0  0
    2.7396    1.4136   -1.2851 C   0  0  0  0  0  0  0  0  0  0  0  0
    2.9800    2.4475   -0.4014 C   0  0  0  0  0  0  0  0  0  0  0  0
    3.4864    3.6902   -0.5449 N   0  0  0  0  0  0  0  0  0  0  0  0
    3.5078    4.3044    0.6460 C   0  0  0  0  0  0  0  0  0  0  0  0
    2.9975    3.4141    1.5619 C   0  0  0  0  0  0  0  0  0  0  0  0
    2.6616    2.2444    0.9208 C   0  0  0  0  0  0  0  0  0  0  0  0
    2.1189    1.0356    1.3319 C   0  0  0  0  0  0  0  0  0  0  0  0
   -6.0796    2.1832   -1.1061 H   0  0  0  0  0  0  0  0  0  0  0  0
   -4.5136    2.7224   -1.7503 H   0  0  0  0  0  0  0  0  0  0  0  0
   -5.1937    1.1530   -2.2614 H   0  0  0  0  0  0  0  0  0  0  0  0
   -3.3603    0.3059   -2.5299 H   0  0  0  0  0  0  0  0  0  0  0  0
   -1.4775   -1.3104   -2.6629 H   0  0  0  0  0  0  0  0  0  0  0  0
   -1.2449   -1.3527    1.5542 H   0  0  0  0  0  0  0  0  0  0  0  0
   -3.3511   -0.7995    3.6966 H   0  0  0  0  0  0  0  0  0  0  0  0
   -2.8300    0.9577    3.8592 H   0  0  0  0  0  0  0  0  0  0  0  0
   -1.6885   -0.2106    3.1784 H   0  0  0  0  0  0  0  0  0  0  0  0
   -1.2317   -3.5557   -2.0938 H   0  0  0  0  0  0  0  0  0  0  0  0
    2.6562   -5.0627   -1.3027 H   0  0  0  0  0  0  0  0  0  0  0  0
    1.1066   -1.3467    1.8573 H   0  0  0  0  0  0  0  0  0  0  0  0
    2.0269   -0.5833   -1.6208 H   0  0  0  0  0  0  0  0  0  0  0  0
    2.9779    1.5411   -2.3289 H   0  0  0  0  0  0  0  0  0  0  0  0
    3.8045    4.0860   -1.4551 H   0  0  0  0  0  0  0  0  0  0  0  0
    3.8622    5.3243    0.8648 H   0  0  0  0  0  0  0  0  0  0  0  0
    2.8900    3.6297    2.6125 H   0  0  0  0  0  0  0  0  0  0  0  0
    1.8807    0.9062    2.3708 H   0  0  0  0  0  0  0  0  0  0  0  0
  1  2  1  0
  2  3  1  0
  3  4  2  0
  4  5  1  0
  5  6  2  0
  6  7  1  0
  7  8  2  0
  8  9  1  0
  9 10  1  0
  6 11  1  0
 11 12  2  0
 12 13  1  0
 13 14  2  0
 14 15  1  0
 15 16  1  0
 16 17  3  0
 15 18  2  0
 18 19  1  0
 19 20  1  0
 20 21  2  0
 21 22  1  0
 22 23  2  0
 23 24  1  0
 24 25  1  0
 25 26  2  0
 26 27  1  0
 27 28  2  0
  8  3  1  0
 18 11  1  0
 28 20  1  0
 27 23  1  0
  1 29  1  0
  1 30  1  0
  1 31  1  0
  4 32  1  0
  5 33  1  0
  7 34  1  0
 10 35  1  0
 10 36  1  0
 10 37  1  0
 12 38  1  0
 14 39  1  0
 19 40  1  0
 21 41  1  0
 22 42  1  0
 24 43  1  0
 25 44  1  0
 26 45  1  0
 28 46  1  0
M  END
$$$$
[H]OC(=O)[C@@]([H])(N([H])C(=O)C([H])([H])[C@]([H])(O[H])[C@@]([H])(N([H])C(=O)[C@@]([H])(N([H])C(=O)C([H])([H])C([H])(C([H])([H])[H])C([H])([H])[H])C([H])(C([H])([H])[H])C([H])([H])[H])C([H])([H])C([H])(C([H])([H])[H])C([H])([H])[H])[C@@]([H])(C([H])([H])[H])C([H])([H])C([H])([H])[H]
     RDKit          3D

 78 77  0  0  0  0  0  0  0  0999 V2000
    5.8694   -0.7690   -1.6130 C   0  0  0  0  0  0  0  0  0  0  0  0
    7.0318   -0.5351   -0.7146 C   0  0  0  0  0  0  0  0  0  0  0  0
    7.0481    0.8598   -0.1361 C   0  0  2  0  0  0  0  0  0  0  0  0
    8.3384    0.9766    0.7128 C   0  0  0  0  0  0  0  0  0  0  0  0
    5.9267    1.1166    0.8133 C   0  0  2  0  0  0  0  0  0  0  0  0
    4.6063    0.9799    0.2752 N   0  0  0  0  0  0  0  0  0  0  0  0
    3.5848    0.1570    0.8610 C   0  0  0  0  0  0  0  0  0  0  0  0
    3.8768   -0.4645    1.8999 O   0  0  0  0  0  0  0  0  0  0  0  0
    2.2410    0.0482    0.2565 C   0  0  0  0  0  0  0  0  0  0  0  0
    1.3566   -0.9675    0.9665 C   0  0  2  0  0  0  0  0  0  0  0  0
    1.9749   -2.2373    0.9064 O   0  0  0  0  0  0  0  0  0  0  0  0
    0.0085   -1.0600    0.3682 C   0  0  2  0  0  0  0  0  0  0  0  0
   -0.0388   -1.5230   -1.0751 C   0  0  0  0  0  0  0  0  0  0  0  0
    0.5039   -2.8741   -1.3493 C   0  0  0  0  0  0  0  0  0  0  0  0
   -0.1994   -3.9711   -0.5852 C   0  0  0  0  0  0  0  0  0  0  0  0
    0.1601   -3.1520   -2.8418 C   0  0  0  0  0  0  0  0  0  0  0  0
   -0.7124    0.2112    0.4646 N   0  0  0  0  0  0  0  0  0  0  0  0
   -2.1057    0.2251    0.7193 C   0  0  0  0  0  0  0  0  0  0  0  0
   -2.6867   -0.8951    0.8438 O   0  0  0  0  0  0  0  0  0  0  0  0
   -2.8950    1.5147    0.8409 C   0  0  1  0  0  0  0  0  0  0  0  0
   -4.1341    1.2619    0.2256 N   0  0  0  0  0  0  0  0  0  0  0  0
   -5.2936    1.0259   -0.3510 C   0  0  0  0  0  0  0  0  0  0  0  0
   -5.7351    1.5056   -1.4315 O   0  0  0  0  0  0  0  0  0  0  0  0
   -6.2754    0.0735    0.2987 C   0  0  0  0  0  0  0  0  0  0  0  0
   -7.5302   -0.0759   -0.5028 C   0  0  0  0  0  0  0  0  0  0  0  0
   -8.2498    1.2535   -0.6818 C   0  0  0  0  0  0  0  0  0  0  0  0
   -7.2907   -0.7001   -1.8568 C   0  0  0  0  0  0  0  0  0  0  0  0
   -2.9500    1.8020    2.3174 C   0  0  0  0  0  0  0  0  0  0  0  0
   -3.7158    3.0812    2.5731 C   0  0  0  0  0  0  0  0  0  0  0  0
   -3.4732    0.6623    3.1585 C   0  0  0  0  0  0  0  0  0  0  0  0
    6.0948    2.5040    1.3703 C   0  0  0  0  0  0  0  0  0  0  0  0
    7.2029    2.9638    2.0021 O   0  0  0  0  0  0  0  0  0  0  0  0
    5.1131    3.3049    1.2350 O   0  0  0  0  0  0  0  0  0  0  0  0
    5.4016    0.1377   -2.0403 H   0  0  0  0  0  0  0  0  0  0  0  0
    6.2087   -1.3384   -2.5579 H   0  0  0  0  0  0  0  0  0  0  0  0
    5.1093   -1.4673   -1.2011 H   0  0  0  0  0  0  0  0  0  0  0  0
    6.9207   -1.2524    0.1622 H   0  0  0  0  0  0  0  0  0  0  0  0
    8.0156   -0.7924   -1.1748 H   0  0  0  0  0  0  0  0  0  0  0  0
    7.1044    1.6560   -0.8930 H   0  0  0  0  0  0  0  0  0  0  0  0
    8.7700    1.9535    0.5424 H   0  0  0  0  0  0  0  0  0  0  0  0
    9.0857    0.2448    0.2686 H   0  0  0  0  0  0  0  0  0  0  0  0
    8.1591    0.7806    1.7576 H   0  0  0  0  0  0  0  0  0  0  0  0
    6.0332    0.4500    1.7160 H   0  0  0  0  0  0  0  0  0  0  0  0
    4.3456    1.5112   -0.5693 H   0  0  0  0  0  0  0  0  0  0  0  0
    2.3898   -0.3775   -0.7829 H   0  0  0  0  0  0  0  0  0  0  0  0
    1.7658    1.0164    0.1118 H   0  0  0  0  0  0  0  0  0  0  0  0
    1.2889   -0.7023    2.0148 H   0  0  0  0  0  0  0  0  0  0  0  0
    2.8621   -2.1705    0.5017 H   0  0  0  0  0  0  0  0  0  0  0  0
   -0.6129   -1.7859    0.9416 H   0  0  0  0  0  0  0  0  0  0  0  0
   -1.0591   -1.4543   -1.4913 H   0  0  0  0  0  0  0  0  0  0  0  0
    0.5865   -0.7872   -1.6580 H   0  0  0  0  0  0  0  0  0  0  0  0
    1.5777   -3.0159   -1.3004 H   0  0  0  0  0  0  0  0  0  0  0  0
   -0.6878   -4.6739   -1.2819 H   0  0  0  0  0  0  0  0  0  0  0  0
   -1.0173   -3.5322    0.0194 H   0  0  0  0  0  0  0  0  0  0  0  0
    0.5050   -4.5691    0.0509 H   0  0  0  0  0  0  0  0  0  0  0  0
    0.1082   -4.2453   -2.9504 H   0  0  0  0  0  0  0  0  0  0  0  0
   -0.8456   -2.7319   -3.0848 H   0  0  0  0  0  0  0  0  0  0  0  0
    0.9449   -2.7450   -3.4936 H   0  0  0  0  0  0  0  0  0  0  0  0
   -0.2184    1.1161    0.3484 H   0  0  0  0  0  0  0  0  0  0  0  0
   -2.2638    2.2685    0.3913 H   0  0  0  0  0  0  0  0  0  0  0  0
   -3.7701    2.0827   -0.7774 H   0  0  0  0  0  0  0  0  0  0  0  0
   -6.5418    0.4485    1.3063 H   0  0  0  0  0  0  0  0  0  0  0  0
   -5.8237   -0.9302    0.3870 H   0  0  0  0  0  0  0  0  0  0  0  0
   -8.2190   -0.7364    0.0568 H   0  0  0  0  0  0  0  0  0  0  0  0
   -7.7638    1.9845   -0.0036 H   0  0  0  0  0  0  0  0  0  0  0  0
   -8.2393    1.6008   -1.7384 H   0  0  0  0  0  0  0  0  0  0  0  0
   -9.3213    1.1941   -0.3886 H   0  0  0  0  0  0  0  0  0  0  0  0
   -7.5487    0.0232   -2.6782 H   0  0  0  0  0  0  0  0  0  0  0  0
   -7.9302   -1.5872   -2.0212 H   0  0  0  0  0  0  0  0  0  0  0  0
   -6.2435   -1.0837   -1.9597 H   0  0  0  0  0  0  0  0  0  0  0  0
   -1.9066    1.9834    2.6433 H   0  0  0  0  0  0  0  0  0  0  0  0
   -3.0062    3.9112    2.7682 H   0  0  0  0  0  0  0  0  0  0  0  0
   -4.3520    3.0072    3.4879 H   0  0  0  0  0  0  0  0  0  0  0  0
   -4.3594    3.3096    1.6986 H   0  0  0  0  0  0  0  0  0  0  0  0
   -4.1280    0.0174    2.5779 H   0  0  0  0  0  0  0  0  0  0  0  0
   -3.9808    1.0558    4.0917 H   0  0  0  0  0  0  0  0  0  0  0  0
   -2.6351    0.0386    3.5356 H   0  0  0  0  0  0  0  0  0  0  0  0
    7.6395    3.8839    1.8759 H   0  0  0  0  0  0  0  0  0  0  0  0
  1  2  1  0
  2  3  1  0
  3  4  1  0
  3  5  1  0
  5  6  1  0
  6  7  1  0
  7  8  2  0
  7  9  1  0
  9 10  1  0
 10 11  1  0
 10 12  1  0
 12 13  1  0
 13 14  1  0
 14 15  1  0
 14 16  1  0
 12 17  1  0
 17 18  1  0
 18 19  2  0
 18 20  1  0
 20 21  1  0
 21 22  1  0
 22 23  2  0
 22 24  1  0
 24 25  1  0
 25 26  1  0
 25 27  1  0
 20 28  1  0
 28 29  1  0
 28 30  1  0
  5 31  1  0
 31 32  1  0
 31 33  2  0
  1 34  1  0
  1 35  1  0
  1 36  1  0
  2 37  1  0
  2 38  1  0
  3 39  1  6
  4 40  1  0
  4 41  1  0
  4 42  1  0
  5 43  1  1
  6 44  1  0
  9 45  1  0
  9 46  1  0
 10 47  1  1
 11 48  1  0
 12 49  1  1
 13 50  1  0
 13 51  1  0
 14 52  1  0
 15 53  1  0
 15 54  1  0
 15 55  1  0
 16 56  1  0
 16 57  1  0
 16 58  1  0
 17 59  1  0
 20 60  1  6
 21 61  1  0
 24 62  1  0
 24 63  1  0
 25 64  1  0
 26 65  1  0
 26 66  1  0
 26 67  1  0
 27 68  1  0
 27 69  1  0
 27 70  1  0
 28 71  1  0
 29 72  1  0
 29 73  1  0
 29 74  1  0
 30 75  1  0
 30 76  1  0
 30 77  1  0
 32 78  1  0
M  END
$$$$
[H]c1c([H])c([H])c2c(c1[H])c1c3c(c4c5c([H])c([H])c([H])c([H])c5n5c4c1n2[C@@]1(C([H])([H])[H])O[C@]5([H])C([H])([H])[C@]([H])(N([H])C([H])([H])[H])[C@]1([H])OC([H])([H])[H])C(=O)N([H])C3([H])[H]
     RDKit          3D

 61 68  0  0  0  0  0  0  0  0999 V2000
   -4.0469   -1.7704    1.7208 C   0  0  0  0  0  0  0  0  0  0  0  0
   -2.8051   -1.1267    1.8532 N   0  0  0  0  0  0  0  0  0  0  0  0
   -2.0631   -0.7295    0.7453 C   0  0  1  0  0  0  0  0  0  0  0  0
   -1.6837   -1.8762   -0.1711 C   0  0  0  0  0  0  0  0  0  0  0  0
   -0.8984   -1.4098   -1.3642 C   0  0  1  0  0  0  0  0  0  0  0  0
   -1.1746   -0.2090   -1.8664 O   0  0  0  0  0  0  0  0  0  0  0  0
   -1.4577    0.8633   -1.0142 C   0  0  1  0  0  0  0  0  0  0  0  0
   -2.0247    1.8974   -1.9699 C   0  0  0  0  0  0  0  0  0  0  0  0
   -2.5753    0.3728   -0.1181 C   0  0  1  0  0  0  0  0  0  0  0  0
   -3.5198   -0.1711   -0.9735 O   0  0  0  0  0  0  0  0  0  0  0  0
   -4.7628    0.3638   -0.9969 C   0  0  0  0  0  0  0  0  0  0  0  0
   -0.2701    1.3169   -0.3284 N   0  0  0  0  0  0  0  0  0  0  0  0
   -0.0959    2.5647    0.1722 C   0  0  0  0  0  0  0  0  0  0  0  0
   -0.9035    3.6566    0.2781 C   0  0  0  0  0  0  0  0  0  0  0  0
   -0.4867    4.8568    0.8587 C   0  0  0  0  0  0  0  0  0  0  0  0
    0.7815    4.9813    1.3559 C   0  0  0  0  0  0  0  0  0  0  0  0
    1.6018    3.8897    1.2562 C   0  0  0  0  0  0  0  0  0  0  0  0
    1.2013    2.7011    0.6855 C   0  0  0  0  0  0  0  0  0  0  0  0
    1.8231    1.4953    0.4914 C   0  0  0  0  0  0  0  0  0  0  0  0
    3.0935    1.0534    0.7971 C   0  0  0  0  0  0  0  0  0  0  0  0
    4.2347    1.7462    1.4443 C   0  0  0  0  0  0  0  0  0  0  0  0
    5.2812    0.7805    1.4850 N   0  0  0  0  0  0  0  0  0  0  0  0
    4.8379   -0.4605    0.9036 C   0  0  0  0  0  0  0  0  0  0  0  0
    5.5848   -1.4446    0.8345 O   0  0  0  0  0  0  0  0  0  0  0  0
    3.4679   -0.2585    0.4835 C   0  0  0  0  0  0  0  0  0  0  0  0
    2.5253   -1.0802   -0.1335 C   0  0  0  0  0  0  0  0  0  0  0  0
    2.5255   -2.4091   -0.5522 C   0  0  0  0  0  0  0  0  0  0  0  0
    3.4661   -3.3824   -0.5335 C   0  0  0  0  0  0  0  0  0  0  0  0
    3.1394   -4.6508   -1.0457 C   0  0  0  0  0  0  0  0  0  0  0  0
    1.8931   -4.8946   -1.5532 C   0  0  0  0  0  0  0  0  0  0  0  0
    0.9234   -3.9194   -1.5814 C   0  0  0  0  0  0  0  0  0  0  0  0
    1.2579   -2.6757   -1.0743 C   0  0  0  0  0  0  0  0  0  0  0  0
    0.5170   -1.5633   -0.9812 N   0  0  0  0  0  0  0  0  0  0  0  0
    1.2574   -0.6011   -0.4262 C   0  0  0  0  0  0  0  0  0  0  0  0
    0.9293    0.6883   -0.1091 C   0  0  0  0  0  0  0  0  0  0  0  0
   -4.8662   -1.0159    1.9108 H   0  0  0  0  0  0  0  0  0  0  0  0
   -4.1813   -2.6236    2.4398 H   0  0  0  0  0  0  0  0  0  0  0  0
   -4.2705   -2.2084    0.7307 H   0  0  0  0  0  0  0  0  0  0  0  0
   -2.8232   -0.4664    2.6590 H   0  0  0  0  0  0  0  0  0  0  0  0
   -1.0753   -0.3131    1.1783 H   0  0  0  0  0  0  0  0  0  0  0  0
   -1.0881   -2.5934    0.4138 H   0  0  0  0  0  0  0  0  0  0  0  0
   -2.6116   -2.3396   -0.5348 H   0  0  0  0  0  0  0  0  0  0  0  0
   -1.0616   -2.1696   -2.1624 H   0  0  0  0  0  0  0  0  0  0  0  0
   -2.9480    2.3656   -1.6768 H   0  0  0  0  0  0  0  0  0  0  0  0
   -1.2023    2.6448   -2.1814 H   0  0  0  0  0  0  0  0  0  0  0  0
   -2.2291    1.4720   -2.9983 H   0  0  0  0  0  0  0  0  0  0  0  0
   -3.0338    1.1533    0.4695 H   0  0  0  0  0  0  0  0  0  0  0  0
   -5.2481    0.3628   -0.0036 H   0  0  0  0  0  0  0  0  0  0  0  0
   -4.9197    1.3034   -1.5454 H   0  0  0  0  0  0  0  0  0  0  0  0
   -5.3837   -0.3816   -1.6336 H   0  0  0  0  0  0  0  0  0  0  0  0
   -1.9195    3.5996   -0.0805 H   0  0  0  0  0  0  0  0  0  0  0  0
   -1.1927    5.6764    0.9018 H   0  0  0  0  0  0  0  0  0  0  0  0
    1.1278    5.9226    1.8176 H   0  0  0  0  0  0  0  0  0  0  0  0
    2.6056    3.9573    1.6392 H   0  0  0  0  0  0  0  0  0  0  0  0
    4.5809    2.6270    0.8499 H   0  0  0  0  0  0  0  0  0  0  0  0
    3.9928    2.1189    2.4526 H   0  0  0  0  0  0  0  0  0  0  0  0
    6.2242    0.9648    1.8822 H   0  0  0  0  0  0  0  0  0  0  0  0
    4.4453   -3.2357   -0.1500 H   0  0  0  0  0  0  0  0  0  0  0  0
    3.9157   -5.4107   -1.0164 H   0  0  0  0  0  0  0  0  0  0  0  0
    1.6559   -5.8901   -1.9485 H   0  0  0  0  0  0  0  0  0  0  0  0
   -0.0671   -4.1156   -1.9855 H   0  0  0  0  0  0  0  0  0  0  0  0
  1  2  1  0
  2  3  1  0
  3  4  1  0
  4  5  1  0
  5  6  1  0
  6  7  1  0
  7  8  1  6
  7  9  1  0
  9 10  1  0
 10 11  1  0
  7 12  1  0
 12 13  1  0
 13 14  2  0
 14 15  1  0
 15 16  2  0
 16 17  1  0
 17 18  2  0
 18 19  1  0
 19 20  2  0
 20 21  1  0
 21 22  1  0
 22 23  1  0
 23 24  2  0
 23 25  1  0
 25 26  2  0
 26 27  1  0
 27 28  2  0
 28 29  1  0
 29 30  2  0
 30 31  1  0
 31 32  2  0
 32 33  1  0
 33 34  1  0
 34 35  2  0
  9  3  1  0
 35 12  1  0
 33  5  1  0
 18 13  1  0
 35 19  1  0
 25 20  1  0
 34 26  1  0
 32 27  1  0
  1 36  1  0
  1 37  1  0
  1 38  1  0
  2 39  1  0
  3 40  1  1
  4 41  1  0
  4 42  1  0
  5 43  1  6
  8 44  1  0
  8 45  1  0
  8 46  1  0
  9 47  1  1
 11 48  1  0
 11 49  1  0
 11 50  1  0
 14 51  1  0
 15 52  1  0
 16 53  1  0
 17 54  1  0
 21 55  1  0
 21 56  1  0
 22 57  1  0
 28 58  1  0
 29 59  1  0
 30 60  1  0
 31 61  1  0
M  END
$$$$
[H]O[C@]1([H])C([H])([H])C([H])([H])[C@@]([H])(N([H])C(=O)c2c([H])c(OC([H])([H])[H])c(OC([H])([H])[H])c(OC([H])([H])[H])c2[H])C([H])([H])C1([H])[H]
     RDKit          3D

 45 46  0  0  0  0  0  0  0  0999 V2000
   -3.8004    0.1076    3.6393 C   0  0  0  0  0  0  0  0  0  0  0  0
   -4.3238    0.0032    2.3304 O   0  0  0  0  0  0  0  0  0  0  0  0
   -3.4096   -0.0633    1.2765 C   0  0  0  0  0  0  0  0  0  0  0  0
   -2.0511   -0.0293    1.4916 C   0  0  0  0  0  0  0  0  0  0  0  0
   -1.1506   -0.0971    0.4219 C   0  0  0  0  0  0  0  0  0  0  0  0
   -1.6854   -0.1976   -0.8327 C   0  0  0  0  0  0  0  0  0  0  0  0
   -3.0702   -0.2323   -1.0523 C   0  0  0  0  0  0  0  0  0  0  0  0
   -3.5944   -0.3346   -2.3332 O   0  0  0  0  0  0  0  0  0  0  0  0
   -2.6935   -0.4035   -3.4174 C   0  0  0  0  0  0  0  0  0  0  0  0
   -3.9511   -0.1652    0.0039 C   0  0  0  0  0  0  0  0  0  0  0  0
   -5.3305   -0.1965   -0.1714 O   0  0  0  0  0  0  0  0  0  0  0  0
   -6.0589    1.0142   -0.3534 C   0  0  0  0  0  0  0  0  0  0  0  0
    0.2822   -0.0571    0.6960 C   0  0  0  0  0  0  0  0  0  0  0  0
    0.6952    0.0648    1.8917 O   0  0  0  0  0  0  0  0  0  0  0  0
    1.2175   -0.1523   -0.3526 N   0  0  0  0  0  0  0  0  0  0  0  0
    2.6140   -0.1123   -0.0772 C   0  0  1  0  0  0  0  0  0  0  0  0
    3.3204   -1.4112   -0.4752 C   0  0  0  0  0  0  0  0  0  0  0  0
    4.6768   -1.3618    0.2052 C   0  0  0  0  0  0  0  0  0  0  0  0
    5.4785   -0.1695   -0.1929 C   0  0  2  0  0  0  0  0  0  0  0  0
    6.4968   -0.0141    0.7775 O   0  0  0  0  0  0  0  0  0  0  0  0
    4.7177    1.1076   -0.2396 C   0  0  0  0  0  0  0  0  0  0  0  0
    3.3386    0.9988   -0.7945 C   0  0  0  0  0  0  0  0  0  0  0  0
   -3.1286   -0.7741    3.7812 H   0  0  0  0  0  0  0  0  0  0  0  0
   -3.1426    1.0122    3.6544 H   0  0  0  0  0  0  0  0  0  0  0  0
   -4.5735    0.1666    4.4065 H   0  0  0  0  0  0  0  0  0  0  0  0
   -1.6369    0.0502    2.4847 H   0  0  0  0  0  0  0  0  0  0  0  0
   -1.0400   -0.2530   -1.6958 H   0  0  0  0  0  0  0  0  0  0  0  0
   -2.0954    0.5371   -3.4716 H   0  0  0  0  0  0  0  0  0  0  0  0
   -1.9790   -1.2496   -3.3343 H   0  0  0  0  0  0  0  0  0  0  0  0
   -3.3068   -0.5311   -4.3501 H   0  0  0  0  0  0  0  0  0  0  0  0
   -6.2735    1.4267    0.6704 H   0  0  0  0  0  0  0  0  0  0  0  0
   -7.0238    0.8572   -0.8419 H   0  0  0  0  0  0  0  0  0  0  0  0
   -5.4461    1.7867   -0.8573 H   0  0  0  0  0  0  0  0  0  0  0  0
    0.8947   -0.2520   -1.3267 H   0  0  0  0  0  0  0  0  0  0  0  0
    2.8017   -0.0018    1.0138 H   0  0  0  0  0  0  0  0  0  0  0  0
    2.7709   -2.2776   -0.0476 H   0  0  0  0  0  0  0  0  0  0  0  0
    3.4085   -1.4385   -1.5705 H   0  0  0  0  0  0  0  0  0  0  0  0
    4.4844   -1.3738    1.3050 H   0  0  0  0  0  0  0  0  0  0  0  0
    5.2623   -2.2820   -0.0320 H   0  0  0  0  0  0  0  0  0  0  0  0
    6.0119   -0.4055   -1.1426 H   0  0  0  0  0  0  0  0  0  0  0  0
    6.0864    0.5270    1.4977 H   0  0  0  0  0  0  0  0  0  0  0  0
    5.2979    1.8283   -0.8871 H   0  0  0  0  0  0  0  0  0  0  0  0
    4.6941    1.5950    0.7666 H   0  0  0  0  0  0  0  0  0  0  0  0
    3.4170    0.8034   -1.8900 H   0  0  0  0  0  0  0  0  0  0  0  0
    2.7983    1.9503   -0.5742 H   0  0  0  0  0  0  0  0  0  0  0  0
  1  2  1  0
  2  3  1  0
  3  4  2  0
  4  5  1  0
  5  6  2  0
  6  7  1  0
  7  8  1  0
  8  9  1  0
  7 10  2  0
 10 11  1  0
 11 12  1  0
  5 13  1  0
 13 14  2  0
 13 15  1  0
 15 16  1  0
 16 17  1  0
 17 18  1  0
 18 19  1  0
 19 20  1  0
 19 21  1  0
 21 22  1  0
 10  3  1  0
 22 16  1  0
  1 23  1  0
  1 24  1  0
  1 25  1  0
  4 26  1  0
  6 27  1  0
  9 28  1  0
  9 29  1  0
  9 30  1  0
 12 31  1  0
 12 32  1  0
 12 33  1  0
 15 34  1  0
 16 35  1  1
 17 36  1  0
 17 37  1  0
 18 38  1  0
 18 39  1  0
 19 40  1  6
 20 41  1  0
 21 42  1  0
 21 43  1  0
 22 44  1  0
 22 45  1  0
M  END
$$$$
[H]c1c([H])c([H])c2c(c1[H])c1c3c(c4c5c([H])c([H])c([H])c([H])c5n5c4c1n2[C@@]1([H])O[C@@]5(C([H])([H])[H])[C@@]([H])(N([H])C([H])([H])[H])C1([H])[H])C([H])([H])N([H])C3=O
     RDKit          2D

 54 61  0  0  0  0  0  0  0  0999 V2000
    3.8173    0.5402    0.0000 C   0  0  0  0  0  0  0  0  0  0  0  0
    2.3907    1.0037    0.0000 N   0  0  0  0  0  0  0  0  0  0  0  0
    1.2760    0.0000    0.0000 C   0  0  0  0  0  0  0  0  0  0  0  0
    0.3943    1.2135    0.0000 C   0  0  0  0  0  0  0  0  0  0  0  0
   -1.0323    0.7500    0.0000 C   0  0  0  0  0  0  0  0  0  0  0  0
   -1.0323   -0.7500    0.0000 O   0  0  0  0  0  0  0  0  0  0  0  0
    0.3943   -1.2135    0.0000 C   0  0  0  0  0  0  0  0  0  0  0  0
    0.8578   -2.6401    0.0000 C   0  0  0  0  0  0  0  0  0  0  0  0
   -0.5926   -2.3431    0.0000 N   0  0  0  0  0  0  0  0  0  0  0  0
   -0.1936   -3.7891    0.0000 C   0  0  0  0  0  0  0  0  0  0  0  0
    1.1480   -4.4600    0.0000 C   0  0  0  0  0  0  0  0  0  0  0  0
    1.2377   -5.9574    0.0000 C   0  0  0  0  0  0  0  0  0  0  0  0
   -0.0141   -6.7837    0.0000 C   0  0  0  0  0  0  0  0  0  0  0  0
   -1.3557   -6.1127    0.0000 C   0  0  0  0  0  0  0  0  0  0  0  0
   -1.4454   -4.6154    0.0000 C   0  0  0  0  0  0  0  0  0  0  0  0
   -2.6182   -3.6802    0.0000 C   0  0  0  0  0  0  0  0  0  0  0  0
   -4.1997   -3.7135    0.0000 C   0  0  0  0  0  0  0  0  0  0  0  0
   -5.0814   -4.9270    0.0000 C   0  0  0  0  0  0  0  0  0  0  0  0
   -6.5080   -4.4635    0.0000 N   0  0  0  0  0  0  0  0  0  0  0  0
   -6.5080   -2.9635    0.0000 C   0  0  0  0  0  0  0  0  0  0  0  0
   -7.7215   -2.0818    0.0000 O   0  0  0  0  0  0  0  0  0  0  0  0
   -5.0814   -2.4999    0.0000 C   0  0  0  0  0  0  0  0  0  0  0  0
   -4.4713   -1.1296    0.0000 C   0  0  0  0  0  0  0  0  0  0  0  0
   -4.9983    0.2747    0.0000 C   0  0  0  0  0  0  0  0  0  0  0  0
   -6.3946    0.8228    0.0000 C   0  0  0  0  0  0  0  0  0  0  0  0
   -6.6182    2.3060    0.0000 C   0  0  0  0  0  0  0  0  0  0  0  0
   -5.4455    3.2412    0.0000 C   0  0  0  0  0  0  0  0  0  0  0  0
   -4.0491    2.6932    0.0000 C   0  0  0  0  0  0  0  0  0  0  0  0
   -3.8256    1.2100    0.0000 C   0  0  0  0  0  0  0  0  0  0  0  0
   -2.5737    0.3836    0.0000 N   0  0  0  0  0  0  0  0  0  0  0  0
   -2.9728   -1.0623    0.0000 C   0  0  0  0  0  0  0  0  0  0  0  0
   -2.0911   -2.2758    0.0000 C   0  0  0  0  0  0  0  0  0  0  0  0
    5.2439    0.0766    0.0000 H   0  0  0  0  0  0  0  0  0  0  0  0
    4.2808    1.9668    0.0000 H   0  0  0  0  0  0  0  0  0  0  0  0
    3.3538   -0.8864    0.0000 H   0  0  0  0  0  0  0  0  0  0  0  0
    2.2848    2.2141    0.0000 H   0  0  0  0  0  0  0  0  0  0  0  0
    2.3907   -1.0037    0.0000 H   0  0  0  0  0  0  0  0  0  0  0  0
   -0.2158    2.5838    0.0000 H   0  0  0  0  0  0  0  0  0  0  0  0
    1.3646    1.9448    0.0000 H   0  0  0  0  0  0  0  0  0  0  0  0
   -2.2458    1.6317    0.0000 H   0  0  0  0  0  0  0  0  0  0  0  0
    1.5017   -3.6705    0.0000 H   0  0  0  0  0  0  0  0  0  0  0  0
    2.2844   -2.1766    0.0000 H   0  0  0  0  0  0  0  0  0  0  0  0
    0.3041   -3.2136    0.0000 H   0  0  0  0  0  0  0  0  0  0  0  0
    2.3999   -3.6337    0.0000 H   0  0  0  0  0  0  0  0  0  0  0  0
    2.5793   -6.6283    0.0000 H   0  0  0  0  0  0  0  0  0  0  0  0
    0.0756   -8.2810    0.0000 H   0  0  0  0  0  0  0  0  0  0  0  0
   -2.6076   -6.9391    0.0000 H   0  0  0  0  0  0  0  0  0  0  0  0
   -3.7823   -5.6770    0.0000 H   0  0  0  0  0  0  0  0  0  0  0  0
   -5.6915   -6.2973    0.0000 H   0  0  0  0  0  0  0  0  0  0  0  0
   -7.7215   -5.3451    0.0000 H   0  0  0  0  0  0  0  0  0  0  0  0
   -7.5674   -0.1125    0.0000 H   0  0  0  0  0  0  0  0  0  0  0  0
   -8.0145    2.8540    0.0000 H   0  0  0  0  0  0  0  0  0  0  0  0
   -5.6690    4.7245    0.0000 H   0  0  0  0  0  0  0  0  0  0  0  0
   -2.8764    3.6285    0.0000 H   0  0  0  0  0  0  0  0  0  0  0  0
  1  2  1  0
  2  3  1  0
  3  4  1  0
  4  5  1  0
  5  6  1  0
  6  7  1  0
  7  8  1  6
  7  9  1  0
  9 10  1  0
 10 11  2  0
 11 12  1  0
 12 13  2  0
 13 14  1  0
 14 15  2  0
 15 16  1  0
 16 17  2  0
 17 18  1  0
 18 19  1  0
 19 20  1  0
 20 21  2  0
 20 22  1  0
 22 23  2  0
 23 24  1  0
 24 25  2  0
 25 26  1  0
 26 27  2  0
 27 28  1  0
 28 29  2  0
 29 30  1  0
 30 31  1  0
 31 32  2  0
  7  3  1  0
 32  9  1  0
 30  5  1  0
 15 10  1  0
 32 16  1  0
 22 17  1  0
 31 23  1  0
 29 24  1  0
  1 33  1  0
  1 34  1  0
  1 35  1  0
  2 36  1  0
  3 37  1  1
  4 38  1  0
  4 39  1  0
  5 40  1  1
  8 41  1  0
  8 42  1  0
  8 43  1  0
 11 44  1  0
 12 45  1  0
 13 46  1  0
 14 47  1  0
 18 48  1  0
 18 49  1  0
 19 50  1  0
 25 51  1  0
 26 52  1  0
 27 53  1  0
 28 54  1  0
M  END
$$$$
[H]c1nc2c(c([H])c1[H])c(C1=C(c3nc(N4C([H])([H])C([H])([H])N(C([H])([H])[H])C([H])([H])C4([H])[H])nc4c([H])c([H])c(F)c([H])c34)C(=O)N([H])C1=O)c([H])n2[H]
     RDKit          3D

 54 59  0  0  0  0  0  0  0  0999 V2000
   -6.8338    0.9889   -1.5444 C   0  0  0  0  0  0  0  0  0  0  0  0
   -5.6328    0.7898   -0.8165 N   0  0  0  0  0  0  0  0  0  0  0  0
   -4.5762    1.6857   -1.0411 C   0  0  0  0  0  0  0  0  0  0  0  0
   -3.2677    1.0885   -1.4646 C   0  0  0  0  0  0  0  0  0  0  0  0
   -3.0240   -0.1362   -0.7131 N   0  0  0  0  0  0  0  0  0  0  0  0
   -4.0653   -1.1281   -0.7459 C   0  0  0  0  0  0  0  0  0  0  0  0
   -5.3640   -0.5124   -0.3619 C   0  0  0  0  0  0  0  0  0  0  0  0
   -1.8023   -0.2696   -0.0109 C   0  0  0  0  0  0  0  0  0  0  0  0
   -0.8598    0.6804   -0.0149 N   0  0  0  0  0  0  0  0  0  0  0  0
    0.3112    0.5338    0.6694 C   0  0  0  0  0  0  0  0  0  0  0  0
    1.3095    1.5852    0.6620 C   0  0  0  0  0  0  0  0  0  0  0  0
    2.5250    1.5622    0.1204 C   0  0  0  0  0  0  0  0  0  0  0  0
    3.1468    2.8486    0.3789 C   0  0  0  0  0  0  0  0  0  0  0  0
    4.3100    3.2098    0.0154 O   0  0  0  0  0  0  0  0  0  0  0  0
    2.2433    3.6581    1.1098 N   0  0  0  0  0  0  0  0  0  0  0  0
    1.0753    2.8785    1.2993 C   0  0  0  0  0  0  0  0  0  0  0  0
    0.0582    3.2962    1.9176 O   0  0  0  0  0  0  0  0  0  0  0  0
    3.1108    0.4637   -0.6722 C   0  0  0  0  0  0  0  0  0  0  0  0
    2.4723   -0.2037   -1.7196 C   0  0  0  0  0  0  0  0  0  0  0  0
    3.2970   -1.1521   -2.1960 N   0  0  0  0  0  0  0  0  0  0  0  0
    4.4622   -1.1469   -1.5087 C   0  0  0  0  0  0  0  0  0  0  0  0
    5.5767   -1.8908   -1.5970 N   0  0  0  0  0  0  0  0  0  0  0  0
    6.6396   -1.7275   -0.7959 C   0  0  0  0  0  0  0  0  0  0  0  0
    6.5551   -0.7394    0.1567 C   0  0  0  0  0  0  0  0  0  0  0  0
    5.4228    0.0438    0.2739 C   0  0  0  0  0  0  0  0  0  0  0  0
    4.3390   -0.1338   -0.5563 C   0  0  0  0  0  0  0  0  0  0  0  0
    0.5168   -0.6132    1.3754 C   0  0  0  0  0  0  0  0  0  0  0  0
    1.6360   -0.8731    2.1276 C   0  0  0  0  0  0  0  0  0  0  0  0
    1.8007   -2.0561    2.8561 C   0  0  0  0  0  0  0  0  0  0  0  0
    2.9129   -2.2955    3.5920 F   0  0  0  0  0  0  0  0  0  0  0  0
    0.8155   -3.0052    2.8314 C   0  0  0  0  0  0  0  0  0  0  0  0
   -0.3182   -2.7877    2.0974 C   0  0  0  0  0  0  0  0  0  0  0  0
   -0.4582   -1.6196    1.3910 C   0  0  0  0  0  0  0  0  0  0  0  0
   -1.5785   -1.3882    0.6869 N   0  0  0  0  0  0  0  0  0  0  0  0
   -7.6787    1.0261   -0.8073 H   0  0  0  0  0  0  0  0  0  0  0  0
   -7.0647    0.0938   -2.1946 H   0  0  0  0  0  0  0  0  0  0  0  0
   -6.8543    1.8832   -2.1745 H   0  0  0  0  0  0  0  0  0  0  0  0
   -4.8821    2.4330   -1.8109 H   0  0  0  0  0  0  0  0  0  0  0  0
   -4.3902    2.2855   -0.1146 H   0  0  0  0  0  0  0  0  0  0  0  0
   -3.2341    0.8421   -2.5593 H   0  0  0  0  0  0  0  0  0  0  0  0
   -2.4762    1.8461   -1.2960 H   0  0  0  0  0  0  0  0  0  0  0  0
   -4.1625   -1.4749   -1.8107 H   0  0  0  0  0  0  0  0  0  0  0  0
   -3.8574   -1.9889   -0.0664 H   0  0  0  0  0  0  0  0  0  0  0  0
   -6.1740   -1.1909   -0.7310 H   0  0  0  0  0  0  0  0  0  0  0  0
   -5.4467   -0.5309    0.7631 H   0  0  0  0  0  0  0  0  0  0  0  0
    2.4214    4.6535    1.4432 H   0  0  0  0  0  0  0  0  0  0  0  0
    1.4745    0.0336   -2.0630 H   0  0  0  0  0  0  0  0  0  0  0  0
    3.1180   -1.8340   -2.9905 H   0  0  0  0  0  0  0  0  0  0  0  0
    7.5405   -2.3492   -0.8880 H   0  0  0  0  0  0  0  0  0  0  0  0
    7.3848   -0.5610    0.8348 H   0  0  0  0  0  0  0  0  0  0  0  0
    5.3433    0.8176    1.0328 H   0  0  0  0  0  0  0  0  0  0  0  0
    2.4236   -0.1205    2.1849 H   0  0  0  0  0  0  0  0  0  0  0  0
    0.8706   -3.9535    3.3716 H   0  0  0  0  0  0  0  0  0  0  0  0
   -1.1119   -3.5449    2.0744 H   0  0  0  0  0  0  0  0  0  0  0  0
  1  2  1  0
  2  3  1  0
  3  4  1  0
  4  5  1  0
  5  6  1  0
  6  7  1  0
  5  8  1  0
  8  9  2  0
  9 10  1  0
 10 11  1  0
 11 12  2  0
 12 13  1  0
 13 14  2  0
 13 15  1  0
 15 16  1  0
 16 17  2  0
 12 18  1  0
 18 19  2  0
 19 20  1  0
 20 21  1  0
 21 22  2  0
 22 23  1  0
 23 24  2  0
 24 25  1  0
 25 26  2  0
 10 27  2  0
 27 28  1  0
 28 29  2  0
 29 30  1  0
 29 31  1  0
 31 32  2  0
 32 33  1  0
 33 34  2  0
  7  2  1  0
 34  8  1  0
 16 11  1  0
 26 18  1  0
 33 27  1  0
 26 21  1  0
  1 35  1  0
  1 36  1  0
  1 37  1  0
  3 38  1  0
  3 39  1  0
  4 40  1  0
  4 41  1  0
  6 42  1  0
  6 43  1  0
  7 44  1  0
  7 45  1  0
 15 46  1  0
 19 47  1  0
 20 48  1  0
 23 49  1  0
 24 50  1  0
 25 51  1  0
 28 52  1  0
 31 53  1  0
 32 54  1  0
M  END
$$$$
[H]O[C@@]1([H])C([H])([H])C([H])([H])[C@]2([H])[C@]1(C([H])([H])[H])C([H])([H])C([H])([H])[C@]1([H])[C@]3(C([H])([H])[H])C(=C([H])C(=O)C([H])([H])C3([H])[H])C([H])([H])C([H])([H])[C@@]21[H]
     RDKit          3D

 49 52  0  0  0  0  0  0  0  0999 V2000
    2.6003    1.3949    0.7370 C   0  0  0  0  0  0  0  0  0  0  0  0
    2.3315    0.4990   -0.4424 C   0  0  2  0  0  0  0  0  0  0  0  0
    1.5103    1.1614   -1.4949 C   0  0  0  0  0  0  0  0  0  0  0  0
    0.1483    1.4556   -0.9170 C   0  0  0  0  0  0  0  0  0  0  0  0
   -0.5369    0.1560   -0.5507 C   0  0  1  0  0  0  0  0  0  0  0  0
    0.2754   -0.6369    0.4710 C   0  0  1  0  0  0  0  0  0  0  0  0
   -0.3169   -2.0384    0.5263 C   0  0  0  0  0  0  0  0  0  0  0  0
   -1.7749   -2.0482    0.8169 C   0  0  0  0  0  0  0  0  0  0  0  0
   -2.5405   -0.9871    0.1457 C   0  0  0  0  0  0  0  0  0  0  0  0
   -3.7658   -1.2727   -0.2625 C   0  0  0  0  0  0  0  0  0  0  0  0
   -4.6079   -0.3042   -0.9341 C   0  0  0  0  0  0  0  0  0  0  0  0
   -5.6066   -0.6232   -1.6118 O   0  0  0  0  0  0  0  0  0  0  0  0
   -4.2087    1.1393   -0.7699 C   0  0  0  0  0  0  0  0  0  0  0  0
   -2.7163    1.1869   -1.0278 C   0  0  0  0  0  0  0  0  0  0  0  0
   -1.9296    0.3620   -0.0560 C   0  0  2  0  0  0  0  0  0  0  0  0
   -1.9459    1.0713    1.2829 C   0  0  0  0  0  0  0  0  0  0  0  0
    1.6457   -0.7900   -0.0472 C   0  0  2  0  0  0  0  0  0  0  0  0
    2.6444   -1.3862    0.8737 C   0  0  0  0  0  0  0  0  0  0  0  0
    3.9631   -1.0731    0.1623 C   0  0  0  0  0  0  0  0  0  0  0  0
    3.6050   -0.1289   -0.9688 C   0  0  2  0  0  0  0  0  0  0  0  0
    4.5812    0.7519   -1.2889 O   0  0  0  0  0  0  0  0  0  0  0  0
    3.6756    1.2716    1.0471 H   0  0  0  0  0  0  0  0  0  0  0  0
    1.9625    1.2047    1.6015 H   0  0  0  0  0  0  0  0  0  0  0  0
    2.4819    2.4492    0.4115 H   0  0  0  0  0  0  0  0  0  0  0  0
    1.9872    2.1545   -1.7263 H   0  0  0  0  0  0  0  0  0  0  0  0
    1.4562    0.5158   -2.3781 H   0  0  0  0  0  0  0  0  0  0  0  0
   -0.4734    1.9510   -1.6671 H   0  0  0  0  0  0  0  0  0  0  0  0
    0.2714    2.1214   -0.0498 H   0  0  0  0  0  0  0  0  0  0  0  0
   -0.5888   -0.4547   -1.4753 H   0  0  0  0  0  0  0  0  0  0  0  0
    0.1940   -0.1895    1.4684 H   0  0  0  0  0  0  0  0  0  0  0  0
   -0.0876   -2.5040   -0.4691 H   0  0  0  0  0  0  0  0  0  0  0  0
    0.2474   -2.5825    1.3004 H   0  0  0  0  0  0  0  0  0  0  0  0
   -2.1698   -3.0559    0.5263 H   0  0  0  0  0  0  0  0  0  0  0  0
   -1.9002   -2.0016    1.9294 H   0  0  0  0  0  0  0  0  0  0  0  0
   -4.1853   -2.2671   -0.1012 H   0  0  0  0  0  0  0  0  0  0  0  0
   -4.4637    1.4087    0.2637 H   0  0  0  0  0  0  0  0  0  0  0  0
   -4.7180    1.7173   -1.5432 H   0  0  0  0  0  0  0  0  0  0  0  0
   -2.5697    0.8169   -2.0700 H   0  0  0  0  0  0  0  0  0  0  0  0
   -2.4147    2.2480   -0.9356 H   0  0  0  0  0  0  0  0  0  0  0  0
   -2.6695    1.9362    1.2729 H   0  0  0  0  0  0  0  0  0  0  0  0
   -2.2828    0.4031    2.1004 H   0  0  0  0  0  0  0  0  0  0  0  0
   -0.9566    1.5164    1.5155 H   0  0  0  0  0  0  0  0  0  0  0  0
    1.6091   -1.4204   -0.9702 H   0  0  0  0  0  0  0  0  0  0  0  0
    2.6340   -0.7940    1.8359 H   0  0  0  0  0  0  0  0  0  0  0  0
    2.5188   -2.4554    1.0564 H   0  0  0  0  0  0  0  0  0  0  0  0
    4.3735   -2.0337   -0.2265 H   0  0  0  0  0  0  0  0  0  0  0  0
    4.6899   -0.6220    0.8558 H   0  0  0  0  0  0  0  0  0  0  0  0
    3.3380   -0.7531   -1.8418 H   0  0  0  0  0  0  0  0  0  0  0  0
    4.6855    1.5297   -0.7163 H   0  0  0  0  0  0  0  0  0  0  0  0
  2  1  1  1
  2  3  1  0
  3  4  1  0
  4  5  1  0
  5  6  1  0
  6  7  1  0
  7  8  1  0
  8  9  1  0
  9 10  2  0
 10 11  1  0
 11 12  2  0
 11 13  1  0
 13 14  1  0
 14 15  1  0
 15 16  1  1
  6 17  1  0
 17 18  1  0
 18 19  1  0
 19 20  1  0
 20 21  1  0
 17  2  1  0
 20  2  1  0
 15  5  1  0
 15  9  1  0
  1 22  1  0
  1 23  1  0
  1 24  1  0
  3 25  1  0
  3 26  1  0
  4 27  1  0
  4 28  1  0
  5 29  1  6
  6 30  1  1
  7 31  1  0
  7 32  1  0
  8 33  1  0
  8 34  1  0
 10 35  1  0
 13 36  1  0
 13 37  1  0
 14 38  1  0
 14 39  1  0
 16 40  1  0
 16 41  1  0
 16 42  1  0
 17 43  1  6
 18 44  1  0
 18 45  1  0
 19 46  1  0
 19 47  1  0
 20 48  1  6
 21 49  1  0
M  END
$$$$
[H]c1c([H])c2c(c(OC([H])([H])[H])c1OC([H])([H])[H])C([H])([H])N1C([H])([H])C([H])([H])c3c([H])c(OC([H])([H])[H])c(OC([H])([H])[H])c([H])c3C1([H])C2([H])[H]
     RDKit          3D

 51 54  0  0  0  0  0  0  0  0999 V2000
    6.5029   -1.9284    0.4011 C   0  0  0  0  0  0  0  0  0  0  0  0
    5.8237   -0.7922    0.8311 O   0  0  0  0  0  0  0  0  0  0  0  0
    4.4580   -0.5878    0.6939 C   0  0  0  0  0  0  0  0  0  0  0  0
    3.6987   -1.5697    0.0900 C   0  0  0  0  0  0  0  0  0  0  0  0
    2.3359   -1.3421   -0.0356 C   0  0  0  0  0  0  0  0  0  0  0  0
    1.4048   -2.3153   -0.6635 C   0  0  0  0  0  0  0  0  0  0  0  0
    0.4422   -1.6039   -1.5585 C   0  0  0  0  0  0  0  0  0  0  0  0
    0.0562   -0.3002   -1.1295 N   0  0  0  0  0  0  0  0  0  0  0  0
   -1.2260    0.0460   -1.6219 C   0  0  0  0  0  0  0  0  0  0  0  0
   -2.1769    0.5617   -0.6180 C   0  0  0  0  0  0  0  0  0  0  0  0
   -1.6963    1.2023    0.5005 C   0  0  0  0  0  0  0  0  0  0  0  0
   -0.2133    1.3241    0.6369 C   0  0  0  0  0  0  0  0  0  0  0  0
    0.3246   -0.0300    0.2478 C   0  0  0  0  0  0  0  0  0  0  0  0
    1.7912   -0.1640    0.4378 C   0  0  0  0  0  0  0  0  0  0  0  0
    2.5791    0.7960    1.0361 C   0  0  0  0  0  0  0  0  0  0  0  0
    3.9458    0.5976    1.1764 C   0  0  0  0  0  0  0  0  0  0  0  0
    4.7388    1.5638    1.7786 O   0  0  0  0  0  0  0  0  0  0  0  0
    4.1709    2.7615    2.2575 C   0  0  0  0  0  0  0  0  0  0  0  0
   -2.5843    1.6802    1.4138 C   0  0  0  0  0  0  0  0  0  0  0  0
   -3.9533    1.5232    1.2196 C   0  0  0  0  0  0  0  0  0  0  0  0
   -4.4518    0.8927    0.1209 C   0  0  0  0  0  0  0  0  0  0  0  0
   -5.8129    0.7219   -0.0983 O   0  0  0  0  0  0  0  0  0  0  0  0
   -6.7028    1.2353    0.8790 C   0  0  0  0  0  0  0  0  0  0  0  0
   -3.5550    0.4006   -0.8187 C   0  0  0  0  0  0  0  0  0  0  0  0
   -4.0537   -0.2448   -1.9435 O   0  0  0  0  0  0  0  0  0  0  0  0
   -4.2538   -1.6622   -1.8481 C   0  0  0  0  0  0  0  0  0  0  0  0
    6.2326   -2.1089   -0.6585 H   0  0  0  0  0  0  0  0  0  0  0  0
    7.6011   -1.6668    0.3767 H   0  0  0  0  0  0  0  0  0  0  0  0
    6.3864   -2.8078    1.0489 H   0  0  0  0  0  0  0  0  0  0  0  0
    4.1123   -2.4979   -0.2858 H   0  0  0  0  0  0  0  0  0  0  0  0
    0.8592   -2.8922    0.1246 H   0  0  0  0  0  0  0  0  0  0  0  0
    2.0181   -3.0119   -1.2915 H   0  0  0  0  0  0  0  0  0  0  0  0
    0.9505   -1.4836   -2.5594 H   0  0  0  0  0  0  0  0  0  0  0  0
   -0.4496   -2.2565   -1.7806 H   0  0  0  0  0  0  0  0  0  0  0  0
   -1.0783    0.8124   -2.4449 H   0  0  0  0  0  0  0  0  0  0  0  0
   -1.7303   -0.8414   -2.1101 H   0  0  0  0  0  0  0  0  0  0  0  0
    0.1676    2.1429    0.0114 H   0  0  0  0  0  0  0  0  0  0  0  0
    0.0390    1.5201    1.7038 H   0  0  0  0  0  0  0  0  0  0  0  0
   -0.1538   -0.7724    0.9188 H   0  0  0  0  0  0  0  0  0  0  0  0
    2.1071    1.7095    1.3947 H   0  0  0  0  0  0  0  0  0  0  0  0
    3.4888    3.2379    1.5386 H   0  0  0  0  0  0  0  0  0  0  0  0
    3.6553    2.5026    3.2188 H   0  0  0  0  0  0  0  0  0  0  0  0
    4.9820    3.5057    2.4603 H   0  0  0  0  0  0  0  0  0  0  0  0
   -2.2489    2.1817    2.2917 H   0  0  0  0  0  0  0  0  0  0  0  0
   -4.6570    1.9082    1.9547 H   0  0  0  0  0  0  0  0  0  0  0  0
   -6.4683    2.3109    1.1067 H   0  0  0  0  0  0  0  0  0  0  0  0
   -6.6258    0.6461    1.7996 H   0  0  0  0  0  0  0  0  0  0  0  0
   -7.7622    1.1703    0.5323 H   0  0  0  0  0  0  0  0  0  0  0  0
   -3.5315   -2.1210   -1.1467 H   0  0  0  0  0  0  0  0  0  0  0  0
   -5.2979   -1.8290   -1.4633 H   0  0  0  0  0  0  0  0  0  0  0  0
   -4.1888   -2.1253   -2.8414 H   0  0  0  0  0  0  0  0  0  0  0  0
  1  2  1  0
  2  3  1  0
  3  4  2  0
  4  5  1  0
  5  6  1  0
  6  7  1  0
  7  8  1  0
  8  9  1  0
  9 10  1  0
 10 11  2  0
 11 12  1  0
 12 13  1  0
 13 14  1  0
 14 15  1  0
 15 16  2  0
 16 17  1  0
 17 18  1  0
 11 19  1  0
 19 20  2  0
 20 21  1  0
 21 22  1  0
 22 23  1  0
 21 24  2  0
 24 25  1  0
 25 26  1  0
 16  3  1  0
 14  5  2  0
 13  8  1  0
 24 10  1  0
  1 27  1  0
  1 28  1  0
  1 29  1  0
  4 30  1  0
  6 31  1  0
  6 32  1  0
  7 33  1  0
  7 34  1  0
  9 35  1  0
  9 36  1  0
 12 37  1  0
 12 38  1  0
 13 39  1  0
 15 40  1  0
 18 41  1  0
 18 42  1  0
 18 43  1  0
 19 44  1  0
 20 45  1  0
 23 46  1  0
 23 47  1  0
 23 48  1  0
 26 49  1  0
 26 50  1  0
 26 51  1  0
M  END
$$$$
[H]c1nc(N([H])c2c([H])c([H])c(N3C([H])([H])C([H])([H])C([H])(N4C([H])([H])C([H])([H])N(C([H])([H])[H])C([H])([H])C4([H])[H])C([H])([H])C3([H])[H])c([H])c2OC([H])([H])[H])nc(N([H])c2c([H])c([H])c([H])c([H])c2S(=O)(=O)C([H])(C([H])([H])[H])C([H])([H])[H])c1Cl
     RDKit          3D

 82 86  0  0  0  0  0  0  0  0999 V2000
   -0.1870    3.7228   -1.2569 C   0  0  0  0  0  0  0  0  0  0  0  0
    0.4390    2.5297   -0.8437 O   0  0  0  0  0  0  0  0  0  0  0  0
   -0.3483    1.4775   -0.4024 C   0  0  0  0  0  0  0  0  0  0  0  0
   -1.7220    1.6350   -0.3827 C   0  0  0  0  0  0  0  0  0  0  0  0
   -2.5624    0.6308    0.0436 C   0  0  0  0  0  0  0  0  0  0  0  0
   -1.9599   -0.5357    0.4478 C   0  0  0  0  0  0  0  0  0  0  0  0
   -0.5748   -0.7280    0.4408 C   0  0  0  0  0  0  0  0  0  0  0  0
    0.2576    0.2764    0.0150 C   0  0  0  0  0  0  0  0  0  0  0  0
    1.6540    0.2011   -0.0367 N   0  0  0  0  0  0  0  0  0  0  0  0
    2.4984   -0.8842    0.3177 C   0  0  0  0  0  0  0  0  0  0  0  0
    2.1033   -2.0726    0.7812 N   0  0  0  0  0  0  0  0  0  0  0  0
    2.9559   -3.0558    1.0957 C   0  0  0  0  0  0  0  0  0  0  0  0
    4.3092   -2.8632    0.9451 C   0  0  0  0  0  0  0  0  0  0  0  0
    5.4455   -4.1449    1.3534 Cl  0  0  0  0  0  0  0  0  0  0  0  0
    4.7527   -1.6166    0.4572 C   0  0  0  0  0  0  0  0  0  0  0  0
    6.1380   -1.4466    0.3110 N   0  0  0  0  0  0  0  0  0  0  0  0
    6.9009   -0.3576   -0.1368 C   0  0  0  0  0  0  0  0  0  0  0  0
    6.2766    0.8084   -0.5266 C   0  0  0  0  0  0  0  0  0  0  0  0
    7.0240    1.9039   -0.9778 C   0  0  0  0  0  0  0  0  0  0  0  0
    8.3820    1.8034   -1.0274 C   0  0  0  0  0  0  0  0  0  0  0  0
    9.0024    0.6381   -0.6374 C   0  0  0  0  0  0  0  0  0  0  0  0
    8.2961   -0.4485   -0.1920 C   0  0  0  0  0  0  0  0  0  0  0  0
    9.0842   -1.8926    0.2913 S   0  0  0  0  0  0  0  0  0  0  0  0
    8.6633   -3.0312   -0.6035 O   0  0  0  0  0  0  0  0  0  0  0  0
    8.8235   -2.3045    1.7132 O   0  0  0  0  0  0  0  0  0  0  0  0
   10.8572   -1.7881    0.1370 C   0  0  0  0  0  0  0  0  0  0  0  0
   11.2609   -1.6791   -1.2975 C   0  0  0  0  0  0  0  0  0  0  0  0
   11.4760   -0.7869    1.0544 C   0  0  0  0  0  0  0  0  0  0  0  0
    3.8248   -0.7008    0.1721 N   0  0  0  0  0  0  0  0  0  0  0  0
   -3.9818    0.8060    0.0512 N   0  0  0  0  0  0  0  0  0  0  0  0
   -4.5241    1.9609   -0.5784 C   0  0  0  0  0  0  0  0  0  0  0  0
   -6.0011    1.9283   -0.8544 C   0  0  0  0  0  0  0  0  0  0  0  0
   -6.8245    1.3726    0.2584 C   0  0  0  0  0  0  0  0  0  0  0  0
   -6.0036    0.6088    1.2781 C   0  0  0  0  0  0  0  0  0  0  0  0
   -4.8657   -0.1463    0.6796 C   0  0  0  0  0  0  0  0  0  0  0  0
   -7.9560    0.6086   -0.0875 N   0  0  0  0  0  0  0  0  0  0  0  0
   -7.7905   -0.5856   -0.8057 C   0  0  0  0  0  0  0  0  0  0  0  0
   -9.1362   -1.0235   -1.3907 C   0  0  0  0  0  0  0  0  0  0  0  0
  -10.1390   -0.8718   -0.3544 N   0  0  0  0  0  0  0  0  0  0  0  0
  -10.0361   -1.8235    0.7053 C   0  0  0  0  0  0  0  0  0  0  0  0
  -10.3349    0.4834    0.0484 C   0  0  0  0  0  0  0  0  0  0  0  0
   -9.1475    1.3193   -0.4248 C   0  0  0  0  0  0  0  0  0  0  0  0
    0.5375    4.4499   -1.6799 H   0  0  0  0  0  0  0  0  0  0  0  0
   -0.9481    3.5330   -2.0530 H   0  0  0  0  0  0  0  0  0  0  0  0
   -0.6880    4.2523   -0.4156 H   0  0  0  0  0  0  0  0  0  0  0  0
   -2.1476    2.5764   -0.7105 H   0  0  0  0  0  0  0  0  0  0  0  0
   -2.6020   -1.3517    0.7883 H   0  0  0  0  0  0  0  0  0  0  0  0
   -0.2121   -1.6859    0.7807 H   0  0  0  0  0  0  0  0  0  0  0  0
    2.1500    1.0935   -0.3956 H   0  0  0  0  0  0  0  0  0  0  0  0
    2.6174   -4.0222    1.4737 H   0  0  0  0  0  0  0  0  0  0  0  0
    6.7215   -2.3022    0.5911 H   0  0  0  0  0  0  0  0  0  0  0  0
    5.2202    0.9989   -0.5296 H   0  0  0  0  0  0  0  0  0  0  0  0
    6.5603    2.8305   -1.2896 H   0  0  0  0  0  0  0  0  0  0  0  0
    9.0220    2.6252   -1.3712 H   0  0  0  0  0  0  0  0  0  0  0  0
   10.0936    0.6299   -0.7052 H   0  0  0  0  0  0  0  0  0  0  0  0
   11.2252   -2.8031    0.4806 H   0  0  0  0  0  0  0  0  0  0  0  0
   11.9033   -0.7785   -1.4926 H   0  0  0  0  0  0  0  0  0  0  0  0
   10.3307   -1.5514   -1.9199 H   0  0  0  0  0  0  0  0  0  0  0  0
   11.7765   -2.5763   -1.6995 H   0  0  0  0  0  0  0  0  0  0  0  0
   12.0225   -1.2557    1.8769 H   0  0  0  0  0  0  0  0  0  0  0  0
   12.1781   -0.1622    0.4319 H   0  0  0  0  0  0  0  0  0  0  0  0
   10.7434   -0.0899    1.5079 H   0  0  0  0  0  0  0  0  0  0  0  0
   -4.2803    2.8410    0.0525 H   0  0  0  0  0  0  0  0  0  0  0  0
   -3.9354    2.1199   -1.5269 H   0  0  0  0  0  0  0  0  0  0  0  0
   -6.3084    2.9635   -1.1164 H   0  0  0  0  0  0  0  0  0  0  0  0
   -6.1470    1.3325   -1.7818 H   0  0  0  0  0  0  0  0  0  0  0  0
   -7.2139    2.2642    0.8421 H   0  0  0  0  0  0  0  0  0  0  0  0
   -6.6586   -0.1075    1.8153 H   0  0  0  0  0  0  0  0  0  0  0  0
   -5.5929    1.2907    2.0626 H   0  0  0  0  0  0  0  0  0  0  0  0
   -5.1731   -0.8869   -0.0780 H   0  0  0  0  0  0  0  0  0  0  0  0
   -4.3121   -0.6097    1.5260 H   0  0  0  0  0  0  0  0  0  0  0  0
   -7.5080   -1.4012   -0.0997 H   0  0  0  0  0  0  0  0  0  0  0  0
   -7.0082   -0.5774   -1.5870 H   0  0  0  0  0  0  0  0  0  0  0  0
   -9.4445   -0.3742   -2.2343 H   0  0  0  0  0  0  0  0  0  0  0  0
   -9.0261   -2.0597   -1.7202 H   0  0  0  0  0  0  0  0  0  0  0  0
   -9.1822   -2.5377    0.5321 H   0  0  0  0  0  0  0  0  0  0  0  0
   -9.9814   -1.3564    1.7041 H   0  0  0  0  0  0  0  0  0  0  0  0
  -10.9456   -2.4645    0.6802 H   0  0  0  0  0  0  0  0  0  0  0  0
  -11.2261    0.8855   -0.4545 H   0  0  0  0  0  0  0  0  0  0  0  0
  -10.4517    0.5517    1.1515 H   0  0  0  0  0  0  0  0  0  0  0  0
   -9.2778    1.5186   -1.4917 H   0  0  0  0  0  0  0  0  0  0  0  0
   -9.1611    2.2698    0.1783 H   0  0  0  0  0  0  0  0  0  0  0  0
  1  2  1  0
  2  3  1  0
  3  4  2  0
  4  5  1  0
  5  6  2  0
  6  7  1  0
  7  8  2  0
  8  9  1  0
  9 10  1  0
 10 11  2  0
 11 12  1  0
 12 13  2  0
 13 14  1  0
 13 15  1  0
 15 16  1  0
 16 17  1  0
 17 18  2  0
 18 19  1  0
 19 20  2  0
 20 21  1  0
 21 22  2  0
 22 23  1  0
 23 24  2  0
 23 25  2  0
 23 26  1  0
 26 27  1  0
 26 28  1  0
 15 29  2  0
  5 30  1  0
 30 31  1  0
 31 32  1  0
 32 33  1  0
 33 34  1  0
 34 35  1  0
 33 36  1  0
 36 37  1  0
 37 38  1  0
 38 39  1  0
 39 40  1  0
 39 41  1  0
 41 42  1  0
  8  3  1  0
 29 10  1  0
 35 30  1  0
 42 36  1  0
 22 17  1  0
  1 43  1  0
  1 44  1  0
  1 45  1  0
  4 46  1  0
  6 47  1  0
  7 48  1  0
  9 49  1  0
 12 50  1  0
 16 51  1  0
 18 52  1  0
 19 53  1  0
 20 54  1  0
 21 55  1  0
 26 56  1  0
 27 57  1  0
 27 58  1  0
 27 59  1  0
 28 60  1  0
 28 61  1  0
 28 62  1  0
 31 63  1  0
 31 64  1  0
 32 65  1  0
 32 66  1  0
 33 67  1  0
 34 68  1  0
 34 69  1  0
 35 70  1  0
 35 71  1  0
 37 72  1  0
 37 73  1  0
 38 74  1  0
 38 75  1  0
 40 76  1  0
 40 77  1  0
 40 78  1  0
 41 79  1  0
 41 80  1  0
 42 81  1  0
 42 82  1  0
M  END
$$$$
[H]Oc1c([H])c([H])c(C([H])([H])[C@@]2([H])C(=O)N([H])[C@@]([H])([C@@]([H])(C([H])([H])[H])C([H])([H])C([H])([H])[H])C(=O)N([H])[C@@]([H])(C([H])([H])c3c([H])c([H])c([H])c([H])c3[H])C(=O)N3C([H])([H])C([H])([H])C([H])([H])[C@@]3([H])C(=O)N([H])[C@@]([H])(C([H])([H])c3c([H])nc([H])n3[H])C(=O)N([H])[C@@]([H])(C([H])([H])c3c([H])nc([H])n3[H])C(=O)N2[H])c([H])c1[H]
     RDKit          3D

108113  0  0  0  0  0  0  0  0999 V2000
    3.9557    2.4062    3.2478 C   0  0  0  0  0  0  0  0  0  0  0  0
    3.0021    3.2540    2.4896 C   0  0  0  0  0  0  0  0  0  0  0  0
    1.5571    3.0032    2.6821 C   0  0  2  0  0  0  0  0  0  0  0  0
    1.1173    3.1630    4.1314 C   0  0  0  0  0  0  0  0  0  0  0  0
    0.9743    1.7933    2.0069 C   0  0  2  0  0  0  0  0  0  0  0  0
   -0.4712    1.7456    2.3258 N   0  0  0  0  0  0  0  0  0  0  0  0
   -1.4854    2.3965    1.6332 C   0  0  0  0  0  0  0  0  0  0  0  0
   -2.5348    2.7109    2.3015 O   0  0  0  0  0  0  0  0  0  0  0  0
   -1.4592    2.7634    0.1759 C   0  0  2  0  0  0  0  0  0  0  0  0
   -2.4788    3.8295   -0.0651 C   0  0  0  0  0  0  0  0  0  0  0  0
   -2.5737    4.3273   -1.4424 C   0  0  0  0  0  0  0  0  0  0  0  0
   -3.4630    3.8166   -2.3331 C   0  0  0  0  0  0  0  0  0  0  0  0
   -3.5710    4.2565   -3.6422 C   0  0  0  0  0  0  0  0  0  0  0  0
   -2.7274    5.2662   -4.0526 C   0  0  0  0  0  0  0  0  0  0  0  0
   -2.8135    5.7229   -5.3504 O   0  0  0  0  0  0  0  0  0  0  0  0
   -1.7986    5.8248   -3.1806 C   0  0  0  0  0  0  0  0  0  0  0  0
   -1.7383    5.3445   -1.8895 C   0  0  0  0  0  0  0  0  0  0  0  0
   -1.4110    1.6647   -0.7166 N   0  0  0  0  0  0  0  0  0  0  0  0
   -2.2909    0.6692   -1.1123 C   0  0  0  0  0  0  0  0  0  0  0  0
   -2.2794    0.4256   -2.4006 O   0  0  0  0  0  0  0  0  0  0  0  0
   -3.2483   -0.1933   -0.4226 C   0  0  2  0  0  0  0  0  0  0  0  0
   -4.6880    0.2798   -0.5955 C   0  0  0  0  0  0  0  0  0  0  0  0
   -5.6460   -0.6274    0.1095 C   0  0  0  0  0  0  0  0  0  0  0  0
   -6.2548   -1.7530   -0.4200 C   0  0  0  0  0  0  0  0  0  0  0  0
   -7.0440   -2.2917    0.5131 N   0  0  0  0  0  0  0  0  0  0  0  0
   -6.9729   -1.5600    1.6301 C   0  0  0  0  0  0  0  0  0  0  0  0
   -6.1134   -0.5484    1.3622 N   0  0  0  0  0  0  0  0  0  0  0  0
   -3.0279   -0.5007    0.9457 N   0  0  0  0  0  0  0  0  0  0  0  0
   -2.1989   -1.4882    1.5125 C   0  0  0  0  0  0  0  0  0  0  0  0
   -1.9395   -1.4574    2.7703 O   0  0  0  0  0  0  0  0  0  0  0  0
   -1.5547   -2.6254    0.7844 C   0  0  2  0  0  0  0  0  0  0  0  0
   -2.4200   -3.8812    0.9118 C   0  0  0  0  0  0  0  0  0  0  0  0
   -1.8347   -5.0380    0.1987 C   0  0  0  0  0  0  0  0  0  0  0  0
   -0.9668   -5.9797    0.6945 C   0  0  0  0  0  0  0  0  0  0  0  0
   -0.6928   -6.8561   -0.3039 N   0  0  0  0  0  0  0  0  0  0  0  0
   -1.3526   -6.5000   -1.3997 C   0  0  0  0  0  0  0  0  0  0  0  0
   -2.0497   -5.3959   -1.1042 N   0  0  0  0  0  0  0  0  0  0  0  0
   -0.2699   -2.8657    1.4170 N   0  0  0  0  0  0  0  0  0  0  0  0
    0.9203   -3.2090    0.7436 C   0  0  0  0  0  0  0  0  0  0  0  0
    1.8035   -3.7920    1.4285 O   0  0  0  0  0  0  0  0  0  0  0  0
    1.1722   -2.9436   -0.6275 C   0  0  2  0  0  0  0  0  0  0  0  0
    2.1762   -3.9727   -1.2406 C   0  0  0  0  0  0  0  0  0  0  0  0
    2.1809   -3.4371   -2.6622 C   0  0  0  0  0  0  0  0  0  0  0  0
    1.6047   -2.0493   -2.5945 C   0  0  0  0  0  0  0  0  0  0  0  0
    1.7667   -1.7500   -1.1244 N   0  0  0  0  0  0  0  0  0  0  0  0
    2.3246   -0.6139   -0.5638 C   0  0  0  0  0  0  0  0  0  0  0  0
    2.1497    0.4529   -1.3187 O   0  0  0  0  0  0  0  0  0  0  0  0
    3.0599   -0.3161    0.6596 C   0  0  2  0  0  0  0  0  0  0  0  0
    4.4240   -1.0218    0.7634 C   0  0  0  0  0  0  0  0  0  0  0  0
    5.3321   -0.6285   -0.3139 C   0  0  0  0  0  0  0  0  0  0  0  0
    5.4354   -1.3150   -1.4958 C   0  0  0  0  0  0  0  0  0  0  0  0
    6.3211   -0.8669   -2.4823 C   0  0  0  0  0  0  0  0  0  0  0  0
    7.0918    0.2604   -2.2749 C   0  0  0  0  0  0  0  0  0  0  0  0
    6.9960    0.9479   -1.1050 C   0  0  0  0  0  0  0  0  0  0  0  0
    6.1160    0.4889   -0.1444 C   0  0  0  0  0  0  0  0  0  0  0  0
    2.3987   -0.3739    1.9160 N   0  0  0  0  0  0  0  0  0  0  0  0
    1.5595    0.5506    2.5401 C   0  0  0  0  0  0  0  0  0  0  0  0
    1.2234    0.3169    3.7647 O   0  0  0  0  0  0  0  0  0  0  0  0
    4.7844    3.0893    3.6169 H   0  0  0  0  0  0  0  0  0  0  0  0
    4.5150    1.6691    2.6129 H   0  0  0  0  0  0  0  0  0  0  0  0
    3.5758    1.9217    4.1497 H   0  0  0  0  0  0  0  0  0  0  0  0
    3.2522    4.3478    2.5899 H   0  0  0  0  0  0  0  0  0  0  0  0
    3.2151    3.0534    1.3909 H   0  0  0  0  0  0  0  0  0  0  0  0
    1.0364    3.8983    2.1724 H   0  0  0  0  0  0  0  0  0  0  0  0
    0.0209    3.0254    4.1873 H   0  0  0  0  0  0  0  0  0  0  0  0
    1.6971    2.5001    4.8043 H   0  0  0  0  0  0  0  0  0  0  0  0
    1.3030    4.2391    4.3855 H   0  0  0  0  0  0  0  0  0  0  0  0
    1.0888    1.9231    0.9281 H   0  0  0  0  0  0  0  0  0  0  0  0
   -0.7681    1.1615    3.1653 H   0  0  0  0  0  0  0  0  0  0  0  0
   -0.4746    3.3650    0.1474 H   0  0  0  0  0  0  0  0  0  0  0  0
   -3.5048    3.5300    0.2388 H   0  0  0  0  0  0  0  0  0  0  0  0
   -2.2719    4.7406    0.5748 H   0  0  0  0  0  0  0  0  0  0  0  0
   -4.1297    3.0284   -2.0120 H   0  0  0  0  0  0  0  0  0  0  0  0
   -4.2944    3.8221   -4.3256 H   0  0  0  0  0  0  0  0  0  0  0  0
   -3.4744    5.3409   -6.0103 H   0  0  0  0  0  0  0  0  0  0  0  0
   -1.1487    6.6244   -3.5432 H   0  0  0  0  0  0  0  0  0  0  0  0
   -1.0287    5.7529   -1.1792 H   0  0  0  0  0  0  0  0  0  0  0  0
   -0.4368    1.5951   -1.2152 H   0  0  0  0  0  0  0  0  0  0  0  0
   -3.2950   -1.2289   -0.9189 H   0  0  0  0  0  0  0  0  0  0  0  0
   -4.9966    0.2696   -1.6676 H   0  0  0  0  0  0  0  0  0  0  0  0
   -4.8343    1.2992   -0.2305 H   0  0  0  0  0  0  0  0  0  0  0  0
   -6.1218   -2.1358   -1.4130 H   0  0  0  0  0  0  0  0  0  0  0  0
   -7.5090   -1.7525    2.5705 H   0  0  0  0  0  0  0  0  0  0  0  0
   -5.8851    0.1742    2.0801 H   0  0  0  0  0  0  0  0  0  0  0  0
   -3.5615    0.0870    1.6514 H   0  0  0  0  0  0  0  0  0  0  0  0
   -1.4543   -2.4424   -0.2987 H   0  0  0  0  0  0  0  0  0  0  0  0
   -3.4018   -3.6754    0.4062 H   0  0  0  0  0  0  0  0  0  0  0  0
   -2.5621   -4.1335    1.9815 H   0  0  0  0  0  0  0  0  0  0  0  0
   -0.6034   -5.9661    1.7129 H   0  0  0  0  0  0  0  0  0  0  0  0
   -1.3536   -6.9801   -2.3615 H   0  0  0  0  0  0  0  0  0  0  0  0
   -2.6767   -4.8553   -1.7385 H   0  0  0  0  0  0  0  0  0  0  0  0
   -0.3038   -2.7581    2.4806 H   0  0  0  0  0  0  0  0  0  0  0  0
    0.2374   -3.1848   -1.2548 H   0  0  0  0  0  0  0  0  0  0  0  0
    3.1469   -3.8934   -0.7414 H   0  0  0  0  0  0  0  0  0  0  0  0
    1.7314   -4.9687   -1.2257 H   0  0  0  0  0  0  0  0  0  0  0  0
    1.5960   -4.1012   -3.3405 H   0  0  0  0  0  0  0  0  0  0  0  0
    3.2403   -3.3687   -3.0065 H   0  0  0  0  0  0  0  0  0  0  0  0
    2.0624   -1.3179   -3.2297 H   0  0  0  0  0  0  0  0  0  0  0  0
    0.5056   -2.1089   -2.7346 H   0  0  0  0  0  0  0  0  0  0  0  0
    3.4109    0.7792    0.6140 H   0  0  0  0  0  0  0  0  0  0  0  0
    4.8058   -0.7708    1.7870 H   0  0  0  0  0  0  0  0  0  0  0  0
    4.2292   -2.1062    0.7631 H   0  0  0  0  0  0  0  0  0  0  0  0
    4.8716   -2.2012   -1.7217 H   0  0  0  0  0  0  0  0  0  0  0  0
    6.4182   -1.3910   -3.4176 H   0  0  0  0  0  0  0  0  0  0  0  0
    7.7951    0.6411   -3.0217 H   0  0  0  0  0  0  0  0  0  0  0  0
    7.6000    1.8303   -0.9420 H   0  0  0  0  0  0  0  0  0  0  0  0
    6.0656    1.0676    0.7829 H   0  0  0  0  0  0  0  0  0  0  0  0
    2.5941   -1.2650    2.4753 H   0  0  0  0  0  0  0  0  0  0  0  0
  1  2  1  0
  2  3  1  0
  3  4  1  0
  3  5  1  0
  5  6  1  0
  6  7  1  0
  7  8  2  0
  7  9  1  0
  9 10  1  0
 10 11  1  0
 11 12  2  0
 12 13  1  0
 13 14  2  0
 14 15  1  0
 14 16  1  0
 16 17  2  0
  9 18  1  0
 18 19  1  0
 19 20  2  0
 19 21  1  0
 21 22  1  0
 22 23  1  0
 23 24  2  0
 24 25  1  0
 25 26  2  0
 26 27  1  0
 21 28  1  0
 28 29  1  0
 29 30  2  0
 29 31  1  0
 31 32  1  0
 32 33  1  0
 33 34  2  0
 34 35  1  0
 35 36  2  0
 36 37  1  0
 31 38  1  0
 38 39  1  0
 39 40  2  0
 39 41  1  0
 41 42  1  0
 42 43  1  0
 43 44  1  0
 44 45  1  0
 45 46  1  0
 46 47  2  0
 46 48  1  0
 48 49  1  0
 49 50  1  0
 50 51  2  0
 51 52  1  0
 52 53  2  0
 53 54  1  0
 54 55  2  0
 48 56  1  0
 56 57  1  0
 57 58  2  0
 57  5  1  0
 17 11  1  0
 27 23  1  0
 37 33  1  0
 45 41  1  0
 55 50  1  0
  1 59  1  0
  1 60  1  0
  1 61  1  0
  2 62  1  0
  2 63  1  0
  3 64  1  6
  4 65  1  0
  4 66  1  0
  4 67  1  0
  5 68  1  6
  6 69  1  0
  9 70  1  1
 10 71  1  0
 10 72  1  0
 12 73  1  0
 13 74  1  0
 15 75  1  0
 16 76  1  0
 17 77  1  0
 18 78  1  0
 21 79  1  6
 22 80  1  0
 22 81  1  0
 24 82  1  0
 26 83  1  0
 27 84  1  0
 28 85  1  0
 31 86  1  6
 32 87  1  0
 32 88  1  0
 34 89  1  0
 36 90  1  0
 37 91  1  0
 38 92  1  0
 41 93  1  6
 42 94  1  0
 42 95  1  0
 43 96  1  0
 43 97  1  0
 44 98  1  0
 44 99  1  0
 48100  1  6
 49101  1  0
 49102  1  0
 51103  1  0
 52104  1  0
 53105  1  0
 54106  1  0
 55107  1  0
 56108  1  0
M  END
$$$$
[H]c1nc(N([H])c2c([H])c([H])c(Cl)c(OC([H])([H])[H])c2[H])nc(N([H])c2c([H])c([H])c([H])c([H])c2S(=O)(=O)C([H])(C([H])([H])[H])C([H])([H])[H])c1Cl
     RDKit          3D

 50 52  0  0  0  0  0  0  0  0999 V2000
    7.9321    1.0322   -1.6958 C   0  0  0  0  0  0  0  0  0  0  0  0
    6.8965    1.9362   -1.4293 O   0  0  0  0  0  0  0  0  0  0  0  0
    5.5460    1.6488   -1.4463 C   0  0  0  0  0  0  0  0  0  0  0  0
    5.0089    0.4186   -1.7312 C   0  0  0  0  0  0  0  0  0  0  0  0
    3.6455    0.1578   -1.7398 C   0  0  0  0  0  0  0  0  0  0  0  0
    3.1836   -1.1215   -2.0707 N   0  0  0  0  0  0  0  0  0  0  0  0
    1.9628   -1.7480   -1.7365 C   0  0  0  0  0  0  0  0  0  0  0  0
    1.7696   -3.0138   -2.2266 N   0  0  0  0  0  0  0  0  0  0  0  0
    0.6877   -3.7295   -1.9817 C   0  0  0  0  0  0  0  0  0  0  0  0
   -0.3165   -3.2120   -1.2002 C   0  0  0  0  0  0  0  0  0  0  0  0
   -1.7710   -4.1040   -0.8442 Cl  0  0  0  0  0  0  0  0  0  0  0  0
   -0.1700   -1.9124   -0.6689 C   0  0  0  0  0  0  0  0  0  0  0  0
   -1.2207   -1.4118    0.0999 N   0  0  0  0  0  0  0  0  0  0  0  0
   -1.3350   -0.1987    0.7758 C   0  0  0  0  0  0  0  0  0  0  0  0
   -0.2843    0.6848    0.9798 C   0  0  0  0  0  0  0  0  0  0  0  0
   -0.4588    1.8732    1.6812 C   0  0  0  0  0  0  0  0  0  0  0  0
   -1.7013    2.1970    2.1962 C   0  0  0  0  0  0  0  0  0  0  0  0
   -2.7670    1.3409    2.0129 C   0  0  0  0  0  0  0  0  0  0  0  0
   -2.5845    0.1553    1.3100 C   0  0  0  0  0  0  0  0  0  0  0  0
   -3.9271   -0.9208    1.1111 S   0  0  0  0  0  0  0  0  0  0  0  0
   -3.7472   -2.2328    1.8583 O   0  0  0  0  0  0  0  0  0  0  0  0
   -4.2622   -1.2486   -0.2979 O   0  0  0  0  0  0  0  0  0  0  0  0
   -5.4258   -0.2137    1.8177 C   0  0  0  0  0  0  0  0  0  0  0  0
   -5.9353    0.9554    1.0655 C   0  0  0  0  0  0  0  0  0  0  0  0
   -6.5085   -1.3110    1.7320 C   0  0  0  0  0  0  0  0  0  0  0  0
    0.9790   -1.2740   -0.9862 N   0  0  0  0  0  0  0  0  0  0  0  0
    2.7997    1.1809   -1.4497 C   0  0  0  0  0  0  0  0  0  0  0  0
    3.2932    2.4604   -1.1508 C   0  0  0  0  0  0  0  0  0  0  0  0
    4.6648    2.6925   -1.1495 C   0  0  0  0  0  0  0  0  0  0  0  0
    5.3134    4.2656   -0.7848 Cl  0  0  0  0  0  0  0  0  0  0  0  0
    7.6606   -0.0213   -1.5214 H   0  0  0  0  0  0  0  0  0  0  0  0
    8.4029    1.1787   -2.6867 H   0  0  0  0  0  0  0  0  0  0  0  0
    8.7336    1.2612   -0.9322 H   0  0  0  0  0  0  0  0  0  0  0  0
    5.7012   -0.3957   -1.9647 H   0  0  0  0  0  0  0  0  0  0  0  0
    3.8808   -1.7049   -2.6785 H   0  0  0  0  0  0  0  0  0  0  0  0
    0.5349   -4.7473   -2.3768 H   0  0  0  0  0  0  0  0  0  0  0  0
   -2.0642   -2.0606    0.1888 H   0  0  0  0  0  0  0  0  0  0  0  0
    0.7020    0.4463    0.6127 H   0  0  0  0  0  0  0  0  0  0  0  0
    0.3951    2.5392    1.8140 H   0  0  0  0  0  0  0  0  0  0  0  0
   -1.8730    3.1110    2.7467 H   0  0  0  0  0  0  0  0  0  0  0  0
   -3.7630    1.5777    2.4186 H   0  0  0  0  0  0  0  0  0  0  0  0
   -5.2768    0.0253    2.8751 H   0  0  0  0  0  0  0  0  0  0  0  0
   -5.2970    1.1362    0.1739 H   0  0  0  0  0  0  0  0  0  0  0  0
   -6.9854    0.8009    0.6757 H   0  0  0  0  0  0  0  0  0  0  0  0
   -6.0292    1.8979    1.6751 H   0  0  0  0  0  0  0  0  0  0  0  0
   -6.0759   -2.2585    1.3990 H   0  0  0  0  0  0  0  0  0  0  0  0
   -7.3078   -1.0280    1.0183 H   0  0  0  0  0  0  0  0  0  0  0  0
   -6.9668   -1.4889    2.7255 H   0  0  0  0  0  0  0  0  0  0  0  0
    1.7230    1.1143   -1.4286 H   0  0  0  0  0  0  0  0  0  0  0  0
    2.6373    3.2695   -0.9210 H   0  0  0  0  0  0  0  0  0  0  0  0
  1  2  1  0
  2  3  1  0
  3  4  2  0
  4  5  1  0
  5  6  1  0
  6  7  1  0
  7  8  2  0
  8  9  1  0
  9 10  2  0
 10 11  1  0
 10 12  1  0
 12 13  1  0
 13 14  1  0
 14 15  2  0
 15 16  1  0
 16 17  2  0
 17 18  1  0
 18 19  2  0
 19 20  1  0
 20 21  2  0
 20 22  2  0
 20 23  1  0
 23 24  1  0
 23 25  1  0
 12 26  2  0
  5 27  2  0
 27 28  1  0
 28 29  2  0
 29 30  1  0
 29  3  1  0
 26  7  1  0
 19 14  1  0
  1 31  1  0
  1 32  1  0
  1 33  1  0
  4 34  1  0
  6 35  1  0
  9 36  1  0
 13 37  1  0
 15 38  1  0
 16 39  1  0
 17 40  1  0
 18 41  1  0
 23 42  1  0
 24 43  1  0
 24 44  1  0
 24 45  1  0
 25 46  1  0
 25 47  1  0
 25 48  1  0
 27 49  1  0
 28 50  1  0
M  END
$$$$
[H]C1=C(C(=O)[O-])N2C(=O)/C(=C(\[H])c3sc4c(c3[H])C(=O)OC4([H])[H])[C@@]2([H])S1
     RDKit          3D

 27 30  0  0  0  0  0  0  0  0999 V2000
   -5.9387    2.0425    0.3881 O   0  0  0  0  0  0  0  0  0  0  0  0
   -5.1581    1.1420   -0.3177 C   0  0  0  0  0  0  0  0  0  0  0  0
   -5.6437    0.6323   -1.3435 O   0  0  0  0  0  0  0  0  0  0  0  0
   -3.8042    0.7869    0.1074 C   0  0  0  0  0  0  0  0  0  0  0  0
   -3.3252    1.3361    1.1941 C   0  0  0  0  0  0  0  0  0  0  0  0
   -1.6765    0.6981    1.4254 S   0  0  0  0  0  0  0  0  0  0  0  0
   -1.8540   -0.6177    0.2270 C   0  0  1  0  0  0  0  0  0  0  0  0
   -2.9598   -0.0919   -0.5690 N   0  0  0  0  0  0  0  0  0  0  0  0
   -2.4395   -0.8646   -1.6269 C   0  0  0  0  0  0  0  0  0  0  0  0
   -2.7980   -1.4916   -2.6522 O   0  0  0  0  0  0  0  0  0  0  0  0
   -1.1058   -0.6398   -0.9965 C   0  0  0  0  0  0  0  0  0  0  0  0
    0.0906   -0.5436   -1.4936 C   0  0  0  0  0  0  0  0  0  0  0  0
    1.2358   -0.3225   -0.6086 C   0  0  0  0  0  0  0  0  0  0  0  0
    2.4503   -0.9840   -0.6209 C   0  0  0  0  0  0  0  0  0  0  0  0
    3.3816   -0.5901    0.2617 C   0  0  0  0  0  0  0  0  0  0  0  0
    4.7745   -0.9578    0.6384 C   0  0  0  0  0  0  0  0  0  0  0  0
    5.4976   -1.8674    0.1237 O   0  0  0  0  0  0  0  0  0  0  0  0
    5.1912   -0.1450    1.6619 O   0  0  0  0  0  0  0  0  0  0  0  0
    4.2020    0.7540    2.0339 C   0  0  0  0  0  0  0  0  0  0  0  0
    3.0627    0.4328    1.1043 C   0  0  0  0  0  0  0  0  0  0  0  0
    1.4687    0.8194    0.6446 S   0  0  0  0  0  0  0  0  0  0  0  0
   -3.7485    2.0486    1.8916 H   0  0  0  0  0  0  0  0  0  0  0  0
   -2.1447   -1.6135    0.6562 H   0  0  0  0  0  0  0  0  0  0  0  0
    0.2279   -0.6262   -2.5814 H   0  0  0  0  0  0  0  0  0  0  0  0
    2.5716   -1.8123   -1.3634 H   0  0  0  0  0  0  0  0  0  0  0  0
    3.8667    0.6881    3.0916 H   0  0  0  0  0  0  0  0  0  0  0  0
    4.5753    1.7873    1.8796 H   0  0  0  0  0  0  0  0  0  0  0  0
  1  2  1  0
  2  3  2  0
  2  4  1  0
  4  5  2  0
  5  6  1  0
  6  7  1  0
  7  8  1  0
  8  9  1  0
  9 10  2  0
  9 11  1  0
 11 12  2  0
 12 13  1  0
 13 14  2  0
 14 15  1  0
 15 16  1  0
 16 17  2  0
 16 18  1  0
 18 19  1  0
 19 20  1  0
 20 21  1  0
  8  4  1  0
 21 13  1  0
 11  7  1  0
 20 15  2  0
  5 22  1  0
  7 23  1  1
 12 24  1  0
 14 25  1  0
 19 26  1  0
 19 27  1  0
M  CHG  1   1  -1
M  END
$$$$
[H]c1nc([H])c(Cl)c(N([H])C(=O)N([H])c2c([H])c(-c3c([H])c([H])c([H])c(-c4c([H])c([H])c([H])c(S(=O)(=O)C([H])([H])[H])c4[H])c3[H])nn(C([H])([H])C([H])([H])[H])c2=O)c1Cl
     RDKit          3D

 58 61  0  0  0  0  0  0  0  0999 V2000
    0.5562    3.4932    3.4622 C   0  0  0  0  0  0  0  0  0  0  0  0
    0.8029    3.8054    2.0129 C   0  0  0  0  0  0  0  0  0  0  0  0
    1.1915    2.6087    1.2563 N   0  0  0  0  0  0  0  0  0  0  0  0
    0.3159    1.8485    0.6810 N   0  0  0  0  0  0  0  0  0  0  0  0
    0.6150    0.7441   -0.0220 C   0  0  0  0  0  0  0  0  0  0  0  0
    1.9637    0.4006   -0.1342 C   0  0  0  0  0  0  0  0  0  0  0  0
    2.9069    1.2004    0.4729 C   0  0  0  0  0  0  0  0  0  0  0  0
    4.2788    0.9379    0.4151 N   0  0  0  0  0  0  0  0  0  0  0  0
    4.8959   -0.1162   -0.2288 C   0  0  0  0  0  0  0  0  0  0  0  0
    4.3195   -0.9992   -0.8598 O   0  0  0  0  0  0  0  0  0  0  0  0
    6.3358   -0.2196   -0.1764 N   0  0  0  0  0  0  0  0  0  0  0  0
    6.9709   -1.2995   -0.8352 C   0  0  0  0  0  0  0  0  0  0  0  0
    7.1736   -2.4637   -0.1189 C   0  0  0  0  0  0  0  0  0  0  0  0
    6.6505   -2.5768    1.5524 Cl  0  0  0  0  0  0  0  0  0  0  0  0
    7.7868   -3.5201   -0.7366 C   0  0  0  0  0  0  0  0  0  0  0  0
    8.1851   -3.4206   -2.0256 N   0  0  0  0  0  0  0  0  0  0  0  0
    7.9953   -2.2849   -2.7478 C   0  0  0  0  0  0  0  0  0  0  0  0
    7.3840   -1.1999   -2.1679 C   0  0  0  0  0  0  0  0  0  0  0  0
    7.1212    0.2764   -3.0579 Cl  0  0  0  0  0  0  0  0  0  0  0  0
    2.4926    2.3257    1.1798 C   0  0  0  0  0  0  0  0  0  0  0  0
    3.3747    3.0428    1.7274 O   0  0  0  0  0  0  0  0  0  0  0  0
   -0.4402   -0.0636   -0.6445 C   0  0  0  0  0  0  0  0  0  0  0  0
   -0.2276   -1.1985   -1.3740 C   0  0  0  0  0  0  0  0  0  0  0  0
   -1.2612   -1.9329   -1.9473 C   0  0  0  0  0  0  0  0  0  0  0  0
   -2.5695   -1.4851   -1.7656 C   0  0  0  0  0  0  0  0  0  0  0  0
   -2.8138   -0.3584   -1.0444 C   0  0  0  0  0  0  0  0  0  0  0  0
   -1.7457    0.3524   -0.4836 C   0  0  0  0  0  0  0  0  0  0  0  0
   -4.1816    0.1126   -0.8533 C   0  0  0  0  0  0  0  0  0  0  0  0
   -4.4412    1.4682   -0.7247 C   0  0  0  0  0  0  0  0  0  0  0  0
   -5.7590    1.8703   -0.5443 C   0  0  0  0  0  0  0  0  0  0  0  0
   -6.7925    0.9621   -0.4920 C   0  0  0  0  0  0  0  0  0  0  0  0
   -6.5238   -0.3834   -0.6210 C   0  0  0  0  0  0  0  0  0  0  0  0
   -5.2191   -0.8008   -0.8010 C   0  0  0  0  0  0  0  0  0  0  0  0
   -7.7690   -1.6047   -0.5673 S   0  0  0  0  0  0  0  0  0  0  0  0
   -8.0666   -2.2171    1.0539 C   0  0  0  0  0  0  0  0  0  0  0  0
   -7.3528   -2.7044   -1.5313 O   0  0  0  0  0  0  0  0  0  0  0  0
   -9.0098   -0.9856   -1.1706 O   0  0  0  0  0  0  0  0  0  0  0  0
   -0.1811    4.1927    3.9088 H   0  0  0  0  0  0  0  0  0  0  0  0
    0.2643    2.4398    3.6357 H   0  0  0  0  0  0  0  0  0  0  0  0
    1.5202    3.6829    4.0193 H   0  0  0  0  0  0  0  0  0  0  0  0
   -0.1633    4.1311    1.5607 H   0  0  0  0  0  0  0  0  0  0  0  0
    1.5180    4.6188    1.8633 H   0  0  0  0  0  0  0  0  0  0  0  0
    2.1868   -0.4729   -0.6914 H   0  0  0  0  0  0  0  0  0  0  0  0
    4.9434    1.6175    0.9194 H   0  0  0  0  0  0  0  0  0  0  0  0
    6.9028    0.5093    0.3515 H   0  0  0  0  0  0  0  0  0  0  0  0
    7.9391   -4.4348   -0.1524 H   0  0  0  0  0  0  0  0  0  0  0  0
    8.3210   -2.2258   -3.7765 H   0  0  0  0  0  0  0  0  0  0  0  0
    0.7612   -1.5637   -1.5290 H   0  0  0  0  0  0  0  0  0  0  0  0
   -1.0555   -2.8313   -2.5218 H   0  0  0  0  0  0  0  0  0  0  0  0
   -3.3796   -2.0302   -2.1949 H   0  0  0  0  0  0  0  0  0  0  0  0
   -1.9448    1.2484    0.0896 H   0  0  0  0  0  0  0  0  0  0  0  0
   -3.6193    2.1436   -0.7697 H   0  0  0  0  0  0  0  0  0  0  0  0
   -5.9087    2.9512   -0.4480 H   0  0  0  0  0  0  0  0  0  0  0  0
   -7.8087    1.3028   -0.3506 H   0  0  0  0  0  0  0  0  0  0  0  0
   -4.9535   -1.8505   -0.9078 H   0  0  0  0  0  0  0  0  0  0  0  0
   -8.3443   -3.3082    0.9698 H   0  0  0  0  0  0  0  0  0  0  0  0
   -8.9224   -1.6411    1.5037 H   0  0  0  0  0  0  0  0  0  0  0  0
   -7.2184   -2.0939    1.7414 H   0  0  0  0  0  0  0  0  0  0  0  0
  1  2  1  0
  2  3  1  0
  3  4  1  0
  4  5  2  0
  5  6  1  0
  6  7  2  0
  7  8  1  0
  8  9  1  0
  9 10  2  0
  9 11  1  0
 11 12  1  0
 12 13  2  0
 13 14  1  0
 13 15  1  0
 15 16  2  0
 16 17  1  0
 17 18  2  0
 18 19  1  0
  7 20  1  0
 20 21  2  0
  5 22  1  0
 22 23  2  0
 23 24  1  0
 24 25  2  0
 25 26  1  0
 26 27  2  0
 26 28  1  0
 28 29  2  0
 29 30  1  0
 30 31  2  0
 31 32  1  0
 32 33  2  0
 32 34  1  0
 34 35  1  0
 34 36  2  0
 34 37  2  0
 20  3  1  0
 27 22  1  0
 33 28  1  0
 18 12  1  0
  1 38  1  0
  1 39  1  0
  1 40  1  0
  2 41  1  0
  2 42  1  0
  6 43  1  0
  8 44  1  0
 11 45  1  0
 15 46  1  0
 17 47  1  0
 23 48  1  0
 24 49  1  0
 25 50  1  0
 27 51  1  0
 29 52  1  0
 30 53  1  0
 31 54  1  0
 33 55  1  0
 35 56  1  0
 35 57  1  0
 35 58  1  0
M  END
$$$$
[H]c1nc(C([H])([H])[H])c(-c2c([H])c(N3C([H])([H])C([H])([H])OC([H])([H])C3([H])[H])c(=O)n(C([H])([H])[H])c2[H])c([H])c1N([H])C(=O)c1c([H])c([H])c([H])c(C(F)(F)F)c1[H]
     RDKit          3D

 57 60  0  0  0  0  0  0  0  0999 V2000
   -1.5907   -1.8892    1.7998 C   0  0  0  0  0  0  0  0  0  0  0  0
   -0.3908   -1.0353    1.4727 C   0  0  0  0  0  0  0  0  0  0  0  0
    0.7194   -1.2401    2.2396 N   0  0  0  0  0  0  0  0  0  0  0  0
    1.8571   -0.5841    1.9552 C   0  0  0  0  0  0  0  0  0  0  0  0
    1.9439    0.3236    0.8785 C   0  0  0  0  0  0  0  0  0  0  0  0
    3.3050    0.7705    0.6219 N   0  0  0  0  0  0  0  0  0  0  0  0
    4.2104   -0.3080    0.4554 C   0  0  0  0  0  0  0  0  0  0  0  0
    3.6464   -1.5005    0.5229 O   0  0  0  0  0  0  0  0  0  0  0  0
    5.6143   -0.3013    0.2364 C   0  0  0  0  0  0  0  0  0  0  0  0
    6.2439   -1.5452   -0.0687 C   0  0  0  0  0  0  0  0  0  0  0  0
    7.5866   -1.6163   -0.2030 C   0  0  0  0  0  0  0  0  0  0  0  0
    8.4101   -0.5374   -0.0586 C   0  0  0  0  0  0  0  0  0  0  0  0
    7.8317    0.7053    0.2378 C   0  0  0  0  0  0  0  0  0  0  0  0
    6.4418    0.7670    0.3762 C   0  0  0  0  0  0  0  0  0  0  0  0
    8.6671    1.8985    0.3754 C   0  0  0  0  0  0  0  0  0  0  0  0
    7.9424    3.0596    0.2912 F   0  0  0  0  0  0  0  0  0  0  0  0
    9.3198    1.8835    1.6082 F   0  0  0  0  0  0  0  0  0  0  0  0
    9.5997    1.8856   -0.6386 F   0  0  0  0  0  0  0  0  0  0  0  0
    0.8400    0.5219    0.1284 C   0  0  0  0  0  0  0  0  0  0  0  0
   -0.3621   -0.1618    0.4161 C   0  0  0  0  0  0  0  0  0  0  0  0
   -1.5539    0.0289   -0.4161 C   0  0  0  0  0  0  0  0  0  0  0  0
   -2.7848    0.1590    0.2230 C   0  0  0  0  0  0  0  0  0  0  0  0
   -3.9320    0.2225   -0.5673 C   0  0  0  0  0  0  0  0  0  0  0  0
   -5.1736    0.2278    0.0891 N   0  0  0  0  0  0  0  0  0  0  0  0
   -6.2018    1.1889   -0.1813 C   0  0  0  0  0  0  0  0  0  0  0  0
   -6.8827    1.6620    1.1009 C   0  0  0  0  0  0  0  0  0  0  0  0
   -6.4121    1.0522    2.2207 O   0  0  0  0  0  0  0  0  0  0  0  0
   -6.4201   -0.3307    2.1579 C   0  0  0  0  0  0  0  0  0  0  0  0
   -5.4668   -0.8109    1.0731 C   0  0  0  0  0  0  0  0  0  0  0  0
   -3.7701    0.1635   -1.9247 C   0  0  0  0  0  0  0  0  0  0  0  0
   -4.8502    0.2313   -2.6318 O   0  0  0  0  0  0  0  0  0  0  0  0
   -2.5782    0.0439   -2.5497 N   0  0  0  0  0  0  0  0  0  0  0  0
   -2.5919    0.0163   -4.0011 C   0  0  0  0  0  0  0  0  0  0  0  0
   -1.4836   -0.0212   -1.7882 C   0  0  0  0  0  0  0  0  0  0  0  0
   -2.2245   -2.1194    0.9466 H   0  0  0  0  0  0  0  0  0  0  0  0
   -2.1983   -1.4669    2.6327 H   0  0  0  0  0  0  0  0  0  0  0  0
   -1.2118   -2.8441    2.2323 H   0  0  0  0  0  0  0  0  0  0  0  0
    2.7415   -0.7328    2.5696 H   0  0  0  0  0  0  0  0  0  0  0  0
    3.5662    1.7311    0.5658 H   0  0  0  0  0  0  0  0  0  0  0  0
    5.6494   -2.4226   -0.1851 H   0  0  0  0  0  0  0  0  0  0  0  0
    8.0467   -2.5723   -0.4516 H   0  0  0  0  0  0  0  0  0  0  0  0
    9.4754   -0.5681   -0.1572 H   0  0  0  0  0  0  0  0  0  0  0  0
    6.0151    1.7631    0.6099 H   0  0  0  0  0  0  0  0  0  0  0  0
    0.9104    1.1945   -0.7028 H   0  0  0  0  0  0  0  0  0  0  0  0
   -2.8761    0.2240    1.2877 H   0  0  0  0  0  0  0  0  0  0  0  0
   -5.7734    2.0698   -0.7127 H   0  0  0  0  0  0  0  0  0  0  0  0
   -6.9939    0.7821   -0.8432 H   0  0  0  0  0  0  0  0  0  0  0  0
   -6.7211    2.7469    1.1928 H   0  0  0  0  0  0  0  0  0  0  0  0
   -8.0068    1.5470    0.9860 H   0  0  0  0  0  0  0  0  0  0  0  0
   -7.4232   -0.7710    2.0136 H   0  0  0  0  0  0  0  0  0  0  0  0
   -6.0356   -0.6881    3.1332 H   0  0  0  0  0  0  0  0  0  0  0  0
   -5.8608   -1.7332    0.6001 H   0  0  0  0  0  0  0  0  0  0  0  0
   -4.4850   -1.0517    1.5251 H   0  0  0  0  0  0  0  0  0  0  0  0
   -1.5740    0.0880   -4.3855 H   0  0  0  0  0  0  0  0  0  0  0  0
   -3.1325    0.9231   -4.3645 H   0  0  0  0  0  0  0  0  0  0  0  0
   -3.1321   -0.9219   -4.2925 H   0  0  0  0  0  0  0  0  0  0  0  0
   -0.4896   -0.1074   -2.2817 H   0  0  0  0  0  0  0  0  0  0  0  0
  1  2  1  0
  2  3  2  0
  3  4  1  0
  4  5  2  0
  5  6  1  0
  6  7  1  0
  7  8  2  0
  7  9  1  0
  9 10  2  0
 10 11  1  0
 11 12  2  0
 12 13  1  0
 13 14  2  0
 13 15  1  0
 15 16  1  0
 15 17  1  0
 15 18  1  0
  5 19  1  0
 19 20  2  0
 20 21  1  0
 21 22  1  0
 22 23  2  0
 23 24  1  0
 24 25  1  0
 25 26  1  0
 26 27  1  0
 27 28  1  0
 28 29  1  0
 23 30  1  0
 30 31  2  0
 30 32  1  0
 32 33  1  0
 32 34  1  0
 20  2  1  0
 34 21  2  0
 14  9  1  0
 29 24  1  0
  1 35  1  0
  1 36  1  0
  1 37  1  0
  4 38  1  0
  6 39  1  0
 10 40  1  0
 11 41  1  0
 12 42  1  0
 14 43  1  0
 19 44  1  0
 22 45  1  0
 25 46  1  0
 25 47  1  0
 26 48  1  0
 26 49  1  0
 28 50  1  0
 28 51  1  0
 29 52  1  0
 29 53  1  0
 33 54  1  0
 33 55  1  0
 33 56  1  0
 34 57  1  0
M  END
$$$$
[H]c1nc([H])c(Cl)c(N([H])C(=O)N([H])c2c([H])c(-c3c([H])c([H])c([H])c(-c4c([H])c([H])c(S(=O)(=O)C([H])([H])[H])c([H])c4[H])c3[H])nn(C([H])([H])C([H])([H])[H])c2=O)c1Cl
     RDKit          3D

 58 61  0  0  0  0  0  0  0  0999 V2000
   -3.1700   -5.8352   -1.9464 C   0  0  0  0  0  0  0  0  0  0  0  0
   -2.9339   -5.5528   -0.4858 C   0  0  0  0  0  0  0  0  0  0  0  0
   -2.3625   -4.2170   -0.3805 N   0  0  0  0  0  0  0  0  0  0  0  0
   -1.0498   -4.0328   -0.4149 N   0  0  0  0  0  0  0  0  0  0  0  0
   -0.5067   -2.7986   -0.3183 C   0  0  0  0  0  0  0  0  0  0  0  0
   -1.3713   -1.7349   -0.1827 C   0  0  0  0  0  0  0  0  0  0  0  0
   -2.7406   -1.8948   -0.1439 C   0  0  0  0  0  0  0  0  0  0  0  0
   -3.6840   -0.8504   -0.0029 N   0  0  0  0  0  0  0  0  0  0  0  0
   -3.4615    0.5276    0.0914 C   0  0  0  0  0  0  0  0  0  0  0  0
   -2.3324    1.0386    0.0590 O   0  0  0  0  0  0  0  0  0  0  0  0
   -4.5651    1.4462    0.2347 N   0  0  0  0  0  0  0  0  0  0  0  0
   -4.3713    2.8423    0.3295 C   0  0  0  0  0  0  0  0  0  0  0  0
   -4.1936    3.4307    1.5452 C   0  0  0  0  0  0  0  0  0  0  0  0
   -4.1965    2.5046    3.0029 Cl  0  0  0  0  0  0  0  0  0  0  0  0
   -4.0081    4.7946    1.6038 C   0  0  0  0  0  0  0  0  0  0  0  0
   -4.0033    5.5295    0.4769 N   0  0  0  0  0  0  0  0  0  0  0  0
   -4.1761    4.9759   -0.7358 C   0  0  0  0  0  0  0  0  0  0  0  0
   -4.3611    3.6185   -0.7986 C   0  0  0  0  0  0  0  0  0  0  0  0
   -4.5871    2.8915   -2.3725 Cl  0  0  0  0  0  0  0  0  0  0  0  0
   -3.2281   -3.2049   -0.2496 C   0  0  0  0  0  0  0  0  0  0  0  0
   -4.4653   -3.3887   -0.2180 O   0  0  0  0  0  0  0  0  0  0  0  0
    0.9223   -2.5815   -0.3534 C   0  0  0  0  0  0  0  0  0  0  0  0
    1.7213   -3.7287   -0.5080 C   0  0  0  0  0  0  0  0  0  0  0  0
    3.0941   -3.6676   -0.5534 C   0  0  0  0  0  0  0  0  0  0  0  0
    3.6871   -2.4262   -0.4413 C   0  0  0  0  0  0  0  0  0  0  0  0
    2.9601   -1.2696   -0.2884 C   0  0  0  0  0  0  0  0  0  0  0  0
    1.5693   -1.3838   -0.2481 C   0  0  0  0  0  0  0  0  0  0  0  0
    3.5892    0.0415   -0.1665 C   0  0  0  0  0  0  0  0  0  0  0  0
    4.8235    0.2010    0.4326 C   0  0  0  0  0  0  0  0  0  0  0  0
    5.4240    1.4367    0.5531 C   0  0  0  0  0  0  0  0  0  0  0  0
    4.8198    2.5823    0.0792 C   0  0  0  0  0  0  0  0  0  0  0  0
    3.5863    2.4299   -0.5206 C   0  0  0  0  0  0  0  0  0  0  0  0
    2.9883    1.1915   -0.6394 C   0  0  0  0  0  0  0  0  0  0  0  0
    5.5885    4.1511    0.2362 S   0  0  0  0  0  0  0  0  0  0  0  0
    5.1319    4.9429    1.7581 C   0  0  0  0  0  0  0  0  0  0  0  0
    7.0870    4.0410    0.2198 O   0  0  0  0  0  0  0  0  0  0  0  0
    5.1817    5.0432   -0.8931 O   0  0  0  0  0  0  0  0  0  0  0  0
   -2.8175   -6.8476   -2.2108 H   0  0  0  0  0  0  0  0  0  0  0  0
   -2.6288   -5.1173   -2.5793 H   0  0  0  0  0  0  0  0  0  0  0  0
   -4.2596   -5.6998   -2.2018 H   0  0  0  0  0  0  0  0  0  0  0  0
   -3.9099   -5.6068    0.0351 H   0  0  0  0  0  0  0  0  0  0  0  0
   -2.2848   -6.3118   -0.0058 H   0  0  0  0  0  0  0  0  0  0  0  0
   -0.9438   -0.7477   -0.1047 H   0  0  0  0  0  0  0  0  0  0  0  0
   -4.7340   -1.1120    0.0431 H   0  0  0  0  0  0  0  0  0  0  0  0
   -5.5160    1.0147    0.2636 H   0  0  0  0  0  0  0  0  0  0  0  0
   -3.8649    5.2792    2.5669 H   0  0  0  0  0  0  0  0  0  0  0  0
   -4.1726    5.5740   -1.6577 H   0  0  0  0  0  0  0  0  0  0  0  0
    1.2493   -4.7130   -0.5966 H   0  0  0  0  0  0  0  0  0  0  0  0
    3.6974   -4.5713   -0.6746 H   0  0  0  0  0  0  0  0  0  0  0  0
    4.7776   -2.3092   -0.4697 H   0  0  0  0  0  0  0  0  0  0  0  0
    0.9700   -0.4857   -0.1275 H   0  0  0  0  0  0  0  0  0  0  0  0
    5.3010   -0.6980    0.8057 H   0  0  0  0  0  0  0  0  0  0  0  0
    6.4063    1.5553    1.0311 H   0  0  0  0  0  0  0  0  0  0  0  0
    3.1092    3.3265   -0.8937 H   0  0  0  0  0  0  0  0  0  0  0  0
    2.0063    1.0738   -1.1175 H   0  0  0  0  0  0  0  0  0  0  0  0
    5.9027    5.7058    2.0095 H   0  0  0  0  0  0  0  0  0  0  0  0
    4.1419    5.3966    1.7313 H   0  0  0  0  0  0  0  0  0  0  0  0
    5.1645    4.2009    2.6064 H   0  0  0  0  0  0  0  0  0  0  0  0
  1  2  1  0
  2  3  1  0
  3  4  1  0
  4  5  2  0
  5  6  1  0
  6  7  2  0
  7  8  1  0
  8  9  1  0
  9 10  2  0
  9 11  1  0
 11 12  1  0
 12 13  2  0
 13 14  1  0
 13 15  1  0
 15 16  2  0
 16 17  1  0
 17 18  2  0
 18 19  1  0
  7 20  1  0
 20 21  2  0
  5 22  1  0
 22 23  2  0
 23 24  1  0
 24 25  2  0
 25 26  1  0
 26 27  2  0
 26 28  1  0
 28 29  2  0
 29 30  1  0
 30 31  2  0
 31 32  1  0
 32 33  2  0
 31 34  1  0
 34 35  1  0
 34 36  2  0
 34 37  2  0
 20  3  1  0
 27 22  1  0
 33 28  1  0
 18 12  1  0
  1 38  1  0
  1 39  1  0
  1 40  1  0
  2 41  1  0
  2 42  1  0
  6 43  1  0
  8 44  1  0
 11 45  1  0
 15 46  1  0
 17 47  1  0
 23 48  1  0
 24 49  1  0
 25 50  1  0
 27 51  1  0
 29 52  1  0
 30 53  1  0
 32 54  1  0
 33 55  1  0
 35 56  1  0
 35 57  1  0
 35 58  1  0
M  END
$$$$
[H]N=C(N([H])[H])N([H])C([H])([H])C([H])([H])C([H])([H])[C@@]([H])(C(=O)c1nc2c([H])c([H])c([H])c([H])c2s1)N([H])C(=O)[C@@]([H])(N([H])C(=O)[C@@]([H])(N([H])C(=O)[C@@]([H])(N([H])C(=O)C([H])([H])[H])C([H])([H])C([H])([H])C([H])([H])N([H])C(=N[H])N([H])[H])C([H])([H])C([H])([H])C([H])([H])N([H])C(=N[H])N([H])[H])C([H])([H])C([H])([H])C([H])([H])N([H])C(=N[H])N([H])[H]
     RDKit          3D

111112  0  0  0  0  0  0  0  0999 V2000
   -7.7795    0.1512    3.9594 C   0  0  0  0  0  0  0  0  0  0  0  0
   -7.1872   -0.0770    2.6325 C   0  0  0  0  0  0  0  0  0  0  0  0
   -7.9521   -0.3597    1.6737 O   0  0  0  0  0  0  0  0  0  0  0  0
   -5.7863    0.0262    2.4680 N   0  0  0  0  0  0  0  0  0  0  0  0
   -5.1541   -0.1928    1.1717 C   0  0  1  0  0  0  0  0  0  0  0  0
   -4.5850    1.1650    0.7422 C   0  0  0  0  0  0  0  0  0  0  0  0
   -5.6979    2.1705    0.6305 C   0  0  0  0  0  0  0  0  0  0  0  0
   -5.0600    3.5005    0.2193 C   0  0  0  0  0  0  0  0  0  0  0  0
   -6.0531    4.5351    0.0804 N   0  0  0  0  0  0  0  0  0  0  0  0
   -5.6484    5.8468   -0.2792 C   0  0  0  0  0  0  0  0  0  0  0  0
   -5.3178    6.7422    0.7756 N   0  0  0  0  0  0  0  0  0  0  0  0
   -5.5741    6.2366   -1.5036 N   0  0  0  0  0  0  0  0  0  0  0  0
   -4.0327   -1.1597    1.2474 C   0  0  0  0  0  0  0  0  0  0  0  0
   -3.7526   -1.6268    2.3879 O   0  0  0  0  0  0  0  0  0  0  0  0
   -3.3316   -1.5253    0.1067 N   0  0  0  0  0  0  0  0  0  0  0  0
   -2.2198   -2.4464    0.0094 C   0  0  1  0  0  0  0  0  0  0  0  0
   -2.6251   -3.6995   -0.7844 C   0  0  0  0  0  0  0  0  0  0  0  0
   -3.7701   -4.3725   -0.0694 C   0  0  0  0  0  0  0  0  0  0  0  0
   -4.2221   -5.6140   -0.7839 C   0  0  0  0  0  0  0  0  0  0  0  0
   -3.1417   -6.5526   -0.8835 N   0  0  0  0  0  0  0  0  0  0  0  0
   -2.6306   -7.1882    0.2736 C   0  0  0  0  0  0  0  0  0  0  0  0
   -3.5103   -7.5001    1.3559 N   0  0  0  0  0  0  0  0  0  0  0  0
   -1.3859   -7.5097    0.4064 N   0  0  0  0  0  0  0  0  0  0  0  0
   -1.0965   -1.8508   -0.7570 C   0  0  0  0  0  0  0  0  0  0  0  0
   -1.2069   -0.6748   -1.1283 O   0  0  0  0  0  0  0  0  0  0  0  0
    0.0355   -2.6298   -1.0374 N   0  0  0  0  0  0  0  0  0  0  0  0
    1.2050   -2.0774   -1.8346 C   0  0  1  0  0  0  0  0  0  0  0  0
    0.6573   -1.9005   -3.1588 C   0  0  0  0  0  0  0  0  0  0  0  0
    1.2840   -1.3938   -4.3634 C   0  0  0  0  0  0  0  0  0  0  0  0
    1.6868    0.0285   -4.3993 C   0  0  0  0  0  0  0  0  0  0  0  0
    0.4911    0.8338   -4.1402 N   0  0  0  0  0  0  0  0  0  0  0  0
    0.5786    2.2408   -4.1138 C   0  0  0  0  0  0  0  0  0  0  0  0
    1.4027    2.9529   -5.0107 N   0  0  0  0  0  0  0  0  0  0  0  0
   -0.1183    2.8989   -3.2448 N   0  0  0  0  0  0  0  0  0  0  0  0
    1.8754   -1.1394   -0.9964 C   0  0  0  0  0  0  0  0  0  0  0  0
    1.3079   -0.8299    0.1396 O   0  0  0  0  0  0  0  0  0  0  0  0
    3.1039   -0.4533   -1.1597 N   0  0  0  0  0  0  0  0  0  0  0  0
    3.6749    0.4547   -0.1905 C   0  0  1  0  0  0  0  0  0  0  0  0
    5.0898   -0.0693    0.0572 C   0  0  0  0  0  0  0  0  0  0  0  0
    5.0970   -1.4823    0.5957 C   0  0  0  0  0  0  0  0  0  0  0  0
    6.5513   -1.8614    0.7741 C   0  0  0  0  0  0  0  0  0  0  0  0
    7.2359   -0.9890    1.7092 N   0  0  0  0  0  0  0  0  0  0  0  0
    8.6206   -1.1354    1.9951 C   0  0  0  0  0  0  0  0  0  0  0  0
    9.5920   -0.4059    1.2424 N   0  0  0  0  0  0  0  0  0  0  0  0
    9.0562   -1.9146    2.9245 N   0  0  0  0  0  0  0  0  0  0  0  0
    3.7837    1.8503   -0.6453 C   0  0  0  0  0  0  0  0  0  0  0  0
    3.4188    2.1699   -1.7909 O   0  0  0  0  0  0  0  0  0  0  0  0
    4.3241    2.9025    0.2391 C   0  0  0  0  0  0  0  0  0  0  0  0
    4.7718    2.8188    1.4720 N   0  0  0  0  0  0  0  0  0  0  0  0
    5.2067    3.8744    2.0936 C   0  0  0  0  0  0  0  0  0  0  0  0
    5.7047    3.9199    3.4034 C   0  0  0  0  0  0  0  0  0  0  0  0
    6.1382    5.0864    3.9736 C   0  0  0  0  0  0  0  0  0  0  0  0
    6.1036    6.2660    3.2823 C   0  0  0  0  0  0  0  0  0  0  0  0
    5.6228    6.2610    1.9966 C   0  0  0  0  0  0  0  0  0  0  0  0
    5.1764    5.0637    1.4087 C   0  0  0  0  0  0  0  0  0  0  0  0
    4.5203    4.5818   -0.0919 S   0  0  0  0  0  0  0  0  0  0  0  0
   -8.7474    0.6969    3.8505 H   0  0  0  0  0  0  0  0  0  0  0  0
   -8.0226   -0.7844    4.5029 H   0  0  0  0  0  0  0  0  0  0  0  0
   -7.0588    0.7064    4.6018 H   0  0  0  0  0  0  0  0  0  0  0  0
   -5.1757    0.2611    3.2715 H   0  0  0  0  0  0  0  0  0  0  0  0
   -5.9052   -0.4566    0.3896 H   0  0  0  0  0  0  0  0  0  0  0  0
   -4.1718    1.0230   -0.2931 H   0  0  0  0  0  0  0  0  0  0  0  0
   -3.7759    1.5139    1.3776 H   0  0  0  0  0  0  0  0  0  0  0  0
   -6.3109    2.2880    1.5228 H   0  0  0  0  0  0  0  0  0  0  0  0
   -6.3956    1.9107   -0.2177 H   0  0  0  0  0  0  0  0  0  0  0  0
   -4.3332    3.8165    1.0117 H   0  0  0  0  0  0  0  0  0  0  0  0
   -4.4861    3.4040   -0.7202 H   0  0  0  0  0  0  0  0  0  0  0  0
   -7.0522    4.3280    0.2393 H   0  0  0  0  0  0  0  0  0  0  0  0
   -5.7283    7.6934    0.8600 H   0  0  0  0  0  0  0  0  0  0  0  0
   -4.6276    6.4670    1.5330 H   0  0  0  0  0  0  0  0  0  0  0  0
   -5.2735    7.2071   -1.7437 H   0  0  0  0  0  0  0  0  0  0  0  0
   -3.6328   -1.0857   -0.8212 H   0  0  0  0  0  0  0  0  0  0  0  0
   -1.8741   -2.7719    0.9883 H   0  0  0  0  0  0  0  0  0  0  0  0
   -2.8658   -3.4444   -1.8362 H   0  0  0  0  0  0  0  0  0  0  0  0
   -1.7953   -4.4204   -0.8231 H   0  0  0  0  0  0  0  0  0  0  0  0
   -4.6052   -3.6398   -0.0244 H   0  0  0  0  0  0  0  0  0  0  0  0
   -3.4419   -4.6060    0.9575 H   0  0  0  0  0  0  0  0  0  0  0  0
   -4.6085   -5.3378   -1.7875 H   0  0  0  0  0  0  0  0  0  0  0  0
   -5.0745   -6.0280   -0.1874 H   0  0  0  0  0  0  0  0  0  0  0  0
   -2.7353   -6.7613   -1.8164 H   0  0  0  0  0  0  0  0  0  0  0  0
   -3.3331   -7.1070    2.3027 H   0  0  0  0  0  0  0  0  0  0  0  0
   -4.3231   -8.1203    1.1878 H   0  0  0  0  0  0  0  0  0  0  0  0
   -0.7499   -7.2751   -0.3976 H   0  0  0  0  0  0  0  0  0  0  0  0
    0.0874   -3.6034   -0.6997 H   0  0  0  0  0  0  0  0  0  0  0  0
    1.8772   -3.0437   -1.8729 H   0  0  0  0  0  0  0  0  0  0  0  0
   -0.3938   -1.4210   -3.1451 H   0  0  0  0  0  0  0  0  0  0  0  0
    0.2914   -2.9969   -3.4539 H   0  0  0  0  0  0  0  0  0  0  0  0
    0.5243   -1.5117   -5.2263 H   0  0  0  0  0  0  0  0  0  0  0  0
    2.1172   -2.0683   -4.7550 H   0  0  0  0  0  0  0  0  0  0  0  0
    2.4880    0.3687   -3.7773 H   0  0  0  0  0  0  0  0  0  0  0  0
    2.0267    0.2737   -5.4747 H   0  0  0  0  0  0  0  0  0  0  0  0
   -0.4536    0.4257   -3.9689 H   0  0  0  0  0  0  0  0  0  0  0  0
    2.1860    2.4922   -5.5184 H   0  0  0  0  0  0  0  0  0  0  0  0
    1.2387    3.9660   -5.1824 H   0  0  0  0  0  0  0  0  0  0  0  0
   -0.7344    2.4009   -2.5747 H   0  0  0  0  0  0  0  0  0  0  0  0
    3.6506   -0.6127   -2.0266 H   0  0  0  0  0  0  0  0  0  0  0  0
    3.1269    0.4148    0.7737 H   0  0  0  0  0  0  0  0  0  0  0  0
    5.6978    0.5885    0.6756 H   0  0  0  0  0  0  0  0  0  0  0  0
    5.6443   -0.1328   -0.9290 H   0  0  0  0  0  0  0  0  0  0  0  0
    4.5986   -2.1343   -0.1213 H   0  0  0  0  0  0  0  0  0  0  0  0
    4.6281   -1.5546    1.5984 H   0  0  0  0  0  0  0  0  0  0  0  0
    7.1081   -1.8298   -0.1906 H   0  0  0  0  0  0  0  0  0  0  0  0
    6.6792   -2.9035    1.1734 H   0  0  0  0  0  0  0  0  0  0  0  0
    6.7336   -0.2232    2.2108 H   0  0  0  0  0  0  0  0  0  0  0  0
   10.3471    0.1708    1.6686 H   0  0  0  0  0  0  0  0  0  0  0  0
    9.5414   -0.4556    0.2069 H   0  0  0  0  0  0  0  0  0  0  0  0
    8.3316   -2.4472    3.4718 H   0  0  0  0  0  0  0  0  0  0  0  0
    5.7684    3.0301    4.0231 H   0  0  0  0  0  0  0  0  0  0  0  0
    6.5276    5.0817    5.0185 H   0  0  0  0  0  0  0  0  0  0  0  0
    6.4374    7.1686    3.7264 H   0  0  0  0  0  0  0  0  0  0  0  0
    5.5512    7.1334    1.3602 H   0  0  0  0  0  0  0  0  0  0  0  0
  1  2  1  0
  2  3  2  0
  2  4  1  0
  4  5  1  0
  5  6  1  0
  6  7  1  0
  7  8  1  0
  8  9  1  0
  9 10  1  0
 10 11  1  0
 10 12  2  3
  5 13  1  0
 13 14  2  0
 13 15  1  0
 15 16  1  0
 16 17  1  0
 17 18  1  0
 18 19  1  0
 19 20  1  0
 20 21  1  0
 21 22  1  0
 21 23  2  3
 16 24  1  0
 24 25  2  0
 24 26  1  0
 26 27  1  0
 27 28  1  0
 28 29  1  0
 29 30  1  0
 30 31  1  0
 31 32  1  0
 32 33  1  0
 32 34  2  3
 27 35  1  0
 35 36  2  0
 35 37  1  0
 37 38  1  0
 38 39  1  0
 39 40  1  0
 40 41  1  0
 41 42  1  0
 42 43  1  0
 43 44  1  0
 43 45  2  3
 38 46  1  0
 46 47  2  0
 46 48  1  0
 48 49  2  0
 49 50  1  0
 50 51  2  0
 51 52  1  0
 52 53  2  0
 53 54  1  0
 54 55  2  0
 55 56  1  0
 56 48  1  0
 55 50  1  0
  1 57  1  0
  1 58  1  0
  1 59  1  0
  4 60  1  0
  5 61  1  6
  6 62  1  0
  6 63  1  0
  7 64  1  0
  7 65  1  0
  8 66  1  0
  8 67  1  0
  9 68  1  0
 11 69  1  0
 11 70  1  0
 12 71  1  0
 15 72  1  0
 16 73  1  1
 17 74  1  0
 17 75  1  0
 18 76  1  0
 18 77  1  0
 19 78  1  0
 19 79  1  0
 20 80  1  0
 22 81  1  0
 22 82  1  0
 23 83  1  0
 26 84  1  0
 27 85  1  6
 28 86  1  0
 28 87  1  0
 29 88  1  0
 29 89  1  0
 30 90  1  0
 30 91  1  0
 31 92  1  0
 33 93  1  0
 33 94  1  0
 34 95  1  0
 37 96  1  0
 38 97  1  1
 39 98  1  0
 39 99  1  0
 40100  1  0
 40101  1  0
 41102  1  0
 41103  1  0
 42104  1  0
 44105  1  0
 44106  1  0
 45107  1  0
 51108  1  0
 52109  1  0
 53110  1  0
 54111  1  0
M  END
$$$$
[H]OC([H])([H])C([H])(O[H])c1[se]c(-c2c([H])c([H])c(OC([H])(C([H])([H])[H])C([H])([H])[H])c(C#N)c2[H])nc1C([H])([H])[H]
     RDKit          3D

 40 41  0  0  0  0  0  0  0  0999 V2000
    6.1378    1.7482    0.1488 C   0  0  0  0  0  0  0  0  0  0  0  0
    5.3435    0.4758   -0.0660 C   0  0  0  0  0  0  0  0  0  0  0  0
    6.2260   -0.6842    0.4070 C   0  0  0  0  0  0  0  0  0  0  0  0
    4.2174    0.4884    0.7413 O   0  0  0  0  0  0  0  0  0  0  0  0
    2.9038    0.3433    0.3856 C   0  0  0  0  0  0  0  0  0  0  0  0
    2.4721    0.1492   -0.9091 C   0  0  0  0  0  0  0  0  0  0  0  0
    1.1423    0.0100   -1.2076 C   0  0  0  0  0  0  0  0  0  0  0  0
    0.1809    0.0596   -0.2149 C   0  0  0  0  0  0  0  0  0  0  0  0
    0.6058    0.2539    1.0865 C   0  0  0  0  0  0  0  0  0  0  0  0
    1.9401    0.3925    1.3774 C   0  0  0  0  0  0  0  0  0  0  0  0
    2.3804    0.5961    2.7467 C   0  0  0  0  0  0  0  0  0  0  0  0
    2.7256    0.7463    3.8407 N   0  0  0  0  0  0  0  0  0  0  0  0
   -1.1917   -0.0925   -0.5884 C   0  0  0  0  0  0  0  0  0  0  0  0
   -2.0629   -0.2678   -1.4288 N   0  0  0  0  0  0  0  0  0  0  0  0
   -3.3103   -0.3691   -1.5066 C   0  0  0  0  0  0  0  0  0  0  0  0
   -4.0173   -0.5980   -2.8517 C   0  0  0  0  0  0  0  0  0  0  0  0
   -4.1321   -0.2841   -0.4163 C   0  0  0  0  0  0  0  0  0  0  0  0
   -2.6783    0.0188    1.0659 Se  0  0  0  0  0  2  0  0  0  0  0  0
   -5.5666   -0.3522   -0.1530 C   0  0  0  0  0  0  0  0  0  0  0  0
   -6.1898   -1.4703   -0.6597 O   0  0  0  0  0  0  0  0  0  0  0  0
   -5.7821   -0.2034    1.3465 C   0  0  0  0  0  0  0  0  0  0  0  0
   -5.2812   -1.3010    2.0328 O   0  0  0  0  0  0  0  0  0  0  0  0
    7.1472    1.6379   -0.2849 H   0  0  0  0  0  0  0  0  0  0  0  0
    6.2752    1.8342    1.2604 H   0  0  0  0  0  0  0  0  0  0  0  0
    5.6032    2.6492   -0.1665 H   0  0  0  0  0  0  0  0  0  0  0  0
    5.0831    0.3385   -1.1155 H   0  0  0  0  0  0  0  0  0  0  0  0
    7.1670   -0.3206    0.8643 H   0  0  0  0  0  0  0  0  0  0  0  0
    5.7090   -1.3124    1.1513 H   0  0  0  0  0  0  0  0  0  0  0  0
    6.4904   -1.3110   -0.4824 H   0  0  0  0  0  0  0  0  0  0  0  0
    3.1680    0.1032   -1.7094 H   0  0  0  0  0  0  0  0  0  0  0  0
    0.7764   -0.1440   -2.2237 H   0  0  0  0  0  0  0  0  0  0  0  0
   -0.1227    0.2985    1.8952 H   0  0  0  0  0  0  0  0  0  0  0  0
   -4.7826   -1.4039   -2.7287 H   0  0  0  0  0  0  0  0  0  0  0  0
   -4.5383    0.2978   -3.1717 H   0  0  0  0  0  0  0  0  0  0  0  0
   -3.3322   -0.9035   -3.6390 H   0  0  0  0  0  0  0  0  0  0  0  0
   -6.0536    0.5344   -0.6189 H   0  0  0  0  0  0  0  0  0  0  0  0
   -7.1541   -1.4717   -0.4497 H   0  0  0  0  0  0  0  0  0  0  0  0
   -6.8493   -0.0326    1.5432 H   0  0  0  0  0  0  0  0  0  0  0  0
   -5.2270    0.6883    1.7040 H   0  0  0  0  0  0  0  0  0  0  0  0
   -5.4230   -1.1420    2.9952 H   0  0  0  0  0  0  0  0  0  0  0  0
  1  2  1  0
  2  3  1  0
  2  4  1  0
  4  5  1  0
  5  6  2  0
  6  7  1  0
  7  8  2  0
  8  9  1  0
  9 10  2  0
 10 11  1  0
 11 12  3  0
  8 13  1  0
 13 14  2  0
 14 15  1  0
 15 16  1  0
 15 17  2  0
 17 18  1  0
 17 19  1  0
 19 20  1  0
 19 21  1  0
 21 22  1  0
 10  5  1  0
 18 13  1  0
  1 23  1  0
  1 24  1  0
  1 25  1  0
  2 26  1  0
  3 27  1  0
  3 28  1  0
  3 29  1  0
  6 30  1  0
  7 31  1  0
  9 32  1  0
 16 33  1  0
 16 34  1  0
 16 35  1  0
 19 36  1  0
 20 37  1  0
 21 38  1  0
 21 39  1  0
 22 40  1  0
M  END
$$$$
[H]c1c([H])c([H])c(C([H])([H])C([H])([H])N([H])C(=O)C(=O)[C@@]([H])(N([H])C(=O)[C@@]2([H])N(C(=O)C3(c4c([H])c([H])c(Cl)c([H])c4[H])C([H])([H])C3([H])[H])C([H])([H])[C@]([H])(S(=O)(=O)c3c([H])c([H])c([H])c([H])c3Cl)C2([H])[H])C([H])([H])C([H])([H])[H])c([H])c1[H]
     RDKit          3D

 81 85  0  0  0  0  0  0  0  0999 V2000
    3.3221   -2.1155    1.5279 C   0  0  0  0  0  0  0  0  0  0  0  0
    3.2477   -0.6238    1.6469 C   0  0  0  0  0  0  0  0  0  0  0  0
    2.4665    0.0036    0.4716 C   0  0  2  0  0  0  0  0  0  0  0  0
    1.1147   -0.5341    0.4781 N   0  0  0  0  0  0  0  0  0  0  0  0
   -0.0277    0.2910    0.7749 C   0  0  0  0  0  0  0  0  0  0  0  0
    0.1927    1.4951    1.0321 O   0  0  0  0  0  0  0  0  0  0  0  0
   -1.3108   -0.3198    0.7531 C   0  0  2  0  0  0  0  0  0  0  0  0
   -1.5309   -1.3464   -0.3858 C   0  0  0  0  0  0  0  0  0  0  0  0
   -3.0605   -1.6363   -0.2665 C   0  0  2  0  0  0  0  0  0  0  0  0
   -3.4683   -0.7685    0.8912 C   0  0  0  0  0  0  0  0  0  0  0  0
   -2.5444    0.3713    0.6403 N   0  0  0  0  0  0  0  0  0  0  0  0
   -2.8943    1.6529    0.3113 C   0  0  0  0  0  0  0  0  0  0  0  0
   -1.9187    2.4513   -0.0745 O   0  0  0  0  0  0  0  0  0  0  0  0
   -4.1809    2.3706    0.2944 C   0  0  0  0  0  0  0  0  0  0  0  0
   -5.3419    1.6981   -0.3479 C   0  0  0  0  0  0  0  0  0  0  0  0
   -5.3678    1.9590    1.0855 C   0  0  0  0  0  0  0  0  0  0  0  0
   -4.0773    3.8674    0.1391 C   0  0  0  0  0  0  0  0  0  0  0  0
   -4.8341    4.5698   -0.7474 C   0  0  0  0  0  0  0  0  0  0  0  0
   -4.6747    5.9558   -0.8110 C   0  0  0  0  0  0  0  0  0  0  0  0
   -3.7880    6.6431   -0.0191 C   0  0  0  0  0  0  0  0  0  0  0  0
   -3.6259    8.4014   -0.1406 Cl  0  0  0  0  0  0  0  0  0  0  0  0
   -3.0227    5.9274    0.8778 C   0  0  0  0  0  0  0  0  0  0  0  0
   -3.1700    4.5571    0.9514 C   0  0  0  0  0  0  0  0  0  0  0  0
   -3.3222   -3.3465   -0.1484 S   0  0  0  0  0  0  0  0  0  0  0  0
   -2.7532   -3.8155    1.1753 O   0  0  0  0  0  0  0  0  0  0  0  0
   -2.5084   -4.0149   -1.2574 O   0  0  0  0  0  0  0  0  0  0  0  0
   -4.9839   -3.8026   -0.2721 C   0  0  0  0  0  0  0  0  0  0  0  0
   -5.4246   -4.3187   -1.5016 C   0  0  0  0  0  0  0  0  0  0  0  0
   -6.7337   -4.6420   -1.7064 C   0  0  0  0  0  0  0  0  0  0  0  0
   -7.6654   -4.4770   -0.7263 C   0  0  0  0  0  0  0  0  0  0  0  0
   -7.2685   -3.9759    0.4886 C   0  0  0  0  0  0  0  0  0  0  0  0
   -5.9186   -3.6439    0.6999 C   0  0  0  0  0  0  0  0  0  0  0  0
   -5.4208   -3.0891    2.2925 Cl  0  0  0  0  0  0  0  0  0  0  0  0
    3.1624   -0.4308   -0.7559 C   0  0  0  0  0  0  0  0  0  0  0  0
    2.5901   -1.2439   -1.5416 O   0  0  0  0  0  0  0  0  0  0  0  0
    4.5025    0.0288   -1.1360 C   0  0  0  0  0  0  0  0  0  0  0  0
    5.0320    0.8650   -0.3781 O   0  0  0  0  0  0  0  0  0  0  0  0
    5.1619   -0.4342   -2.2789 N   0  0  0  0  0  0  0  0  0  0  0  0
    6.4193   -0.1736   -2.8335 C   0  0  0  0  0  0  0  0  0  0  0  0
    7.6833   -0.5818   -2.2285 C   0  0  0  0  0  0  0  0  0  0  0  0
    8.0167   -0.1066   -0.9065 C   0  0  0  0  0  0  0  0  0  0  0  0
    8.5726    1.1708   -0.7589 C   0  0  0  0  0  0  0  0  0  0  0  0
    8.9628    1.6118    0.4809 C   0  0  0  0  0  0  0  0  0  0  0  0
    8.8000    0.7850    1.5674 C   0  0  0  0  0  0  0  0  0  0  0  0
    8.2552   -0.4780    1.4501 C   0  0  0  0  0  0  0  0  0  0  0  0
    7.8593   -0.9360    0.2180 C   0  0  0  0  0  0  0  0  0  0  0  0
    4.3517   -2.5057    1.4787 H   0  0  0  0  0  0  0  0  0  0  0  0
    2.7979   -2.4725    0.6134 H   0  0  0  0  0  0  0  0  0  0  0  0
    2.7941   -2.5668    2.4015 H   0  0  0  0  0  0  0  0  0  0  0  0
    4.2550   -0.1919    1.6168 H   0  0  0  0  0  0  0  0  0  0  0  0
    2.7644   -0.3213    2.6053 H   0  0  0  0  0  0  0  0  0  0  0  0
    2.5121    1.0902    0.6551 H   0  0  0  0  0  0  0  0  0  0  0  0
    0.9756   -1.5255    0.2656 H   0  0  0  0  0  0  0  0  0  0  0  0
   -1.4060   -0.9793    1.7167 H   0  0  0  0  0  0  0  0  0  0  0  0
   -1.2701   -0.9506   -1.3607 H   0  0  0  0  0  0  0  0  0  0  0  0
   -1.0248   -2.2836   -0.1971 H   0  0  0  0  0  0  0  0  0  0  0  0
   -3.5180   -1.2634   -1.2295 H   0  0  0  0  0  0  0  0  0  0  0  0
   -4.4979   -0.5233    0.9291 H   0  0  0  0  0  0  0  0  0  0  0  0
   -3.0508   -1.2311    1.8180 H   0  0  0  0  0  0  0  0  0  0  0  0
   -6.0749    2.2786   -0.9945 H   0  0  0  0  0  0  0  0  0  0  0  0
   -5.2084    0.6945   -0.8249 H   0  0  0  0  0  0  0  0  0  0  0  0
   -5.1834    1.3073    1.9207 H   0  0  0  0  0  0  0  0  0  0  0  0
   -6.0797    2.7975    1.3920 H   0  0  0  0  0  0  0  0  0  0  0  0
   -5.5620    4.0951   -1.4197 H   0  0  0  0  0  0  0  0  0  0  0  0
   -5.2988    6.4814   -1.5335 H   0  0  0  0  0  0  0  0  0  0  0  0
   -2.3256    6.4524    1.5024 H   0  0  0  0  0  0  0  0  0  0  0  0
   -2.5446    4.0547    1.6736 H   0  0  0  0  0  0  0  0  0  0  0  0
   -4.6739   -4.4450   -2.2716 H   0  0  0  0  0  0  0  0  0  0  0  0
   -7.0516   -5.0383   -2.6622 H   0  0  0  0  0  0  0  0  0  0  0  0
   -8.7142   -4.7251   -0.8628 H   0  0  0  0  0  0  0  0  0  0  0  0
   -7.9566   -3.8169    1.3193 H   0  0  0  0  0  0  0  0  0  0  0  0
    4.5517   -1.1531   -2.8457 H   0  0  0  0  0  0  0  0  0  0  0  0
    6.4581    0.9472   -3.1107 H   0  0  0  0  0  0  0  0  0  0  0  0
    6.4272   -0.6139   -3.9003 H   0  0  0  0  0  0  0  0  0  0  0  0
    8.5111   -0.2058   -2.9156 H   0  0  0  0  0  0  0  0  0  0  0  0
    7.7617   -1.7173   -2.2965 H   0  0  0  0  0  0  0  0  0  0  0  0
    8.7032    1.8227   -1.6026 H   0  0  0  0  0  0  0  0  0  0  0  0
    9.3925    2.6141    0.5595 H   0  0  0  0  0  0  0  0  0  0  0  0
    9.1033    1.1170    2.5583 H   0  0  0  0  0  0  0  0  0  0  0  0
    8.1280   -1.1317    2.3171 H   0  0  0  0  0  0  0  0  0  0  0  0
    7.4296   -1.9119    0.0753 H   0  0  0  0  0  0  0  0  0  0  0  0
  1  2  1  0
  2  3  1  0
  3  4  1  0
  4  5  1  0
  5  6  2  0
  5  7  1  0
  7  8  1  0
  8  9  1  0
  9 10  1  0
 10 11  1  0
 11 12  1  0
 12 13  2  0
 12 14  1  0
 14 15  1  0
 15 16  1  0
 14 17  1  0
 17 18  2  0
 18 19  1  0
 19 20  2  0
 20 21  1  0
 20 22  1  0
 22 23  2  0
  9 24  1  0
 24 25  2  0
 24 26  2  0
 24 27  1  0
 27 28  2  0
 28 29  1  0
 29 30  2  0
 30 31  1  0
 31 32  2  0
 32 33  1  0
  3 34  1  0
 34 35  2  0
 34 36  1  0
 36 37  2  0
 36 38  1  0
 38 39  1  0
 39 40  1  0
 40 41  1  0
 41 42  2  0
 42 43  1  0
 43 44  2  0
 44 45  1  0
 45 46  2  0
 11  7  1  0
 16 14  1  0
 23 17  1  0
 32 27  1  0
 46 41  1  0
  1 47  1  0
  1 48  1  0
  1 49  1  0
  2 50  1  0
  2 51  1  0
  3 52  1  1
  4 53  1  0
  7 54  1  1
  8 55  1  0
  8 56  1  0
  9 57  1  6
 10 58  1  0
 10 59  1  0
 15 60  1  0
 15 61  1  0
 16 62  1  0
 16 63  1  0
 18 64  1  0
 19 65  1  0
 22 66  1  0
 23 67  1  0
 28 68  1  0
 29 69  1  0
 30 70  1  0
 31 71  1  0
 38 72  1  0
 39 73  1  0
 39 74  1  0
 40 75  1  0
 40 76  1  0
 42 77  1  0
 43 78  1  0
 44 79  1  0
 45 80  1  0
 46 81  1  0
M  END
$$$$
[H]c1nc(OC([H])([H])[H])c([H])c([H])c1Oc1c([H])c([H])c(C(F)(F)F)c([H])c1C(=O)N([H])c1c([H])c([H])n([H])c(=O)c1[H]
     RDKit          3D

 43 45  0  0  0  0  0  0  0  0999 V2000
    5.8354   -2.0224   -1.4855 C   0  0  0  0  0  0  0  0  0  0  0  0
    4.6016   -2.6381   -1.2022 O   0  0  0  0  0  0  0  0  0  0  0  0
    3.6429   -1.9437   -0.5327 C   0  0  0  0  0  0  0  0  0  0  0  0
    2.4194   -2.4868   -0.2233 C   0  0  0  0  0  0  0  0  0  0  0  0
    1.4600   -1.7497    0.4691 C   0  0  0  0  0  0  0  0  0  0  0  0
    1.6814   -0.4803    0.8632 C   0  0  0  0  0  0  0  0  0  0  0  0
    0.8195    0.3973    1.5659 O   0  0  0  0  0  0  0  0  0  0  0  0
    0.3808    1.5879    0.9787 C   0  0  0  0  0  0  0  0  0  0  0  0
    1.0866    2.7521    1.3888 C   0  0  0  0  0  0  0  0  0  0  0  0
    0.7915    3.9907    0.8953 C   0  0  0  0  0  0  0  0  0  0  0  0
   -0.2282    4.0599   -0.0233 C   0  0  0  0  0  0  0  0  0  0  0  0
   -0.9432    2.9593   -0.4474 C   0  0  0  0  0  0  0  0  0  0  0  0
   -0.6248    1.6714    0.0807 C   0  0  0  0  0  0  0  0  0  0  0  0
   -1.6398    0.6500   -0.1868 C   0  0  0  0  0  0  0  0  0  0  0  0
   -2.3982    0.9042   -1.2130 O   0  0  0  0  0  0  0  0  0  0  0  0
   -1.8614   -0.5373    0.5155 N   0  0  0  0  0  0  0  0  0  0  0  0
   -2.8590   -1.4773    0.1606 C   0  0  0  0  0  0  0  0  0  0  0  0
   -4.0545   -1.1175   -0.3603 C   0  0  0  0  0  0  0  0  0  0  0  0
   -4.9811   -2.0698   -0.7162 C   0  0  0  0  0  0  0  0  0  0  0  0
   -4.7392   -3.3567   -0.5536 N   0  0  0  0  0  0  0  0  0  0  0  0
   -3.5512   -3.7613   -0.0330 C   0  0  0  0  0  0  0  0  0  0  0  0
   -3.3550   -5.0024    0.1090 O   0  0  0  0  0  0  0  0  0  0  0  0
   -2.6221   -2.8383    0.3203 C   0  0  0  0  0  0  0  0  0  0  0  0
   -0.6027    5.3945   -0.5678 C   0  0  0  0  0  0  0  0  0  0  0  0
    0.4569    6.2498   -0.7013 F   0  0  0  0  0  0  0  0  0  0  0  0
   -1.0927    5.1686   -1.8568 F   0  0  0  0  0  0  0  0  0  0  0  0
   -1.5988    5.8796    0.2466 F   0  0  0  0  0  0  0  0  0  0  0  0
    2.9556    0.0364    0.5242 C   0  0  0  0  0  0  0  0  0  0  0  0
    3.8664   -0.6875   -0.1405 N   0  0  0  0  0  0  0  0  0  0  0  0
    5.7669   -1.1309   -2.1344 H   0  0  0  0  0  0  0  0  0  0  0  0
    6.2948   -1.7207   -0.5222 H   0  0  0  0  0  0  0  0  0  0  0  0
    6.4572   -2.7724   -2.0351 H   0  0  0  0  0  0  0  0  0  0  0  0
    2.1718   -3.5139   -0.5187 H   0  0  0  0  0  0  0  0  0  0  0  0
    0.4997   -2.2011    0.7212 H   0  0  0  0  0  0  0  0  0  0  0  0
    1.8754    2.6095    2.1176 H   0  0  0  0  0  0  0  0  0  0  0  0
    1.3369    4.8786    1.2119 H   0  0  0  0  0  0  0  0  0  0  0  0
   -1.7368    3.0437   -1.1718 H   0  0  0  0  0  0  0  0  0  0  0  0
   -1.2940   -0.7462    1.3723 H   0  0  0  0  0  0  0  0  0  0  0  0
   -4.3207   -0.0886   -0.4982 H   0  0  0  0  0  0  0  0  0  0  0  0
   -5.9326   -1.7396   -1.1443 H   0  0  0  0  0  0  0  0  0  0  0  0
   -5.4530   -4.0794   -0.8249 H   0  0  0  0  0  0  0  0  0  0  0  0
   -1.6734   -3.1314    0.7413 H   0  0  0  0  0  0  0  0  0  0  0  0
    3.1619    1.0599    0.8387 H   0  0  0  0  0  0  0  0  0  0  0  0
  1  2  1  0
  2  3  1  0
  3  4  2  0
  4  5  1  0
  5  6  2  0
  6  7  1  0
  7  8  1  0
  8  9  2  0
  9 10  1  0
 10 11  2  0
 11 12  1  0
 12 13  2  0
 13 14  1  0
 14 15  2  0
 14 16  1  0
 16 17  1  0
 17 18  1  0
 18 19  2  0
 19 20  1  0
 20 21  1  0
 21 22  2  0
 21 23  1  0
 11 24  1  0
 24 25  1  0
 24 26  1  0
 24 27  1  0
  6 28  1  0
 28 29  2  0
 29  3  1  0
 13  8  1  0
 23 17  2  0
  1 30  1  0
  1 31  1  0
  1 32  1  0
  4 33  1  0
  5 34  1  0
  9 35  1  0
 10 36  1  0
 12 37  1  0
 16 38  1  0
 18 39  1  0
 19 40  1  0
 20 41  1  0
 23 42  1  0
 28 43  1  0
M  END
$$$$
[H]OC(=O)c1c([H])c([H])c2c(c1[H])C([H])([H])C([H])([H])N(c1c([H])c([H])c(F)c(C(F)(F)F)c1[H])[C@@]2([H])C([H])(C([H])([H])[H])C([H])([H])[H]
     RDKit          3D

 46 48  0  0  0  0  0  0  0  0999 V2000
   -0.6146   -2.2692   -2.0122 C   0  0  0  0  0  0  0  0  0  0  0  0
    0.5814   -1.5283   -1.4541 C   0  0  0  0  0  0  0  0  0  0  0  0
    1.7466   -2.5054   -1.2655 C   0  0  0  0  0  0  0  0  0  0  0  0
    0.3282   -0.8521   -0.1530 C   0  0  2  0  0  0  0  0  0  0  0  0
   -0.7152    0.1279   -0.1910 N   0  0  0  0  0  0  0  0  0  0  0  0
   -0.4326    1.4354   -0.7273 C   0  0  0  0  0  0  0  0  0  0  0  0
    0.9714    1.7072   -1.0987 C   0  0  0  0  0  0  0  0  0  0  0  0
    1.8989    1.0275   -0.1639 C   0  0  0  0  0  0  0  0  0  0  0  0
    3.0546    1.6958    0.2116 C   0  0  0  0  0  0  0  0  0  0  0  0
    3.9301    1.0835    1.0784 C   0  0  0  0  0  0  0  0  0  0  0  0
    3.6506   -0.1771    1.5598 C   0  0  0  0  0  0  0  0  0  0  0  0
    2.4747   -0.8318    1.1646 C   0  0  0  0  0  0  0  0  0  0  0  0
    1.6034   -0.2304    0.3059 C   0  0  0  0  0  0  0  0  0  0  0  0
    5.1449    1.7998    1.4659 C   0  0  0  0  0  0  0  0  0  0  0  0
    6.0151    1.1695    2.3388 O   0  0  0  0  0  0  0  0  0  0  0  0
    5.3915    2.9428    1.0252 O   0  0  0  0  0  0  0  0  0  0  0  0
   -2.0482   -0.1030    0.2798 C   0  0  0  0  0  0  0  0  0  0  0  0
   -2.4860   -1.2949    0.8037 C   0  0  0  0  0  0  0  0  0  0  0  0
   -3.7987   -1.4685    1.2510 C   0  0  0  0  0  0  0  0  0  0  0  0
   -4.7145   -0.4500    1.1865 C   0  0  0  0  0  0  0  0  0  0  0  0
   -5.9893   -0.6465    1.6300 F   0  0  0  0  0  0  0  0  0  0  0  0
   -4.2941    0.7476    0.6659 C   0  0  0  0  0  0  0  0  0  0  0  0
   -3.0027    0.9195    0.2255 C   0  0  0  0  0  0  0  0  0  0  0  0
   -5.2508    1.8689    0.5796 C   0  0  0  0  0  0  0  0  0  0  0  0
   -4.6516    2.9712    0.0374 F   0  0  0  0  0  0  0  0  0  0  0  0
   -5.7392    2.2225    1.8359 F   0  0  0  0  0  0  0  0  0  0  0  0
   -6.3446    1.5524   -0.1990 F   0  0  0  0  0  0  0  0  0  0  0  0
   -0.2795   -2.7993   -2.9270 H   0  0  0  0  0  0  0  0  0  0  0  0
   -0.9215   -3.0469   -1.2945 H   0  0  0  0  0  0  0  0  0  0  0  0
   -1.3981   -1.5723   -2.3088 H   0  0  0  0  0  0  0  0  0  0  0  0
    0.9208   -0.8378   -2.2461 H   0  0  0  0  0  0  0  0  0  0  0  0
    1.7346   -3.1986   -2.1432 H   0  0  0  0  0  0  0  0  0  0  0  0
    2.7161   -1.9726   -1.2210 H   0  0  0  0  0  0  0  0  0  0  0  0
    1.6328   -3.0894   -0.3390 H   0  0  0  0  0  0  0  0  0  0  0  0
    0.0715   -1.6206    0.6283 H   0  0  0  0  0  0  0  0  0  0  0  0
   -0.6798    2.1483    0.1215 H   0  0  0  0  0  0  0  0  0  0  0  0
   -1.1641    1.7205   -1.5242 H   0  0  0  0  0  0  0  0  0  0  0  0
    1.1237    2.8225   -1.0482 H   0  0  0  0  0  0  0  0  0  0  0  0
    1.2197    1.4869   -2.1795 H   0  0  0  0  0  0  0  0  0  0  0  0
    3.2328    2.6882   -0.1935 H   0  0  0  0  0  0  0  0  0  0  0  0
    4.3610   -0.6221    2.2362 H   0  0  0  0  0  0  0  0  0  0  0  0
    2.2804   -1.8044    1.5535 H   0  0  0  0  0  0  0  0  0  0  0  0
    6.9873    1.4677    2.3331 H   0  0  0  0  0  0  0  0  0  0  0  0
   -1.7891   -2.1270    0.8724 H   0  0  0  0  0  0  0  0  0  0  0  0
   -4.0875   -2.4418    1.6584 H   0  0  0  0  0  0  0  0  0  0  0  0
   -2.6705    1.8845   -0.1906 H   0  0  0  0  0  0  0  0  0  0  0  0
  1  2  1  0
  2  3  1  0
  2  4  1  0
  4  5  1  0
  5  6  1  0
  6  7  1  0
  7  8  1  0
  8  9  2  0
  9 10  1  0
 10 11  2  0
 11 12  1  0
 12 13  2  0
 10 14  1  0
 14 15  1  0
 14 16  2  0
  5 17  1  0
 17 18  2  0
 18 19  1  0
 19 20  2  0
 20 21  1  0
 20 22  1  0
 22 23  2  0
 22 24  1  0
 24 25  1  0
 24 26  1  0
 24 27  1  0
 13  4  1  0
 23 17  1  0
 13  8  1  0
  1 28  1  0
  1 29  1  0
  1 30  1  0
  2 31  1  0
  3 32  1  0
  3 33  1  0
  3 34  1  0
  4 35  1  1
  6 36  1  0
  6 37  1  0
  7 38  1  0
  7 39  1  0
  9 40  1  0
 11 41  1  0
 12 42  1  0
 15 43  1  0
 18 44  1  0
 19 45  1  0
 23 46  1  0
M  END
$$$$
[H]C1=C([H])C([H])(F)C([H])([H])C([H])=C1N([H])C(=O)C1(C(=O)N([H])c2c([H])c([H])c(Oc3c([H])c([H])nc4c([H])c(OC([H])([H])C([H])([H])C([H])([H])N5C([H])([H])C([H])([H])C([H])([H])C([H])([H])C5([H])[H])c(OC([H])([H])[H])c([H])c34)c(F)c2[H])C([H])([H])C1([H])[H]
     RDKit          3D

 84 89  0  0  0  0  0  0  0  0999 V2000
    3.8941   -3.7132    0.1913 C   0  0  0  0  0  0  0  0  0  0  0  0
    4.6565   -2.6079   -0.2681 O   0  0  0  0  0  0  0  0  0  0  0  0
    4.0305   -1.4283   -0.6539 C   0  0  0  0  0  0  0  0  0  0  0  0
    2.6597   -1.2972   -0.6016 C   0  0  0  0  0  0  0  0  0  0  0  0
    2.0436   -0.1222   -0.9870 C   0  0  0  0  0  0  0  0  0  0  0  0
    0.6510    0.0367   -0.9451 C   0  0  0  0  0  0  0  0  0  0  0  0
   -0.0755   -1.0256   -0.4996 O   0  0  0  0  0  0  0  0  0  0  0  0
   -1.4492   -1.0402   -0.3255 C   0  0  0  0  0  0  0  0  0  0  0  0
   -2.2606   -1.8743   -1.0649 C   0  0  0  0  0  0  0  0  0  0  0  0
   -3.6423   -1.8715   -0.8692 C   0  0  0  0  0  0  0  0  0  0  0  0
   -4.2526   -1.0654    0.0403 C   0  0  0  0  0  0  0  0  0  0  0  0
   -5.6503   -1.0411    0.3103 N   0  0  0  0  0  0  0  0  0  0  0  0
   -6.4608   -2.1680    0.2347 C   0  0  0  0  0  0  0  0  0  0  0  0
   -5.8498   -3.2675   -0.0680 O   0  0  0  0  0  0  0  0  0  0  0  0
   -7.9176   -2.3168    0.4538 C   0  0  0  0  0  0  0  0  0  0  0  0
   -8.5358   -3.5604   -0.1118 C   0  0  0  0  0  0  0  0  0  0  0  0
   -8.2258   -3.5095    1.3287 C   0  0  0  0  0  0  0  0  0  0  0  0
   -8.8577   -1.1862    0.5085 C   0  0  0  0  0  0  0  0  0  0  0  0
  -10.0295   -1.5183    0.9875 O   0  0  0  0  0  0  0  0  0  0  0  0
   -8.6712    0.1344    0.1256 N   0  0  0  0  0  0  0  0  0  0  0  0
   -9.7018    1.1257    0.2594 C   0  0  0  0  0  0  0  0  0  0  0  0
  -10.1675    1.7824   -0.7844 C   0  0  0  0  0  0  0  0  0  0  0  0
  -11.2276    2.8066   -0.6621 C   0  0  0  0  0  0  0  0  0  0  0  0
  -11.7828    3.0373    0.6810 C   0  0  0  0  0  0  0  0  0  0  0  0
  -13.1708    2.8095    0.6256 F   0  0  0  0  0  0  0  0  0  0  0  0
  -11.1912    2.2557    1.7682 C   0  0  0  0  0  0  0  0  0  0  0  0
  -10.2373    1.3788    1.5761 C   0  0  0  0  0  0  0  0  0  0  0  0
   -3.4356   -0.2282    0.7824 C   0  0  0  0  0  0  0  0  0  0  0  0
   -2.0698   -0.2231    0.5976 C   0  0  0  0  0  0  0  0  0  0  0  0
   -1.3225    0.6137    1.3883 F   0  0  0  0  0  0  0  0  0  0  0  0
    0.0582    1.2154   -1.3358 C   0  0  0  0  0  0  0  0  0  0  0  0
    0.8455    2.2647   -1.7771 C   0  0  0  0  0  0  0  0  0  0  0  0
    2.1789    2.1086   -1.8152 N   0  0  0  0  0  0  0  0  0  0  0  0
    2.7728    0.9564   -1.4354 C   0  0  0  0  0  0  0  0  0  0  0  0
    4.1549    0.8104   -1.4827 C   0  0  0  0  0  0  0  0  0  0  0  0
    4.7873   -0.3669   -1.0977 C   0  0  0  0  0  0  0  0  0  0  0  0
    6.1653   -0.5173   -1.1421 O   0  0  0  0  0  0  0  0  0  0  0  0
    6.9247    0.5946   -1.5969 C   0  0  0  0  0  0  0  0  0  0  0  0
    8.3981    0.2160   -1.5674 C   0  0  0  0  0  0  0  0  0  0  0  0
    8.7652   -0.1374   -0.1628 C   0  0  0  0  0  0  0  0  0  0  0  0
    8.5410    0.9713    0.7124 N   0  0  0  0  0  0  0  0  0  0  0  0
    8.8626    0.5943    2.0908 C   0  0  0  0  0  0  0  0  0  0  0  0
   10.1341    1.2231    2.5590 C   0  0  0  0  0  0  0  0  0  0  0  0
   11.2236    1.2674    1.5088 C   0  0  0  0  0  0  0  0  0  0  0  0
   10.7617    1.8537    0.2168 C   0  0  0  0  0  0  0  0  0  0  0  0
    9.2894    2.1446    0.3223 C   0  0  0  0  0  0  0  0  0  0  0  0
    4.5297   -4.6049    0.2046 H   0  0  0  0  0  0  0  0  0  0  0  0
    3.0368   -3.9207   -0.4537 H   0  0  0  0  0  0  0  0  0  0  0  0
    3.5857   -3.4838    1.2349 H   0  0  0  0  0  0  0  0  0  0  0  0
    2.0594   -2.1200   -0.2574 H   0  0  0  0  0  0  0  0  0  0  0  0
   -1.7910   -2.5214   -1.7915 H   0  0  0  0  0  0  0  0  0  0  0  0
   -4.2011   -2.5275   -1.4890 H   0  0  0  0  0  0  0  0  0  0  0  0
   -5.9930   -0.0843    0.6053 H   0  0  0  0  0  0  0  0  0  0  0  0
   -7.8776   -4.1574   -0.7922 H   0  0  0  0  0  0  0  0  0  0  0  0
   -9.5862   -3.5314   -0.4675 H   0  0  0  0  0  0  0  0  0  0  0  0
   -9.0668   -3.4296    2.0590 H   0  0  0  0  0  0  0  0  0  0  0  0
   -7.4089   -4.1370    1.6985 H   0  0  0  0  0  0  0  0  0  0  0  0
   -7.7902    0.4562   -0.3104 H   0  0  0  0  0  0  0  0  0  0  0  0
   -9.7650    1.5684   -1.7719 H   0  0  0  0  0  0  0  0  0  0  0  0
  -10.7674    3.7837   -1.0343 H   0  0  0  0  0  0  0  0  0  0  0  0
  -12.0168    2.5426   -1.4224 H   0  0  0  0  0  0  0  0  0  0  0  0
  -11.6408    4.1294    0.9469 H   0  0  0  0  0  0  0  0  0  0  0  0
  -11.5771    2.4212    2.8054 H   0  0  0  0  0  0  0  0  0  0  0  0
   -9.8450    0.8363    2.4194 H   0  0  0  0  0  0  0  0  0  0  0  0
   -3.9079    0.4182    1.5091 H   0  0  0  0  0  0  0  0  0  0  0  0
   -0.9995    1.3667   -1.3304 H   0  0  0  0  0  0  0  0  0  0  0  0
    0.3645    3.1827   -2.0801 H   0  0  0  0  0  0  0  0  0  0  0  0
    4.7341    1.6500   -1.8317 H   0  0  0  0  0  0  0  0  0  0  0  0
    6.7902    1.4564   -0.9075 H   0  0  0  0  0  0  0  0  0  0  0  0
    6.6790    0.8981   -2.6163 H   0  0  0  0  0  0  0  0  0  0  0  0
    8.5172   -0.6510   -2.2580 H   0  0  0  0  0  0  0  0  0  0  0  0
    8.9717    1.0419   -1.9999 H   0  0  0  0  0  0  0  0  0  0  0  0
    8.1514   -1.0174    0.1504 H   0  0  0  0  0  0  0  0  0  0  0  0
    9.8226   -0.4865   -0.1718 H   0  0  0  0  0  0  0  0  0  0  0  0
    8.8820   -0.5200    2.1502 H   0  0  0  0  0  0  0  0  0  0  0  0
    8.0335    0.9450    2.7222 H   0  0  0  0  0  0  0  0  0  0  0  0
   10.5337    0.5668    3.3880 H   0  0  0  0  0  0  0  0  0  0  0  0
    9.9539    2.2035    3.0123 H   0  0  0  0  0  0  0  0  0  0  0  0
   11.7159    0.2783    1.3726 H   0  0  0  0  0  0  0  0  0  0  0  0
   12.0186    1.9324    1.9308 H   0  0  0  0  0  0  0  0  0  0  0  0
   10.9303    1.1781   -0.6500 H   0  0  0  0  0  0  0  0  0  0  0  0
   11.3098    2.7776   -0.0117 H   0  0  0  0  0  0  0  0  0  0  0  0
    9.0848    2.9287    1.0867 H   0  0  0  0  0  0  0  0  0  0  0  0
    8.9162    2.5157   -0.6375 H   0  0  0  0  0  0  0  0  0  0  0  0
  1  2  1  0
  2  3  1  0
  3  4  2  0
  4  5  1  0
  5  6  2  0
  6  7  1  0
  7  8  1  0
  8  9  2  0
  9 10  1  0
 10 11  2  0
 11 12  1  0
 12 13  1  0
 13 14  2  0
 13 15  1  0
 15 16  1  0
 16 17  1  0
 15 18  1  0
 18 19  2  0
 18 20  1  0
 20 21  1  0
 21 22  2  0
 22 23  1  0
 23 24  1  0
 24 25  1  0
 24 26  1  0
 26 27  2  0
 11 28  1  0
 28 29  2  0
 29 30  1  0
  6 31  1  0
 31 32  2  0
 32 33  1  0
 33 34  2  0
 34 35  1  0
 35 36  2  0
 36 37  1  0
 37 38  1  0
 38 39  1  0
 39 40  1  0
 40 41  1  0
 41 42  1  0
 42 43  1  0
 43 44  1  0
 44 45  1  0
 45 46  1  0
 36  3  1  0
 46 41  1  0
 34  5  1  0
 29  8  1  0
 17 15  1  0
 27 21  1  0
  1 47  1  0
  1 48  1  0
  1 49  1  0
  4 50  1  0
  9 51  1  0
 10 52  1  0
 12 53  1  0
 16 54  1  0
 16 55  1  0
 17 56  1  0
 17 57  1  0
 20 58  1  0
 22 59  1  0
 23 60  1  0
 23 61  1  0
 24 62  1  0
 26 63  1  0
 27 64  1  0
 28 65  1  0
 31 66  1  0
 32 67  1  0
 35 68  1  0
 38 69  1  0
 38 70  1  0
 39 71  1  0
 39 72  1  0
 40 73  1  0
 40 74  1  0
 42 75  1  0
 42 76  1  0
 43 77  1  0
 43 78  1  0
 44 79  1  0
 44 80  1  0
 45 81  1  0
 45 82  1  0
 46 83  1  0
 46 84  1  0
M  END
$$$$
[H]/C(C(=O)N([H])c1c(OC([H])([H])C([H])([H])[H])c([H])c2nc([H])c(C#N)c(N([H])c3c([H])c([H])c(OC([H])([H])c4nc([H])c([H])c([H])c4[H])c(Cl)c3[H])c2c1[H])=C(/[H])C([H])([H])N1C([H])([H])C([H])([H])C([H])([H])C([H])([H])C1([H])[H]
     RDKit          3D

 76 80  0  0  0  0  0  0  0  0999 V2000
   -3.7745   -2.7204   -2.1899 C   0  0  0  0  0  0  0  0  0  0  0  0
   -2.8109   -1.7655   -2.8906 C   0  0  0  0  0  0  0  0  0  0  0  0
   -1.9911   -1.1914   -1.9455 O   0  0  0  0  0  0  0  0  0  0  0  0
   -1.0890   -1.7488   -1.0892 C   0  0  0  0  0  0  0  0  0  0  0  0
   -0.8528   -3.0979   -1.0901 C   0  0  0  0  0  0  0  0  0  0  0  0
    0.0592   -3.6940   -0.2391 C   0  0  0  0  0  0  0  0  0  0  0  0
    0.2415   -5.0282   -0.2446 N   0  0  0  0  0  0  0  0  0  0  0  0
    1.0895   -5.6566    0.5831 C   0  0  0  0  0  0  0  0  0  0  0  0
    1.8137   -4.8892    1.4890 C   0  0  0  0  0  0  0  0  0  0  0  0
    2.6977   -5.5351    2.4068 C   0  0  0  0  0  0  0  0  0  0  0  0
    3.4172   -6.0355    3.1484 N   0  0  0  0  0  0  0  0  0  0  0  0
    1.6899   -3.5332    1.5574 C   0  0  0  0  0  0  0  0  0  0  0  0
    2.3073   -2.6460    2.4389 N   0  0  0  0  0  0  0  0  0  0  0  0
    3.5507   -2.0168    2.3885 C   0  0  0  0  0  0  0  0  0  0  0  0
    3.7038   -0.7541    2.9898 C   0  0  0  0  0  0  0  0  0  0  0  0
    4.9007   -0.0819    3.0301 C   0  0  0  0  0  0  0  0  0  0  0  0
    6.0218   -0.6738    2.4504 C   0  0  0  0  0  0  0  0  0  0  0  0
    7.2604   -0.0696    2.4580 O   0  0  0  0  0  0  0  0  0  0  0  0
    7.5587    1.1881    2.9632 C   0  0  0  0  0  0  0  0  0  0  0  0
    6.8217    2.2851    2.2545 C   0  0  0  0  0  0  0  0  0  0  0  0
    6.2857    2.1135    1.0049 C   0  0  0  0  0  0  0  0  0  0  0  0
    5.5951    3.1183    0.3360 C   0  0  0  0  0  0  0  0  0  0  0  0
    5.4516    4.3309    0.9664 C   0  0  0  0  0  0  0  0  0  0  0  0
    5.9972    4.4941    2.2287 C   0  0  0  0  0  0  0  0  0  0  0  0
    6.6616    3.5015    2.8520 N   0  0  0  0  0  0  0  0  0  0  0  0
    5.9105   -1.9122    1.8513 C   0  0  0  0  0  0  0  0  0  0  0  0
    7.3352   -2.6373    1.1242 Cl  0  0  0  0  0  0  0  0  0  0  0  0
    4.6712   -2.5627    1.8301 C   0  0  0  0  0  0  0  0  0  0  0  0
    0.7783   -2.9553    0.6521 C   0  0  0  0  0  0  0  0  0  0  0  0
    0.5513   -1.6089    0.6596 C   0  0  0  0  0  0  0  0  0  0  0  0
   -0.3739   -0.9288   -0.1852 C   0  0  0  0  0  0  0  0  0  0  0  0
   -0.6754    0.3322   -0.0301 N   0  0  0  0  0  0  0  0  0  0  0  0
   -0.9763    1.6879    0.1402 C   0  0  0  0  0  0  0  0  0  0  0  0
   -0.0783    2.5886    0.3817 O   0  0  0  0  0  0  0  0  0  0  0  0
   -2.3441    2.2510    0.0815 C   0  0  0  0  0  0  0  0  0  0  0  0
   -3.3717    1.4967   -0.0904 C   0  0  0  0  0  0  0  0  0  0  0  0
   -4.7713    2.0763   -0.1510 C   0  0  0  0  0  0  0  0  0  0  0  0
   -5.2959    1.7399   -1.4192 N   0  0  0  0  0  0  0  0  0  0  0  0
   -4.7313    2.3676   -2.5570 C   0  0  0  0  0  0  0  0  0  0  0  0
   -5.7794    3.3810   -3.0596 C   0  0  0  0  0  0  0  0  0  0  0  0
   -7.0078    2.6522   -3.5515 C   0  0  0  0  0  0  0  0  0  0  0  0
   -7.0640    1.2414   -2.9486 C   0  0  0  0  0  0  0  0  0  0  0  0
   -6.6173    1.2652   -1.5046 C   0  0  0  0  0  0  0  0  0  0  0  0
   -3.6921   -3.6885   -2.6857 H   0  0  0  0  0  0  0  0  0  0  0  0
   -4.8175   -2.3423   -2.2727 H   0  0  0  0  0  0  0  0  0  0  0  0
   -3.4992   -2.8295   -1.1288 H   0  0  0  0  0  0  0  0  0  0  0  0
   -3.4403   -0.9527   -3.3654 H   0  0  0  0  0  0  0  0  0  0  0  0
   -2.2775   -2.2944   -3.7114 H   0  0  0  0  0  0  0  0  0  0  0  0
   -1.3970   -3.7393   -1.7985 H   0  0  0  0  0  0  0  0  0  0  0  0
    1.2088   -6.7394    0.5471 H   0  0  0  0  0  0  0  0  0  0  0  0
    1.7207   -2.3976    3.3264 H   0  0  0  0  0  0  0  0  0  0  0  0
    2.7988   -0.3252    3.4308 H   0  0  0  0  0  0  0  0  0  0  0  0
    4.9497    0.8830    3.5153 H   0  0  0  0  0  0  0  0  0  0  0  0
    8.6402    1.3907    2.7718 H   0  0  0  0  0  0  0  0  0  0  0  0
    7.2989    1.2946    4.0500 H   0  0  0  0  0  0  0  0  0  0  0  0
    6.3763    1.1624    0.4695 H   0  0  0  0  0  0  0  0  0  0  0  0
    5.1897    2.9308   -0.6458 H   0  0  0  0  0  0  0  0  0  0  0  0
    4.9184    5.1366    0.4749 H   0  0  0  0  0  0  0  0  0  0  0  0
    5.8724    5.4745    2.7170 H   0  0  0  0  0  0  0  0  0  0  0  0
    4.6851   -3.5250    1.3258 H   0  0  0  0  0  0  0  0  0  0  0  0
    1.0950   -0.9817    1.3581 H   0  0  0  0  0  0  0  0  0  0  0  0
    0.6474    0.6797   -0.0471 H   0  0  0  0  0  0  0  0  0  0  0  0
   -2.5074    3.3355    0.1852 H   0  0  0  0  0  0  0  0  0  0  0  0
   -3.3571    0.4223   -0.1860 H   0  0  0  0  0  0  0  0  0  0  0  0
   -4.7900    3.1430    0.1206 H   0  0  0  0  0  0  0  0  0  0  0  0
   -5.3307    1.5259    0.6348 H   0  0  0  0  0  0  0  0  0  0  0  0
   -3.8407    2.9757   -2.2905 H   0  0  0  0  0  0  0  0  0  0  0  0
   -4.4705    1.6359   -3.3252 H   0  0  0  0  0  0  0  0  0  0  0  0
   -6.0874    4.0336   -2.2056 H   0  0  0  0  0  0  0  0  0  0  0  0
   -5.3507    3.9355   -3.9058 H   0  0  0  0  0  0  0  0  0  0  0  0
   -6.9321    2.5116   -4.6353 H   0  0  0  0  0  0  0  0  0  0  0  0
   -7.8986    3.2072   -3.2192 H   0  0  0  0  0  0  0  0  0  0  0  0
   -6.3356    0.6355   -3.5115 H   0  0  0  0  0  0  0  0  0  0  0  0
   -8.1187    0.9057   -3.0528 H   0  0  0  0  0  0  0  0  0  0  0  0
   -7.3361    1.9664   -0.9846 H   0  0  0  0  0  0  0  0  0  0  0  0
   -6.6885    0.2612   -1.0362 H   0  0  0  0  0  0  0  0  0  0  0  0
  1  2  1  0
  2  3  1  0
  3  4  1  0
  4  5  2  0
  5  6  1  0
  6  7  2  0
  7  8  1  0
  8  9  2  0
  9 10  1  0
 10 11  3  0
  9 12  1  0
 12 13  1  0
 13 14  1  0
 14 15  2  0
 15 16  1  0
 16 17  2  0
 17 18  1  0
 18 19  1  0
 19 20  1  0
 20 21  2  0
 21 22  1  0
 22 23  2  0
 23 24  1  0
 24 25  2  0
 17 26  1  0
 26 27  1  0
 26 28  2  0
 12 29  2  0
 29 30  1  0
 30 31  2  0
 31 32  1  0
 32 33  1  0
 33 34  2  0
 33 35  1  0
 35 36  2  0
 36 37  1  0
 37 38  1  0
 38 39  1  0
 39 40  1  0
 40 41  1  0
 41 42  1  0
 42 43  1  0
 31  4  1  0
 43 38  1  0
 29  6  1  0
 28 14  1  0
 25 20  1  0
  1 44  1  0
  1 45  1  0
  1 46  1  0
  2 47  1  0
  2 48  1  0
  5 49  1  0
  8 50  1  0
 13 51  1  0
 15 52  1  0
 16 53  1  0
 19 54  1  0
 19 55  1  0
 21 56  1  0
 22 57  1  0
 23 58  1  0
 24 59  1  0
 28 60  1  0
 30 61  1  0
 32 62  1  0
 35 63  1  0
 36 64  1  0
 37 65  1  0
 37 66  1  0
 39 67  1  0
 39 68  1  0
 40 69  1  0
 40 70  1  0
 41 71  1  0
 41 72  1  0
 42 73  1  0
 42 74  1  0
 43 75  1  0
 43 76  1  0
M  END
$$$$
[H]O[C@]([H])(C([H])([H])N([H])C(=O)c1c(C([H])([H])[H])c(/C([H])=C2\C(=O)N([H])c3c([H])c([H])c(F)c([H])c32)n([H])c1C([H])([H])[H])C([H])([H])N1C([H])([H])C([H])([H])OC([H])([H])C1([H])[H]
     RDKit          3D

 59 62  0  0  0  0  0  0  0  0999 V2000
   -0.0067    3.0051   -1.0071 C   0  0  0  0  0  0  0  0  0  0  0  0
   -0.8501    1.8317   -0.6247 C   0  0  0  0  0  0  0  0  0  0  0  0
   -2.0811    1.8440   -0.1243 N   0  0  0  0  0  0  0  0  0  0  0  0
   -2.5055    0.6096    0.0967 C   0  0  0  0  0  0  0  0  0  0  0  0
   -3.7672    0.1046    0.6046 C   0  0  0  0  0  0  0  0  0  0  0  0
   -4.9551    0.3616    0.1015 C   0  0  0  0  0  0  0  0  0  0  0  0
   -5.2686    1.1831   -1.0526 C   0  0  0  0  0  0  0  0  0  0  0  0
   -4.4447    1.7926   -1.8068 O   0  0  0  0  0  0  0  0  0  0  0  0
   -6.6877    1.1703   -1.1787 N   0  0  0  0  0  0  0  0  0  0  0  0
   -7.2854    0.3683   -0.1452 C   0  0  0  0  0  0  0  0  0  0  0  0
   -8.5932    0.0485    0.1572 C   0  0  0  0  0  0  0  0  0  0  0  0
   -8.8890   -0.7569    1.2253 C   0  0  0  0  0  0  0  0  0  0  0  0
   -7.8675   -1.2558    2.0099 C   0  0  0  0  0  0  0  0  0  0  0  0
   -8.1704   -2.0582    3.0732 F   0  0  0  0  0  0  0  0  0  0  0  0
   -6.5671   -0.9274    1.6946 C   0  0  0  0  0  0  0  0  0  0  0  0
   -6.2525   -0.1198    0.6256 C   0  0  0  0  0  0  0  0  0  0  0  0
   -1.4701   -0.2719   -0.2891 C   0  0  0  0  0  0  0  0  0  0  0  0
   -1.5634   -1.7560   -0.2190 C   0  0  0  0  0  0  0  0  0  0  0  0
   -0.4504    0.4817   -0.7334 C   0  0  0  0  0  0  0  0  0  0  0  0
    0.8421    0.0665   -1.2851 C   0  0  0  0  0  0  0  0  0  0  0  0
    1.4391    0.9461   -2.0019 O   0  0  0  0  0  0  0  0  0  0  0  0
    1.4641   -1.1610   -1.1017 N   0  0  0  0  0  0  0  0  0  0  0  0
    2.7215   -1.6317   -1.5988 C   0  0  0  0  0  0  0  0  0  0  0  0
    3.9100   -0.9040   -1.0858 C   0  0  1  0  0  0  0  0  0  0  0  0
    3.9623    0.4288   -1.4233 O   0  0  0  0  0  0  0  0  0  0  0  0
    3.9389   -1.0769    0.4336 C   0  0  0  0  0  0  0  0  0  0  0  0
    5.1145   -0.5489    1.0231 N   0  0  0  0  0  0  0  0  0  0  0  0
    6.3057   -1.2328    0.7606 C   0  0  0  0  0  0  0  0  0  0  0  0
    7.5650   -0.4418    0.7566 C   0  0  0  0  0  0  0  0  0  0  0  0
    7.4895    0.7846    1.3637 O   0  0  0  0  0  0  0  0  0  0  0  0
    6.4448    1.4794    0.7104 C   0  0  0  0  0  0  0  0  0  0  0  0
    5.1722    0.8464    1.2284 C   0  0  0  0  0  0  0  0  0  0  0  0
    0.0822    3.1015   -2.1049 H   0  0  0  0  0  0  0  0  0  0  0  0
    0.9945    2.8829   -0.5849 H   0  0  0  0  0  0  0  0  0  0  0  0
   -0.4526    3.9508   -0.6159 H   0  0  0  0  0  0  0  0  0  0  0  0
   -2.6066    2.7533    0.0695 H   0  0  0  0  0  0  0  0  0  0  0  0
   -3.7823   -0.5608    1.4939 H   0  0  0  0  0  0  0  0  0  0  0  0
   -7.2117    1.6663   -1.9082 H   0  0  0  0  0  0  0  0  0  0  0  0
   -9.3955    0.4290   -0.4451 H   0  0  0  0  0  0  0  0  0  0  0  0
   -9.9115   -1.0343    1.4983 H   0  0  0  0  0  0  0  0  0  0  0  0
   -5.7718   -1.3177    2.3089 H   0  0  0  0  0  0  0  0  0  0  0  0
   -2.6454   -2.0706   -0.0938 H   0  0  0  0  0  0  0  0  0  0  0  0
   -1.2591   -2.2559   -1.1569 H   0  0  0  0  0  0  0  0  0  0  0  0
   -1.0707   -2.1818    0.6776 H   0  0  0  0  0  0  0  0  0  0  0  0
    0.9409   -1.8713   -0.4745 H   0  0  0  0  0  0  0  0  0  0  0  0
    2.7227   -1.5655   -2.7387 H   0  0  0  0  0  0  0  0  0  0  0  0
    2.8856   -2.7214   -1.3345 H   0  0  0  0  0  0  0  0  0  0  0  0
    4.8252   -1.3984   -1.5342 H   0  0  0  0  0  0  0  0  0  0  0  0
    4.6728    0.6685   -2.0620 H   0  0  0  0  0  0  0  0  0  0  0  0
    3.8608   -2.1623    0.6551 H   0  0  0  0  0  0  0  0  0  0  0  0
    3.0333   -0.6218    0.8919 H   0  0  0  0  0  0  0  0  0  0  0  0
    6.4000   -2.0516    1.5425 H   0  0  0  0  0  0  0  0  0  0  0  0
    6.2394   -1.7948   -0.1894 H   0  0  0  0  0  0  0  0  0  0  0  0
    8.3678   -1.0168    1.3034 H   0  0  0  0  0  0  0  0  0  0  0  0
    7.9510   -0.2953   -0.2738 H   0  0  0  0  0  0  0  0  0  0  0  0
    6.5258    1.2239   -0.3654 H   0  0  0  0  0  0  0  0  0  0  0  0
    6.4620    2.5549    0.9159 H   0  0  0  0  0  0  0  0  0  0  0  0
    5.1227    1.0724    2.3311 H   0  0  0  0  0  0  0  0  0  0  0  0
    4.3267    1.4070    0.7958 H   0  0  0  0  0  0  0  0  0  0  0  0
  1  2  1  0
  2  3  1  0
  3  4  1  0
  4  5  1  0
  5  6  2  0
  6  7  1  0
  7  8  2  0
  7  9  1  0
  9 10  1  0
 10 11  2  0
 11 12  1  0
 12 13  2  0
 13 14  1  0
 13 15  1  0
 15 16  2  0
  4 17  2  0
 17 18  1  0
 17 19  1  0
 19 20  1  0
 20 21  2  0
 20 22  1  0
 22 23  1  0
 23 24  1  0
 24 25  1  0
 24 26  1  0
 26 27  1  0
 27 28  1  0
 28 29  1  0
 29 30  1  0
 30 31  1  0
 31 32  1  0
 19  2  2  0
 32 27  1  0
 16  6  1  0
 16 10  1  0
  1 33  1  0
  1 34  1  0
  1 35  1  0
  3 36  1  0
  5 37  1  0
  9 38  1  0
 11 39  1  0
 12 40  1  0
 15 41  1  0
 18 42  1  0
 18 43  1  0
 18 44  1  0
 22 45  1  0
 23 46  1  0
 23 47  1  0
 24 48  1  6
 25 49  1  0
 26 50  1  0
 26 51  1  0
 28 52  1  0
 28 53  1  0
 29 54  1  0
 29 55  1  0
 31 56  1  0
 31 57  1  0
 32 58  1  0
 32 59  1  0
M  END
$$$$
[H]OC(=O)[C@@]([H])(N([H])C(=O)[C@@]1([H])N(C(=O)[C@@]([H])(N([H])[H])C([H])([H])c2c([H])c([H])c(O[H])c([H])c2[H])C([H])([H])C([H])([H])C1([H])[H])C([H])([H])c1c([H])c([H])c(O[H])c([H])c1[H]
     RDKit          3D

 59 61  0  0  0  0  0  0  0  0999 V2000
   -3.7915    1.2910   -0.7412 N   0  0  0  0  0  0  0  0  0  0  0  0
   -3.2850    0.1017   -0.1577 C   0  0  1  0  0  0  0  0  0  0  0  0
   -4.1280   -1.1267   -0.5548 C   0  0  0  0  0  0  0  0  0  0  0  0
   -5.5338   -0.9568   -0.1029 C   0  0  0  0  0  0  0  0  0  0  0  0
   -5.9706   -1.3772    1.1270 C   0  0  0  0  0  0  0  0  0  0  0  0
   -7.2849   -1.2090    1.5279 C   0  0  0  0  0  0  0  0  0  0  0  0
   -8.2036   -0.6086    0.6963 C   0  0  0  0  0  0  0  0  0  0  0  0
   -9.5441   -0.4262    1.0801 O   0  0  0  0  0  0  0  0  0  0  0  0
   -7.7665   -0.1852   -0.5409 C   0  0  0  0  0  0  0  0  0  0  0  0
   -6.4601   -0.3489   -0.9473 C   0  0  0  0  0  0  0  0  0  0  0  0
   -1.8618   -0.1751   -0.2893 C   0  0  0  0  0  0  0  0  0  0  0  0
   -1.4817   -1.2759    0.2654 O   0  0  0  0  0  0  0  0  0  0  0  0
   -0.8651    0.5952   -0.9351 N   0  0  0  0  0  0  0  0  0  0  0  0
   -0.8638    1.8292   -1.6448 C   0  0  0  0  0  0  0  0  0  0  0  0
   -0.1626    1.4291   -2.9393 C   0  0  0  0  0  0  0  0  0  0  0  0
    0.9516    0.5648   -2.3760 C   0  0  0  0  0  0  0  0  0  0  0  0
    0.5524    0.1800   -0.9819 C   0  0  1  0  0  0  0  0  0  0  0  0
    1.2898    0.8614    0.0912 C   0  0  0  0  0  0  0  0  0  0  0  0
    0.6756    1.5751    0.9114 O   0  0  0  0  0  0  0  0  0  0  0  0
    2.6953    0.7329    0.2268 N   0  0  0  0  0  0  0  0  0  0  0  0
    3.4630    1.3820    1.2632 C   0  0  1  0  0  0  0  0  0  0  0  0
    4.0803    0.3902    2.2179 C   0  0  0  0  0  0  0  0  0  0  0  0
    4.9953   -0.5673    1.5891 C   0  0  0  0  0  0  0  0  0  0  0  0
    6.3353   -0.2695    1.5005 C   0  0  0  0  0  0  0  0  0  0  0  0
    7.2360   -1.1594    0.9046 C   0  0  0  0  0  0  0  0  0  0  0  0
    6.8126   -2.3644    0.3861 C   0  0  0  0  0  0  0  0  0  0  0  0
    7.7205   -3.2381   -0.2032 O   0  0  0  0  0  0  0  0  0  0  0  0
    5.4677   -2.6514    0.4810 C   0  0  0  0  0  0  0  0  0  0  0  0
    4.5768   -1.7826    1.0648 C   0  0  0  0  0  0  0  0  0  0  0  0
    4.4294    2.3622    0.7688 C   0  0  0  0  0  0  0  0  0  0  0  0
    5.2033    3.0565    1.6684 O   0  0  0  0  0  0  0  0  0  0  0  0
    4.6058    2.6218   -0.4557 O   0  0  0  0  0  0  0  0  0  0  0  0
   -3.6129    2.1749   -0.2687 H   0  0  0  0  0  0  0  0  0  0  0  0
   -3.9346    1.2918   -1.7548 H   0  0  0  0  0  0  0  0  0  0  0  0
   -3.5219    0.2042    0.9501 H   0  0  0  0  0  0  0  0  0  0  0  0
   -4.0472   -1.2786   -1.6508 H   0  0  0  0  0  0  0  0  0  0  0  0
   -3.7010   -1.9715    0.0152 H   0  0  0  0  0  0  0  0  0  0  0  0
   -5.2755   -1.8512    1.8019 H   0  0  0  0  0  0  0  0  0  0  0  0
   -7.6434   -1.5394    2.5037 H   0  0  0  0  0  0  0  0  0  0  0  0
   -9.7651    0.4356    1.5520 H   0  0  0  0  0  0  0  0  0  0  0  0
   -8.4685    0.2866   -1.2064 H   0  0  0  0  0  0  0  0  0  0  0  0
   -6.1263   -0.0144   -1.9178 H   0  0  0  0  0  0  0  0  0  0  0  0
   -1.7876    2.3472   -1.8120 H   0  0  0  0  0  0  0  0  0  0  0  0
   -0.1361    2.5343   -1.1462 H   0  0  0  0  0  0  0  0  0  0  0  0
   -0.8860    0.8491   -3.5252 H   0  0  0  0  0  0  0  0  0  0  0  0
    0.2212    2.2911   -3.4907 H   0  0  0  0  0  0  0  0  0  0  0  0
    0.9880   -0.3733   -2.9920 H   0  0  0  0  0  0  0  0  0  0  0  0
    1.9312    1.0810   -2.4188 H   0  0  0  0  0  0  0  0  0  0  0  0
    0.5951   -0.9389   -0.8449 H   0  0  0  0  0  0  0  0  0  0  0  0
    3.2175    0.1355   -0.4582 H   0  0  0  0  0  0  0  0  0  0  0  0
    2.7103    1.9621    1.8753 H   0  0  0  0  0  0  0  0  0  0  0  0
    3.2400   -0.1001    2.7612 H   0  0  0  0  0  0  0  0  0  0  0  0
    4.6536    0.9725    2.9691 H   0  0  0  0  0  0  0  0  0  0  0  0
    6.7791    0.6558    1.8802 H   0  0  0  0  0  0  0  0  0  0  0  0
    8.2947   -0.9210    0.8359 H   0  0  0  0  0  0  0  0  0  0  0  0
    7.8580   -3.1032   -1.2146 H   0  0  0  0  0  0  0  0  0  0  0  0
    5.1251   -3.5932    0.0779 H   0  0  0  0  0  0  0  0  0  0  0  0
    3.5482   -2.0385    1.1196 H   0  0  0  0  0  0  0  0  0  0  0  0
    5.8566    3.7788    1.4584 H   0  0  0  0  0  0  0  0  0  0  0  0
  1  2  1  0
  2  3  1  0
  3  4  1  0
  4  5  2  0
  5  6  1  0
  6  7  2  0
  7  8  1  0
  7  9  1  0
  9 10  2  0
  2 11  1  0
 11 12  2  0
 11 13  1  0
 13 14  1  0
 14 15  1  0
 15 16  1  0
 16 17  1  0
 17 18  1  0
 18 19  2  0
 18 20  1  0
 20 21  1  0
 21 22  1  0
 22 23  1  0
 23 24  2  0
 24 25  1  0
 25 26  2  0
 26 27  1  0
 26 28  1  0
 28 29  2  0
 21 30  1  0
 30 31  1  0
 30 32  2  0
 10  4  1  0
 17 13  1  0
 29 23  1  0
  1 33  1  0
  1 34  1  0
  2 35  1  1
  3 36  1  0
  3 37  1  0
  5 38  1  0
  6 39  1  0
  8 40  1  0
  9 41  1  0
 10 42  1  0
 14 43  1  0
 14 44  1  0
 15 45  1  0
 15 46  1  0
 16 47  1  0
 16 48  1  0
 17 49  1  6
 20 50  1  0
 21 51  1  1
 22 52  1  0
 22 53  1  0
 24 54  1  0
 25 55  1  0
 27 56  1  0
 28 57  1  0
 29 58  1  0
 31 59  1  0
M  END
$$$$
[H]OC(=O)c1c([H])c([H])c(-c2c([H])c(C#N)c([H])c(-c3c([H])c([H])c(F)c([H])c3[H])c2[H])c([H])c1O[H]
     RDKit          3D

 37 39  0  0  0  0  0  0  0  0999 V2000
    6.5474    0.4358    1.3529 O   0  0  0  0  0  0  0  0  0  0  0  0
    5.8835   -0.0009    0.2509 C   0  0  0  0  0  0  0  0  0  0  0  0
    6.6328   -0.3185   -0.7461 O   0  0  0  0  0  0  0  0  0  0  0  0
    4.4466   -0.1489    0.0655 C   0  0  0  0  0  0  0  0  0  0  0  0
    3.9777   -0.6253   -1.1653 C   0  0  0  0  0  0  0  0  0  0  0  0
    2.6377   -0.7734   -1.3541 C   0  0  0  0  0  0  0  0  0  0  0  0
    1.7049   -0.4774   -0.3908 C   0  0  0  0  0  0  0  0  0  0  0  0
    2.1477   -0.0175    0.7985 C   0  0  0  0  0  0  0  0  0  0  0  0
    3.5276    0.1534    1.0441 C   0  0  0  0  0  0  0  0  0  0  0  0
    3.8993    0.6221    2.2716 O   0  0  0  0  0  0  0  0  0  0  0  0
    0.2937   -0.6917   -0.7004 C   0  0  0  0  0  0  0  0  0  0  0  0
   -0.7144    0.0680   -0.1899 C   0  0  0  0  0  0  0  0  0  0  0  0
   -2.0203   -0.1797   -0.5077 C   0  0  0  0  0  0  0  0  0  0  0  0
   -2.3005   -1.2367   -1.3733 C   0  0  0  0  0  0  0  0  0  0  0  0
   -1.3166   -2.0272   -1.9104 C   0  0  0  0  0  0  0  0  0  0  0  0
   -0.0161   -1.7381   -1.5606 C   0  0  0  0  0  0  0  0  0  0  0  0
   -1.6555   -3.1178   -2.8058 C   0  0  0  0  0  0  0  0  0  0  0  0
   -1.9442   -3.9902   -3.5090 N   0  0  0  0  0  0  0  0  0  0  0  0
   -3.1600    0.5989   -0.0039 C   0  0  0  0  0  0  0  0  0  0  0  0
   -4.3993    0.0350    0.2088 C   0  0  0  0  0  0  0  0  0  0  0  0
   -5.4722    0.7919    0.6818 C   0  0  0  0  0  0  0  0  0  0  0  0
   -5.3276    2.1349    0.9533 C   0  0  0  0  0  0  0  0  0  0  0  0
   -6.3433    2.9085    1.4122 F   0  0  0  0  0  0  0  0  0  0  0  0
   -4.0903    2.7031    0.7422 C   0  0  0  0  0  0  0  0  0  0  0  0
   -3.0167    1.9415    0.2680 C   0  0  0  0  0  0  0  0  0  0  0  0
    6.9209    1.3534    1.5238 H   0  0  0  0  0  0  0  0  0  0  0  0
    4.6891   -0.8643   -1.9366 H   0  0  0  0  0  0  0  0  0  0  0  0
    2.3268   -1.1470   -2.3347 H   0  0  0  0  0  0  0  0  0  0  0  0
    1.4455    0.2363    1.6089 H   0  0  0  0  0  0  0  0  0  0  0  0
    4.7379    0.8322    2.7112 H   0  0  0  0  0  0  0  0  0  0  0  0
   -0.4912    0.8970    0.4888 H   0  0  0  0  0  0  0  0  0  0  0  0
   -3.3357   -1.4617   -1.6445 H   0  0  0  0  0  0  0  0  0  0  0  0
    0.7477   -2.3814   -2.0000 H   0  0  0  0  0  0  0  0  0  0  0  0
   -4.5103   -1.0310   -0.0091 H   0  0  0  0  0  0  0  0  0  0  0  0
   -6.4328    0.3459    0.8439 H   0  0  0  0  0  0  0  0  0  0  0  0
   -3.9642    3.7699    0.9530 H   0  0  0  0  0  0  0  0  0  0  0  0
   -2.0557    2.4010    0.1074 H   0  0  0  0  0  0  0  0  0  0  0  0
  1  2  1  0
  2  3  2  0
  2  4  1  0
  4  5  2  0
  5  6  1  0
  6  7  2  0
  7  8  1  0
  8  9  2  0
  9 10  1  0
  7 11  1  0
 11 12  2  0
 12 13  1  0
 13 14  2  0
 14 15  1  0
 15 16  2  0
 15 17  1  0
 17 18  3  0
 13 19  1  0
 19 20  2  0
 20 21  1  0
 21 22  2  0
 22 23  1  0
 22 24  1  0
 24 25  2  0
  9  4  1  0
 16 11  1  0
 25 19  1  0
  1 26  1  0
  5 27  1  0
  6 28  1  0
  8 29  1  0
 10 30  1  0
 12 31  1  0
 14 32  1  0
 16 33  1  0
 20 34  1  0
 21 35  1  0
 24 36  1  0
 25 37  1  0
M  END
$$$$
[H]c1c([H])c([H])c(C([H])([H])[C@@]2([H])C(=O)N3C([H])([H])C([H])([H])C([H])([H])[C@@]3([H])C(=O)N([H])[C@@]([H])(C([H])([H])c3c([H])c([H])c([H])c([H])c3[H])C(=O)N([H])[C@]([H])(C([H])([H])c3c([H])n([H])c4c([H])c([H])c([H])c([H])c34)C(=O)N([H])[C@]([H])(C([H])([H])c3c([H])n([H])c4c([H])c([H])c([H])c([H])c34)C(=O)N([H])[C@@]([H])(C([H])([H])c3c([H])c([H])c([H])c([H])c3[H])C(=O)N([H])[C@@]([H])(C([H])(C([H])([H])[H])C([H])([H])[H])C(=O)N2[H])c([H])c1[H]
     RDKit          3D

138146  0  0  0  0  0  0  0  0999 V2000
    4.8184   -5.0747    0.7642 C   0  0  0  0  0  0  0  0  0  0  0  0
    4.5611   -4.1299   -0.4168 C   0  0  0  0  0  0  0  0  0  0  0  0
    5.8969   -3.4576   -0.6939 C   0  0  0  0  0  0  0  0  0  0  0  0
    3.6388   -3.0481    0.1346 C   0  0  2  0  0  0  0  0  0  0  0  0
    2.3920   -3.5226    0.6421 N   0  0  0  0  0  0  0  0  0  0  0  0
    1.2657   -4.0970    0.0930 C   0  0  0  0  0  0  0  0  0  0  0  0
    1.0603   -5.3457    0.4133 O   0  0  0  0  0  0  0  0  0  0  0  0
    0.2091   -3.5765   -0.8065 C   0  0  2  0  0  0  0  0  0  0  0  0
    0.3689   -3.9678   -2.2580 C   0  0  0  0  0  0  0  0  0  0  0  0
    0.3303   -5.4362   -2.4580 C   0  0  0  0  0  0  0  0  0  0  0  0
    1.4724   -6.2055   -2.4910 C   0  0  0  0  0  0  0  0  0  0  0  0
    1.4544   -7.5900   -2.6811 C   0  0  0  0  0  0  0  0  0  0  0  0
    0.2546   -8.2456   -2.8462 C   0  0  0  0  0  0  0  0  0  0  0  0
   -0.8835   -7.4777   -2.8130 C   0  0  0  0  0  0  0  0  0  0  0  0
   -0.8658   -6.1160   -2.6259 C   0  0  0  0  0  0  0  0  0  0  0  0
   -0.0914   -2.1714   -0.6567 N   0  0  0  0  0  0  0  0  0  0  0  0
   -1.0634   -1.4884    0.0603 C   0  0  0  0  0  0  0  0  0  0  0  0
   -0.6952   -0.8352    1.1190 O   0  0  0  0  0  0  0  0  0  0  0  0
   -2.5417   -1.3842   -0.2184 C   0  0  1  0  0  0  0  0  0  0  0  0
   -3.1418   -2.7200   -0.5374 C   0  0  0  0  0  0  0  0  0  0  0  0
   -4.5756   -2.6489   -0.8167 C   0  0  0  0  0  0  0  0  0  0  0  0
   -5.1322   -2.4384   -2.0697 C   0  0  0  0  0  0  0  0  0  0  0  0
   -6.4617   -2.3849   -1.9535 N   0  0  0  0  0  0  0  0  0  0  0  0
   -6.8075   -2.5530   -0.6690 C   0  0  0  0  0  0  0  0  0  0  0  0
   -8.0555   -2.5949   -0.0425 C   0  0  0  0  0  0  0  0  0  0  0  0
   -8.1614   -2.8056    1.3110 C   0  0  0  0  0  0  0  0  0  0  0  0
   -7.0070   -2.9725    2.0250 C   0  0  0  0  0  0  0  0  0  0  0  0
   -5.7875   -2.9293    1.4076 C   0  0  0  0  0  0  0  0  0  0  0  0
   -5.6203   -2.7211    0.0555 C   0  0  0  0  0  0  0  0  0  0  0  0
   -3.2167   -0.7486    0.8823 N   0  0  0  0  0  0  0  0  0  0  0  0
   -3.8197    0.5081    0.9439 C   0  0  0  0  0  0  0  0  0  0  0  0
   -4.9942    0.5587    1.4624 O   0  0  0  0  0  0  0  0  0  0  0  0
   -3.2623    1.8097    0.4792 C   0  0  1  0  0  0  0  0  0  0  0  0
   -2.4078    2.4542    1.5315 C   0  0  0  0  0  0  0  0  0  0  0  0
   -3.3120    2.6602    2.7198 C   0  0  0  0  0  0  0  0  0  0  0  0
   -3.3441    1.9003    3.8639 C   0  0  0  0  0  0  0  0  0  0  0  0
   -4.2863    2.3838    4.7068 N   0  0  0  0  0  0  0  0  0  0  0  0
   -4.8773    3.4477    4.1435 C   0  0  0  0  0  0  0  0  0  0  0  0
   -5.8779    4.2590    4.6153 C   0  0  0  0  0  0  0  0  0  0  0  0
   -6.3232    5.3223    3.8203 C   0  0  0  0  0  0  0  0  0  0  0  0
   -5.7169    5.4889    2.5924 C   0  0  0  0  0  0  0  0  0  0  0  0
   -4.7094    4.6692    2.1210 C   0  0  0  0  0  0  0  0  0  0  0  0
   -4.2774    3.6266    2.9080 C   0  0  0  0  0  0  0  0  0  0  0  0
   -2.7251    1.7869   -0.8490 N   0  0  0  0  0  0  0  0  0  0  0  0
   -1.4720    2.0259   -1.3681 C   0  0  0  0  0  0  0  0  0  0  0  0
   -1.1574    1.3008   -2.3986 O   0  0  0  0  0  0  0  0  0  0  0  0
   -0.3971    2.9575   -0.9805 C   0  0  2  0  0  0  0  0  0  0  0  0
   -0.6944    4.3863   -1.3781 C   0  0  0  0  0  0  0  0  0  0  0  0
   -0.8777    4.5421   -2.8282 C   0  0  0  0  0  0  0  0  0  0  0  0
   -2.1108    4.3977   -3.4189 C   0  0  0  0  0  0  0  0  0  0  0  0
   -2.2901    4.5410   -4.7914 C   0  0  0  0  0  0  0  0  0  0  0  0
   -1.2180    4.8344   -5.5928 C   0  0  0  0  0  0  0  0  0  0  0  0
    0.0249    4.9839   -5.0253 C   0  0  0  0  0  0  0  0  0  0  0  0
    0.1795    4.8365   -3.6558 C   0  0  0  0  0  0  0  0  0  0  0  0
    0.8647    2.6189   -1.6501 N   0  0  0  0  0  0  0  0  0  0  0  0
    2.1506    2.8786   -1.1282 C   0  0  0  0  0  0  0  0  0  0  0  0
    3.1009    2.6742   -1.9282 O   0  0  0  0  0  0  0  0  0  0  0  0
    2.3877    3.3377    0.1932 C   0  0  2  0  0  0  0  0  0  0  0  0
    3.4264    4.4745    0.2662 C   0  0  0  0  0  0  0  0  0  0  0  0
    3.4842    4.6448    1.7657 C   0  0  0  0  0  0  0  0  0  0  0  0
    2.8205    3.4438    2.3753 C   0  0  0  0  0  0  0  0  0  0  0  0
    2.8417    2.4727    1.2395 N   0  0  0  0  0  0  0  0  0  0  0  0
    3.1623    1.1107    1.2619 C   0  0  0  0  0  0  0  0  0  0  0  0
    2.5248    0.4599    2.2244 O   0  0  0  0  0  0  0  0  0  0  0  0
    4.0203    0.2173    0.4959 C   0  0  2  0  0  0  0  0  0  0  0  0
    5.3739    0.6629    0.0831 C   0  0  0  0  0  0  0  0  0  0  0  0
    6.3234    0.9862    1.1501 C   0  0  0  0  0  0  0  0  0  0  0  0
    7.0586   -0.0223    1.7758 C   0  0  0  0  0  0  0  0  0  0  0  0
    7.9786    0.2845    2.7605 C   0  0  0  0  0  0  0  0  0  0  0  0
    8.2005    1.5761    3.1546 C   0  0  0  0  0  0  0  0  0  0  0  0
    7.4912    2.5732    2.5535 C   0  0  0  0  0  0  0  0  0  0  0  0
    6.5715    2.2575    1.5676 C   0  0  0  0  0  0  0  0  0  0  0  0
    3.3386   -0.5654   -0.5250 N   0  0  0  0  0  0  0  0  0  0  0  0
    3.6012   -1.9237   -0.8133 C   0  0  0  0  0  0  0  0  0  0  0  0
    3.8320   -2.2006   -2.0530 O   0  0  0  0  0  0  0  0  0  0  0  0
    5.7682   -4.8288    1.2882 H   0  0  0  0  0  0  0  0  0  0  0  0
    4.8576   -6.1243    0.4301 H   0  0  0  0  0  0  0  0  0  0  0  0
    4.0153   -5.0005    1.5131 H   0  0  0  0  0  0  0  0  0  0  0  0
    4.1755   -4.6603   -1.2755 H   0  0  0  0  0  0  0  0  0  0  0  0
    6.0238   -2.5329   -0.1312 H   0  0  0  0  0  0  0  0  0  0  0  0
    6.0428   -3.2482   -1.7641 H   0  0  0  0  0  0  0  0  0  0  0  0
    6.7440   -4.1233   -0.3488 H   0  0  0  0  0  0  0  0  0  0  0  0
    4.2881   -2.6387    0.9807 H   0  0  0  0  0  0  0  0  0  0  0  0
    2.3305   -3.4091    1.7298 H   0  0  0  0  0  0  0  0  0  0  0  0
   -0.7775   -4.1289   -0.5631 H   0  0  0  0  0  0  0  0  0  0  0  0
    1.3161   -3.6105   -2.6973 H   0  0  0  0  0  0  0  0  0  0  0  0
   -0.4698   -3.5195   -2.8322 H   0  0  0  0  0  0  0  0  0  0  0  0
    2.4462   -5.7740   -2.3755 H   0  0  0  0  0  0  0  0  0  0  0  0
    2.3599   -8.1838   -2.7052 H   0  0  0  0  0  0  0  0  0  0  0  0
    0.2302   -9.3137   -2.9945 H   0  0  0  0  0  0  0  0  0  0  0  0
   -1.8264   -8.0278   -2.9487 H   0  0  0  0  0  0  0  0  0  0  0  0
   -1.7646   -5.5479   -2.6056 H   0  0  0  0  0  0  0  0  0  0  0  0
    0.5881   -1.5531   -1.2087 H   0  0  0  0  0  0  0  0  0  0  0  0
   -2.7398   -0.7746   -1.1510 H   0  0  0  0  0  0  0  0  0  0  0  0
   -2.9117   -3.4445    0.2848 H   0  0  0  0  0  0  0  0  0  0  0  0
   -2.6811   -3.1699   -1.4562 H   0  0  0  0  0  0  0  0  0  0  0  0
   -4.5894   -2.3295   -3.0185 H   0  0  0  0  0  0  0  0  0  0  0  0
   -7.1582   -2.2362   -2.7198 H   0  0  0  0  0  0  0  0  0  0  0  0
   -8.9638   -2.4621   -0.6113 H   0  0  0  0  0  0  0  0  0  0  0  0
   -9.1395   -2.8364    1.7881 H   0  0  0  0  0  0  0  0  0  0  0  0
   -7.0589   -3.1388    3.0822 H   0  0  0  0  0  0  0  0  0  0  0  0
   -4.8576   -3.0661    1.9783 H   0  0  0  0  0  0  0  0  0  0  0  0
   -3.2236   -1.3373    1.7741 H   0  0  0  0  0  0  0  0  0  0  0  0
   -4.1496    2.5327    0.3913 H   0  0  0  0  0  0  0  0  0  0  0  0
   -1.5530    1.8429    1.7852 H   0  0  0  0  0  0  0  0  0  0  0  0
   -2.1400    3.4837    1.2273 H   0  0  0  0  0  0  0  0  0  0  0  0
   -2.7322    1.0440    4.0941 H   0  0  0  0  0  0  0  0  0  0  0  0
   -4.4949    1.9659    5.6496 H   0  0  0  0  0  0  0  0  0  0  0  0
   -6.3701    4.1526    5.5709 H   0  0  0  0  0  0  0  0  0  0  0  0
   -7.1152    5.9736    4.1814 H   0  0  0  0  0  0  0  0  0  0  0  0
   -6.0397    6.3078    1.9456 H   0  0  0  0  0  0  0  0  0  0  0  0
   -4.2586    4.8369    1.1455 H   0  0  0  0  0  0  0  0  0  0  0  0
   -3.4914    1.5205   -1.5749 H   0  0  0  0  0  0  0  0  0  0  0  0
   -0.1981    2.8597    0.0987 H   0  0  0  0  0  0  0  0  0  0  0  0
    0.1327    5.0296   -1.0154 H   0  0  0  0  0  0  0  0  0  0  0  0
   -1.5922    4.7077   -0.8153 H   0  0  0  0  0  0  0  0  0  0  0  0
   -2.9909    4.1665   -2.8390 H   0  0  0  0  0  0  0  0  0  0  0  0
   -3.2584    4.4284   -5.2582 H   0  0  0  0  0  0  0  0  0  0  0  0
   -1.3694    4.9453   -6.6799 H   0  0  0  0  0  0  0  0  0  0  0  0
    0.8408    5.2140   -5.6961 H   0  0  0  0  0  0  0  0  0  0  0  0
    1.1838    4.9675   -3.2412 H   0  0  0  0  0  0  0  0  0  0  0  0
    0.7237    2.1459   -2.5939 H   0  0  0  0  0  0  0  0  0  0  0  0
    1.4539    3.8762    0.6081 H   0  0  0  0  0  0  0  0  0  0  0  0
    4.3897    4.1801   -0.1753 H   0  0  0  0  0  0  0  0  0  0  0  0
    2.9936    5.3963   -0.1789 H   0  0  0  0  0  0  0  0  0  0  0  0
    2.9911    5.5850    2.0932 H   0  0  0  0  0  0  0  0  0  0  0  0
    4.5603    4.6800    2.1067 H   0  0  0  0  0  0  0  0  0  0  0  0
    1.7566    3.7047    2.5794 H   0  0  0  0  0  0  0  0  0  0  0  0
    3.2542    3.0813    3.2869 H   0  0  0  0  0  0  0  0  0  0  0  0
    4.3327   -0.6694    1.2278 H   0  0  0  0  0  0  0  0  0  0  0  0
    5.8323   -0.2006   -0.4844 H   0  0  0  0  0  0  0  0  0  0  0  0
    5.3732    1.4874   -0.6623 H   0  0  0  0  0  0  0  0  0  0  0  0
    6.9325   -1.0597    1.5152 H   0  0  0  0  0  0  0  0  0  0  0  0
    8.5285   -0.5259    3.2217 H   0  0  0  0  0  0  0  0  0  0  0  0
    8.9252    1.8330    3.9309 H   0  0  0  0  0  0  0  0  0  0  0  0
    7.6691    3.5981    2.8682 H   0  0  0  0  0  0  0  0  0  0  0  0
    6.0617    3.0952    1.1269 H   0  0  0  0  0  0  0  0  0  0  0  0
    2.5725   -0.1223   -1.1263 H   0  0  0  0  0  0  0  0  0  0  0  0
  1  2  1  0
  2  3  1  0
  2  4  1  0
  4  5  1  0
  5  6  1  0
  6  7  2  0
  6  8  1  0
  8  9  1  0
  9 10  1  0
 10 11  2  0
 11 12  1  0
 12 13  2  0
 13 14  1  0
 14 15  2  0
  8 16  1  0
 16 17  1  0
 17 18  2  0
 17 19  1  0
 19 20  1  0
 20 21  1  0
 21 22  2  0
 22 23  1  0
 23 24  1  0
 24 25  2  0
 25 26  1  0
 26 27  2  0
 27 28  1  0
 28 29  2  0
 19 30  1  0
 30 31  1  0
 31 32  2  0
 31 33  1  0
 33 34  1  0
 34 35  1  0
 35 36  2  0
 36 37  1  0
 37 38  1  0
 38 39  2  0
 39 40  1  0
 40 41  2  0
 41 42  1  0
 42 43  2  0
 33 44  1  0
 44 45  1  0
 45 46  2  0
 45 47  1  0
 47 48  1  0
 48 49  1  0
 49 50  2  0
 50 51  1  0
 51 52  2  0
 52 53  1  0
 53 54  2  0
 47 55  1  0
 55 56  1  0
 56 57  2  0
 56 58  1  0
 58 59  1  0
 59 60  1  0
 60 61  1  0
 61 62  1  0
 62 63  1  0
 63 64  2  0
 63 65  1  0
 65 66  1  0
 66 67  1  0
 67 68  2  0
 68 69  1  0
 69 70  2  0
 70 71  1  0
 71 72  2  0
 65 73  1  0
 73 74  1  0
 74 75  2  0
 74  4  1  0
 15 10  1  0
 29 21  1  0
 43 35  1  0
 54 49  1  0
 62 58  1  0
 72 67  1  0
 29 24  1  0
 43 38  1  0
  1 76  1  0
  1 77  1  0
  1 78  1  0
  2 79  1  0
  3 80  1  0
  3 81  1  0
  3 82  1  0
  4 83  1  1
  5 84  1  0
  8 85  1  1
  9 86  1  0
  9 87  1  0
 11 88  1  0
 12 89  1  0
 13 90  1  0
 14 91  1  0
 15 92  1  0
 16 93  1  0
 19 94  1  6
 20 95  1  0
 20 96  1  0
 22 97  1  0
 23 98  1  0
 25 99  1  0
 26100  1  0
 27101  1  0
 28102  1  0
 30103  1  0
 33104  1  6
 34105  1  0
 34106  1  0
 36107  1  0
 37108  1  0
 39109  1  0
 40110  1  0
 41111  1  0
 42112  1  0
 44113  1  0
 47114  1  1
 48115  1  0
 48116  1  0
 50117  1  0
 51118  1  0
 52119  1  0
 53120  1  0
 54121  1  0
 55122  1  0
 58123  1  1
 59124  1  0
 59125  1  0
 60126  1  0
 60127  1  0
 61128  1  0
 61129  1  0
 65130  1  1
 66131  1  0
 66132  1  0
 68133  1  0
 69134  1  0
 70135  1  0
 71136  1  0
 72137  1  0
 73138  1  0
M  END
$$$$
[H]c1nc(OC([H])([H])c2c(-c3c([H])c([H])c([H])c(F)c3[H])noc2C([H])([H])[H])c([H])c([H])c1C(=O)N1C([H])([H])C([H])([H])OC([H])([H])C1([H])[H]
     RDKit          3D

 49 52  0  0  0  0  0  0  0  0999 V2000
   -1.6287   -3.0947   -0.8966 C   0  0  0  0  0  0  0  0  0  0  0  0
   -2.8550   -2.2612   -0.9634 C   0  0  0  0  0  0  0  0  0  0  0  0
   -3.8856   -2.5050   -1.7751 O   0  0  0  0  0  0  0  0  0  0  0  0
   -4.7976   -1.6430   -1.6514 N   0  0  0  0  0  0  0  0  0  0  0  0
   -4.4419   -0.7034   -0.6936 C   0  0  0  0  0  0  0  0  0  0  0  0
   -3.1729   -1.1202   -0.2607 C   0  0  0  0  0  0  0  0  0  0  0  0
   -2.5152   -0.5647    0.9206 C   0  0  0  0  0  0  0  0  0  0  0  0
   -1.8339    0.7088    0.6305 O   0  0  0  0  0  0  0  0  0  0  0  0
   -0.4054    0.5640    0.5973 C   0  0  0  0  0  0  0  0  0  0  0  0
    0.5103    1.5100    0.2722 C   0  0  0  0  0  0  0  0  0  0  0  0
    1.8696    1.2496    0.3087 C   0  0  0  0  0  0  0  0  0  0  0  0
    2.3743    0.0297    0.6738 C   0  0  0  0  0  0  0  0  0  0  0  0
    1.3989   -0.9453    1.0070 C   0  0  0  0  0  0  0  0  0  0  0  0
    0.1158   -0.6400    0.9504 N   0  0  0  0  0  0  0  0  0  0  0  0
    3.7228   -0.4102    0.7172 C   0  0  0  0  0  0  0  0  0  0  0  0
    3.8663   -1.4543    1.6025 O   0  0  0  0  0  0  0  0  0  0  0  0
    4.9257   -0.0912    0.1082 N   0  0  0  0  0  0  0  0  0  0  0  0
    5.1934    0.8735   -0.8711 C   0  0  0  0  0  0  0  0  0  0  0  0
    6.3880    1.7538   -0.4866 C   0  0  0  0  0  0  0  0  0  0  0  0
    7.3469    1.0639    0.1893 O   0  0  0  0  0  0  0  0  0  0  0  0
    7.3073   -0.3058   -0.0579 C   0  0  0  0  0  0  0  0  0  0  0  0
    6.0982   -0.8939    0.5957 C   0  0  0  0  0  0  0  0  0  0  0  0
   -5.3205    0.3411   -0.2247 C   0  0  0  0  0  0  0  0  0  0  0  0
   -6.5642   -0.1061    0.2681 C   0  0  0  0  0  0  0  0  0  0  0  0
   -7.5580    0.7423    0.7164 C   0  0  0  0  0  0  0  0  0  0  0  0
   -7.3177    2.0947    0.6777 C   0  0  0  0  0  0  0  0  0  0  0  0
   -6.1204    2.5533    0.2036 C   0  0  0  0  0  0  0  0  0  0  0  0
   -5.9132    3.8963    0.1592 F   0  0  0  0  0  0  0  0  0  0  0  0
   -5.1189    1.6823   -0.2475 C   0  0  0  0  0  0  0  0  0  0  0  0
   -1.4332   -3.5426    0.0851 H   0  0  0  0  0  0  0  0  0  0  0  0
   -0.7331   -2.4925   -1.1937 H   0  0  0  0  0  0  0  0  0  0  0  0
   -1.7382   -3.9641   -1.5889 H   0  0  0  0  0  0  0  0  0  0  0  0
   -3.3215   -0.1737    1.6458 H   0  0  0  0  0  0  0  0  0  0  0  0
   -1.8537   -1.1776    1.4790 H   0  0  0  0  0  0  0  0  0  0  0  0
    0.1725    2.5058   -0.0470 H   0  0  0  0  0  0  0  0  0  0  0  0
    2.5746    2.0592    0.0340 H   0  0  0  0  0  0  0  0  0  0  0  0
    1.7489   -1.9334    1.3028 H   0  0  0  0  0  0  0  0  0  0  0  0
    4.3409    1.4474   -1.2255 H   0  0  0  0  0  0  0  0  0  0  0  0
    5.6206    0.3209   -1.8050 H   0  0  0  0  0  0  0  0  0  0  0  0
    5.9778    2.5568    0.2086 H   0  0  0  0  0  0  0  0  0  0  0  0
    6.8003    2.2115   -1.4142 H   0  0  0  0  0  0  0  0  0  0  0  0
    7.4230   -0.6033   -1.0883 H   0  0  0  0  0  0  0  0  0  0  0  0
    8.1972   -0.7187    0.4793 H   0  0  0  0  0  0  0  0  0  0  0  0
    5.9376   -1.9348    0.2906 H   0  0  0  0  0  0  0  0  0  0  0  0
    6.1551   -0.8208    1.7223 H   0  0  0  0  0  0  0  0  0  0  0  0
   -6.7478   -1.1801    0.3067 H   0  0  0  0  0  0  0  0  0  0  0  0
   -8.4831    0.3312    1.0772 H   0  0  0  0  0  0  0  0  0  0  0  0
   -8.1408    2.7332    1.0382 H   0  0  0  0  0  0  0  0  0  0  0  0
   -4.1658    2.0514   -0.6102 H   0  0  0  0  0  0  0  0  0  0  0  0
  1  2  1  0
  2  3  1  0
  3  4  1  0
  4  5  2  0
  5  6  1  0
  6  7  1  0
  7  8  1  0
  8  9  1  0
  9 10  2  0
 10 11  1  0
 11 12  2  0
 12 13  1  0
 13 14  2  0
 12 15  1  0
 15 16  2  0
 15 17  1  0
 17 18  1  0
 18 19  1  0
 19 20  1  0
 20 21  1  0
 21 22  1  0
  5 23  1  0
 23 24  2  0
 24 25  1  0
 25 26  2  0
 26 27  1  0
 27 28  1  0
 27 29  2  0
  6  2  2  0
 14  9  1  0
 22 17  1  0
 29 23  1  0
  1 30  1  0
  1 31  1  0
  1 32  1  0
  7 33  1  0
  7 34  1  0
 10 35  1  0
 11 36  1  0
 13 37  1  0
 18 38  1  0
 18 39  1  0
 19 40  1  0
 19 41  1  0
 21 42  1  0
 21 43  1  0
 22 44  1  0
 22 45  1  0
 24 46  1  0
 25 47  1  0
 26 48  1  0
 29 49  1  0
M  END
$$$$
[H]c1nc(OC([H])([H])[H])c([H])c(N([H])c2nc([H])c(F)c(N([H])c3nc4c(c([H])c3[H])OC(C([H])([H])[H])(C([H])([H])[H])C(=O)N4[H])n2)c1[H]
     RDKit          3D

 48 51  0  0  0  0  0  0  0  0999 V2000
    3.2076    3.0411    1.0449 C   0  0  0  0  0  0  0  0  0  0  0  0
    2.9114    1.8628    0.3208 O   0  0  0  0  0  0  0  0  0  0  0  0
    3.7130    0.7459    0.5711 C   0  0  0  0  0  0  0  0  0  0  0  0
    3.4563   -0.4392   -0.1216 C   0  0  0  0  0  0  0  0  0  0  0  0
    4.1641   -1.5928    0.0336 C   0  0  0  0  0  0  0  0  0  0  0  0
    3.9642   -2.8193   -0.6073 N   0  0  0  0  0  0  0  0  0  0  0  0
    2.7428   -3.2724   -1.1275 C   0  0  0  0  0  0  0  0  0  0  0  0
    2.8110   -4.4976   -1.7526 N   0  0  0  0  0  0  0  0  0  0  0  0
    1.6900   -5.0075   -2.2582 C   0  0  0  0  0  0  0  0  0  0  0  0
    0.4718   -4.3897   -2.1952 C   0  0  0  0  0  0  0  0  0  0  0  0
   -0.6161   -4.9830   -2.7375 F   0  0  0  0  0  0  0  0  0  0  0  0
    0.3929   -3.1319   -1.5539 C   0  0  0  0  0  0  0  0  0  0  0  0
   -0.8319   -2.4844   -1.5072 N   0  0  0  0  0  0  0  0  0  0  0  0
   -1.2499   -1.2832   -0.9092 C   0  0  0  0  0  0  0  0  0  0  0  0
   -0.4965   -0.4785   -0.0963 C   0  0  0  0  0  0  0  0  0  0  0  0
   -0.9706    0.7289    0.4391 C   0  0  0  0  0  0  0  0  0  0  0  0
   -2.2452    1.1506    0.1544 C   0  0  0  0  0  0  0  0  0  0  0  0
   -2.7698    2.3340    0.6535 O   0  0  0  0  0  0  0  0  0  0  0  0
   -4.1466    2.6372    0.6674 C   0  0  0  0  0  0  0  0  0  0  0  0
   -4.7514    2.1784    1.9823 C   0  0  0  0  0  0  0  0  0  0  0  0
   -4.3939    4.1272    0.5647 C   0  0  0  0  0  0  0  0  0  0  0  0
   -4.8670    1.9822   -0.4541 C   0  0  0  0  0  0  0  0  0  0  0  0
   -5.9144    2.5090   -0.9127 O   0  0  0  0  0  0  0  0  0  0  0  0
   -4.3313    0.7752   -0.9623 N   0  0  0  0  0  0  0  0  0  0  0  0
   -2.9913    0.3330   -0.6618 C   0  0  0  0  0  0  0  0  0  0  0  0
   -2.5152   -0.8091   -1.1570 N   0  0  0  0  0  0  0  0  0  0  0  0
    1.5469   -2.6740   -1.0690 N   0  0  0  0  0  0  0  0  0  0  0  0
    5.2166   -1.5411    0.9647 C   0  0  0  0  0  0  0  0  0  0  0  0
    5.4456   -0.3706    1.6273 C   0  0  0  0  0  0  0  0  0  0  0  0
    4.7253    0.7553    1.4510 N   0  0  0  0  0  0  0  0  0  0  0  0
    2.4623    3.7996    0.7933 H   0  0  0  0  0  0  0  0  0  0  0  0
    3.1520    2.7959    2.1212 H   0  0  0  0  0  0  0  0  0  0  0  0
    4.2504    3.3328    0.7311 H   0  0  0  0  0  0  0  0  0  0  0  0
    2.6389   -0.4146   -0.8326 H   0  0  0  0  0  0  0  0  0  0  0  0
    4.8117   -3.4849   -0.7210 H   0  0  0  0  0  0  0  0  0  0  0  0
    1.7360   -5.9787   -2.7559 H   0  0  0  0  0  0  0  0  0  0  0  0
   -1.6308   -3.0048   -2.0363 H   0  0  0  0  0  0  0  0  0  0  0  0
    0.4991   -0.8108    0.1530 H   0  0  0  0  0  0  0  0  0  0  0  0
   -0.3281    1.3192    1.0726 H   0  0  0  0  0  0  0  0  0  0  0  0
   -5.4392    2.9413    2.3997 H   0  0  0  0  0  0  0  0  0  0  0  0
   -3.9818    1.9558    2.7477 H   0  0  0  0  0  0  0  0  0  0  0  0
   -5.3655    1.2594    1.8141 H   0  0  0  0  0  0  0  0  0  0  0  0
   -4.3584    4.6034    1.5782 H   0  0  0  0  0  0  0  0  0  0  0  0
   -5.3942    4.2669    0.1096 H   0  0  0  0  0  0  0  0  0  0  0  0
   -3.6133    4.5430   -0.1067 H   0  0  0  0  0  0  0  0  0  0  0  0
   -4.9055    0.1673   -1.5775 H   0  0  0  0  0  0  0  0  0  0  0  0
    5.8413   -2.3877    1.1692 H   0  0  0  0  0  0  0  0  0  0  0  0
    6.2568   -0.2896    2.3613 H   0  0  0  0  0  0  0  0  0  0  0  0
  1  2  1  0
  2  3  1  0
  3  4  2  0
  4  5  1  0
  5  6  1  0
  6  7  1  0
  7  8  2  0
  8  9  1  0
  9 10  2  0
 10 11  1  0
 10 12  1  0
 12 13  1  0
 13 14  1  0
 14 15  2  0
 15 16  1  0
 16 17  2  0
 17 18  1  0
 18 19  1  0
 19 20  1  0
 19 21  1  0
 19 22  1  0
 22 23  2  0
 22 24  1  0
 24 25  1  0
 25 26  2  0
 12 27  2  0
  5 28  2  0
 28 29  1  0
 29 30  2  0
 30  3  1  0
 27  7  1  0
 26 14  1  0
 25 17  1  0
  1 31  1  0
  1 32  1  0
  1 33  1  0
  4 34  1  0
  6 35  1  0
  9 36  1  0
 13 37  1  0
 15 38  1  0
 16 39  1  0
 20 40  1  0
 20 41  1  0
 20 42  1  0
 21 43  1  0
 21 44  1  0
 21 45  1  0
 24 46  1  0
 28 47  1  0
 29 48  1  0
M  END
$$$$
[H]OC(=O)c1[se]c(-c2c([H])c([H])c([H])c(C#N)c2[H])nc1C([H])([H])[H]
     RDKit          3D

 25 26  0  0  0  0  0  0  0  0999 V2000
    3.1718   -2.0374   -0.1047 C   0  0  0  0  0  0  0  0  0  0  0  0
    2.1825   -0.8715   -0.0051 C   0  0  0  0  0  0  0  0  0  0  0  0
    0.9411   -1.0247   -0.1026 N   0  0  0  0  0  0  0  0  0  0  0  0
   -0.0875   -0.3674   -0.0743 C   0  0  0  0  0  0  0  0  0  0  0  0
    1.1076    1.5311    0.2629 Se  0  0  0  0  0  2  0  0  0  0  0  0
    2.7701    0.3451    0.2000 C   0  0  0  0  0  0  0  0  0  0  0  0
    4.1261    0.8141    0.3465 C   0  0  0  0  0  0  0  0  0  0  0  0
    4.3491    2.1653    0.5502 O   0  0  0  0  0  0  0  0  0  0  0  0
    5.0692    0.0115    0.2892 O   0  0  0  0  0  0  0  0  0  0  0  0
   -1.4971   -0.1786   -0.1346 C   0  0  0  0  0  0  0  0  0  0  0  0
   -2.3107   -1.3033   -0.3410 C   0  0  0  0  0  0  0  0  0  0  0  0
   -3.6542   -1.1551   -0.4028 C   0  0  0  0  0  0  0  0  0  0  0  0
   -4.2638    0.0845   -0.2679 C   0  0  0  0  0  0  0  0  0  0  0  0
   -3.4909    1.1820   -0.0678 C   0  0  0  0  0  0  0  0  0  0  0  0
   -2.1314    1.0338   -0.0050 C   0  0  0  0  0  0  0  0  0  0  0  0
   -4.0832    2.4916    0.0780 C   0  0  0  0  0  0  0  0  0  0  0  0
   -4.5624    3.5454    0.2155 N   0  0  0  0  0  0  0  0  0  0  0  0
    3.7875   -1.7936   -0.9858 H   0  0  0  0  0  0  0  0  0  0  0  0
    2.6916   -3.0069   -0.1402 H   0  0  0  0  0  0  0  0  0  0  0  0
    3.8265   -2.0430    0.7994 H   0  0  0  0  0  0  0  0  0  0  0  0
    5.0349    2.6816    0.0518 H   0  0  0  0  0  0  0  0  0  0  0  0
   -1.8134   -2.2507   -0.4422 H   0  0  0  0  0  0  0  0  0  0  0  0
   -4.3024   -1.9960   -0.5596 H   0  0  0  0  0  0  0  0  0  0  0  0
   -5.3216    0.1934   -0.3177 H   0  0  0  0  0  0  0  0  0  0  0  0
   -1.5395    1.9489    0.1586 H   0  0  0  0  0  0  0  0  0  0  0  0
  1  2  1  0
  2  3  1  0
  3  4  2  0
  4  5  1  0
  5  6  1  0
  6  7  1  0
  7  8  1  0
  7  9  2  0
  4 10  1  0
 10 11  2  0
 11 12  1  0
 12 13  2  0
 13 14  1  0
 14 15  2  0
 14 16  1  0
 16 17  3  0
  6  2  2  0
 15 10  1  0
  1 18  1  0
  1 19  1  0
  1 20  1  0
  8 21  1  0
 11 22  1  0
 12 23  1  0
 13 24  1  0
 15 25  1  0
M  END
$$$$
[H]c1nc(-c2c([H])c3c([H])c(Oc4c([H])nc(S(=O)(=O)C([H])([H])[H])c([H])c4[H])c(C4([H])N(C([H])([H])[H])C(=O)C([H])([H])C4([H])[H])c([H])c3n2[H])c([H])c([H])c1F
     RDKit          3D

 55 59  0  0  0  0  0  0  0  0999 V2000
    1.7340   -4.8329    0.3083 C   0  0  0  0  0  0  0  0  0  0  0  0
    0.4292   -4.3399    0.5226 N   0  0  0  0  0  0  0  0  0  0  0  0
   -0.3195   -3.1048    0.3893 C   0  0  0  0  0  0  0  0  0  0  0  0
   -1.2974   -3.6939   -0.6817 C   0  0  0  0  0  0  0  0  0  0  0  0
   -1.9225   -4.7401    0.2867 C   0  0  0  0  0  0  0  0  0  0  0  0
   -0.6591   -5.2668    0.9244 C   0  0  0  0  0  0  0  0  0  0  0  0
   -0.5667   -6.2770    1.6377 O   0  0  0  0  0  0  0  0  0  0  0  0
    0.3128   -1.8928    0.0062 C   0  0  0  0  0  0  0  0  0  0  0  0
    1.5943   -1.6946   -0.3812 C   0  0  0  0  0  0  0  0  0  0  0  0
    2.1515   -0.4063   -0.5790 C   0  0  0  0  0  0  0  0  0  0  0  0
    3.3808    0.0369   -0.9125 N   0  0  0  0  0  0  0  0  0  0  0  0
    3.3695    1.3988   -0.9254 C   0  0  0  0  0  0  0  0  0  0  0  0
    2.1213    1.8414   -0.5952 C   0  0  0  0  0  0  0  0  0  0  0  0
    1.3691    0.7144   -0.3785 C   0  0  0  0  0  0  0  0  0  0  0  0
    0.0557    0.5359    0.0175 C   0  0  0  0  0  0  0  0  0  0  0  0
   -0.4346   -0.7134    0.1983 C   0  0  0  0  0  0  0  0  0  0  0  0
   -1.7415   -0.8666    0.5788 O   0  0  0  0  0  0  0  0  0  0  0  0
   -2.6061    0.2056    0.7287 C   0  0  0  0  0  0  0  0  0  0  0  0
   -2.8377    0.8092    1.9456 C   0  0  0  0  0  0  0  0  0  0  0  0
   -3.7022    1.8615    2.0218 C   0  0  0  0  0  0  0  0  0  0  0  0
   -4.3420    2.3200    0.8761 C   0  0  0  0  0  0  0  0  0  0  0  0
   -4.0977    1.7138   -0.2895 N   0  0  0  0  0  0  0  0  0  0  0  0
   -3.2558    0.6746   -0.4139 C   0  0  0  0  0  0  0  0  0  0  0  0
   -5.4368    3.6802    0.9867 S   0  0  0  0  0  0  0  0  0  0  0  0
   -7.0566    3.2275    0.4253 C   0  0  0  0  0  0  0  0  0  0  0  0
   -4.9305    4.8268    0.1083 O   0  0  0  0  0  0  0  0  0  0  0  0
   -5.5383    4.2122    2.3730 O   0  0  0  0  0  0  0  0  0  0  0  0
    4.5506    2.2409   -1.1644 C   0  0  0  0  0  0  0  0  0  0  0  0
    5.7798    1.6629   -1.3211 C   0  0  0  0  0  0  0  0  0  0  0  0
    6.8638    2.5490   -1.4969 C   0  0  0  0  0  0  0  0  0  0  0  0
    6.6447    3.8906   -1.4956 C   0  0  0  0  0  0  0  0  0  0  0  0
    7.7287    4.7310   -1.6546 F   0  0  0  0  0  0  0  0  0  0  0  0
    5.4106    4.4423   -1.3356 C   0  0  0  0  0  0  0  0  0  0  0  0
    4.3722    3.5617   -1.1690 N   0  0  0  0  0  0  0  0  0  0  0  0
    1.7953   -5.9785    0.3586 H   0  0  0  0  0  0  0  0  0  0  0  0
    2.0916   -4.6758   -0.7681 H   0  0  0  0  0  0  0  0  0  0  0  0
    2.4621   -4.4442    1.0342 H   0  0  0  0  0  0  0  0  0  0  0  0
   -0.9411   -2.9726    1.2973 H   0  0  0  0  0  0  0  0  0  0  0  0
   -0.8040   -4.2530   -1.4472 H   0  0  0  0  0  0  0  0  0  0  0  0
   -2.0931   -3.0029   -0.9229 H   0  0  0  0  0  0  0  0  0  0  0  0
   -2.5400   -4.2250    1.0690 H   0  0  0  0  0  0  0  0  0  0  0  0
   -2.3978   -5.5530   -0.2345 H   0  0  0  0  0  0  0  0  0  0  0  0
    2.3126   -2.4733   -0.5797 H   0  0  0  0  0  0  0  0  0  0  0  0
    4.1865   -0.5879   -1.1221 H   0  0  0  0  0  0  0  0  0  0  0  0
    1.7518    2.8835   -0.5145 H   0  0  0  0  0  0  0  0  0  0  0  0
   -0.5328    1.4414    0.1616 H   0  0  0  0  0  0  0  0  0  0  0  0
   -2.3136    0.4165    2.8308 H   0  0  0  0  0  0  0  0  0  0  0  0
   -3.8598    2.3120    3.0094 H   0  0  0  0  0  0  0  0  0  0  0  0
   -3.0992    0.2185   -1.4036 H   0  0  0  0  0  0  0  0  0  0  0  0
   -7.8124    3.9728    0.7291 H   0  0  0  0  0  0  0  0  0  0  0  0
   -7.1115    3.1709   -0.6968 H   0  0  0  0  0  0  0  0  0  0  0  0
   -7.2993    2.2225    0.8890 H   0  0  0  0  0  0  0  0  0  0  0  0
    5.9920    0.6151   -1.3263 H   0  0  0  0  0  0  0  0  0  0  0  0
    7.8373    2.0980   -1.6173 H   0  0  0  0  0  0  0  0  0  0  0  0
    5.2521    5.5067   -1.3363 H   0  0  0  0  0  0  0  0  0  0  0  0
  1  2  1  0
  2  3  1  0
  3  4  1  0
  4  5  1  0
  5  6  1  0
  6  7  2  0
  3  8  1  0
  8  9  2  0
  9 10  1  0
 10 11  1  0
 11 12  1  0
 12 13  2  0
 13 14  1  0
 14 15  1  0
 15 16  2  0
 16 17  1  0
 17 18  1  0
 18 19  2  0
 19 20  1  0
 20 21  2  0
 21 22  1  0
 22 23  2  0
 21 24  1  0
 24 25  1  0
 24 26  2  0
 24 27  2  0
 12 28  1  0
 28 29  2  0
 29 30  1  0
 30 31  2  0
 31 32  1  0
 31 33  1  0
 33 34  2  0
  6  2  1  0
 16  8  1  0
 23 18  1  0
 34 28  1  0
 14 10  2  0
  1 35  1  0
  1 36  1  0
  1 37  1  0
  3 38  1  0
  4 39  1  0
  4 40  1  0
  5 41  1  0
  5 42  1  0
  9 43  1  0
 11 44  1  0
 13 45  1  0
 15 46  1  0
 19 47  1  0
 20 48  1  0
 23 49  1  0
 25 50  1  0
 25 51  1  0
 25 52  1  0
 29 53  1  0
 30 54  1  0
 33 55  1  0
M  END
$$$$
[H]c1nc(C([H])([H])N2C([H])([H])C([H])([H])C3(C(=O)N(c4c([H])c([H])c(C#N)c([H])c4[H])C(=O)N3c3nc([H])n([H])c(=O)c3[H])C([H])([H])C2([H])[H])c(C([H])([H])[H])c([H])c1[H]
     RDKit          3D

 58 62  0  0  0  0  0  0  0  0999 V2000
    6.0313   -0.5385    1.3777 C   0  0  0  0  0  0  0  0  0  0  0  0
    5.4437    0.3632    0.3684 C   0  0  0  0  0  0  0  0  0  0  0  0
    6.2497    1.1404   -0.4300 C   0  0  0  0  0  0  0  0  0  0  0  0
    5.7090    1.9961   -1.3877 C   0  0  0  0  0  0  0  0  0  0  0  0
    4.3421    2.0124   -1.4807 C   0  0  0  0  0  0  0  0  0  0  0  0
    3.5778    1.2437   -0.6890 N   0  0  0  0  0  0  0  0  0  0  0  0
    4.0724    0.4137    0.2383 C   0  0  0  0  0  0  0  0  0  0  0  0
    3.1908   -0.3907    1.0968 C   0  0  0  0  0  0  0  0  0  0  0  0
    1.7790   -0.2454    0.8190 N   0  0  0  0  0  0  0  0  0  0  0  0
    1.0365   -0.9779    1.8542 C   0  0  0  0  0  0  0  0  0  0  0  0
   -0.2780   -1.4729    1.3497 C   0  0  0  0  0  0  0  0  0  0  0  0
   -0.8768   -0.6126    0.2647 C   0  0  0  0  0  0  0  0  0  0  0  0
    0.0906   -0.3255   -0.8681 C   0  0  0  0  0  0  0  0  0  0  0  0
    1.4254   -0.8949   -0.4393 C   0  0  0  0  0  0  0  0  0  0  0  0
   -2.0349   -1.2707   -0.2937 N   0  0  0  0  0  0  0  0  0  0  0  0
   -2.9066   -0.2158   -0.7110 C   0  0  0  0  0  0  0  0  0  0  0  0
   -3.8585   -0.3540   -1.5503 O   0  0  0  0  0  0  0  0  0  0  0  0
   -2.5504    0.9996   -0.0507 N   0  0  0  0  0  0  0  0  0  0  0  0
   -1.4367    0.6530    0.7801 C   0  0  0  0  0  0  0  0  0  0  0  0
   -1.0293    1.3148    1.7580 O   0  0  0  0  0  0  0  0  0  0  0  0
   -3.1770    2.2665   -0.1988 C   0  0  0  0  0  0  0  0  0  0  0  0
   -2.4832    3.4311   -0.3496 C   0  0  0  0  0  0  0  0  0  0  0  0
   -3.1515    4.6329   -0.4892 C   0  0  0  0  0  0  0  0  0  0  0  0
   -4.5457    4.6889   -0.4800 C   0  0  0  0  0  0  0  0  0  0  0  0
   -5.2407    3.5169   -0.3284 C   0  0  0  0  0  0  0  0  0  0  0  0
   -4.5726    2.3331   -0.1910 C   0  0  0  0  0  0  0  0  0  0  0  0
   -5.2285    5.9500   -0.6272 C   0  0  0  0  0  0  0  0  0  0  0  0
   -5.7697    6.9563   -0.7608 N   0  0  0  0  0  0  0  0  0  0  0  0
   -2.3152   -2.6624   -0.4313 C   0  0  0  0  0  0  0  0  0  0  0  0
   -2.1513   -3.3075   -1.6488 C   0  0  0  0  0  0  0  0  0  0  0  0
   -2.4246   -4.6549   -1.7726 C   0  0  0  0  0  0  0  0  0  0  0  0
   -2.2813   -5.2677   -2.8791 O   0  0  0  0  0  0  0  0  0  0  0  0
   -2.8594   -5.3927   -0.7211 N   0  0  0  0  0  0  0  0  0  0  0  0
   -3.0102   -4.7441    0.4478 C   0  0  0  0  0  0  0  0  0  0  0  0
   -2.7480   -3.4293    0.5869 N   0  0  0  0  0  0  0  0  0  0  0  0
    6.0126   -1.6100    1.0410 H   0  0  0  0  0  0  0  0  0  0  0  0
    5.4990   -0.4591    2.3542 H   0  0  0  0  0  0  0  0  0  0  0  0
    7.1096   -0.3100    1.5408 H   0  0  0  0  0  0  0  0  0  0  0  0
    7.3376    1.1180   -0.3454 H   0  0  0  0  0  0  0  0  0  0  0  0
    6.3162    2.6135   -2.0237 H   0  0  0  0  0  0  0  0  0  0  0  0
    3.8906    2.6751   -2.2236 H   0  0  0  0  0  0  0  0  0  0  0  0
    3.4095   -0.2483    2.1795 H   0  0  0  0  0  0  0  0  0  0  0  0
    3.4751   -1.4681    0.9043 H   0  0  0  0  0  0  0  0  0  0  0  0
    0.9192   -0.2663    2.6961 H   0  0  0  0  0  0  0  0  0  0  0  0
    1.6408   -1.8468    2.1822 H   0  0  0  0  0  0  0  0  0  0  0  0
   -1.0003   -1.4101    2.2161 H   0  0  0  0  0  0  0  0  0  0  0  0
   -0.2801   -2.5472    1.0639 H   0  0  0  0  0  0  0  0  0  0  0  0
   -0.2443   -0.8125   -1.8079 H   0  0  0  0  0  0  0  0  0  0  0  0
    0.1700    0.7639   -1.0081 H   0  0  0  0  0  0  0  0  0  0  0  0
    1.2349   -1.9804   -0.1782 H   0  0  0  0  0  0  0  0  0  0  0  0
    2.2247   -0.7975   -1.1664 H   0  0  0  0  0  0  0  0  0  0  0  0
   -1.4031    3.4358   -0.3619 H   0  0  0  0  0  0  0  0  0  0  0  0
   -2.6268    5.5562   -0.6087 H   0  0  0  0  0  0  0  0  0  0  0  0
   -6.3164    3.5103   -0.3151 H   0  0  0  0  0  0  0  0  0  0  0  0
   -5.1523    1.4281   -0.0734 H   0  0  0  0  0  0  0  0  0  0  0  0
   -1.8043   -2.7524   -2.5182 H   0  0  0  0  0  0  0  0  0  0  0  0
   -3.0695   -6.4233   -0.8090 H   0  0  0  0  0  0  0  0  0  0  0  0
   -3.3609   -5.3234    1.3115 H   0  0  0  0  0  0  0  0  0  0  0  0
  1  2  1  0
  2  3  2  0
  3  4  1  0
  4  5  2  0
  5  6  1  0
  6  7  2  0
  7  8  1  0
  8  9  1  0
  9 10  1  0
 10 11  1  0
 11 12  1  0
 12 13  1  0
 13 14  1  0
 12 15  1  0
 15 16  1  0
 16 17  2  0
 16 18  1  0
 18 19  1  0
 19 20  2  0
 18 21  1  0
 21 22  2  0
 22 23  1  0
 23 24  2  0
 24 25  1  0
 25 26  2  0
 24 27  1  0
 27 28  3  0
 15 29  1  0
 29 30  2  0
 30 31  1  0
 31 32  2  0
 31 33  1  0
 33 34  1  0
 34 35  2  0
  7  2  1  0
 14  9  1  0
 26 21  1  0
 35 29  1  0
 19 12  1  0
  1 36  1  0
  1 37  1  0
  1 38  1  0
  3 39  1  0
  4 40  1  0
  5 41  1  0
  8 42  1  0
  8 43  1  0
 10 44  1  0
 10 45  1  0
 11 46  1  0
 11 47  1  0
 13 48  1  0
 13 49  1  0
 14 50  1  0
 14 51  1  0
 22 52  1  0
 23 53  1  0
 25 54  1  0
 26 55  1  0
 30 56  1  0
 33 57  1  0
 34 58  1  0
M  END
$$$$
[H]c1nc([H])c(-c2c([H])c3nc(N([H])C(=O)N([H])C([H])([H])C([H])([H])[H])sc3n(C([H])([H])C3([H])C([H])([H])OC([H])([H])C3([H])[H])c2=O)c([H])c1[H]
     RDKit          3D

 49 52  0  0  0  0  0  0  0  0999 V2000
    7.8705   -2.0954    0.7180 C   0  0  0  0  0  0  0  0  0  0  0  0
    6.4458   -2.1591    0.2295 C   0  0  0  0  0  0  0  0  0  0  0  0
    5.7353   -1.0046    0.7291 N   0  0  0  0  0  0  0  0  0  0  0  0
    4.3647   -0.8236    0.4108 C   0  0  0  0  0  0  0  0  0  0  0  0
    3.7751   -1.6681   -0.3040 O   0  0  0  0  0  0  0  0  0  0  0  0
    3.6216    0.2940    0.8770 N   0  0  0  0  0  0  0  0  0  0  0  0
    2.2507    0.4291    0.5298 C   0  0  0  0  0  0  0  0  0  0  0  0
    1.4606    1.4116    0.8963 N   0  0  0  0  0  0  0  0  0  0  0  0
    0.2207    1.4328    0.5185 C   0  0  0  0  0  0  0  0  0  0  0  0
   -0.7363    2.4269    0.8148 C   0  0  0  0  0  0  0  0  0  0  0  0
   -2.0073    2.2985    0.3117 C   0  0  0  0  0  0  0  0  0  0  0  0
   -3.0097    3.3323    0.6195 C   0  0  0  0  0  0  0  0  0  0  0  0
   -4.2661    3.0245    1.0204 C   0  0  0  0  0  0  0  0  0  0  0  0
   -5.1602    4.0347    1.2916 C   0  0  0  0  0  0  0  0  0  0  0  0
   -4.7647    5.3310    1.1517 C   0  0  0  0  0  0  0  0  0  0  0  0
   -3.5112    5.6022    0.7522 N   0  0  0  0  0  0  0  0  0  0  0  0
   -2.6254    4.6474    0.4829 C   0  0  0  0  0  0  0  0  0  0  0  0
   -2.4318    1.2567   -0.4739 C   0  0  0  0  0  0  0  0  0  0  0  0
   -3.5828    1.1134   -0.9470 O   0  0  0  0  0  0  0  0  0  0  0  0
   -1.4964    0.3053   -0.7496 N   0  0  0  0  0  0  0  0  0  0  0  0
   -1.8616   -0.7763   -1.5938 C   0  0  0  0  0  0  0  0  0  0  0  0
   -2.5726   -1.8429   -0.8222 C   0  0  0  0  0  0  0  0  0  0  0  0
   -2.9146   -2.9368   -1.8576 C   0  0  0  0  0  0  0  0  0  0  0  0
   -1.6784   -3.7691   -1.8193 C   0  0  0  0  0  0  0  0  0  0  0  0
   -0.9596   -3.4415   -0.7034 O   0  0  0  0  0  0  0  0  0  0  0  0
   -1.7411   -2.6519    0.1206 C   0  0  0  0  0  0  0  0  0  0  0  0
   -0.2305    0.4009   -0.2696 C   0  0  0  0  0  0  0  0  0  0  0  0
    1.2121   -0.5447   -0.4079 S   0  0  0  0  0  0  0  0  0  0  0  0
    8.1565   -1.0090    0.7047 H   0  0  0  0  0  0  0  0  0  0  0  0
    7.8699   -2.3945    1.7838 H   0  0  0  0  0  0  0  0  0  0  0  0
    8.5623   -2.7122    0.1074 H   0  0  0  0  0  0  0  0  0  0  0  0
    5.9214   -3.0698    0.6023 H   0  0  0  0  0  0  0  0  0  0  0  0
    6.4251   -2.1857   -0.8872 H   0  0  0  0  0  0  0  0  0  0  0  0
    6.2590   -0.3224    1.3215 H   0  0  0  0  0  0  0  0  0  0  0  0
    4.0898    0.9983    1.4659 H   0  0  0  0  0  0  0  0  0  0  0  0
   -0.4435    3.2652    1.4313 H   0  0  0  0  0  0  0  0  0  0  0  0
   -4.5702    1.9642    1.1306 H   0  0  0  0  0  0  0  0  0  0  0  0
   -6.1650    3.7951    1.6121 H   0  0  0  0  0  0  0  0  0  0  0  0
   -5.4490    6.1667    1.3586 H   0  0  0  0  0  0  0  0  0  0  0  0
   -1.6263    4.9408    0.1636 H   0  0  0  0  0  0  0  0  0  0  0  0
   -2.4992   -0.4732   -2.4580 H   0  0  0  0  0  0  0  0  0  0  0  0
   -0.9690   -1.2489   -2.0691 H   0  0  0  0  0  0  0  0  0  0  0  0
   -3.5156   -1.4728   -0.3533 H   0  0  0  0  0  0  0  0  0  0  0  0
   -3.1374   -2.4970   -2.8382 H   0  0  0  0  0  0  0  0  0  0  0  0
   -3.7616   -3.5576   -1.4706 H   0  0  0  0  0  0  0  0  0  0  0  0
   -1.0608   -3.5096   -2.7261 H   0  0  0  0  0  0  0  0  0  0  0  0
   -1.8745   -4.8582   -1.9139 H   0  0  0  0  0  0  0  0  0  0  0  0
   -2.4514   -3.3464    0.6502 H   0  0  0  0  0  0  0  0  0  0  0  0
   -1.1673   -2.1004    0.8585 H   0  0  0  0  0  0  0  0  0  0  0  0
  1  2  1  0
  2  3  1  0
  3  4  1  0
  4  5  2  0
  4  6  1  0
  6  7  1  0
  7  8  2  0
  8  9  1  0
  9 10  1  0
 10 11  2  0
 11 12  1  0
 12 13  2  0
 13 14  1  0
 14 15  2  0
 15 16  1  0
 16 17  2  0
 11 18  1  0
 18 19  2  0
 18 20  1  0
 20 21  1  0
 21 22  1  0
 22 23  1  0
 23 24  1  0
 24 25  1  0
 25 26  1  0
 20 27  1  0
 27 28  1  0
 28  7  1  0
 27  9  2  0
 17 12  1  0
 26 22  1  0
  1 29  1  0
  1 30  1  0
  1 31  1  0
  2 32  1  0
  2 33  1  0
  3 34  1  0
  6 35  1  0
 10 36  1  0
 13 37  1  0
 14 38  1  0
 15 39  1  0
 17 40  1  0
 21 41  1  0
 21 42  1  0
 22 43  1  0
 23 44  1  0
 23 45  1  0
 24 46  1  0
 24 47  1  0
 26 48  1  0
 26 49  1  0
M  END
$$$$
[H]c1nc(N([H])c2c([H])c([H])c(-n3c([H])nc([H])c3[H])c([H])c2OC([H])([H])[H])nc2c1C([H])([H])C([H])([H])c1c(C(=O)N([H])[H])nn(C([H])([H])[H])c1-2
     RDKit          3D

 51 55  0  0  0  0  0  0  0  0999 V2000
   -3.9404   -3.3298   -0.4896 C   0  0  0  0  0  0  0  0  0  0  0  0
   -2.9197   -2.3699   -0.3048 O   0  0  0  0  0  0  0  0  0  0  0  0
   -3.2854   -1.0678   -0.0207 C   0  0  0  0  0  0  0  0  0  0  0  0
   -4.6010   -0.7025    0.0821 C   0  0  0  0  0  0  0  0  0  0  0  0
   -4.9973    0.5839    0.3635 C   0  0  0  0  0  0  0  0  0  0  0  0
   -3.9893    1.4950    0.5382 C   0  0  0  0  0  0  0  0  0  0  0  0
   -2.6353    1.1361    0.4360 C   0  0  0  0  0  0  0  0  0  0  0  0
   -2.2418   -0.1379    0.1573 C   0  0  0  0  0  0  0  0  0  0  0  0
   -0.9012   -0.5704    0.0397 N   0  0  0  0  0  0  0  0  0  0  0  0
    0.2760    0.1575    0.1723 C   0  0  0  0  0  0  0  0  0  0  0  0
    0.3433    1.4450    0.4450 N   0  0  0  0  0  0  0  0  0  0  0  0
    1.4514    2.1596    0.5758 C   0  0  0  0  0  0  0  0  0  0  0  0
    2.6868    1.4795    0.4073 C   0  0  0  0  0  0  0  0  0  0  0  0
    3.9253    2.2478    0.5319 C   0  0  0  0  0  0  0  0  0  0  0  0
    5.1669    1.4965    0.4158 C   0  0  0  0  0  0  0  0  0  0  0  0
    5.0837    0.0741    0.0955 C   0  0  0  0  0  0  0  0  0  0  0  0
    6.0790   -0.9005   -0.1276 C   0  0  0  0  0  0  0  0  0  0  0  0
    5.4329   -2.0265   -0.3689 N   0  0  0  0  0  0  0  0  0  0  0  0
    4.1287   -1.8803   -0.3248 N   0  0  0  0  0  0  0  0  0  0  0  0
    3.0906   -2.8575   -0.5296 C   0  0  0  0  0  0  0  0  0  0  0  0
    3.8986   -0.5819   -0.0378 C   0  0  0  0  0  0  0  0  0  0  0  0
    2.6362    0.1532    0.1264 C   0  0  0  0  0  0  0  0  0  0  0  0
    1.4576   -0.5218    0.0052 N   0  0  0  0  0  0  0  0  0  0  0  0
    7.5006   -0.6108   -0.0741 C   0  0  0  0  0  0  0  0  0  0  0  0
    7.9643    0.6900    0.2195 N   0  0  0  0  0  0  0  0  0  0  0  0
    8.3804   -1.4955   -0.2844 O   0  0  0  0  0  0  0  0  0  0  0  0
   -6.3536    0.9825    0.4742 N   0  0  0  0  0  0  0  0  0  0  0  0
   -7.4067    0.4076   -0.1351 C   0  0  0  0  0  0  0  0  0  0  0  0
   -8.5709    1.0527    0.1981 C   0  0  0  0  0  0  0  0  0  0  0  0
   -8.2091    2.0453    1.0323 N   0  0  0  0  0  0  0  0  0  0  0  0
   -6.8549    1.9981    1.1975 C   0  0  0  0  0  0  0  0  0  0  0  0
   -3.5653   -4.2865   -0.8844 H   0  0  0  0  0  0  0  0  0  0  0  0
   -4.5068   -3.4620    0.4671 H   0  0  0  0  0  0  0  0  0  0  0  0
   -4.7009   -2.9670   -1.2292 H   0  0  0  0  0  0  0  0  0  0  0  0
   -5.3894   -1.4342   -0.0586 H   0  0  0  0  0  0  0  0  0  0  0  0
   -4.2217    2.5248    0.7618 H   0  0  0  0  0  0  0  0  0  0  0  0
   -1.9004    1.9178    0.5883 H   0  0  0  0  0  0  0  0  0  0  0  0
   -0.8059   -1.6244   -0.1864 H   0  0  0  0  0  0  0  0  0  0  0  0
    1.4465    3.2106    0.7996 H   0  0  0  0  0  0  0  0  0  0  0  0
    3.9181    2.8310    1.5213 H   0  0  0  0  0  0  0  0  0  0  0  0
    3.9488    3.0727   -0.2672 H   0  0  0  0  0  0  0  0  0  0  0  0
    5.7353    1.6271    1.4096 H   0  0  0  0  0  0  0  0  0  0  0  0
    5.8332    2.0245   -0.3399 H   0  0  0  0  0  0  0  0  0  0  0  0
    3.5997   -3.8457   -0.6706 H   0  0  0  0  0  0  0  0  0  0  0  0
    2.4409   -2.6025   -1.3978 H   0  0  0  0  0  0  0  0  0  0  0  0
    2.5006   -2.9236    0.4153 H   0  0  0  0  0  0  0  0  0  0  0  0
    8.0406    0.9938    1.1990 H   0  0  0  0  0  0  0  0  0  0  0  0
    8.2302    1.3467   -0.5405 H   0  0  0  0  0  0  0  0  0  0  0  0
   -7.3446   -0.4548   -0.8036 H   0  0  0  0  0  0  0  0  0  0  0  0
   -9.5970    0.8305   -0.1298 H   0  0  0  0  0  0  0  0  0  0  0  0
   -6.2577    2.6699    1.8148 H   0  0  0  0  0  0  0  0  0  0  0  0
  1  2  1  0
  2  3  1  0
  3  4  2  0
  4  5  1  0
  5  6  2  0
  6  7  1  0
  7  8  2  0
  8  9  1  0
  9 10  1  0
 10 11  2  0
 11 12  1  0
 12 13  2  0
 13 14  1  0
 14 15  1  0
 15 16  1  0
 16 17  1  0
 17 18  2  0
 18 19  1  0
 19 20  1  0
 19 21  1  0
 21 22  1  0
 22 23  2  0
 17 24  1  0
 24 25  1  0
 24 26  2  0
  5 27  1  0
 27 28  1  0
 28 29  2  0
 29 30  1  0
 30 31  2  0
  8  3  1  0
 23 10  1  0
 31 27  1  0
 22 13  1  0
 21 16  2  0
  1 32  1  0
  1 33  1  0
  1 34  1  0
  4 35  1  0
  6 36  1  0
  7 37  1  0
  9 38  1  0
 12 39  1  0
 14 40  1  0
 14 41  1  0
 15 42  1  0
 15 43  1  0
 20 44  1  0
 20 45  1  0
 20 46  1  0
 25 47  1  0
 25 48  1  0
 28 49  1  0
 29 50  1  0
 31 51  1  0
M  END
$$$$
[H]N=C(N([H])[H])N([H])C([H])([H])C([H])([H])C([H])([H])[C@@]([H])(C(=O)O[H])N([H])C(=O)[C@@]1([H])N([H])C([H])([H])c2c([H])c([H])c([H])c([H])c2C1([H])[H]
     RDKit          3D

 47 48  0  0  0  0  0  0  0  0999 V2000
    6.9032    1.3606   -0.2355 N   0  0  0  0  0  0  0  0  0  0  0  0
    5.4904    1.1004   -0.0185 C   0  0  0  0  0  0  0  0  0  0  0  0
    4.8864    1.7680    0.8688 N   0  0  0  0  0  0  0  0  0  0  0  0
    4.8606    0.1653   -0.8468 N   0  0  0  0  0  0  0  0  0  0  0  0
    4.6756   -1.2167   -0.6939 C   0  0  0  0  0  0  0  0  0  0  0  0
    3.6864   -1.6484    0.3373 C   0  0  0  0  0  0  0  0  0  0  0  0
    2.3693   -0.9263    0.0458 C   0  0  0  0  0  0  0  0  0  0  0  0
    1.1987   -1.4481    0.7546 C   0  0  2  0  0  0  0  0  0  0  0  0
    0.0110   -0.6939    0.5631 N   0  0  0  0  0  0  0  0  0  0  0  0
   -0.8627   -0.7772   -0.5902 C   0  0  0  0  0  0  0  0  0  0  0  0
   -0.5001   -1.5227   -1.5641 O   0  0  0  0  0  0  0  0  0  0  0  0
   -2.1215   -0.0775   -0.6358 C   0  0  2  0  0  0  0  0  0  0  0  0
   -2.3919    1.3353   -0.6221 C   0  0  0  0  0  0  0  0  0  0  0  0
   -3.9128    1.5106   -0.4815 C   0  0  0  0  0  0  0  0  0  0  0  0
   -4.4104    2.8173   -0.5848 C   0  0  0  0  0  0  0  0  0  0  0  0
   -5.7870    2.9995   -0.4110 C   0  0  0  0  0  0  0  0  0  0  0  0
   -6.6029    1.9373   -0.1525 C   0  0  0  0  0  0  0  0  0  0  0  0
   -6.0877    0.6417   -0.0549 C   0  0  0  0  0  0  0  0  0  0  0  0
   -4.7495    0.4613   -0.2285 C   0  0  0  0  0  0  0  0  0  0  0  0
   -4.2378   -0.9681   -0.2092 C   0  0  0  0  0  0  0  0  0  0  0  0
   -2.9579   -0.8516    0.3906 N   0  0  0  0  0  0  0  0  0  0  0  0
    1.3512   -2.0435    2.0658 C   0  0  0  0  0  0  0  0  0  0  0  0
    2.0137   -3.2863    2.2376 O   0  0  0  0  0  0  0  0  0  0  0  0
    0.9176   -1.5222    3.1174 O   0  0  0  0  0  0  0  0  0  0  0  0
    7.2048    1.9427   -1.0606 H   0  0  0  0  0  0  0  0  0  0  0  0
    7.5821    0.9617    0.4383 H   0  0  0  0  0  0  0  0  0  0  0  0
    5.3944    2.4977    1.4315 H   0  0  0  0  0  0  0  0  0  0  0  0
    4.4475    0.6371   -1.7623 H   0  0  0  0  0  0  0  0  0  0  0  0
    4.3473   -1.6904   -1.6611 H   0  0  0  0  0  0  0  0  0  0  0  0
    5.6871   -1.7242   -0.4708 H   0  0  0  0  0  0  0  0  0  0  0  0
    4.0686   -1.2343    1.3185 H   0  0  0  0  0  0  0  0  0  0  0  0
    3.5924   -2.7245    0.4380 H   0  0  0  0  0  0  0  0  0  0  0  0
    2.5767    0.1446    0.2406 H   0  0  0  0  0  0  0  0  0  0  0  0
    2.2265   -1.0964   -1.0660 H   0  0  0  0  0  0  0  0  0  0  0  0
    0.8971   -2.4369    0.0889 H   0  0  0  0  0  0  0  0  0  0  0  0
   -0.3085   -0.0089    1.3189 H   0  0  0  0  0  0  0  0  0  0  0  0
   -2.5989   -0.4519   -1.6447 H   0  0  0  0  0  0  0  0  0  0  0  0
   -2.1547    1.7655   -1.6682 H   0  0  0  0  0  0  0  0  0  0  0  0
   -1.8472    2.0027    0.0516 H   0  0  0  0  0  0  0  0  0  0  0  0
   -3.7910    3.6556   -0.7842 H   0  0  0  0  0  0  0  0  0  0  0  0
   -6.2357    3.9863   -0.5010 H   0  0  0  0  0  0  0  0  0  0  0  0
   -7.6751    2.0423   -0.0018 H   0  0  0  0  0  0  0  0  0  0  0  0
   -6.6963   -0.2092    0.1578 H   0  0  0  0  0  0  0  0  0  0  0  0
   -4.9247   -1.6511    0.2787 H   0  0  0  0  0  0  0  0  0  0  0  0
   -4.0590   -1.2402   -1.3008 H   0  0  0  0  0  0  0  0  0  0  0  0
   -2.9980   -0.1715    1.2262 H   0  0  0  0  0  0  0  0  0  0  0  0
    1.5227   -4.1115    1.8810 H   0  0  0  0  0  0  0  0  0  0  0  0
  1  2  1  0
  2  3  2  3
  2  4  1  0
  4  5  1  0
  5  6  1  0
  6  7  1  0
  7  8  1  0
  8  9  1  0
  9 10  1  0
 10 11  2  0
 10 12  1  0
 12 13  1  0
 13 14  1  0
 14 15  2  0
 15 16  1  0
 16 17  2  0
 17 18  1  0
 18 19  2  0
 19 20  1  0
 20 21  1  0
  8 22  1  0
 22 23  1  0
 22 24  2  0
 21 12  1  0
 19 14  1  0
  1 25  1  0
  1 26  1  0
  3 27  1  0
  4 28  1  0
  5 29  1  0
  5 30  1  0
  6 31  1  0
  6 32  1  0
  7 33  1  0
  7 34  1  0
  8 35  1  6
  9 36  1  0
 12 37  1  6
 13 38  1  0
 13 39  1  0
 15 40  1  0
 16 41  1  0
 17 42  1  0
 18 43  1  0
 20 44  1  0
 20 45  1  0
 21 46  1  0
 23 47  1  0
M  END
$$$$
[H]O[C@@]1([H])C([H])([H])C([H])([H])[C@]2([H])[C@]1(C([H])([H])[H])C([H])([H])C([H])([H])[C@]1([H])[C@@]3(C([H])([H])[H])C([H])=C([H])C(=O)C([H])=C3C([H])([H])C([H])([H])[C@]12[H]
     RDKit          3D

 47 50  0  0  0  0  0  0  0  0999 V2000
    2.7169    0.8271    0.8325 C   0  0  0  0  0  0  0  0  0  0  0  0
    2.1074    0.6370   -0.5069 C   0  0  2  0  0  0  0  0  0  0  0  0
    1.2055    1.7683   -0.9422 C   0  0  0  0  0  0  0  0  0  0  0  0
    0.0186    1.7353    0.0391 C   0  0  0  0  0  0  0  0  0  0  0  0
   -0.7483    0.4725   -0.1080 C   0  0  1  0  0  0  0  0  0  0  0  0
    0.1585   -0.6976    0.3131 C   0  0  1  0  0  0  0  0  0  0  0  0
   -0.5188   -2.0138    0.3007 C   0  0  0  0  0  0  0  0  0  0  0  0
   -1.8436   -2.0289    1.0221 C   0  0  0  0  0  0  0  0  0  0  0  0
   -2.6848   -0.8653    0.5445 C   0  0  0  0  0  0  0  0  0  0  0  0
   -3.8859   -1.0412    0.0836 C   0  0  0  0  0  0  0  0  0  0  0  0
   -4.7358    0.0483   -0.3905 C   0  0  0  0  0  0  0  0  0  0  0  0
   -5.8936   -0.1377   -0.8322 O   0  0  0  0  0  0  0  0  0  0  0  0
   -4.1298    1.3661   -0.3084 C   0  0  0  0  0  0  0  0  0  0  0  0
   -2.9143    1.5290    0.1598 C   0  0  0  0  0  0  0  0  0  0  0  0
   -2.0557    0.4491    0.6368 C   0  0  2  0  0  0  0  0  0  0  0  0
   -1.8279    0.7195    2.1293 C   0  0  0  0  0  0  0  0  0  0  0  0
    1.2856   -0.6237   -0.6414 C   0  0  2  0  0  0  0  0  0  0  0  0
    2.2927   -1.6934   -0.6114 C   0  0  0  0  0  0  0  0  0  0  0  0
    3.3194   -1.1393   -1.6021 C   0  0  0  0  0  0  0  0  0  0  0  0
    3.2171    0.3702   -1.4982 C   0  0  2  0  0  0  0  0  0  0  0  0
    4.4441    0.8486   -1.0296 O   0  0  0  0  0  0  0  0  0  0  0  0
    3.5943    0.1408    0.9126 H   0  0  0  0  0  0  0  0  0  0  0  0
    2.0721    0.6884    1.6923 H   0  0  0  0  0  0  0  0  0  0  0  0
    3.1062    1.8740    0.8802 H   0  0  0  0  0  0  0  0  0  0  0  0
    1.6587    2.7569   -0.8308 H   0  0  0  0  0  0  0  0  0  0  0  0
    0.8590    1.5327   -1.9673 H   0  0  0  0  0  0  0  0  0  0  0  0
    0.5107    1.8324    1.0510 H   0  0  0  0  0  0  0  0  0  0  0  0
   -0.5657    2.6381   -0.1063 H   0  0  0  0  0  0  0  0  0  0  0  0
   -0.9679    0.3024   -1.1789 H   0  0  0  0  0  0  0  0  0  0  0  0
    0.4335   -0.4757    1.3654 H   0  0  0  0  0  0  0  0  0  0  0  0
   -0.6591   -2.3637   -0.7451 H   0  0  0  0  0  0  0  0  0  0  0  0
    0.1163   -2.7754    0.7971 H   0  0  0  0  0  0  0  0  0  0  0  0
   -1.6869   -1.9120    2.1106 H   0  0  0  0  0  0  0  0  0  0  0  0
   -2.3282   -2.9911    0.8444 H   0  0  0  0  0  0  0  0  0  0  0  0
   -4.2431   -2.0828    0.0671 H   0  0  0  0  0  0  0  0  0  0  0  0
   -4.6739    2.2690   -0.6373 H   0  0  0  0  0  0  0  0  0  0  0  0
   -2.5150    2.5856    0.1991 H   0  0  0  0  0  0  0  0  0  0  0  0
   -0.7723    0.7947    2.3914 H   0  0  0  0  0  0  0  0  0  0  0  0
   -2.2979    1.6727    2.4443 H   0  0  0  0  0  0  0  0  0  0  0  0
   -2.2718   -0.0746    2.7632 H   0  0  0  0  0  0  0  0  0  0  0  0
    0.8450   -0.5855   -1.6818 H   0  0  0  0  0  0  0  0  0  0  0  0
    2.8194   -1.7391    0.3667 H   0  0  0  0  0  0  0  0  0  0  0  0
    1.9503   -2.6911   -0.9338 H   0  0  0  0  0  0  0  0  0  0  0  0
    4.3367   -1.5020   -1.3631 H   0  0  0  0  0  0  0  0  0  0  0  0
    3.0139   -1.3942   -2.6453 H   0  0  0  0  0  0  0  0  0  0  0  0
    3.0370    0.8547   -2.4716 H   0  0  0  0  0  0  0  0  0  0  0  0
    5.1016    0.1146   -0.9147 H   0  0  0  0  0  0  0  0  0  0  0  0
  2  1  1  1
  2  3  1  0
  3  4  1  0
  4  5  1  0
  5  6  1  0
  6  7  1  0
  7  8  1  0
  8  9  1  0
  9 10  2  0
 10 11  1  0
 11 12  2  0
 11 13  1  0
 13 14  2  0
 14 15  1  0
 15 16  1  1
  6 17  1  0
 17 18  1  0
 18 19  1  0
 19 20  1  0
 20 21  1  0
 17  2  1  0
 20  2  1  0
 15  5  1  0
 15  9  1  0
  1 22  1  0
  1 23  1  0
  1 24  1  0
  3 25  1  0
  3 26  1  0
  4 27  1  0
  4 28  1  0
  5 29  1  6
  6 30  1  1
  7 31  1  0
  7 32  1  0
  8 33  1  0
  8 34  1  0
 10 35  1  0
 13 36  1  0
 14 37  1  0
 16 38  1  0
 16 39  1  0
 16 40  1  0
 17 41  1  6
 18 42  1  0
 18 43  1  0
 19 44  1  0
 19 45  1  0
 20 46  1  6
 21 47  1  0
M  END
$$$$
[H]OC([H])([H])[C@@]1([H])[C@]([H])(OP(=O)(O[H])O[H])N([H])C([H])([H])[C@]([H])(O[H])[C@@]([H])(O[H])[C@]1([H])O[H]
     RDKit          3D

 33 33  0  0  0  0  0  0  0  0999 V2000
    0.8655    3.0097    0.0976 O   0  0  0  0  0  0  0  0  0  0  0  0
   -0.2572    2.3715    0.5928 C   0  0  0  0  0  0  0  0  0  0  0  0
   -0.4495    0.9789    0.0102 C   0  0  2  0  0  0  0  0  0  0  0  0
   -1.6875    0.3805    0.6100 C   0  0  1  0  0  0  0  0  0  0  0  0
   -2.6160    1.4192    0.7692 O   0  0  0  0  0  0  0  0  0  0  0  0
   -2.3508   -0.6672   -0.2104 C   0  0  2  0  0  0  0  0  0  0  0  0
   -3.5817   -0.9472    0.4016 O   0  0  0  0  0  0  0  0  0  0  0  0
   -1.6175   -1.9459   -0.3746 C   0  0  1  0  0  0  0  0  0  0  0  0
   -1.9664   -2.5704   -1.5738 O   0  0  0  0  0  0  0  0  0  0  0  0
   -0.1205   -1.8159   -0.3721 C   0  0  0  0  0  0  0  0  0  0  0  0
    0.2788   -1.1375    0.8176 N   0  0  0  0  0  0  0  0  0  0  0  0
    0.7810    0.1762    0.3820 C   0  0  1  0  0  0  0  0  0  0  0  0
    1.5484    0.0445   -0.7702 O   0  0  0  0  0  0  0  0  0  0  0  0
    3.1236    0.5602   -0.6082 P   0  0  0  0  0  0  0  0  0  0  0  0
    3.5073    1.0561    0.9616 O   0  0  0  0  0  0  0  0  0  0  0  0
    4.1331   -0.7632   -1.0090 O   0  0  0  0  0  0  0  0  0  0  0  0
    3.4949    1.6645   -1.5809 O   0  0  0  0  0  0  0  0  0  0  0  0
    0.8005    3.1754   -0.8789 H   0  0  0  0  0  0  0  0  0  0  0  0
   -0.1341    2.3316    1.7063 H   0  0  0  0  0  0  0  0  0  0  0  0
   -1.1313    3.0214    0.4087 H   0  0  0  0  0  0  0  0  0  0  0  0
   -0.5350    1.1259   -1.0940 H   0  0  0  0  0  0  0  0  0  0  0  0
   -1.4345    0.0265    1.6305 H   0  0  0  0  0  0  0  0  0  0  0  0
   -3.0557    1.5135   -0.1355 H   0  0  0  0  0  0  0  0  0  0  0  0
   -2.6015   -0.2347   -1.2029 H   0  0  0  0  0  0  0  0  0  0  0  0
   -3.3437   -1.2836    1.3153 H   0  0  0  0  0  0  0  0  0  0  0  0
   -1.8721   -2.6837    0.4324 H   0  0  0  0  0  0  0  0  0  0  0  0
   -1.3258   -3.3165   -1.7372 H   0  0  0  0  0  0  0  0  0  0  0  0
    0.2893   -2.8635   -0.3642 H   0  0  0  0  0  0  0  0  0  0  0  0
    0.1990   -1.3686   -1.3118 H   0  0  0  0  0  0  0  0  0  0  0  0
    0.9839   -1.6362    1.3882 H   0  0  0  0  0  0  0  0  0  0  0  0
    1.3606    0.6252    1.2142 H   0  0  0  0  0  0  0  0  0  0  0  0
    3.6312    0.2469    1.5233 H   0  0  0  0  0  0  0  0  0  0  0  0
    5.0837   -0.4935   -1.0380 H   0  0  0  0  0  0  0  0  0  0  0  0
  1  2  1  0
  2  3  1  0
  3  4  1  0
  4  5  1  0
  4  6  1  0
  6  7  1  0
  6  8  1  0
  8  9  1  0
  8 10  1  0
 10 11  1  0
 11 12  1  0
 12 13  1  0
 13 14  1  0
 14 15  1  0
 14 16  1  0
 14 17  2  0
 12  3  1  0
  1 18  1  0
  2 19  1  0
  2 20  1  0
  3 21  1  6
  4 22  1  1
  5 23  1  0
  6 24  1  6
  7 25  1  0
  8 26  1  1
  9 27  1  0
 10 28  1  0
 10 29  1  0
 11 30  1  0
 12 31  1  1
 15 32  1  0
 16 33  1  0
M  END
$$$$
[H]OC([H])([H])[C@@]1([H])N([H])C([H])([H])[C@@]([H])(O[H])[C@]([H])(O[H])[C@]([H])(O[H])[C@]1([H])O[H]
     RDKit          3D

 28 28  0  0  0  0  0  0  0  0999 V2000
   -3.5807   -0.5899    0.1604 O   0  0  0  0  0  0  0  0  0  0  0  0
   -2.6198    0.3052   -0.3616 C   0  0  0  0  0  0  0  0  0  0  0  0
   -1.2851    0.0961    0.3574 C   0  0  2  0  0  0  0  0  0  0  0  0
   -0.3617    1.1695   -0.0949 C   0  0  1  0  0  0  0  0  0  0  0  0
   -0.9466    2.4057    0.2640 O   0  0  0  0  0  0  0  0  0  0  0  0
    1.0019    1.1334    0.4720 C   0  0  1  0  0  0  0  0  0  0  0  0
    1.1320    0.5910    1.7151 O   0  0  0  0  0  0  0  0  0  0  0  0
    1.8935    0.3370   -0.4850 C   0  0  1  0  0  0  0  0  0  0  0  0
    3.2235    0.5674   -0.2133 O   0  0  0  0  0  0  0  0  0  0  0  0
    1.5563   -1.1219   -0.2478 C   0  0  2  0  0  0  0  0  0  0  0  0
    2.4700   -1.8662   -1.0248 O   0  0  0  0  0  0  0  0  0  0  0  0
    0.1847   -1.4770   -0.7380 C   0  0  0  0  0  0  0  0  0  0  0  0
   -0.8712   -1.2251    0.1490 N   0  0  0  0  0  0  0  0  0  0  0  0
   -3.7922   -0.3228    1.1000 H   0  0  0  0  0  0  0  0  0  0  0  0
   -2.4893    0.0468   -1.4378 H   0  0  0  0  0  0  0  0  0  0  0  0
   -2.9972    1.3303   -0.2029 H   0  0  0  0  0  0  0  0  0  0  0  0
   -1.5201    0.2968    1.4445 H   0  0  0  0  0  0  0  0  0  0  0  0
   -0.3304    1.1694   -1.2048 H   0  0  0  0  0  0  0  0  0  0  0  0
   -1.0311    2.3761    1.2661 H   0  0  0  0  0  0  0  0  0  0  0  0
    1.3973    2.1892    0.5241 H   0  0  0  0  0  0  0  0  0  0  0  0
    0.4248    0.0114    2.0236 H   0  0  0  0  0  0  0  0  0  0  0  0
    1.5985    0.6077   -1.5065 H   0  0  0  0  0  0  0  0  0  0  0  0
    3.4300    1.5268   -0.3542 H   0  0  0  0  0  0  0  0  0  0  0  0
    1.6976   -1.3427    0.8158 H   0  0  0  0  0  0  0  0  0  0  0  0
    2.6870   -2.7256   -0.6092 H   0  0  0  0  0  0  0  0  0  0  0  0
   -0.0042   -0.9860   -1.7191 H   0  0  0  0  0  0  0  0  0  0  0  0
    0.2060   -2.5826   -0.9643 H   0  0  0  0  0  0  0  0  0  0  0  0
   -1.0733   -1.9199    0.8723 H   0  0  0  0  0  0  0  0  0  0  0  0
  1  2  1  0
  2  3  1  0
  3  4  1  0
  4  5  1  0
  4  6  1  0
  6  7  1  0
  6  8  1  0
  8  9  1  0
  8 10  1  0
 10 11  1  0
 10 12  1  0
 12 13  1  0
 13  3  1  0
  1 14  1  0
  2 15  1  0
  2 16  1  0
  3 17  1  1
  4 18  1  6
  5 19  1  0
  6 20  1  1
  7 21  1  0
  8 22  1  6
  9 23  1  0
 10 24  1  1
 11 25  1  0
 12 26  1  0
 12 27  1  0
 13 28  1  0
M  END
$$$$
[H]OC(=O)C([H])([H])[C@@]([H])(C(=O)N([H])[C@]([H])(C(=O)N([H])[H])C([H])([H])c1c([H])c([H])c(O[H])c([H])c1[H])N([H])C(=O)[C@@]([H])(N([H])C(=O)[C@@]([H])(N([H])C(=O)c1c([H])c([H])c(Cl)c([H])c1[H])C([H])([H])c1c([H])c([H])c(O[H])c([H])c1[H])[C@@]([H])(C([H])([H])[H])C([H])([H])C([H])([H])[H]
     RDKit          3D

 90 92  0  0  0  0  0  0  0  0999 V2000
   -0.1429    2.0056   -3.0435 C   0  0  0  0  0  0  0  0  0  0  0  0
    0.0747    2.3584   -1.5772 C   0  0  0  0  0  0  0  0  0  0  0  0
   -1.0737    1.9394   -0.7391 C   0  0  2  0  0  0  0  0  0  0  0  0
   -0.7990    2.3684    0.7083 C   0  0  0  0  0  0  0  0  0  0  0  0
   -1.3979    0.4596   -0.7241 C   0  0  2  0  0  0  0  0  0  0  0  0
   -2.6362    0.3236    0.1280 N   0  0  0  0  0  0  0  0  0  0  0  0
   -3.7659   -0.3131   -0.4025 C   0  0  0  0  0  0  0  0  0  0  0  0
   -3.6015   -0.7550   -1.6142 O   0  0  0  0  0  0  0  0  0  0  0  0
   -5.0739   -0.5331    0.1995 C   0  0  2  0  0  0  0  0  0  0  0  0
   -5.1948   -1.3029    1.4441 C   0  0  0  0  0  0  0  0  0  0  0  0
   -4.5399   -0.8441    2.6554 C   0  0  0  0  0  0  0  0  0  0  0  0
   -5.0647    0.1293    3.4904 C   0  0  0  0  0  0  0  0  0  0  0  0
   -4.4801    0.5305    4.6615 C   0  0  0  0  0  0  0  0  0  0  0  0
   -3.2862   -0.0576    5.0625 C   0  0  0  0  0  0  0  0  0  0  0  0
   -2.6643    0.3305    6.2534 O   0  0  0  0  0  0  0  0  0  0  0  0
   -2.7373   -1.0290    4.2555 C   0  0  0  0  0  0  0  0  0  0  0  0
   -3.3566   -1.4153    3.0696 C   0  0  0  0  0  0  0  0  0  0  0  0
   -5.9641   -1.0997   -0.8339 N   0  0  0  0  0  0  0  0  0  0  0  0
   -6.8749   -0.3288   -1.5512 C   0  0  0  0  0  0  0  0  0  0  0  0
   -6.9500    0.9001   -1.3094 O   0  0  0  0  0  0  0  0  0  0  0  0
   -7.7781   -0.8525   -2.5967 C   0  0  0  0  0  0  0  0  0  0  0  0
   -8.9393   -1.5043   -2.2612 C   0  0  0  0  0  0  0  0  0  0  0  0
   -9.7601   -1.9882   -3.2426 C   0  0  0  0  0  0  0  0  0  0  0  0
   -9.4914   -1.8621   -4.5991 C   0  0  0  0  0  0  0  0  0  0  0  0
  -10.5585   -2.4890   -5.8344 Cl  0  0  0  0  0  0  0  0  0  0  0  0
   -8.3066   -1.1961   -4.8865 C   0  0  0  0  0  0  0  0  0  0  0  0
   -7.4743   -0.7058   -3.9265 C   0  0  0  0  0  0  0  0  0  0  0  0
   -0.3017   -0.2784   -0.0650 C   0  0  0  0  0  0  0  0  0  0  0  0
   -0.4921   -0.7426    1.1110 O   0  0  0  0  0  0  0  0  0  0  0  0
    0.9450   -0.5074   -0.6622 N   0  0  0  0  0  0  0  0  0  0  0  0
    2.0047   -1.2726    0.0629 C   0  0  1  0  0  0  0  0  0  0  0  0
    2.1085   -2.5700   -0.6692 C   0  0  0  0  0  0  0  0  0  0  0  0
    3.0368   -3.5552   -0.1213 C   0  0  0  0  0  0  0  0  0  0  0  0
    3.4753   -3.5993    1.2067 O   0  0  0  0  0  0  0  0  0  0  0  0
    3.4888   -4.4497   -0.8903 O   0  0  0  0  0  0  0  0  0  0  0  0
    3.2102   -0.4418    0.1223 C   0  0  0  0  0  0  0  0  0  0  0  0
    2.9996    0.7964    0.4296 O   0  0  0  0  0  0  0  0  0  0  0  0
    4.5305   -0.7794   -0.1043 N   0  0  0  0  0  0  0  0  0  0  0  0
    5.6428    0.1807   -0.0002 C   0  0  1  0  0  0  0  0  0  0  0  0
    6.6492   -0.2814    0.9868 C   0  0  0  0  0  0  0  0  0  0  0  0
    7.8245    0.5905    1.1839 C   0  0  0  0  0  0  0  0  0  0  0  0
    7.7741    1.6485    2.0761 C   0  0  0  0  0  0  0  0  0  0  0  0
    8.8807    2.4573    2.2858 C   0  0  0  0  0  0  0  0  0  0  0  0
   10.0711    2.2516    1.6247 C   0  0  0  0  0  0  0  0  0  0  0  0
   11.1581    3.0881    1.8642 O   0  0  0  0  0  0  0  0  0  0  0  0
   10.1278    1.2012    0.7361 C   0  0  0  0  0  0  0  0  0  0  0  0
    9.0308    0.3927    0.5230 C   0  0  0  0  0  0  0  0  0  0  0  0
    6.1155    0.4975   -1.3445 C   0  0  0  0  0  0  0  0  0  0  0  0
    7.1054    1.4264   -1.6980 N   0  0  0  0  0  0  0  0  0  0  0  0
    5.5777   -0.1283   -2.3260 O   0  0  0  0  0  0  0  0  0  0  0  0
   -0.9511    2.6426   -3.4083 H   0  0  0  0  0  0  0  0  0  0  0  0
   -0.3384    0.9259   -3.1764 H   0  0  0  0  0  0  0  0  0  0  0  0
    0.8178    2.2095   -3.5642 H   0  0  0  0  0  0  0  0  0  0  0  0
    0.0458    3.4984   -1.5808 H   0  0  0  0  0  0  0  0  0  0  0  0
    1.0732    2.1228   -1.2089 H   0  0  0  0  0  0  0  0  0  0  0  0
   -1.9764    2.4951   -1.0548 H   0  0  0  0  0  0  0  0  0  0  0  0
   -0.1673    1.6765    1.2555 H   0  0  0  0  0  0  0  0  0  0  0  0
   -0.2382    3.3423    0.6418 H   0  0  0  0  0  0  0  0  0  0  0  0
   -1.7684    2.6090    1.1822 H   0  0  0  0  0  0  0  0  0  0  0  0
   -1.6360    0.0118   -1.6659 H   0  0  0  0  0  0  0  0  0  0  0  0
   -2.5719    0.7324    1.0640 H   0  0  0  0  0  0  0  0  0  0  0  0
   -5.5010    0.5240    0.3348 H   0  0  0  0  0  0  0  0  0  0  0  0
   -6.2906   -1.5523    1.6314 H   0  0  0  0  0  0  0  0  0  0  0  0
   -4.7805   -2.3476    1.2326 H   0  0  0  0  0  0  0  0  0  0  0  0
   -5.9894    0.5887    3.1900 H   0  0  0  0  0  0  0  0  0  0  0  0
   -4.8746    1.2830    5.3183 H   0  0  0  0  0  0  0  0  0  0  0  0
   -3.1146    1.0546    6.8119 H   0  0  0  0  0  0  0  0  0  0  0  0
   -1.8041   -1.5023    4.5481 H   0  0  0  0  0  0  0  0  0  0  0  0
   -2.8663   -2.1883    2.4804 H   0  0  0  0  0  0  0  0  0  0  0  0
   -5.8790   -2.1109   -1.0013 H   0  0  0  0  0  0  0  0  0  0  0  0
   -9.2083   -1.6361   -1.2016 H   0  0  0  0  0  0  0  0  0  0  0  0
  -10.6972   -2.5132   -2.9961 H   0  0  0  0  0  0  0  0  0  0  0  0
   -8.0999   -1.1006   -5.9578 H   0  0  0  0  0  0  0  0  0  0  0  0
   -6.5604   -0.1916   -4.1838 H   0  0  0  0  0  0  0  0  0  0  0  0
    1.2315   -0.2080   -1.5926 H   0  0  0  0  0  0  0  0  0  0  0  0
    1.5828   -1.5192    1.0730 H   0  0  0  0  0  0  0  0  0  0  0  0
    1.0613   -2.9673   -0.7513 H   0  0  0  0  0  0  0  0  0  0  0  0
    2.3897   -2.3041   -1.7363 H   0  0  0  0  0  0  0  0  0  0  0  0
    2.7717   -3.4218    1.9165 H   0  0  0  0  0  0  0  0  0  0  0  0
    4.8226   -1.7321   -0.3808 H   0  0  0  0  0  0  0  0  0  0  0  0
    5.1688    1.1253    0.3930 H   0  0  0  0  0  0  0  0  0  0  0  0
    6.2100   -0.4240    2.0058 H   0  0  0  0  0  0  0  0  0  0  0  0
    7.0537   -1.3073    0.7340 H   0  0  0  0  0  0  0  0  0  0  0  0
    6.8219    1.8120    2.6042 H   0  0  0  0  0  0  0  0  0  0  0  0
    8.7798    3.2740    2.9995 H   0  0  0  0  0  0  0  0  0  0  0  0
   11.2441    3.9228    1.2691 H   0  0  0  0  0  0  0  0  0  0  0  0
   11.0674    1.0469    0.2195 H   0  0  0  0  0  0  0  0  0  0  0  0
    9.0707   -0.4349   -0.1757 H   0  0  0  0  0  0  0  0  0  0  0  0
    7.8307    1.1888   -2.4247 H   0  0  0  0  0  0  0  0  0  0  0  0
    7.1443    2.3817   -1.2397 H   0  0  0  0  0  0  0  0  0  0  0  0
  1  2  1  0
  2  3  1  0
  3  4  1  0
  3  5  1  0
  5  6  1  0
  6  7  1  0
  7  8  2  0
  7  9  1  0
  9 10  1  0
 10 11  1  0
 11 12  2  0
 12 13  1  0
 13 14  2  0
 14 15  1  0
 14 16  1  0
 16 17  2  0
  9 18  1  0
 18 19  1  0
 19 20  2  0
 19 21  1  0
 21 22  2  0
 22 23  1  0
 23 24  2  0
 24 25  1  0
 24 26  1  0
 26 27  2  0
  5 28  1  0
 28 29  2  0
 28 30  1  0
 30 31  1  0
 31 32  1  0
 32 33  1  0
 33 34  1  0
 33 35  2  0
 31 36  1  0
 36 37  2  0
 36 38  1  0
 38 39  1  0
 39 40  1  0
 40 41  1  0
 41 42  2  0
 42 43  1  0
 43 44  2  0
 44 45  1  0
 44 46  1  0
 46 47  2  0
 39 48  1  0
 48 49  1  0
 48 50  2  0
 17 11  1  0
 27 21  1  0
 47 41  1  0
  1 51  1  0
  1 52  1  0
  1 53  1  0
  2 54  1  0
  2 55  1  0
  3 56  1  6
  4 57  1  0
  4 58  1  0
  4 59  1  0
  5 60  1  6
  6 61  1  0
  9 62  1  1
 10 63  1  0
 10 64  1  0
 12 65  1  0
 13 66  1  0
 15 67  1  0
 16 68  1  0
 17 69  1  0
 18 70  1  0
 22 71  1  0
 23 72  1  0
 26 73  1  0
 27 74  1  0
 30 75  1  0
 31 76  1  1
 32 77  1  0
 32 78  1  0
 34 79  1  0
 38 80  1  0
 39 81  1  1
 40 82  1  0
 40 83  1  0
 42 84  1  0
 43 85  1  0
 45 86  1  0
 46 87  1  0
 47 88  1  0
 49 89  1  0
 49 90  1  0
M  END
$$$$
[H]c1nc(OC([H])([H])c2c(-c3c([H])c([H])c([H])c([H])c3[H])noc2C([H])([H])[H])c([H])c([H])c1C(=O)N1C([H])([H])C([H])([H])OC([H])([H])C1([H])[H]
     RDKit          3D

 49 52  0  0  0  0  0  0  0  0999 V2000
   -2.0018    0.0757    3.9380 C   0  0  0  0  0  0  0  0  0  0  0  0
   -2.9175    0.5453    2.8474 C   0  0  0  0  0  0  0  0  0  0  0  0
   -3.5734    1.6887    2.8266 O   0  0  0  0  0  0  0  0  0  0  0  0
   -4.2649    1.8088    1.7734 N   0  0  0  0  0  0  0  0  0  0  0  0
   -4.1190    0.7023    0.9607 C   0  0  0  0  0  0  0  0  0  0  0  0
   -3.2510   -0.1022    1.6667 C   0  0  0  0  0  0  0  0  0  0  0  0
   -2.7979   -1.4644    1.3073 C   0  0  0  0  0  0  0  0  0  0  0  0
   -1.4616   -1.6943    1.3439 O   0  0  0  0  0  0  0  0  0  0  0  0
   -0.3337   -1.2441    0.7802 C   0  0  0  0  0  0  0  0  0  0  0  0
    0.9186   -1.7591    1.0922 C   0  0  0  0  0  0  0  0  0  0  0  0
    2.0400   -1.2607    0.4949 C   0  0  0  0  0  0  0  0  0  0  0  0
    2.0164   -0.2445   -0.4341 C   0  0  0  0  0  0  0  0  0  0  0  0
    0.7253    0.2367   -0.7132 C   0  0  0  0  0  0  0  0  0  0  0  0
   -0.3745   -0.2609   -0.1161 N   0  0  0  0  0  0  0  0  0  0  0  0
    3.1533    0.3126   -1.1196 C   0  0  0  0  0  0  0  0  0  0  0  0
    2.8890    1.4039   -1.8145 O   0  0  0  0  0  0  0  0  0  0  0  0
    4.4776   -0.0778   -1.1926 N   0  0  0  0  0  0  0  0  0  0  0  0
    5.1872   -1.1938   -0.6642 C   0  0  0  0  0  0  0  0  0  0  0  0
    5.9861   -0.6970    0.5395 C   0  0  0  0  0  0  0  0  0  0  0  0
    6.3643    0.6158    0.2618 O   0  0  0  0  0  0  0  0  0  0  0  0
    6.6519    0.8296   -1.0787 C   0  0  0  0  0  0  0  0  0  0  0  0
    5.4085    0.8624   -1.9289 C   0  0  0  0  0  0  0  0  0  0  0  0
   -4.8132    0.5643   -0.3024 C   0  0  0  0  0  0  0  0  0  0  0  0
   -4.8718    1.6504   -1.1801 C   0  0  0  0  0  0  0  0  0  0  0  0
   -5.5140    1.6178   -2.3928 C   0  0  0  0  0  0  0  0  0  0  0  0
   -6.1546    0.4296   -2.7935 C   0  0  0  0  0  0  0  0  0  0  0  0
   -6.1033   -0.6320   -1.9484 C   0  0  0  0  0  0  0  0  0  0  0  0
   -5.4416   -0.5740   -0.7121 C   0  0  0  0  0  0  0  0  0  0  0  0
   -0.9862    0.5138    3.7456 H   0  0  0  0  0  0  0  0  0  0  0  0
   -1.8858   -1.0239    3.9174 H   0  0  0  0  0  0  0  0  0  0  0  0
   -2.4054    0.3409    4.9474 H   0  0  0  0  0  0  0  0  0  0  0  0
   -3.1411   -1.6918    0.2456 H   0  0  0  0  0  0  0  0  0  0  0  0
   -3.3074   -2.2484    1.9380 H   0  0  0  0  0  0  0  0  0  0  0  0
    0.9323   -2.5683    1.8323 H   0  0  0  0  0  0  0  0  0  0  0  0
    3.0104   -1.6734    0.7896 H   0  0  0  0  0  0  0  0  0  0  0  0
    0.6358    1.0242   -1.4335 H   0  0  0  0  0  0  0  0  0  0  0  0
    4.6647   -2.1233   -0.5192 H   0  0  0  0  0  0  0  0  0  0  0  0
    6.0123   -1.4669   -1.4311 H   0  0  0  0  0  0  0  0  0  0  0  0
    6.8701   -1.3305    0.7061 H   0  0  0  0  0  0  0  0  0  0  0  0
    5.3461   -0.6961    1.4371 H   0  0  0  0  0  0  0  0  0  0  0  0
    7.3537    0.0874   -1.4860 H   0  0  0  0  0  0  0  0  0  0  0  0
    7.1490    1.8318   -1.1665 H   0  0  0  0  0  0  0  0  0  0  0  0
    5.6395    0.4355   -2.9196 H   0  0  0  0  0  0  0  0  0  0  0  0
    4.9435    1.8703   -1.9851 H   0  0  0  0  0  0  0  0  0  0  0  0
   -4.3682    2.5613   -0.8479 H   0  0  0  0  0  0  0  0  0  0  0  0
   -5.5537    2.4539   -3.0645 H   0  0  0  0  0  0  0  0  0  0  0  0
   -6.6607    0.4012   -3.7532 H   0  0  0  0  0  0  0  0  0  0  0  0
   -6.6117   -1.5605   -2.2664 H   0  0  0  0  0  0  0  0  0  0  0  0
   -5.4613   -1.4746   -0.1275 H   0  0  0  0  0  0  0  0  0  0  0  0
  1  2  1  0
  2  3  1  0
  3  4  1  0
  4  5  2  0
  5  6  1  0
  6  7  1  0
  7  8  1  0
  8  9  1  0
  9 10  2  0
 10 11  1  0
 11 12  2  0
 12 13  1  0
 13 14  2  0
 12 15  1  0
 15 16  2  0
 15 17  1  0
 17 18  1  0
 18 19  1  0
 19 20  1  0
 20 21  1  0
 21 22  1  0
  5 23  1  0
 23 24  2  0
 24 25  1  0
 25 26  2  0
 26 27  1  0
 27 28  2  0
  6  2  2  0
 14  9  1  0
 22 17  1  0
 28 23  1  0
  1 29  1  0
  1 30  1  0
  1 31  1  0
  7 32  1  0
  7 33  1  0
 10 34  1  0
 11 35  1  0
 13 36  1  0
 18 37  1  0
 18 38  1  0
 19 39  1  0
 19 40  1  0
 21 41  1  0
 21 42  1  0
 22 43  1  0
 22 44  1  0
 24 45  1  0
 25 46  1  0
 26 47  1  0
 27 48  1  0
 28 49  1  0
M  END
$$$$
[H]c1c([H])c([H])c(C([H])([H])OC(=O)N(C([H])([H])[H])[C@]2([H])C([H])([H])[C@@]3([H])O[C@](C([H])([H])[H])(n4c5c([H])c([H])c([H])c([H])c5c5c6c(c7c8c([H])c([H])c([H])c([H])c8n3c7c54)C(=O)N([H])C6([H])[H])[C@]2([H])OC([H])([H])[H])c([H])c1[H]
     RDKit          3D

 77 85  0  0  0  0  0  0  0  0999 V2000
    0.4941    2.1033   -0.9671 C   0  0  0  0  0  0  0  0  0  0  0  0
    0.0143    0.9182   -0.4136 O   0  0  0  0  0  0  0  0  0  0  0  0
    0.3069    0.6813    0.8720 C   0  0  2  0  0  0  0  0  0  0  0  0
    1.0961   -0.5871    1.1923 C   0  0  1  0  0  0  0  0  0  0  0  0
    0.3395   -1.6918    0.5156 C   0  0  0  0  0  0  0  0  0  0  0  0
   -0.9984   -1.7228    1.1953 C   0  0  1  0  0  0  0  0  0  0  0  0
   -1.2099   -0.7435    2.0989 O   0  0  0  0  0  0  0  0  0  0  0  0
   -0.9517    0.5705    1.7742 C   0  0  1  0  0  0  0  0  0  0  0  0
   -0.4772    1.1838    3.0684 C   0  0  0  0  0  0  0  0  0  0  0  0
   -2.0790    1.1427    1.1278 N   0  0  0  0  0  0  0  0  0  0  0  0
   -2.5060    2.4493    1.1716 C   0  0  0  0  0  0  0  0  0  0  0  0
   -2.0000    3.5570    1.8191 C   0  0  0  0  0  0  0  0  0  0  0  0
   -2.6710    4.7600    1.6481 C   0  0  0  0  0  0  0  0  0  0  0  0
   -3.7943    4.8339    0.8613 C   0  0  0  0  0  0  0  0  0  0  0  0
   -4.3166    3.7441    0.2053 C   0  0  0  0  0  0  0  0  0  0  0  0
   -3.6395    2.5503    0.3835 C   0  0  0  0  0  0  0  0  0  0  0  0
   -3.8835    1.2982   -0.1307 C   0  0  0  0  0  0  0  0  0  0  0  0
   -4.8716    0.8048   -1.0013 C   0  0  0  0  0  0  0  0  0  0  0  0
   -5.9876    1.5247   -1.5895 C   0  0  0  0  0  0  0  0  0  0  0  0
   -6.6651    0.6107   -2.4220 N   0  0  0  0  0  0  0  0  0  0  0  0
   -6.0365   -0.6589   -2.3093 C   0  0  0  0  0  0  0  0  0  0  0  0
   -6.4811   -1.6391   -2.9292 O   0  0  0  0  0  0  0  0  0  0  0  0
   -4.9095   -0.5082   -1.4093 C   0  0  0  0  0  0  0  0  0  0  0  0
   -3.9415   -1.3852   -0.9473 C   0  0  0  0  0  0  0  0  0  0  0  0
   -3.6612   -2.7109   -1.1175 C   0  0  0  0  0  0  0  0  0  0  0  0
   -4.2776   -3.6874   -1.8538 C   0  0  0  0  0  0  0  0  0  0  0  0
   -3.7234   -4.9770   -1.8099 C   0  0  0  0  0  0  0  0  0  0  0  0
   -2.6052   -5.2691   -1.0627 C   0  0  0  0  0  0  0  0  0  0  0  0
   -2.0232   -4.2497   -0.3397 C   0  0  0  0  0  0  0  0  0  0  0  0
   -2.5398   -2.9642   -0.3568 C   0  0  0  0  0  0  0  0  0  0  0  0
   -2.1268   -1.8549    0.2671 N   0  0  0  0  0  0  0  0  0  0  0  0
   -2.9815   -0.8830   -0.0930 C   0  0  0  0  0  0  0  0  0  0  0  0
   -2.9265    0.4337    0.3258 C   0  0  0  0  0  0  0  0  0  0  0  0
    2.4875   -0.5350    0.9868 N   0  0  0  0  0  0  0  0  0  0  0  0
    3.3275   -0.5345    2.2161 C   0  0  0  0  0  0  0  0  0  0  0  0
    3.2179   -0.4814   -0.2185 C   0  0  0  0  0  0  0  0  0  0  0  0
    2.7131   -0.5227   -1.3693 O   0  0  0  0  0  0  0  0  0  0  0  0
    4.6126   -0.3738   -0.1915 O   0  0  0  0  0  0  0  0  0  0  0  0
    5.3659   -0.3182   -1.4124 C   0  0  0  0  0  0  0  0  0  0  0  0
    6.8016   -0.2067   -0.9723 C   0  0  0  0  0  0  0  0  0  0  0  0
    7.4110    1.0039   -0.7605 C   0  0  0  0  0  0  0  0  0  0  0  0
    8.7333    1.0552   -0.3563 C   0  0  0  0  0  0  0  0  0  0  0  0
    9.4803   -0.1077   -0.1536 C   0  0  0  0  0  0  0  0  0  0  0  0
    8.8726   -1.3107   -0.3647 C   0  0  0  0  0  0  0  0  0  0  0  0
    7.5482   -1.3450   -0.7692 C   0  0  0  0  0  0  0  0  0  0  0  0
    1.6070    2.1493   -0.9309 H   0  0  0  0  0  0  0  0  0  0  0  0
    0.1753    2.0995   -2.0356 H   0  0  0  0  0  0  0  0  0  0  0  0
    0.0317    2.9860   -0.4984 H   0  0  0  0  0  0  0  0  0  0  0  0
    0.9482    1.5372    1.2274 H   0  0  0  0  0  0  0  0  0  0  0  0
    0.9107   -0.7415    2.3244 H   0  0  0  0  0  0  0  0  0  0  0  0
    0.8725   -2.6599    0.5419 H   0  0  0  0  0  0  0  0  0  0  0  0
    0.1660   -1.3757   -0.5420 H   0  0  0  0  0  0  0  0  0  0  0  0
   -1.0169   -2.6877    1.7870 H   0  0  0  0  0  0  0  0  0  0  0  0
   -1.3289    1.5454    3.6772 H   0  0  0  0  0  0  0  0  0  0  0  0
   -0.0763    0.3635    3.7637 H   0  0  0  0  0  0  0  0  0  0  0  0
    0.3890    1.8372    2.9922 H   0  0  0  0  0  0  0  0  0  0  0  0
   -1.1211    3.4864    2.4093 H   0  0  0  0  0  0  0  0  0  0  0  0
   -2.2497    5.6137    2.1706 H   0  0  0  0  0  0  0  0  0  0  0  0
   -4.2696    5.8079    0.7719 H   0  0  0  0  0  0  0  0  0  0  0  0
   -5.1974    3.8805   -0.3945 H   0  0  0  0  0  0  0  0  0  0  0  0
   -6.6318    2.0577   -0.8647 H   0  0  0  0  0  0  0  0  0  0  0  0
   -5.5563    2.3397   -2.2418 H   0  0  0  0  0  0  0  0  0  0  0  0
   -7.5053    0.8724   -3.0200 H   0  0  0  0  0  0  0  0  0  0  0  0
   -5.1481   -3.5435   -2.4582 H   0  0  0  0  0  0  0  0  0  0  0  0
   -4.2242   -5.7371   -2.3987 H   0  0  0  0  0  0  0  0  0  0  0  0
   -2.1983   -6.2778   -1.0482 H   0  0  0  0  0  0  0  0  0  0  0  0
   -1.1397   -4.4236    0.2669 H   0  0  0  0  0  0  0  0  0  0  0  0
    2.7624   -0.1426    3.0739 H   0  0  0  0  0  0  0  0  0  0  0  0
    4.2837   -0.0385    2.0407 H   0  0  0  0  0  0  0  0  0  0  0  0
    3.5154   -1.6132    2.4104 H   0  0  0  0  0  0  0  0  0  0  0  0
    5.2555   -1.2619   -1.9931 H   0  0  0  0  0  0  0  0  0  0  0  0
    5.0899    0.5808   -2.0048 H   0  0  0  0  0  0  0  0  0  0  0  0
    6.8405    1.9136   -0.9148 H   0  0  0  0  0  0  0  0  0  0  0  0
    9.2281    1.9977   -0.1852 H   0  0  0  0  0  0  0  0  0  0  0  0
   10.5123   -0.0081    0.1632 H   0  0  0  0  0  0  0  0  0  0  0  0
    9.4412   -2.2149   -0.2108 H   0  0  0  0  0  0  0  0  0  0  0  0
    7.0970   -2.2996   -0.9272 H   0  0  0  0  0  0  0  0  0  0  0  0
  1  2  1  0
  2  3  1  0
  3  4  1  0
  4  5  1  0
  5  6  1  0
  6  7  1  0
  7  8  1  0
  8  9  1  1
  8 10  1  0
 10 11  1  0
 11 12  2  0
 12 13  1  0
 13 14  2  0
 14 15  1  0
 15 16  2  0
 16 17  1  0
 17 18  2  0
 18 19  1  0
 19 20  1  0
 20 21  1  0
 21 22  2  0
 21 23  1  0
 23 24  2  0
 24 25  1  0
 25 26  2  0
 26 27  1  0
 27 28  2  0
 28 29  1  0
 29 30  2  0
 30 31  1  0
 31 32  1  0
 32 33  2  0
  4 34  1  0
 34 35  1  0
 34 36  1  0
 36 37  2  0
 36 38  1  0
 38 39  1  0
 39 40  1  0
 40 41  2  0
 41 42  1  0
 42 43  2  0
 43 44  1  0
 44 45  2  0
  8  3  1  0
 33 10  1  0
 45 40  1  0
 31  6  1  0
 16 11  1  0
 33 17  1  0
 23 18  1  0
 32 24  1  0
 30 25  1  0
  1 46  1  0
  1 47  1  0
  1 48  1  0
  3 49  1  1
  4 50  1  1
  5 51  1  0
  5 52  1  0
  6 53  1  1
  9 54  1  0
  9 55  1  0
  9 56  1  0
 12 57  1  0
 13 58  1  0
 14 59  1  0
 15 60  1  0
 19 61  1  0
 19 62  1  0
 20 63  1  0
 26 64  1  0
 27 65  1  0
 28 66  1  0
 29 67  1  0
 35 68  1  0
 35 69  1  0
 35 70  1  0
 39 71  1  0
 39 72  1  0
 41 73  1  0
 42 74  1  0
 43 75  1  0
 44 76  1  0
 45 77  1  0
M  END
$$$$
