[H]C([H])=C([H])C(=O)N1C([H])([H])C([H])([H])N(C([H])([H])c2c(-c3sc4c(OC([H])([H])[H])c([H])c(C([H])([H])[H])c([H])c4c3[H])c3c(N([H])[H])nc([H])nn3c2[H])C([H])([H])C1([H])[H]
     RDKit          3D

 59 63  0  0  0  0  0  0  0  0999 V2000
   -7.3380    1.4492   -0.6400 C   0  0  0  0  0  0  0  0  0  0  0  0
   -6.0862    0.7948   -0.6029 O   0  0  0  0  0  0  0  0  0  0  0  0
   -5.0372    1.2421    0.1814 C   0  0  0  0  0  0  0  0  0  0  0  0
   -5.1246    2.3506    0.9828 C   0  0  0  0  0  0  0  0  0  0  0  0
   -4.0211    2.6910    1.7094 C   0  0  0  0  0  0  0  0  0  0  0  0
   -4.1047    3.9007    2.5890 C   0  0  0  0  0  0  0  0  0  0  0  0
   -2.8766    1.9601    1.6429 C   0  0  0  0  0  0  0  0  0  0  0  0
   -2.7382    0.8130    0.8340 C   0  0  0  0  0  0  0  0  0  0  0  0
   -1.6662    0.0215    0.6908 C   0  0  0  0  0  0  0  0  0  0  0  0
   -1.7466   -1.0572   -0.1620 C   0  0  0  0  0  0  0  0  0  0  0  0
   -3.3522   -0.9035   -0.7266 S   0  0  0  0  0  0  0  0  0  0  0  0
   -3.8544    0.4875    0.1132 C   0  0  0  0  0  0  0  0  0  0  0  0
   -0.7163   -2.0741   -0.4134 C   0  0  0  0  0  0  0  0  0  0  0  0
    0.6474   -1.8126   -0.6346 C   0  0  0  0  0  0  0  0  0  0  0  0
    1.1770   -0.4389   -0.7323 C   0  0  0  0  0  0  0  0  0  0  0  0
    2.6323   -0.4262   -0.9934 N   0  0  0  0  0  0  0  0  0  0  0  0
    3.3865   -0.9228    0.0539 C   0  0  0  0  0  0  0  0  0  0  0  0
    4.2035    0.0599    0.8477 C   0  0  0  0  0  0  0  0  0  0  0  0
    4.7343    1.0777   -0.0607 N   0  0  0  0  0  0  0  0  0  0  0  0
    3.7050    1.7893   -0.7924 C   0  0  0  0  0  0  0  0  0  0  0  0
    2.9641    0.7862   -1.6210 C   0  0  0  0  0  0  0  0  0  0  0  0
    6.1202    1.3149   -0.1853 C   0  0  0  0  0  0  0  0  0  0  0  0
    6.9005    0.6241    0.5103 O   0  0  0  0  0  0  0  0  0  0  0  0
    6.6774    2.3143   -1.0754 C   0  0  0  0  0  0  0  0  0  0  0  0
    7.9829    2.4922   -1.1504 C   0  0  0  0  0  0  0  0  0  0  0  0
    1.3028   -2.9999   -0.7746 C   0  0  0  0  0  0  0  0  0  0  0  0
    0.3819   -3.9679   -0.6445 N   0  0  0  0  0  0  0  0  0  0  0  0
    0.5373   -5.2746   -0.6908 N   0  0  0  0  0  0  0  0  0  0  0  0
   -0.5021   -6.0982   -0.5210 C   0  0  0  0  0  0  0  0  0  0  0  0
   -1.7299   -5.6404   -0.2983 N   0  0  0  0  0  0  0  0  0  0  0  0
   -1.9299   -4.2876   -0.2438 C   0  0  0  0  0  0  0  0  0  0  0  0
   -3.2430   -3.8391    0.0491 N   0  0  0  0  0  0  0  0  0  0  0  0
   -0.8659   -3.4353   -0.4209 C   0  0  0  0  0  0  0  0  0  0  0  0
   -7.2016    2.5642   -0.6115 H   0  0  0  0  0  0  0  0  0  0  0  0
   -7.9227    1.0911    0.2196 H   0  0  0  0  0  0  0  0  0  0  0  0
   -7.8941    1.2461   -1.5696 H   0  0  0  0  0  0  0  0  0  0  0  0
   -6.0188    2.9351    1.0449 H   0  0  0  0  0  0  0  0  0  0  0  0
   -5.1329    3.9651    2.9572 H   0  0  0  0  0  0  0  0  0  0  0  0
   -3.7717    4.7509    1.9779 H   0  0  0  0  0  0  0  0  0  0  0  0
   -3.4024    3.6875    3.4469 H   0  0  0  0  0  0  0  0  0  0  0  0
   -2.0471    2.3172    2.2653 H   0  0  0  0  0  0  0  0  0  0  0  0
   -0.7286    0.1947    1.2659 H   0  0  0  0  0  0  0  0  0  0  0  0
    0.6266    0.1431   -1.4648 H   0  0  0  0  0  0  0  0  0  0  0  0
    1.1553    0.1083    0.2590 H   0  0  0  0  0  0  0  0  0  0  0  0
    2.7529   -1.4521    0.7930 H   0  0  0  0  0  0  0  0  0  0  0  0
    4.1376   -1.6846   -0.3038 H   0  0  0  0  0  0  0  0  0  0  0  0
    3.5519    0.5484    1.5889 H   0  0  0  0  0  0  0  0  0  0  0  0
    5.0526   -0.4363    1.3586 H   0  0  0  0  0  0  0  0  0  0  0  0
    4.0682    2.6052   -1.4189 H   0  0  0  0  0  0  0  0  0  0  0  0
    2.9792    2.1490   -0.0063 H   0  0  0  0  0  0  0  0  0  0  0  0
    2.0511    1.2996   -2.0127 H   0  0  0  0  0  0  0  0  0  0  0  0
    3.5894    0.5717   -2.5216 H   0  0  0  0  0  0  0  0  0  0  0  0
    6.0467    2.9479   -1.7077 H   0  0  0  0  0  0  0  0  0  0  0  0
    8.4320    3.2258   -1.8009 H   0  0  0  0  0  0  0  0  0  0  0  0
    8.6732    1.9045   -0.5567 H   0  0  0  0  0  0  0  0  0  0  0  0
    2.3672   -3.1133   -0.9617 H   0  0  0  0  0  0  0  0  0  0  0  0
   -0.3385   -7.1811   -0.5663 H   0  0  0  0  0  0  0  0  0  0  0  0
   -3.4918   -3.4508    1.0008 H   0  0  0  0  0  0  0  0  0  0  0  0
   -3.9536   -3.9280   -0.7065 H   0  0  0  0  0  0  0  0  0  0  0  0
  1  2  1  0
  2  3  1  0
  3  4  2  0
  4  5  1  0
  5  6  1  0
  5  7  2  0
  7  8  1  0
  8  9  1  0
  9 10  2  0
 10 11  1  0
 11 12  1  0
 10 13  1  0
 13 14  1  0
 14 15  1  0
 15 16  1  0
 16 17  1  0
 17 18  1  0
 18 19  1  0
 19 20  1  0
 20 21  1  0
 19 22  1  0
 22 23  2  0
 22 24  1  0
 24 25  2  3
 14 26  2  0
 26 27  1  0
 27 28  1  0
 28 29  2  0
 29 30  1  0
 30 31  2  0
 31 32  1  0
 31 33  1  0
 12  3  1  0
 33 13  2  0
 12  8  2  0
 21 16  1  0
 33 27  1  0
  1 34  1  0
  1 35  1  0
  1 36  1  0
  4 37  1  0
  6 38  1  0
  6 39  1  0
  6 40  1  0
  7 41  1  0
  9 42  1  0
 15 43  1  0
 15 44  1  0
 17 45  1  0
 17 46  1  0
 18 47  1  0
 18 48  1  0
 20 49  1  0
 20 50  1  0
 21 51  1  0
 21 52  1  0
 24 53  1  0
 25 54  1  0
 25 55  1  0
 26 56  1  0
 29 57  1  0
 32 58  1  0
 32 59  1  0
M  END
$$$$
[H]c1nc(N([H])[H])c(C([H])(C([H])([H])[H])C([H])([H])[H])c(N2C([H])([H])C([H])([H])N(C([H])([H])c3c(-c4sc5c(OC([H])([H])[H])c([H])c(C([H])([H])[H])c([H])c5c4[H])c4c(N([H])[H])nc([H])nn4c3[H])C([H])([H])C2([H])[H])n1
     RDKit          3D

 72 77  0  0  0  0  0  0  0  0999 V2000
   -5.6938    4.3603   -0.2070 C   0  0  0  0  0  0  0  0  0  0  0  0
   -5.0359    3.1255   -0.0343 O   0  0  0  0  0  0  0  0  0  0  0  0
   -5.6384    1.9165   -0.3836 C   0  0  0  0  0  0  0  0  0  0  0  0
   -6.9073    1.8210   -0.9128 C   0  0  0  0  0  0  0  0  0  0  0  0
   -7.3368    0.5450   -1.1949 C   0  0  0  0  0  0  0  0  0  0  0  0
   -8.7261    0.4533   -1.7742 C   0  0  0  0  0  0  0  0  0  0  0  0
   -6.5920   -0.5683   -0.9809 C   0  0  0  0  0  0  0  0  0  0  0  0
   -5.2927   -0.4786   -0.4403 C   0  0  0  0  0  0  0  0  0  0  0  0
   -4.4525   -1.5075   -0.1855 C   0  0  0  0  0  0  0  0  0  0  0  0
   -3.2266   -1.2336    0.3396 C   0  0  0  0  0  0  0  0  0  0  0  0
   -3.2841    0.4997    0.4606 S   0  0  0  0  0  0  0  0  0  0  0  0
   -4.8444    0.7751   -0.1523 C   0  0  0  0  0  0  0  0  0  0  0  0
   -2.0554   -2.0756    0.6080 C   0  0  0  0  0  0  0  0  0  0  0  0
   -0.7376   -1.6741    0.2664 C   0  0  0  0  0  0  0  0  0  0  0  0
   -0.4009   -0.4007   -0.4083 C   0  0  0  0  0  0  0  0  0  0  0  0
    0.9846   -0.2724   -0.6536 N   0  0  0  0  0  0  0  0  0  0  0  0
    1.8079   -0.2061    0.4983 C   0  0  0  0  0  0  0  0  0  0  0  0
    2.5129    1.1526    0.5820 C   0  0  0  0  0  0  0  0  0  0  0  0
    3.3542    1.2755   -0.5718 N   0  0  0  0  0  0  0  0  0  0  0  0
    2.8746    0.6170   -1.7915 C   0  0  0  0  0  0  0  0  0  0  0  0
    1.3509    0.6706   -1.6832 C   0  0  0  0  0  0  0  0  0  0  0  0
    4.5576    2.0024   -0.5329 C   0  0  0  0  0  0  0  0  0  0  0  0
    4.4494    3.3447   -0.7431 N   0  0  0  0  0  0  0  0  0  0  0  0
    5.4880    4.1708   -0.7324 C   0  0  0  0  0  0  0  0  0  0  0  0
    6.7039    3.6663   -0.5037 N   0  0  0  0  0  0  0  0  0  0  0  0
    6.9178    2.3307   -0.2806 C   0  0  0  0  0  0  0  0  0  0  0  0
    8.2250    1.8775   -0.0238 N   0  0  0  0  0  0  0  0  0  0  0  0
    5.8378    1.5038   -0.2977 C   0  0  0  0  0  0  0  0  0  0  0  0
    5.9490    0.0596   -0.0706 C   0  0  0  0  0  0  0  0  0  0  0  0
    7.3080   -0.5511   -0.3140 C   0  0  0  0  0  0  0  0  0  0  0  0
    5.5784   -0.3429    1.3621 C   0  0  0  0  0  0  0  0  0  0  0  0
    0.0878   -2.6805    0.6889 C   0  0  0  0  0  0  0  0  0  0  0  0
   -0.6625   -3.6480    1.2616 N   0  0  0  0  0  0  0  0  0  0  0  0
   -0.2179   -4.7701    1.8137 N   0  0  0  0  0  0  0  0  0  0  0  0
   -1.1253   -5.5801    2.3600 C   0  0  0  0  0  0  0  0  0  0  0  0
   -2.4294   -5.3005    2.3678 N   0  0  0  0  0  0  0  0  0  0  0  0
   -2.8838   -4.1459    1.7992 C   0  0  0  0  0  0  0  0  0  0  0  0
   -4.2624   -3.8395    1.8901 N   0  0  0  0  0  0  0  0  0  0  0  0
   -1.9615   -3.2892    1.2197 C   0  0  0  0  0  0  0  0  0  0  0  0
   -6.2532    4.3370   -1.1624 H   0  0  0  0  0  0  0  0  0  0  0  0
   -6.3283    4.5694    0.6795 H   0  0  0  0  0  0  0  0  0  0  0  0
   -4.9190    5.1605   -0.2585 H   0  0  0  0  0  0  0  0  0  0  0  0
   -7.4739    2.7046   -1.0723 H   0  0  0  0  0  0  0  0  0  0  0  0
   -9.5021    0.5606   -0.9957 H   0  0  0  0  0  0  0  0  0  0  0  0
   -8.8493   -0.4700   -2.3730 H   0  0  0  0  0  0  0  0  0  0  0  0
   -8.8925    1.3156   -2.4772 H   0  0  0  0  0  0  0  0  0  0  0  0
   -7.0289   -1.5212   -1.2383 H   0  0  0  0  0  0  0  0  0  0  0  0
   -4.6954   -2.5761   -0.4406 H   0  0  0  0  0  0  0  0  0  0  0  0
   -0.9761   -0.2569   -1.3454 H   0  0  0  0  0  0  0  0  0  0  0  0
   -0.6589    0.4032    0.3423 H   0  0  0  0  0  0  0  0  0  0  0  0
    2.6646   -0.9251    0.3240 H   0  0  0  0  0  0  0  0  0  0  0  0
    1.3325   -0.4476    1.4583 H   0  0  0  0  0  0  0  0  0  0  0  0
    1.7264    1.9682    0.5994 H   0  0  0  0  0  0  0  0  0  0  0  0
    2.9873    1.2156    1.5564 H   0  0  0  0  0  0  0  0  0  0  0  0
    3.2468    1.1419   -2.6863 H   0  0  0  0  0  0  0  0  0  0  0  0
    3.1755   -0.4462   -1.8213 H   0  0  0  0  0  0  0  0  0  0  0  0
    1.0725    1.7068   -1.4473 H   0  0  0  0  0  0  0  0  0  0  0  0
    0.9173    0.3489   -2.6352 H   0  0  0  0  0  0  0  0  0  0  0  0
    5.3537    5.2514   -0.9106 H   0  0  0  0  0  0  0  0  0  0  0  0
    8.8906    1.7442   -0.7975 H   0  0  0  0  0  0  0  0  0  0  0  0
    8.5193    1.6862    0.9467 H   0  0  0  0  0  0  0  0  0  0  0  0
    5.2434   -0.4646   -0.7361 H   0  0  0  0  0  0  0  0  0  0  0  0
    7.0992   -1.6761   -0.4621 H   0  0  0  0  0  0  0  0  0  0  0  0
    7.7801   -0.2755   -1.2607 H   0  0  0  0  0  0  0  0  0  0  0  0
    7.9568   -0.5630    0.5791 H   0  0  0  0  0  0  0  0  0  0  0  0
    4.8122   -1.1498    1.3578 H   0  0  0  0  0  0  0  0  0  0  0  0
    6.4566   -0.7705    1.8803 H   0  0  0  0  0  0  0  0  0  0  0  0
    5.2542    0.5287    1.9668 H   0  0  0  0  0  0  0  0  0  0  0  0
    1.1687   -2.7304    0.5897 H   0  0  0  0  0  0  0  0  0  0  0  0
   -0.7873   -6.5164    2.8239 H   0  0  0  0  0  0  0  0  0  0  0  0
   -4.5876   -3.1845    2.6138 H   0  0  0  0  0  0  0  0  0  0  0  0
   -4.9255   -4.2722    1.2349 H   0  0  0  0  0  0  0  0  0  0  0  0
  1  2  1  0
  2  3  1  0
  3  4  2  0
  4  5  1  0
  5  6  1  0
  5  7  2  0
  7  8  1  0
  8  9  1  0
  9 10  2  0
 10 11  1  0
 11 12  1  0
 10 13  1  0
 13 14  1  0
 14 15  1  0
 15 16  1  0
 16 17  1  0
 17 18  1  0
 18 19  1  0
 19 20  1  0
 20 21  1  0
 19 22  1  0
 22 23  2  0
 23 24  1  0
 24 25  2  0
 25 26  1  0
 26 27  1  0
 26 28  2  0
 28 29  1  0
 29 30  1  0
 29 31  1  0
 14 32  2  0
 32 33  1  0
 33 34  1  0
 34 35  2  0
 35 36  1  0
 36 37  2  0
 37 38  1  0
 37 39  1  0
 12  3  1  0
 39 13  2  0
 12  8  2  0
 21 16  1  0
 28 22  1  0
 39 33  1  0
  1 40  1  0
  1 41  1  0
  1 42  1  0
  4 43  1  0
  6 44  1  0
  6 45  1  0
  6 46  1  0
  7 47  1  0
  9 48  1  0
 15 49  1  0
 15 50  1  0
 17 51  1  0
 17 52  1  0
 18 53  1  0
 18 54  1  0
 20 55  1  0
 20 56  1  0
 21 57  1  0
 21 58  1  0
 24 59  1  0
 27 60  1  0
 27 61  1  0
 29 62  1  0
 30 63  1  0
 30 64  1  0
 30 65  1  0
 31 66  1  0
 31 67  1  0
 31 68  1  0
 32 69  1  0
 35 70  1  0
 38 71  1  0
 38 72  1  0
M  END
$$$$
[H]C([H])=C([H])C(=O)N1C([H])([H])C([H])([H])N(C([H])([H])c2c(-c3sc4c(OC([H])([H])[H])c([H])c(C([H])([H])[H])c([H])c4c3[H])c3c(N([H])[H])nc([H])nn3c2C([H])([H])N2C([H])([H])C([H])([H])OC([H])([H])C2([H])[H])C([H])([H])C1([H])[H]
     RDKit          3D

 75 80  0  0  0  0  0  0  0  0999 V2000
    5.7311   -2.9574    3.1827 C   0  0  0  0  0  0  0  0  0  0  0  0
    5.4602   -2.9549    1.9205 O   0  0  0  0  0  0  0  0  0  0  0  0
    5.2088   -2.9662    0.6323 C   0  0  0  0  0  0  0  0  0  0  0  0
    5.9027   -3.4810   -0.4380 C   0  0  0  0  0  0  0  0  0  0  0  0
    5.3453   -3.3167   -1.6749 C   0  0  0  0  0  0  0  0  0  0  0  0
    6.1614   -3.6450   -2.9175 C   0  0  0  0  0  0  0  0  0  0  0  0
    4.1672   -2.6888   -1.9057 C   0  0  0  0  0  0  0  0  0  0  0  0
    3.4116   -2.1272   -0.8322 C   0  0  0  0  0  0  0  0  0  0  0  0
    2.3307   -1.3079   -0.9162 C   0  0  0  0  0  0  0  0  0  0  0  0
    1.9265   -0.7123    0.2727 C   0  0  0  0  0  0  0  0  0  0  0  0
    3.0298   -1.3450    1.3958 S   0  0  0  0  0  0  0  0  0  0  0  0
    3.9653   -2.2998    0.3599 C   0  0  0  0  0  0  0  0  0  0  0  0
    1.0574    0.4698    0.3873 C   0  0  0  0  0  0  0  0  0  0  0  0
   -0.3150    0.5462    0.1057 C   0  0  0  0  0  0  0  0  0  0  0  0
   -1.0826   -0.6941    0.0052 C   0  0  0  0  0  0  0  0  0  0  0  0
   -1.9160   -1.0897   -0.9814 N   0  0  0  0  0  0  0  0  0  0  0  0
   -2.9397   -0.5546   -1.6838 C   0  0  0  0  0  0  0  0  0  0  0  0
   -3.7504   -1.6887   -2.3765 C   0  0  0  0  0  0  0  0  0  0  0  0
   -4.2552   -2.5230   -1.2180 N   0  0  0  0  0  0  0  0  0  0  0  0
   -3.1902   -3.1562   -0.5092 C   0  0  0  0  0  0  0  0  0  0  0  0
   -1.8805   -2.5822   -1.0529 C   0  0  0  0  0  0  0  0  0  0  0  0
   -5.5898   -2.6214   -1.0672 C   0  0  0  0  0  0  0  0  0  0  0  0
   -6.2774   -2.1785   -2.1325 O   0  0  0  0  0  0  0  0  0  0  0  0
   -6.5105   -3.0884   -0.0274 C   0  0  0  0  0  0  0  0  0  0  0  0
   -6.0908   -3.5684    1.1606 C   0  0  0  0  0  0  0  0  0  0  0  0
   -0.6337    1.8713    0.1931 C   0  0  0  0  0  0  0  0  0  0  0  0
   -1.9847    2.5103    0.0596 C   0  0  0  0  0  0  0  0  0  0  0  0
   -1.8147    3.9339    0.4242 N   0  0  0  0  0  0  0  0  0  0  0  0
   -2.8244    4.7503   -0.2592 C   0  0  0  0  0  0  0  0  0  0  0  0
   -2.3937    6.1805    0.1260 C   0  0  0  0  0  0  0  0  0  0  0  0
   -2.7281    6.3820    1.4413 O   0  0  0  0  0  0  0  0  0  0  0  0
   -1.8884    5.5828    2.1940 C   0  0  0  0  0  0  0  0  0  0  0  0
   -2.0752    4.1350    1.8681 C   0  0  0  0  0  0  0  0  0  0  0  0
    0.4860    2.5574    0.4875 N   0  0  0  0  0  0  0  0  0  0  0  0
    0.7819    3.8739    0.5997 N   0  0  0  0  0  0  0  0  0  0  0  0
    1.9798    4.3640    0.8109 C   0  0  0  0  0  0  0  0  0  0  0  0
    3.0159    3.5427    0.9345 N   0  0  0  0  0  0  0  0  0  0  0  0
    2.7947    2.1941    0.8295 C   0  0  0  0  0  0  0  0  0  0  0  0
    3.9915    1.4544    0.8470 N   0  0  0  0  0  0  0  0  0  0  0  0
    1.5206    1.7287    0.6107 C   0  0  0  0  0  0  0  0  0  0  0  0
    6.6193   -2.2492    3.5072 H   0  0  0  0  0  0  0  0  0  0  0  0
    5.8309   -3.8470    3.8128 H   0  0  0  0  0  0  0  0  0  0  0  0
    4.9215   -2.3328    3.7954 H   0  0  0  0  0  0  0  0  0  0  0  0
    6.8308   -3.9831   -0.2915 H   0  0  0  0  0  0  0  0  0  0  0  0
    5.7202   -4.3479   -3.5851 H   0  0  0  0  0  0  0  0  0  0  0  0
    6.2814   -2.6178   -3.4840 H   0  0  0  0  0  0  0  0  0  0  0  0
    7.1767   -3.8493   -2.5978 H   0  0  0  0  0  0  0  0  0  0  0  0
    3.7796   -2.6189   -2.9264 H   0  0  0  0  0  0  0  0  0  0  0  0
    1.7539   -1.1275   -1.8321 H   0  0  0  0  0  0  0  0  0  0  0  0
   -0.6002   -1.5458    0.5946 H   0  0  0  0  0  0  0  0  0  0  0  0
   -1.8676   -0.4300    0.9639 H   0  0  0  0  0  0  0  0  0  0  0  0
   -3.6928    0.1032   -1.2332 H   0  0  0  0  0  0  0  0  0  0  0  0
   -2.5116   -0.0176   -2.6139 H   0  0  0  0  0  0  0  0  0  0  0  0
   -3.0691   -2.2630   -3.0023 H   0  0  0  0  0  0  0  0  0  0  0  0
   -4.6016   -1.2524   -2.8863 H   0  0  0  0  0  0  0  0  0  0  0  0
   -3.2254   -4.2359   -0.7746 H   0  0  0  0  0  0  0  0  0  0  0  0
   -3.1844   -3.0155    0.5854 H   0  0  0  0  0  0  0  0  0  0  0  0
   -1.6101   -2.9104   -2.0046 H   0  0  0  0  0  0  0  0  0  0  0  0
   -1.0980   -2.8612   -0.2908 H   0  0  0  0  0  0  0  0  0  0  0  0
   -7.5688   -3.0685   -0.1929 H   0  0  0  0  0  0  0  0  0  0  0  0
   -5.0642   -3.6346    1.3823 H   0  0  0  0  0  0  0  0  0  0  0  0
   -6.7973   -3.8656    1.8835 H   0  0  0  0  0  0  0  0  0  0  0  0
   -2.7192    2.0579    0.7340 H   0  0  0  0  0  0  0  0  0  0  0  0
   -2.3171    2.4748   -0.9795 H   0  0  0  0  0  0  0  0  0  0  0  0
   -2.7342    4.5509   -1.3334 H   0  0  0  0  0  0  0  0  0  0  0  0
   -3.8335    4.6127    0.1225 H   0  0  0  0  0  0  0  0  0  0  0  0
   -2.8238    6.9132   -0.5782 H   0  0  0  0  0  0  0  0  0  0  0  0
   -1.2707    6.1857    0.0865 H   0  0  0  0  0  0  0  0  0  0  0  0
   -0.8168    5.8709    2.0649 H   0  0  0  0  0  0  0  0  0  0  0  0
   -2.1905    5.7703    3.2727 H   0  0  0  0  0  0  0  0  0  0  0  0
   -1.4135    3.4969    2.4391 H   0  0  0  0  0  0  0  0  0  0  0  0
   -3.1126    3.8187    2.1364 H   0  0  0  0  0  0  0  0  0  0  0  0
    2.1939    5.4479    0.8856 H   0  0  0  0  0  0  0  0  0  0  0  0
    4.2188    0.9419   -0.0894 H   0  0  0  0  0  0  0  0  0  0  0  0
    4.6685    1.2990    1.5732 H   0  0  0  0  0  0  0  0  0  0  0  0
  1  2  1  0
  2  3  1  0
  3  4  2  0
  4  5  1  0
  5  6  1  0
  5  7  2  0
  7  8  1  0
  8  9  1  0
  9 10  2  0
 10 11  1  0
 11 12  1  0
 10 13  1  0
 13 14  1  0
 14 15  1  0
 15 16  1  0
 16 17  1  0
 17 18  1  0
 18 19  1  0
 19 20  1  0
 20 21  1  0
 19 22  1  0
 22 23  2  0
 22 24  1  0
 24 25  2  3
 14 26  2  0
 26 27  1  0
 27 28  1  0
 28 29  1  0
 29 30  1  0
 30 31  1  0
 31 32  1  0
 32 33  1  0
 26 34  1  0
 34 35  1  0
 35 36  2  0
 36 37  1  0
 37 38  2  0
 38 39  1  0
 38 40  1  0
 12  3  1  0
 40 13  2  0
 12  8  2  0
 21 16  1  0
 33 28  1  0
 40 34  1  0
  1 41  1  0
  1 42  1  0
  1 43  1  0
  4 44  1  0
  6 45  1  0
  6 46  1  0
  6 47  1  0
  7 48  1  0
  9 49  1  0
 15 50  1  0
 15 51  1  0
 17 52  1  0
 17 53  1  0
 18 54  1  0
 18 55  1  0
 20 56  1  0
 20 57  1  0
 21 58  1  0
 21 59  1  0
 24 60  1  0
 25 61  1  0
 25 62  1  0
 27 63  1  0
 27 64  1  0
 29 65  1  0
 29 66  1  0
 30 67  1  0
 30 68  1  0
 32 69  1  0
 32 70  1  0
 33 71  1  0
 33 72  1  0
 36 73  1  0
 39 74  1  0
 39 75  1  0
M  END
$$$$
[H]c1nc(N([H])[H])c2c(-c3sc4c(OC([H])([H])[H])c([H])c(C([H])([H])[H])c([H])c4c3[H])c(C([H])([H])N3C([H])([H])C([H])([H])OC([H])([H])C3([H])[H])c([H])n2n1
     RDKit          3D

 52 56  0  0  0  0  0  0  0  0999 V2000
    6.4525    1.3006    1.1248 C   0  0  0  0  0  0  0  0  0  0  0  0
    5.1126    0.8480    1.2222 O   0  0  0  0  0  0  0  0  0  0  0  0
    4.4080    0.7045    0.0405 C   0  0  0  0  0  0  0  0  0  0  0  0
    4.9610    0.9841   -1.2133 C   0  0  0  0  0  0  0  0  0  0  0  0
    4.1132    0.7845   -2.2843 C   0  0  0  0  0  0  0  0  0  0  0  0
    4.7003    1.0824   -3.6293 C   0  0  0  0  0  0  0  0  0  0  0  0
    2.8326    0.3516   -2.1853 C   0  0  0  0  0  0  0  0  0  0  0  0
    2.2700    0.0684   -0.9273 C   0  0  0  0  0  0  0  0  0  0  0  0
    1.0211   -0.3661   -0.6838 C   0  0  0  0  0  0  0  0  0  0  0  0
    0.6576   -0.5870    0.6301 C   0  0  0  0  0  0  0  0  0  0  0  0
    2.1163   -0.1650    1.4428 S   0  0  0  0  0  0  0  0  0  0  0  0
    3.0954    0.2614    0.1332 C   0  0  0  0  0  0  0  0  0  0  0  0
   -0.6241   -1.1097    1.1262 C   0  0  0  0  0  0  0  0  0  0  0  0
   -1.8185   -0.7568    0.5575 C   0  0  0  0  0  0  0  0  0  0  0  0
   -2.1290    0.1119   -0.5614 C   0  0  0  0  0  0  0  0  0  0  0  0
   -3.5829    0.2742   -0.7561 N   0  0  0  0  0  0  0  0  0  0  0  0
   -3.6785    1.0620   -2.0069 C   0  0  0  0  0  0  0  0  0  0  0  0
   -4.9405    1.8990   -1.9775 C   0  0  0  0  0  0  0  0  0  0  0  0
   -5.9456    1.3204   -1.2488 O   0  0  0  0  0  0  0  0  0  0  0  0
   -5.6480    1.1068    0.0870 C   0  0  0  0  0  0  0  0  0  0  0  0
   -4.1695    1.1183    0.2776 C   0  0  0  0  0  0  0  0  0  0  0  0
   -2.7841   -1.4425    1.2567 C   0  0  0  0  0  0  0  0  0  0  0  0
   -2.2349   -2.1932    2.2174 N   0  0  0  0  0  0  0  0  0  0  0  0
   -2.7731   -3.0108    3.1054 N   0  0  0  0  0  0  0  0  0  0  0  0
   -2.0043   -3.6763    3.9651 C   0  0  0  0  0  0  0  0  0  0  0  0
   -0.6907   -3.5292    3.9416 N   0  0  0  0  0  0  0  0  0  0  0  0
   -0.0968   -2.6944    3.0403 C   0  0  0  0  0  0  0  0  0  0  0  0
    1.3048   -2.6213    3.0230 N   0  0  0  0  0  0  0  0  0  0  0  0
   -0.8672   -1.9988    2.1512 C   0  0  0  0  0  0  0  0  0  0  0  0
    7.0981    0.6014    0.5635 H   0  0  0  0  0  0  0  0  0  0  0  0
    6.4468    2.2875    0.6024 H   0  0  0  0  0  0  0  0  0  0  0  0
    6.8695    1.3674    2.1483 H   0  0  0  0  0  0  0  0  0  0  0  0
    5.9679    1.3236   -1.2798 H   0  0  0  0  0  0  0  0  0  0  0  0
    4.8655    2.1793   -3.7240 H   0  0  0  0  0  0  0  0  0  0  0  0
    5.7089    0.6225   -3.6337 H   0  0  0  0  0  0  0  0  0  0  0  0
    4.0506    0.7210   -4.4391 H   0  0  0  0  0  0  0  0  0  0  0  0
    2.2814    0.2394   -3.1110 H   0  0  0  0  0  0  0  0  0  0  0  0
    0.2618   -0.5878   -1.4682 H   0  0  0  0  0  0  0  0  0  0  0  0
   -1.7072    1.1271   -0.5479 H   0  0  0  0  0  0  0  0  0  0  0  0
   -1.8389   -0.3218   -1.5760 H   0  0  0  0  0  0  0  0  0  0  0  0
   -2.8207    1.7566   -2.0227 H   0  0  0  0  0  0  0  0  0  0  0  0
   -3.7334    0.3880   -2.8804 H   0  0  0  0  0  0  0  0  0  0  0  0
   -4.6985    2.9466   -1.6626 H   0  0  0  0  0  0  0  0  0  0  0  0
   -5.2901    1.9901   -3.0245 H   0  0  0  0  0  0  0  0  0  0  0  0
   -6.1018    0.1424    0.4097 H   0  0  0  0  0  0  0  0  0  0  0  0
   -6.1079    1.9627    0.6604 H   0  0  0  0  0  0  0  0  0  0  0  0
   -3.8305    2.1688    0.0093 H   0  0  0  0  0  0  0  0  0  0  0  0
   -3.8073    0.9570    1.2822 H   0  0  0  0  0  0  0  0  0  0  0  0
   -3.8733   -1.4187    1.0924 H   0  0  0  0  0  0  0  0  0  0  0  0
   -2.4700   -4.3587    4.7059 H   0  0  0  0  0  0  0  0  0  0  0  0
    1.8353   -2.1274    3.7626 H   0  0  0  0  0  0  0  0  0  0  0  0
    1.8359   -3.0939    2.2643 H   0  0  0  0  0  0  0  0  0  0  0  0
  1  2  1  0
  2  3  1  0
  3  4  2  0
  4  5  1  0
  5  6  1  0
  5  7  2  0
  7  8  1  0
  8  9  1  0
  9 10  2  0
 10 11  1  0
 11 12  1  0
 10 13  1  0
 13 14  1  0
 14 15  1  0
 15 16  1  0
 16 17  1  0
 17 18  1  0
 18 19  1  0
 19 20  1  0
 20 21  1  0
 14 22  2  0
 22 23  1  0
 23 24  1  0
 24 25  2  0
 25 26  1  0
 26 27  2  0
 27 28  1  0
 27 29  1  0
 12  3  1  0
 29 13  2  0
 12  8  2  0
 21 16  1  0
 29 23  1  0
  1 30  1  0
  1 31  1  0
  1 32  1  0
  4 33  1  0
  6 34  1  0
  6 35  1  0
  6 36  1  0
  7 37  1  0
  9 38  1  0
 15 39  1  0
 15 40  1  0
 17 41  1  0
 17 42  1  0
 18 43  1  0
 18 44  1  0
 20 45  1  0
 20 46  1  0
 21 47  1  0
 21 48  1  0
 22 49  1  0
 25 50  1  0
 28 51  1  0
 28 52  1  0
M  END
$$$$
[H]c1nc(N([H])[H])c(C([H])([H])[H])c(N2C([H])([H])C([H])([H])N(C([H])([H])c3c(-c4sc5c(OC([H])([H])[H])c([H])c(C([H])([H])[H])c([H])c5c4[H])c4c(N([H])[H])nc([H])nn4c3[H])C([H])([H])C2([H])[H])n1
     RDKit          3D

 66 71  0  0  0  0  0  0  0  0999 V2000
   -8.6179   -0.5363    1.5015 C   0  0  0  0  0  0  0  0  0  0  0  0
   -7.3371   -0.0071    1.2251 O   0  0  0  0  0  0  0  0  0  0  0  0
   -6.3708   -0.8969    0.7808 C   0  0  0  0  0  0  0  0  0  0  0  0
   -6.6177   -2.2512    0.6052 C   0  0  0  0  0  0  0  0  0  0  0  0
   -5.5380   -2.9849    0.1565 C   0  0  0  0  0  0  0  0  0  0  0  0
   -5.7964   -4.4583   -0.0375 C   0  0  0  0  0  0  0  0  0  0  0  0
   -4.3039   -2.4926   -0.1131 C   0  0  0  0  0  0  0  0  0  0  0  0
   -4.0588   -1.1117    0.0679 C   0  0  0  0  0  0  0  0  0  0  0  0
   -2.8840   -0.4770   -0.1601 C   0  0  0  0  0  0  0  0  0  0  0  0
   -2.8271    0.8779    0.0704 C   0  0  0  0  0  0  0  0  0  0  0  0
   -4.4370    1.1782    0.5948 S   0  0  0  0  0  0  0  0  0  0  0  0
   -5.1022   -0.3657    0.5083 C   0  0  0  0  0  0  0  0  0  0  0  0
   -1.6909    1.7858   -0.1513 C   0  0  0  0  0  0  0  0  0  0  0  0
   -0.3511    1.4066   -0.0013 C   0  0  0  0  0  0  0  0  0  0  0  0
    0.2279    0.1093    0.4222 C   0  0  0  0  0  0  0  0  0  0  0  0
    1.6785    0.1544    0.4577 N   0  0  0  0  0  0  0  0  0  0  0  0
    2.2875    0.1032   -0.8413 C   0  0  0  0  0  0  0  0  0  0  0  0
    3.7531    0.5349   -0.7033 C   0  0  0  0  0  0  0  0  0  0  0  0
    4.3360   -0.3473    0.2876 N   0  0  0  0  0  0  0  0  0  0  0  0
    3.7129   -0.3863    1.5955 C   0  0  0  0  0  0  0  0  0  0  0  0
    2.2557   -0.7765    1.3783 C   0  0  0  0  0  0  0  0  0  0  0  0
    5.4684   -1.1682    0.0606 C   0  0  0  0  0  0  0  0  0  0  0  0
    5.4801   -2.5068    0.1594 N   0  0  0  0  0  0  0  0  0  0  0  0
    6.5697   -3.2509   -0.0625 C   0  0  0  0  0  0  0  0  0  0  0  0
    7.7161   -2.6599   -0.4005 N   0  0  0  0  0  0  0  0  0  0  0  0
    7.7971   -1.3295   -0.5223 C   0  0  0  0  0  0  0  0  0  0  0  0
    9.0212   -0.7175   -0.8818 N   0  0  0  0  0  0  0  0  0  0  0  0
    6.6542   -0.5663   -0.2882 C   0  0  0  0  0  0  0  0  0  0  0  0
    6.7193    0.9053   -0.4166 C   0  0  0  0  0  0  0  0  0  0  0  0
    0.3968    2.5137   -0.2994 C   0  0  0  0  0  0  0  0  0  0  0  0
   -0.3973    3.5332   -0.6225 N   0  0  0  0  0  0  0  0  0  0  0  0
   -0.0457    4.7539   -0.9833 N   0  0  0  0  0  0  0  0  0  0  0  0
   -0.9799    5.6676   -1.3004 C   0  0  0  0  0  0  0  0  0  0  0  0
   -2.2481    5.2893   -1.2352 N   0  0  0  0  0  0  0  0  0  0  0  0
   -2.6333    4.0271   -0.8628 C   0  0  0  0  0  0  0  0  0  0  0  0
   -4.0048    3.7583   -0.8922 N   0  0  0  0  0  0  0  0  0  0  0  0
   -1.6839    3.1000   -0.5375 C   0  0  0  0  0  0  0  0  0  0  0  0
   -8.5672   -1.4165    2.1877 H   0  0  0  0  0  0  0  0  0  0  0  0
   -9.0117   -0.9327    0.5293 H   0  0  0  0  0  0  0  0  0  0  0  0
   -9.2856    0.2647    1.9090 H   0  0  0  0  0  0  0  0  0  0  0  0
   -7.5783   -2.6535    0.8116 H   0  0  0  0  0  0  0  0  0  0  0  0
   -5.8922   -4.9616    0.9328 H   0  0  0  0  0  0  0  0  0  0  0  0
   -6.7407   -4.6066   -0.6253 H   0  0  0  0  0  0  0  0  0  0  0  0
   -4.9809   -4.8955   -0.6204 H   0  0  0  0  0  0  0  0  0  0  0  0
   -3.5512   -3.1805   -0.4580 H   0  0  0  0  0  0  0  0  0  0  0  0
   -1.9661   -0.9811   -0.5441 H   0  0  0  0  0  0  0  0  0  0  0  0
   -0.2169   -0.3322    1.3100 H   0  0  0  0  0  0  0  0  0  0  0  0
    0.0621   -0.5755   -0.4864 H   0  0  0  0  0  0  0  0  0  0  0  0
    1.7519    0.6780   -1.5799 H   0  0  0  0  0  0  0  0  0  0  0  0
    2.3477   -0.9772   -1.1644 H   0  0  0  0  0  0  0  0  0  0  0  0
    4.2669    0.5164   -1.6668 H   0  0  0  0  0  0  0  0  0  0  0  0
    3.7198    1.5530   -0.2348 H   0  0  0  0  0  0  0  0  0  0  0  0
    4.1793   -1.1584    2.2510 H   0  0  0  0  0  0  0  0  0  0  0  0
    3.7321    0.6038    2.0993 H   0  0  0  0  0  0  0  0  0  0  0  0
    2.1751   -1.8299    1.0725 H   0  0  0  0  0  0  0  0  0  0  0  0
    1.7505   -0.6703    2.3518 H   0  0  0  0  0  0  0  0  0  0  0  0
    6.5299   -4.3154    0.0285 H   0  0  0  0  0  0  0  0  0  0  0  0
    9.5320   -0.9854   -1.7326 H   0  0  0  0  0  0  0  0  0  0  0  0
    9.4109    0.0183   -0.2716 H   0  0  0  0  0  0  0  0  0  0  0  0
    6.5580    1.2000   -1.4631 H   0  0  0  0  0  0  0  0  0  0  0  0
    6.0640    1.4336    0.3062 H   0  0  0  0  0  0  0  0  0  0  0  0
    7.7625    1.2536   -0.1636 H   0  0  0  0  0  0  0  0  0  0  0  0
    1.4802    2.5580   -0.2585 H   0  0  0  0  0  0  0  0  0  0  0  0
   -0.6488    6.6519   -1.5885 H   0  0  0  0  0  0  0  0  0  0  0  0
   -4.6185    4.1334   -0.1374 H   0  0  0  0  0  0  0  0  0  0  0  0
   -4.4131    3.1996   -1.6913 H   0  0  0  0  0  0  0  0  0  0  0  0
  1  2  1  0
  2  3  1  0
  3  4  2  0
  4  5  1  0
  5  6  1  0
  5  7  2  0
  7  8  1  0
  8  9  1  0
  9 10  2  0
 10 11  1  0
 11 12  1  0
 10 13  1  0
 13 14  1  0
 14 15  1  0
 15 16  1  0
 16 17  1  0
 17 18  1  0
 18 19  1  0
 19 20  1  0
 20 21  1  0
 19 22  1  0
 22 23  2  0
 23 24  1  0
 24 25  2  0
 25 26  1  0
 26 27  1  0
 26 28  2  0
 28 29  1  0
 14 30  2  0
 30 31  1  0
 31 32  1  0
 32 33  2  0
 33 34  1  0
 34 35  2  0
 35 36  1  0
 35 37  1  0
 12  3  1  0
 37 13  2  0
 12  8  2  0
 21 16  1  0
 28 22  1  0
 37 31  1  0
  1 38  1  0
  1 39  1  0
  1 40  1  0
  4 41  1  0
  6 42  1  0
  6 43  1  0
  6 44  1  0
  7 45  1  0
  9 46  1  0
 15 47  1  0
 15 48  1  0
 17 49  1  0
 17 50  1  0
 18 51  1  0
 18 52  1  0
 20 53  1  0
 20 54  1  0
 21 55  1  0
 21 56  1  0
 24 57  1  0
 27 58  1  0
 27 59  1  0
 29 60  1  0
 29 61  1  0
 29 62  1  0
 30 63  1  0
 33 64  1  0
 36 65  1  0
 36 66  1  0
M  END
$$$$
[H]c1nc(N([H])[H])c2c(n1)N1C([H])([H])C([H])([H])N(C([H])([H])C(C(=O)N([H])C(C([H])([H])[H])(C([H])([H])[H])C([H])([H])[H])=C2c2sc3c(OC([H])([H])[H])c([H])c(C([H])([H])[H])c([H])c3c2[H])C([H])([H])C1([H])[H]
     RDKit          3D

 67 71  0  0  0  0  0  0  0  0999 V2000
    5.6004   -0.1627    4.0107 C   0  0  0  0  0  0  0  0  0  0  0  0
    4.5370    0.1474    3.1322 O   0  0  0  0  0  0  0  0  0  0  0  0
    4.2332   -0.6812    2.0610 C   0  0  0  0  0  0  0  0  0  0  0  0
    4.9804   -1.8209    1.8537 C   0  0  0  0  0  0  0  0  0  0  0  0
    4.6191   -2.5926    0.7708 C   0  0  0  0  0  0  0  0  0  0  0  0
    5.4543   -3.8323    0.5698 C   0  0  0  0  0  0  0  0  0  0  0  0
    3.5873   -2.2921   -0.0819 C   0  0  0  0  0  0  0  0  0  0  0  0
    2.8299   -1.1249    0.1388 C   0  0  0  0  0  0  0  0  0  0  0  0
    1.7878   -0.6966   -0.6105 C   0  0  0  0  0  0  0  0  0  0  0  0
    1.1706    0.4617   -0.2446 C   0  0  0  0  0  0  0  0  0  0  0  0
    2.0715    0.9242    1.1478 S   0  0  0  0  0  0  0  0  0  0  0  0
    3.1807   -0.3570    1.2071 C   0  0  0  0  0  0  0  0  0  0  0  0
    0.0030    1.1699   -0.8599 C   0  0  0  0  0  0  0  0  0  0  0  0
   -1.1288    0.5060   -0.9639 C   0  0  0  0  0  0  0  0  0  0  0  0
   -2.3407    1.1893   -1.5966 C   0  0  0  0  0  0  0  0  0  0  0  0
   -3.3016    1.5327   -0.6260 N   0  0  0  0  0  0  0  0  0  0  0  0
   -2.9372    1.6675    0.7340 C   0  0  0  0  0  0  0  0  0  0  0  0
   -1.9566    2.7898    0.9060 C   0  0  0  0  0  0  0  0  0  0  0  0
   -1.8912    3.5329   -0.4076 N   0  0  0  0  0  0  0  0  0  0  0  0
   -3.2336    3.8968   -0.6970 C   0  0  0  0  0  0  0  0  0  0  0  0
   -4.1201    2.6677   -0.9714 C   0  0  0  0  0  0  0  0  0  0  0  0
   -0.6248    3.6758   -1.0319 C   0  0  0  0  0  0  0  0  0  0  0  0
   -0.0827    4.8623   -1.4787 N   0  0  0  0  0  0  0  0  0  0  0  0
    1.0460    5.0891   -2.0690 C   0  0  0  0  0  0  0  0  0  0  0  0
    1.8484    4.0590   -2.3089 N   0  0  0  0  0  0  0  0  0  0  0  0
    1.4274    2.8303   -1.9139 C   0  0  0  0  0  0  0  0  0  0  0  0
    2.3934    1.8136   -2.2674 N   0  0  0  0  0  0  0  0  0  0  0  0
    0.2276    2.5757   -1.2812 C   0  0  0  0  0  0  0  0  0  0  0  0
   -1.4551   -0.7992   -0.4347 C   0  0  0  0  0  0  0  0  0  0  0  0
   -0.7154   -1.5352    0.2794 O   0  0  0  0  0  0  0  0  0  0  0  0
   -2.7494   -1.3851   -0.7163 N   0  0  0  0  0  0  0  0  0  0  0  0
   -3.0487   -2.7223   -0.1647 C   0  0  0  0  0  0  0  0  0  0  0  0
   -2.0561   -3.7348   -0.6839 C   0  0  0  0  0  0  0  0  0  0  0  0
   -4.4158   -3.1500   -0.6371 C   0  0  0  0  0  0  0  0  0  0  0  0
   -3.0694   -2.6878    1.3467 C   0  0  0  0  0  0  0  0  0  0  0  0
    5.5410    0.4842    4.9077 H   0  0  0  0  0  0  0  0  0  0  0  0
    6.5960   -0.0329    3.5315 H   0  0  0  0  0  0  0  0  0  0  0  0
    5.5342   -1.2349    4.3409 H   0  0  0  0  0  0  0  0  0  0  0  0
    5.7963   -2.0931    2.4970 H   0  0  0  0  0  0  0  0  0  0  0  0
    6.5241   -3.6117    0.7689 H   0  0  0  0  0  0  0  0  0  0  0  0
    5.1105   -4.5452    1.3482 H   0  0  0  0  0  0  0  0  0  0  0  0
    5.3517   -4.2159   -0.4525 H   0  0  0  0  0  0  0  0  0  0  0  0
    3.3962   -2.9704   -0.8962 H   0  0  0  0  0  0  0  0  0  0  0  0
    1.3975   -1.2166   -1.5312 H   0  0  0  0  0  0  0  0  0  0  0  0
   -2.0291    1.9706   -2.3203 H   0  0  0  0  0  0  0  0  0  0  0  0
   -2.8444    0.4601   -2.3174 H   0  0  0  0  0  0  0  0  0  0  0  0
   -2.5672    0.8133    1.2801 H   0  0  0  0  0  0  0  0  0  0  0  0
   -3.8766    1.9768    1.3028 H   0  0  0  0  0  0  0  0  0  0  0  0
   -1.0106    2.4119    1.2354 H   0  0  0  0  0  0  0  0  0  0  0  0
   -2.3259    3.4951    1.6761 H   0  0  0  0  0  0  0  0  0  0  0  0
   -3.5152    4.5915   -1.4824 H   0  0  0  0  0  0  0  0  0  0  0  0
   -3.6919    4.3584    0.2385 H   0  0  0  0  0  0  0  0  0  0  0  0
   -4.4770    2.6402   -2.0118 H   0  0  0  0  0  0  0  0  0  0  0  0
   -4.9910    2.6827   -0.3107 H   0  0  0  0  0  0  0  0  0  0  0  0
    1.3348    6.1116   -2.3659 H   0  0  0  0  0  0  0  0  0  0  0  0
    3.2531    1.8164   -1.6942 H   0  0  0  0  0  0  0  0  0  0  0  0
    2.1545    1.1905   -3.0461 H   0  0  0  0  0  0  0  0  0  0  0  0
   -3.4771   -0.9234   -1.2750 H   0  0  0  0  0  0  0  0  0  0  0  0
   -2.5687   -4.6564   -1.0538 H   0  0  0  0  0  0  0  0  0  0  0  0
   -1.4620   -3.3489   -1.5338 H   0  0  0  0  0  0  0  0  0  0  0  0
   -1.3460   -4.0403    0.1085 H   0  0  0  0  0  0  0  0  0  0  0  0
   -5.1703   -2.3452   -0.5042 H   0  0  0  0  0  0  0  0  0  0  0  0
   -4.3917   -3.5025   -1.6878 H   0  0  0  0  0  0  0  0  0  0  0  0
   -4.7624   -3.9916    0.0061 H   0  0  0  0  0  0  0  0  0  0  0  0
   -2.0819   -2.9153    1.7966 H   0  0  0  0  0  0  0  0  0  0  0  0
   -3.7941   -3.4688    1.6788 H   0  0  0  0  0  0  0  0  0  0  0  0
   -3.4777   -1.7072    1.6554 H   0  0  0  0  0  0  0  0  0  0  0  0
  1  2  1  0
  2  3  1  0
  3  4  1  0
  4  5  2  0
  5  6  1  0
  5  7  1  0
  7  8  2  0
  8  9  1  0
  9 10  2  0
 10 11  1  0
 11 12  1  0
 10 13  1  0
 13 14  2  0
 14 15  1  0
 15 16  1  0
 16 17  1  0
 17 18  1  0
 18 19  1  0
 19 20  1  0
 20 21  1  0
 19 22  1  0
 22 23  2  0
 23 24  1  0
 24 25  2  0
 25 26  1  0
 26 27  1  0
 26 28  2  0
 14 29  1  0
 29 30  2  0
 29 31  1  0
 31 32  1  0
 32 33  1  0
 32 34  1  0
 32 35  1  0
 12  3  2  0
 28 13  1  0
 12  8  1  0
 21 16  1  0
 28 22  1  0
  1 36  1  0
  1 37  1  0
  1 38  1  0
  4 39  1  0
  6 40  1  0
  6 41  1  0
  6 42  1  0
  7 43  1  0
  9 44  1  0
 15 45  1  0
 15 46  1  0
 17 47  1  0
 17 48  1  0
 18 49  1  0
 18 50  1  0
 20 51  1  0
 20 52  1  0
 21 53  1  0
 21 54  1  0
 24 55  1  0
 27 56  1  0
 27 57  1  0
 31 58  1  0
 33 59  1  0
 33 60  1  0
 33 61  1  0
 34 62  1  0
 34 63  1  0
 34 64  1  0
 35 65  1  0
 35 66  1  0
 35 67  1  0
M  END
$$$$
[H]c1nc(N([H])[H])c(C(C([H])([H])[H])(C([H])([H])[H])C([H])([H])[H])c(N2C([H])([H])C([H])([H])N(C([H])([H])c3c(-c4sc5c(OC([H])([H])[H])c([H])c(C([H])([H])[H])c([H])c5c4[H])c4c(N([H])[H])nc([H])nn4c3[H])C([H])([H])C2([H])[H])n1
     RDKit          3D

 75 80  0  0  0  0  0  0  0  0999 V2000
   -9.1592   -0.9146    1.3534 C   0  0  0  0  0  0  0  0  0  0  0  0
   -7.8657   -1.0083    0.8504 O   0  0  0  0  0  0  0  0  0  0  0  0
   -7.1021    0.0950    0.5116 C   0  0  0  0  0  0  0  0  0  0  0  0
   -7.5377    1.3865    0.6359 C   0  0  0  0  0  0  0  0  0  0  0  0
   -6.6690    2.3764    0.2600 C   0  0  0  0  0  0  0  0  0  0  0  0
   -7.1747    3.7880    0.4074 C   0  0  0  0  0  0  0  0  0  0  0  0
   -5.4310    2.1042   -0.2153 C   0  0  0  0  0  0  0  0  0  0  0  0
   -4.9412    0.7990   -0.3602 C   0  0  0  0  0  0  0  0  0  0  0  0
   -3.7432    0.4035   -0.8159 C   0  0  0  0  0  0  0  0  0  0  0  0
   -3.4895   -0.9551   -0.8656 C   0  0  0  0  0  0  0  0  0  0  0  0
   -4.9452   -1.5907   -0.2729 S   0  0  0  0  0  0  0  0  0  0  0  0
   -5.8136   -0.1633    0.0162 C   0  0  0  0  0  0  0  0  0  0  0  0
   -2.2935   -1.6460   -1.3585 C   0  0  0  0  0  0  0  0  0  0  0  0
   -0.9890   -1.1482   -1.1432 C   0  0  0  0  0  0  0  0  0  0  0  0
   -0.6448    0.0880   -0.4504 C   0  0  0  0  0  0  0  0  0  0  0  0
    0.8263    0.1807   -0.3466 N   0  0  0  0  0  0  0  0  0  0  0  0
    1.1857    1.4802    0.2132 C   0  0  0  0  0  0  0  0  0  0  0  0
    2.7150    1.5611    0.1575 C   0  0  0  0  0  0  0  0  0  0  0  0
    3.3196    0.4554    0.8044 N   0  0  0  0  0  0  0  0  0  0  0  0
    2.7862   -0.8889    0.4663 C   0  0  0  0  0  0  0  0  0  0  0  0
    1.2653   -0.7681    0.6992 C   0  0  0  0  0  0  0  0  0  0  0  0
    4.3083    0.5014    1.7825 C   0  0  0  0  0  0  0  0  0  0  0  0
    3.8111    0.3468    3.0811 N   0  0  0  0  0  0  0  0  0  0  0  0
    4.5673    0.3291    4.1569 C   0  0  0  0  0  0  0  0  0  0  0  0
    5.8788    0.4666    3.9927 N   0  0  0  0  0  0  0  0  0  0  0  0
    6.4376    0.6234    2.7461 C   0  0  0  0  0  0  0  0  0  0  0  0
    7.8416    0.7644    2.6966 N   0  0  0  0  0  0  0  0  0  0  0  0
    5.6706    0.6470    1.5940 C   0  0  0  0  0  0  0  0  0  0  0  0
    6.2270    0.8493    0.2729 C   0  0  0  0  0  0  0  0  0  0  0  0
    7.7640    0.9120    0.1848 C   0  0  0  0  0  0  0  0  0  0  0  0
    5.8545   -0.1913   -0.7581 C   0  0  0  0  0  0  0  0  0  0  0  0
    5.8637    2.2204   -0.3540 C   0  0  0  0  0  0  0  0  0  0  0  0
   -0.1645   -2.0577   -1.7587 C   0  0  0  0  0  0  0  0  0  0  0  0
   -0.8825   -3.0387   -2.3141 N   0  0  0  0  0  0  0  0  0  0  0  0
   -0.4923   -4.0913   -3.0062 N   0  0  0  0  0  0  0  0  0  0  0  0
   -1.3394   -4.9762   -3.5162 C   0  0  0  0  0  0  0  0  0  0  0  0
   -2.6391   -4.7844   -3.3167 N   0  0  0  0  0  0  0  0  0  0  0  0
   -3.1261   -3.7185   -2.6100 C   0  0  0  0  0  0  0  0  0  0  0  0
   -4.5143   -3.5515   -2.4988 N   0  0  0  0  0  0  0  0  0  0  0  0
   -2.2291   -2.8244   -2.0922 C   0  0  0  0  0  0  0  0  0  0  0  0
   -9.6972   -1.8832    1.2366 H   0  0  0  0  0  0  0  0  0  0  0  0
   -9.7304   -0.0701    0.9577 H   0  0  0  0  0  0  0  0  0  0  0  0
   -9.0841   -0.7723    2.4706 H   0  0  0  0  0  0  0  0  0  0  0  0
   -8.5294    1.5684    1.0187 H   0  0  0  0  0  0  0  0  0  0  0  0
   -8.0181    3.8591   -0.3347 H   0  0  0  0  0  0  0  0  0  0  0  0
   -7.6640    3.8612    1.4010 H   0  0  0  0  0  0  0  0  0  0  0  0
   -6.3933    4.5297    0.2399 H   0  0  0  0  0  0  0  0  0  0  0  0
   -4.8257    2.9848   -0.4836 H   0  0  0  0  0  0  0  0  0  0  0  0
   -2.9892    1.1060   -1.1608 H   0  0  0  0  0  0  0  0  0  0  0  0
   -0.8610    0.9518   -1.1474 H   0  0  0  0  0  0  0  0  0  0  0  0
   -1.0433    0.2659    0.5303 H   0  0  0  0  0  0  0  0  0  0  0  0
    0.8781    1.5263    1.2650 H   0  0  0  0  0  0  0  0  0  0  0  0
    0.8026    2.3177   -0.3693 H   0  0  0  0  0  0  0  0  0  0  0  0
    2.9261    1.5821   -0.9507 H   0  0  0  0  0  0  0  0  0  0  0  0
    2.9524    2.5585    0.5459 H   0  0  0  0  0  0  0  0  0  0  0  0
    3.1959   -1.6728    1.0934 H   0  0  0  0  0  0  0  0  0  0  0  0
    2.8897   -1.0040   -0.6112 H   0  0  0  0  0  0  0  0  0  0  0  0
    1.0623   -0.2572    1.6774 H   0  0  0  0  0  0  0  0  0  0  0  0
    0.7749   -1.7313    0.6524 H   0  0  0  0  0  0  0  0  0  0  0  0
    4.1365    0.2056    5.1564 H   0  0  0  0  0  0  0  0  0  0  0  0
    8.3669    1.6425    2.7200 H   0  0  0  0  0  0  0  0  0  0  0  0
    8.4100   -0.1328    2.6554 H   0  0  0  0  0  0  0  0  0  0  0  0
    8.2716   -0.0066    0.3906 H   0  0  0  0  0  0  0  0  0  0  0  0
    8.1797    1.8760    0.4877 H   0  0  0  0  0  0  0  0  0  0  0  0
    7.9368    0.9994   -0.9825 H   0  0  0  0  0  0  0  0  0  0  0  0
    5.7519   -1.2024   -0.3317 H   0  0  0  0  0  0  0  0  0  0  0  0
    6.6980   -0.3310   -1.5178 H   0  0  0  0  0  0  0  0  0  0  0  0
    5.0111    0.1243   -1.4171 H   0  0  0  0  0  0  0  0  0  0  0  0
    6.8088    2.7598   -0.6918 H   0  0  0  0  0  0  0  0  0  0  0  0
    5.4342    2.8974    0.3816 H   0  0  0  0  0  0  0  0  0  0  0  0
    5.3207    2.0897   -1.3047 H   0  0  0  0  0  0  0  0  0  0  0  0
    0.9203   -1.9650   -1.7783 H   0  0  0  0  0  0  0  0  0  0  0  0
   -0.9301   -5.8105   -4.0698 H   0  0  0  0  0  0  0  0  0  0  0  0
   -4.9635   -2.7817   -3.0829 H   0  0  0  0  0  0  0  0  0  0  0  0
   -5.1347   -4.1464   -1.9044 H   0  0  0  0  0  0  0  0  0  0  0  0
  1  2  1  0
  2  3  1  0
  3  4  2  0
  4  5  1  0
  5  6  1  0
  5  7  2  0
  7  8  1  0
  8  9  1  0
  9 10  2  0
 10 11  1  0
 11 12  1  0
 10 13  1  0
 13 14  1  0
 14 15  1  0
 15 16  1  0
 16 17  1  0
 17 18  1  0
 18 19  1  0
 19 20  1  0
 20 21  1  0
 19 22  1  0
 22 23  2  0
 23 24  1  0
 24 25  2  0
 25 26  1  0
 26 27  1  0
 26 28  2  0
 28 29  1  0
 29 30  1  0
 29 31  1  0
 29 32  1  0
 14 33  2  0
 33 34  1  0
 34 35  1  0
 35 36  2  0
 36 37  1  0
 37 38  2  0
 38 39  1  0
 38 40  1  0
 12  3  1  0
 40 13  2  0
 12  8  2  0
 21 16  1  0
 28 22  1  0
 40 34  1  0
  1 41  1  0
  1 42  1  0
  1 43  1  0
  4 44  1  0
  6 45  1  0
  6 46  1  0
  6 47  1  0
  7 48  1  0
  9 49  1  0
 15 50  1  0
 15 51  1  0
 17 52  1  0
 17 53  1  0
 18 54  1  0
 18 55  1  0
 20 56  1  0
 20 57  1  0
 21 58  1  0
 21 59  1  0
 24 60  1  0
 27 61  1  0
 27 62  1  0
 30 63  1  0
 30 64  1  0
 30 65  1  0
 31 66  1  0
 31 67  1  0
 31 68  1  0
 32 69  1  0
 32 70  1  0
 32 71  1  0
 33 72  1  0
 36 73  1  0
 39 74  1  0
 39 75  1  0
M  END
$$$$
[H]c1nc(N([H])[H])c2c(-c3sc4c(OC([H])([H])[H])c([H])c(C([H])([H])[H])c([H])c4c3[H])c(C([H])([H])N3C([H])([H])C([H])([H])N(C([H])([H])[H])C([H])([H])C3([H])[H])c([H])n2n1
     RDKit          3D

 56 60  0  0  0  0  0  0  0  0999 V2000
   -6.9487   -0.9617   -0.8879 C   0  0  0  0  0  0  0  0  0  0  0  0
   -5.6559   -0.4797   -0.7104 O   0  0  0  0  0  0  0  0  0  0  0  0
   -4.6483   -1.1475   -0.0404 C   0  0  0  0  0  0  0  0  0  0  0  0
   -4.7850   -2.3837    0.5448 C   0  0  0  0  0  0  0  0  0  0  0  0
   -3.6674   -2.8939    1.1706 C   0  0  0  0  0  0  0  0  0  0  0  0
   -3.7829   -4.2371    1.8192 C   0  0  0  0  0  0  0  0  0  0  0  0
   -2.4885   -2.2332    1.2197 C   0  0  0  0  0  0  0  0  0  0  0  0
   -2.3135   -0.9635    0.6300 C   0  0  0  0  0  0  0  0  0  0  0  0
   -1.1982   -0.2084    0.6109 C   0  0  0  0  0  0  0  0  0  0  0  0
   -1.2592    1.0159   -0.0348 C   0  0  0  0  0  0  0  0  0  0  0  0
   -2.8766    1.0303   -0.5703 S   0  0  0  0  0  0  0  0  0  0  0  0
   -3.4206   -0.4662    0.0143 C   0  0  0  0  0  0  0  0  0  0  0  0
   -0.1704    2.0127   -0.1041 C   0  0  0  0  0  0  0  0  0  0  0  0
    1.1760    1.7423   -0.3691 C   0  0  0  0  0  0  0  0  0  0  0  0
    1.6831    0.4294   -0.7671 C   0  0  0  0  0  0  0  0  0  0  0  0
    3.1427    0.3996   -0.9751 N   0  0  0  0  0  0  0  0  0  0  0  0
    3.7690    0.5786    0.2924 C   0  0  0  0  0  0  0  0  0  0  0  0
    4.4812   -0.6733    0.7714 C   0  0  0  0  0  0  0  0  0  0  0  0
    5.4315   -1.1645   -0.1693 N   0  0  0  0  0  0  0  0  0  0  0  0
    5.9084   -2.4539    0.2954 C   0  0  0  0  0  0  0  0  0  0  0  0
    4.8275   -1.3339   -1.4478 C   0  0  0  0  0  0  0  0  0  0  0  0
    3.4140   -0.8958   -1.5702 C   0  0  0  0  0  0  0  0  0  0  0  0
    1.8983    2.8889   -0.2760 C   0  0  0  0  0  0  0  0  0  0  0  0
    1.0335    3.8712    0.0413 N   0  0  0  0  0  0  0  0  0  0  0  0
    1.3280    5.1303    0.2336 N   0  0  0  0  0  0  0  0  0  0  0  0
    0.3408    5.9783    0.5605 C   0  0  0  0  0  0  0  0  0  0  0  0
   -0.9222    5.5555    0.6905 N   0  0  0  0  0  0  0  0  0  0  0  0
   -1.2218    4.2530    0.4906 C   0  0  0  0  0  0  0  0  0  0  0  0
   -2.5617    3.8187    0.6787 N   0  0  0  0  0  0  0  0  0  0  0  0
   -0.2343    3.3657    0.1533 C   0  0  0  0  0  0  0  0  0  0  0  0
   -7.1008   -1.5103   -1.8351 H   0  0  0  0  0  0  0  0  0  0  0  0
   -7.2461   -1.5822   -0.0082 H   0  0  0  0  0  0  0  0  0  0  0  0
   -7.6464   -0.0816   -0.8972 H   0  0  0  0  0  0  0  0  0  0  0  0
   -5.7265   -2.8730    0.4860 H   0  0  0  0  0  0  0  0  0  0  0  0
   -4.7689   -4.3611    2.3088 H   0  0  0  0  0  0  0  0  0  0  0  0
   -3.5615   -5.0254    1.0758 H   0  0  0  0  0  0  0  0  0  0  0  0
   -3.0020   -4.2883    2.6027 H   0  0  0  0  0  0  0  0  0  0  0  0
   -1.6731   -2.7256    1.7370 H   0  0  0  0  0  0  0  0  0  0  0  0
   -0.2532   -0.5191    1.1231 H   0  0  0  0  0  0  0  0  0  0  0  0
    1.4869   -0.4104   -0.1191 H   0  0  0  0  0  0  0  0  0  0  0  0
    1.1754    0.1770   -1.7483 H   0  0  0  0  0  0  0  0  0  0  0  0
    4.5563    1.3527    0.1980 H   0  0  0  0  0  0  0  0  0  0  0  0
    3.0466    0.9317    1.0504 H   0  0  0  0  0  0  0  0  0  0  0  0
    3.6981   -1.4381    0.9263 H   0  0  0  0  0  0  0  0  0  0  0  0
    4.9880   -0.5121    1.7369 H   0  0  0  0  0  0  0  0  0  0  0  0
    5.9481   -3.1588   -0.5346 H   0  0  0  0  0  0  0  0  0  0  0  0
    6.8923   -2.3031    0.7935 H   0  0  0  0  0  0  0  0  0  0  0  0
    5.2449   -2.8862    1.0884 H   0  0  0  0  0  0  0  0  0  0  0  0
    4.8634   -2.4113   -1.7777 H   0  0  0  0  0  0  0  0  0  0  0  0
    5.4362   -0.7913   -2.2176 H   0  0  0  0  0  0  0  0  0  0  0  0
    2.7280   -1.6504   -1.1295 H   0  0  0  0  0  0  0  0  0  0  0  0
    3.1550   -0.8132   -2.6462 H   0  0  0  0  0  0  0  0  0  0  0  0
    2.9664    2.9683   -0.4401 H   0  0  0  0  0  0  0  0  0  0  0  0
    0.6349    7.0284    0.7120 H   0  0  0  0  0  0  0  0  0  0  0  0
   -2.7938    3.2828    1.5423 H   0  0  0  0  0  0  0  0  0  0  0  0
   -3.3268    4.0263    0.0047 H   0  0  0  0  0  0  0  0  0  0  0  0
  1  2  1  0
  2  3  1  0
  3  4  2  0
  4  5  1  0
  5  6  1  0
  5  7  2  0
  7  8  1  0
  8  9  1  0
  9 10  2  0
 10 11  1  0
 11 12  1  0
 10 13  1  0
 13 14  1  0
 14 15  1  0
 15 16  1  0
 16 17  1  0
 17 18  1  0
 18 19  1  0
 19 20  1  0
 19 21  1  0
 21 22  1  0
 14 23  2  0
 23 24  1  0
 24 25  1  0
 25 26  2  0
 26 27  1  0
 27 28  2  0
 28 29  1  0
 28 30  1  0
 12  3  1  0
 30 13  2  0
 12  8  2  0
 22 16  1  0
 30 24  1  0
  1 31  1  0
  1 32  1  0
  1 33  1  0
  4 34  1  0
  6 35  1  0
  6 36  1  0
  6 37  1  0
  7 38  1  0
  9 39  1  0
 15 40  1  0
 15 41  1  0
 17 42  1  0
 17 43  1  0
 18 44  1  0
 18 45  1  0
 20 46  1  0
 20 47  1  0
 20 48  1  0
 21 49  1  0
 21 50  1  0
 22 51  1  0
 22 52  1  0
 23 53  1  0
 26 54  1  0
 29 55  1  0
 29 56  1  0
M  END
$$$$
[H]c1nc(N([H])[H])c(C(=O)N([H])[H])c(N2C([H])([H])C([H])([H])N(C([H])([H])c3c(-c4sc5c(OC([H])([H])[H])c([H])c(C([H])([H])[H])c([H])c5c4[H])c4c(N([H])[H])nc([H])nn4c3[H])C([H])([H])C2([H])[H])n1
     RDKit          3D

 67 72  0  0  0  0  0  0  0  0999 V2000
   -6.5152    3.1267    2.2655 C   0  0  0  0  0  0  0  0  0  0  0  0
   -5.4837    2.4588    1.5639 O   0  0  0  0  0  0  0  0  0  0  0  0
   -5.7367    1.1895    1.1067 C   0  0  0  0  0  0  0  0  0  0  0  0
   -6.9384    0.5504    1.3017 C   0  0  0  0  0  0  0  0  0  0  0  0
   -7.0699   -0.7198    0.7959 C   0  0  0  0  0  0  0  0  0  0  0  0
   -8.3889   -1.4269    1.0076 C   0  0  0  0  0  0  0  0  0  0  0  0
   -6.0517   -1.3280    0.1259 C   0  0  0  0  0  0  0  0  0  0  0  0
   -4.8120   -0.7039   -0.0907 C   0  0  0  0  0  0  0  0  0  0  0  0
   -3.7423   -1.2198   -0.7401 C   0  0  0  0  0  0  0  0  0  0  0  0
   -2.6227   -0.4563   -0.8512 C   0  0  0  0  0  0  0  0  0  0  0  0
   -3.1077    0.9927   -0.0208 S   0  0  0  0  0  0  0  0  0  0  0  0
   -4.6891    0.5537    0.4129 C   0  0  0  0  0  0  0  0  0  0  0  0
   -1.2727   -0.7516   -1.3722 C   0  0  0  0  0  0  0  0  0  0  0  0
   -0.0846   -0.3914   -0.7155 C   0  0  0  0  0  0  0  0  0  0  0  0
   -0.0398    0.2633    0.5996 C   0  0  0  0  0  0  0  0  0  0  0  0
    1.2350    0.5735    1.1270 N   0  0  0  0  0  0  0  0  0  0  0  0
    2.0125    1.5558    0.4859 C   0  0  0  0  0  0  0  0  0  0  0  0
    3.3802    1.7550    1.0743 C   0  0  0  0  0  0  0  0  0  0  0  0
    4.0639    0.5382    1.4100 N   0  0  0  0  0  0  0  0  0  0  0  0
    3.3104   -0.6779    1.5613 C   0  0  0  0  0  0  0  0  0  0  0  0
    1.8729   -0.3938    1.9320 C   0  0  0  0  0  0  0  0  0  0  0  0
    5.4711    0.5793    1.6357 C   0  0  0  0  0  0  0  0  0  0  0  0
    5.8241    0.7394    2.9711 N   0  0  0  0  0  0  0  0  0  0  0  0
    7.1014    0.8529    3.3078 C   0  0  0  0  0  0  0  0  0  0  0  0
    8.0944    0.8210    2.4109 N   0  0  0  0  0  0  0  0  0  0  0  0
    7.7822    0.6679    1.1307 C   0  0  0  0  0  0  0  0  0  0  0  0
    8.7860    0.6261    0.1302 N   0  0  0  0  0  0  0  0  0  0  0  0
    6.4443    0.5393    0.6961 C   0  0  0  0  0  0  0  0  0  0  0  0
    6.1946    0.3434   -0.7139 C   0  0  0  0  0  0  0  0  0  0  0  0
    4.9397    0.1577   -1.2886 N   0  0  0  0  0  0  0  0  0  0  0  0
    7.1731    0.3282   -1.5373 O   0  0  0  0  0  0  0  0  0  0  0  0
    0.9717   -0.7582   -1.4689 C   0  0  0  0  0  0  0  0  0  0  0  0
    0.4792   -1.3343   -2.5800 N   0  0  0  0  0  0  0  0  0  0  0  0
    1.0934   -1.8408   -3.6433 N   0  0  0  0  0  0  0  0  0  0  0  0
    0.4429   -2.3575   -4.6940 C   0  0  0  0  0  0  0  0  0  0  0  0
   -0.8947   -2.3785   -4.7052 N   0  0  0  0  0  0  0  0  0  0  0  0
   -1.5589   -1.8681   -3.6309 C   0  0  0  0  0  0  0  0  0  0  0  0
   -2.9771   -1.8199   -3.6918 N   0  0  0  0  0  0  0  0  0  0  0  0
   -0.8902   -1.3420   -2.5495 C   0  0  0  0  0  0  0  0  0  0  0  0
   -7.3308    3.3226    1.5340 H   0  0  0  0  0  0  0  0  0  0  0  0
   -6.1185    4.0821    2.6991 H   0  0  0  0  0  0  0  0  0  0  0  0
   -6.9516    2.4930    3.0677 H   0  0  0  0  0  0  0  0  0  0  0  0
   -7.7491    1.0151    1.8266 H   0  0  0  0  0  0  0  0  0  0  0  0
   -8.7360   -1.2664    2.0489 H   0  0  0  0  0  0  0  0  0  0  0  0
   -8.2525   -2.4763    0.7420 H   0  0  0  0  0  0  0  0  0  0  0  0
   -9.1577   -0.9702    0.3438 H   0  0  0  0  0  0  0  0  0  0  0  0
   -6.2483   -2.3350   -0.2391 H   0  0  0  0  0  0  0  0  0  0  0  0
   -3.7187   -2.2688   -1.1410 H   0  0  0  0  0  0  0  0  0  0  0  0
   -0.6365   -0.3358    1.2987 H   0  0  0  0  0  0  0  0  0  0  0  0
   -0.5918    1.2617    0.5417 H   0  0  0  0  0  0  0  0  0  0  0  0
    2.1111    1.5284   -0.5958 H   0  0  0  0  0  0  0  0  0  0  0  0
    1.4781    2.5516    0.6922 H   0  0  0  0  0  0  0  0  0  0  0  0
    4.0005    2.3508    0.3877 H   0  0  0  0  0  0  0  0  0  0  0  0
    3.2947    2.3082    2.0692 H   0  0  0  0  0  0  0  0  0  0  0  0
    3.7171   -1.2587    2.4458 H   0  0  0  0  0  0  0  0  0  0  0  0
    3.3510   -1.3750    0.7186 H   0  0  0  0  0  0  0  0  0  0  0  0
    1.8079   -0.1120    2.9928 H   0  0  0  0  0  0  0  0  0  0  0  0
    1.3328   -1.3741    1.8393 H   0  0  0  0  0  0  0  0  0  0  0  0
    7.3913    0.9793    4.3553 H   0  0  0  0  0  0  0  0  0  0  0  0
    9.2056   -0.2750   -0.1819 H   0  0  0  0  0  0  0  0  0  0  0  0
    9.1468    1.4912   -0.3353 H   0  0  0  0  0  0  0  0  0  0  0  0
    4.4026   -0.7289   -1.3406 H   0  0  0  0  0  0  0  0  0  0  0  0
    4.4616    0.9816   -1.7330 H   0  0  0  0  0  0  0  0  0  0  0  0
    2.0051   -0.6555   -1.2805 H   0  0  0  0  0  0  0  0  0  0  0  0
    0.9801   -2.7689   -5.5558 H   0  0  0  0  0  0  0  0  0  0  0  0
   -3.4489   -0.9310   -3.9026 H   0  0  0  0  0  0  0  0  0  0  0  0
   -3.5427   -2.6781   -3.5246 H   0  0  0  0  0  0  0  0  0  0  0  0
  1  2  1  0
  2  3  1  0
  3  4  2  0
  4  5  1  0
  5  6  1  0
  5  7  2  0
  7  8  1  0
  8  9  1  0
  9 10  2  0
 10 11  1  0
 11 12  1  0
 10 13  1  0
 13 14  1  0
 14 15  1  0
 15 16  1  0
 16 17  1  0
 17 18  1  0
 18 19  1  0
 19 20  1  0
 20 21  1  0
 19 22  1  0
 22 23  2  0
 23 24  1  0
 24 25  2  0
 25 26  1  0
 26 27  1  0
 26 28  2  0
 28 29  1  0
 29 30  1  0
 29 31  2  0
 14 32  2  0
 32 33  1  0
 33 34  1  0
 34 35  2  0
 35 36  1  0
 36 37  2  0
 37 38  1  0
 37 39  1  0
 12  3  1  0
 39 13  2  0
 12  8  2  0
 21 16  1  0
 28 22  1  0
 39 33  1  0
  1 40  1  0
  1 41  1  0
  1 42  1  0
  4 43  1  0
  6 44  1  0
  6 45  1  0
  6 46  1  0
  7 47  1  0
  9 48  1  0
 15 49  1  0
 15 50  1  0
 17 51  1  0
 17 52  1  0
 18 53  1  0
 18 54  1  0
 20 55  1  0
 20 56  1  0
 21 57  1  0
 21 58  1  0
 24 59  1  0
 27 60  1  0
 27 61  1  0
 30 62  1  0
 30 63  1  0
 32 64  1  0
 35 65  1  0
 38 66  1  0
 38 67  1  0
M  END
$$$$
[H]c1nc(N([H])[H])c2c(-c3sc4c(OC([H])([H])[H])c([H])c(C([H])([H])[H])c([H])c4c3[H])c(C([H])([H])N3C([H])([H])C([H])([H])OC([H])([H])C3([H])[H])c(C([H])([H])N3C([H])([H])C([H])([H])OC([H])([H])C3([H])[H])n2n1
     RDKit          3D

 68 73  0  0  0  0  0  0  0  0999 V2000
    7.0663    2.1447    1.0836 C   0  0  0  0  0  0  0  0  0  0  0  0
    5.7564    1.7843    0.7291 O   0  0  0  0  0  0  0  0  0  0  0  0
    5.4520    0.4532    0.5931 C   0  0  0  0  0  0  0  0  0  0  0  0
    6.3718   -0.5485    0.7854 C   0  0  0  0  0  0  0  0  0  0  0  0
    5.9445   -1.8368    0.6283 C   0  0  0  0  0  0  0  0  0  0  0  0
    6.9610   -2.9509    0.7581 C   0  0  0  0  0  0  0  0  0  0  0  0
    4.6571   -2.1303    0.2935 C   0  0  0  0  0  0  0  0  0  0  0  0
    3.6982   -1.1332    0.0911 C   0  0  0  0  0  0  0  0  0  0  0  0
    2.4154   -1.3110   -0.2584 C   0  0  0  0  0  0  0  0  0  0  0  0
    1.6134   -0.1554   -0.4515 C   0  0  0  0  0  0  0  0  0  0  0  0
    2.7263    1.0498   -0.1172 S   0  0  0  0  0  0  0  0  0  0  0  0
    4.1330    0.1470    0.2471 C   0  0  0  0  0  0  0  0  0  0  0  0
    0.1507   -0.3160   -0.6665 C   0  0  0  0  0  0  0  0  0  0  0  0
   -0.8737    0.3435    0.0378 C   0  0  0  0  0  0  0  0  0  0  0  0
   -0.5458    1.5154    0.8803 C   0  0  0  0  0  0  0  0  0  0  0  0
   -1.0497    2.7720    0.5653 N   0  0  0  0  0  0  0  0  0  0  0  0
   -2.2482    3.3256    0.3063 C   0  0  0  0  0  0  0  0  0  0  0  0
   -2.4725    4.7344    0.9252 C   0  0  0  0  0  0  0  0  0  0  0  0
   -1.3055    5.4504    0.9457 O   0  0  0  0  0  0  0  0  0  0  0  0
   -0.4606    5.0725   -0.0892 C   0  0  0  0  0  0  0  0  0  0  0  0
    0.0785    3.7061    0.2062 C   0  0  0  0  0  0  0  0  0  0  0  0
   -2.0443   -0.3202   -0.2630 C   0  0  0  0  0  0  0  0  0  0  0  0
   -3.2981   -0.2132    0.5200 C   0  0  0  0  0  0  0  0  0  0  0  0
   -4.4112   -0.9806    0.2586 N   0  0  0  0  0  0  0  0  0  0  0  0
   -5.3341   -0.8671   -0.7529 C   0  0  0  0  0  0  0  0  0  0  0  0
   -6.1595   -2.1552   -0.8143 C   0  0  0  0  0  0  0  0  0  0  0  0
   -5.4504   -3.2464   -0.2617 O   0  0  0  0  0  0  0  0  0  0  0  0
   -5.2171   -3.0855    1.0819 C   0  0  0  0  0  0  0  0  0  0  0  0
   -4.9533   -1.6608    1.4266 C   0  0  0  0  0  0  0  0  0  0  0  0
   -1.7685   -1.3289   -1.1576 N   0  0  0  0  0  0  0  0  0  0  0  0
   -2.5853   -2.1326   -1.7908 N   0  0  0  0  0  0  0  0  0  0  0  0
   -2.1757   -2.9909   -2.7226 C   0  0  0  0  0  0  0  0  0  0  0  0
   -0.8788   -3.0183   -3.0158 N   0  0  0  0  0  0  0  0  0  0  0  0
   -0.0106   -2.2058   -2.3881 C   0  0  0  0  0  0  0  0  0  0  0  0
    1.3343   -2.1429   -2.8807 N   0  0  0  0  0  0  0  0  0  0  0  0
   -0.4251   -1.3079   -1.4033 C   0  0  0  0  0  0  0  0  0  0  0  0
    7.7573    1.6111    0.4248 H   0  0  0  0  0  0  0  0  0  0  0  0
    7.2949    1.8036    2.1395 H   0  0  0  0  0  0  0  0  0  0  0  0
    7.2288    3.2443    1.1330 H   0  0  0  0  0  0  0  0  0  0  0  0
    7.3995   -0.2596    1.0567 H   0  0  0  0  0  0  0  0  0  0  0  0
    7.7598   -2.8203   -0.0343 H   0  0  0  0  0  0  0  0  0  0  0  0
    7.4687   -2.9278    1.7304 H   0  0  0  0  0  0  0  0  0  0  0  0
    6.4660   -3.9368    0.5418 H   0  0  0  0  0  0  0  0  0  0  0  0
    4.3996   -3.1940    0.1814 H   0  0  0  0  0  0  0  0  0  0  0  0
    1.9360   -2.3202   -0.3318 H   0  0  0  0  0  0  0  0  0  0  0  0
    0.5183    1.5070    1.2041 H   0  0  0  0  0  0  0  0  0  0  0  0
   -1.0702    1.2509    1.9008 H   0  0  0  0  0  0  0  0  0  0  0  0
   -3.1512    2.8165    0.5522 H   0  0  0  0  0  0  0  0  0  0  0  0
   -2.3508    3.4922   -0.8437 H   0  0  0  0  0  0  0  0  0  0  0  0
   -2.9548    4.5893    1.9070 H   0  0  0  0  0  0  0  0  0  0  0  0
   -3.2065    5.2365    0.2733 H   0  0  0  0  0  0  0  0  0  0  0  0
   -0.9540    5.1356   -1.0837 H   0  0  0  0  0  0  0  0  0  0  0  0
    0.3599    5.8290   -0.1032 H   0  0  0  0  0  0  0  0  0  0  0  0
    0.8363    3.7040    0.9850 H   0  0  0  0  0  0  0  0  0  0  0  0
    0.5184    3.2835   -0.7139 H   0  0  0  0  0  0  0  0  0  0  0  0
   -2.9783   -0.5316    1.6099 H   0  0  0  0  0  0  0  0  0  0  0  0
   -3.5831    0.8406    0.7042 H   0  0  0  0  0  0  0  0  0  0  0  0
   -6.1010   -0.0708   -0.4044 H   0  0  0  0  0  0  0  0  0  0  0  0
   -5.0391   -0.5348   -1.7501 H   0  0  0  0  0  0  0  0  0  0  0  0
   -6.3470   -2.4303   -1.8494 H   0  0  0  0  0  0  0  0  0  0  0  0
   -7.1020   -2.0518   -0.2622 H   0  0  0  0  0  0  0  0  0  0  0  0
   -6.0818   -3.4937    1.7027 H   0  0  0  0  0  0  0  0  0  0  0  0
   -4.3075   -3.6635    1.3256 H   0  0  0  0  0  0  0  0  0  0  0  0
   -5.8930   -1.1768    1.7349 H   0  0  0  0  0  0  0  0  0  0  0  0
   -4.2296   -1.5645    2.2894 H   0  0  0  0  0  0  0  0  0  0  0  0
   -2.9091   -3.6427   -3.2248 H   0  0  0  0  0  0  0  0  0  0  0  0
    1.9754   -2.9467   -2.8572 H   0  0  0  0  0  0  0  0  0  0  0  0
    1.6488   -1.2380   -3.2681 H   0  0  0  0  0  0  0  0  0  0  0  0
  1  2  1  0
  2  3  1  0
  3  4  2  0
  4  5  1  0
  5  6  1  0
  5  7  2  0
  7  8  1  0
  8  9  1  0
  9 10  2  0
 10 11  1  0
 11 12  1  0
 10 13  1  0
 13 14  1  0
 14 15  1  0
 15 16  1  0
 16 17  1  0
 17 18  1  0
 18 19  1  0
 19 20  1  0
 20 21  1  0
 14 22  2  0
 22 23  1  0
 23 24  1  0
 24 25  1  0
 25 26  1  0
 26 27  1  0
 27 28  1  0
 28 29  1  0
 22 30  1  0
 30 31  1  0
 31 32  2  0
 32 33  1  0
 33 34  2  0
 34 35  1  0
 34 36  1  0
 12  3  1  0
 36 13  2  0
 12  8  2  0
 21 16  1  0
 29 24  1  0
 36 30  1  0
  1 37  1  0
  1 38  1  0
  1 39  1  0
  4 40  1  0
  6 41  1  0
  6 42  1  0
  6 43  1  0
  7 44  1  0
  9 45  1  0
 15 46  1  0
 15 47  1  0
 17 48  1  0
 17 49  1  0
 18 50  1  0
 18 51  1  0
 20 52  1  0
 20 53  1  0
 21 54  1  0
 21 55  1  0
 23 56  1  0
 23 57  1  0
 25 58  1  0
 25 59  1  0
 26 60  1  0
 26 61  1  0
 28 62  1  0
 28 63  1  0
 29 64  1  0
 29 65  1  0
 32 66  1  0
 35 67  1  0
 35 68  1  0
M  END
$$$$
[H]c1nc(N([H])[H])c2c(C([H])([H])N3C([H])([H])C([H])([H])N(C([H])([H])[H])C([H])([H])C3([H])[H])c(-c3sc4c(OC([H])([H])[H])c([H])c(C([H])([H])[H])c([H])c4c3[H])c(=O)n([H])c2n1
     RDKit          3D

 58 62  0  0  0  0  0  0  0  0999 V2000
   -7.1292   -0.7181    1.5647 C   0  0  0  0  0  0  0  0  0  0  0  0
   -5.7882   -0.8486    1.2557 O   0  0  0  0  0  0  0  0  0  0  0  0
   -5.0951   -0.2729    0.2101 C   0  0  0  0  0  0  0  0  0  0  0  0
   -5.6439    0.5580   -0.7332 C   0  0  0  0  0  0  0  0  0  0  0  0
   -4.7945    1.0356   -1.7001 C   0  0  0  0  0  0  0  0  0  0  0  0
   -5.4145    1.9447   -2.7274 C   0  0  0  0  0  0  0  0  0  0  0  0
   -3.4678    0.7200   -1.7489 C   0  0  0  0  0  0  0  0  0  0  0  0
   -2.8758   -0.1324   -0.7916 C   0  0  0  0  0  0  0  0  0  0  0  0
   -1.5732   -0.5393   -0.7094 C   0  0  0  0  0  0  0  0  0  0  0  0
   -1.1983   -1.3576    0.2784 C   0  0  0  0  0  0  0  0  0  0  0  0
   -2.7278   -1.5644    1.1192 S   0  0  0  0  0  0  0  0  0  0  0  0
   -3.7253   -0.5958    0.1555 C   0  0  0  0  0  0  0  0  0  0  0  0
   -0.0296   -2.0911    0.7485 C   0  0  0  0  0  0  0  0  0  0  0  0
    1.3216   -1.6574    0.4787 C   0  0  0  0  0  0  0  0  0  0  0  0
    1.4387   -0.3808   -0.1149 C   0  0  0  0  0  0  0  0  0  0  0  0
    2.4285    0.5967   -0.2654 N   0  0  0  0  0  0  0  0  0  0  0  0
    1.8723    1.6036   -1.2288 C   0  0  0  0  0  0  0  0  0  0  0  0
    3.0501    2.4470   -1.6542 C   0  0  0  0  0  0  0  0  0  0  0  0
    4.0312    2.4861   -0.6101 N   0  0  0  0  0  0  0  0  0  0  0  0
    4.8951    3.6249   -0.8089 C   0  0  0  0  0  0  0  0  0  0  0  0
    3.4227    2.6100    0.7058 C   0  0  0  0  0  0  0  0  0  0  0  0
    2.4855    1.4568    0.9725 C   0  0  0  0  0  0  0  0  0  0  0  0
    2.3169   -2.4847    0.9305 C   0  0  0  0  0  0  0  0  0  0  0  0
    3.6372   -2.2760    0.6690 C   0  0  0  0  0  0  0  0  0  0  0  0
    4.1223   -1.3267   -0.2463 N   0  0  0  0  0  0  0  0  0  0  0  0
    4.6092   -3.1677    1.0967 N   0  0  0  0  0  0  0  0  0  0  0  0
    4.2731   -4.2632    1.7709 C   0  0  0  0  0  0  0  0  0  0  0  0
    2.9848   -4.5114    2.0386 N   0  0  0  0  0  0  0  0  0  0  0  0
    2.0100   -3.6823    1.6511 C   0  0  0  0  0  0  0  0  0  0  0  0
    0.7399   -4.0150    1.8685 N   0  0  0  0  0  0  0  0  0  0  0  0
   -0.2363   -3.2762    1.4456 C   0  0  0  0  0  0  0  0  0  0  0  0
   -1.4699   -3.6004    1.6465 O   0  0  0  0  0  0  0  0  0  0  0  0
   -7.3637   -0.9176    2.6323 H   0  0  0  0  0  0  0  0  0  0  0  0
   -7.4156    0.3571    1.3697 H   0  0  0  0  0  0  0  0  0  0  0  0
   -7.7591   -1.3154    0.8784 H   0  0  0  0  0  0  0  0  0  0  0  0
   -6.6870    0.7918   -0.6758 H   0  0  0  0  0  0  0  0  0  0  0  0
   -4.6527    2.5412   -3.2598 H   0  0  0  0  0  0  0  0  0  0  0  0
   -6.1579    2.6015   -2.2279 H   0  0  0  0  0  0  0  0  0  0  0  0
   -5.9832    1.2729   -3.4010 H   0  0  0  0  0  0  0  0  0  0  0  0
   -2.8969    1.1583   -2.5591 H   0  0  0  0  0  0  0  0  0  0  0  0
   -0.8609   -0.1822   -1.5057 H   0  0  0  0  0  0  0  0  0  0  0  0
    0.6109    0.2383    0.2700 H   0  0  0  0  0  0  0  0  0  0  0  0
    0.9995   -0.4995   -1.2340 H   0  0  0  0  0  0  0  0  0  0  0  0
    1.4785    0.9995   -2.0741 H   0  0  0  0  0  0  0  0  0  0  0  0
    1.1111    2.2045   -0.7340 H   0  0  0  0  0  0  0  0  0  0  0  0
    3.4568    2.1160   -2.6114 H   0  0  0  0  0  0  0  0  0  0  0  0
    2.6127    3.4727   -1.8491 H   0  0  0  0  0  0  0  0  0  0  0  0
    4.7341    4.4465   -0.0773 H   0  0  0  0  0  0  0  0  0  0  0  0
    5.9727    3.3379   -0.6777 H   0  0  0  0  0  0  0  0  0  0  0  0
    4.7335    4.0900   -1.8227 H   0  0  0  0  0  0  0  0  0  0  0  0
    2.9081    3.5960    0.7773 H   0  0  0  0  0  0  0  0  0  0  0  0
    4.2415    2.5607    1.4489 H   0  0  0  0  0  0  0  0  0  0  0  0
    2.7684    0.8443    1.8305 H   0  0  0  0  0  0  0  0  0  0  0  0
    1.4745    1.8528    1.1118 H   0  0  0  0  0  0  0  0  0  0  0  0
    3.8691   -1.4277   -1.2465 H   0  0  0  0  0  0  0  0  0  0  0  0
    4.7688   -0.5846    0.0630 H   0  0  0  0  0  0  0  0  0  0  0  0
    5.0007   -4.9824    2.1231 H   0  0  0  0  0  0  0  0  0  0  0  0
    0.5661   -4.8943    2.3971 H   0  0  0  0  0  0  0  0  0  0  0  0
  1  2  1  0
  2  3  1  0
  3  4  2  0
  4  5  1  0
  5  6  1  0
  5  7  2  0
  7  8  1  0
  8  9  1  0
  9 10  2  0
 10 11  1  0
 11 12  1  0
 10 13  1  0
 13 14  2  0
 14 15  1  0
 15 16  1  0
 16 17  1  0
 17 18  1  0
 18 19  1  0
 19 20  1  0
 19 21  1  0
 21 22  1  0
 14 23  1  0
 23 24  2  0
 24 25  1  0
 24 26  1  0
 26 27  2  0
 27 28  1  0
 28 29  2  0
 29 30  1  0
 30 31  1  0
 31 32  2  0
 12  3  1  0
 31 13  1  0
 12  8  2  0
 22 16  1  0
 29 23  1  0
  1 33  1  0
  1 34  1  0
  1 35  1  0
  4 36  1  0
  6 37  1  0
  6 38  1  0
  6 39  1  0
  7 40  1  0
  9 41  1  0
 15 42  1  0
 15 43  1  0
 17 44  1  0
 17 45  1  0
 18 46  1  0
 18 47  1  0
 20 48  1  0
 20 49  1  0
 20 50  1  0
 21 51  1  0
 21 52  1  0
 22 53  1  0
 22 54  1  0
 25 55  1  0
 25 56  1  0
 27 57  1  0
 30 58  1  0
M  END
$$$$
[H]c1nc(N([H])[H])c2c(n1)N1C([H])([H])C([H])([H])N(C([H])([H])C(C(=O)N([H])C([H])([H])C(F)(F)F)=C2c2sc3c(OC([H])([H])[H])c([H])c(C([H])([H])[H])c([H])c3c2[H])C([H])([H])C1([H])[H]
     RDKit          3D

 61 65  0  0  0  0  0  0  0  0999 V2000
    6.0144   -0.4731   -2.8576 C   0  0  0  0  0  0  0  0  0  0  0  0
    4.7789   -0.5298   -2.2166 O   0  0  0  0  0  0  0  0  0  0  0  0
    4.5221   -0.0031   -0.9657 C   0  0  0  0  0  0  0  0  0  0  0  0
    5.5031    0.6359   -0.2423 C   0  0  0  0  0  0  0  0  0  0  0  0
    5.1558    1.1285    0.9931 C   0  0  0  0  0  0  0  0  0  0  0  0
    6.1930    1.8434    1.8409 C   0  0  0  0  0  0  0  0  0  0  0  0
    3.8897    0.9842    1.4712 C   0  0  0  0  0  0  0  0  0  0  0  0
    2.8627    0.3390    0.7630 C   0  0  0  0  0  0  0  0  0  0  0  0
    1.5869    0.1412    1.1367 C   0  0  0  0  0  0  0  0  0  0  0  0
    0.7564   -0.5111    0.2947 C   0  0  0  0  0  0  0  0  0  0  0  0
    1.7925   -0.8516   -1.0485 S   0  0  0  0  0  0  0  0  0  0  0  0
    3.2247   -0.1462   -0.4657 C   0  0  0  0  0  0  0  0  0  0  0  0
   -0.6940   -0.8791    0.4021 C   0  0  0  0  0  0  0  0  0  0  0  0
   -1.5459    0.1062    0.5810 C   0  0  0  0  0  0  0  0  0  0  0  0
   -3.0373   -0.1969    0.7111 C   0  0  0  0  0  0  0  0  0  0  0  0
   -3.7422    0.2011   -0.4344 N   0  0  0  0  0  0  0  0  0  0  0  0
   -3.0598    0.3092   -1.6871 C   0  0  0  0  0  0  0  0  0  0  0  0
   -2.4176   -0.9924   -2.1351 C   0  0  0  0  0  0  0  0  0  0  0  0
   -2.9448   -2.0786   -1.2361 N   0  0  0  0  0  0  0  0  0  0  0  0
   -4.3783   -1.9758   -1.3003 C   0  0  0  0  0  0  0  0  0  0  0  0
   -4.8698   -0.6815   -0.6503 C   0  0  0  0  0  0  0  0  0  0  0  0
   -2.0271   -2.8890   -0.5290 C   0  0  0  0  0  0  0  0  0  0  0  0
   -2.0234   -4.2695   -0.5227 N   0  0  0  0  0  0  0  0  0  0  0  0
   -1.2330   -5.0772    0.1198 C   0  0  0  0  0  0  0  0  0  0  0  0
   -0.2850   -4.5418    0.8878 N   0  0  0  0  0  0  0  0  0  0  0  0
   -0.1964   -3.1776    0.9543 C   0  0  0  0  0  0  0  0  0  0  0  0
    0.8549   -2.7525    1.8543 N   0  0  0  0  0  0  0  0  0  0  0  0
   -1.0204   -2.3130    0.2797 C   0  0  0  0  0  0  0  0  0  0  0  0
   -1.2967    1.5301    0.5344 C   0  0  0  0  0  0  0  0  0  0  0  0
   -0.1774    2.0725    0.2374 O   0  0  0  0  0  0  0  0  0  0  0  0
   -2.3422    2.4648    0.8371 N   0  0  0  0  0  0  0  0  0  0  0  0
   -2.0708    3.9017    0.7889 C   0  0  0  0  0  0  0  0  0  0  0  0
   -3.3279    4.6500    1.1461 C   0  0  0  0  0  0  0  0  0  0  0  0
   -3.7629    4.3101    2.4348 F   0  0  0  0  0  0  0  0  0  0  0  0
   -3.1162    6.0133    1.1762 F   0  0  0  0  0  0  0  0  0  0  0  0
   -4.3664    4.3688    0.2922 F   0  0  0  0  0  0  0  0  0  0  0  0
    6.1556   -1.2658   -3.6190 H   0  0  0  0  0  0  0  0  0  0  0  0
    6.8794   -0.5508   -2.1694 H   0  0  0  0  0  0  0  0  0  0  0  0
    6.1564    0.5094   -3.3958 H   0  0  0  0  0  0  0  0  0  0  0  0
    6.5084    0.7678   -0.5858 H   0  0  0  0  0  0  0  0  0  0  0  0
    6.9096    2.2921    1.1431 H   0  0  0  0  0  0  0  0  0  0  0  0
    6.6881    1.1231    2.5254 H   0  0  0  0  0  0  0  0  0  0  0  0
    5.6240    2.5905    2.4403 H   0  0  0  0  0  0  0  0  0  0  0  0
    3.6962    1.4083    2.4695 H   0  0  0  0  0  0  0  0  0  0  0  0
    1.1790    0.4800    2.1259 H   0  0  0  0  0  0  0  0  0  0  0  0
   -3.4394    0.3841    1.6042 H   0  0  0  0  0  0  0  0  0  0  0  0
   -3.2303   -1.2312    1.0171 H   0  0  0  0  0  0  0  0  0  0  0  0
   -3.8949    0.4800   -2.4398 H   0  0  0  0  0  0  0  0  0  0  0  0
   -2.4010    1.1661   -1.8318 H   0  0  0  0  0  0  0  0  0  0  0  0
   -1.3618   -0.8780   -2.1306 H   0  0  0  0  0  0  0  0  0  0  0  0
   -2.7524   -1.3149   -3.1409 H   0  0  0  0  0  0  0  0  0  0  0  0
   -4.6702   -1.8662   -2.3986 H   0  0  0  0  0  0  0  0  0  0  0  0
   -5.0456   -2.7227   -0.9329 H   0  0  0  0  0  0  0  0  0  0  0  0
   -5.2903   -0.9206    0.3441 H   0  0  0  0  0  0  0  0  0  0  0  0
   -5.6661   -0.2370   -1.2648 H   0  0  0  0  0  0  0  0  0  0  0  0
   -1.3425   -6.1655    0.0334 H   0  0  0  0  0  0  0  0  0  0  0  0
    0.6239   -2.3018    2.7619 H   0  0  0  0  0  0  0  0  0  0  0  0
    1.8554   -2.8965    1.6206 H   0  0  0  0  0  0  0  0  0  0  0  0
   -3.2815    2.1526    1.0876 H   0  0  0  0  0  0  0  0  0  0  0  0
   -1.3015    4.1589    1.5302 H   0  0  0  0  0  0  0  0  0  0  0  0
   -1.7984    4.1780   -0.2393 H   0  0  0  0  0  0  0  0  0  0  0  0
  1  2  1  0
  2  3  1  0
  3  4  1  0
  4  5  2  0
  5  6  1  0
  5  7  1  0
  7  8  2  0
  8  9  1  0
  9 10  2  0
 10 11  1  0
 11 12  1  0
 10 13  1  0
 13 14  2  0
 14 15  1  0
 15 16  1  0
 16 17  1  0
 17 18  1  0
 18 19  1  0
 19 20  1  0
 20 21  1  0
 19 22  1  0
 22 23  2  0
 23 24  1  0
 24 25  2  0
 25 26  1  0
 26 27  1  0
 26 28  2  0
 14 29  1  0
 29 30  2  0
 29 31  1  0
 31 32  1  0
 32 33  1  0
 33 34  1  0
 33 35  1  0
 33 36  1  0
 12  3  2  0
 28 13  1  0
 12  8  1  0
 21 16  1  0
 28 22  1  0
  1 37  1  0
  1 38  1  0
  1 39  1  0
  4 40  1  0
  6 41  1  0
  6 42  1  0
  6 43  1  0
  7 44  1  0
  9 45  1  0
 15 46  1  0
 15 47  1  0
 17 48  1  0
 17 49  1  0
 18 50  1  0
 18 51  1  0
 20 52  1  0
 20 53  1  0
 21 54  1  0
 21 55  1  0
 24 56  1  0
 27 57  1  0
 27 58  1  0
 31 59  1  0
 32 60  1  0
 32 61  1  0
M  END
$$$$
[H]c1nc(N([H])[H])c2c(C([H])([H])N3C([H])([H])C([H])([H])OC([H])([H])C3([H])[H])c(-c3sc4c(OC([H])([H])[H])c([H])c(C([H])([H])[H])c([H])c4c3[H])c(=O)n([H])c2n1
     RDKit          3D

 54 58  0  0  0  0  0  0  0  0999 V2000
    4.7781   -2.1513    2.9704 C   0  0  0  0  0  0  0  0  0  0  0  0
    3.7252   -1.4327    2.3711 O   0  0  0  0  0  0  0  0  0  0  0  0
    3.9139   -1.0100    1.0647 C   0  0  0  0  0  0  0  0  0  0  0  0
    5.0343   -1.2395    0.3259 C   0  0  0  0  0  0  0  0  0  0  0  0
    5.0290   -0.7337   -0.9610 C   0  0  0  0  0  0  0  0  0  0  0  0
    6.2828   -0.9789   -1.7594 C   0  0  0  0  0  0  0  0  0  0  0  0
    3.9967   -0.0455   -1.5026 C   0  0  0  0  0  0  0  0  0  0  0  0
    2.8245    0.2031   -0.7532 C   0  0  0  0  0  0  0  0  0  0  0  0
    1.7400    0.8773   -1.1560 C   0  0  0  0  0  0  0  0  0  0  0  0
    0.7033    1.0281   -0.2653 C   0  0  0  0  0  0  0  0  0  0  0  0
    1.3153    0.1969    1.1079 S   0  0  0  0  0  0  0  0  0  0  0  0
    2.8291   -0.2949    0.5183 C   0  0  0  0  0  0  0  0  0  0  0  0
   -0.5861    1.7192   -0.4751 C   0  0  0  0  0  0  0  0  0  0  0  0
   -1.6896    1.3651    0.2866 C   0  0  0  0  0  0  0  0  0  0  0  0
   -1.7504    0.0853    0.9856 C   0  0  0  0  0  0  0  0  0  0  0  0
   -1.4120   -0.9133   -0.1280 N   0  0  0  0  0  0  0  0  0  0  0  0
   -2.3149   -0.7783   -1.2100 C   0  0  0  0  0  0  0  0  0  0  0  0
   -3.5961   -1.5330   -1.1475 C   0  0  0  0  0  0  0  0  0  0  0  0
   -3.4950   -2.8259   -0.6962 O   0  0  0  0  0  0  0  0  0  0  0  0
   -2.8959   -2.7890    0.5610 C   0  0  0  0  0  0  0  0  0  0  0  0
   -1.5202   -2.2582    0.4130 C   0  0  0  0  0  0  0  0  0  0  0  0
   -2.8242    2.1926    0.2292 C   0  0  0  0  0  0  0  0  0  0  0  0
   -3.9299    1.9801    0.9931 C   0  0  0  0  0  0  0  0  0  0  0  0
   -4.0299    0.9766    1.9761 N   0  0  0  0  0  0  0  0  0  0  0  0
   -4.9707    2.8621    0.9078 N   0  0  0  0  0  0  0  0  0  0  0  0
   -4.9136    3.9165    0.0995 C   0  0  0  0  0  0  0  0  0  0  0  0
   -3.8407    4.1612   -0.6607 N   0  0  0  0  0  0  0  0  0  0  0  0
   -2.7747    3.3179   -0.6199 C   0  0  0  0  0  0  0  0  0  0  0  0
   -1.6928    3.6128   -1.3422 N   0  0  0  0  0  0  0  0  0  0  0  0
   -0.6076    2.8441   -1.2840 C   0  0  0  0  0  0  0  0  0  0  0  0
    0.4019    3.1720   -1.9877 O   0  0  0  0  0  0  0  0  0  0  0  0
    5.6493   -1.5175    3.1666 H   0  0  0  0  0  0  0  0  0  0  0  0
    4.4566   -2.6178    3.9454 H   0  0  0  0  0  0  0  0  0  0  0  0
    5.1069   -2.9974    2.3149 H   0  0  0  0  0  0  0  0  0  0  0  0
    5.8482   -1.7842    0.7575 H   0  0  0  0  0  0  0  0  0  0  0  0
    6.2317   -0.3852   -2.6865 H   0  0  0  0  0  0  0  0  0  0  0  0
    6.3352   -2.0397   -2.0404 H   0  0  0  0  0  0  0  0  0  0  0  0
    7.1728   -0.7016   -1.1319 H   0  0  0  0  0  0  0  0  0  0  0  0
    4.1182    0.2973   -2.5209 H   0  0  0  0  0  0  0  0  0  0  0  0
    1.6127    1.3077   -2.1775 H   0  0  0  0  0  0  0  0  0  0  0  0
   -1.0562   -0.1747    1.7393 H   0  0  0  0  0  0  0  0  0  0  0  0
   -2.7640   -0.3799    1.1081 H   0  0  0  0  0  0  0  0  0  0  0  0
   -2.5690    0.2720   -1.4616 H   0  0  0  0  0  0  0  0  0  0  0  0
   -1.7591   -1.1958   -2.1226 H   0  0  0  0  0  0  0  0  0  0  0  0
   -4.4192   -1.0452   -0.5984 H   0  0  0  0  0  0  0  0  0  0  0  0
   -3.9673   -1.6156   -2.2127 H   0  0  0  0  0  0  0  0  0  0  0  0
   -2.8000   -3.8353    0.9449 H   0  0  0  0  0  0  0  0  0  0  0  0
   -3.4479   -2.2308    1.3098 H   0  0  0  0  0  0  0  0  0  0  0  0
   -0.9264   -2.3145    1.3647 H   0  0  0  0  0  0  0  0  0  0  0  0
   -0.9759   -2.9062   -0.2983 H   0  0  0  0  0  0  0  0  0  0  0  0
   -4.7443    0.2384    1.8838 H   0  0  0  0  0  0  0  0  0  0  0  0
   -3.4066    1.0045    2.8027 H   0  0  0  0  0  0  0  0  0  0  0  0
   -5.7310    4.6423    0.0104 H   0  0  0  0  0  0  0  0  0  0  0  0
   -1.6946    4.4524   -1.9596 H   0  0  0  0  0  0  0  0  0  0  0  0
  1  2  1  0
  2  3  1  0
  3  4  2  0
  4  5  1  0
  5  6  1  0
  5  7  2  0
  7  8  1  0
  8  9  1  0
  9 10  2  0
 10 11  1  0
 11 12  1  0
 10 13  1  0
 13 14  2  0
 14 15  1  0
 15 16  1  0
 16 17  1  0
 17 18  1  0
 18 19  1  0
 19 20  1  0
 20 21  1  0
 14 22  1  0
 22 23  2  0
 23 24  1  0
 23 25  1  0
 25 26  2  0
 26 27  1  0
 27 28  2  0
 28 29  1  0
 29 30  1  0
 30 31  2  0
 12  3  1  0
 30 13  1  0
 12  8  2  0
 21 16  1  0
 28 22  1  0
  1 32  1  0
  1 33  1  0
  1 34  1  0
  4 35  1  0
  6 36  1  0
  6 37  1  0
  6 38  1  0
  7 39  1  0
  9 40  1  0
 15 41  1  0
 15 42  1  0
 17 43  1  0
 17 44  1  0
 18 45  1  0
 18 46  1  0
 20 47  1  0
 20 48  1  0
 21 49  1  0
 21 50  1  0
 24 51  1  0
 24 52  1  0
 26 53  1  0
 29 54  1  0
M  END
$$$$
[H]C([H])=C([H])C(=O)N1C([H])([H])C([H])([H])N(C([H])([H])C2=C(c3sc4c(OC([H])([H])[H])c([H])c(C([H])([H])[H])c([H])c4c3[H])c3nc([H])nc(N([H])[H])c32)C([H])([H])C1([H])[H]
     RDKit          3D

 57 61  0  0  0  0  0  0  0  0999 V2000
    6.1939    1.0623    3.3277 C   0  0  0  0  0  0  0  0  0  0  0  0
    5.1766    0.4763    2.5615 O   0  0  0  0  0  0  0  0  0  0  0  0
    4.8088    1.0314    1.3522 C   0  0  0  0  0  0  0  0  0  0  0  0
    5.3669    2.1537    0.7849 C   0  0  0  0  0  0  0  0  0  0  0  0
    4.8637    2.5509   -0.4273 C   0  0  0  0  0  0  0  0  0  0  0  0
    5.4510    3.7816   -1.0974 C   0  0  0  0  0  0  0  0  0  0  0  0
    3.8642    1.8889   -1.0576 C   0  0  0  0  0  0  0  0  0  0  0  0
    3.2705    0.7376   -0.5049 C   0  0  0  0  0  0  0  0  0  0  0  0
    2.2649   -0.0047   -1.0302 C   0  0  0  0  0  0  0  0  0  0  0  0
    1.8429   -1.0800   -0.3077 C   0  0  0  0  0  0  0  0  0  0  0  0
    2.8520   -1.0374    1.0820 S   0  0  0  0  0  0  0  0  0  0  0  0
    3.7720    0.3428    0.6993 C   0  0  0  0  0  0  0  0  0  0  0  0
    0.7534   -2.0538   -0.5970 C   0  0  0  0  0  0  0  0  0  0  0  0
   -0.4746   -2.0388   -1.0060 C   0  0  0  0  0  0  0  0  0  0  0  0
   -1.4183   -0.9340   -1.4045 C   0  0  0  0  0  0  0  0  0  0  0  0
   -2.5244   -0.8864   -0.5200 N   0  0  0  0  0  0  0  0  0  0  0  0
   -2.2662   -0.4391    0.8042 C   0  0  0  0  0  0  0  0  0  0  0  0
   -3.5549   -0.0581    1.5029 C   0  0  0  0  0  0  0  0  0  0  0  0
   -4.1927    1.0328    0.7028 N   0  0  0  0  0  0  0  0  0  0  0  0
   -4.3970    0.7345   -0.6588 C   0  0  0  0  0  0  0  0  0  0  0  0
   -3.8126   -0.6334   -1.0173 C   0  0  0  0  0  0  0  0  0  0  0  0
   -4.5178    2.2369    1.3276 C   0  0  0  0  0  0  0  0  0  0  0  0
   -4.1829    2.3392    2.6118 O   0  0  0  0  0  0  0  0  0  0  0  0
   -5.1645    3.3851    0.7944 C   0  0  0  0  0  0  0  0  0  0  0  0
   -5.6119    3.5655   -0.4126 C   0  0  0  0  0  0  0  0  0  0  0  0
   -0.5719   -3.4786   -0.9238 C   0  0  0  0  0  0  0  0  0  0  0  0
   -1.2843   -4.6853   -1.0686 C   0  0  0  0  0  0  0  0  0  0  0  0
   -2.6255   -4.5915   -1.5136 N   0  0  0  0  0  0  0  0  0  0  0  0
   -0.6368   -5.7981   -0.7690 N   0  0  0  0  0  0  0  0  0  0  0  0
    0.6369   -5.8378   -0.3441 C   0  0  0  0  0  0  0  0  0  0  0  0
    1.2797   -4.6730   -0.2197 N   0  0  0  0  0  0  0  0  0  0  0  0
    0.7252   -3.4896   -0.4935 C   0  0  0  0  0  0  0  0  0  0  0  0
    7.2199    0.8085    2.9982 H   0  0  0  0  0  0  0  0  0  0  0  0
    6.0607    2.1825    3.2858 H   0  0  0  0  0  0  0  0  0  0  0  0
    6.0225    0.7147    4.3910 H   0  0  0  0  0  0  0  0  0  0  0  0
    6.1513    2.6565    1.3070 H   0  0  0  0  0  0  0  0  0  0  0  0
    6.1880    3.5058   -1.8506 H   0  0  0  0  0  0  0  0  0  0  0  0
    5.9836    4.3670   -0.3112 H   0  0  0  0  0  0  0  0  0  0  0  0
    4.6164    4.3329   -1.5664 H   0  0  0  0  0  0  0  0  0  0  0  0
    3.5320    2.2877   -2.0248 H   0  0  0  0  0  0  0  0  0  0  0  0
    1.7731    0.2106   -2.0188 H   0  0  0  0  0  0  0  0  0  0  0  0
   -1.7606   -1.1169   -2.4539 H   0  0  0  0  0  0  0  0  0  0  0  0
   -0.8564    0.0098   -1.4131 H   0  0  0  0  0  0  0  0  0  0  0  0
   -1.6192    0.4650    0.8603 H   0  0  0  0  0  0  0  0  0  0  0  0
   -1.8085   -1.2605    1.3784 H   0  0  0  0  0  0  0  0  0  0  0  0
   -3.3486    0.3559    2.4857 H   0  0  0  0  0  0  0  0  0  0  0  0
   -4.2553   -0.9137    1.5935 H   0  0  0  0  0  0  0  0  0  0  0  0
   -5.4878    0.6302   -0.9331 H   0  0  0  0  0  0  0  0  0  0  0  0
   -3.8662    1.4432   -1.3508 H   0  0  0  0  0  0  0  0  0  0  0  0
   -3.7913   -0.6458   -2.1411 H   0  0  0  0  0  0  0  0  0  0  0  0
   -4.4925   -1.4481   -0.6488 H   0  0  0  0  0  0  0  0  0  0  0  0
   -5.3195    4.2767    1.5059 H   0  0  0  0  0  0  0  0  0  0  0  0
   -6.0974    4.5667   -0.6218 H   0  0  0  0  0  0  0  0  0  0  0  0
   -5.5964    2.9080   -1.2346 H   0  0  0  0  0  0  0  0  0  0  0  0
   -3.3738   -4.9127   -0.8364 H   0  0  0  0  0  0  0  0  0  0  0  0
   -2.8565   -4.2243   -2.4626 H   0  0  0  0  0  0  0  0  0  0  0  0
    1.0965   -6.7994   -0.1155 H   0  0  0  0  0  0  0  0  0  0  0  0
  1  2  1  0
  2  3  1  0
  3  4  2  0
  4  5  1  0
  5  6  1  0
  5  7  2  0
  7  8  1  0
  8  9  1  0
  9 10  2  0
 10 11  1  0
 11 12  1  0
 10 13  1  0
 13 14  2  0
 14 15  1  0
 15 16  1  0
 16 17  1  0
 17 18  1  0
 18 19  1  0
 19 20  1  0
 20 21  1  0
 19 22  1  0
 22 23  2  0
 22 24  1  0
 24 25  2  3
 14 26  1  0
 26 27  2  0
 27 28  1  0
 27 29  1  0
 29 30  2  0
 30 31  1  0
 31 32  2  0
 12  3  1  0
 32 13  1  0
 12  8  2  0
 21 16  1  0
 32 26  1  0
  1 33  1  0
  1 34  1  0
  1 35  1  0
  4 36  1  0
  6 37  1  0
  6 38  1  0
  6 39  1  0
  7 40  1  0
  9 41  1  0
 15 42  1  0
 15 43  1  0
 17 44  1  0
 17 45  1  0
 18 46  1  0
 18 47  1  0
 20 48  1  0
 20 49  1  0
 21 50  1  0
 21 51  1  0
 24 52  1  0
 25 53  1  0
 25 54  1  0
 28 55  1  0
 28 56  1  0
 30 57  1  0
M  END
$$$$
[H]C([H])=C([H])C(=O)N1C([H])([H])C([H])([H])C([H])(C(=O)N2C([H])([H])C([H])([H])N(C([H])([H])C3=C(c4sc5c(OC([H])([H])[H])c([H])c(C([H])([H])[H])c([H])c5c4[H])c4c([H])c([H])c([H])c([H])c43)C([H])([H])C2([H])[H])C([H])([H])C1([H])[H]
     RDKit          3D

 74 79  0  0  0  0  0  0  0  0999 V2000
   -7.5163   -3.2766   -0.8115 C   0  0  0  0  0  0  0  0  0  0  0  0
   -6.5118   -2.4026   -0.4029 O   0  0  0  0  0  0  0  0  0  0  0  0
   -6.7767   -1.2228    0.2955 C   0  0  0  0  0  0  0  0  0  0  0  0
   -8.0715   -0.8732    0.6049 C   0  0  0  0  0  0  0  0  0  0  0  0
   -8.2625    0.2986    1.2882 C   0  0  0  0  0  0  0  0  0  0  0  0
   -9.6704    0.7242    1.6527 C   0  0  0  0  0  0  0  0  0  0  0  0
   -7.2044    1.0814    1.6437 C   0  0  0  0  0  0  0  0  0  0  0  0
   -5.8724    0.7396    1.3359 C   0  0  0  0  0  0  0  0  0  0  0  0
   -4.7708    1.4421    1.6461 C   0  0  0  0  0  0  0  0  0  0  0  0
   -3.5564    0.9274    1.2554 C   0  0  0  0  0  0  0  0  0  0  0  0
   -4.0013   -0.5180    0.4692 S   0  0  0  0  0  0  0  0  0  0  0  0
   -5.6953   -0.4342    0.6532 C   0  0  0  0  0  0  0  0  0  0  0  0
   -2.2321    1.5231    1.4707 C   0  0  0  0  0  0  0  0  0  0  0  0
   -1.0708    1.0745    1.8596 C   0  0  0  0  0  0  0  0  0  0  0  0
   -0.5140   -0.2276    2.2702 C   0  0  0  0  0  0  0  0  0  0  0  0
    0.5869   -0.7095    1.5164 N   0  0  0  0  0  0  0  0  0  0  0  0
    0.2119   -1.0719    0.1918 C   0  0  0  0  0  0  0  0  0  0  0  0
    1.3809   -1.6290   -0.6317 C   0  0  0  0  0  0  0  0  0  0  0  0
    2.4761   -1.9056    0.2584 N   0  0  0  0  0  0  0  0  0  0  0  0
    2.0944   -2.6680    1.4653 C   0  0  0  0  0  0  0  0  0  0  0  0
    1.2353   -1.7373    2.2734 C   0  0  0  0  0  0  0  0  0  0  0  0
    3.8162   -1.5588    0.1020 C   0  0  0  0  0  0  0  0  0  0  0  0
    4.5999   -1.9131    1.0879 O   0  0  0  0  0  0  0  0  0  0  0  0
    4.4948   -0.8674   -0.9805 C   0  0  0  0  0  0  0  0  0  0  0  0
    4.4543   -1.5739   -2.3211 C   0  0  0  0  0  0  0  0  0  0  0  0
    5.5730   -0.9487   -3.1654 C   0  0  0  0  0  0  0  0  0  0  0  0
    6.1906    0.1570   -2.4604 N   0  0  0  0  0  0  0  0  0  0  0  0
    5.3164    1.2056   -1.9455 C   0  0  0  0  0  0  0  0  0  0  0  0
    4.1728    0.5883   -1.1451 C   0  0  0  0  0  0  0  0  0  0  0  0
    7.5748    0.2379   -2.2582 C   0  0  0  0  0  0  0  0  0  0  0  0
    8.0177    1.2585   -1.6302 O   0  0  0  0  0  0  0  0  0  0  0  0
    8.5661   -0.7165   -2.6880 C   0  0  0  0  0  0  0  0  0  0  0  0
    9.8369   -0.5283   -2.4358 C   0  0  0  0  0  0  0  0  0  0  0  0
   -0.4165    2.4007    1.7562 C   0  0  0  0  0  0  0  0  0  0  0  0
    0.6504    3.2615    1.8541 C   0  0  0  0  0  0  0  0  0  0  0  0
    0.5143    4.5900    1.5487 C   0  0  0  0  0  0  0  0  0  0  0  0
   -0.7201    5.0361    1.1416 C   0  0  0  0  0  0  0  0  0  0  0  0
   -1.8062    4.2045    1.0330 C   0  0  0  0  0  0  0  0  0  0  0  0
   -1.6597    2.8469    1.3470 C   0  0  0  0  0  0  0  0  0  0  0  0
   -8.2496   -2.6466   -1.3970 H   0  0  0  0  0  0  0  0  0  0  0  0
   -8.0679   -3.7795   -0.0206 H   0  0  0  0  0  0  0  0  0  0  0  0
   -7.0617   -3.9718   -1.5747 H   0  0  0  0  0  0  0  0  0  0  0  0
   -8.9099   -1.4733    0.3343 H   0  0  0  0  0  0  0  0  0  0  0  0
   -9.8797    0.5853    2.7127 H   0  0  0  0  0  0  0  0  0  0  0  0
  -10.3479    0.1627    0.9788 H   0  0  0  0  0  0  0  0  0  0  0  0
   -9.7937    1.8080    1.3625 H   0  0  0  0  0  0  0  0  0  0  0  0
   -7.4410    2.0018    2.1868 H   0  0  0  0  0  0  0  0  0  0  0  0
   -4.7660    2.4148    2.1974 H   0  0  0  0  0  0  0  0  0  0  0  0
   -1.2915   -1.0220    2.3031 H   0  0  0  0  0  0  0  0  0  0  0  0
   -0.1826   -0.1047    3.3440 H   0  0  0  0  0  0  0  0  0  0  0  0
   -0.6043   -1.8099    0.1402 H   0  0  0  0  0  0  0  0  0  0  0  0
   -0.1100   -0.1478   -0.3478 H   0  0  0  0  0  0  0  0  0  0  0  0
    1.7031   -0.9229   -1.3926 H   0  0  0  0  0  0  0  0  0  0  0  0
    0.9879   -2.5860   -1.0939 H   0  0  0  0  0  0  0  0  0  0  0  0
    1.5332   -3.5784    1.2165 H   0  0  0  0  0  0  0  0  0  0  0  0
    3.0002   -2.8940    2.0927 H   0  0  0  0  0  0  0  0  0  0  0  0
    0.4903   -2.3936    2.8133 H   0  0  0  0  0  0  0  0  0  0  0  0
    1.8435   -1.2349    3.0598 H   0  0  0  0  0  0  0  0  0  0  0  0
    5.6158   -0.8709   -0.7284 H   0  0  0  0  0  0  0  0  0  0  0  0
    3.5236   -1.3234   -2.8210 H   0  0  0  0  0  0  0  0  0  0  0  0
    4.6493   -2.6289   -2.1224 H   0  0  0  0  0  0  0  0  0  0  0  0
    6.2895   -1.7289   -3.4370 H   0  0  0  0  0  0  0  0  0  0  0  0
    5.1525   -0.5103   -4.1176 H   0  0  0  0  0  0  0  0  0  0  0  0
    4.9167    1.8013   -2.7881 H   0  0  0  0  0  0  0  0  0  0  0  0
    5.8851    1.8652   -1.2669 H   0  0  0  0  0  0  0  0  0  0  0  0
    4.0865    1.0722   -0.1482 H   0  0  0  0  0  0  0  0  0  0  0  0
    3.2410    0.7898   -1.6895 H   0  0  0  0  0  0  0  0  0  0  0  0
    8.2705   -1.5977   -3.2244 H   0  0  0  0  0  0  0  0  0  0  0  0
   10.6258   -1.2178   -2.7386 H   0  0  0  0  0  0  0  0  0  0  0  0
   10.1256    0.3649   -1.8937 H   0  0  0  0  0  0  0  0  0  0  0  0
    1.5975    2.8872    2.1730 H   0  0  0  0  0  0  0  0  0  0  0  0
    1.3647    5.2932    1.6249 H   0  0  0  0  0  0  0  0  0  0  0  0
   -0.8420    6.0751    0.8995 H   0  0  0  0  0  0  0  0  0  0  0  0
   -2.7888    4.5072    0.7196 H   0  0  0  0  0  0  0  0  0  0  0  0
  1  2  1  0
  2  3  1  0
  3  4  2  0
  4  5  1  0
  5  6  1  0
  5  7  2  0
  7  8  1  0
  8  9  1  0
  9 10  2  0
 10 11  1  0
 11 12  1  0
 10 13  1  0
 13 14  2  0
 14 15  1  0
 15 16  1  0
 16 17  1  0
 17 18  1  0
 18 19  1  0
 19 20  1  0
 20 21  1  0
 19 22  1  0
 22 23  2  0
 22 24  1  0
 24 25  1  0
 25 26  1  0
 26 27  1  0
 27 28  1  0
 28 29  1  0
 27 30  1  0
 30 31  2  0
 30 32  1  0
 32 33  2  3
 14 34  1  0
 34 35  2  0
 35 36  1  0
 36 37  2  0
 37 38  1  0
 38 39  2  0
 12  3  1  0
 39 13  1  0
 12  8  2  0
 21 16  1  0
 29 24  1  0
 39 34  1  0
  1 40  1  0
  1 41  1  0
  1 42  1  0
  4 43  1  0
  6 44  1  0
  6 45  1  0
  6 46  1  0
  7 47  1  0
  9 48  1  0
 15 49  1  0
 15 50  1  0
 17 51  1  0
 17 52  1  0
 18 53  1  0
 18 54  1  0
 20 55  1  0
 20 56  1  0
 21 57  1  0
 21 58  1  0
 24 59  1  0
 25 60  1  0
 25 61  1  0
 26 62  1  0
 26 63  1  0
 28 64  1  0
 28 65  1  0
 29 66  1  0
 29 67  1  0
 32 68  1  0
 33 69  1  0
 33 70  1  0
 35 71  1  0
 36 72  1  0
 37 73  1  0
 38 74  1  0
M  END
$$$$
[H]c1nc(N([H])[H])c2c(n1)N1C([H])([H])C([H])([H])N(C([H])([H])C(C(=O)N([H])C([H])(C([H])([H])[H])C([H])([H])[H])=C2c2sc3c(OC([H])([H])[H])c([H])c(C([H])([H])[H])c([H])c3c2[H])C([H])([H])C1([H])[H]
     RDKit          3D

 64 68  0  0  0  0  0  0  0  0999 V2000
    5.8903    3.1592   -0.9572 C   0  0  0  0  0  0  0  0  0  0  0  0
    4.6882    2.4132   -0.9997 O   0  0  0  0  0  0  0  0  0  0  0  0
    4.3898    1.5944    0.0816 C   0  0  0  0  0  0  0  0  0  0  0  0
    5.2270    1.4998    1.1683 C   0  0  0  0  0  0  0  0  0  0  0  0
    4.8608    0.6682    2.1971 C   0  0  0  0  0  0  0  0  0  0  0  0
    5.7568    0.5332    3.4184 C   0  0  0  0  0  0  0  0  0  0  0  0
    3.6962   -0.0420    2.1360 C   0  0  0  0  0  0  0  0  0  0  0  0
    2.8093    0.0199    1.0509 C   0  0  0  0  0  0  0  0  0  0  0  0
    1.6463   -0.6286    0.8896 C   0  0  0  0  0  0  0  0  0  0  0  0
    0.9459   -0.4027   -0.2677 C   0  0  0  0  0  0  0  0  0  0  0  0
    1.9403    0.7113   -1.0930 S   0  0  0  0  0  0  0  0  0  0  0  0
    3.1986    0.8559    0.0399 C   0  0  0  0  0  0  0  0  0  0  0  0
   -0.3525   -1.0776   -0.6505 C   0  0  0  0  0  0  0  0  0  0  0  0
   -1.4166   -0.3654   -0.9027 C   0  0  0  0  0  0  0  0  0  0  0  0
   -2.7604   -0.8660   -1.2950 C   0  0  0  0  0  0  0  0  0  0  0  0
   -3.7216   -0.7265   -0.2553 N   0  0  0  0  0  0  0  0  0  0  0  0
   -3.2417   -0.6686    1.0972 C   0  0  0  0  0  0  0  0  0  0  0  0
   -2.5093   -1.9367    1.4807 C   0  0  0  0  0  0  0  0  0  0  0  0
   -2.5007   -2.8800    0.3274 N   0  0  0  0  0  0  0  0  0  0  0  0
   -3.8704   -3.0741   -0.1773 C   0  0  0  0  0  0  0  0  0  0  0  0
   -4.6952   -1.8042   -0.1766 C   0  0  0  0  0  0  0  0  0  0  0  0
   -1.2858   -3.4200   -0.1582 C   0  0  0  0  0  0  0  0  0  0  0  0
   -0.9390   -4.7593   -0.2057 N   0  0  0  0  0  0  0  0  0  0  0  0
    0.1391   -5.3013   -0.6758 C   0  0  0  0  0  0  0  0  0  0  0  0
    1.0710   -4.5060   -1.1960 N   0  0  0  0  0  0  0  0  0  0  0  0
    0.8384   -3.1580   -1.2022 C   0  0  0  0  0  0  0  0  0  0  0  0
    1.8619   -2.3688   -1.8479 N   0  0  0  0  0  0  0  0  0  0  0  0
   -0.2997   -2.5631   -0.7017 C   0  0  0  0  0  0  0  0  0  0  0  0
   -1.3915    1.0909   -0.6887 C   0  0  0  0  0  0  0  0  0  0  0  0
   -0.4207    1.7303   -0.2212 O   0  0  0  0  0  0  0  0  0  0  0  0
   -2.5118    1.9376   -1.0093 N   0  0  0  0  0  0  0  0  0  0  0  0
   -2.4854    3.3649   -0.8058 C   0  0  0  0  0  0  0  0  0  0  0  0
   -3.5715    3.8007    0.1356 C   0  0  0  0  0  0  0  0  0  0  0  0
   -2.6181    4.0489   -2.1652 C   0  0  0  0  0  0  0  0  0  0  0  0
    6.0182    3.7883   -1.8632 H   0  0  0  0  0  0  0  0  0  0  0  0
    5.9178    3.7738   -0.0237 H   0  0  0  0  0  0  0  0  0  0  0  0
    6.7884    2.4834   -0.9297 H   0  0  0  0  0  0  0  0  0  0  0  0
    6.1425    2.0455    1.2382 H   0  0  0  0  0  0  0  0  0  0  0  0
    5.3522    1.1631    4.2351 H   0  0  0  0  0  0  0  0  0  0  0  0
    5.8848   -0.5248    3.6886 H   0  0  0  0  0  0  0  0  0  0  0  0
    6.7440    0.9207    3.1109 H   0  0  0  0  0  0  0  0  0  0  0  0
    3.4767   -0.6810    2.9950 H   0  0  0  0  0  0  0  0  0  0  0  0
    1.2199   -1.3376    1.6415 H   0  0  0  0  0  0  0  0  0  0  0  0
   -2.7886   -1.8520   -1.7623 H   0  0  0  0  0  0  0  0  0  0  0  0
   -3.1002   -0.1884   -2.1484 H   0  0  0  0  0  0  0  0  0  0  0  0
   -4.1803   -0.6647    1.7409 H   0  0  0  0  0  0  0  0  0  0  0  0
   -2.7284    0.2425    1.4093 H   0  0  0  0  0  0  0  0  0  0  0  0
   -3.0049   -2.4826    2.3033 H   0  0  0  0  0  0  0  0  0  0  0  0
   -1.5261   -1.6228    1.8047 H   0  0  0  0  0  0  0  0  0  0  0  0
   -3.9648   -3.4288   -1.2066 H   0  0  0  0  0  0  0  0  0  0  0  0
   -4.4578   -3.7839    0.4698 H   0  0  0  0  0  0  0  0  0  0  0  0
   -5.2553   -1.7384    0.7592 H   0  0  0  0  0  0  0  0  0  0  0  0
   -5.4041   -1.7871   -0.9979 H   0  0  0  0  0  0  0  0  0  0  0  0
    0.2749   -6.3978   -0.6424 H   0  0  0  0  0  0  0  0  0  0  0  0
    1.6566   -1.8796   -2.7489 H   0  0  0  0  0  0  0  0  0  0  0  0
    2.8033   -2.3068   -1.4213 H   0  0  0  0  0  0  0  0  0  0  0  0
   -3.3693    1.5355   -1.3926 H   0  0  0  0  0  0  0  0  0  0  0  0
   -1.4800    3.6242   -0.3845 H   0  0  0  0  0  0  0  0  0  0  0  0
   -3.1386    4.5294    0.8722 H   0  0  0  0  0  0  0  0  0  0  0  0
   -4.4433    4.2294   -0.3924 H   0  0  0  0  0  0  0  0  0  0  0  0
   -3.9466    2.9263    0.7232 H   0  0  0  0  0  0  0  0  0  0  0  0
   -3.5481    3.7188   -2.6464 H   0  0  0  0  0  0  0  0  0  0  0  0
   -2.5575    5.1579   -2.0325 H   0  0  0  0  0  0  0  0  0  0  0  0
   -1.7531    3.6580   -2.7690 H   0  0  0  0  0  0  0  0  0  0  0  0
  1  2  1  0
  2  3  1  0
  3  4  1  0
  4  5  2  0
  5  6  1  0
  5  7  1  0
  7  8  2  0
  8  9  1  0
  9 10  2  0
 10 11  1  0
 11 12  1  0
 10 13  1  0
 13 14  2  0
 14 15  1  0
 15 16  1  0
 16 17  1  0
 17 18  1  0
 18 19  1  0
 19 20  1  0
 20 21  1  0
 19 22  1  0
 22 23  2  0
 23 24  1  0
 24 25  2  0
 25 26  1  0
 26 27  1  0
 26 28  2  0
 14 29  1  0
 29 30  2  0
 29 31  1  0
 31 32  1  0
 32 33  1  0
 32 34  1  0
 12  3  2  0
 28 13  1  0
 12  8  1  0
 21 16  1  0
 28 22  1  0
  1 35  1  0
  1 36  1  0
  1 37  1  0
  4 38  1  0
  6 39  1  0
  6 40  1  0
  6 41  1  0
  7 42  1  0
  9 43  1  0
 15 44  1  0
 15 45  1  0
 17 46  1  0
 17 47  1  0
 18 48  1  0
 18 49  1  0
 20 50  1  0
 20 51  1  0
 21 52  1  0
 21 53  1  0
 24 54  1  0
 27 55  1  0
 27 56  1  0
 31 57  1  0
 32 58  1  0
 33 59  1  0
 33 60  1  0
 33 61  1  0
 34 62  1  0
 34 63  1  0
 34 64  1  0
M  END
$$$$
[H]c1c(OC([H])([H])[H])c([H])c(C([H])([H])[H])c([H])c1C(=O)N1C([H])([H])C([H])([H])N(C([H])([H])C2=C(OC([H])([H])[H])C(OC([H])([H])[H])=C2c2sc3c(OC([H])([H])[H])c([H])c(C([H])([H])[H])c([H])c3c2[H])C([H])([H])C1([H])[H]
     RDKit          3D

 72 76  0  0  0  0  0  0  0  0999 V2000
   -8.3610   -3.7268   -1.1539 C   0  0  0  0  0  0  0  0  0  0  0  0
   -7.2039   -3.1007   -0.5909 O   0  0  0  0  0  0  0  0  0  0  0  0
   -6.9682   -1.7799   -0.9133 C   0  0  0  0  0  0  0  0  0  0  0  0
   -7.7864   -1.0286   -1.7528 C   0  0  0  0  0  0  0  0  0  0  0  0
   -7.4000    0.2754   -1.9656 C   0  0  0  0  0  0  0  0  0  0  0  0
   -8.2926    1.0812   -2.8713 C   0  0  0  0  0  0  0  0  0  0  0  0
   -6.2995    0.8479   -1.4169 C   0  0  0  0  0  0  0  0  0  0  0  0
   -5.4597    0.0981   -0.5630 C   0  0  0  0  0  0  0  0  0  0  0  0
   -4.3387    0.5394    0.0565 C   0  0  0  0  0  0  0  0  0  0  0  0
   -3.6734   -0.3504    0.8499 C   0  0  0  0  0  0  0  0  0  0  0  0
   -4.6015   -1.7618    0.7225 S   0  0  0  0  0  0  0  0  0  0  0  0
   -5.8209   -1.2012   -0.3360 C   0  0  0  0  0  0  0  0  0  0  0  0
   -2.4342   -0.0955    1.6180 C   0  0  0  0  0  0  0  0  0  0  0  0
   -1.1640    0.6187    1.3359 C   0  0  0  0  0  0  0  0  0  0  0  0
   -0.7706    1.3213    0.1179 C   0  0  0  0  0  0  0  0  0  0  0  0
    0.4443    1.9812    0.0384 N   0  0  0  0  0  0  0  0  0  0  0  0
    0.7308    2.4573   -1.3269 C   0  0  0  0  0  0  0  0  0  0  0  0
    1.4672    1.2817   -1.9873 C   0  0  0  0  0  0  0  0  0  0  0  0
    2.7785    1.1917   -1.3130 N   0  0  0  0  0  0  0  0  0  0  0  0
    2.9010    1.9061   -0.0944 C   0  0  0  0  0  0  0  0  0  0  0  0
    1.5914    1.6018    0.7269 C   0  0  0  0  0  0  0  0  0  0  0  0
    3.7522    0.3581   -1.8561 C   0  0  0  0  0  0  0  0  0  0  0  0
    3.3807   -0.3690   -2.8779 O   0  0  0  0  0  0  0  0  0  0  0  0
    5.1265    0.1497   -1.4782 C   0  0  0  0  0  0  0  0  0  0  0  0
    5.8433    1.0577   -0.7490 C   0  0  0  0  0  0  0  0  0  0  0  0
    7.1347    0.7826   -0.3008 C   0  0  0  0  0  0  0  0  0  0  0  0
    7.8551    1.8011    0.4801 C   0  0  0  0  0  0  0  0  0  0  0  0
    7.7026   -0.4179   -0.5946 C   0  0  0  0  0  0  0  0  0  0  0  0
    6.9884   -1.3352   -1.3290 C   0  0  0  0  0  0  0  0  0  0  0  0
    7.6096   -2.5658   -1.6113 O   0  0  0  0  0  0  0  0  0  0  0  0
    8.9065   -2.8642   -1.1633 C   0  0  0  0  0  0  0  0  0  0  0  0
    5.7137   -1.0926   -1.7845 C   0  0  0  0  0  0  0  0  0  0  0  0
   -0.7445    0.3138    2.5206 C   0  0  0  0  0  0  0  0  0  0  0  0
    0.3605    0.4852    3.3403 O   0  0  0  0  0  0  0  0  0  0  0  0
    0.4388    1.2671    4.4865 C   0  0  0  0  0  0  0  0  0  0  0  0
   -1.9849   -0.3904    2.8033 C   0  0  0  0  0  0  0  0  0  0  0  0
   -2.5286   -1.1073    3.8809 O   0  0  0  0  0  0  0  0  0  0  0  0
   -2.3168   -2.5345    3.9368 C   0  0  0  0  0  0  0  0  0  0  0  0
   -8.3657   -4.7778   -0.8156 H   0  0  0  0  0  0  0  0  0  0  0  0
   -8.3596   -3.6676   -2.2414 H   0  0  0  0  0  0  0  0  0  0  0  0
   -9.2381   -3.1881   -0.7171 H   0  0  0  0  0  0  0  0  0  0  0  0
   -8.6445   -1.4986   -2.1684 H   0  0  0  0  0  0  0  0  0  0  0  0
   -8.4819    0.5150   -3.8145 H   0  0  0  0  0  0  0  0  0  0  0  0
   -7.8436    2.0300   -3.1586 H   0  0  0  0  0  0  0  0  0  0  0  0
   -9.2742    1.2687   -2.3615 H   0  0  0  0  0  0  0  0  0  0  0  0
   -6.1060    1.8802   -1.6618 H   0  0  0  0  0  0  0  0  0  0  0  0
   -3.9232    1.5750   -0.0352 H   0  0  0  0  0  0  0  0  0  0  0  0
   -0.8243    0.5752   -0.7571 H   0  0  0  0  0  0  0  0  0  0  0  0
   -1.5975    2.0607   -0.1703 H   0  0  0  0  0  0  0  0  0  0  0  0
   -0.2284    2.5661   -1.8350 H   0  0  0  0  0  0  0  0  0  0  0  0
    1.3924    3.3097   -1.3137 H   0  0  0  0  0  0  0  0  0  0  0  0
    0.8859    0.3745   -1.8342 H   0  0  0  0  0  0  0  0  0  0  0  0
    1.6919    1.5054   -3.0450 H   0  0  0  0  0  0  0  0  0  0  0  0
    3.0727    2.9749   -0.1677 H   0  0  0  0  0  0  0  0  0  0  0  0
    3.6942    1.4742    0.5904 H   0  0  0  0  0  0  0  0  0  0  0  0
    1.7586    2.1685    1.6792 H   0  0  0  0  0  0  0  0  0  0  0  0
    1.6538    0.5062    0.8433 H   0  0  0  0  0  0  0  0  0  0  0  0
    5.4887    2.0475   -0.5079 H   0  0  0  0  0  0  0  0  0  0  0  0
    8.7937    1.3623    0.8690 H   0  0  0  0  0  0  0  0  0  0  0  0
    8.1403    2.6673   -0.1623 H   0  0  0  0  0  0  0  0  0  0  0  0
    7.2681    2.1997    1.3460 H   0  0  0  0  0  0  0  0  0  0  0  0
    8.7026   -0.6831   -0.2707 H   0  0  0  0  0  0  0  0  0  0  0  0
    9.2690   -3.8085   -1.6113 H   0  0  0  0  0  0  0  0  0  0  0  0
    8.9087   -3.0017   -0.0598 H   0  0  0  0  0  0  0  0  0  0  0  0
    9.5995   -2.0652   -1.4576 H   0  0  0  0  0  0  0  0  0  0  0  0
    5.1948   -1.8424   -2.3540 H   0  0  0  0  0  0  0  0  0  0  0  0
   -0.3140    0.8844    5.2179 H   0  0  0  0  0  0  0  0  0  0  0  0
    1.4489    1.1140    4.9350 H   0  0  0  0  0  0  0  0  0  0  0  0
    0.3465    2.3443    4.2941 H   0  0  0  0  0  0  0  0  0  0  0  0
   -2.8224   -2.8848    4.8471 H   0  0  0  0  0  0  0  0  0  0  0  0
   -1.2017   -2.6464    4.0598 H   0  0  0  0  0  0  0  0  0  0  0  0
   -2.6614   -3.0347    3.0136 H   0  0  0  0  0  0  0  0  0  0  0  0
  1  2  1  0
  2  3  1  0
  3  4  2  0
  4  5  1  0
  5  6  1  0
  5  7  2  0
  7  8  1  0
  8  9  1  0
  9 10  2  0
 10 11  1  0
 11 12  1  0
 10 13  1  0
 13 14  1  0
 14 15  1  0
 15 16  1  0
 16 17  1  0
 17 18  1  0
 18 19  1  0
 19 20  1  0
 20 21  1  0
 19 22  1  0
 22 23  2  0
 22 24  1  0
 24 25  2  0
 25 26  1  0
 26 27  1  0
 26 28  2  0
 28 29  1  0
 29 30  1  0
 30 31  1  0
 29 32  2  0
 14 33  2  0
 33 34  1  0
 34 35  1  0
 33 36  1  0
 36 37  1  0
 37 38  1  0
 12  3  1  0
 36 13  2  0
 12  8  2  0
 21 16  1  0
 32 24  1  0
  1 39  1  0
  1 40  1  0
  1 41  1  0
  4 42  1  0
  6 43  1  0
  6 44  1  0
  6 45  1  0
  7 46  1  0
  9 47  1  0
 15 48  1  0
 15 49  1  0
 17 50  1  0
 17 51  1  0
 18 52  1  0
 18 53  1  0
 20 54  1  0
 20 55  1  0
 21 56  1  0
 21 57  1  0
 25 58  1  0
 27 59  1  0
 27 60  1  0
 27 61  1  0
 28 62  1  0
 31 63  1  0
 31 64  1  0
 31 65  1  0
 32 66  1  0
 35 67  1  0
 35 68  1  0
 35 69  1  0
 38 70  1  0
 38 71  1  0
 38 72  1  0
M  END
$$$$
