[H]c1nc(N([H])[H])c(-c2nn(-c3c(Cl)c(OC([H])([H])[H])c([H])c(OC([H])([H])[H])c3Cl)c(=O)c([H])c2[H])nc1-c1c([H])nn(C2([H])C([H])([H])C([H])([H])N([H])C([H])([H])C2([H])[H])c1[H]
     RDKit          3D

 61 65  0  0  0  0  0  0  0  0999 V2000
    8.3414    2.8868    0.5940 C   0  0  0  0  0  0  0  0  0  0  0  0
    7.0256    2.5280    0.8403 O   0  0  0  0  0  0  0  0  0  0  0  0
    6.4571    1.2832    0.8238 C   0  0  0  0  0  0  0  0  0  0  0  0
    7.2225    0.1800    0.5388 C   0  0  0  0  0  0  0  0  0  0  0  0
    6.6715   -1.0974    0.5158 C   0  0  0  0  0  0  0  0  0  0  0  0
    7.4579   -2.1972    0.2268 O   0  0  0  0  0  0  0  0  0  0  0  0
    8.8268   -1.9974   -0.0430 C   0  0  0  0  0  0  0  0  0  0  0  0
    5.3378   -1.2356    0.7853 C   0  0  0  0  0  0  0  0  0  0  0  0
    4.6390   -2.8400    0.7582 Cl  0  0  0  0  0  0  0  0  0  0  0  0
    4.5369   -0.1556    1.0751 C   0  0  0  0  0  0  0  0  0  0  0  0
    5.1211    1.1075    1.0897 C   0  0  0  0  0  0  0  0  0  0  0  0
    4.1231    2.4907    1.4534 Cl  0  0  0  0  0  0  0  0  0  0  0  0
    3.1434   -0.3169    1.3493 N   0  0  0  0  0  0  0  0  0  0  0  0
    2.3053   -0.1731    0.3204 N   0  0  0  0  0  0  0  0  0  0  0  0
    0.9786   -0.3110    0.4851 C   0  0  0  0  0  0  0  0  0  0  0  0
    0.5002   -0.6040    1.7393 C   0  0  0  0  0  0  0  0  0  0  0  0
    1.3550   -0.7565    2.8189 C   0  0  0  0  0  0  0  0  0  0  0  0
    2.7056   -0.6025    2.5833 C   0  0  0  0  0  0  0  0  0  0  0  0
    3.5211   -0.7306    3.5275 O   0  0  0  0  0  0  0  0  0  0  0  0
    0.0837   -0.1527   -0.6418 C   0  0  0  0  0  0  0  0  0  0  0  0
   -1.2676   -0.2855   -0.5149 N   0  0  0  0  0  0  0  0  0  0  0  0
   -2.0889   -0.1407   -1.5507 C   0  0  0  0  0  0  0  0  0  0  0  0
   -1.5548    0.1502   -2.7754 C   0  0  0  0  0  0  0  0  0  0  0  0
   -0.2206    0.2952   -2.9681 N   0  0  0  0  0  0  0  0  0  0  0  0
    0.5719    0.1390   -1.8884 C   0  0  0  0  0  0  0  0  0  0  0  0
    1.9579    0.2860   -2.0644 N   0  0  0  0  0  0  0  0  0  0  0  0
   -3.5207   -0.2913   -1.3852 C   0  0  0  0  0  0  0  0  0  0  0  0
   -4.4694   -0.1614   -2.3971 C   0  0  0  0  0  0  0  0  0  0  0  0
   -5.6776   -0.3743   -1.8450 N   0  0  0  0  0  0  0  0  0  0  0  0
   -5.5400   -0.6309   -0.5411 N   0  0  0  0  0  0  0  0  0  0  0  0
   -4.2398   -0.5850   -0.2440 C   0  0  0  0  0  0  0  0  0  0  0  0
   -6.6023   -0.9148    0.4120 C   0  0  0  0  0  0  0  0  0  0  0  0
   -7.9104   -0.8138   -0.3003 C   0  0  0  0  0  0  0  0  0  0  0  0
   -8.9066    0.0912    0.3871 C   0  0  0  0  0  0  0  0  0  0  0  0
   -8.3682    1.3702    0.7265 N   0  0  0  0  0  0  0  0  0  0  0  0
   -7.0125    1.3594    1.1736 C   0  0  0  0  0  0  0  0  0  0  0  0
   -6.5240    0.0054    1.6104 C   0  0  0  0  0  0  0  0  0  0  0  0
    8.3839    3.9007    0.1222 H   0  0  0  0  0  0  0  0  0  0  0  0
    8.8518    2.1286   -0.0302 H   0  0  0  0  0  0  0  0  0  0  0  0
    8.8463    3.0247    1.5905 H   0  0  0  0  0  0  0  0  0  0  0  0
    8.2672    0.2316    0.3225 H   0  0  0  0  0  0  0  0  0  0  0  0
    9.3623   -1.5575    0.8432 H   0  0  0  0  0  0  0  0  0  0  0  0
    8.9142   -1.3233   -0.9122 H   0  0  0  0  0  0  0  0  0  0  0  0
    9.3096   -2.9872   -0.2520 H   0  0  0  0  0  0  0  0  0  0  0  0
   -0.5620   -0.7126    1.8638 H   0  0  0  0  0  0  0  0  0  0  0  0
    0.9376   -0.9828    3.7708 H   0  0  0  0  0  0  0  0  0  0  0  0
   -2.1917    0.2742   -3.6345 H   0  0  0  0  0  0  0  0  0  0  0  0
    2.3537    1.2505   -2.0129 H   0  0  0  0  0  0  0  0  0  0  0  0
    2.5407   -0.5458   -2.2369 H   0  0  0  0  0  0  0  0  0  0  0  0
   -4.2170    0.0716   -3.4311 H   0  0  0  0  0  0  0  0  0  0  0  0
   -3.7717   -0.7440    0.7175 H   0  0  0  0  0  0  0  0  0  0  0  0
   -6.3966   -1.9488    0.8022 H   0  0  0  0  0  0  0  0  0  0  0  0
   -7.7808   -0.5492   -1.3815 H   0  0  0  0  0  0  0  0  0  0  0  0
   -8.3754   -1.8273   -0.3023 H   0  0  0  0  0  0  0  0  0  0  0  0
   -9.3428   -0.4432    1.2333 H   0  0  0  0  0  0  0  0  0  0  0  0
   -9.7285    0.2703   -0.3640 H   0  0  0  0  0  0  0  0  0  0  0  0
   -8.5096    2.1157    0.0211 H   0  0  0  0  0  0  0  0  0  0  0  0
   -6.9374    2.0349    2.0525 H   0  0  0  0  0  0  0  0  0  0  0  0
   -6.3439    1.7827    0.3832 H   0  0  0  0  0  0  0  0  0  0  0  0
   -7.1271   -0.3657    2.4380 H   0  0  0  0  0  0  0  0  0  0  0  0
   -5.4627    0.0971    1.8926 H   0  0  0  0  0  0  0  0  0  0  0  0
  1  2  1  0
  2  3  1  0
  3  4  2  0
  4  5  1  0
  5  6  1  0
  6  7  1  0
  5  8  2  0
  8  9  1  0
  8 10  1  0
 10 11  2  0
 11 12  1  0
 10 13  1  0
 13 14  1  0
 14 15  2  0
 15 16  1  0
 16 17  2  0
 17 18  1  0
 18 19  2  0
 15 20  1  0
 20 21  2  0
 21 22  1  0
 22 23  2  0
 23 24  1  0
 24 25  2  0
 25 26  1  0
 22 27  1  0
 27 28  1  0
 28 29  2  0
 29 30  1  0
 30 31  1  0
 30 32  1  0
 32 33  1  0
 33 34  1  0
 34 35  1  0
 35 36  1  0
 36 37  1  0
 11  3  1  0
 18 13  1  0
 25 20  1  0
 31 27  2  0
 37 32  1  0
  1 38  1  0
  1 39  1  0
  1 40  1  0
  4 41  1  0
  7 42  1  0
  7 43  1  0
  7 44  1  0
 16 45  1  0
 17 46  1  0
 23 47  1  0
 26 48  1  0
 26 49  1  0
 28 50  1  0
 31 51  1  0
 32 52  1  0
 33 53  1  0
 33 54  1  0
 34 55  1  0
 34 56  1  0
 35 57  1  0
 36 58  1  0
 36 59  1  0
 37 60  1  0
 37 61  1  0
M  END
$$$$
[H]c1nc(N([H])[H])c(-c2nn(-c3c([H])c(OC([H])([H])[H])c([H])c(OC([H])([H])[H])c3[H])c(=O)c([H])c2[H])nc1-c1c([H])nn(C2([H])C([H])([H])C([H])([H])N([H])C([H])([H])C2([H])[H])c1[H]
     RDKit          3D

 61 65  0  0  0  0  0  0  0  0999 V2000
   -9.1376   -2.4054   -0.2303 C   0  0  0  0  0  0  0  0  0  0  0  0
   -7.8136   -2.2756    0.1882 O   0  0  0  0  0  0  0  0  0  0  0  0
   -7.0943   -1.0911    0.1438 C   0  0  0  0  0  0  0  0  0  0  0  0
   -7.6217    0.0998   -0.3260 C   0  0  0  0  0  0  0  0  0  0  0  0
   -6.8838    1.2649   -0.3594 C   0  0  0  0  0  0  0  0  0  0  0  0
   -7.4418    2.4423   -0.8363 O   0  0  0  0  0  0  0  0  0  0  0  0
   -8.7481    2.5569   -1.3082 C   0  0  0  0  0  0  0  0  0  0  0  0
   -5.5916    1.2171    0.0915 C   0  0  0  0  0  0  0  0  0  0  0  0
   -5.0066    0.0544    0.5739 C   0  0  0  0  0  0  0  0  0  0  0  0
   -5.7854   -1.0838    0.5869 C   0  0  0  0  0  0  0  0  0  0  0  0
   -3.6660   -0.0044    1.0440 N   0  0  0  0  0  0  0  0  0  0  0  0
   -2.6141    0.0674    0.2259 N   0  0  0  0  0  0  0  0  0  0  0  0
   -1.3669    0.0109    0.6812 C   0  0  0  0  0  0  0  0  0  0  0  0
   -1.1728   -0.1249    2.0309 C   0  0  0  0  0  0  0  0  0  0  0  0
   -2.2205   -0.2039    2.9210 C   0  0  0  0  0  0  0  0  0  0  0  0
   -3.4965   -0.1379    2.3731 C   0  0  0  0  0  0  0  0  0  0  0  0
   -4.4922   -0.2050    3.1390 O   0  0  0  0  0  0  0  0  0  0  0  0
   -0.2103    0.0885   -0.2047 C   0  0  0  0  0  0  0  0  0  0  0  0
    1.0446    0.0264    0.3061 N   0  0  0  0  0  0  0  0  0  0  0  0
    2.1191    0.0965   -0.4971 C   0  0  0  0  0  0  0  0  0  0  0  0
    1.8874    0.2327   -1.8465 C   0  0  0  0  0  0  0  0  0  0  0  0
    0.6434    0.2950   -2.3613 N   0  0  0  0  0  0  0  0  0  0  0  0
   -0.4310    0.2243   -1.5517 C   0  0  0  0  0  0  0  0  0  0  0  0
   -1.7686    0.2882   -2.0729 N   0  0  0  0  0  0  0  0  0  0  0  0
    3.4626    0.0289    0.0609 C   0  0  0  0  0  0  0  0  0  0  0  0
    3.8450   -0.1054    1.3780 C   0  0  0  0  0  0  0  0  0  0  0  0
    5.1698   -0.1199    1.4043 N   0  0  0  0  0  0  0  0  0  0  0  0
    5.6915   -0.0055    0.2062 N   0  0  0  0  0  0  0  0  0  0  0  0
    4.6499    0.0889   -0.6492 C   0  0  0  0  0  0  0  0  0  0  0  0
    7.1006    0.0180   -0.1578 C   0  0  0  0  0  0  0  0  0  0  0  0
    7.6829   -1.3279    0.1640 C   0  0  0  0  0  0  0  0  0  0  0  0
    9.1615   -1.3804   -0.1368 C   0  0  0  0  0  0  0  0  0  0  0  0
    9.8049   -0.0959    0.1004 N   0  0  0  0  0  0  0  0  0  0  0  0
    9.1069    0.6504    1.1334 C   0  0  0  0  0  0  0  0  0  0  0  0
    7.7912    1.1440    0.5705 C   0  0  0  0  0  0  0  0  0  0  0  0
   -9.2925   -1.7669   -1.1311 H   0  0  0  0  0  0  0  0  0  0  0  0
   -9.3792   -3.4757   -0.4652 H   0  0  0  0  0  0  0  0  0  0  0  0
   -9.8091   -2.0956    0.5953 H   0  0  0  0  0  0  0  0  0  0  0  0
   -8.6424    0.1103   -0.6754 H   0  0  0  0  0  0  0  0  0  0  0  0
   -9.4388    2.6256   -0.4375 H   0  0  0  0  0  0  0  0  0  0  0  0
   -9.0656    1.7314   -1.9623 H   0  0  0  0  0  0  0  0  0  0  0  0
   -8.8292    3.5427   -1.8405 H   0  0  0  0  0  0  0  0  0  0  0  0
   -4.9945    2.0956    0.0801 H   0  0  0  0  0  0  0  0  0  0  0  0
   -5.3499   -1.9998    0.9583 H   0  0  0  0  0  0  0  0  0  0  0  0
   -0.1720   -0.1767    2.4612 H   0  0  0  0  0  0  0  0  0  0  0  0
   -2.1111   -0.3096    3.9759 H   0  0  0  0  0  0  0  0  0  0  0  0
    2.7354    0.2912   -2.5127 H   0  0  0  0  0  0  0  0  0  0  0  0
   -2.2850   -0.5783   -2.3228 H   0  0  0  0  0  0  0  0  0  0  0  0
   -2.2625    1.1971   -2.2170 H   0  0  0  0  0  0  0  0  0  0  0  0
    3.1640   -0.1802    2.1917 H   0  0  0  0  0  0  0  0  0  0  0  0
    4.7105    0.1966   -1.7382 H   0  0  0  0  0  0  0  0  0  0  0  0
    7.1951    0.2012   -1.2451 H   0  0  0  0  0  0  0  0  0  0  0  0
    7.5457   -1.5150    1.2393 H   0  0  0  0  0  0  0  0  0  0  0  0
    7.1733   -2.0752   -0.4679 H   0  0  0  0  0  0  0  0  0  0  0  0
    9.2790   -1.6948   -1.1955 H   0  0  0  0  0  0  0  0  0  0  0  0
    9.6209   -2.1448    0.4929 H   0  0  0  0  0  0  0  0  0  0  0  0
    9.7673    0.5124   -0.7635 H   0  0  0  0  0  0  0  0  0  0  0  0
    8.9183    0.0549    2.0348 H   0  0  0  0  0  0  0  0  0  0  0  0
    9.7301    1.5574    1.3324 H   0  0  0  0  0  0  0  0  0  0  0  0
    8.0324    1.9916   -0.1139 H   0  0  0  0  0  0  0  0  0  0  0  0
    7.1622    1.5762    1.3741 H   0  0  0  0  0  0  0  0  0  0  0  0
  1  2  1  0
  2  3  1  0
  3  4  2  0
  4  5  1  0
  5  6  1  0
  6  7  1  0
  5  8  2  0
  8  9  1  0
  9 10  2  0
  9 11  1  0
 11 12  1  0
 12 13  2  0
 13 14  1  0
 14 15  2  0
 15 16  1  0
 16 17  2  0
 13 18  1  0
 18 19  2  0
 19 20  1  0
 20 21  2  0
 21 22  1  0
 22 23  2  0
 23 24  1  0
 20 25  1  0
 25 26  1  0
 26 27  2  0
 27 28  1  0
 28 29  1  0
 28 30  1  0
 30 31  1  0
 31 32  1  0
 32 33  1  0
 33 34  1  0
 34 35  1  0
 10  3  1  0
 16 11  1  0
 23 18  1  0
 29 25  2  0
 35 30  1  0
  1 36  1  0
  1 37  1  0
  1 38  1  0
  4 39  1  0
  7 40  1  0
  7 41  1  0
  7 42  1  0
  8 43  1  0
 10 44  1  0
 14 45  1  0
 15 46  1  0
 21 47  1  0
 24 48  1  0
 24 49  1  0
 26 50  1  0
 29 51  1  0
 30 52  1  0
 31 53  1  0
 31 54  1  0
 32 55  1  0
 32 56  1  0
 33 57  1  0
 34 58  1  0
 34 59  1  0
 35 60  1  0
 35 61  1  0
M  END
$$$$
[H]C([H])=C([H])C(=O)N1C([H])([H])C([H])([H])N(C([H])([H])C([H])([H])C([H])([H])n2c(=O)c(-c3c([H])c(OC([H])([H])[H])c([H])c(OC([H])([H])[H])c3Cl)c([H])c3c([H])nc(N([H])C([H])([H])[H])nc32)C([H])([H])C1([H])[H]
     RDKit          3D

 68 71  0  0  0  0  0  0  0  0999 V2000
    0.1408   -7.2658    2.2499 C   0  0  0  0  0  0  0  0  0  0  0  0
    0.4798   -6.0576    1.5312 N   0  0  0  0  0  0  0  0  0  0  0  0
   -0.4562   -4.9673    1.4211 C   0  0  0  0  0  0  0  0  0  0  0  0
   -1.6666   -5.0183    1.9689 N   0  0  0  0  0  0  0  0  0  0  0  0
   -2.5520   -4.0205    1.8838 C   0  0  0  0  0  0  0  0  0  0  0  0
   -2.1948   -2.8875    1.1979 C   0  0  0  0  0  0  0  0  0  0  0  0
   -3.0687   -1.8090    1.0718 C   0  0  0  0  0  0  0  0  0  0  0  0
   -2.6691   -0.6935    0.3773 C   0  0  0  0  0  0  0  0  0  0  0  0
   -3.5355    0.4648    0.1877 C   0  0  0  0  0  0  0  0  0  0  0  0
   -3.7121    0.9805   -1.0884 C   0  0  0  0  0  0  0  0  0  0  0  0
   -4.5479    2.0798   -1.3069 C   0  0  0  0  0  0  0  0  0  0  0  0
   -4.6694    2.5300   -2.5924 O   0  0  0  0  0  0  0  0  0  0  0  0
   -5.4655    3.6194   -2.9496 C   0  0  0  0  0  0  0  0  0  0  0  0
   -5.1651    2.5988   -0.2011 C   0  0  0  0  0  0  0  0  0  0  0  0
   -5.0238    2.1257    1.0847 C   0  0  0  0  0  0  0  0  0  0  0  0
   -5.6593    2.6710    2.1844 O   0  0  0  0  0  0  0  0  0  0  0  0
   -6.5163    3.7732    2.0646 C   0  0  0  0  0  0  0  0  0  0  0  0
   -4.1784    1.0240    1.2637 C   0  0  0  0  0  0  0  0  0  0  0  0
   -3.9727    0.4060    2.9096 Cl  0  0  0  0  0  0  0  0  0  0  0  0
   -1.4081   -0.6849   -0.1725 C   0  0  0  0  0  0  0  0  0  0  0  0
   -1.0438    0.3328   -0.8052 O   0  0  0  0  0  0  0  0  0  0  0  0
   -0.5706   -1.7296   -0.0468 N   0  0  0  0  0  0  0  0  0  0  0  0
    0.7504   -1.6793   -0.6303 C   0  0  0  0  0  0  0  0  0  0  0  0
    1.7098   -1.1232    0.4035 C   0  0  0  0  0  0  0  0  0  0  0  0
    3.1109   -1.0309   -0.0806 C   0  0  0  0  0  0  0  0  0  0  0  0
    3.1882   -0.1527   -1.2309 N   0  0  0  0  0  0  0  0  0  0  0  0
    4.5318   -0.0855   -1.7625 C   0  0  0  0  0  0  0  0  0  0  0  0
    5.4053    0.8851   -0.9666 C   0  0  0  0  0  0  0  0  0  0  0  0
    4.8224    2.1765   -0.8970 N   0  0  0  0  0  0  0  0  0  0  0  0
    3.4806    2.2562   -1.5435 C   0  0  0  0  0  0  0  0  0  0  0  0
    2.6714    1.1562   -0.8886 C   0  0  0  0  0  0  0  0  0  0  0  0
    5.3517    3.3146   -0.3203 C   0  0  0  0  0  0  0  0  0  0  0  0
    4.5850    4.4038   -0.3866 O   0  0  0  0  0  0  0  0  0  0  0  0
    6.5788    3.5515    0.3424 C   0  0  0  0  0  0  0  0  0  0  0  0
    7.5481    2.7267    0.5768 C   0  0  0  0  0  0  0  0  0  0  0  0
   -0.9478   -2.8098    0.6213 C   0  0  0  0  0  0  0  0  0  0  0  0
   -0.1063   -3.8539    0.7470 N   0  0  0  0  0  0  0  0  0  0  0  0
    0.4245   -8.1820    1.6684 H   0  0  0  0  0  0  0  0  0  0  0  0
    0.6694   -7.3581    3.2214 H   0  0  0  0  0  0  0  0  0  0  0  0
   -0.9498   -7.2394    2.4623 H   0  0  0  0  0  0  0  0  0  0  0  0
    1.4211   -5.9981    1.0939 H   0  0  0  0  0  0  0  0  0  0  0  0
   -3.5335   -4.0676    2.3308 H   0  0  0  0  0  0  0  0  0  0  0  0
   -4.0409   -1.8689    1.5169 H   0  0  0  0  0  0  0  0  0  0  0  0
   -3.2085    0.5266   -1.8991 H   0  0  0  0  0  0  0  0  0  0  0  0
   -6.3952    3.2347   -3.4613 H   0  0  0  0  0  0  0  0  0  0  0  0
   -4.9258    4.2928   -3.6706 H   0  0  0  0  0  0  0  0  0  0  0  0
   -5.8096    4.2679   -2.1497 H   0  0  0  0  0  0  0  0  0  0  0  0
   -5.8141    3.4385   -0.3566 H   0  0  0  0  0  0  0  0  0  0  0  0
   -7.5667    3.4320    1.8287 H   0  0  0  0  0  0  0  0  0  0  0  0
   -6.2164    4.4744    1.2821 H   0  0  0  0  0  0  0  0  0  0  0  0
   -6.5500    4.3684    3.0106 H   0  0  0  0  0  0  0  0  0  0  0  0
    0.6859   -1.0286   -1.5222 H   0  0  0  0  0  0  0  0  0  0  0  0
    1.0480   -2.6785   -0.9835 H   0  0  0  0  0  0  0  0  0  0  0  0
    1.3433   -0.1412    0.7140 H   0  0  0  0  0  0  0  0  0  0  0  0
    1.6705   -1.7747    1.3177 H   0  0  0  0  0  0  0  0  0  0  0  0
    3.7286   -0.5725    0.7127 H   0  0  0  0  0  0  0  0  0  0  0  0
    3.5592   -2.0099   -0.3414 H   0  0  0  0  0  0  0  0  0  0  0  0
    4.9838   -1.0854   -1.6408 H   0  0  0  0  0  0  0  0  0  0  0  0
    4.5159    0.1751   -2.8138 H   0  0  0  0  0  0  0  0  0  0  0  0
    5.6553    0.4235    0.0280 H   0  0  0  0  0  0  0  0  0  0  0  0
    6.3483    0.9411   -1.5393 H   0  0  0  0  0  0  0  0  0  0  0  0
    3.0291    3.2281   -1.3670 H   0  0  0  0  0  0  0  0  0  0  0  0
    3.6238    2.0057   -2.5963 H   0  0  0  0  0  0  0  0  0  0  0  0
    2.6838    1.2938    0.2182 H   0  0  0  0  0  0  0  0  0  0  0  0
    1.6262    1.3224   -1.2147 H   0  0  0  0  0  0  0  0  0  0  0  0
    6.7662    4.5846    0.7281 H   0  0  0  0  0  0  0  0  0  0  0  0
    7.5303    1.7062    0.2765 H   0  0  0  0  0  0  0  0  0  0  0  0
    8.4718    3.0817    1.1271 H   0  0  0  0  0  0  0  0  0  0  0  0
  1  2  1  0
  2  3  1  0
  3  4  2  0
  4  5  1  0
  5  6  2  0
  6  7  1  0
  7  8  2  0
  8  9  1  0
  9 10  2  0
 10 11  1  0
 11 12  1  0
 12 13  1  0
 11 14  2  0
 14 15  1  0
 15 16  1  0
 16 17  1  0
 15 18  2  0
 18 19  1  0
  8 20  1  0
 20 21  2  0
 20 22  1  0
 22 23  1  0
 23 24  1  0
 24 25  1  0
 25 26  1  0
 26 27  1  0
 27 28  1  0
 28 29  1  0
 29 30  1  0
 30 31  1  0
 29 32  1  0
 32 33  2  0
 32 34  1  0
 34 35  2  3
 22 36  1  0
 36 37  2  0
 37  3  1  0
 36  6  1  0
 18  9  1  0
 31 26  1  0
  1 38  1  0
  1 39  1  0
  1 40  1  0
  2 41  1  0
  5 42  1  0
  7 43  1  0
 10 44  1  0
 13 45  1  0
 13 46  1  0
 13 47  1  0
 14 48  1  0
 17 49  1  0
 17 50  1  0
 17 51  1  0
 23 52  1  0
 23 53  1  0
 24 54  1  0
 24 55  1  0
 25 56  1  0
 25 57  1  0
 27 58  1  0
 27 59  1  0
 28 60  1  0
 28 61  1  0
 30 62  1  0
 30 63  1  0
 31 64  1  0
 31 65  1  0
 34 66  1  0
 35 67  1  0
 35 68  1  0
M  END
$$$$
[H]c1nc(N([H])[H])c(-c2nn(-c3c(Cl)c(OC([H])([H])[H])c([H])c(OC([H])([H])[H])c3Cl)c(=O)c([H])c2[H])nc1-c1c([H])nn(C([H])([H])[H])c1[H]
     RDKit          3D

 49 52  0  0  0  0  0  0  0  0999 V2000
   -6.7444   -3.0827   -0.9126 C   0  0  0  0  0  0  0  0  0  0  0  0
   -5.7261   -2.4133   -0.2349 O   0  0  0  0  0  0  0  0  0  0  0  0
   -4.3766   -2.6401   -0.4237 C   0  0  0  0  0  0  0  0  0  0  0  0
   -3.9324   -3.5963   -1.3463 C   0  0  0  0  0  0  0  0  0  0  0  0
   -2.5564   -3.7695   -1.4821 C   0  0  0  0  0  0  0  0  0  0  0  0
   -2.0476   -4.7140   -2.3916 O   0  0  0  0  0  0  0  0  0  0  0  0
   -2.9046   -5.5065   -3.1858 C   0  0  0  0  0  0  0  0  0  0  0  0
   -1.6733   -3.0245   -0.7338 C   0  0  0  0  0  0  0  0  0  0  0  0
    0.0707   -3.2370   -0.8992 Cl  0  0  0  0  0  0  0  0  0  0  0  0
   -2.1022   -2.0741    0.1834 C   0  0  0  0  0  0  0  0  0  0  0  0
   -3.4641   -1.9130    0.3078 C   0  0  0  0  0  0  0  0  0  0  0  0
   -4.0587   -0.7308    1.4474 Cl  0  0  0  0  0  0  0  0  0  0  0  0
   -1.1535   -1.3258    0.9365 N   0  0  0  0  0  0  0  0  0  0  0  0
   -0.3669   -0.4115    0.3642 N   0  0  0  0  0  0  0  0  0  0  0  0
    0.5322    0.3135    1.0141 C   0  0  0  0  0  0  0  0  0  0  0  0
    0.6625    0.1071    2.3768 C   0  0  0  0  0  0  0  0  0  0  0  0
   -0.1261   -0.8307    3.0372 C   0  0  0  0  0  0  0  0  0  0  0  0
   -1.0290   -1.5290    2.2635 C   0  0  0  0  0  0  0  0  0  0  0  0
   -1.7731   -2.3917    2.7962 O   0  0  0  0  0  0  0  0  0  0  0  0
    1.3690    1.3008    0.3447 C   0  0  0  0  0  0  0  0  0  0  0  0
    2.2782    2.0335    1.0034 N   0  0  0  0  0  0  0  0  0  0  0  0
    3.0449    2.9454    0.3606 C   0  0  0  0  0  0  0  0  0  0  0  0
    2.9192    3.1545   -0.9961 C   0  0  0  0  0  0  0  0  0  0  0  0
    2.0082    2.4206   -1.6573 N   0  0  0  0  0  0  0  0  0  0  0  0
    1.2351    1.5021   -1.0128 C   0  0  0  0  0  0  0  0  0  0  0  0
    0.2738    0.7246   -1.6983 N   0  0  0  0  0  0  0  0  0  0  0  0
    4.0184    3.7158    1.1242 C   0  0  0  0  0  0  0  0  0  0  0  0
    4.2713    3.6329    2.4776 C   0  0  0  0  0  0  0  0  0  0  0  0
    5.2492    4.5240    2.7660 N   0  0  0  0  0  0  0  0  0  0  0  0
    5.6283    5.1651    1.6709 N   0  0  0  0  0  0  0  0  0  0  0  0
    6.6531    6.2032    1.5482 C   0  0  0  0  0  0  0  0  0  0  0  0
    4.8821    4.6807    0.6527 C   0  0  0  0  0  0  0  0  0  0  0  0
   -6.8946   -2.7417   -1.9504 H   0  0  0  0  0  0  0  0  0  0  0  0
   -7.7150   -2.8622   -0.3845 H   0  0  0  0  0  0  0  0  0  0  0  0
   -6.5858   -4.1770   -0.9111 H   0  0  0  0  0  0  0  0  0  0  0  0
   -4.6391   -4.1732   -1.9262 H   0  0  0  0  0  0  0  0  0  0  0  0
   -2.3498   -5.9183   -4.0459 H   0  0  0  0  0  0  0  0  0  0  0  0
   -3.7482   -4.8984   -3.6113 H   0  0  0  0  0  0  0  0  0  0  0  0
   -3.3198   -6.3702   -2.6244 H   0  0  0  0  0  0  0  0  0  0  0  0
    1.3739    0.6658    2.9519 H   0  0  0  0  0  0  0  0  0  0  0  0
   -0.0251   -0.9922    4.0997 H   0  0  0  0  0  0  0  0  0  0  0  0
    3.5369    3.8906   -1.5201 H   0  0  0  0  0  0  0  0  0  0  0  0
   -0.6979    1.0716   -1.7587 H   0  0  0  0  0  0  0  0  0  0  0  0
    0.5360   -0.1618   -2.1247 H   0  0  0  0  0  0  0  0  0  0  0  0
    3.7807    2.9786    3.1792 H   0  0  0  0  0  0  0  0  0  0  0  0
    7.5489    5.8202    1.0162 H   0  0  0  0  0  0  0  0  0  0  0  0
    6.9384    6.5819    2.5315 H   0  0  0  0  0  0  0  0  0  0  0  0
    6.2444    7.0462    0.9295 H   0  0  0  0  0  0  0  0  0  0  0  0
    4.9551    5.0067   -0.3852 H   0  0  0  0  0  0  0  0  0  0  0  0
  1  2  1  0
  2  3  1  0
  3  4  2  0
  4  5  1  0
  5  6  1  0
  6  7  1  0
  5  8  2  0
  8  9  1  0
  8 10  1  0
 10 11  2  0
 11 12  1  0
 10 13  1  0
 13 14  1  0
 14 15  2  0
 15 16  1  0
 16 17  2  0
 17 18  1  0
 18 19  2  0
 15 20  1  0
 20 21  2  0
 21 22  1  0
 22 23  2  0
 23 24  1  0
 24 25  2  0
 25 26  1  0
 22 27  1  0
 27 28  1  0
 28 29  2  0
 29 30  1  0
 30 31  1  0
 30 32  1  0
 11  3  1  0
 18 13  1  0
 25 20  1  0
 32 27  2  0
  1 33  1  0
  1 34  1  0
  1 35  1  0
  4 36  1  0
  7 37  1  0
  7 38  1  0
  7 39  1  0
 16 40  1  0
 17 41  1  0
 23 42  1  0
 26 43  1  0
 26 44  1  0
 28 45  1  0
 31 46  1  0
 31 47  1  0
 31 48  1  0
 32 49  1  0
M  END
$$$$
[H]c1nc(N([H])C(=O)c2c([H])c([H])c(C3([H])C([H])([H])C([H])([H])N(C([H])(C([H])([H])[H])C([H])([H])[H])C([H])([H])C3([H])[H])c([H])c2[H])c([H])c(Oc2c(OC([H])([H])[H])c([H])c3c(c2[H])c([H])c([H])n3C(=O)N([H])C([H])([H])[H])c1[H]
     RDKit          3D

 75 79  0  0  0  0  0  0  0  0999 V2000
   12.3420   -1.6616   -0.6990 C   0  0  0  0  0  0  0  0  0  0  0  0
   11.0401   -0.9362   -0.5579 N   0  0  0  0  0  0  0  0  0  0  0  0
   11.0533    0.2764    0.0965 C   0  0  0  0  0  0  0  0  0  0  0  0
   12.2367    0.6428    0.5200 O   0  0  0  0  0  0  0  0  0  0  0  0
   10.0081    1.1697    0.3769 N   0  0  0  0  0  0  0  0  0  0  0  0
   10.1891    2.3639    1.0526 C   0  0  0  0  0  0  0  0  0  0  0  0
    8.9902    3.0021    1.1598 C   0  0  0  0  0  0  0  0  0  0  0  0
    8.0411    2.2142    0.5513 C   0  0  0  0  0  0  0  0  0  0  0  0
    6.6879    2.3768    0.3707 C   0  0  0  0  0  0  0  0  0  0  0  0
    5.9325    1.4302   -0.2870 C   0  0  0  0  0  0  0  0  0  0  0  0
    4.5843    1.6220   -0.4550 O   0  0  0  0  0  0  0  0  0  0  0  0
    3.6664    0.7600    0.1162 C   0  0  0  0  0  0  0  0  0  0  0  0
    4.0199   -0.2194    1.0200 C   0  0  0  0  0  0  0  0  0  0  0  0
    3.0632   -1.0684    1.5723 C   0  0  0  0  0  0  0  0  0  0  0  0
    1.7788   -0.9189    1.2088 N   0  0  0  0  0  0  0  0  0  0  0  0
    1.4009    0.0310    0.3253 C   0  0  0  0  0  0  0  0  0  0  0  0
    0.0426    0.1890   -0.0504 N   0  0  0  0  0  0  0  0  0  0  0  0
   -0.9267   -0.6688    0.5472 C   0  0  0  0  0  0  0  0  0  0  0  0
   -0.6067   -1.5351    1.3856 O   0  0  0  0  0  0  0  0  0  0  0  0
   -2.3570   -0.5559    0.1890 C   0  0  0  0  0  0  0  0  0  0  0  0
   -2.7788    0.1208   -0.9348 C   0  0  0  0  0  0  0  0  0  0  0  0
   -4.1328    0.2007   -1.2109 C   0  0  0  0  0  0  0  0  0  0  0  0
   -5.1018   -0.3651   -0.4171 C   0  0  0  0  0  0  0  0  0  0  0  0
   -4.6456   -1.0388    0.7053 C   0  0  0  0  0  0  0  0  0  0  0  0
   -3.3103   -1.1384    1.0109 C   0  0  0  0  0  0  0  0  0  0  0  0
   -6.5148   -0.2302   -0.7985 C   0  0  0  0  0  0  0  0  0  0  0  0
   -7.2465    0.7776    0.0689 C   0  0  0  0  0  0  0  0  0  0  0  0
   -8.1890    0.1177    1.0458 C   0  0  0  0  0  0  0  0  0  0  0  0
   -9.2506   -0.5261    0.3378 N   0  0  0  0  0  0  0  0  0  0  0  0
   -8.7525   -1.2128   -0.8531 C   0  0  0  0  0  0  0  0  0  0  0  0
   -7.2729   -1.5180   -0.7413 C   0  0  0  0  0  0  0  0  0  0  0  0
  -10.2698    0.3917   -0.1220 C   0  0  0  0  0  0  0  0  0  0  0  0
  -11.4261   -0.3845   -0.7075 C   0  0  0  0  0  0  0  0  0  0  0  0
  -10.7430    1.3572    0.9090 C   0  0  0  0  0  0  0  0  0  0  0  0
    2.3210    0.8854   -0.2377 C   0  0  0  0  0  0  0  0  0  0  0  0
    6.5866    0.3153   -0.7558 C   0  0  0  0  0  0  0  0  0  0  0  0
    5.8477   -0.6466   -1.4200 O   0  0  0  0  0  0  0  0  0  0  0  0
    6.4380   -1.8280   -1.9372 C   0  0  0  0  0  0  0  0  0  0  0  0
    7.9409    0.1364   -0.5836 C   0  0  0  0  0  0  0  0  0  0  0  0
    8.7089    1.0739    0.0712 C   0  0  0  0  0  0  0  0  0  0  0  0
   12.3360   -2.4201    0.0945 H   0  0  0  0  0  0  0  0  0  0  0  0
   13.1788   -0.9547   -0.5316 H   0  0  0  0  0  0  0  0  0  0  0  0
   12.4475   -2.0475   -1.7202 H   0  0  0  0  0  0  0  0  0  0  0  0
   10.2571   -1.4370   -0.9773 H   0  0  0  0  0  0  0  0  0  0  0  0
   11.1188    2.7352    1.4334 H   0  0  0  0  0  0  0  0  0  0  0  0
    8.7709    3.9673    1.6354 H   0  0  0  0  0  0  0  0  0  0  0  0
    6.2185    3.2692    0.7552 H   0  0  0  0  0  0  0  0  0  0  0  0
    5.0637   -0.3453    1.3269 H   0  0  0  0  0  0  0  0  0  0  0  0
    3.3912   -1.8225    2.2814 H   0  0  0  0  0  0  0  0  0  0  0  0
   -0.2219    0.9157   -0.7517 H   0  0  0  0  0  0  0  0  0  0  0  0
   -2.0332    0.5762   -1.5816 H   0  0  0  0  0  0  0  0  0  0  0  0
   -4.4139    0.7518   -2.1239 H   0  0  0  0  0  0  0  0  0  0  0  0
   -5.3952   -1.4900    1.3392 H   0  0  0  0  0  0  0  0  0  0  0  0
   -2.9818   -1.6759    1.9022 H   0  0  0  0  0  0  0  0  0  0  0  0
   -6.5654    0.1698   -1.8351 H   0  0  0  0  0  0  0  0  0  0  0  0
   -7.8695    1.4404   -0.5630 H   0  0  0  0  0  0  0  0  0  0  0  0
   -6.5219    1.4600    0.5834 H   0  0  0  0  0  0  0  0  0  0  0  0
   -7.6359   -0.6646    1.6411 H   0  0  0  0  0  0  0  0  0  0  0  0
   -8.5562    0.8962    1.7498 H   0  0  0  0  0  0  0  0  0  0  0  0
   -8.9864   -0.6603   -1.7804 H   0  0  0  0  0  0  0  0  0  0  0  0
   -9.2729   -2.2156   -0.8505 H   0  0  0  0  0  0  0  0  0  0  0  0
   -7.0016   -2.1259   -1.6230 H   0  0  0  0  0  0  0  0  0  0  0  0
   -7.1444   -2.0564    0.2191 H   0  0  0  0  0  0  0  0  0  0  0  0
   -9.8174    0.9659   -0.9589 H   0  0  0  0  0  0  0  0  0  0  0  0
  -12.0470   -0.8652    0.0870 H   0  0  0  0  0  0  0  0  0  0  0  0
  -12.0948    0.3153   -1.2389 H   0  0  0  0  0  0  0  0  0  0  0  0
  -11.0347   -1.1171   -1.4299 H   0  0  0  0  0  0  0  0  0  0  0  0
  -11.0442    0.8201    1.8187 H   0  0  0  0  0  0  0  0  0  0  0  0
  -10.0163    2.1747    1.0915 H   0  0  0  0  0  0  0  0  0  0  0  0
  -11.6667    1.8481    0.4998 H   0  0  0  0  0  0  0  0  0  0  0  0
    2.0198    1.6455   -0.9441 H   0  0  0  0  0  0  0  0  0  0  0  0
    6.9737   -2.3129   -1.0731 H   0  0  0  0  0  0  0  0  0  0  0  0
    7.1509   -1.4982   -2.7198 H   0  0  0  0  0  0  0  0  0  0  0  0
    5.6430   -2.4875   -2.3345 H   0  0  0  0  0  0  0  0  0  0  0  0
    8.3566   -0.7568   -0.9798 H   0  0  0  0  0  0  0  0  0  0  0  0
  1  2  1  0
  2  3  1  0
  3  4  2  0
  3  5  1  0
  5  6  1  0
  6  7  2  0
  7  8  1  0
  8  9  2  0
  9 10  1  0
 10 11  1  0
 11 12  1  0
 12 13  2  0
 13 14  1  0
 14 15  2  0
 15 16  1  0
 16 17  1  0
 17 18  1  0
 18 19  2  0
 18 20  1  0
 20 21  2  0
 21 22  1  0
 22 23  2  0
 23 24  1  0
 24 25  2  0
 23 26  1  0
 26 27  1  0
 27 28  1  0
 28 29  1  0
 29 30  1  0
 30 31  1  0
 29 32  1  0
 32 33  1  0
 32 34  1  0
 16 35  2  0
 10 36  2  0
 36 37  1  0
 37 38  1  0
 36 39  1  0
 39 40  2  0
 40  5  1  0
 40  8  1  0
 35 12  1  0
 25 20  1  0
 31 26  1  0
  1 41  1  0
  1 42  1  0
  1 43  1  0
  2 44  1  0
  6 45  1  0
  7 46  1  0
  9 47  1  0
 13 48  1  0
 14 49  1  0
 17 50  1  0
 21 51  1  0
 22 52  1  0
 24 53  1  0
 25 54  1  0
 26 55  1  0
 27 56  1  0
 27 57  1  0
 28 58  1  0
 28 59  1  0
 30 60  1  0
 30 61  1  0
 31 62  1  0
 31 63  1  0
 32 64  1  0
 33 65  1  0
 33 66  1  0
 33 67  1  0
 34 68  1  0
 34 69  1  0
 34 70  1  0
 35 71  1  0
 38 72  1  0
 38 73  1  0
 38 74  1  0
 39 75  1  0
M  END
$$$$
[H]Oc1c([H])c([H])c(F)c([H])c1-c1nc([H])c(N([H])[C@]([H])(c2c([H])c([H])c([H])c([H])c2[H])C([H])([H])O[H])c([H])c1-c1c([H])c([H])c2c(c(C([H])([H])[H])nn2[H])c1[H]
     RDKit          3D

 57 61  0  0  0  0  0  0  0  0999 V2000
   -2.4146   -2.8376    3.8564 C   0  0  0  0  0  0  0  0  0  0  0  0
   -3.3597   -2.5087    2.7708 C   0  0  0  0  0  0  0  0  0  0  0  0
   -4.6019   -2.9395    2.5113 N   0  0  0  0  0  0  0  0  0  0  0  0
   -5.0982   -2.3765    1.4123 N   0  0  0  0  0  0  0  0  0  0  0  0
   -4.1821   -1.5317    0.8897 C   0  0  0  0  0  0  0  0  0  0  0  0
   -4.1810   -0.7068   -0.2290 C   0  0  0  0  0  0  0  0  0  0  0  0
   -3.0801    0.0640   -0.5280 C   0  0  0  0  0  0  0  0  0  0  0  0
   -1.9880   -0.0024    0.3039 C   0  0  0  0  0  0  0  0  0  0  0  0
   -2.0091   -0.8438    1.4315 C   0  0  0  0  0  0  0  0  0  0  0  0
   -3.0956   -1.6079    1.7301 C   0  0  0  0  0  0  0  0  0  0  0  0
   -0.8039    0.7930    0.0253 C   0  0  0  0  0  0  0  0  0  0  0  0
    0.4110    0.2043   -0.2654 C   0  0  0  0  0  0  0  0  0  0  0  0
    1.5408    0.9951   -0.5243 C   0  0  0  0  0  0  0  0  0  0  0  0
    2.7795    0.4011   -0.8237 N   0  0  0  0  0  0  0  0  0  0  0  0
    3.0269   -0.9891   -1.0723 C   0  0  1  0  0  0  0  0  0  0  0  0
    2.3936   -1.5147   -2.3387 C   0  0  0  0  0  0  0  0  0  0  0  0
    2.7056   -2.8856   -2.4610 O   0  0  0  0  0  0  0  0  0  0  0  0
    4.4996   -1.2308   -1.1835 C   0  0  0  0  0  0  0  0  0  0  0  0
    5.3010   -0.3772   -1.9100 C   0  0  0  0  0  0  0  0  0  0  0  0
    6.6499   -0.6015   -2.0082 C   0  0  0  0  0  0  0  0  0  0  0  0
    7.2349   -1.6829   -1.3847 C   0  0  0  0  0  0  0  0  0  0  0  0
    6.4267   -2.5551   -0.6445 C   0  0  0  0  0  0  0  0  0  0  0  0
    5.0844   -2.3091   -0.5622 C   0  0  0  0  0  0  0  0  0  0  0  0
    1.4070    2.3665   -0.4808 C   0  0  0  0  0  0  0  0  0  0  0  0
    0.2361    2.9246   -0.2007 N   0  0  0  0  0  0  0  0  0  0  0  0
   -0.8623    2.1537    0.0511 C   0  0  0  0  0  0  0  0  0  0  0  0
   -2.0768    2.8607    0.3593 C   0  0  0  0  0  0  0  0  0  0  0  0
   -2.6448    2.7563    1.6024 C   0  0  0  0  0  0  0  0  0  0  0  0
   -3.8205    3.4601    1.8934 C   0  0  0  0  0  0  0  0  0  0  0  0
   -4.3899    3.3651    3.1177 F   0  0  0  0  0  0  0  0  0  0  0  0
   -4.4156    4.2567    0.9493 C   0  0  0  0  0  0  0  0  0  0  0  0
   -3.8378    4.3535   -0.2921 C   0  0  0  0  0  0  0  0  0  0  0  0
   -2.6722    3.6550   -0.5804 C   0  0  0  0  0  0  0  0  0  0  0  0
   -2.1254    3.7824   -1.8503 O   0  0  0  0  0  0  0  0  0  0  0  0
   -2.5169   -3.9359    4.0759 H   0  0  0  0  0  0  0  0  0  0  0  0
   -1.3547   -2.7132    3.5074 H   0  0  0  0  0  0  0  0  0  0  0  0
   -2.5141   -2.2209    4.7496 H   0  0  0  0  0  0  0  0  0  0  0  0
   -6.0459   -2.5249    0.9702 H   0  0  0  0  0  0  0  0  0  0  0  0
   -5.0502   -0.6745   -0.8622 H   0  0  0  0  0  0  0  0  0  0  0  0
   -3.0696    0.7133   -1.4210 H   0  0  0  0  0  0  0  0  0  0  0  0
   -1.1108   -0.8659    2.0709 H   0  0  0  0  0  0  0  0  0  0  0  0
    0.4369   -0.8694   -0.2729 H   0  0  0  0  0  0  0  0  0  0  0  0
    3.6124    1.0638   -0.8650 H   0  0  0  0  0  0  0  0  0  0  0  0
    2.6667   -1.6151   -0.2139 H   0  0  0  0  0  0  0  0  0  0  0  0
    1.3080   -1.4015   -2.3954 H   0  0  0  0  0  0  0  0  0  0  0  0
    2.8411   -1.0223   -3.2442 H   0  0  0  0  0  0  0  0  0  0  0  0
    1.8705   -3.3971   -2.7151 H   0  0  0  0  0  0  0  0  0  0  0  0
    4.8153    0.4774   -2.3979 H   0  0  0  0  0  0  0  0  0  0  0  0
    7.2703    0.0954   -2.5946 H   0  0  0  0  0  0  0  0  0  0  0  0
    8.2832   -1.8541   -1.4637 H   0  0  0  0  0  0  0  0  0  0  0  0
    6.8840   -3.4146   -0.1473 H   0  0  0  0  0  0  0  0  0  0  0  0
    4.4889   -3.0146    0.0256 H   0  0  0  0  0  0  0  0  0  0  0  0
    2.2542    3.0407   -0.6746 H   0  0  0  0  0  0  0  0  0  0  0  0
   -2.1959    2.1398    2.3640 H   0  0  0  0  0  0  0  0  0  0  0  0
   -5.3403    4.7989    1.2035 H   0  0  0  0  0  0  0  0  0  0  0  0
   -4.2671    4.9691   -1.0722 H   0  0  0  0  0  0  0  0  0  0  0  0
   -1.3036    3.3347   -2.1919 H   0  0  0  0  0  0  0  0  0  0  0  0
  1  2  1  0
  2  3  2  0
  3  4  1  0
  4  5  1  0
  5  6  2  0
  6  7  1  0
  7  8  2  0
  8  9  1  0
  9 10  2  0
  8 11  1  0
 11 12  2  0
 12 13  1  0
 13 14  1  0
 14 15  1  0
 15 16  1  0
 16 17  1  0
 15 18  1  0
 18 19  2  0
 19 20  1  0
 20 21  2  0
 21 22  1  0
 22 23  2  0
 13 24  2  0
 24 25  1  0
 25 26  2  0
 26 27  1  0
 27 28  2  0
 28 29  1  0
 29 30  1  0
 29 31  2  0
 31 32  1  0
 32 33  2  0
 33 34  1  0
 10  2  1  0
 26 11  1  0
 33 27  1  0
 10  5  1  0
 23 18  1  0
  1 35  1  0
  1 36  1  0
  1 37  1  0
  4 38  1  0
  6 39  1  0
  7 40  1  0
  9 41  1  0
 12 42  1  0
 14 43  1  0
 15 44  1  1
 16 45  1  0
 16 46  1  0
 17 47  1  0
 19 48  1  0
 20 49  1  0
 21 50  1  0
 22 51  1  0
 23 52  1  0
 24 53  1  0
 28 54  1  0
 31 55  1  0
 32 56  1  0
 34 57  1  0
M  END
$$$$
[H]c1nc(N([H])[H])c2c(-c3sc4c(OC([H])([H])[H])c([H])c(C([H])([H])[H])c([H])c4c3[H])c(C([H])([H])OC([H])([H])C([H])([H])[H])c(C(=O)N3C([H])([H])C([H])([H])N(C([H])([H])[H])C([H])([H])C3([H])[H])n2n1
     RDKit          3D

 65 69  0  0  0  0  0  0  0  0999 V2000
   -1.5739   -4.9926   -1.4110 C   0  0  0  0  0  0  0  0  0  0  0  0
   -0.6418   -4.3104   -0.4117 C   0  0  0  0  0  0  0  0  0  0  0  0
   -0.2205   -3.1620   -0.6671 O   0  0  0  0  0  0  0  0  0  0  0  0
   -0.2001   -1.9049   -0.8729 C   0  0  0  0  0  0  0  0  0  0  0  0
   -0.5752   -1.0018    0.3081 C   0  0  0  0  0  0  0  0  0  0  0  0
    0.4460   -0.3902    0.9648 C   0  0  0  0  0  0  0  0  0  0  0  0
    1.8434   -0.2108    0.5870 C   0  0  0  0  0  0  0  0  0  0  0  0
    3.0392   -0.3974    1.1980 C   0  0  0  0  0  0  0  0  0  0  0  0
    4.1527   -0.0103    0.5367 C   0  0  0  0  0  0  0  0  0  0  0  0
    5.4739   -0.0172    1.0427 C   0  0  0  0  0  0  0  0  0  0  0  0
    6.5248    0.4958    0.3238 C   0  0  0  0  0  0  0  0  0  0  0  0
    7.9194    0.4878    0.9302 C   0  0  0  0  0  0  0  0  0  0  0  0
    6.3416    1.0433   -0.9253 C   0  0  0  0  0  0  0  0  0  0  0  0
    5.0738    1.0636   -1.4401 C   0  0  0  0  0  0  0  0  0  0  0  0
    4.7316    1.5835   -2.6571 O   0  0  0  0  0  0  0  0  0  0  0  0
    5.6034    2.2086   -3.5297 C   0  0  0  0  0  0  0  0  0  0  0  0
    3.9864    0.5283   -0.7003 C   0  0  0  0  0  0  0  0  0  0  0  0
    2.3183    0.4983   -0.9443 S   0  0  0  0  0  0  0  0  0  0  0  0
   -0.1091    0.3836    1.9671 C   0  0  0  0  0  0  0  0  0  0  0  0
    0.3964    1.1919    2.9535 C   0  0  0  0  0  0  0  0  0  0  0  0
    1.7605    1.4982    3.1230 N   0  0  0  0  0  0  0  0  0  0  0  0
   -0.4176    1.8302    3.8487 N   0  0  0  0  0  0  0  0  0  0  0  0
   -1.7343    1.6482    3.7538 C   0  0  0  0  0  0  0  0  0  0  0  0
   -2.1614    0.8747    2.7914 N   0  0  0  0  0  0  0  0  0  0  0  0
   -1.4707    0.2179    1.8748 N   0  0  0  0  0  0  0  0  0  0  0  0
   -1.7744   -0.6213    0.8497 C   0  0  0  0  0  0  0  0  0  0  0  0
   -3.0829   -0.9594    0.3506 C   0  0  0  0  0  0  0  0  0  0  0  0
   -3.2262   -2.0667   -0.2496 O   0  0  0  0  0  0  0  0  0  0  0  0
   -4.2747   -0.1892    0.4219 N   0  0  0  0  0  0  0  0  0  0  0  0
   -4.4985    1.1218    0.9142 C   0  0  0  0  0  0  0  0  0  0  0  0
   -5.6398    1.8151    0.1456 C   0  0  0  0  0  0  0  0  0  0  0  0
   -5.7345    1.4083   -1.1917 N   0  0  0  0  0  0  0  0  0  0  0  0
   -5.3286    2.3090   -2.2073 C   0  0  0  0  0  0  0  0  0  0  0  0
   -5.6693    0.0201   -1.4645 C   0  0  0  0  0  0  0  0  0  0  0  0
   -5.5110   -0.7916   -0.1774 C   0  0  0  0  0  0  0  0  0  0  0  0
   -1.4319   -4.5151   -2.4083 H   0  0  0  0  0  0  0  0  0  0  0  0
   -1.3482   -6.0662   -1.5092 H   0  0  0  0  0  0  0  0  0  0  0  0
   -2.6028   -4.8835   -1.0463 H   0  0  0  0  0  0  0  0  0  0  0  0
    0.1857   -5.0735   -0.2253 H   0  0  0  0  0  0  0  0  0  0  0  0
   -1.2123   -4.4218    0.6043 H   0  0  0  0  0  0  0  0  0  0  0  0
    0.5741   -1.4764   -1.5271 H   0  0  0  0  0  0  0  0  0  0  0  0
   -1.1706   -1.6218   -1.5746 H   0  0  0  0  0  0  0  0  0  0  0  0
    3.0611   -0.8913    2.2160 H   0  0  0  0  0  0  0  0  0  0  0  0
    5.7030   -0.4045    2.0216 H   0  0  0  0  0  0  0  0  0  0  0  0
    8.5398   -0.3113    0.5127 H   0  0  0  0  0  0  0  0  0  0  0  0
    8.4056    1.4723    0.8271 H   0  0  0  0  0  0  0  0  0  0  0  0
    7.8508    0.3226    2.0382 H   0  0  0  0  0  0  0  0  0  0  0  0
    7.1937    1.4291   -1.4639 H   0  0  0  0  0  0  0  0  0  0  0  0
    6.5732    2.4896   -3.0178 H   0  0  0  0  0  0  0  0  0  0  0  0
    5.1820    3.2597   -3.7513 H   0  0  0  0  0  0  0  0  0  0  0  0
    5.8475    1.7298   -4.4655 H   0  0  0  0  0  0  0  0  0  0  0  0
    2.3005    0.9628    3.8580 H   0  0  0  0  0  0  0  0  0  0  0  0
    2.1868    2.2492    2.5192 H   0  0  0  0  0  0  0  0  0  0  0  0
   -2.4417    2.1204    4.4225 H   0  0  0  0  0  0  0  0  0  0  0  0
   -3.6009    1.7887    0.7624 H   0  0  0  0  0  0  0  0  0  0  0  0
   -4.8202    1.1353    1.9417 H   0  0  0  0  0  0  0  0  0  0  0  0
   -6.5945    1.7632    0.6865 H   0  0  0  0  0  0  0  0  0  0  0  0
   -5.3427    2.9051    0.1474 H   0  0  0  0  0  0  0  0  0  0  0  0
   -5.6112    1.8648   -3.2095 H   0  0  0  0  0  0  0  0  0  0  0  0
   -5.9215    3.2675   -2.1456 H   0  0  0  0  0  0  0  0  0  0  0  0
   -4.2692    2.5948   -2.2325 H   0  0  0  0  0  0  0  0  0  0  0  0
   -4.7238   -0.1827   -2.0213 H   0  0  0  0  0  0  0  0  0  0  0  0
   -6.5410   -0.3193   -2.0321 H   0  0  0  0  0  0  0  0  0  0  0  0
   -5.3668   -1.8370   -0.4309 H   0  0  0  0  0  0  0  0  0  0  0  0
   -6.3712   -0.5528    0.4680 H   0  0  0  0  0  0  0  0  0  0  0  0
  1  2  1  0
  2  3  1  0
  3  4  1  0
  4  5  1  0
  5  6  1  0
  6  7  1  0
  7  8  2  0
  8  9  1  0
  9 10  2  0
 10 11  1  0
 11 12  1  0
 11 13  2  0
 13 14  1  0
 14 15  1  0
 15 16  1  0
 14 17  2  0
 17 18  1  0
  6 19  2  0
 19 20  1  0
 20 21  1  0
 20 22  2  0
 22 23  1  0
 23 24  2  0
 24 25  1  0
 25 26  1  0
 26 27  1  0
 27 28  2  0
 27 29  1  0
 29 30  1  0
 30 31  1  0
 31 32  1  0
 32 33  1  0
 32 34  1  0
 34 35  1  0
 26  5  2  0
 35 29  1  0
 18  7  1  0
 25 19  1  0
 17  9  1  0
  1 36  1  0
  1 37  1  0
  1 38  1  0
  2 39  1  0
  2 40  1  0
  4 41  1  0
  4 42  1  0
  8 43  1  0
 10 44  1  0
 12 45  1  0
 12 46  1  0
 12 47  1  0
 13 48  1  0
 16 49  1  0
 16 50  1  0
 16 51  1  0
 21 52  1  0
 21 53  1  0
 23 54  1  0
 30 55  1  0
 30 56  1  0
 31 57  1  0
 31 58  1  0
 33 59  1  0
 33 60  1  0
 33 61  1  0
 34 62  1  0
 34 63  1  0
 35 64  1  0
 35 65  1  0
M  END
$$$$
[H]c1nc(N([H])[H])c2c(-c3sc4c(OC([H])([H])[H])c([H])c(C([H])([H])[H])c([H])c4c3[H])c(C([H])([H])OC([H])([H])C([H])([H])[H])c(C(=O)N3C([H])([H])C([H])([H])OC([H])([H])C3([H])[H])n2n1
     RDKit          3D

 61 65  0  0  0  0  0  0  0  0999 V2000
   -1.5338   -3.8007   -4.2556 C   0  0  0  0  0  0  0  0  0  0  0  0
   -2.3255   -3.2793   -2.9885 C   0  0  0  0  0  0  0  0  0  0  0  0
   -1.7996   -2.2720   -2.5015 O   0  0  0  0  0  0  0  0  0  0  0  0
   -1.2470   -1.2037   -2.0128 C   0  0  0  0  0  0  0  0  0  0  0  0
   -1.1675   -1.1367   -0.5183 C   0  0  0  0  0  0  0  0  0  0  0  0
   -0.1309   -1.1597    0.2797 C   0  0  0  0  0  0  0  0  0  0  0  0
    1.2952   -0.7985   -0.0229 C   0  0  0  0  0  0  0  0  0  0  0  0
    1.7250    0.4940    0.4459 C   0  0  0  0  0  0  0  0  0  0  0  0
    2.9470    0.8719    0.2546 C   0  0  0  0  0  0  0  0  0  0  0  0
    3.5936    2.0698    0.7283 C   0  0  0  0  0  0  0  0  0  0  0  0
    4.9326    2.2744    0.5392 C   0  0  0  0  0  0  0  0  0  0  0  0
    5.4823    3.5471    1.1971 C   0  0  0  0  0  0  0  0  0  0  0  0
    5.7762    1.4217   -0.0841 C   0  0  0  0  0  0  0  0  0  0  0  0
    5.1386    0.2304   -0.5629 C   0  0  0  0  0  0  0  0  0  0  0  0
    5.8402   -0.7273   -1.2280 O   0  0  0  0  0  0  0  0  0  0  0  0
    7.2388   -0.6083   -1.3733 C   0  0  0  0  0  0  0  0  0  0  0  0
    3.7788   -0.0149   -0.3863 C   0  0  0  0  0  0  0  0  0  0  0  0
    2.6996   -1.3312   -0.6757 S   0  0  0  0  0  0  0  0  0  0  0  0
   -0.5568   -1.1111    1.6641 C   0  0  0  0  0  0  0  0  0  0  0  0
    0.2011   -1.2558    2.8337 C   0  0  0  0  0  0  0  0  0  0  0  0
    1.5850   -1.3914    2.7663 N   0  0  0  0  0  0  0  0  0  0  0  0
   -0.5064   -1.3399    3.9642 N   0  0  0  0  0  0  0  0  0  0  0  0
   -1.8196   -1.2970    3.9441 C   0  0  0  0  0  0  0  0  0  0  0  0
   -2.5538   -1.1472    2.7840 N   0  0  0  0  0  0  0  0  0  0  0  0
   -1.8985   -1.0334    1.6225 N   0  0  0  0  0  0  0  0  0  0  0  0
   -2.3158   -1.0080    0.3609 C   0  0  0  0  0  0  0  0  0  0  0  0
   -3.5151   -0.5554   -0.2729 C   0  0  0  0  0  0  0  0  0  0  0  0
   -3.9335   -0.9322   -1.4086 O   0  0  0  0  0  0  0  0  0  0  0  0
   -4.3577    0.4644    0.2963 N   0  0  0  0  0  0  0  0  0  0  0  0
   -4.6112    1.0850    1.5153 C   0  0  0  0  0  0  0  0  0  0  0  0
   -5.7140    2.1290    1.3219 C   0  0  0  0  0  0  0  0  0  0  0  0
   -5.1443    3.2704    0.7029 O   0  0  0  0  0  0  0  0  0  0  0  0
   -4.3442    2.7899   -0.3328 C   0  0  0  0  0  0  0  0  0  0  0  0
   -4.7389    1.4745   -0.8682 C   0  0  0  0  0  0  0  0  0  0  0  0
   -1.4563   -2.9586   -4.9777 H   0  0  0  0  0  0  0  0  0  0  0  0
   -0.5205   -4.0211   -3.8748 H   0  0  0  0  0  0  0  0  0  0  0  0
   -1.9801   -4.7000   -4.6728 H   0  0  0  0  0  0  0  0  0  0  0  0
   -3.3941   -3.3680   -3.2931 H   0  0  0  0  0  0  0  0  0  0  0  0
   -2.2487   -4.2476   -2.3288 H   0  0  0  0  0  0  0  0  0  0  0  0
   -0.2986   -0.8811   -2.5152 H   0  0  0  0  0  0  0  0  0  0  0  0
   -1.9741   -0.3016   -2.2375 H   0  0  0  0  0  0  0  0  0  0  0  0
    0.9122    1.1181    0.9598 H   0  0  0  0  0  0  0  0  0  0  0  0
    3.0059    2.8229    1.2457 H   0  0  0  0  0  0  0  0  0  0  0  0
    5.4042    3.3459    2.3221 H   0  0  0  0  0  0  0  0  0  0  0  0
    6.4939    3.7353    0.8805 H   0  0  0  0  0  0  0  0  0  0  0  0
    4.8033    4.3897    0.9996 H   0  0  0  0  0  0  0  0  0  0  0  0
    6.7831    1.5913   -0.2134 H   0  0  0  0  0  0  0  0  0  0  0  0
    7.5490   -1.4965   -1.9355 H   0  0  0  0  0  0  0  0  0  0  0  0
    7.6009    0.3635   -1.6503 H   0  0  0  0  0  0  0  0  0  0  0  0
    7.7845   -0.7771   -0.3610 H   0  0  0  0  0  0  0  0  0  0  0  0
    2.2650   -0.7219    3.1854 H   0  0  0  0  0  0  0  0  0  0  0  0
    2.0412   -2.2155    2.3146 H   0  0  0  0  0  0  0  0  0  0  0  0
   -2.2885   -1.3802    4.9433 H   0  0  0  0  0  0  0  0  0  0  0  0
   -5.0389    0.3904    2.2977 H   0  0  0  0  0  0  0  0  0  0  0  0
   -3.7671    1.6106    1.9744 H   0  0  0  0  0  0  0  0  0  0  0  0
   -6.0597    2.4819    2.3126 H   0  0  0  0  0  0  0  0  0  0  0  0
   -6.5525    1.7895    0.7436 H   0  0  0  0  0  0  0  0  0  0  0  0
   -3.3093    2.6794    0.1214 H   0  0  0  0  0  0  0  0  0  0  0  0
   -4.2621    3.5792   -1.1188 H   0  0  0  0  0  0  0  0  0  0  0  0
   -3.8676    1.2276   -1.6012 H   0  0  0  0  0  0  0  0  0  0  0  0
   -5.6453    1.2253   -1.2494 H   0  0  0  0  0  0  0  0  0  0  0  0
  1  2  1  0
  2  3  1  0
  3  4  1  0
  4  5  1  0
  5  6  1  0
  6  7  1  0
  7  8  2  0
  8  9  1  0
  9 10  2  0
 10 11  1  0
 11 12  1  0
 11 13  2  0
 13 14  1  0
 14 15  1  0
 15 16  1  0
 14 17  2  0
 17 18  1  0
  6 19  2  0
 19 20  1  0
 20 21  1  0
 20 22  2  0
 22 23  1  0
 23 24  2  0
 24 25  1  0
 25 26  1  0
 26 27  1  0
 27 28  2  0
 27 29  1  0
 29 30  1  0
 30 31  1  0
 31 32  1  0
 32 33  1  0
 33 34  1  0
 26  5  2  0
 34 29  1  0
 18  7  1  0
 25 19  1  0
 17  9  1  0
  1 35  1  0
  1 36  1  0
  1 37  1  0
  2 38  1  0
  2 39  1  0
  4 40  1  0
  4 41  1  0
  8 42  1  0
 10 43  1  0
 12 44  1  0
 12 45  1  0
 12 46  1  0
 13 47  1  0
 16 48  1  0
 16 49  1  0
 16 50  1  0
 21 51  1  0
 21 52  1  0
 23 53  1  0
 30 54  1  0
 30 55  1  0
 31 56  1  0
 31 57  1  0
 33 58  1  0
 33 59  1  0
 34 60  1  0
 34 61  1  0
M  END
$$$$
[H]c1nc(N([H])[H])c(-c2nn(-c3c([H])c(OC([H])([H])[H])c([H])c(OC([H])([H])[H])c3[H])c(=O)c([H])c2[H])nc1-c1c([H])nn(C2([H])C([H])([H])C([H])([H])N(C([H])([H])[H])C([H])([H])C2([H])[H])c1[H]
     RDKit          3D

 64 68  0  0  0  0  0  0  0  0999 V2000
  -10.0129   -1.0619   -0.9267 C   0  0  0  0  0  0  0  0  0  0  0  0
   -8.7417   -1.0327   -1.5035 O   0  0  0  0  0  0  0  0  0  0  0  0
   -7.7216   -0.2237   -1.0014 C   0  0  0  0  0  0  0  0  0  0  0  0
   -7.9031    0.5831    0.0903 C   0  0  0  0  0  0  0  0  0  0  0  0
   -6.8288    1.3610    0.5360 C   0  0  0  0  0  0  0  0  0  0  0  0
   -7.0976    2.1335    1.6381 O   0  0  0  0  0  0  0  0  0  0  0  0
   -6.1144    2.9724    2.2008 C   0  0  0  0  0  0  0  0  0  0  0  0
   -5.6214    1.3027   -0.1246 C   0  0  0  0  0  0  0  0  0  0  0  0
   -5.4204    0.4999   -1.2207 C   0  0  0  0  0  0  0  0  0  0  0  0
   -6.4959   -0.2682   -1.6542 C   0  0  0  0  0  0  0  0  0  0  0  0
   -4.1857    0.4053   -1.9425 N   0  0  0  0  0  0  0  0  0  0  0  0
   -3.0579    0.1118   -1.4067 N   0  0  0  0  0  0  0  0  0  0  0  0
   -1.8783   -0.0280   -2.0964 C   0  0  0  0  0  0  0  0  0  0  0  0
   -1.9633    0.1782   -3.4836 C   0  0  0  0  0  0  0  0  0  0  0  0
   -3.1391    0.4895   -4.0758 C   0  0  0  0  0  0  0  0  0  0  0  0
   -4.2618    0.6028   -3.2920 C   0  0  0  0  0  0  0  0  0  0  0  0
   -5.3471    0.8886   -3.8470 O   0  0  0  0  0  0  0  0  0  0  0  0
   -0.6367   -0.0999   -1.4596 C   0  0  0  0  0  0  0  0  0  0  0  0
    0.4386   -0.1621   -0.9083 N   0  0  0  0  0  0  0  0  0  0  0  0
    1.5926   -0.5383   -0.5523 C   0  0  0  0  0  0  0  0  0  0  0  0
    1.9019   -1.7512   -1.2952 C   0  0  0  0  0  0  0  0  0  0  0  0
    0.8690   -2.0314   -2.0778 N   0  0  0  0  0  0  0  0  0  0  0  0
   -0.2518   -1.5489   -2.3337 C   0  0  0  0  0  0  0  0  0  0  0  0
   -1.2707   -2.0183   -3.1028 N   0  0  0  0  0  0  0  0  0  0  0  0
    2.5109    0.0430    0.3584 C   0  0  0  0  0  0  0  0  0  0  0  0
    2.3915    1.1528    1.1463 C   0  0  0  0  0  0  0  0  0  0  0  0
    3.5086    1.3286    1.8182 N   0  0  0  0  0  0  0  0  0  0  0  0
    4.3933    0.3599    1.5169 N   0  0  0  0  0  0  0  0  0  0  0  0
    3.7962   -0.4305    0.6255 C   0  0  0  0  0  0  0  0  0  0  0  0
    5.7288    0.2229    2.0721 C   0  0  0  0  0  0  0  0  0  0  0  0
    6.0743   -1.2174    2.2843 C   0  0  0  0  0  0  0  0  0  0  0  0
    7.5088   -1.4601    2.6155 C   0  0  0  0  0  0  0  0  0  0  0  0
    8.4322   -0.5711    2.0583 N   0  0  0  0  0  0  0  0  0  0  0  0
    9.7141   -0.4468    2.6295 C   0  0  0  0  0  0  0  0  0  0  0  0
    8.0400    0.3256    1.0553 C   0  0  0  0  0  0  0  0  0  0  0  0
    6.6850    0.9161    1.1609 C   0  0  0  0  0  0  0  0  0  0  0  0
  -10.0492   -1.3286    0.1330 H   0  0  0  0  0  0  0  0  0  0  0  0
  -10.7296   -1.6826   -1.5392 H   0  0  0  0  0  0  0  0  0  0  0  0
  -10.4181   -0.0045   -0.9916 H   0  0  0  0  0  0  0  0  0  0  0  0
   -8.8477    0.6069    0.5927 H   0  0  0  0  0  0  0  0  0  0  0  0
   -6.0385    3.9365    1.6044 H   0  0  0  0  0  0  0  0  0  0  0  0
   -5.1466    2.4521    2.2138 H   0  0  0  0  0  0  0  0  0  0  0  0
   -6.3682    3.3043    3.2343 H   0  0  0  0  0  0  0  0  0  0  0  0
   -4.7984    1.9116    0.2297 H   0  0  0  0  0  0  0  0  0  0  0  0
   -6.3621   -0.9117   -2.5315 H   0  0  0  0  0  0  0  0  0  0  0  0
   -1.0597    0.1346   -4.0677 H   0  0  0  0  0  0  0  0  0  0  0  0
   -3.1855    0.6469   -5.1493 H   0  0  0  0  0  0  0  0  0  0  0  0
    2.7741   -2.2357   -1.1738 H   0  0  0  0  0  0  0  0  0  0  0  0
   -2.2270   -2.2845   -2.6781 H   0  0  0  0  0  0  0  0  0  0  0  0
   -1.2437   -2.1909   -4.1487 H   0  0  0  0  0  0  0  0  0  0  0  0
    1.4743    1.7753    1.1913 H   0  0  0  0  0  0  0  0  0  0  0  0
    4.2246   -1.3060    0.1578 H   0  0  0  0  0  0  0  0  0  0  0  0
    5.7083    0.6967    3.0879 H   0  0  0  0  0  0  0  0  0  0  0  0
    5.7687   -1.7850    1.3823 H   0  0  0  0  0  0  0  0  0  0  0  0
    5.4088   -1.6046    3.1119 H   0  0  0  0  0  0  0  0  0  0  0  0
    7.6037   -1.4713    3.7234 H   0  0  0  0  0  0  0  0  0  0  0  0
    7.7697   -2.5162    2.3142 H   0  0  0  0  0  0  0  0  0  0  0  0
    9.9225    0.6599    2.7417 H   0  0  0  0  0  0  0  0  0  0  0  0
    9.8546   -0.9142    3.6018 H   0  0  0  0  0  0  0  0  0  0  0  0
   10.4831   -0.7930    1.8762 H   0  0  0  0  0  0  0  0  0  0  0  0
    8.1076   -0.2032    0.0640 H   0  0  0  0  0  0  0  0  0  0  0  0
    8.7981    1.1596    1.0194 H   0  0  0  0  0  0  0  0  0  0  0  0
    6.7343    1.9860    1.5239 H   0  0  0  0  0  0  0  0  0  0  0  0
    6.2066    0.9745    0.1391 H   0  0  0  0  0  0  0  0  0  0  0  0
  1  2  1  0
  2  3  1  0
  3  4  2  0
  4  5  1  0
  5  6  1  0
  6  7  1  0
  5  8  2  0
  8  9  1  0
  9 10  2  0
  9 11  1  0
 11 12  1  0
 12 13  2  0
 13 14  1  0
 14 15  2  0
 15 16  1  0
 16 17  2  0
 13 18  1  0
 18 19  2  0
 19 20  1  0
 20 21  2  0
 21 22  1  0
 22 23  2  0
 23 24  1  0
 20 25  1  0
 25 26  1  0
 26 27  2  0
 27 28  1  0
 28 29  1  0
 28 30  1  0
 30 31  1  0
 31 32  1  0
 32 33  1  0
 33 34  1  0
 33 35  1  0
 35 36  1  0
 10  3  1  0
 16 11  1  0
 23 18  1  0
 29 25  2  0
 36 30  1  0
  1 37  1  0
  1 38  1  0
  1 39  1  0
  4 40  1  0
  7 41  1  0
  7 42  1  0
  7 43  1  0
  8 44  1  0
 10 45  1  0
 14 46  1  0
 15 47  1  0
 21 48  1  0
 24 49  1  0
 24 50  1  0
 26 51  1  0
 29 52  1  0
 30 53  1  0
 31 54  1  0
 31 55  1  0
 32 56  1  0
 32 57  1  0
 34 58  1  0
 34 59  1  0
 34 60  1  0
 35 61  1  0
 35 62  1  0
 36 63  1  0
 36 64  1  0
M  END
$$$$
[H]OC1([H])C([H])([H])N(C(=O)c2c(C([H])([H])OC([H])([H])C([H])([H])[H])c(-c3sc4c(OC([H])([H])[H])c([H])c(C([H])([H])[H])c([H])c4c3[H])c3c(N([H])[H])nc([H])nn23)C1([H])[H]
     RDKit          3D

 58 62  0  0  0  0  0  0  0  0999 V2000
    1.0205    2.8529   -3.1361 C   0  0  0  0  0  0  0  0  0  0  0  0
    1.8685    1.6121   -3.3860 C   0  0  0  0  0  0  0  0  0  0  0  0
    2.1782    0.9934   -2.1530 O   0  0  0  0  0  0  0  0  0  0  0  0
    1.0789    0.6084   -1.4737 C   0  0  0  0  0  0  0  0  0  0  0  0
    1.3022   -0.0439   -0.1878 C   0  0  0  0  0  0  0  0  0  0  0  0
    0.2204   -0.5447    0.5568 C   0  0  0  0  0  0  0  0  0  0  0  0
   -1.2083   -0.3378    0.2356 C   0  0  0  0  0  0  0  0  0  0  0  0
   -1.8399    0.8587    0.0170 C   0  0  0  0  0  0  0  0  0  0  0  0
   -3.1759    0.8401   -0.1907 C   0  0  0  0  0  0  0  0  0  0  0  0
   -4.0087    1.9561   -0.4344 C   0  0  0  0  0  0  0  0  0  0  0  0
   -5.3397    1.7786   -0.6250 C   0  0  0  0  0  0  0  0  0  0  0  0
   -6.2166    2.9653   -0.8824 C   0  0  0  0  0  0  0  0  0  0  0  0
   -5.9829    0.5507   -0.6014 C   0  0  0  0  0  0  0  0  0  0  0  0
   -5.1797   -0.5337   -0.3657 C   0  0  0  0  0  0  0  0  0  0  0  0
   -5.6250   -1.8440   -0.3029 O   0  0  0  0  0  0  0  0  0  0  0  0
   -6.9415   -2.2631   -0.4660 C   0  0  0  0  0  0  0  0  0  0  0  0
   -3.7948   -0.3714   -0.1652 C   0  0  0  0  0  0  0  0  0  0  0  0
   -2.5136   -1.4457    0.1442 S   0  0  0  0  0  0  0  0  0  0  0  0
    0.7566   -1.1639    1.6503 C   0  0  0  0  0  0  0  0  0  0  0  0
    0.2179   -1.8150    2.7597 C   0  0  0  0  0  0  0  0  0  0  0  0
   -1.1927   -1.9225    2.8969 N   0  0  0  0  0  0  0  0  0  0  0  0
    1.0200   -2.3096    3.7200 N   0  0  0  0  0  0  0  0  0  0  0  0
    2.3544   -2.1924    3.6435 C   0  0  0  0  0  0  0  0  0  0  0  0
    2.8235   -1.5595    2.5631 N   0  0  0  0  0  0  0  0  0  0  0  0
    2.1093   -1.0509    1.5853 N   0  0  0  0  0  0  0  0  0  0  0  0
    2.4609   -0.3569    0.4527 C   0  0  0  0  0  0  0  0  0  0  0  0
    3.8336    0.0443    0.2358 C   0  0  0  0  0  0  0  0  0  0  0  0
    3.9996    1.0787   -0.5344 O   0  0  0  0  0  0  0  0  0  0  0  0
    5.0201   -0.5435    0.7456 N   0  0  0  0  0  0  0  0  0  0  0  0
    6.4153   -0.0382    0.5290 C   0  0  0  0  0  0  0  0  0  0  0  0
    6.8771   -1.4561    0.5967 C   0  0  0  0  0  0  0  0  0  0  0  0
    8.0734   -1.6848    1.2320 O   0  0  0  0  0  0  0  0  0  0  0  0
    5.6333   -1.6130    1.4670 C   0  0  0  0  0  0  0  0  0  0  0  0
    1.1429    3.6053   -3.9375 H   0  0  0  0  0  0  0  0  0  0  0  0
    1.2992    3.3248   -2.1752 H   0  0  0  0  0  0  0  0  0  0  0  0
   -0.0582    2.6191   -3.0703 H   0  0  0  0  0  0  0  0  0  0  0  0
    1.2776    0.9158   -3.9886 H   0  0  0  0  0  0  0  0  0  0  0  0
    2.7971    1.9590   -3.8815 H   0  0  0  0  0  0  0  0  0  0  0  0
    0.4598   -0.1465   -2.0841 H   0  0  0  0  0  0  0  0  0  0  0  0
    0.3313    1.4622   -1.3970 H   0  0  0  0  0  0  0  0  0  0  0  0
   -1.2233    1.7920    0.0594 H   0  0  0  0  0  0  0  0  0  0  0  0
   -3.6151    2.9573   -0.4741 H   0  0  0  0  0  0  0  0  0  0  0  0
   -5.8219    3.8027   -0.2458 H   0  0  0  0  0  0  0  0  0  0  0  0
   -6.1787    3.2353   -1.9599 H   0  0  0  0  0  0  0  0  0  0  0  0
   -7.2389    2.7799   -0.5168 H   0  0  0  0  0  0  0  0  0  0  0  0
   -7.0249    0.4140   -0.7506 H   0  0  0  0  0  0  0  0  0  0  0  0
   -7.5573   -1.5325   -1.0092 H   0  0  0  0  0  0  0  0  0  0  0  0
   -7.0157   -3.2294   -1.0386 H   0  0  0  0  0  0  0  0  0  0  0  0
   -7.3442   -2.4917    0.5617 H   0  0  0  0  0  0  0  0  0  0  0  0
   -1.7657   -1.0838    3.1394 H   0  0  0  0  0  0  0  0  0  0  0  0
   -1.6041   -2.8726    2.7582 H   0  0  0  0  0  0  0  0  0  0  0  0
    3.0154   -2.5918    4.4204 H   0  0  0  0  0  0  0  0  0  0  0  0
    6.5518    0.4826   -0.4264 H   0  0  0  0  0  0  0  0  0  0  0  0
    6.7820    0.5137    1.4361 H   0  0  0  0  0  0  0  0  0  0  0  0
    6.8304   -2.0262   -0.3535 H   0  0  0  0  0  0  0  0  0  0  0  0
    8.6895   -0.9496    0.9967 H   0  0  0  0  0  0  0  0  0  0  0  0
    5.1643   -2.6206    1.2962 H   0  0  0  0  0  0  0  0  0  0  0  0
    5.8621   -1.3675    2.5149 H   0  0  0  0  0  0  0  0  0  0  0  0
  1  2  1  0
  2  3  1  0
  3  4  1  0
  4  5  1  0
  5  6  1  0
  6  7  1  0
  7  8  2  0
  8  9  1  0
  9 10  2  0
 10 11  1  0
 11 12  1  0
 11 13  2  0
 13 14  1  0
 14 15  1  0
 15 16  1  0
 14 17  2  0
 17 18  1  0
  6 19  2  0
 19 20  1  0
 20 21  1  0
 20 22  2  0
 22 23  1  0
 23 24  2  0
 24 25  1  0
 25 26  1  0
 26 27  1  0
 27 28  2  0
 27 29  1  0
 29 30  1  0
 30 31  1  0
 31 32  1  0
 31 33  1  0
 26  5  2  0
 33 29  1  0
 18  7  1  0
 25 19  1  0
 17  9  1  0
  1 34  1  0
  1 35  1  0
  1 36  1  0
  2 37  1  0
  2 38  1  0
  4 39  1  0
  4 40  1  0
  8 41  1  0
 10 42  1  0
 12 43  1  0
 12 44  1  0
 12 45  1  0
 13 46  1  0
 16 47  1  0
 16 48  1  0
 16 49  1  0
 21 50  1  0
 21 51  1  0
 23 52  1  0
 30 53  1  0
 30 54  1  0
 31 55  1  0
 32 56  1  0
 33 57  1  0
 33 58  1  0
M  END
$$$$
[H]c1nc(N([H])C(=O)c2c([H])c([H])c(C3([H])C([H])([H])C([H])([H])N(C([H])([H])[H])C([H])([H])C3([H])[H])c([H])c2[H])c([H])c(Oc2c(OC([H])([H])[H])c([H])c3c(c2[H])c([H])c([H])n3C(=O)N([H])C([H])([H])[H])c1[H]
     RDKit          3D

 69 73  0  0  0  0  0  0  0  0999 V2000
   11.8290   -2.8863   -0.5478 C   0  0  0  0  0  0  0  0  0  0  0  0
   10.8835   -1.9477   -0.3279 N   0  0  0  0  0  0  0  0  0  0  0  0
    9.9123   -0.9835   -0.1021 C   0  0  0  0  0  0  0  0  0  0  0  0
   10.0082    0.2342   -0.2081 O   0  0  0  0  0  0  0  0  0  0  0  0
    8.6214   -1.5350    0.3093 N   0  0  0  0  0  0  0  0  0  0  0  0
    8.3550   -2.8335    0.4957 C   0  0  0  0  0  0  0  0  0  0  0  0
    7.0291   -2.9967    0.8308 C   0  0  0  0  0  0  0  0  0  0  0  0
    6.4703   -1.7265    0.8443 C   0  0  0  0  0  0  0  0  0  0  0  0
    5.2069   -1.2688    1.0836 C   0  0  0  0  0  0  0  0  0  0  0  0
    4.9468    0.1128    0.9954 C   0  0  0  0  0  0  0  0  0  0  0  0
    3.6396    0.4179    1.2526 O   0  0  0  0  0  0  0  0  0  0  0  0
    2.7050    0.9219    0.3447 C   0  0  0  0  0  0  0  0  0  0  0  0
    2.9496    1.4909   -0.8328 C   0  0  0  0  0  0  0  0  0  0  0  0
    1.8891    1.9361   -1.6307 C   0  0  0  0  0  0  0  0  0  0  0  0
    0.6383    1.7839   -1.2066 N   0  0  0  0  0  0  0  0  0  0  0  0
    0.3594    1.2131   -0.0297 C   0  0  0  0  0  0  0  0  0  0  0  0
   -1.0015    0.9572    0.3621 N   0  0  0  0  0  0  0  0  0  0  0  0
   -2.0569    1.3353   -0.4883 C   0  0  0  0  0  0  0  0  0  0  0  0
   -1.7723    2.0117   -1.5378 O   0  0  0  0  0  0  0  0  0  0  0  0
   -3.4430    0.9727   -0.2087 C   0  0  0  0  0  0  0  0  0  0  0  0
   -3.8917    0.4079    0.9439 C   0  0  0  0  0  0  0  0  0  0  0  0
   -5.2422    0.0502    1.1276 C   0  0  0  0  0  0  0  0  0  0  0  0
   -6.1479    0.2689    0.1343 C   0  0  0  0  0  0  0  0  0  0  0  0
   -5.7135    0.8488   -1.0583 C   0  0  0  0  0  0  0  0  0  0  0  0
   -4.3950    1.1865   -1.2138 C   0  0  0  0  0  0  0  0  0  0  0  0
   -7.5675   -0.1023    0.3148 C   0  0  0  0  0  0  0  0  0  0  0  0
   -7.9941   -1.1385   -0.6797 C   0  0  0  0  0  0  0  0  0  0  0  0
   -9.4202   -1.0839   -1.0628 C   0  0  0  0  0  0  0  0  0  0  0  0
  -10.2890   -0.3698   -0.2338 N   0  0  0  0  0  0  0  0  0  0  0  0
  -11.4897   -0.9523    0.2039 C   0  0  0  0  0  0  0  0  0  0  0  0
   -9.8304    0.8075    0.3899 C   0  0  0  0  0  0  0  0  0  0  0  0
   -8.4026    1.1529    0.0605 C   0  0  0  0  0  0  0  0  0  0  0  0
    1.3619    0.7684    0.7841 C   0  0  0  0  0  0  0  0  0  0  0  0
    5.9517    0.9715    0.6809 C   0  0  0  0  0  0  0  0  0  0  0  0
    5.6743    2.3544    0.6134 O   0  0  0  0  0  0  0  0  0  0  0  0
    6.5785    3.3387    0.3106 C   0  0  0  0  0  0  0  0  0  0  0  0
    7.2339    0.5276    0.4329 C   0  0  0  0  0  0  0  0  0  0  0  0
    7.4944   -0.8482    0.5155 C   0  0  0  0  0  0  0  0  0  0  0  0
   11.2725   -3.8576   -0.8708 H   0  0  0  0  0  0  0  0  0  0  0  0
   12.5569   -2.7901   -1.3907 H   0  0  0  0  0  0  0  0  0  0  0  0
   12.3438   -3.2506    0.3867 H   0  0  0  0  0  0  0  0  0  0  0  0
   11.8246   -0.9728   -0.5894 H   0  0  0  0  0  0  0  0  0  0  0  0
    9.0876   -3.6405    0.3974 H   0  0  0  0  0  0  0  0  0  0  0  0
    6.4950   -3.9033    1.0487 H   0  0  0  0  0  0  0  0  0  0  0  0
    4.4287   -1.9835    1.3385 H   0  0  0  0  0  0  0  0  0  0  0  0
    3.9619    1.5929   -1.2101 H   0  0  0  0  0  0  0  0  0  0  0  0
    2.1758    2.3902   -2.5656 H   0  0  0  0  0  0  0  0  0  0  0  0
   -1.1915    0.4335    1.2134 H   0  0  0  0  0  0  0  0  0  0  0  0
   -3.1698    0.2310    1.7341 H   0  0  0  0  0  0  0  0  0  0  0  0
   -5.5464   -0.3995    2.0638 H   0  0  0  0  0  0  0  0  0  0  0  0
   -6.4825    0.9856   -1.7934 H   0  0  0  0  0  0  0  0  0  0  0  0
   -4.0683    1.6403   -2.1501 H   0  0  0  0  0  0  0  0  0  0  0  0
   -7.7249   -0.4472    1.3304 H   0  0  0  0  0  0  0  0  0  0  0  0
   -7.6699   -2.1743   -0.3551 H   0  0  0  0  0  0  0  0  0  0  0  0
   -7.3944   -0.9377   -1.6161 H   0  0  0  0  0  0  0  0  0  0  0  0
   -9.5762   -0.7160   -2.1232 H   0  0  0  0  0  0  0  0  0  0  0  0
   -9.8022   -2.1516   -1.1149 H   0  0  0  0  0  0  0  0  0  0  0  0
  -12.0801   -0.2341    0.8124 H   0  0  0  0  0  0  0  0  0  0  0  0
  -11.3780   -1.8586    0.8323 H   0  0  0  0  0  0  0  0  0  0  0  0
  -12.1167   -1.1987   -0.6801 H   0  0  0  0  0  0  0  0  0  0  0  0
  -10.4469    1.6698   -0.0132 H   0  0  0  0  0  0  0  0  0  0  0  0
   -9.9485    0.8611    1.4911 H   0  0  0  0  0  0  0  0  0  0  0  0
   -8.3013    1.4093   -1.0175 H   0  0  0  0  0  0  0  0  0  0  0  0
   -8.0201    1.9768    0.6819 H   0  0  0  0  0  0  0  0  0  0  0  0
    1.1784    0.3132    1.7382 H   0  0  0  0  0  0  0  0  0  0  0  0
    6.4366    4.2534    0.9822 H   0  0  0  0  0  0  0  0  0  0  0  0
    7.6277    3.0336    0.3382 H   0  0  0  0  0  0  0  0  0  0  0  0
    6.4215    3.7689   -0.7328 H   0  0  0  0  0  0  0  0  0  0  0  0
    8.0257    1.2056    0.1721 H   0  0  0  0  0  0  0  0  0  0  0  0
  1  2  1  0
  2  3  1  0
  3  4  2  0
  3  5  1  0
  5  6  1  0
  6  7  2  0
  7  8  1  0
  8  9  2  0
  9 10  1  0
 10 11  1  0
 11 12  1  0
 12 13  2  0
 13 14  1  0
 14 15  2  0
 15 16  1  0
 16 17  1  0
 17 18  1  0
 18 19  2  0
 18 20  1  0
 20 21  2  0
 21 22  1  0
 22 23  2  0
 23 24  1  0
 24 25  2  0
 23 26  1  0
 26 27  1  0
 27 28  1  0
 28 29  1  0
 29 30  1  0
 29 31  1  0
 31 32  1  0
 16 33  2  0
 10 34  2  0
 34 35  1  0
 35 36  1  0
 34 37  1  0
 37 38  2  0
 38  5  1  0
 38  8  1  0
 33 12  1  0
 25 20  1  0
 32 26  1  0
  1 39  1  0
  1 40  1  0
  1 41  1  0
  2 42  1  0
  6 43  1  0
  7 44  1  0
  9 45  1  0
 13 46  1  0
 14 47  1  0
 17 48  1  0
 21 49  1  0
 22 50  1  0
 24 51  1  0
 25 52  1  0
 26 53  1  0
 27 54  1  0
 27 55  1  0
 28 56  1  0
 28 57  1  0
 30 58  1  0
 30 59  1  0
 30 60  1  0
 31 61  1  0
 31 62  1  0
 32 63  1  0
 32 64  1  0
 33 65  1  0
 36 66  1  0
 36 67  1  0
 36 68  1  0
 37 69  1  0
M  END
$$$$
[H]c1nc(N([H])[H])c(-c2nn(-c3c(Cl)c(OC([H])([H])[H])c([H])c(OC([H])([H])[H])c3Cl)c(=O)c([H])c2[H])nc1-c1c([H])nn(C2([H])C([H])([H])C([H])([H])N(C([H])([H])[H])C([H])([H])C2([H])[H])c1[H]
     RDKit          3D

 64 68  0  0  0  0  0  0  0  0999 V2000
    9.4514   -2.3821   -0.7317 C   0  0  0  0  0  0  0  0  0  0  0  0
    8.1430   -2.4137   -0.2008 O   0  0  0  0  0  0  0  0  0  0  0  0
    7.4739   -1.2083   -0.0453 C   0  0  0  0  0  0  0  0  0  0  0  0
    8.0347    0.0116   -0.3875 C   0  0  0  0  0  0  0  0  0  0  0  0
    7.3587    1.2075   -0.2283 C   0  0  0  0  0  0  0  0  0  0  0  0
    7.8817    2.4367   -0.5561 O   0  0  0  0  0  0  0  0  0  0  0  0
    9.1495    2.6588   -1.0893 C   0  0  0  0  0  0  0  0  0  0  0  0
    6.0822    1.1366    0.2937 C   0  0  0  0  0  0  0  0  0  0  0  0
    5.1784    2.6198    0.5172 Cl  0  0  0  0  0  0  0  0  0  0  0  0
    5.4955   -0.0617    0.6445 C   0  0  0  0  0  0  0  0  0  0  0  0
    6.1932   -1.2447    0.4752 C   0  0  0  0  0  0  0  0  0  0  0  0
    5.4827   -2.7634    0.9064 Cl  0  0  0  0  0  0  0  0  0  0  0  0
    4.1780   -0.1532    1.1861 N   0  0  0  0  0  0  0  0  0  0  0  0
    3.1191    0.0199    0.4147 N   0  0  0  0  0  0  0  0  0  0  0  0
    1.8492   -0.0498    0.8416 C   0  0  0  0  0  0  0  0  0  0  0  0
    1.6355   -0.3198    2.1724 C   0  0  0  0  0  0  0  0  0  0  0  0
    2.7396   -0.5001    2.9759 C   0  0  0  0  0  0  0  0  0  0  0  0
    4.0405   -0.4201    2.4970 C   0  0  0  0  0  0  0  0  0  0  0  0
    5.0386   -0.5913    3.2634 O   0  0  0  0  0  0  0  0  0  0  0  0
    0.7086    0.1479   -0.0498 C   0  0  0  0  0  0  0  0  0  0  0  0
   -0.5391    0.0660    0.4361 N   0  0  0  0  0  0  0  0  0  0  0  0
   -1.6063    0.2457   -0.3789 C   0  0  0  0  0  0  0  0  0  0  0  0
   -1.4615    0.5162   -1.7213 C   0  0  0  0  0  0  0  0  0  0  0  0
   -0.2082    0.5972   -2.2033 N   0  0  0  0  0  0  0  0  0  0  0  0
    0.8576    0.4183   -1.3926 C   0  0  0  0  0  0  0  0  0  0  0  0
    2.2042    0.4986   -1.8771 N   0  0  0  0  0  0  0  0  0  0  0  0
   -2.9379    0.1463    0.2008 C   0  0  0  0  0  0  0  0  0  0  0  0
   -3.2723   -0.1135    1.5066 C   0  0  0  0  0  0  0  0  0  0  0  0
   -4.5968   -0.1125    1.5920 N   0  0  0  0  0  0  0  0  0  0  0  0
   -5.1479    0.1352    0.4066 N   0  0  0  0  0  0  0  0  0  0  0  0
   -4.1426    0.3010   -0.4811 C   0  0  0  0  0  0  0  0  0  0  0  0
   -6.5853    0.2089    0.1402 C   0  0  0  0  0  0  0  0  0  0  0  0
   -6.9224   -0.9918   -0.7116 C   0  0  0  0  0  0  0  0  0  0  0  0
   -8.3891   -1.2318   -0.8424 C   0  0  0  0  0  0  0  0  0  0  0  0
   -9.2051   -0.3346   -0.0888 N   0  0  0  0  0  0  0  0  0  0  0  0
   -9.4834    0.9107   -0.7554 C   0  0  0  0  0  0  0  0  0  0  0  0
   -8.7856   -0.1780    1.2791 C   0  0  0  0  0  0  0  0  0  0  0  0
   -7.3350    0.1349    1.4357 C   0  0  0  0  0  0  0  0  0  0  0  0
    9.5673   -1.7249   -1.6050 H   0  0  0  0  0  0  0  0  0  0  0  0
    9.7190   -3.4155   -1.1006 H   0  0  0  0  0  0  0  0  0  0  0  0
   10.2186   -2.1113    0.0377 H   0  0  0  0  0  0  0  0  0  0  0  0
    9.0179    0.0593   -0.7886 H   0  0  0  0  0  0  0  0  0  0  0  0
    9.0809    3.5655   -1.7544 H   0  0  0  0  0  0  0  0  0  0  0  0
    9.5115    1.8250   -1.7231 H   0  0  0  0  0  0  0  0  0  0  0  0
    9.8611    2.9294   -0.2934 H   0  0  0  0  0  0  0  0  0  0  0  0
    0.6141   -0.3880    2.5737 H   0  0  0  0  0  0  0  0  0  0  0  0
    2.6126   -0.7139    4.0287 H   0  0  0  0  0  0  0  0  0  0  0  0
   -2.3535    0.6493   -2.3174 H   0  0  0  0  0  0  0  0  0  0  0  0
    2.6258   -0.3396   -2.3417 H   0  0  0  0  0  0  0  0  0  0  0  0
    2.7755    1.3646   -1.7809 H   0  0  0  0  0  0  0  0  0  0  0  0
   -2.5211   -0.2811    2.2819 H   0  0  0  0  0  0  0  0  0  0  0  0
   -4.2648    0.5144   -1.5276 H   0  0  0  0  0  0  0  0  0  0  0  0
   -6.7770    1.1058   -0.4485 H   0  0  0  0  0  0  0  0  0  0  0  0
   -6.3665   -1.8647   -0.2982 H   0  0  0  0  0  0  0  0  0  0  0  0
   -6.4873   -0.8059   -1.7273 H   0  0  0  0  0  0  0  0  0  0  0  0
   -8.5874   -2.2806   -0.5233 H   0  0  0  0  0  0  0  0  0  0  0  0
   -8.7244   -1.1807   -1.9038 H   0  0  0  0  0  0  0  0  0  0  0  0
   -9.1454    0.9002   -1.8272 H   0  0  0  0  0  0  0  0  0  0  0  0
   -9.0834    1.7959   -0.2486 H   0  0  0  0  0  0  0  0  0  0  0  0
  -10.6056    1.0013   -0.7934 H   0  0  0  0  0  0  0  0  0  0  0  0
   -9.3747    0.6667    1.7090 H   0  0  0  0  0  0  0  0  0  0  0  0
   -9.0227   -1.1033    1.8290 H   0  0  0  0  0  0  0  0  0  0  0  0
   -7.1631    1.1104    1.9735 H   0  0  0  0  0  0  0  0  0  0  0  0
   -6.8046   -0.6254    2.0786 H   0  0  0  0  0  0  0  0  0  0  0  0
  1  2  1  0
  2  3  1  0
  3  4  2  0
  4  5  1  0
  5  6  1  0
  6  7  1  0
  5  8  2  0
  8  9  1  0
  8 10  1  0
 10 11  2  0
 11 12  1  0
 10 13  1  0
 13 14  1  0
 14 15  2  0
 15 16  1  0
 16 17  2  0
 17 18  1  0
 18 19  2  0
 15 20  1  0
 20 21  2  0
 21 22  1  0
 22 23  2  0
 23 24  1  0
 24 25  2  0
 25 26  1  0
 22 27  1  0
 27 28  1  0
 28 29  2  0
 29 30  1  0
 30 31  1  0
 30 32  1  0
 32 33  1  0
 33 34  1  0
 34 35  1  0
 35 36  1  0
 35 37  1  0
 37 38  1  0
 11  3  1  0
 18 13  1  0
 25 20  1  0
 31 27  2  0
 38 32  1  0
  1 39  1  0
  1 40  1  0
  1 41  1  0
  4 42  1  0
  7 43  1  0
  7 44  1  0
  7 45  1  0
 16 46  1  0
 17 47  1  0
 23 48  1  0
 26 49  1  0
 26 50  1  0
 28 51  1  0
 31 52  1  0
 32 53  1  0
 33 54  1  0
 33 55  1  0
 34 56  1  0
 34 57  1  0
 36 58  1  0
 36 59  1  0
 36 60  1  0
 37 61  1  0
 37 62  1  0
 38 63  1  0
 38 64  1  0
M  END
$$$$
[H]c1nc(N([H])C(=O)c2c([H])c([H])c(C3([H])C([H])([H])C([H])([H])N(C([H])(C([H])([H])[H])C([H])([H])[H])C([H])([H])C3([H])[H])c([H])c2[H])c([H])c(Oc2c(OC([H])([H])C([H])([H])OC([H])([H])[H])c([H])c3c(c2[H])c([H])c([H])n3C(=O)N([H])C([H])([H])[H])c1[H]
     RDKit          3D

 82 86  0  0  0  0  0  0  0  0999 V2000
   10.3086   -0.9665   -3.7486 C   0  0  0  0  0  0  0  0  0  0  0  0
    9.0600   -0.8145   -2.9479 N   0  0  0  0  0  0  0  0  0  0  0  0
    7.8731   -0.4616   -3.5714 C   0  0  0  0  0  0  0  0  0  0  0  0
    7.9479   -0.2809   -4.8679 O   0  0  0  0  0  0  0  0  0  0  0  0
    6.5963   -0.2704   -3.0038 N   0  0  0  0  0  0  0  0  0  0  0  0
    5.4902    0.0905   -3.7641 C   0  0  0  0  0  0  0  0  0  0  0  0
    4.3882    0.2059   -2.9740 C   0  0  0  0  0  0  0  0  0  0  0  0
    4.7809   -0.0831   -1.6841 C   0  0  0  0  0  0  0  0  0  0  0  0
    4.0777   -0.1185   -0.4935 C   0  0  0  0  0  0  0  0  0  0  0  0
    4.6643   -0.4342    0.6938 C   0  0  0  0  0  0  0  0  0  0  0  0
    4.0672   -0.4954    1.8876 O   0  0  0  0  0  0  0  0  0  0  0  0
    2.9765   -0.3983    2.5651 C   0  0  0  0  0  0  0  0  0  0  0  0
    3.0957   -0.3686    3.9823 C   0  0  0  0  0  0  0  0  0  0  0  0
    2.0148   -0.2698    4.7919 C   0  0  0  0  0  0  0  0  0  0  0  0
    0.7898   -0.1967    4.2683 N   0  0  0  0  0  0  0  0  0  0  0  0
    0.5661   -0.2179    2.9042 C   0  0  0  0  0  0  0  0  0  0  0  0
   -0.7714   -0.1355    2.4863 N   0  0  0  0  0  0  0  0  0  0  0  0
   -1.1878   -0.1494    1.1413 C   0  0  0  0  0  0  0  0  0  0  0  0
   -0.4720   -0.2339    0.1203 O   0  0  0  0  0  0  0  0  0  0  0  0
   -2.6470   -0.0569    0.8153 C   0  0  0  0  0  0  0  0  0  0  0  0
   -3.5495    0.4875    1.6965 C   0  0  0  0  0  0  0  0  0  0  0  0
   -4.9161    0.5625    1.3975 C   0  0  0  0  0  0  0  0  0  0  0  0
   -5.3953    0.0868    0.1981 C   0  0  0  0  0  0  0  0  0  0  0  0
   -4.4786   -0.4566   -0.6770 C   0  0  0  0  0  0  0  0  0  0  0  0
   -3.1326   -0.5317   -0.3851 C   0  0  0  0  0  0  0  0  0  0  0  0
   -6.8242    0.1424   -0.1672 C   0  0  0  0  0  0  0  0  0  0  0  0
   -7.3015    1.5751   -0.3726 C   0  0  0  0  0  0  0  0  0  0  0  0
   -8.5852    1.4922   -1.2151 C   0  0  0  0  0  0  0  0  0  0  0  0
   -9.3631    0.4423   -0.6822 N   0  0  0  0  0  0  0  0  0  0  0  0
   -9.1433    0.0658    0.6625 C   0  0  0  0  0  0  0  0  0  0  0  0
   -7.7327   -0.4814    0.8693 C   0  0  0  0  0  0  0  0  0  0  0  0
  -10.6122    0.1741   -1.2704 C   0  0  0  0  0  0  0  0  0  0  0  0
  -10.3577   -0.2558   -2.7237 C   0  0  0  0  0  0  0  0  0  0  0  0
  -11.5371    1.3719   -1.3644 C   0  0  0  0  0  0  0  0  0  0  0  0
    1.6740   -0.3187    2.0997 C   0  0  0  0  0  0  0  0  0  0  0  0
    6.0704   -0.7335    0.6529 C   0  0  0  0  0  0  0  0  0  0  0  0
    6.6285   -1.0334    1.8130 O   0  0  0  0  0  0  0  0  0  0  0  0
    7.7502   -1.3364    2.4374 C   0  0  0  0  0  0  0  0  0  0  0  0
    8.7933   -0.2686    2.4790 C   0  0  0  0  0  0  0  0  0  0  0  0
    9.2819    0.1975    1.2980 O   0  0  0  0  0  0  0  0  0  0  0  0
   10.2433    1.1833    1.4756 C   0  0  0  0  0  0  0  0  0  0  0  0
    6.7310   -0.6871   -0.5562 C   0  0  0  0  0  0  0  0  0  0  0  0
    6.1228   -0.3645   -1.7539 C   0  0  0  0  0  0  0  0  0  0  0  0
   10.0942   -0.8118   -4.8142 H   0  0  0  0  0  0  0  0  0  0  0  0
   10.6798   -1.9750   -3.5042 H   0  0  0  0  0  0  0  0  0  0  0  0
   10.9915   -0.1871   -3.3872 H   0  0  0  0  0  0  0  0  0  0  0  0
    9.2124   -0.9937   -1.9620 H   0  0  0  0  0  0  0  0  0  0  0  0
    5.5189    0.2526   -4.8323 H   0  0  0  0  0  0  0  0  0  0  0  0
    3.3645    0.4728   -3.2511 H   0  0  0  0  0  0  0  0  0  0  0  0
    3.0107    0.1298   -0.5280 H   0  0  0  0  0  0  0  0  0  0  0  0
    4.0713   -0.4263    4.4390 H   0  0  0  0  0  0  0  0  0  0  0  0
    2.0907   -0.2455    5.8860 H   0  0  0  0  0  0  0  0  0  0  0  0
   -1.5411   -0.0565    3.2447 H   0  0  0  0  0  0  0  0  0  0  0  0
   -3.2012    0.8718    2.6436 H   0  0  0  0  0  0  0  0  0  0  0  0
   -5.6188    0.9897    2.0906 H   0  0  0  0  0  0  0  0  0  0  0  0
   -4.8124   -0.8470   -1.6410 H   0  0  0  0  0  0  0  0  0  0  0  0
   -2.4172   -0.9581   -1.0734 H   0  0  0  0  0  0  0  0  0  0  0  0
   -7.0350   -0.3654   -1.1310 H   0  0  0  0  0  0  0  0  0  0  0  0
   -7.5948    1.9691    0.6239 H   0  0  0  0  0  0  0  0  0  0  0  0
   -6.5492    2.2063   -0.8458 H   0  0  0  0  0  0  0  0  0  0  0  0
   -9.1178    2.4648   -1.2142 H   0  0  0  0  0  0  0  0  0  0  0  0
   -8.2240    1.2162   -2.2460 H   0  0  0  0  0  0  0  0  0  0  0  0
   -9.2223    0.9562    1.3491 H   0  0  0  0  0  0  0  0  0  0  0  0
   -9.9091   -0.6746    0.9616 H   0  0  0  0  0  0  0  0  0  0  0  0
   -7.3653   -0.2562    1.8920 H   0  0  0  0  0  0  0  0  0  0  0  0
   -7.7905   -1.5707    0.6537 H   0  0  0  0  0  0  0  0  0  0  0  0
  -11.1867   -0.6329   -0.7888 H   0  0  0  0  0  0  0  0  0  0  0  0
  -10.0529    0.5904   -3.3425 H   0  0  0  0  0  0  0  0  0  0  0  0
  -11.1709   -0.8570   -3.1273 H   0  0  0  0  0  0  0  0  0  0  0  0
   -9.4644   -0.9433   -2.6516 H   0  0  0  0  0  0  0  0  0  0  0  0
  -11.2808    2.0471   -2.2054 H   0  0  0  0  0  0  0  0  0  0  0  0
  -12.5555    0.9607   -1.5998 H   0  0  0  0  0  0  0  0  0  0  0  0
  -11.5434    1.8644   -0.3864 H   0  0  0  0  0  0  0  0  0  0  0  0
    1.5494   -0.3504    1.0525 H   0  0  0  0  0  0  0  0  0  0  0  0
    7.5060   -1.6508    3.5225 H   0  0  0  0  0  0  0  0  0  0  0  0
    8.2313   -2.3227    2.0629 H   0  0  0  0  0  0  0  0  0  0  0  0
    9.6684   -0.6267    3.1041 H   0  0  0  0  0  0  0  0  0  0  0  0
    8.3256    0.6240    2.9999 H   0  0  0  0  0  0  0  0  0  0  0  0
    9.8517    2.0650    2.0215 H   0  0  0  0  0  0  0  0  0  0  0  0
   10.5460    1.5523    0.4523 H   0  0  0  0  0  0  0  0  0  0  0  0
   11.1822    0.7988    1.9349 H   0  0  0  0  0  0  0  0  0  0  0  0
    7.7733   -0.9381   -0.6176 H   0  0  0  0  0  0  0  0  0  0  0  0
  1  2  1  0
  2  3  1  0
  3  4  2  0
  3  5  1  0
  5  6  1  0
  6  7  2  0
  7  8  1  0
  8  9  2  0
  9 10  1  0
 10 11  1  0
 11 12  1  0
 12 13  2  0
 13 14  1  0
 14 15  2  0
 15 16  1  0
 16 17  1  0
 17 18  1  0
 18 19  2  0
 18 20  1  0
 20 21  2  0
 21 22  1  0
 22 23  2  0
 23 24  1  0
 24 25  2  0
 23 26  1  0
 26 27  1  0
 27 28  1  0
 28 29  1  0
 29 30  1  0
 30 31  1  0
 29 32  1  0
 32 33  1  0
 32 34  1  0
 16 35  2  0
 10 36  2  0
 36 37  1  0
 37 38  1  0
 38 39  1  0
 39 40  1  0
 40 41  1  0
 36 42  1  0
 42 43  2  0
 43  5  1  0
 43  8  1  0
 35 12  1  0
 25 20  1  0
 31 26  1  0
  1 44  1  0
  1 45  1  0
  1 46  1  0
  2 47  1  0
  6 48  1  0
  7 49  1  0
  9 50  1  0
 13 51  1  0
 14 52  1  0
 17 53  1  0
 21 54  1  0
 22 55  1  0
 24 56  1  0
 25 57  1  0
 26 58  1  0
 27 59  1  0
 27 60  1  0
 28 61  1  0
 28 62  1  0
 30 63  1  0
 30 64  1  0
 31 65  1  0
 31 66  1  0
 32 67  1  0
 33 68  1  0
 33 69  1  0
 33 70  1  0
 34 71  1  0
 34 72  1  0
 34 73  1  0
 35 74  1  0
 38 75  1  0
 38 76  1  0
 39 77  1  0
 39 78  1  0
 41 79  1  0
 41 80  1  0
 41 81  1  0
 42 82  1  0
M  END
$$$$
[H]c1nc(N([H])[H])c2c(-c3sc4c(OC([H])([H])[H])c([H])c(C([H])([H])[H])c([H])c4c3[H])c(C([H])([H])N3C([H])([H])C(=O)N([H])C([H])([H])C3([H])[H])c([H])n2n1
     RDKit          3D

 52 56  0  0  0  0  0  0  0  0999 V2000
   -3.9769    3.7618   -1.9022 C   0  0  0  0  0  0  0  0  0  0  0  0
   -3.2105    2.7762   -1.2887 O   0  0  0  0  0  0  0  0  0  0  0  0
   -3.4582    1.4337   -1.3069 C   0  0  0  0  0  0  0  0  0  0  0  0
   -4.5422    0.8684   -1.9622 C   0  0  0  0  0  0  0  0  0  0  0  0
   -4.6396   -0.5071   -1.8774 C   0  0  0  0  0  0  0  0  0  0  0  0
   -5.8023   -1.1178   -2.5806 C   0  0  0  0  0  0  0  0  0  0  0  0
   -3.7581   -1.2909   -1.2096 C   0  0  0  0  0  0  0  0  0  0  0  0
   -2.6523   -0.7245   -0.5400 C   0  0  0  0  0  0  0  0  0  0  0  0
   -1.7055   -1.3879    0.1577 C   0  0  0  0  0  0  0  0  0  0  0  0
   -0.7034   -0.6736    0.7466 C   0  0  0  0  0  0  0  0  0  0  0  0
   -1.1498    0.9539    0.2724 S   0  0  0  0  0  0  0  0  0  0  0  0
   -2.5471    0.6249   -0.6167 C   0  0  0  0  0  0  0  0  0  0  0  0
    0.5108   -1.0424    1.4547 C   0  0  0  0  0  0  0  0  0  0  0  0
    1.7381   -0.3920    1.2567 C   0  0  0  0  0  0  0  0  0  0  0  0
    1.9321    0.7141    0.3016 C   0  0  0  0  0  0  0  0  0  0  0  0
    3.3063    1.1922    0.2373 N   0  0  0  0  0  0  0  0  0  0  0  0
    4.2335    0.2215   -0.2331 C   0  0  0  0  0  0  0  0  0  0  0  0
    4.8092    0.5500   -1.5942 C   0  0  0  0  0  0  0  0  0  0  0  0
    5.4951    1.8316   -1.4762 N   0  0  0  0  0  0  0  0  0  0  0  0
    4.8261    2.7892   -0.6283 C   0  0  0  0  0  0  0  0  0  0  0  0
    5.4339    3.7722   -0.1835 O   0  0  0  0  0  0  0  0  0  0  0  0
    3.3900    2.4870   -0.3541 C   0  0  0  0  0  0  0  0  0  0  0  0
    2.6747   -0.9260    2.0903 C   0  0  0  0  0  0  0  0  0  0  0  0
    2.0590   -1.8887    2.8022 N   0  0  0  0  0  0  0  0  0  0  0  0
    2.5570   -2.6632    3.7500 N   0  0  0  0  0  0  0  0  0  0  0  0
    1.7761   -3.5520    4.3772 C   0  0  0  0  0  0  0  0  0  0  0  0
    0.4933   -3.6596    4.0506 N   0  0  0  0  0  0  0  0  0  0  0  0
   -0.0468   -2.8868    3.0893 C   0  0  0  0  0  0  0  0  0  0  0  0
   -1.4265   -2.9859    2.8380 N   0  0  0  0  0  0  0  0  0  0  0  0
    0.7316   -1.9688    2.4244 C   0  0  0  0  0  0  0  0  0  0  0  0
   -3.7705    3.8834   -2.9846 H   0  0  0  0  0  0  0  0  0  0  0  0
   -5.0666    3.4979   -1.8290 H   0  0  0  0  0  0  0  0  0  0  0  0
   -3.8965    4.7498   -1.3604 H   0  0  0  0  0  0  0  0  0  0  0  0
   -5.2418    1.4925   -2.4925 H   0  0  0  0  0  0  0  0  0  0  0  0
   -6.7128   -1.1234   -1.9494 H   0  0  0  0  0  0  0  0  0  0  0  0
   -5.5541   -2.1897   -2.8099 H   0  0  0  0  0  0  0  0  0  0  0  0
   -6.0220   -0.5655   -3.5169 H   0  0  0  0  0  0  0  0  0  0  0  0
   -3.9466   -2.3565   -1.2182 H   0  0  0  0  0  0  0  0  0  0  0  0
   -1.6660   -2.5085    0.2302 H   0  0  0  0  0  0  0  0  0  0  0  0
    1.5746    0.5023   -0.7162 H   0  0  0  0  0  0  0  0  0  0  0  0
    1.3492    1.6118    0.6904 H   0  0  0  0  0  0  0  0  0  0  0  0
    3.7743   -0.7797   -0.3346 H   0  0  0  0  0  0  0  0  0  0  0  0
    5.1246    0.2139    0.4598 H   0  0  0  0  0  0  0  0  0  0  0  0
    3.9685    0.6467   -2.2966 H   0  0  0  0  0  0  0  0  0  0  0  0
    5.5061   -0.2646   -1.8521 H   0  0  0  0  0  0  0  0  0  0  0  0
    6.3882    2.0570   -1.9522 H   0  0  0  0  0  0  0  0  0  0  0  0
    2.9371    3.2221    0.3389 H   0  0  0  0  0  0  0  0  0  0  0  0
    2.8267    2.5048   -1.3201 H   0  0  0  0  0  0  0  0  0  0  0  0
    3.7151   -0.6495    2.1885 H   0  0  0  0  0  0  0  0  0  0  0  0
    2.2290   -4.1766    5.1572 H   0  0  0  0  0  0  0  0  0  0  0  0
   -2.0786   -2.2688    3.1582 H   0  0  0  0  0  0  0  0  0  0  0  0
   -1.7855   -3.8091    2.3143 H   0  0  0  0  0  0  0  0  0  0  0  0
  1  2  1  0
  2  3  1  0
  3  4  2  0
  4  5  1  0
  5  6  1  0
  5  7  2  0
  7  8  1  0
  8  9  1  0
  9 10  2  0
 10 11  1  0
 11 12  1  0
 10 13  1  0
 13 14  1  0
 14 15  1  0
 15 16  1  0
 16 17  1  0
 17 18  1  0
 18 19  1  0
 19 20  1  0
 20 21  2  0
 20 22  1  0
 14 23  2  0
 23 24  1  0
 24 25  1  0
 25 26  2  0
 26 27  1  0
 27 28  2  0
 28 29  1  0
 28 30  1  0
 12  3  1  0
 30 13  2  0
 12  8  2  0
 22 16  1  0
 30 24  1  0
  1 31  1  0
  1 32  1  0
  1 33  1  0
  4 34  1  0
  6 35  1  0
  6 36  1  0
  6 37  1  0
  7 38  1  0
  9 39  1  0
 15 40  1  0
 15 41  1  0
 17 42  1  0
 17 43  1  0
 18 44  1  0
 18 45  1  0
 19 46  1  0
 22 47  1  0
 22 48  1  0
 23 49  1  0
 26 50  1  0
 29 51  1  0
 29 52  1  0
M  END
$$$$
[H]c1nc(N([H])[H])c2c(-c3sc4c(OC([H])([H])[H])c([H])c(C([H])([H])[H])c([H])c4c3[H])c(C([H])([H])OC([H])([H])C([H])([H])[H])c(C(=O)N3C([H])([H])C([H])([H])N(C(=O)C([H])([H])[H])C([H])([H])C3([H])[H])n2n1
     RDKit          3D

 67 71  0  0  0  0  0  0  0  0999 V2000
   -0.8799   -4.2154    0.3625 C   0  0  0  0  0  0  0  0  0  0  0  0
   -0.0661   -3.8347   -0.8365 C   0  0  0  0  0  0  0  0  0  0  0  0
    0.5701   -2.5866   -0.6449 O   0  0  0  0  0  0  0  0  0  0  0  0
   -0.3693   -1.6046   -0.4300 C   0  0  0  0  0  0  0  0  0  0  0  0
    0.1115   -0.2401   -0.2241 C   0  0  0  0  0  0  0  0  0  0  0  0
   -0.7946    0.8392   -0.1603 C   0  0  0  0  0  0  0  0  0  0  0  0
   -2.2607    0.7065   -0.2075 C   0  0  0  0  0  0  0  0  0  0  0  0
   -3.0482   -0.2044    0.4484 C   0  0  0  0  0  0  0  0  0  0  0  0
   -4.3887   -0.1014    0.3063 C   0  0  0  0  0  0  0  0  0  0  0  0
   -5.3809   -0.9189    0.8818 C   0  0  0  0  0  0  0  0  0  0  0  0
   -6.7184   -0.7363    0.6820 C   0  0  0  0  0  0  0  0  0  0  0  0
   -7.7200   -1.6682    1.3422 C   0  0  0  0  0  0  0  0  0  0  0  0
   -7.1673    0.2890   -0.1175 C   0  0  0  0  0  0  0  0  0  0  0  0
   -6.2309    1.1120   -0.7000 C   0  0  0  0  0  0  0  0  0  0  0  0
   -6.5604    2.1777   -1.5243 O   0  0  0  0  0  0  0  0  0  0  0  0
   -7.9358    2.4062   -1.7604 C   0  0  0  0  0  0  0  0  0  0  0  0
   -4.8568    0.9080   -0.4822 C   0  0  0  0  0  0  0  0  0  0  0  0
   -3.4300    1.6702   -0.9937 S   0  0  0  0  0  0  0  0  0  0  0  0
   -0.0344    1.9573   -0.0158 C   0  0  0  0  0  0  0  0  0  0  0  0
   -0.2853    3.2998    0.1505 C   0  0  0  0  0  0  0  0  0  0  0  0
   -1.6106    3.7897    0.2015 N   0  0  0  0  0  0  0  0  0  0  0  0
    0.7319    4.2035    0.3241 N   0  0  0  0  0  0  0  0  0  0  0  0
    1.9890    3.8009    0.3377 C   0  0  0  0  0  0  0  0  0  0  0  0
    2.2226    2.5012    0.1782 N   0  0  0  0  0  0  0  0  0  0  0  0
    1.2883    1.5985    0.0081 N   0  0  0  0  0  0  0  0  0  0  0  0
    1.4100    0.2385   -0.1166 C   0  0  0  0  0  0  0  0  0  0  0  0
    2.6066   -0.5420    0.0963 C   0  0  0  0  0  0  0  0  0  0  0  0
    2.4189   -1.7118    0.6901 O   0  0  0  0  0  0  0  0  0  0  0  0
    3.9159   -0.3149   -0.2067 N   0  0  0  0  0  0  0  0  0  0  0  0
    4.8808   -1.3550    0.2857 C   0  0  0  0  0  0  0  0  0  0  0  0
    6.2871   -0.9964    0.0008 C   0  0  0  0  0  0  0  0  0  0  0  0
    6.6077    0.4000    0.0720 N   0  0  0  0  0  0  0  0  0  0  0  0
    5.6193    1.4083   -0.2311 C   0  0  0  0  0  0  0  0  0  0  0  0
    4.5235    0.6783   -1.0156 C   0  0  0  0  0  0  0  0  0  0  0  0
    7.9066    0.8123    0.4402 C   0  0  0  0  0  0  0  0  0  0  0  0
    8.9261   -0.2218    0.7470 C   0  0  0  0  0  0  0  0  0  0  0  0
    8.1999    2.0494    0.5084 O   0  0  0  0  0  0  0  0  0  0  0  0
   -1.9257   -3.8950    0.2761 H   0  0  0  0  0  0  0  0  0  0  0  0
   -0.8578   -5.3277    0.4563 H   0  0  0  0  0  0  0  0  0  0  0  0
   -0.3937   -3.8115    1.2965 H   0  0  0  0  0  0  0  0  0  0  0  0
    0.7462   -4.5619   -1.0242 H   0  0  0  0  0  0  0  0  0  0  0  0
   -0.6523   -3.7614   -1.7692 H   0  0  0  0  0  0  0  0  0  0  0  0
   -1.2445   -1.6841   -1.0892 H   0  0  0  0  0  0  0  0  0  0  0  0
   -0.7923   -1.9314    0.5999 H   0  0  0  0  0  0  0  0  0  0  0  0
   -2.5872   -0.9829    1.1024 H   0  0  0  0  0  0  0  0  0  0  0  0
   -5.1016   -1.7584    1.5311 H   0  0  0  0  0  0  0  0  0  0  0  0
   -8.1311   -1.1607    2.2379 H   0  0  0  0  0  0  0  0  0  0  0  0
   -7.1635   -2.5488    1.6632 H   0  0  0  0  0  0  0  0  0  0  0  0
   -8.5231   -1.8833    0.6145 H   0  0  0  0  0  0  0  0  0  0  0  0
   -8.2152    0.4460   -0.2845 H   0  0  0  0  0  0  0  0  0  0  0  0
   -8.4550    2.7971   -0.8456 H   0  0  0  0  0  0  0  0  0  0  0  0
   -8.4764    1.4948   -2.0539 H   0  0  0  0  0  0  0  0  0  0  0  0
   -8.0282    3.1963   -2.5382 H   0  0  0  0  0  0  0  0  0  0  0  0
   -1.9885    4.3518   -0.5808 H   0  0  0  0  0  0  0  0  0  0  0  0
   -2.1573    3.5705    1.0660 H   0  0  0  0  0  0  0  0  0  0  0  0
    2.8074    4.5048    0.4742 H   0  0  0  0  0  0  0  0  0  0  0  0
    4.6427   -1.4850    1.3438 H   0  0  0  0  0  0  0  0  0  0  0  0
    4.6600   -2.3188   -0.2257 H   0  0  0  0  0  0  0  0  0  0  0  0
    6.5610   -1.3601   -1.0319 H   0  0  0  0  0  0  0  0  0  0  0  0
    6.9335   -1.5069    0.7625 H   0  0  0  0  0  0  0  0  0  0  0  0
    5.2008    1.7588    0.7220 H   0  0  0  0  0  0  0  0  0  0  0  0
    6.0113    2.2459   -0.8115 H   0  0  0  0  0  0  0  0  0  0  0  0
    5.1727    0.1330   -1.8332 H   0  0  0  0  0  0  0  0  0  0  0  0
    3.9230    1.3275   -1.6303 H   0  0  0  0  0  0  0  0  0  0  0  0
    9.9523    0.2023    0.6205 H   0  0  0  0  0  0  0  0  0  0  0  0
    8.8115   -0.5787    1.7994 H   0  0  0  0  0  0  0  0  0  0  0  0
    8.7934   -1.0662    0.0744 H   0  0  0  0  0  0  0  0  0  0  0  0
  1  2  1  0
  2  3  1  0
  3  4  1  0
  4  5  1  0
  5  6  1  0
  6  7  1  0
  7  8  2  0
  8  9  1  0
  9 10  2  0
 10 11  1  0
 11 12  1  0
 11 13  2  0
 13 14  1  0
 14 15  1  0
 15 16  1  0
 14 17  2  0
 17 18  1  0
  6 19  2  0
 19 20  1  0
 20 21  1  0
 20 22  2  0
 22 23  1  0
 23 24  2  0
 24 25  1  0
 25 26  1  0
 26 27  1  0
 27 28  2  0
 27 29  1  0
 29 30  1  0
 30 31  1  0
 31 32  1  0
 32 33  1  0
 33 34  1  0
 32 35  1  0
 35 36  1  0
 35 37  2  0
 26  5  2  0
 34 29  1  0
 18  7  1  0
 25 19  1  0
 17  9  1  0
  1 38  1  0
  1 39  1  0
  1 40  1  0
  2 41  1  0
  2 42  1  0
  4 43  1  0
  4 44  1  0
  8 45  1  0
 10 46  1  0
 12 47  1  0
 12 48  1  0
 12 49  1  0
 13 50  1  0
 16 51  1  0
 16 52  1  0
 16 53  1  0
 21 54  1  0
 21 55  1  0
 23 56  1  0
 30 57  1  0
 30 58  1  0
 31 59  1  0
 31 60  1  0
 33 61  1  0
 33 62  1  0
 34 63  1  0
 34 64  1  0
 36 65  1  0
 36 66  1  0
 36 67  1  0
M  END
$$$$
[H]c1nc(N([H])[H])c2c(-c3sc4c(OC([H])([H])[H])c([H])c(C([H])([H])[H])c([H])c4c3[H])c(C([H])([H])N([H])C(=O)C([H])([H])[H])c([H])n2n1
     RDKit          3D

 46 49  0  0  0  0  0  0  0  0999 V2000
   -4.1432   -2.7939    2.2942 C   0  0  0  0  0  0  0  0  0  0  0  0
   -3.0655   -2.0134    1.8358 O   0  0  0  0  0  0  0  0  0  0  0  0
   -3.2535   -1.0752    0.8408 C   0  0  0  0  0  0  0  0  0  0  0  0
   -4.4685   -0.8391    0.2412 C   0  0  0  0  0  0  0  0  0  0  0  0
   -4.5216    0.1245   -0.7387 C   0  0  0  0  0  0  0  0  0  0  0  0
   -5.8296    0.4296   -1.4348 C   0  0  0  0  0  0  0  0  0  0  0  0
   -3.3980    0.8146   -1.0931 C   0  0  0  0  0  0  0  0  0  0  0  0
   -2.1291    0.6053   -0.5042 C   0  0  0  0  0  0  0  0  0  0  0  0
   -0.9400    1.2253   -0.7690 C   0  0  0  0  0  0  0  0  0  0  0  0
    0.1514    0.8483   -0.0613 C   0  0  0  0  0  0  0  0  0  0  0  0
   -0.4795   -0.3650    0.9610 S   0  0  0  0  0  0  0  0  0  0  0  0
   -2.1075   -0.3563    0.4643 C   0  0  0  0  0  0  0  0  0  0  0  0
    1.5729    1.1818   -0.1398 C   0  0  0  0  0  0  0  0  0  0  0  0
    2.5940    0.2042   -0.0540 C   0  0  0  0  0  0  0  0  0  0  0  0
    2.3455   -1.2421    0.0928 C   0  0  0  0  0  0  0  0  0  0  0  0
    3.6225   -1.9726    0.1101 N   0  0  0  0  0  0  0  0  0  0  0  0
    3.6157   -3.3728    0.2441 C   0  0  0  0  0  0  0  0  0  0  0  0
    4.8789   -4.1260    0.2641 C   0  0  0  0  0  0  0  0  0  0  0  0
    2.5338   -3.9761    0.3461 O   0  0  0  0  0  0  0  0  0  0  0  0
    3.7640    0.9017   -0.1256 C   0  0  0  0  0  0  0  0  0  0  0  0
    3.4852    2.2131   -0.2438 N   0  0  0  0  0  0  0  0  0  0  0  0
    4.3254    3.2201   -0.3191 N   0  0  0  0  0  0  0  0  0  0  0  0
    3.8799    4.4910   -0.4043 C   0  0  0  0  0  0  0  0  0  0  0  0
    2.5534    4.7422   -0.4116 N   0  0  0  0  0  0  0  0  0  0  0  0
    1.6624    3.7225   -0.3355 C   0  0  0  0  0  0  0  0  0  0  0  0
    0.2920    4.0116   -0.2680 N   0  0  0  0  0  0  0  0  0  0  0  0
    2.1461    2.4368   -0.2545 C   0  0  0  0  0  0  0  0  0  0  0  0
   -4.6018   -3.3003    1.4093 H   0  0  0  0  0  0  0  0  0  0  0  0
   -3.8319   -3.6014    2.9784 H   0  0  0  0  0  0  0  0  0  0  0  0
   -4.9358   -2.1890    2.7712 H   0  0  0  0  0  0  0  0  0  0  0  0
   -5.3329   -1.3872    0.5310 H   0  0  0  0  0  0  0  0  0  0  0  0
   -6.5613    0.8657   -0.7592 H   0  0  0  0  0  0  0  0  0  0  0  0
   -5.6583    1.0779   -2.3098 H   0  0  0  0  0  0  0  0  0  0  0  0
   -6.2409   -0.5262   -1.8341 H   0  0  0  0  0  0  0  0  0  0  0  0
   -3.5247    1.5691   -1.8850 H   0  0  0  0  0  0  0  0  0  0  0  0
   -0.9051    1.9881   -1.6046 H   0  0  0  0  0  0  0  0  0  0  0  0
    1.6834   -1.6257   -0.7073 H   0  0  0  0  0  0  0  0  0  0  0  0
    1.8381   -1.4932    1.0553 H   0  0  0  0  0  0  0  0  0  0  0  0
    4.5248   -1.4832    0.0260 H   0  0  0  0  0  0  0  0  0  0  0  0
    5.7498   -3.4404    0.0884 H   0  0  0  0  0  0  0  0  0  0  0  0
    4.9832   -4.5999    1.2597 H   0  0  0  0  0  0  0  0  0  0  0  0
    4.8195   -4.8919   -0.5525 H   0  0  0  0  0  0  0  0  0  0  0  0
    4.7808    0.4690   -0.0925 H   0  0  0  0  0  0  0  0  0  0  0  0
    4.6168    5.2859   -0.4654 H   0  0  0  0  0  0  0  0  0  0  0  0
   -0.2039    3.9416    0.6484 H   0  0  0  0  0  0  0  0  0  0  0  0
   -0.2868    4.3010   -1.0944 H   0  0  0  0  0  0  0  0  0  0  0  0
  1  2  1  0
  2  3  1  0
  3  4  2  0
  4  5  1  0
  5  6  1  0
  5  7  2  0
  7  8  1  0
  8  9  1  0
  9 10  2  0
 10 11  1  0
 11 12  1  0
 10 13  1  0
 13 14  1  0
 14 15  1  0
 15 16  1  0
 16 17  1  0
 17 18  1  0
 17 19  2  0
 14 20  2  0
 20 21  1  0
 21 22  1  0
 22 23  2  0
 23 24  1  0
 24 25  2  0
 25 26  1  0
 25 27  1  0
 12  3  1  0
 27 13  2  0
 12  8  2  0
 27 21  1  0
  1 28  1  0
  1 29  1  0
  1 30  1  0
  4 31  1  0
  6 32  1  0
  6 33  1  0
  6 34  1  0
  7 35  1  0
  9 36  1  0
 15 37  1  0
 15 38  1  0
 16 39  1  0
 18 40  1  0
 18 41  1  0
 18 42  1  0
 20 43  1  0
 23 44  1  0
 26 45  1  0
 26 46  1  0
M  END
$$$$
[H]c1nc(N([H])[H])c2c(-c3sc4c(OC([H])([H])[H])c([H])c(C([H])([H])[H])c([H])c4c3[H])c(C([H])([H])OC([H])([H])C([H])([H])[H])c(C(=O)N3C([H])([H])C([H])([H])N(C([H])(C([H])([H])[H])C([H])([H])[H])C([H])([H])C3([H])[H])n2n1
     RDKit          3D

 71 75  0  0  0  0  0  0  0  0999 V2000
    0.4198   -5.1879    0.5818 C   0  0  0  0  0  0  0  0  0  0  0  0
   -0.5945   -4.1118    0.3180 C   0  0  0  0  0  0  0  0  0  0  0  0
    0.0263   -2.8758    0.0892 O   0  0  0  0  0  0  0  0  0  0  0  0
   -0.9586   -1.9464   -0.1667 C   0  0  0  0  0  0  0  0  0  0  0  0
   -0.4849   -0.5822   -0.4635 C   0  0  0  0  0  0  0  0  0  0  0  0
   -1.3031    0.5531   -0.6407 C   0  0  0  0  0  0  0  0  0  0  0  0
   -2.7577    0.5444   -0.3924 C   0  0  0  0  0  0  0  0  0  0  0  0
   -3.6742   -0.4638   -0.4209 C   0  0  0  0  0  0  0  0  0  0  0  0
   -4.9481   -0.1882   -0.0708 C   0  0  0  0  0  0  0  0  0  0  0  0
   -6.0063   -1.1185    0.0261 C   0  0  0  0  0  0  0  0  0  0  0  0
   -7.2324   -0.7004    0.4590 C   0  0  0  0  0  0  0  0  0  0  0  0
   -8.3438   -1.6952    0.5837 C   0  0  0  0  0  0  0  0  0  0  0  0
   -7.5411    0.6063    0.8233 C   0  0  0  0  0  0  0  0  0  0  0  0
   -6.5144    1.4871    0.7234 C   0  0  0  0  0  0  0  0  0  0  0  0
   -6.6321    2.8343    1.0282 O   0  0  0  0  0  0  0  0  0  0  0  0
   -7.8764    3.3349    1.5340 C   0  0  0  0  0  0  0  0  0  0  0  0
   -5.2434    1.0796    0.2839 C   0  0  0  0  0  0  0  0  0  0  0  0
   -3.7559    1.8608    0.1271 S   0  0  0  0  0  0  0  0  0  0  0  0
   -0.4835    1.5832   -0.9323 C   0  0  0  0  0  0  0  0  0  0  0  0
   -0.6937    2.9011   -1.2821 C   0  0  0  0  0  0  0  0  0  0  0  0
   -1.9574    3.5093   -1.4654 N   0  0  0  0  0  0  0  0  0  0  0  0
    0.3817    3.6780   -1.5903 N   0  0  0  0  0  0  0  0  0  0  0  0
    1.6245    3.2070   -1.5705 C   0  0  0  0  0  0  0  0  0  0  0  0
    1.7738    1.9317   -1.2356 N   0  0  0  0  0  0  0  0  0  0  0  0
    0.8016    1.1061   -0.9218 N   0  0  0  0  0  0  0  0  0  0  0  0
    0.8328   -0.2318   -0.6355 C   0  0  0  0  0  0  0  0  0  0  0  0
    2.0197   -1.0516   -0.7874 C   0  0  0  0  0  0  0  0  0  0  0  0
    1.9400   -2.1797   -1.4081 O   0  0  0  0  0  0  0  0  0  0  0  0
    3.2990   -0.7373   -0.2927 N   0  0  0  0  0  0  0  0  0  0  0  0
    4.4195   -1.6462   -0.6568 C   0  0  0  0  0  0  0  0  0  0  0  0
    5.5835   -0.8047   -1.0553 C   0  0  0  0  0  0  0  0  0  0  0  0
    5.9420    0.0406    0.0421 N   0  0  0  0  0  0  0  0  0  0  0  0
    4.9213    0.9970    0.3436 C   0  0  0  0  0  0  0  0  0  0  0  0
    3.6541    0.2473    0.6778 C   0  0  0  0  0  0  0  0  0  0  0  0
    7.2350    0.6032   -0.1651 C   0  0  0  0  0  0  0  0  0  0  0  0
    8.0049    0.7843    1.1289 C   0  0  0  0  0  0  0  0  0  0  0  0
    7.1956    1.9081   -0.9269 C   0  0  0  0  0  0  0  0  0  0  0  0
    0.8897   -5.0384    1.5574 H   0  0  0  0  0  0  0  0  0  0  0  0
    1.1409   -5.2996   -0.2605 H   0  0  0  0  0  0  0  0  0  0  0  0
   -0.1327   -6.1574    0.6094 H   0  0  0  0  0  0  0  0  0  0  0  0
   -1.1875   -4.3674   -0.5927 H   0  0  0  0  0  0  0  0  0  0  0  0
   -1.2153   -3.9940    1.2306 H   0  0  0  0  0  0  0  0  0  0  0  0
   -1.4755   -2.3193   -1.1124 H   0  0  0  0  0  0  0  0  0  0  0  0
   -1.6637   -1.9414    0.6644 H   0  0  0  0  0  0  0  0  0  0  0  0
   -3.3577   -1.4742   -0.7769 H   0  0  0  0  0  0  0  0  0  0  0  0
   -5.8784   -2.1695   -0.2260 H   0  0  0  0  0  0  0  0  0  0  0  0
   -8.3949   -2.1511    1.5826 H   0  0  0  0  0  0  0  0  0  0  0  0
   -8.2458   -2.4825   -0.2064 H   0  0  0  0  0  0  0  0  0  0  0  0
   -9.3299   -1.2084    0.4170 H   0  0  0  0  0  0  0  0  0  0  0  0
   -8.5247    0.8893    1.1549 H   0  0  0  0  0  0  0  0  0  0  0  0
   -8.3368    2.5991    2.2296 H   0  0  0  0  0  0  0  0  0  0  0  0
   -7.7402    4.3214    2.0074 H   0  0  0  0  0  0  0  0  0  0  0  0
   -8.5439    3.4554    0.6684 H   0  0  0  0  0  0  0  0  0  0  0  0
   -2.6006    3.2579   -2.2521 H   0  0  0  0  0  0  0  0  0  0  0  0
   -2.2612    4.2744   -0.8088 H   0  0  0  0  0  0  0  0  0  0  0  0
    2.4830    3.8544   -1.8236 H   0  0  0  0  0  0  0  0  0  0  0  0
    4.0905   -2.3232   -1.4715 H   0  0  0  0  0  0  0  0  0  0  0  0
    4.6008   -2.2254    0.2672 H   0  0  0  0  0  0  0  0  0  0  0  0
    6.4296   -1.4777   -1.3064 H   0  0  0  0  0  0  0  0  0  0  0  0
    5.3192   -0.1763   -1.9216 H   0  0  0  0  0  0  0  0  0  0  0  0
    5.2562    1.5438    1.2664 H   0  0  0  0  0  0  0  0  0  0  0  0
    4.7059    1.6957   -0.4712 H   0  0  0  0  0  0  0  0  0  0  0  0
    2.8592    0.8374    1.1237 H   0  0  0  0  0  0  0  0  0  0  0  0
    3.9557   -0.4251    1.6016 H   0  0  0  0  0  0  0  0  0  0  0  0
    7.8301   -0.1177   -0.7629 H   0  0  0  0  0  0  0  0  0  0  0  0
    7.7792   -0.0159    1.8351 H   0  0  0  0  0  0  0  0  0  0  0  0
    9.0946    0.7757    0.9306 H   0  0  0  0  0  0  0  0  0  0  0  0
    7.8021    1.8050    1.5674 H   0  0  0  0  0  0  0  0  0  0  0  0
    7.1222    2.7713   -0.2343 H   0  0  0  0  0  0  0  0  0  0  0  0
    6.3469    1.9504   -1.6425 H   0  0  0  0  0  0  0  0  0  0  0  0
    8.1097    2.0575   -1.5385 H   0  0  0  0  0  0  0  0  0  0  0  0
  1  2  1  0
  2  3  1  0
  3  4  1  0
  4  5  1  0
  5  6  1  0
  6  7  1  0
  7  8  2  0
  8  9  1  0
  9 10  2  0
 10 11  1  0
 11 12  1  0
 11 13  2  0
 13 14  1  0
 14 15  1  0
 15 16  1  0
 14 17  2  0
 17 18  1  0
  6 19  2  0
 19 20  1  0
 20 21  1  0
 20 22  2  0
 22 23  1  0
 23 24  2  0
 24 25  1  0
 25 26  1  0
 26 27  1  0
 27 28  2  0
 27 29  1  0
 29 30  1  0
 30 31  1  0
 31 32  1  0
 32 33  1  0
 33 34  1  0
 32 35  1  0
 35 36  1  0
 35 37  1  0
 26  5  2  0
 34 29  1  0
 18  7  1  0
 25 19  1  0
 17  9  1  0
  1 38  1  0
  1 39  1  0
  1 40  1  0
  2 41  1  0
  2 42  1  0
  4 43  1  0
  4 44  1  0
  8 45  1  0
 10 46  1  0
 12 47  1  0
 12 48  1  0
 12 49  1  0
 13 50  1  0
 16 51  1  0
 16 52  1  0
 16 53  1  0
 21 54  1  0
 21 55  1  0
 23 56  1  0
 30 57  1  0
 30 58  1  0
 31 59  1  0
 31 60  1  0
 33 61  1  0
 33 62  1  0
 34 63  1  0
 34 64  1  0
 35 65  1  0
 36 66  1  0
 36 67  1  0
 36 68  1  0
 37 69  1  0
 37 70  1  0
 37 71  1  0
M  END
$$$$
[H]c1nc(N([H])C(=O)c2c([H])c([H])c(C3([H])C([H])([H])C([H])([H])N(C([H])(C([H])([H])[H])C([H])([H])[H])C([H])([H])C3([H])[H])c([H])c2[H])c([H])c(Oc2c(OC([H])([H])C([H])([H])C([H])([H])OC([H])([H])[H])c([H])c3c(c2[H])c([H])c([H])n3C(=O)N([H])C([H])([H])[H])c1[H]
     RDKit          3D

 85 89  0  0  0  0  0  0  0  0999 V2000
   -9.3927    5.3603    0.4827 C   0  0  0  0  0  0  0  0  0  0  0  0
   -8.1647    4.9228   -0.1759 N   0  0  0  0  0  0  0  0  0  0  0  0
   -7.7421    3.5667   -0.0062 C   0  0  0  0  0  0  0  0  0  0  0  0
   -8.4550    2.7865    0.7176 O   0  0  0  0  0  0  0  0  0  0  0  0
   -6.5616    3.0820   -0.6200 N   0  0  0  0  0  0  0  0  0  0  0  0
   -5.7752    3.8491   -1.3881 C   0  0  0  0  0  0  0  0  0  0  0  0
   -4.7068    3.1362   -1.8637 C   0  0  0  0  0  0  0  0  0  0  0  0
   -4.8469    1.8595   -1.3591 C   0  0  0  0  0  0  0  0  0  0  0  0
   -4.1375    0.6992   -1.4539 C   0  0  0  0  0  0  0  0  0  0  0  0
   -4.5364   -0.4417   -0.8216 C   0  0  0  0  0  0  0  0  0  0  0  0
   -3.8520   -1.6327   -0.8890 O   0  0  0  0  0  0  0  0  0  0  0  0
   -2.7186   -1.7868   -1.6226 C   0  0  0  0  0  0  0  0  0  0  0  0
   -2.8453   -2.2912   -2.9063 C   0  0  0  0  0  0  0  0  0  0  0  0
   -1.6994   -2.4498   -3.6442 C   0  0  0  0  0  0  0  0  0  0  0  0
   -0.5151   -2.1421   -3.1741 N   0  0  0  0  0  0  0  0  0  0  0  0
   -0.3218   -1.6486   -1.9413 C   0  0  0  0  0  0  0  0  0  0  0  0
    0.9881   -1.3466   -1.5152 N   0  0  0  0  0  0  0  0  0  0  0  0
    1.4361   -0.8092   -0.3049 C   0  0  0  0  0  0  0  0  0  0  0  0
    0.6975   -0.4885    0.6247 O   0  0  0  0  0  0  0  0  0  0  0  0
    2.8873   -0.5992   -0.0923 C   0  0  0  0  0  0  0  0  0  0  0  0
    3.6620   -0.1733   -1.1234 C   0  0  0  0  0  0  0  0  0  0  0  0
    5.0250    0.0091   -0.9232 C   0  0  0  0  0  0  0  0  0  0  0  0
    5.6458   -0.2195    0.2798 C   0  0  0  0  0  0  0  0  0  0  0  0
    4.8280   -0.6561    1.3194 C   0  0  0  0  0  0  0  0  0  0  0  0
    3.4704   -0.8415    1.1298 C   0  0  0  0  0  0  0  0  0  0  0  0
    7.0738    0.0068    0.4169 C   0  0  0  0  0  0  0  0  0  0  0  0
    7.8839   -1.2990    0.3111 C   0  0  0  0  0  0  0  0  0  0  0  0
    9.3557   -0.9527    0.2098 C   0  0  0  0  0  0  0  0  0  0  0  0
    9.5010    0.4401    0.4424 N   0  0  0  0  0  0  0  0  0  0  0  0
    8.9936    0.9036    1.6804 C   0  0  0  0  0  0  0  0  0  0  0  0
    7.4789    0.7488    1.6687 C   0  0  0  0  0  0  0  0  0  0  0  0
   10.6024    1.1023   -0.1329 C   0  0  0  0  0  0  0  0  0  0  0  0
   10.4609    0.9894   -1.6566 C   0  0  0  0  0  0  0  0  0  0  0  0
   10.5133    2.5818    0.1765 C   0  0  0  0  0  0  0  0  0  0  0  0
   -1.4309   -1.4696   -1.1585 C   0  0  0  0  0  0  0  0  0  0  0  0
   -5.7153   -0.4767   -0.0305 C   0  0  0  0  0  0  0  0  0  0  0  0
   -6.0821   -1.5614    0.5576 O   0  0  0  0  0  0  0  0  0  0  0  0
   -6.4498   -2.6322    1.1419 C   0  0  0  0  0  0  0  0  0  0  0  0
   -7.8481   -3.1123    0.7174 C   0  0  0  0  0  0  0  0  0  0  0  0
   -8.1750   -4.3833    1.4386 C   0  0  0  0  0  0  0  0  0  0  0  0
   -8.1367   -4.1943    2.8002 O   0  0  0  0  0  0  0  0  0  0  0  0
   -9.0266   -3.2518    3.2280 C   0  0  0  0  0  0  0  0  0  0  0  0
   -6.4320    0.7380    0.0520 C   0  0  0  0  0  0  0  0  0  0  0  0
   -6.0132    1.8514   -0.5842 C   0  0  0  0  0  0  0  0  0  0  0  0
  -10.1097    4.5113    0.5930 H   0  0  0  0  0  0  0  0  0  0  0  0
   -9.8275    6.1860   -0.1167 H   0  0  0  0  0  0  0  0  0  0  0  0
   -9.1460    5.7274    1.4913 H   0  0  0  0  0  0  0  0  0  0  0  0
   -7.6246    5.5796   -0.7432 H   0  0  0  0  0  0  0  0  0  0  0  0
   -5.9394    4.9103   -1.6260 H   0  0  0  0  0  0  0  0  0  0  0  0
   -3.8972    3.4468   -2.4990 H   0  0  0  0  0  0  0  0  0  0  0  0
   -3.2332    0.7312   -2.0584 H   0  0  0  0  0  0  0  0  0  0  0  0
   -3.8371   -2.5534   -3.3076 H   0  0  0  0  0  0  0  0  0  0  0  0
   -1.8499   -2.8605   -4.6629 H   0  0  0  0  0  0  0  0  0  0  0  0
    1.7610   -1.5834   -2.2511 H   0  0  0  0  0  0  0  0  0  0  0  0
    3.1981    0.0155   -2.0830 H   0  0  0  0  0  0  0  0  0  0  0  0
    5.5849    0.3501   -1.7960 H   0  0  0  0  0  0  0  0  0  0  0  0
    5.3227   -0.8374    2.2620 H   0  0  0  0  0  0  0  0  0  0  0  0
    2.8627   -1.1815    1.9480 H   0  0  0  0  0  0  0  0  0  0  0  0
    7.4482    0.6092   -0.4495 H   0  0  0  0  0  0  0  0  0  0  0  0
    7.6446   -1.9804    1.1239 H   0  0  0  0  0  0  0  0  0  0  0  0
    7.5891   -1.7522   -0.6614 H   0  0  0  0  0  0  0  0  0  0  0  0
    9.7954   -1.2234   -0.7558 H   0  0  0  0  0  0  0  0  0  0  0  0
    9.8773   -1.5800    0.9799 H   0  0  0  0  0  0  0  0  0  0  0  0
    9.3648    0.2826    2.5451 H   0  0  0  0  0  0  0  0  0  0  0  0
    9.3045    1.9276    1.8784 H   0  0  0  0  0  0  0  0  0  0  0  0
    7.0575    1.7771    1.5911 H   0  0  0  0  0  0  0  0  0  0  0  0
    7.0918    0.2860    2.5937 H   0  0  0  0  0  0  0  0  0  0  0  0
   11.5963    0.7458    0.2035 H   0  0  0  0  0  0  0  0  0  0  0  0
   11.2434    0.3192   -2.0924 H   0  0  0  0  0  0  0  0  0  0  0  0
    9.4866    0.5102   -1.9386 H   0  0  0  0  0  0  0  0  0  0  0  0
   10.4794    1.9636   -2.1559 H   0  0  0  0  0  0  0  0  0  0  0  0
   11.1219    3.0978   -0.6089 H   0  0  0  0  0  0  0  0  0  0  0  0
   11.0128    2.8441    1.1371 H   0  0  0  0  0  0  0  0  0  0  0  0
    9.4759    2.9640    0.1199 H   0  0  0  0  0  0  0  0  0  0  0  0
   -1.3756   -1.0779   -0.1535 H   0  0  0  0  0  0  0  0  0  0  0  0
   -6.4543   -2.5312    2.2794 H   0  0  0  0  0  0  0  0  0  0  0  0
   -5.7606   -3.5451    1.0127 H   0  0  0  0  0  0  0  0  0  0  0  0
   -7.7541   -3.3535   -0.3664 H   0  0  0  0  0  0  0  0  0  0  0  0
   -8.6247   -2.3586    0.9091 H   0  0  0  0  0  0  0  0  0  0  0  0
   -7.4418   -5.1539    1.1070 H   0  0  0  0  0  0  0  0  0  0  0  0
   -9.1924   -4.7611    1.1539 H   0  0  0  0  0  0  0  0  0  0  0  0
  -10.0971   -3.4785    2.9768 H   0  0  0  0  0  0  0  0  0  0  0  0
   -8.8204   -2.2284    2.8916 H   0  0  0  0  0  0  0  0  0  0  0  0
   -8.9138   -3.2056    4.3503 H   0  0  0  0  0  0  0  0  0  0  0  0
   -7.3425    0.6870    0.6730 H   0  0  0  0  0  0  0  0  0  0  0  0
  1  2  1  0
  2  3  1  0
  3  4  2  0
  3  5  1  0
  5  6  1  0
  6  7  2  0
  7  8  1  0
  8  9  2  0
  9 10  1  0
 10 11  1  0
 11 12  1  0
 12 13  2  0
 13 14  1  0
 14 15  2  0
 15 16  1  0
 16 17  1  0
 17 18  1  0
 18 19  2  0
 18 20  1  0
 20 21  2  0
 21 22  1  0
 22 23  2  0
 23 24  1  0
 24 25  2  0
 23 26  1  0
 26 27  1  0
 27 28  1  0
 28 29  1  0
 29 30  1  0
 30 31  1  0
 29 32  1  0
 32 33  1  0
 32 34  1  0
 16 35  2  0
 10 36  2  0
 36 37  1  0
 37 38  1  0
 38 39  1  0
 39 40  1  0
 40 41  1  0
 41 42  1  0
 36 43  1  0
 43 44  2  0
 44  5  1  0
 44  8  1  0
 35 12  1  0
 25 20  1  0
 31 26  1  0
  1 45  1  0
  1 46  1  0
  1 47  1  0
  2 48  1  0
  6 49  1  0
  7 50  1  0
  9 51  1  0
 13 52  1  0
 14 53  1  0
 17 54  1  0
 21 55  1  0
 22 56  1  0
 24 57  1  0
 25 58  1  0
 26 59  1  0
 27 60  1  0
 27 61  1  0
 28 62  1  0
 28 63  1  0
 30 64  1  0
 30 65  1  0
 31 66  1  0
 31 67  1  0
 32 68  1  0
 33 69  1  0
 33 70  1  0
 33 71  1  0
 34 72  1  0
 34 73  1  0
 34 74  1  0
 35 75  1  0
 38 76  1  0
 38 77  1  0
 39 78  1  0
 39 79  1  0
 40 80  1  0
 40 81  1  0
 42 82  1  0
 42 83  1  0
 42 84  1  0
 43 85  1  0
M  END
$$$$
[H]c1nc(N([H])[H])c2c(-c3sc4c(OC([H])([H])[H])c([H])c(C([H])([H])[H])c([H])c4c3[H])c(C([H])([H])OC([H])([H])C([H])([H])[H])c(C(=O)N3C([H])([H])C([H])([H])C3([H])[H])n2n1
     RDKit          3D

 57 61  0  0  0  0  0  0  0  0999 V2000
   -0.8696    4.4904   -1.4167 C   0  0  0  0  0  0  0  0  0  0  0  0
   -0.8819    3.4668   -2.4929 C   0  0  0  0  0  0  0  0  0  0  0  0
   -0.6995    2.1485   -2.1244 O   0  0  0  0  0  0  0  0  0  0  0  0
   -1.5574    1.8238   -1.0829 C   0  0  0  0  0  0  0  0  0  0  0  0
   -1.5946    0.4207   -0.6573 C   0  0  0  0  0  0  0  0  0  0  0  0
   -0.6139   -0.2465   -0.0436 C   0  0  0  0  0  0  0  0  0  0  0  0
    0.8386   -0.0443    0.0265 C   0  0  0  0  0  0  0  0  0  0  0  0
    1.6167    0.1501    1.1498 C   0  0  0  0  0  0  0  0  0  0  0  0
    2.9537    0.1867    0.9610 C   0  0  0  0  0  0  0  0  0  0  0  0
    3.9306    0.2609    1.9774 C   0  0  0  0  0  0  0  0  0  0  0  0
    5.2831    0.1914    1.7242 C   0  0  0  0  0  0  0  0  0  0  0  0
    6.2708    0.2017    2.8505 C   0  0  0  0  0  0  0  0  0  0  0  0
    5.7222    0.0442    0.4200 C   0  0  0  0  0  0  0  0  0  0  0  0
    4.7920   -0.0233   -0.5705 C   0  0  0  0  0  0  0  0  0  0  0  0
    5.1535   -0.1779   -1.8957 O   0  0  0  0  0  0  0  0  0  0  0  0
    6.4516   -0.2736   -2.3938 C   0  0  0  0  0  0  0  0  0  0  0  0
    3.4064    0.0439   -0.3136 C   0  0  0  0  0  0  0  0  0  0  0  0
    1.9932   -0.1370   -1.2181 S   0  0  0  0  0  0  0  0  0  0  0  0
   -1.1290   -1.4682    0.4323 C   0  0  0  0  0  0  0  0  0  0  0  0
   -0.6022   -2.5666    1.0148 C   0  0  0  0  0  0  0  0  0  0  0  0
    0.7490   -2.6783    1.3663 N   0  0  0  0  0  0  0  0  0  0  0  0
   -1.3970   -3.6720    1.2605 N   0  0  0  0  0  0  0  0  0  0  0  0
   -2.6814   -3.6737    0.9116 C   0  0  0  0  0  0  0  0  0  0  0  0
   -3.1962   -2.5847    0.3249 N   0  0  0  0  0  0  0  0  0  0  0  0
   -2.4470   -1.5078    0.0929 N   0  0  0  0  0  0  0  0  0  0  0  0
   -2.7634   -0.3563   -0.5767 C   0  0  0  0  0  0  0  0  0  0  0  0
   -4.0719   -0.2310   -1.1979 C   0  0  0  0  0  0  0  0  0  0  0  0
   -4.2493    0.2503   -2.3016 O   0  0  0  0  0  0  0  0  0  0  0  0
   -5.2298   -0.6956   -0.4841 N   0  0  0  0  0  0  0  0  0  0  0  0
   -6.6200   -1.0505   -0.5709 C   0  0  0  0  0  0  0  0  0  0  0  0
   -6.6009   -1.4819    0.9174 C   0  0  0  0  0  0  0  0  0  0  0  0
   -5.4400   -0.5612    1.0037 C   0  0  0  0  0  0  0  0  0  0  0  0
   -0.1760    5.3282   -1.6594 H   0  0  0  0  0  0  0  0  0  0  0  0
   -1.8945    4.9773   -1.3554 H   0  0  0  0  0  0  0  0  0  0  0  0
   -0.6317    4.1613   -0.4163 H   0  0  0  0  0  0  0  0  0  0  0  0
   -0.0069    3.7030   -3.2200 H   0  0  0  0  0  0  0  0  0  0  0  0
   -1.7842    3.5512   -3.1348 H   0  0  0  0  0  0  0  0  0  0  0  0
   -1.7148    2.5566   -0.3129 H   0  0  0  0  0  0  0  0  0  0  0  0
   -2.5893    1.9203   -1.6970 H   0  0  0  0  0  0  0  0  0  0  0  0
    1.1205    0.2345    2.1420 H   0  0  0  0  0  0  0  0  0  0  0  0
    3.6496    0.3598    3.0164 H   0  0  0  0  0  0  0  0  0  0  0  0
    6.0708   -0.7136    3.5046 H   0  0  0  0  0  0  0  0  0  0  0  0
    7.2520   -0.0138    2.4047 H   0  0  0  0  0  0  0  0  0  0  0  0
    6.2547    1.1215    3.4208 H   0  0  0  0  0  0  0  0  0  0  0  0
    6.7788   -0.0124    0.2313 H   0  0  0  0  0  0  0  0  0  0  0  0
    7.0647    0.6153   -2.1360 H   0  0  0  0  0  0  0  0  0  0  0  0
    6.8784   -1.2158   -2.0246 H   0  0  0  0  0  0  0  0  0  0  0  0
    6.3661   -0.4251   -3.5182 H   0  0  0  0  0  0  0  0  0  0  0  0
    1.5563   -2.8857    0.7230 H   0  0  0  0  0  0  0  0  0  0  0  0
    0.9993   -2.5709    2.4068 H   0  0  0  0  0  0  0  0  0  0  0  0
   -3.2808   -4.5771    1.1427 H   0  0  0  0  0  0  0  0  0  0  0  0
   -7.3934   -0.2765   -0.6690 H   0  0  0  0  0  0  0  0  0  0  0  0
   -6.8037   -1.9882   -1.2051 H   0  0  0  0  0  0  0  0  0  0  0  0
   -6.2983   -2.5596    1.0438 H   0  0  0  0  0  0  0  0  0  0  0  0
   -7.5178   -1.2326    1.4668 H   0  0  0  0  0  0  0  0  0  0  0  0
   -4.6400   -0.8318    1.6314 H   0  0  0  0  0  0  0  0  0  0  0  0
   -5.7761    0.5249    1.1213 H   0  0  0  0  0  0  0  0  0  0  0  0
  1  2  1  0
  2  3  1  0
  3  4  1  0
  4  5  1  0
  5  6  1  0
  6  7  1  0
  7  8  2  0
  8  9  1  0
  9 10  2  0
 10 11  1  0
 11 12  1  0
 11 13  2  0
 13 14  1  0
 14 15  1  0
 15 16  1  0
 14 17  2  0
 17 18  1  0
  6 19  2  0
 19 20  1  0
 20 21  1  0
 20 22  2  0
 22 23  1  0
 23 24  2  0
 24 25  1  0
 25 26  1  0
 26 27  1  0
 27 28  2  0
 27 29  1  0
 29 30  1  0
 30 31  1  0
 31 32  1  0
 26  5  2  0
 32 29  1  0
 18  7  1  0
 25 19  1  0
 17  9  1  0
  1 33  1  0
  1 34  1  0
  1 35  1  0
  2 36  1  0
  2 37  1  0
  4 38  1  0
  4 39  1  0
  8 40  1  0
 10 41  1  0
 12 42  1  0
 12 43  1  0
 12 44  1  0
 13 45  1  0
 16 46  1  0
 16 47  1  0
 16 48  1  0
 21 49  1  0
 21 50  1  0
 23 51  1  0
 30 52  1  0
 30 53  1  0
 31 54  1  0
 31 55  1  0
 32 56  1  0
 32 57  1  0
M  END
$$$$
[H]OC(=O)C1([H])C([H])([H])C([H])([H])N(C(=O)c2c(C([H])([H])OC([H])([H])C([H])([H])[H])c(-c3sc4c(OC([H])([H])[H])c([H])c(C([H])([H])[H])c([H])c4c3[H])c3c(N([H])[H])nc([H])nn23)C([H])([H])C1([H])[H]
     RDKit          3D

 66 70  0  0  0  0  0  0  0  0999 V2000
    0.9633   -4.9467   -1.0179 C   0  0  0  0  0  0  0  0  0  0  0  0
    0.0770   -3.9048   -0.4026 C   0  0  0  0  0  0  0  0  0  0  0  0
   -0.1148   -2.7694   -0.8313 O   0  0  0  0  0  0  0  0  0  0  0  0
   -0.2502   -1.5723   -1.2704 C   0  0  0  0  0  0  0  0  0  0  0  0
    0.1868   -0.6155   -0.1609 C   0  0  0  0  0  0  0  0  0  0  0  0
   -0.7533   -0.0111    0.6678 C   0  0  0  0  0  0  0  0  0  0  0  0
   -2.2162    0.0701    0.3917 C   0  0  0  0  0  0  0  0  0  0  0  0
   -2.9828   -0.6503   -0.4656 C   0  0  0  0  0  0  0  0  0  0  0  0
   -4.3052   -0.2883   -0.6217 C   0  0  0  0  0  0  0  0  0  0  0  0
   -5.2485   -0.8439   -1.5170 C   0  0  0  0  0  0  0  0  0  0  0  0
   -6.4986   -0.2927   -1.5846 C   0  0  0  0  0  0  0  0  0  0  0  0
   -7.4901   -0.8400   -2.5798 C   0  0  0  0  0  0  0  0  0  0  0  0
   -6.9240    0.7822   -0.8244 C   0  0  0  0  0  0  0  0  0  0  0  0
   -6.0161    1.3359    0.0594 C   0  0  0  0  0  0  0  0  0  0  0  0
   -6.3339    2.3426    0.8135 O   0  0  0  0  0  0  0  0  0  0  0  0
   -6.8758    3.3288    1.4544 C   0  0  0  0  0  0  0  0  0  0  0  0
   -4.7151    0.7581    0.1100 C   0  0  0  0  0  0  0  0  0  0  0  0
   -3.3429    1.2086    0.9612 S   0  0  0  0  0  0  0  0  0  0  0  0
   -0.0964    0.6723    1.6723 C   0  0  0  0  0  0  0  0  0  0  0  0
   -0.4237    1.3504    2.8218 C   0  0  0  0  0  0  0  0  0  0  0  0
   -1.7507    1.4029    3.3087 N   0  0  0  0  0  0  0  0  0  0  0  0
    0.5428    1.8387    3.6407 N   0  0  0  0  0  0  0  0  0  0  0  0
    1.8269    1.6663    3.3607 C   0  0  0  0  0  0  0  0  0  0  0  0
    2.0958    0.9980    2.2511 N   0  0  0  0  0  0  0  0  0  0  0  0
    1.2504    0.4899    1.3966 N   0  0  0  0  0  0  0  0  0  0  0  0
    1.4238   -0.2777    0.2834 C   0  0  0  0  0  0  0  0  0  0  0  0
    2.6794   -0.4480   -0.4289 C   0  0  0  0  0  0  0  0  0  0  0  0
    2.5228   -1.0342   -1.6321 O   0  0  0  0  0  0  0  0  0  0  0  0
    4.0080   -0.1777   -0.2554 N   0  0  0  0  0  0  0  0  0  0  0  0
    4.7474    0.3603    0.8226 C   0  0  0  0  0  0  0  0  0  0  0  0
    6.2753    0.1991    0.6334 C   0  0  0  0  0  0  0  0  0  0  0  0
    6.7759    0.9076   -0.5773 C   0  0  0  0  0  0  0  0  0  0  0  0
    5.7513    0.8351   -1.6945 C   0  0  0  0  0  0  0  0  0  0  0  0
    4.8917   -0.4203   -1.4639 C   0  0  0  0  0  0  0  0  0  0  0  0
    7.1841    2.2949   -0.3226 C   0  0  0  0  0  0  0  0  0  0  0  0
    6.5565    3.1691    0.5624 O   0  0  0  0  0  0  0  0  0  0  0  0
    8.2038    2.7653   -0.9597 O   0  0  0  0  0  0  0  0  0  0  0  0
    1.4675   -5.5051   -0.1665 H   0  0  0  0  0  0  0  0  0  0  0  0
    1.7608   -4.5554   -1.6261 H   0  0  0  0  0  0  0  0  0  0  0  0
    0.3871   -5.7407   -1.5324 H   0  0  0  0  0  0  0  0  0  0  0  0
   -0.9121   -4.4856   -0.1934 H   0  0  0  0  0  0  0  0  0  0  0  0
    0.4618   -3.9102    0.7370 H   0  0  0  0  0  0  0  0  0  0  0  0
    0.6999   -1.4812   -2.0114 H   0  0  0  0  0  0  0  0  0  0  0  0
   -0.9640   -1.1528   -1.9853 H   0  0  0  0  0  0  0  0  0  0  0  0
   -2.6499   -1.5768   -1.0039 H   0  0  0  0  0  0  0  0  0  0  0  0
   -5.0441   -1.6760   -2.1567 H   0  0  0  0  0  0  0  0  0  0  0  0
   -7.2626   -1.8485   -2.9163 H   0  0  0  0  0  0  0  0  0  0  0  0
   -8.4995   -0.6819   -2.2025 H   0  0  0  0  0  0  0  0  0  0  0  0
   -7.3698   -0.1857   -3.4982 H   0  0  0  0  0  0  0  0  0  0  0  0
   -7.9417    1.1893   -0.9049 H   0  0  0  0  0  0  0  0  0  0  0  0
   -7.2255    3.0050    2.5033 H   0  0  0  0  0  0  0  0  0  0  0  0
   -7.7962    3.7497    0.9919 H   0  0  0  0  0  0  0  0  0  0  0  0
   -6.2035    4.2030    1.7181 H   0  0  0  0  0  0  0  0  0  0  0  0
   -2.1884    2.3328    3.4423 H   0  0  0  0  0  0  0  0  0  0  0  0
   -2.2795    0.5340    3.5877 H   0  0  0  0  0  0  0  0  0  0  0  0
    2.6228    2.0457    4.0177 H   0  0  0  0  0  0  0  0  0  0  0  0
    4.5993    1.4835    0.9083 H   0  0  0  0  0  0  0  0  0  0  0  0
    4.5766   -0.0687    1.8241 H   0  0  0  0  0  0  0  0  0  0  0  0
    6.4605   -0.8927    0.5963 H   0  0  0  0  0  0  0  0  0  0  0  0
    6.6925    0.6456    1.5390 H   0  0  0  0  0  0  0  0  0  0  0  0
    7.7265    0.3574   -0.8732 H   0  0  0  0  0  0  0  0  0  0  0  0
    5.1308    1.7126   -1.7781 H   0  0  0  0  0  0  0  0  0  0  0  0
    6.3224    0.6607   -2.6122 H   0  0  0  0  0  0  0  0  0  0  0  0
    4.2658   -0.4960   -2.3493 H   0  0  0  0  0  0  0  0  0  0  0  0
    5.5271   -1.2704   -1.2313 H   0  0  0  0  0  0  0  0  0  0  0  0
    6.0110    3.9248    0.1934 H   0  0  0  0  0  0  0  0  0  0  0  0
  1  2  1  0
  2  3  1  0
  3  4  1  0
  4  5  1  0
  5  6  1  0
  6  7  1  0
  7  8  2  0
  8  9  1  0
  9 10  2  0
 10 11  1  0
 11 12  1  0
 11 13  2  0
 13 14  1  0
 14 15  1  0
 15 16  1  0
 14 17  2  0
 17 18  1  0
  6 19  2  0
 19 20  1  0
 20 21  1  0
 20 22  2  0
 22 23  1  0
 23 24  2  0
 24 25  1  0
 25 26  1  0
 26 27  1  0
 27 28  2  0
 27 29  1  0
 29 30  1  0
 30 31  1  0
 31 32  1  0
 32 33  1  0
 33 34  1  0
 32 35  1  0
 35 36  1  0
 35 37  2  0
 26  5  2  0
 34 29  1  0
 18  7  1  0
 25 19  1  0
 17  9  1  0
  1 38  1  0
  1 39  1  0
  1 40  1  0
  2 41  1  0
  2 42  1  0
  4 43  1  0
  4 44  1  0
  8 45  1  0
 10 46  1  0
 12 47  1  0
 12 48  1  0
 12 49  1  0
 13 50  1  0
 16 51  1  0
 16 52  1  0
 16 53  1  0
 21 54  1  0
 21 55  1  0
 23 56  1  0
 30 57  1  0
 30 58  1  0
 31 59  1  0
 31 60  1  0
 32 61  1  0
 33 62  1  0
 33 63  1  0
 34 64  1  0
 34 65  1  0
 36 66  1  0
M  END
$$$$
