[H]Oc1c([H])c([H])c([C@]2([H])Sc3c([H])c(O[H])c([H])c([H])c3O[C@@]2([H])c2c([H])c([H])c(OC([H])([H])C([H])([H])N3C([H])([H])C([H])([H])C([H])([H])C3([H])[H])c([H])c2[H])c([H])c1[H]
     RDKit          3D

 59 63  0  0  0  0  0  0  0  0999 V2000
   -6.6548    5.1162    1.5062 O   0  0  0  0  0  0  0  0  0  0  0  0
   -5.7726    4.1756    1.0091 C   0  0  0  0  0  0  0  0  0  0  0  0
   -5.8679    2.8310    1.3488 C   0  0  0  0  0  0  0  0  0  0  0  0
   -4.9511    1.9292    0.8175 C   0  0  0  0  0  0  0  0  0  0  0  0
   -3.9490    2.3361   -0.0386 C   0  0  0  0  0  0  0  0  0  0  0  0
   -3.8964    3.6775   -0.3447 C   0  0  0  0  0  0  0  0  0  0  0  0
   -4.7839    4.5960    0.1606 C   0  0  0  0  0  0  0  0  0  0  0  0
   -2.9421    1.3743   -0.6212 C   0  0  2  0  0  0  0  0  0  0  0  0
   -3.9196    0.2524   -1.6873 S   0  0  0  0  0  0  0  0  0  0  0  0
   -3.7653   -1.3871   -1.0073 C   0  0  0  0  0  0  0  0  0  0  0  0
   -4.1365   -2.4627   -1.7326 C   0  0  0  0  0  0  0  0  0  0  0  0
   -4.0234   -3.7274   -1.2114 C   0  0  0  0  0  0  0  0  0  0  0  0
   -4.3965   -4.8683   -1.9293 O   0  0  0  0  0  0  0  0  0  0  0  0
   -3.5293   -3.9274    0.0615 C   0  0  0  0  0  0  0  0  0  0  0  0
   -3.1505   -2.8166    0.7985 C   0  0  0  0  0  0  0  0  0  0  0  0
   -3.2729   -1.5614    0.2557 C   0  0  0  0  0  0  0  0  0  0  0  0
   -2.9050   -0.4648    0.9669 O   0  0  0  0  0  0  0  0  0  0  0  0
   -2.2477    0.6771    0.4594 C   0  0  1  0  0  0  0  0  0  0  0  0
   -0.8429    0.2622    0.2123 C   0  0  0  0  0  0  0  0  0  0  0  0
   -0.1647   -0.4308    1.2263 C   0  0  0  0  0  0  0  0  0  0  0  0
    1.1322   -0.8549    1.0863 C   0  0  0  0  0  0  0  0  0  0  0  0
    1.8229   -0.6087   -0.0778 C   0  0  0  0  0  0  0  0  0  0  0  0
    3.1363   -1.0135   -0.2756 O   0  0  0  0  0  0  0  0  0  0  0  0
    3.8326   -1.7007    0.7163 C   0  0  0  0  0  0  0  0  0  0  0  0
    5.2245   -2.0706    0.3683 C   0  0  0  0  0  0  0  0  0  0  0  0
    6.1301   -1.0433    0.0579 N   0  0  0  0  0  0  0  0  0  0  0  0
    6.5302   -0.1517    1.0828 C   0  0  0  0  0  0  0  0  0  0  0  0
    7.3635    0.8748    0.3263 C   0  0  0  0  0  0  0  0  0  0  0  0
    6.5033    1.0566   -0.9282 C   0  0  0  0  0  0  0  0  0  0  0  0
    6.0090   -0.3748   -1.1846 C   0  0  0  0  0  0  0  0  0  0  0  0
    1.1544    0.0715   -1.0709 C   0  0  0  0  0  0  0  0  0  0  0  0
   -0.1472    0.5000   -0.9368 C   0  0  0  0  0  0  0  0  0  0  0  0
   -7.5015    5.3258    1.0089 H   0  0  0  0  0  0  0  0  0  0  0  0
   -6.6549    2.5499    2.0137 H   0  0  0  0  0  0  0  0  0  0  0  0
   -5.0453    0.8946    1.0939 H   0  0  0  0  0  0  0  0  0  0  0  0
   -3.1259    4.0809   -1.0204 H   0  0  0  0  0  0  0  0  0  0  0  0
   -4.6926    5.6551   -0.1188 H   0  0  0  0  0  0  0  0  0  0  0  0
   -2.3392    1.9752   -1.3093 H   0  0  0  0  0  0  0  0  0  0  0  0
   -4.5313   -2.3696   -2.7370 H   0  0  0  0  0  0  0  0  0  0  0  0
   -4.3209   -5.7865   -1.5663 H   0  0  0  0  0  0  0  0  0  0  0  0
   -3.4239   -4.9037    0.5093 H   0  0  0  0  0  0  0  0  0  0  0  0
   -2.7607   -3.0024    1.8080 H   0  0  0  0  0  0  0  0  0  0  0  0
   -2.1742    1.3687    1.3559 H   0  0  0  0  0  0  0  0  0  0  0  0
   -0.7341   -0.6193    2.1529 H   0  0  0  0  0  0  0  0  0  0  0  0
    1.6318   -1.3892    1.8882 H   0  0  0  0  0  0  0  0  0  0  0  0
    3.8195   -1.1291    1.6909 H   0  0  0  0  0  0  0  0  0  0  0  0
    3.2876   -2.6524    0.9632 H   0  0  0  0  0  0  0  0  0  0  0  0
    5.1925   -2.7908   -0.4827 H   0  0  0  0  0  0  0  0  0  0  0  0
    5.6415   -2.6557    1.2297 H   0  0  0  0  0  0  0  0  0  0  0  0
    7.1863   -0.5876    1.8455 H   0  0  0  0  0  0  0  0  0  0  0  0
    5.7000    0.3701    1.5981 H   0  0  0  0  0  0  0  0  0  0  0  0
    8.3135    0.3904    0.0637 H   0  0  0  0  0  0  0  0  0  0  0  0
    7.4719    1.8220    0.8901 H   0  0  0  0  0  0  0  0  0  0  0  0
    5.6677    1.7209   -0.6738 H   0  0  0  0  0  0  0  0  0  0  0  0
    7.0978    1.3924   -1.7824 H   0  0  0  0  0  0  0  0  0  0  0  0
    5.0405   -0.3879   -1.6784 H   0  0  0  0  0  0  0  0  0  0  0  0
    6.7427   -0.8601   -1.8936 H   0  0  0  0  0  0  0  0  0  0  0  0
    1.6570    0.2892   -2.0058 H   0  0  0  0  0  0  0  0  0  0  0  0
   -0.6657    1.0331   -1.7297 H   0  0  0  0  0  0  0  0  0  0  0  0
  1  2  1  0
  2  3  2  0
  3  4  1  0
  4  5  2  0
  5  6  1  0
  6  7  2  0
  5  8  1  0
  8  9  1  0
  9 10  1  0
 10 11  2  0
 11 12  1  0
 12 13  1  0
 12 14  2  0
 14 15  1  0
 15 16  2  0
 16 17  1  0
 17 18  1  0
 18 19  1  0
 19 20  2  0
 20 21  1  0
 21 22  2  0
 22 23  1  0
 23 24  1  0
 24 25  1  0
 25 26  1  0
 26 27  1  0
 27 28  1  0
 28 29  1  0
 29 30  1  0
 22 31  1  0
 31 32  2  0
  7  2  1  0
 18  8  1  0
 32 19  1  0
 16 10  1  0
 30 26  1  0
  1 33  1  0
  3 34  1  0
  4 35  1  0
  6 36  1  0
  7 37  1  0
  8 38  1  6
 11 39  1  0
 13 40  1  0
 14 41  1  0
 15 42  1  0
 18 43  1  1
 20 44  1  0
 21 45  1  0
 24 46  1  0
 24 47  1  0
 25 48  1  0
 25 49  1  0
 27 50  1  0
 27 51  1  0
 28 52  1  0
 28 53  1  0
 29 54  1  0
 29 55  1  0
 30 56  1  0
 30 57  1  0
 31 58  1  0
 32 59  1  0
M  END
$$$$
[H]c1nc(N([H])C(=O)C([H])([H])[C@]([H])(C(=O)N([H])[C@]([H])(C(=O)N([H])C([H])([H])[H])C([H])([H])c2c([H])n([H])c3c([H])c([H])c([H])c([H])c23)C([H])([H])C([H])(C([H])([H])[H])C([H])([H])[H])sc1[H]
     RDKit          3D

 61 63  0  0  0  0  0  0  0  0999 V2000
    3.7877   -2.7942   -2.3296 C   0  0  0  0  0  0  0  0  0  0  0  0
    3.2345   -1.6161   -1.6477 N   0  0  0  0  0  0  0  0  0  0  0  0
    2.1203   -1.7339   -0.7995 C   0  0  0  0  0  0  0  0  0  0  0  0
    1.6189   -2.8990   -0.6600 O   0  0  0  0  0  0  0  0  0  0  0  0
    1.4697   -0.6372   -0.0546 C   0  0  2  0  0  0  0  0  0  0  0  0
    2.2981   -0.0556    1.0538 C   0  0  0  0  0  0  0  0  0  0  0  0
    3.5734    0.5309    0.6886 C   0  0  0  0  0  0  0  0  0  0  0  0
    4.8265   -0.0168    0.9231 C   0  0  0  0  0  0  0  0  0  0  0  0
    5.7706    0.8316    0.4579 N   0  0  0  0  0  0  0  0  0  0  0  0
    5.1590    1.9007   -0.0646 C   0  0  0  0  0  0  0  0  0  0  0  0
    5.6695    3.0304   -0.6564 C   0  0  0  0  0  0  0  0  0  0  0  0
    4.8345    4.0144   -1.1264 C   0  0  0  0  0  0  0  0  0  0  0  0
    3.4655    3.8635   -1.0014 C   0  0  0  0  0  0  0  0  0  0  0  0
    2.9716    2.7214   -0.4040 C   0  0  0  0  0  0  0  0  0  0  0  0
    3.7908    1.7370    0.0670 C   0  0  0  0  0  0  0  0  0  0  0  0
    0.2421   -1.1358    0.6057 N   0  0  0  0  0  0  0  0  0  0  0  0
   -1.0288   -0.7459    0.1850 C   0  0  0  0  0  0  0  0  0  0  0  0
   -1.1463    0.0434   -0.7763 O   0  0  0  0  0  0  0  0  0  0  0  0
   -2.2949   -1.2389    0.8419 C   0  0  2  0  0  0  0  0  0  0  0  0
   -2.3427   -2.6854    0.5546 C   0  0  0  0  0  0  0  0  0  0  0  0
   -3.4503   -3.5114    1.0534 C   0  0  0  0  0  0  0  0  0  0  0  0
   -4.8291   -3.1980    0.6200 C   0  0  0  0  0  0  0  0  0  0  0  0
   -3.1470   -4.9548    0.6044 C   0  0  0  0  0  0  0  0  0  0  0  0
   -3.4269   -0.4161    0.2898 C   0  0  0  0  0  0  0  0  0  0  0  0
   -3.2240    1.0459    0.6094 C   0  0  0  0  0  0  0  0  0  0  0  0
   -2.3048    1.4702    1.3446 O   0  0  0  0  0  0  0  0  0  0  0  0
   -4.1116    2.0096    0.0558 N   0  0  0  0  0  0  0  0  0  0  0  0
   -3.9116    3.4051    0.3616 C   0  0  0  0  0  0  0  0  0  0  0  0
   -4.6134    4.4454   -0.0535 N   0  0  0  0  0  0  0  0  0  0  0  0
   -4.2863    5.6316    0.3257 C   0  0  0  0  0  0  0  0  0  0  0  0
   -3.2012    5.7665    1.1611 C   0  0  0  0  0  0  0  0  0  0  0  0
   -2.7203    4.1374    1.3435 S   0  0  0  0  0  0  0  0  0  0  0  0
    3.6750   -2.6949   -3.4304 H   0  0  0  0  0  0  0  0  0  0  0  0
    3.3494   -3.7339   -1.9445 H   0  0  0  0  0  0  0  0  0  0  0  0
    4.8788   -2.7775   -2.1241 H   0  0  0  0  0  0  0  0  0  0  0  0
    3.7322   -0.7277   -1.8665 H   0  0  0  0  0  0  0  0  0  0  0  0
    1.1359    0.0945   -0.8117 H   0  0  0  0  0  0  0  0  0  0  0  0
    1.6146    0.6840    1.5758 H   0  0  0  0  0  0  0  0  0  0  0  0
    2.4035   -0.8767    1.8301 H   0  0  0  0  0  0  0  0  0  0  0  0
    5.0631   -0.9570    1.3933 H   0  0  0  0  0  0  0  0  0  0  0  0
    6.8040    0.6638    0.5062 H   0  0  0  0  0  0  0  0  0  0  0  0
    6.7529    3.1402   -0.7506 H   0  0  0  0  0  0  0  0  0  0  0  0
    5.2455    4.9061   -1.5932 H   0  0  0  0  0  0  0  0  0  0  0  0
    2.8472    4.6557   -1.3819 H   0  0  0  0  0  0  0  0  0  0  0  0
    1.9128    2.5904   -0.3001 H   0  0  0  0  0  0  0  0  0  0  0  0
    0.3594   -1.7904    1.3991 H   0  0  0  0  0  0  0  0  0  0  0  0
   -2.1349   -1.0028    1.9251 H   0  0  0  0  0  0  0  0  0  0  0  0
   -2.1949   -2.8343   -0.5420 H   0  0  0  0  0  0  0  0  0  0  0  0
   -1.3944   -3.1232    1.0028 H   0  0  0  0  0  0  0  0  0  0  0  0
   -3.4642   -3.5816    2.1700 H   0  0  0  0  0  0  0  0  0  0  0  0
   -5.4447   -2.6873    1.3935 H   0  0  0  0  0  0  0  0  0  0  0  0
   -4.8945   -2.6937   -0.3795 H   0  0  0  0  0  0  0  0  0  0  0  0
   -5.3787   -4.1708    0.4560 H   0  0  0  0  0  0  0  0  0  0  0  0
   -2.1899   -5.2960    1.0050 H   0  0  0  0  0  0  0  0  0  0  0  0
   -3.0801   -4.9549   -0.5019 H   0  0  0  0  0  0  0  0  0  0  0  0
   -3.9826   -5.6198    0.8839 H   0  0  0  0  0  0  0  0  0  0  0  0
   -3.4385   -0.5466   -0.8107 H   0  0  0  0  0  0  0  0  0  0  0  0
   -4.4155   -0.6387    0.7497 H   0  0  0  0  0  0  0  0  0  0  0  0
   -4.9010    1.7809   -0.5596 H   0  0  0  0  0  0  0  0  0  0  0  0
   -4.8541    6.5346   -0.0039 H   0  0  0  0  0  0  0  0  0  0  0  0
   -2.7996    6.7120    1.5694 H   0  0  0  0  0  0  0  0  0  0  0  0
  1  2  1  0
  2  3  1  0
  3  4  2  0
  3  5  1  0
  5  6  1  0
  6  7  1  0
  7  8  2  0
  8  9  1  0
  9 10  1  0
 10 11  2  0
 11 12  1  0
 12 13  2  0
 13 14  1  0
 14 15  2  0
  5 16  1  0
 16 17  1  0
 17 18  2  0
 17 19  1  0
 19 20  1  0
 20 21  1  0
 21 22  1  0
 21 23  1  0
 19 24  1  0
 24 25  1  0
 25 26  2  0
 25 27  1  0
 27 28  1  0
 28 29  2  0
 29 30  1  0
 30 31  2  0
 31 32  1  0
 15  7  1  0
 32 28  1  0
 15 10  1  0
  1 33  1  0
  1 34  1  0
  1 35  1  0
  2 36  1  0
  5 37  1  6
  6 38  1  0
  6 39  1  0
  8 40  1  0
  9 41  1  0
 11 42  1  0
 12 43  1  0
 13 44  1  0
 14 45  1  0
 16 46  1  0
 19 47  1  1
 20 48  1  0
 20 49  1  0
 21 50  1  0
 22 51  1  0
 22 52  1  0
 22 53  1  0
 23 54  1  0
 23 55  1  0
 23 56  1  0
 24 57  1  0
 24 58  1  0
 27 59  1  0
 30 60  1  0
 31 61  1  0
M  END
$$$$
[H]OC(=O)[C@@]([H])(N([H])[H])C([H])([H])O[H]
     RDKit          3D

 14 13  0  0  0  0  0  0  0  0999 V2000
   -0.5972    1.0010   -0.8162 N   0  0  0  0  0  0  0  0  0  0  0  0
   -0.0475    0.5482    0.4313 C   0  0  1  0  0  0  0  0  0  0  0  0
   -0.9098   -0.6303    0.8918 C   0  0  0  0  0  0  0  0  0  0  0  0
   -0.8689   -1.6406   -0.0558 O   0  0  0  0  0  0  0  0  0  0  0  0
    1.3608    0.0915    0.3091 C   0  0  0  0  0  0  0  0  0  0  0  0
    2.0414    0.1135   -0.8938 O   0  0  0  0  0  0  0  0  0  0  0  0
    1.9111   -0.3214    1.3660 O   0  0  0  0  0  0  0  0  0  0  0  0
    0.0404    1.6145   -1.3250 H   0  0  0  0  0  0  0  0  0  0  0  0
   -1.4920    1.4929   -0.6120 H   0  0  0  0  0  0  0  0  0  0  0  0
   -0.1624    1.3265    1.2202 H   0  0  0  0  0  0  0  0  0  0  0  0
   -0.5218   -0.9510    1.8729 H   0  0  0  0  0  0  0  0  0  0  0  0
   -1.9534   -0.2774    0.9810 H   0  0  0  0  0  0  0  0  0  0  0  0
   -1.7488   -2.0446   -0.1298 H   0  0  0  0  0  0  0  0  0  0  0  0
    2.9480   -0.3228   -0.9427 H   0  0  0  0  0  0  0  0  0  0  0  0
  1  2  1  0
  2  3  1  0
  3  4  1  0
  2  5  1  0
  5  6  1  0
  5  7  2  0
  1  8  1  0
  1  9  1  0
  2 10  1  1
  3 11  1  0
  3 12  1  0
  4 13  1  0
  6 14  1  0
M  END
$$$$
[H]c1nc2c([H])c(OC([H])([H])C([H])([H])C([H])([H])N3C([H])([H])C([H])([H])N(C([H])([H])[H])C([H])([H])C3([H])[H])c(OC([H])([H])[H])c([H])c2c(N([H])c2c([H])c(OC([H])([H])[H])c(Cl)c([H])c2Cl)c1C#N
     RDKit          3D

 65 68  0  0  0  0  0  0  0  0999 V2000
   -5.2946    0.1799   -2.9709 C   0  0  0  0  0  0  0  0  0  0  0  0
   -6.0951   -0.9158   -2.5530 O   0  0  0  0  0  0  0  0  0  0  0  0
   -6.1608   -1.1576   -1.1778 C   0  0  0  0  0  0  0  0  0  0  0  0
   -5.4971   -0.3938   -0.2509 C   0  0  0  0  0  0  0  0  0  0  0  0
   -5.5371   -0.6002    1.1107 C   0  0  0  0  0  0  0  0  0  0  0  0
   -4.8166    0.2382    2.0340 N   0  0  0  0  0  0  0  0  0  0  0  0
   -4.0248    1.3195    1.6049 C   0  0  0  0  0  0  0  0  0  0  0  0
   -4.6352    2.5531    1.4917 C   0  0  0  0  0  0  0  0  0  0  0  0
   -3.8290    3.6094    1.0643 C   0  0  0  0  0  0  0  0  0  0  0  0
   -2.5270    3.4300    0.7791 N   0  0  0  0  0  0  0  0  0  0  0  0
   -1.9535    2.2186    0.8968 C   0  0  0  0  0  0  0  0  0  0  0  0
   -0.6053    1.9975    0.6091 C   0  0  0  0  0  0  0  0  0  0  0  0
   -0.0254    0.7512    0.7328 C   0  0  0  0  0  0  0  0  0  0  0  0
    1.3282    0.5594    0.4376 O   0  0  0  0  0  0  0  0  0  0  0  0
    2.1607    1.6065    0.0051 C   0  0  0  0  0  0  0  0  0  0  0  0
    3.5417    1.0243   -0.2125 C   0  0  0  0  0  0  0  0  0  0  0  0
    3.4226   -0.0554   -1.2622 C   0  0  0  0  0  0  0  0  0  0  0  0
    4.6627   -0.6900   -1.5641 N   0  0  0  0  0  0  0  0  0  0  0  0
    5.1982   -1.4923   -0.4904 C   0  0  0  0  0  0  0  0  0  0  0  0
    6.5388   -0.9813   -0.0123 C   0  0  0  0  0  0  0  0  0  0  0  0
    7.5161   -0.9508   -1.0794 N   0  0  0  0  0  0  0  0  0  0  0  0
    8.4297    0.1509   -0.7994 C   0  0  0  0  0  0  0  0  0  0  0  0
    6.9128   -0.6710   -2.3660 C   0  0  0  0  0  0  0  0  0  0  0  0
    5.6339    0.1418   -2.1961 C   0  0  0  0  0  0  0  0  0  0  0  0
   -0.7837   -0.3247    1.1524 C   0  0  0  0  0  0  0  0  0  0  0  0
   -0.1660   -1.5451    1.2609 O   0  0  0  0  0  0  0  0  0  0  0  0
   -0.8182   -2.7273    1.6769 C   0  0  0  0  0  0  0  0  0  0  0  0
   -2.1295   -0.1321    1.4455 C   0  0  0  0  0  0  0  0  0  0  0  0
   -2.6832    1.1246    1.3132 C   0  0  0  0  0  0  0  0  0  0  0  0
   -6.0331    2.7467    1.7978 C   0  0  0  0  0  0  0  0  0  0  0  0
   -7.1560    2.8867    2.0549 N   0  0  0  0  0  0  0  0  0  0  0  0
   -6.3055   -1.6561    1.5519 C   0  0  0  0  0  0  0  0  0  0  0  0
   -6.4410   -2.0259    3.2478 Cl  0  0  0  0  0  0  0  0  0  0  0  0
   -7.0004   -2.4646    0.6587 C   0  0  0  0  0  0  0  0  0  0  0  0
   -6.9278   -2.2166   -0.6919 C   0  0  0  0  0  0  0  0  0  0  0  0
   -7.7733   -3.1886   -1.8765 Cl  0  0  0  0  0  0  0  0  0  0  0  0
   -5.4136    0.3597   -4.0746 H   0  0  0  0  0  0  0  0  0  0  0  0
   -4.2180   -0.0377   -2.8166 H   0  0  0  0  0  0  0  0  0  0  0  0
   -5.5182    1.1093   -2.4102 H   0  0  0  0  0  0  0  0  0  0  0  0
   -4.8824    0.4495   -0.5886 H   0  0  0  0  0  0  0  0  0  0  0  0
   -4.9019    0.0142    3.0487 H   0  0  0  0  0  0  0  0  0  0  0  0
   -4.3295    4.5717    0.9823 H   0  0  0  0  0  0  0  0  0  0  0  0
   -0.0170    2.8280    0.2846 H   0  0  0  0  0  0  0  0  0  0  0  0
    1.7778    1.9385   -1.0008 H   0  0  0  0  0  0  0  0  0  0  0  0
    2.1821    2.4558    0.7154 H   0  0  0  0  0  0  0  0  0  0  0  0
    4.2210    1.8377   -0.5139 H   0  0  0  0  0  0  0  0  0  0  0  0
    3.9285    0.6049    0.7361 H   0  0  0  0  0  0  0  0  0  0  0  0
    2.9821    0.3266   -2.1992 H   0  0  0  0  0  0  0  0  0  0  0  0
    2.7315   -0.8214   -0.8541 H   0  0  0  0  0  0  0  0  0  0  0  0
    5.2338   -2.5366   -0.8312 H   0  0  0  0  0  0  0  0  0  0  0  0
    4.5037   -1.4099    0.3697 H   0  0  0  0  0  0  0  0  0  0  0  0
    6.3881   -0.0055    0.4627 H   0  0  0  0  0  0  0  0  0  0  0  0
    6.9097   -1.6815    0.7631 H   0  0  0  0  0  0  0  0  0  0  0  0
    7.9186    0.8915   -0.1786 H   0  0  0  0  0  0  0  0  0  0  0  0
    9.2446   -0.2873   -0.1540 H   0  0  0  0  0  0  0  0  0  0  0  0
    8.8635    0.5756   -1.7319 H   0  0  0  0  0  0  0  0  0  0  0  0
    7.6268   -0.0558   -2.9818 H   0  0  0  0  0  0  0  0  0  0  0  0
    6.6852   -1.5665   -2.9435 H   0  0  0  0  0  0  0  0  0  0  0  0
    5.9066    1.0433   -1.6186 H   0  0  0  0  0  0  0  0  0  0  0  0
    5.2600    0.4179   -3.1952 H   0  0  0  0  0  0  0  0  0  0  0  0
   -1.6281   -3.0342    0.9852 H   0  0  0  0  0  0  0  0  0  0  0  0
   -0.0534   -3.5288    1.7326 H   0  0  0  0  0  0  0  0  0  0  0  0
   -1.1857   -2.5572    2.7031 H   0  0  0  0  0  0  0  0  0  0  0  0
   -2.7370   -0.9576    1.7739 H   0  0  0  0  0  0  0  0  0  0  0  0
   -7.6050   -3.2933    0.9881 H   0  0  0  0  0  0  0  0  0  0  0  0
  1  2  1  0
  2  3  1  0
  3  4  2  0
  4  5  1  0
  5  6  1  0
  6  7  1  0
  7  8  2  0
  8  9  1  0
  9 10  2  0
 10 11  1  0
 11 12  2  0
 12 13  1  0
 13 14  1  0
 14 15  1  0
 15 16  1  0
 16 17  1  0
 17 18  1  0
 18 19  1  0
 19 20  1  0
 20 21  1  0
 21 22  1  0
 21 23  1  0
 23 24  1  0
 13 25  2  0
 25 26  1  0
 26 27  1  0
 25 28  1  0
 28 29  2  0
  8 30  1  0
 30 31  3  0
  5 32  2  0
 32 33  1  0
 32 34  1  0
 34 35  2  0
 35 36  1  0
 35  3  1  0
 29  7  1  0
 29 11  1  0
 24 18  1  0
  1 37  1  0
  1 38  1  0
  1 39  1  0
  4 40  1  0
  6 41  1  0
  9 42  1  0
 12 43  1  0
 15 44  1  0
 15 45  1  0
 16 46  1  0
 16 47  1  0
 17 48  1  0
 17 49  1  0
 19 50  1  0
 19 51  1  0
 20 52  1  0
 20 53  1  0
 22 54  1  0
 22 55  1  0
 22 56  1  0
 23 57  1  0
 23 58  1  0
 24 59  1  0
 24 60  1  0
 27 61  1  0
 27 62  1  0
 27 63  1  0
 28 64  1  0
 34 65  1  0
M  END
$$$$
[H]c1c([H])c([H])c2sc(C(=O)[C@@]([H])(N([H])C(=O)[C@@]([H])(N([H])C(=O)[C@@]([H])(N([H])C(=O)C([H])([H])[H])C([H])([H])C([H])([H])C([H])([H])C([H])([H])N([H])[H])C([H])(C([H])([H])[H])C([H])([H])[H])C([H])([H])C([H])([H])C(=O)N([H])[H])nc2c1[H]
     RDKit          3D

 73 74  0  0  0  0  0  0  0  0999 V2000
    1.4300   -3.3459    1.9300 C   0  0  0  0  0  0  0  0  0  0  0  0
    0.3711   -2.3448    1.5465 C   0  0  0  0  0  0  0  0  0  0  0  0
    0.2088   -1.3467    2.6541 C   0  0  0  0  0  0  0  0  0  0  0  0
    0.7747   -1.5388    0.2878 C   0  0  2  0  0  0  0  0  0  0  0  0
    2.0082   -0.8351    0.5681 N   0  0  0  0  0  0  0  0  0  0  0  0
    3.3037   -1.2765    0.2443 C   0  0  0  0  0  0  0  0  0  0  0  0
    3.4451   -2.4023   -0.3351 O   0  0  0  0  0  0  0  0  0  0  0  0
    4.5244   -0.5048    0.5417 C   0  0  2  0  0  0  0  0  0  0  0  0
    4.5545    0.6963   -0.4548 C   0  0  0  0  0  0  0  0  0  0  0  0
    4.5754    0.1454   -1.8472 C   0  0  0  0  0  0  0  0  0  0  0  0
    4.5956    1.1809   -2.9258 C   0  0  0  0  0  0  0  0  0  0  0  0
    4.6199    0.5145   -4.2953 C   0  0  0  0  0  0  0  0  0  0  0  0
    4.6444    1.5499   -5.3297 N   0  0  0  0  0  0  0  0  0  0  0  0
    5.7354   -1.2572    0.4027 N   0  0  0  0  0  0  0  0  0  0  0  0
    6.7576   -1.1400    1.3723 C   0  0  0  0  0  0  0  0  0  0  0  0
    8.0296   -1.8976    1.2797 C   0  0  0  0  0  0  0  0  0  0  0  0
    6.5700   -0.3604    2.3467 O   0  0  0  0  0  0  0  0  0  0  0  0
   -0.3039   -0.5609    0.0573 C   0  0  0  0  0  0  0  0  0  0  0  0
   -0.0727    0.6574    0.2207 O   0  0  0  0  0  0  0  0  0  0  0  0
   -1.5856   -0.9743   -0.3395 N   0  0  0  0  0  0  0  0  0  0  0  0
   -2.6729    0.0389   -0.5359 C   0  0  1  0  0  0  0  0  0  0  0  0
   -2.5006    0.4781   -1.9557 C   0  0  0  0  0  0  0  0  0  0  0  0
   -3.4062    1.4914   -2.5156 C   0  0  0  0  0  0  0  0  0  0  0  0
   -4.8207    1.1547   -2.7119 C   0  0  0  0  0  0  0  0  0  0  0  0
   -5.8550    2.1628   -2.6758 N   0  0  0  0  0  0  0  0  0  0  0  0
   -5.1693   -0.0425   -2.9258 O   0  0  0  0  0  0  0  0  0  0  0  0
   -3.9198   -0.5384   -0.1056 C   0  0  0  0  0  0  0  0  0  0  0  0
   -4.2180   -1.7170   -0.3004 O   0  0  0  0  0  0  0  0  0  0  0  0
   -4.9090    0.3043    0.6150 C   0  0  0  0  0  0  0  0  0  0  0  0
   -6.1069   -0.0394    1.0582 N   0  0  0  0  0  0  0  0  0  0  0  0
   -6.8276    0.8292    1.7107 C   0  0  0  0  0  0  0  0  0  0  0  0
   -8.1109    0.6073    2.2447 C   0  0  0  0  0  0  0  0  0  0  0  0
   -8.7589    1.5898    2.9106 C   0  0  0  0  0  0  0  0  0  0  0  0
   -8.2397    2.8459    3.1165 C   0  0  0  0  0  0  0  0  0  0  0  0
   -6.9879    3.0835    2.6029 C   0  0  0  0  0  0  0  0  0  0  0  0
   -6.2978    2.0748    1.9074 C   0  0  0  0  0  0  0  0  0  0  0  0
   -4.7777    1.9252    1.1336 S   0  0  0  0  0  0  0  0  0  0  0  0
    0.9820   -3.9421    2.7747 H   0  0  0  0  0  0  0  0  0  0  0  0
    1.6435   -4.0836    1.1287 H   0  0  0  0  0  0  0  0  0  0  0  0
    2.3645   -2.9202    2.2892 H   0  0  0  0  0  0  0  0  0  0  0  0
   -0.5862   -2.8248    1.3533 H   0  0  0  0  0  0  0  0  0  0  0  0
    1.2165   -0.9500    2.9077 H   0  0  0  0  0  0  0  0  0  0  0  0
   -0.1916   -1.9042    3.5367 H   0  0  0  0  0  0  0  0  0  0  0  0
   -0.4829   -0.5307    2.3471 H   0  0  0  0  0  0  0  0  0  0  0  0
    0.9286   -2.2992   -0.4755 H   0  0  0  0  0  0  0  0  0  0  0  0
    1.9213    0.0934    1.0599 H   0  0  0  0  0  0  0  0  0  0  0  0
    4.4169   -0.0104    1.5191 H   0  0  0  0  0  0  0  0  0  0  0  0
    3.6546    1.2717   -0.2581 H   0  0  0  0  0  0  0  0  0  0  0  0
    5.4403    1.2896   -0.1776 H   0  0  0  0  0  0  0  0  0  0  0  0
    5.4665   -0.5320   -1.9947 H   0  0  0  0  0  0  0  0  0  0  0  0
    3.6807   -0.5246   -1.9927 H   0  0  0  0  0  0  0  0  0  0  0  0
    3.7150    1.8528   -2.8713 H   0  0  0  0  0  0  0  0  0  0  0  0
    5.4957    1.8153   -2.8731 H   0  0  0  0  0  0  0  0  0  0  0  0
    5.4794   -0.1684   -4.3840 H   0  0  0  0  0  0  0  0  0  0  0  0
    3.6895   -0.0781   -4.3454 H   0  0  0  0  0  0  0  0  0  0  0  0
    4.3666    2.4581   -4.9205 H   0  0  0  0  0  0  0  0  0  0  0  0
    5.5380    1.5643   -5.8614 H   0  0  0  0  0  0  0  0  0  0  0  0
    5.8638   -1.8886   -0.4060 H   0  0  0  0  0  0  0  0  0  0  0  0
    8.5710   -1.8294    2.2631 H   0  0  0  0  0  0  0  0  0  0  0  0
    8.6680   -1.3997    0.5177 H   0  0  0  0  0  0  0  0  0  0  0  0
    7.8980   -2.9467    1.0084 H   0  0  0  0  0  0  0  0  0  0  0  0
   -1.7762   -1.9782   -0.4941 H   0  0  0  0  0  0  0  0  0  0  0  0
   -2.3059    0.9141    0.0899 H   0  0  0  0  0  0  0  0  0  0  0  0
   -1.4394    0.9072   -1.9925 H   0  0  0  0  0  0  0  0  0  0  0  0
   -2.4137   -0.4019   -2.6530 H   0  0  0  0  0  0  0  0  0  0  0  0
   -3.3024    2.4821   -1.9730 H   0  0  0  0  0  0  0  0  0  0  0  0
   -3.0056    1.7559   -3.5473 H   0  0  0  0  0  0  0  0  0  0  0  0
   -5.6499    3.1640   -2.9192 H   0  0  0  0  0  0  0  0  0  0  0  0
   -6.8027    1.8283   -2.3977 H   0  0  0  0  0  0  0  0  0  0  0  0
   -8.6103   -0.3692    2.1307 H   0  0  0  0  0  0  0  0  0  0  0  0
   -9.7654    1.3778    3.3139 H   0  0  0  0  0  0  0  0  0  0  0  0
   -8.7899    3.5785    3.6459 H   0  0  0  0  0  0  0  0  0  0  0  0
   -6.4852    4.0212    2.7017 H   0  0  0  0  0  0  0  0  0  0  0  0
  1  2  1  0
  2  3  1  0
  2  4  1  0
  4  5  1  0
  5  6  1  0
  6  7  2  0
  6  8  1  0
  8  9  1  0
  9 10  1  0
 10 11  1  0
 11 12  1  0
 12 13  1  0
  8 14  1  0
 14 15  1  0
 15 16  1  0
 15 17  2  0
  4 18  1  0
 18 19  2  0
 18 20  1  0
 20 21  1  0
 21 22  1  0
 22 23  1  0
 23 24  1  0
 24 25  1  0
 24 26  2  0
 21 27  1  0
 27 28  2  0
 27 29  1  0
 29 30  2  0
 30 31  1  0
 31 32  2  0
 32 33  1  0
 33 34  2  0
 34 35  1  0
 35 36  2  0
 36 37  1  0
 37 29  1  0
 36 31  1  0
  1 38  1  0
  1 39  1  0
  1 40  1  0
  2 41  1  0
  3 42  1  0
  3 43  1  0
  3 44  1  0
  4 45  1  6
  5 46  1  0
  8 47  1  1
  9 48  1  0
  9 49  1  0
 10 50  1  0
 10 51  1  0
 11 52  1  0
 11 53  1  0
 12 54  1  0
 12 55  1  0
 13 56  1  0
 13 57  1  0
 14 58  1  0
 16 59  1  0
 16 60  1  0
 16 61  1  0
 20 62  1  0
 21 63  1  1
 22 64  1  0
 22 65  1  0
 23 66  1  0
 23 67  1  0
 25 68  1  0
 25 69  1  0
 32 70  1  0
 33 71  1  0
 34 72  1  0
 35 73  1  0
M  END
$$$$
[H]c1c([H])c([H])c(/C(=C2/C(=O)N([H])c3c([H])c(C(=O)OC([H])([H])[H])c([H])c([H])c32)N([H])c2c([H])c([H])c(N(C(=O)C([H])([H])N3C([H])([H])C([H])([H])N(C([H])([H])[H])C([H])([H])C3([H])[H])C([H])([H])[H])c([H])c2[H])c([H])c1[H]
     RDKit          3D

 73 77  0  0  0  0  0  0  0  0999 V2000
   -9.6259    2.7362   -3.1505 C   0  0  0  0  0  0  0  0  0  0  0  0
   -8.5822    2.1423   -2.4234 O   0  0  0  0  0  0  0  0  0  0  0  0
   -7.8814    1.0256   -2.8716 C   0  0  0  0  0  0  0  0  0  0  0  0
   -8.1814    0.5157   -3.9683 O   0  0  0  0  0  0  0  0  0  0  0  0
   -6.8215    0.5153   -2.0123 C   0  0  0  0  0  0  0  0  0  0  0  0
   -6.4947    1.0717   -0.8140 C   0  0  0  0  0  0  0  0  0  0  0  0
   -5.4728    0.5613   -0.0049 C   0  0  0  0  0  0  0  0  0  0  0  0
   -4.7972   -0.5386   -0.4611 C   0  0  0  0  0  0  0  0  0  0  0  0
   -3.6924   -1.2784    0.1218 C   0  0  0  0  0  0  0  0  0  0  0  0
   -3.1406   -1.1461    1.2984 C   0  0  0  0  0  0  0  0  0  0  0  0
   -2.0489   -2.0001    1.6122 N   0  0  0  0  0  0  0  0  0  0  0  0
   -0.6955   -1.7404    1.2757 C   0  0  0  0  0  0  0  0  0  0  0  0
   -0.3049   -0.6232    0.5755 C   0  0  0  0  0  0  0  0  0  0  0  0
    1.0409   -0.3967    0.2619 C   0  0  0  0  0  0  0  0  0  0  0  0
    1.9996   -1.2983    0.6546 C   0  0  0  0  0  0  0  0  0  0  0  0
    1.6109   -2.4148    1.3542 C   0  0  0  0  0  0  0  0  0  0  0  0
    0.2717   -2.6400    1.6660 C   0  0  0  0  0  0  0  0  0  0  0  0
    3.3997   -1.0553    0.3267 N   0  0  0  0  0  0  0  0  0  0  0  0
    4.2743   -1.0443    1.4779 C   0  0  0  0  0  0  0  0  0  0  0  0
    3.8217   -0.9048   -0.9850 C   0  0  0  0  0  0  0  0  0  0  0  0
    2.8737   -1.1517   -1.8665 O   0  0  0  0  0  0  0  0  0  0  0  0
    5.0990   -0.5334   -1.5790 C   0  0  0  0  0  0  0  0  0  0  0  0
    6.1819   -0.1535   -0.7808 N   0  0  0  0  0  0  0  0  0  0  0  0
    6.1479    1.1188   -0.1443 C   0  0  0  0  0  0  0  0  0  0  0  0
    7.0593    2.1225   -0.8152 C   0  0  0  0  0  0  0  0  0  0  0  0
    8.4000    1.6684   -0.9414 N   0  0  0  0  0  0  0  0  0  0  0  0
    9.2089    2.3796   -1.8600 C   0  0  0  0  0  0  0  0  0  0  0  0
    8.6125    0.2731   -0.8355 C   0  0  0  0  0  0  0  0  0  0  0  0
    7.4754   -0.6243   -1.1164 C   0  0  0  0  0  0  0  0  0  0  0  0
   -3.6419   -0.3131    2.3473 C   0  0  0  0  0  0  0  0  0  0  0  0
   -3.0180    0.7830    2.8957 C   0  0  0  0  0  0  0  0  0  0  0  0
   -3.5184    1.4571    3.9801 C   0  0  0  0  0  0  0  0  0  0  0  0
   -4.6869    1.0413    4.5595 C   0  0  0  0  0  0  0  0  0  0  0  0
   -5.3502   -0.0483    4.0505 C   0  0  0  0  0  0  0  0  0  0  0  0
   -4.8397   -0.7104    2.9694 C   0  0  0  0  0  0  0  0  0  0  0  0
   -3.3759   -2.3505   -0.8690 C   0  0  0  0  0  0  0  0  0  0  0  0
   -2.4929   -3.2072   -0.7677 O   0  0  0  0  0  0  0  0  0  0  0  0
   -4.2699   -2.2220   -1.9626 N   0  0  0  0  0  0  0  0  0  0  0  0
   -5.1182   -1.1186   -1.6868 C   0  0  0  0  0  0  0  0  0  0  0  0
   -6.1305   -0.5894   -2.4585 C   0  0  0  0  0  0  0  0  0  0  0  0
   -9.4840    3.8397   -3.1260 H   0  0  0  0  0  0  0  0  0  0  0  0
  -10.6287    2.4400   -2.7994 H   0  0  0  0  0  0  0  0  0  0  0  0
   -9.5092    2.4513   -4.2231 H   0  0  0  0  0  0  0  0  0  0  0  0
   -7.0554    1.9338   -0.4979 H   0  0  0  0  0  0  0  0  0  0  0  0
   -5.2980    1.1170    0.8877 H   0  0  0  0  0  0  0  0  0  0  0  0
   -2.3225   -2.8839    2.1371 H   0  0  0  0  0  0  0  0  0  0  0  0
   -1.0852    0.0650    0.2820 H   0  0  0  0  0  0  0  0  0  0  0  0
    1.2956    0.4918   -0.2875 H   0  0  0  0  0  0  0  0  0  0  0  0
    2.3988   -3.1019    1.6458 H   0  0  0  0  0  0  0  0  0  0  0  0
   -0.0090   -3.5256    2.2172 H   0  0  0  0  0  0  0  0  0  0  0  0
    4.3098   -0.0784    2.0033 H   0  0  0  0  0  0  0  0  0  0  0  0
    5.2439   -1.4894    1.2146 H   0  0  0  0  0  0  0  0  0  0  0  0
    3.8678   -1.7578    2.2758 H   0  0  0  0  0  0  0  0  0  0  0  0
    4.9292    0.2743   -2.3603 H   0  0  0  0  0  0  0  0  0  0  0  0
    5.4335   -1.4380   -2.1821 H   0  0  0  0  0  0  0  0  0  0  0  0
    6.5430    1.0192    0.8973 H   0  0  0  0  0  0  0  0  0  0  0  0
    5.1051    1.4958   -0.1442 H   0  0  0  0  0  0  0  0  0  0  0  0
    7.0209    3.0816   -0.2641 H   0  0  0  0  0  0  0  0  0  0  0  0
    6.6418    2.3090   -1.8254 H   0  0  0  0  0  0  0  0  0  0  0  0
    9.5515    1.7468   -2.6801 H   0  0  0  0  0  0  0  0  0  0  0  0
    8.6875    3.2979   -2.1848 H   0  0  0  0  0  0  0  0  0  0  0  0
   10.1414    2.7025   -1.3095 H   0  0  0  0  0  0  0  0  0  0  0  0
    9.4640   -0.0087   -1.5031 H   0  0  0  0  0  0  0  0  0  0  0  0
    8.9967    0.0613    0.2048 H   0  0  0  0  0  0  0  0  0  0  0  0
    7.6214   -1.6038   -0.5691 H   0  0  0  0  0  0  0  0  0  0  0  0
    7.4535   -0.9472   -2.2000 H   0  0  0  0  0  0  0  0  0  0  0  0
   -2.1060    1.1196    2.4536 H   0  0  0  0  0  0  0  0  0  0  0  0
   -3.0267    2.3165    4.4077 H   0  0  0  0  0  0  0  0  0  0  0  0
   -5.1025    1.5578    5.4176 H   0  0  0  0  0  0  0  0  0  0  0  0
   -6.2843   -0.3557    4.5382 H   0  0  0  0  0  0  0  0  0  0  0  0
   -5.4043   -1.5664    2.6063 H   0  0  0  0  0  0  0  0  0  0  0  0
   -4.3057   -2.8330   -2.8311 H   0  0  0  0  0  0  0  0  0  0  0  0
   -6.3795   -1.0398   -3.4080 H   0  0  0  0  0  0  0  0  0  0  0  0
  1  2  1  0
  2  3  1  0
  3  4  2  0
  3  5  1  0
  5  6  2  0
  6  7  1  0
  7  8  2  0
  8  9  1  0
  9 10  2  0
 10 11  1  0
 11 12  1  0
 12 13  2  0
 13 14  1  0
 14 15  2  0
 15 16  1  0
 16 17  2  0
 15 18  1  0
 18 19  1  0
 18 20  1  0
 20 21  2  0
 20 22  1  0
 22 23  1  0
 23 24  1  0
 24 25  1  0
 25 26  1  0
 26 27  1  0
 26 28  1  0
 28 29  1  0
 10 30  1  0
 30 31  2  0
 31 32  1  0
 32 33  2  0
 33 34  1  0
 34 35  2  0
  9 36  1  0
 36 37  2  0
 36 38  1  0
 38 39  1  0
 39 40  2  0
 40  5  1  0
 39  8  1  0
 17 12  1  0
 29 23  1  0
 35 30  1  0
  1 41  1  0
  1 42  1  0
  1 43  1  0
  6 44  1  0
  7 45  1  0
 11 46  1  0
 13 47  1  0
 14 48  1  0
 16 49  1  0
 17 50  1  0
 19 51  1  0
 19 52  1  0
 19 53  1  0
 22 54  1  0
 22 55  1  0
 24 56  1  0
 24 57  1  0
 25 58  1  0
 25 59  1  0
 27 60  1  0
 27 61  1  0
 27 62  1  0
 28 63  1  0
 28 64  1  0
 29 65  1  0
 29 66  1  0
 31 67  1  0
 32 68  1  0
 33 69  1  0
 34 70  1  0
 35 71  1  0
 38 72  1  0
 40 73  1  0
M  END
$$$$
[H]c1nc(-c2nnn(-c3c([H])c(F)c([H])c(-c4nc([H])c([H])c([H])c4[H])c3[H])n2)c([H])c([H])c1[H]
     RDKit          3D

 35 38  0  0  0  0  0  0  0  0999 V2000
   -1.7542   -4.1159    0.5781 F   0  0  0  0  0  0  0  0  0  0  0  0
   -1.6951   -2.7592    0.4630 C   0  0  0  0  0  0  0  0  0  0  0  0
   -2.8361   -2.0234    0.2194 C   0  0  0  0  0  0  0  0  0  0  0  0
   -2.7863   -0.6293    0.0994 C   0  0  0  0  0  0  0  0  0  0  0  0
   -1.5335   -0.0734    0.2421 C   0  0  0  0  0  0  0  0  0  0  0  0
   -0.3809   -0.7769    0.4846 C   0  0  0  0  0  0  0  0  0  0  0  0
   -0.4663   -2.1465    0.5968 C   0  0  0  0  0  0  0  0  0  0  0  0
    0.8772   -0.0764    0.6148 N   0  0  0  0  0  0  0  0  0  0  0  0
    1.0799    1.0874    1.1978 N   0  0  0  0  0  0  0  0  0  0  0  0
    2.3453    1.4298    1.1352 N   0  0  0  0  0  0  0  0  0  0  0  0
    2.9852    0.4467    0.4852 C   0  0  0  0  0  0  0  0  0  0  0  0
    2.0579   -0.4701    0.1749 N   0  0  0  0  0  0  0  0  0  0  0  0
    4.4233    0.4240    0.1937 C   0  0  0  0  0  0  0  0  0  0  0  0
    4.9359   -0.6494   -0.4799 C   0  0  0  0  0  0  0  0  0  0  0  0
    6.3042   -0.6300   -0.7353 C   0  0  0  0  0  0  0  0  0  0  0  0
    7.0781    0.4251   -0.3213 C   0  0  0  0  0  0  0  0  0  0  0  0
    6.5195    1.4782    0.3503 C   0  0  0  0  0  0  0  0  0  0  0  0
    5.1981    1.4478    0.5908 N   0  0  0  0  0  0  0  0  0  0  0  0
   -3.9994    0.1346   -0.1579 C   0  0  0  0  0  0  0  0  0  0  0  0
   -4.0214    1.5005   -0.2864 C   0  0  0  0  0  0  0  0  0  0  0  0
   -5.1801    2.2167   -0.5310 C   0  0  0  0  0  0  0  0  0  0  0  0
   -6.3689    1.5382   -0.6526 C   0  0  0  0  0  0  0  0  0  0  0  0
   -6.3335    0.1597   -0.5209 C   0  0  0  0  0  0  0  0  0  0  0  0
   -5.1779   -0.4999   -0.2820 N   0  0  0  0  0  0  0  0  0  0  0  0
   -3.7850   -2.5429    0.1203 H   0  0  0  0  0  0  0  0  0  0  0  0
   -1.4411    0.9994    0.1581 H   0  0  0  0  0  0  0  0  0  0  0  0
    0.4150   -2.7311    0.7864 H   0  0  0  0  0  0  0  0  0  0  0  0
    4.3298   -1.4652   -0.7984 H   0  0  0  0  0  0  0  0  0  0  0  0
    6.7342   -1.4610   -1.2632 H   0  0  0  0  0  0  0  0  0  0  0  0
    8.1479    0.3986   -0.5433 H   0  0  0  0  0  0  0  0  0  0  0  0
    7.1480    2.2933    0.6642 H   0  0  0  0  0  0  0  0  0  0  0  0
   -3.1140    2.0744   -0.1987 H   0  0  0  0  0  0  0  0  0  0  0  0
   -5.1377    3.2905   -0.6228 H   0  0  0  0  0  0  0  0  0  0  0  0
   -7.2874    2.0637   -0.8426 H   0  0  0  0  0  0  0  0  0  0  0  0
   -7.2809   -0.3582   -0.6199 H   0  0  0  0  0  0  0  0  0  0  0  0
  1  2  1  0
  2  3  2  0
  3  4  1  0
  4  5  2  0
  5  6  1  0
  6  7  2  0
  6  8  1  0
  8  9  1  0
  9 10  2  0
 10 11  1  0
 11 12  2  0
 11 13  1  0
 13 14  2  0
 14 15  1  0
 15 16  2  0
 16 17  1  0
 17 18  2  0
  4 19  1  0
 19 20  2  0
 20 21  1  0
 21 22  2  0
 22 23  1  0
 23 24  2  0
  7  2  1  0
 12  8  1  0
 18 13  1  0
 24 19  1  0
  3 25  1  0
  5 26  1  0
  7 27  1  0
 14 28  1  0
 15 29  1  0
 16 30  1  0
 17 31  1  0
 20 32  1  0
 21 33  1  0
 22 34  1  0
 23 35  1  0
M  END
$$$$
[H]Oc1c([H])c([H])c2c3c1O[C@]1([H])[C@]34C([H])([H])C([H])([H])N(C([H])([H])C3([H])C([H])([H])C3([H])[H])[C@]([H])(C2([H])[H])[C@]4(O[H])C([H])([H])C([H])([H])[C@@]1([H])N([H])C(=O)c1c([H])c([H])c(Br)c([H])c1[H]
     RDKit          3D

 63 69  0  0  0  0  0  0  0  0999 V2000
    0.0040   -5.4588   -0.5020 O   0  0  0  0  0  0  0  0  0  0  0  0
    0.7066   -4.3461   -0.0870 C   0  0  0  0  0  0  0  0  0  0  0  0
    1.8161   -4.4723    0.7571 C   0  0  0  0  0  0  0  0  0  0  0  0
    2.5166   -3.3401    1.1694 C   0  0  0  0  0  0  0  0  0  0  0  0
    2.1228   -2.0879    0.7492 C   0  0  0  0  0  0  0  0  0  0  0  0
    2.8125   -0.8429    1.1488 C   0  0  0  0  0  0  0  0  0  0  0  0
    2.1582    0.3990    0.6828 C   0  0  1  0  0  0  0  0  0  0  0  0
    2.7123    1.0431   -0.4503 N   0  0  0  0  0  0  0  0  0  0  0  0
    4.0914    1.3584   -0.4228 C   0  0  0  0  0  0  0  0  0  0  0  0
    4.4608    2.4233    0.5752 C   0  0  0  0  0  0  0  0  0  0  0  0
    5.9686    2.7490    0.5843 C   0  0  0  0  0  0  0  0  0  0  0  0
    4.9597    3.7458    0.1937 C   0  0  0  0  0  0  0  0  0  0  0  0
    2.1290    0.7950   -1.7043 C   0  0  0  0  0  0  0  0  0  0  0  0
    1.2670   -0.4039   -1.8324 C   0  0  0  0  0  0  0  0  0  0  0  0
    0.4786   -0.7681   -0.6216 C   0  0  1  0  0  0  0  0  0  0  0  0
   -0.9260   -1.1984   -0.9115 C   0  0  1  0  0  0  0  0  0  0  0  0
   -0.6948   -2.5652   -1.3140 O   0  0  0  0  0  0  0  0  0  0  0  0
    0.3154   -3.0874   -0.5059 C   0  0  0  0  0  0  0  0  0  0  0  0
    1.0432   -2.0315   -0.0662 C   0  0  0  0  0  0  0  0  0  0  0  0
   -1.8305   -1.1561    0.2651 C   0  0  1  0  0  0  0  0  0  0  0  0
   -1.1364   -1.0559    1.5994 C   0  0  0  0  0  0  0  0  0  0  0  0
   -0.0815   -0.0190    1.6971 C   0  0  0  0  0  0  0  0  0  0  0  0
    0.6500    0.2610    0.4329 C   0  0  1  0  0  0  0  0  0  0  0  0
    0.2450    1.5379   -0.0153 O   0  0  0  0  0  0  0  0  0  0  0  0
   -2.8817   -0.1456    0.1581 N   0  0  0  0  0  0  0  0  0  0  0  0
   -4.2618   -0.4771    0.1576 C   0  0  0  0  0  0  0  0  0  0  0  0
   -4.6234   -1.6968    0.2542 O   0  0  0  0  0  0  0  0  0  0  0  0
   -5.2619    0.5643    0.0481 C   0  0  0  0  0  0  0  0  0  0  0  0
   -4.9601    1.8612   -0.2615 C   0  0  0  0  0  0  0  0  0  0  0  0
   -5.9380    2.8418   -0.3556 C   0  0  0  0  0  0  0  0  0  0  0  0
   -7.2397    2.5151   -0.1353 C   0  0  0  0  0  0  0  0  0  0  0  0
   -8.6229    3.8184   -0.2499 Br  0  0  0  0  0  0  0  0  0  0  0  0
   -7.5588    1.2249    0.1746 C   0  0  0  0  0  0  0  0  0  0  0  0
   -6.5982    0.2439    0.2707 C   0  0  0  0  0  0  0  0  0  0  0  0
   -0.7890   -5.3402   -1.1088 H   0  0  0  0  0  0  0  0  0  0  0  0
    2.1403   -5.4422    1.0969 H   0  0  0  0  0  0  0  0  0  0  0  0
    3.3738   -3.4409    1.8212 H   0  0  0  0  0  0  0  0  0  0  0  0
    2.8423   -0.8771    2.2799 H   0  0  0  0  0  0  0  0  0  0  0  0
    3.8570   -0.9404    0.8361 H   0  0  0  0  0  0  0  0  0  0  0  0
    2.2138    1.1459    1.5333 H   0  0  0  0  0  0  0  0  0  0  0  0
    4.7324    0.4563   -0.3477 H   0  0  0  0  0  0  0  0  0  0  0  0
    4.3440    1.7820   -1.4418 H   0  0  0  0  0  0  0  0  0  0  0  0
    4.0432    2.3366    1.6184 H   0  0  0  0  0  0  0  0  0  0  0  0
    6.4893    2.7693    1.5619 H   0  0  0  0  0  0  0  0  0  0  0  0
    6.5920    2.3265   -0.2232 H   0  0  0  0  0  0  0  0  0  0  0  0
    4.9458    4.0948   -0.8783 H   0  0  0  0  0  0  0  0  0  0  0  0
    4.7835    4.5995    0.8914 H   0  0  0  0  0  0  0  0  0  0  0  0
    2.9636    0.6864   -2.4612 H   0  0  0  0  0  0  0  0  0  0  0  0
    1.5524    1.6840   -2.0984 H   0  0  0  0  0  0  0  0  0  0  0  0
    0.5317   -0.2403   -2.6750 H   0  0  0  0  0  0  0  0  0  0  0  0
    1.8877   -1.2754   -2.1922 H   0  0  0  0  0  0  0  0  0  0  0  0
   -1.3630   -0.6375   -1.7595 H   0  0  0  0  0  0  0  0  0  0  0  0
   -2.3850   -2.1387    0.3055 H   0  0  0  0  0  0  0  0  0  0  0  0
   -0.8044   -2.0862    1.9070 H   0  0  0  0  0  0  0  0  0  0  0  0
   -1.9364   -0.7969    2.3470 H   0  0  0  0  0  0  0  0  0  0  0  0
    0.6730   -0.3631    2.4535 H   0  0  0  0  0  0  0  0  0  0  0  0
   -0.5003    0.9279    2.1467 H   0  0  0  0  0  0  0  0  0  0  0  0
   -0.4079    1.4785   -0.7334 H   0  0  0  0  0  0  0  0  0  0  0  0
   -2.5661    0.8327    0.0843 H   0  0  0  0  0  0  0  0  0  0  0  0
   -3.9530    2.1870   -0.4492 H   0  0  0  0  0  0  0  0  0  0  0  0
   -5.6744    3.8646   -0.6029 H   0  0  0  0  0  0  0  0  0  0  0  0
   -8.5978    0.9490    0.3542 H   0  0  0  0  0  0  0  0  0  0  0  0
   -6.8304   -0.7710    0.5125 H   0  0  0  0  0  0  0  0  0  0  0  0
  1  2  1  0
  2  3  2  0
  3  4  1  0
  4  5  2  0
  5  6  1  0
  6  7  1  0
  7  8  1  0
  8  9  1  0
  9 10  1  0
 10 11  1  0
 11 12  1  0
  8 13  1  0
 13 14  1  0
 15 14  1  6
 15 16  1  0
 16 17  1  0
 17 18  1  0
 18 19  2  0
 16 20  1  0
 20 21  1  0
 21 22  1  0
 22 23  1  0
 23 24  1  6
 20 25  1  0
 25 26  1  0
 26 27  2  0
 26 28  1  0
 28 29  2  0
 29 30  1  0
 30 31  2  0
 31 32  1  0
 31 33  1  0
 33 34  2  0
 18  2  1  0
 34 28  1  0
 19  5  1  0
 23  7  1  0
 12 10  1  0
 19 15  1  0
 23 15  1  0
  1 35  1  0
  3 36  1  0
  4 37  1  0
  6 38  1  0
  6 39  1  0
  7 40  1  1
  9 41  1  0
  9 42  1  0
 10 43  1  0
 11 44  1  0
 11 45  1  0
 12 46  1  0
 12 47  1  0
 13 48  1  0
 13 49  1  0
 14 50  1  0
 14 51  1  0
 16 52  1  6
 20 53  1  1
 21 54  1  0
 21 55  1  0
 22 56  1  0
 22 57  1  0
 24 58  1  0
 25 59  1  0
 29 60  1  0
 30 61  1  0
 33 62  1  0
 34 63  1  0
M  END
$$$$
[H]c1nc(N([H])c2c([H])c([H])c(N3C([H])([H])C([H])([H])C([H])(N4C([H])([H])C([H])([H])N(C([H])([H])[H])C([H])([H])C4([H])[H])C([H])([H])C3([H])[H])c([H])c2OC([H])([H])[H])nc(N([H])c2c([H])c([H])c([H])c([H])c2S(=O)(=O)C([H])(C([H])([H])[H])C([H])([H])[H])c1F
     RDKit          3D

 82 86  0  0  0  0  0  0  0  0999 V2000
   -0.3063    2.3350   -2.9829 C   0  0  0  0  0  0  0  0  0  0  0  0
   -0.6870    1.5345   -1.9061 O   0  0  0  0  0  0  0  0  0  0  0  0
    0.1469    0.9955   -0.9491 C   0  0  0  0  0  0  0  0  0  0  0  0
    1.4910    1.1996   -0.9588 C   0  0  0  0  0  0  0  0  0  0  0  0
    2.3459    0.6675   -0.0071 C   0  0  0  0  0  0  0  0  0  0  0  0
    1.7761   -0.0920    0.9706 C   0  0  0  0  0  0  0  0  0  0  0  0
    0.3782   -0.3077    0.9858 C   0  0  0  0  0  0  0  0  0  0  0  0
   -0.4579    0.2118    0.0559 C   0  0  0  0  0  0  0  0  0  0  0  0
   -1.8514    0.0543    0.0634 N   0  0  0  0  0  0  0  0  0  0  0  0
   -2.5826   -0.8387    0.8452 C   0  0  0  0  0  0  0  0  0  0  0  0
   -2.0569   -1.6983    1.6961 N   0  0  0  0  0  0  0  0  0  0  0  0
   -2.8278   -2.5355    2.4065 C   0  0  0  0  0  0  0  0  0  0  0  0
   -4.1978   -2.5269    2.2729 C   0  0  0  0  0  0  0  0  0  0  0  0
   -4.9871   -3.3510    2.9679 F   0  0  0  0  0  0  0  0  0  0  0  0
   -4.7463   -1.6079    1.3658 C   0  0  0  0  0  0  0  0  0  0  0  0
   -6.1629   -1.5948    1.2068 N   0  0  0  0  0  0  0  0  0  0  0  0
   -6.9446   -0.7747    0.4063 C   0  0  0  0  0  0  0  0  0  0  0  0
   -6.4621    0.2732   -0.3309 C   0  0  0  0  0  0  0  0  0  0  0  0
   -7.2579    1.1020   -1.1134 C   0  0  0  0  0  0  0  0  0  0  0  0
   -8.5984    0.8824   -1.1699 C   0  0  0  0  0  0  0  0  0  0  0  0
   -9.1033   -0.1815   -0.4245 C   0  0  0  0  0  0  0  0  0  0  0  0
   -8.3405   -1.0059    0.3495 C   0  0  0  0  0  0  0  0  0  0  0  0
   -9.0572   -2.3155    1.2456 S   0  0  0  0  0  0  0  0  0  0  0  0
   -8.8846   -2.0892    2.7257 O   0  0  0  0  0  0  0  0  0  0  0  0
   -8.4523   -3.6372    0.8129 O   0  0  0  0  0  0  0  0  0  0  0  0
  -10.8251   -2.4362    1.0001 C   0  0  0  0  0  0  0  0  0  0  0  0
  -11.1927   -2.7251   -0.4183 C   0  0  0  0  0  0  0  0  0  0  0  0
  -11.4588   -1.2229    1.5998 C   0  0  0  0  0  0  0  0  0  0  0  0
   -3.9156   -0.8383    0.7234 N   0  0  0  0  0  0  0  0  0  0  0  0
    3.7709    0.8887   -0.0520 N   0  0  0  0  0  0  0  0  0  0  0  0
    4.5917    0.8141    1.1162 C   0  0  0  0  0  0  0  0  0  0  0  0
    5.8643    0.0417    0.9475 C   0  0  0  0  0  0  0  0  0  0  0  0
    6.5560    0.3396   -0.3600 C   0  0  0  0  0  0  0  0  0  0  0  0
    5.8471    1.4345   -1.1212 C   0  0  0  0  0  0  0  0  0  0  0  0
    4.3926    1.1814   -1.3161 C   0  0  0  0  0  0  0  0  0  0  0  0
    7.8837    0.7291   -0.0913 N   0  0  0  0  0  0  0  0  0  0  0  0
    8.7188   -0.2025    0.5495 C   0  0  0  0  0  0  0  0  0  0  0  0
   10.1143   -0.3042    0.0515 C   0  0  0  0  0  0  0  0  0  0  0  0
   10.6290    0.8802   -0.5554 N   0  0  0  0  0  0  0  0  0  0  0  0
   11.2947    1.7344    0.3787 C   0  0  0  0  0  0  0  0  0  0  0  0
    9.7021    1.5486   -1.4094 C   0  0  0  0  0  0  0  0  0  0  0  0
    8.4255    1.8875   -0.6197 C   0  0  0  0  0  0  0  0  0  0  0  0
    0.2465    3.2338   -2.6171 H   0  0  0  0  0  0  0  0  0  0  0  0
    0.2089    1.8220   -3.8032 H   0  0  0  0  0  0  0  0  0  0  0  0
   -1.2657    2.7411   -3.4217 H   0  0  0  0  0  0  0  0  0  0  0  0
    1.9575    1.8073   -1.7403 H   0  0  0  0  0  0  0  0  0  0  0  0
    2.3846   -0.5415    1.7503 H   0  0  0  0  0  0  0  0  0  0  0  0
    0.0469   -0.9165    1.8210 H   0  0  0  0  0  0  0  0  0  0  0  0
   -2.4035    0.7132   -0.6204 H   0  0  0  0  0  0  0  0  0  0  0  0
   -2.3413   -3.2212    3.0928 H   0  0  0  0  0  0  0  0  0  0  0  0
   -6.6935   -2.3160    1.7869 H   0  0  0  0  0  0  0  0  0  0  0  0
   -5.4061    0.5582   -0.3642 H   0  0  0  0  0  0  0  0  0  0  0  0
   -6.8492    1.9215   -1.6878 H   0  0  0  0  0  0  0  0  0  0  0  0
   -9.2521    1.5099   -1.7761 H   0  0  0  0  0  0  0  0  0  0  0  0
  -10.1903   -0.2916   -0.5185 H   0  0  0  0  0  0  0  0  0  0  0  0
  -11.1233   -3.3223    1.6450 H   0  0  0  0  0  0  0  0  0  0  0  0
  -12.0381   -2.1128   -0.7492 H   0  0  0  0  0  0  0  0  0  0  0  0
  -10.2922   -2.6171   -1.0663 H   0  0  0  0  0  0  0  0  0  0  0  0
  -11.4791   -3.8002   -0.5026 H   0  0  0  0  0  0  0  0  0  0  0  0
  -10.7157   -0.4855    1.9743 H   0  0  0  0  0  0  0  0  0  0  0  0
  -12.1451   -1.5203    2.4145 H   0  0  0  0  0  0  0  0  0  0  0  0
  -12.1033   -0.7479    0.8067 H   0  0  0  0  0  0  0  0  0  0  0  0
    4.0795    0.4867    2.0356 H   0  0  0  0  0  0  0  0  0  0  0  0
    4.9074    1.8805    1.3387 H   0  0  0  0  0  0  0  0  0  0  0  0
    5.6276   -1.0363    0.9737 H   0  0  0  0  0  0  0  0  0  0  0  0
    6.5299    0.2608    1.7987 H   0  0  0  0  0  0  0  0  0  0  0  0
    6.5477   -0.5641   -0.9901 H   0  0  0  0  0  0  0  0  0  0  0  0
    5.9603    2.4412   -0.6731 H   0  0  0  0  0  0  0  0  0  0  0  0
    6.3078    1.4737   -2.1310 H   0  0  0  0  0  0  0  0  0  0  0  0
    4.1668    0.4133   -2.0890 H   0  0  0  0  0  0  0  0  0  0  0  0
    3.9556    2.1402   -1.7222 H   0  0  0  0  0  0  0  0  0  0  0  0
    8.7806    0.0682    1.6428 H   0  0  0  0  0  0  0  0  0  0  0  0
    8.1963   -1.1966    0.5487 H   0  0  0  0  0  0  0  0  0  0  0  0
   10.1597   -1.1121   -0.7268 H   0  0  0  0  0  0  0  0  0  0  0  0
   10.8288   -0.6578    0.8487 H   0  0  0  0  0  0  0  0  0  0  0  0
   11.0206    1.5460    1.4354 H   0  0  0  0  0  0  0  0  0  0  0  0
   11.1782    2.8018    0.1077 H   0  0  0  0  0  0  0  0  0  0  0  0
   12.3969    1.5204    0.3048 H   0  0  0  0  0  0  0  0  0  0  0  0
    9.4852    1.0059   -2.3395 H   0  0  0  0  0  0  0  0  0  0  0  0
   10.1432    2.5374   -1.6889 H   0  0  0  0  0  0  0  0  0  0  0  0
    8.7879    2.6250    0.1623 H   0  0  0  0  0  0  0  0  0  0  0  0
    7.8229    2.5017   -1.3077 H   0  0  0  0  0  0  0  0  0  0  0  0
  1  2  1  0
  2  3  1  0
  3  4  2  0
  4  5  1  0
  5  6  2  0
  6  7  1  0
  7  8  2  0
  8  9  1  0
  9 10  1  0
 10 11  2  0
 11 12  1  0
 12 13  2  0
 13 14  1  0
 13 15  1  0
 15 16  1  0
 16 17  1  0
 17 18  2  0
 18 19  1  0
 19 20  2  0
 20 21  1  0
 21 22  2  0
 22 23  1  0
 23 24  2  0
 23 25  2  0
 23 26  1  0
 26 27  1  0
 26 28  1  0
 15 29  2  0
  5 30  1  0
 30 31  1  0
 31 32  1  0
 32 33  1  0
 33 34  1  0
 34 35  1  0
 33 36  1  0
 36 37  1  0
 37 38  1  0
 38 39  1  0
 39 40  1  0
 39 41  1  0
 41 42  1  0
  8  3  1  0
 29 10  1  0
 35 30  1  0
 42 36  1  0
 22 17  1  0
  1 43  1  0
  1 44  1  0
  1 45  1  0
  4 46  1  0
  6 47  1  0
  7 48  1  0
  9 49  1  0
 12 50  1  0
 16 51  1  0
 18 52  1  0
 19 53  1  0
 20 54  1  0
 21 55  1  0
 26 56  1  0
 27 57  1  0
 27 58  1  0
 27 59  1  0
 28 60  1  0
 28 61  1  0
 28 62  1  0
 31 63  1  0
 31 64  1  0
 32 65  1  0
 32 66  1  0
 33 67  1  0
 34 68  1  0
 34 69  1  0
 35 70  1  0
 35 71  1  0
 37 72  1  0
 37 73  1  0
 38 74  1  0
 38 75  1  0
 40 76  1  0
 40 77  1  0
 40 78  1  0
 41 79  1  0
 41 80  1  0
 42 81  1  0
 42 82  1  0
M  END
$$$$
[H]C1=C([H])C([H])(F)C([H])([H])C([H])=C1N([H])C(=O)C1(C(=O)N([H])c2c([H])c([H])c(Oc3c([H])c([H])nc4c([H])c(OC([H])([H])C([H])([H])C([H])([H])N5C([H])([H])C([H])([H])C([H])([H])C([H])([H])C5([H])[H])c(OC([H])([H])[H])c([H])c34)c(F)c2[H])C([H])([H])C1([H])[H]
     RDKit          3D

 84 89  0  0  0  0  0  0  0  0999 V2000
    3.8941   -3.7132    0.1913 C   0  0  0  0  0  0  0  0  0  0  0  0
    4.6565   -2.6079   -0.2681 O   0  0  0  0  0  0  0  0  0  0  0  0
    4.0305   -1.4283   -0.6539 C   0  0  0  0  0  0  0  0  0  0  0  0
    2.6597   -1.2972   -0.6016 C   0  0  0  0  0  0  0  0  0  0  0  0
    2.0436   -0.1222   -0.9870 C   0  0  0  0  0  0  0  0  0  0  0  0
    0.6510    0.0367   -0.9451 C   0  0  0  0  0  0  0  0  0  0  0  0
   -0.0755   -1.0256   -0.4996 O   0  0  0  0  0  0  0  0  0  0  0  0
   -1.4492   -1.0402   -0.3255 C   0  0  0  0  0  0  0  0  0  0  0  0
   -2.2606   -1.8743   -1.0649 C   0  0  0  0  0  0  0  0  0  0  0  0
   -3.6423   -1.8715   -0.8692 C   0  0  0  0  0  0  0  0  0  0  0  0
   -4.2526   -1.0654    0.0403 C   0  0  0  0  0  0  0  0  0  0  0  0
   -5.6503   -1.0411    0.3103 N   0  0  0  0  0  0  0  0  0  0  0  0
   -6.4608   -2.1680    0.2347 C   0  0  0  0  0  0  0  0  0  0  0  0
   -5.8498   -3.2675   -0.0680 O   0  0  0  0  0  0  0  0  0  0  0  0
   -7.9176   -2.3168    0.4538 C   0  0  0  0  0  0  0  0  0  0  0  0
   -8.5358   -3.5604   -0.1118 C   0  0  0  0  0  0  0  0  0  0  0  0
   -8.2258   -3.5095    1.3287 C   0  0  0  0  0  0  0  0  0  0  0  0
   -8.8577   -1.1862    0.5085 C   0  0  0  0  0  0  0  0  0  0  0  0
  -10.0295   -1.5183    0.9875 O   0  0  0  0  0  0  0  0  0  0  0  0
   -8.6712    0.1344    0.1256 N   0  0  0  0  0  0  0  0  0  0  0  0
   -9.7018    1.1257    0.2594 C   0  0  0  0  0  0  0  0  0  0  0  0
  -10.1675    1.7824   -0.7844 C   0  0  0  0  0  0  0  0  0  0  0  0
  -11.2276    2.8066   -0.6621 C   0  0  0  0  0  0  0  0  0  0  0  0
  -11.7828    3.0373    0.6810 C   0  0  0  0  0  0  0  0  0  0  0  0
  -13.1708    2.8095    0.6256 F   0  0  0  0  0  0  0  0  0  0  0  0
  -11.1912    2.2557    1.7682 C   0  0  0  0  0  0  0  0  0  0  0  0
  -10.2373    1.3788    1.5761 C   0  0  0  0  0  0  0  0  0  0  0  0
   -3.4356   -0.2282    0.7824 C   0  0  0  0  0  0  0  0  0  0  0  0
   -2.0698   -0.2231    0.5976 C   0  0  0  0  0  0  0  0  0  0  0  0
   -1.3225    0.6137    1.3883 F   0  0  0  0  0  0  0  0  0  0  0  0
    0.0582    1.2154   -1.3358 C   0  0  0  0  0  0  0  0  0  0  0  0
    0.8455    2.2647   -1.7771 C   0  0  0  0  0  0  0  0  0  0  0  0
    2.1789    2.1086   -1.8152 N   0  0  0  0  0  0  0  0  0  0  0  0
    2.7728    0.9564   -1.4354 C   0  0  0  0  0  0  0  0  0  0  0  0
    4.1549    0.8104   -1.4827 C   0  0  0  0  0  0  0  0  0  0  0  0
    4.7873   -0.3669   -1.0977 C   0  0  0  0  0  0  0  0  0  0  0  0
    6.1653   -0.5173   -1.1421 O   0  0  0  0  0  0  0  0  0  0  0  0
    6.9247    0.5946   -1.5969 C   0  0  0  0  0  0  0  0  0  0  0  0
    8.3981    0.2160   -1.5674 C   0  0  0  0  0  0  0  0  0  0  0  0
    8.7652   -0.1374   -0.1628 C   0  0  0  0  0  0  0  0  0  0  0  0
    8.5410    0.9713    0.7124 N   0  0  0  0  0  0  0  0  0  0  0  0
    8.8626    0.5943    2.0908 C   0  0  0  0  0  0  0  0  0  0  0  0
   10.1341    1.2231    2.5590 C   0  0  0  0  0  0  0  0  0  0  0  0
   11.2236    1.2674    1.5088 C   0  0  0  0  0  0  0  0  0  0  0  0
   10.7617    1.8537    0.2168 C   0  0  0  0  0  0  0  0  0  0  0  0
    9.2894    2.1446    0.3223 C   0  0  0  0  0  0  0  0  0  0  0  0
    4.5297   -4.6049    0.2046 H   0  0  0  0  0  0  0  0  0  0  0  0
    3.0368   -3.9207   -0.4537 H   0  0  0  0  0  0  0  0  0  0  0  0
    3.5857   -3.4838    1.2349 H   0  0  0  0  0  0  0  0  0  0  0  0
    2.0594   -2.1200   -0.2574 H   0  0  0  0  0  0  0  0  0  0  0  0
   -1.7910   -2.5214   -1.7915 H   0  0  0  0  0  0  0  0  0  0  0  0
   -4.2011   -2.5275   -1.4890 H   0  0  0  0  0  0  0  0  0  0  0  0
   -5.9930   -0.0843    0.6053 H   0  0  0  0  0  0  0  0  0  0  0  0
   -7.8776   -4.1574   -0.7922 H   0  0  0  0  0  0  0  0  0  0  0  0
   -9.5862   -3.5314   -0.4675 H   0  0  0  0  0  0  0  0  0  0  0  0
   -9.0668   -3.4296    2.0590 H   0  0  0  0  0  0  0  0  0  0  0  0
   -7.4089   -4.1370    1.6985 H   0  0  0  0  0  0  0  0  0  0  0  0
   -7.7902    0.4562   -0.3104 H   0  0  0  0  0  0  0  0  0  0  0  0
   -9.7650    1.5684   -1.7719 H   0  0  0  0  0  0  0  0  0  0  0  0
  -10.7674    3.7837   -1.0343 H   0  0  0  0  0  0  0  0  0  0  0  0
  -12.0168    2.5426   -1.4224 H   0  0  0  0  0  0  0  0  0  0  0  0
  -11.6408    4.1294    0.9469 H   0  0  0  0  0  0  0  0  0  0  0  0
  -11.5771    2.4212    2.8054 H   0  0  0  0  0  0  0  0  0  0  0  0
   -9.8450    0.8363    2.4194 H   0  0  0  0  0  0  0  0  0  0  0  0
   -3.9079    0.4182    1.5091 H   0  0  0  0  0  0  0  0  0  0  0  0
   -0.9995    1.3667   -1.3304 H   0  0  0  0  0  0  0  0  0  0  0  0
    0.3645    3.1827   -2.0801 H   0  0  0  0  0  0  0  0  0  0  0  0
    4.7341    1.6500   -1.8317 H   0  0  0  0  0  0  0  0  0  0  0  0
    6.7902    1.4564   -0.9075 H   0  0  0  0  0  0  0  0  0  0  0  0
    6.6790    0.8981   -2.6163 H   0  0  0  0  0  0  0  0  0  0  0  0
    8.5172   -0.6510   -2.2580 H   0  0  0  0  0  0  0  0  0  0  0  0
    8.9717    1.0419   -1.9999 H   0  0  0  0  0  0  0  0  0  0  0  0
    8.1514   -1.0174    0.1504 H   0  0  0  0  0  0  0  0  0  0  0  0
    9.8226   -0.4865   -0.1718 H   0  0  0  0  0  0  0  0  0  0  0  0
    8.8820   -0.5200    2.1502 H   0  0  0  0  0  0  0  0  0  0  0  0
    8.0335    0.9450    2.7222 H   0  0  0  0  0  0  0  0  0  0  0  0
   10.5337    0.5668    3.3880 H   0  0  0  0  0  0  0  0  0  0  0  0
    9.9539    2.2035    3.0123 H   0  0  0  0  0  0  0  0  0  0  0  0
   11.7159    0.2783    1.3726 H   0  0  0  0  0  0  0  0  0  0  0  0
   12.0186    1.9324    1.9308 H   0  0  0  0  0  0  0  0  0  0  0  0
   10.9303    1.1781   -0.6500 H   0  0  0  0  0  0  0  0  0  0  0  0
   11.3098    2.7776   -0.0117 H   0  0  0  0  0  0  0  0  0  0  0  0
    9.0848    2.9287    1.0867 H   0  0  0  0  0  0  0  0  0  0  0  0
    8.9162    2.5157   -0.6375 H   0  0  0  0  0  0  0  0  0  0  0  0
  1  2  1  0
  2  3  1  0
  3  4  2  0
  4  5  1  0
  5  6  2  0
  6  7  1  0
  7  8  1  0
  8  9  2  0
  9 10  1  0
 10 11  2  0
 11 12  1  0
 12 13  1  0
 13 14  2  0
 13 15  1  0
 15 16  1  0
 16 17  1  0
 15 18  1  0
 18 19  2  0
 18 20  1  0
 20 21  1  0
 21 22  2  0
 22 23  1  0
 23 24  1  0
 24 25  1  0
 24 26  1  0
 26 27  2  0
 11 28  1  0
 28 29  2  0
 29 30  1  0
  6 31  1  0
 31 32  2  0
 32 33  1  0
 33 34  2  0
 34 35  1  0
 35 36  2  0
 36 37  1  0
 37 38  1  0
 38 39  1  0
 39 40  1  0
 40 41  1  0
 41 42  1  0
 42 43  1  0
 43 44  1  0
 44 45  1  0
 45 46  1  0
 36  3  1  0
 46 41  1  0
 34  5  1  0
 29  8  1  0
 17 15  1  0
 27 21  1  0
  1 47  1  0
  1 48  1  0
  1 49  1  0
  4 50  1  0
  9 51  1  0
 10 52  1  0
 12 53  1  0
 16 54  1  0
 16 55  1  0
 17 56  1  0
 17 57  1  0
 20 58  1  0
 22 59  1  0
 23 60  1  0
 23 61  1  0
 24 62  1  0
 26 63  1  0
 27 64  1  0
 28 65  1  0
 31 66  1  0
 32 67  1  0
 35 68  1  0
 38 69  1  0
 38 70  1  0
 39 71  1  0
 39 72  1  0
 40 73  1  0
 40 74  1  0
 42 75  1  0
 42 76  1  0
 43 77  1  0
 43 78  1  0
 44 79  1  0
 44 80  1  0
 45 81  1  0
 45 82  1  0
 46 83  1  0
 46 84  1  0
M  END
$$$$
[H]OC([H])([H])[C@@]1([H])OC([H])([H])[C@@]([H])(O[H])[C@@]([H])(O[H])[C@]1([H])O[H]
     RDKit          3D

 23 23  0  0  0  0  0  0  0  0999 V2000
    2.9238   -0.6708    1.5467 O   0  0  0  0  0  0  0  0  0  0  0  0
    1.9548    0.2694    1.2032 C   0  0  0  0  0  0  0  0  0  0  0  0
    1.1063   -0.2727    0.0708 C   0  0  1  0  0  0  0  0  0  0  0  0
    0.4578   -1.4346    0.3850 O   0  0  0  0  0  0  0  0  0  0  0  0
   -0.8439   -1.2757    0.8172 C   0  0  0  0  0  0  0  0  0  0  0  0
   -1.7408   -0.6007   -0.1691 C   0  0  1  0  0  0  0  0  0  0  0  0
   -2.3860    0.4649    0.4985 O   0  0  0  0  0  0  0  0  0  0  0  0
   -0.9011    0.0537   -1.2569 C   0  0  1  0  0  0  0  0  0  0  0  0
   -1.6359    0.8985   -2.0567 O   0  0  0  0  0  0  0  0  0  0  0  0
    0.2062    0.7991   -0.4983 C   0  0  2  0  0  0  0  0  0  0  0  0
    0.8576    1.7095   -1.2841 O   0  0  0  0  0  0  0  0  0  0  0  0
    3.6017   -0.7332    0.8325 H   0  0  0  0  0  0  0  0  0  0  0  0
    1.3729    0.6094    2.0631 H   0  0  0  0  0  0  0  0  0  0  0  0
    2.5006    1.1561    0.7889 H   0  0  0  0  0  0  0  0  0  0  0  0
    1.8384   -0.5204   -0.7545 H   0  0  0  0  0  0  0  0  0  0  0  0
   -0.8902   -0.8099    1.8437 H   0  0  0  0  0  0  0  0  0  0  0  0
   -1.2527   -2.3128    0.9733 H   0  0  0  0  0  0  0  0  0  0  0  0
   -2.5227   -1.2483   -0.5855 H   0  0  0  0  0  0  0  0  0  0  0  0
   -2.7581    0.1455    1.3617 H   0  0  0  0  0  0  0  0  0  0  0  0
   -0.4009   -0.7631   -1.8112 H   0  0  0  0  0  0  0  0  0  0  0  0
   -1.5205    0.6343   -3.0212 H   0  0  0  0  0  0  0  0  0  0  0  0
   -0.3114    1.3267    0.3321 H   0  0  0  0  0  0  0  0  0  0  0  0
    0.3439    2.5751   -1.2793 H   0  0  0  0  0  0  0  0  0  0  0  0
  1  2  1  0
  2  3  1  0
  3  4  1  0
  4  5  1  0
  5  6  1  0
  6  7  1  0
  6  8  1  0
  8  9  1  0
  8 10  1  0
 10 11  1  0
 10  3  1  0
  1 12  1  0
  2 13  1  0
  2 14  1  0
  3 15  1  6
  5 16  1  0
  5 17  1  0
  6 18  1  6
  7 19  1  0
  8 20  1  6
  9 21  1  0
 10 22  1  1
 11 23  1  0
M  END
$$$$
[H]ON([H])C(=O)[C@@]1([H])N(C(=O)[C@@]([H])(N([H])C(=O)[C@]([H])(C([H])([H])N(O[H])C([H])=O)C([H])([H])C([H])([H])C([H])([H])C([H])([H])[H])C([H])([H])C([H])(C([H])([H])[H])C([H])([H])[H])C([H])([H])C([H])([H])C1([H])[H]
     RDKit          3D

 63 63  0  0  0  0  0  0  0  0999 V2000
    5.7065   -1.4045   -1.3682 C   0  0  0  0  0  0  0  0  0  0  0  0
    5.0712   -0.0542   -0.9101 C   0  0  0  0  0  0  0  0  0  0  0  0
    4.1754   -0.3724    0.2132 C   0  0  0  0  0  0  0  0  0  0  0  0
    3.4001    0.6294    0.9409 C   0  0  0  0  0  0  0  0  0  0  0  0
    2.4069    1.4896    0.3158 C   0  0  1  0  0  0  0  0  0  0  0  0
    2.7993    2.5070   -0.6696 C   0  0  0  0  0  0  0  0  0  0  0  0
    3.6350    3.5303   -0.1077 N   0  0  0  0  0  0  0  0  0  0  0  0
    2.9324    4.5974    0.4392 O   0  0  0  0  0  0  0  0  0  0  0  0
    5.0168    3.6255   -0.0177 C   0  0  0  0  0  0  0  0  0  0  0  0
    5.5780    4.6299    0.5422 O   0  0  0  0  0  0  0  0  0  0  0  0
    1.2011    0.7043   -0.1652 C   0  0  0  0  0  0  0  0  0  0  0  0
    0.8929    0.7195   -1.3696 O   0  0  0  0  0  0  0  0  0  0  0  0
    0.4708   -0.0146    0.7639 N   0  0  0  0  0  0  0  0  0  0  0  0
   -0.7354   -0.8172    0.3801 C   0  0  1  0  0  0  0  0  0  0  0  0
   -0.5458   -2.1966    0.8750 C   0  0  0  0  0  0  0  0  0  0  0  0
   -1.5432   -3.2442    0.6751 C   0  0  0  0  0  0  0  0  0  0  0  0
   -2.8955   -3.0819    1.2541 C   0  0  0  0  0  0  0  0  0  0  0  0
   -1.6144   -3.7118   -0.7960 C   0  0  0  0  0  0  0  0  0  0  0  0
   -1.8355   -0.1545    1.1458 C   0  0  0  0  0  0  0  0  0  0  0  0
   -1.6537    0.1369    2.3796 O   0  0  0  0  0  0  0  0  0  0  0  0
   -3.0854    0.1881    0.5980 N   0  0  0  0  0  0  0  0  0  0  0  0
   -4.1949    0.7777    1.2957 C   0  0  0  0  0  0  0  0  0  0  0  0
   -5.4305    0.3878    0.5077 C   0  0  0  0  0  0  0  0  0  0  0  0
   -4.9515   -0.2048   -0.7861 C   0  0  0  0  0  0  0  0  0  0  0  0
   -3.4573    0.0510   -0.7886 C   0  0  1  0  0  0  0  0  0  0  0  0
   -3.1285    1.2610   -1.5739 C   0  0  0  0  0  0  0  0  0  0  0  0
   -2.5888    2.2360   -1.0089 O   0  0  0  0  0  0  0  0  0  0  0  0
   -3.4130    1.3368   -2.9522 N   0  0  0  0  0  0  0  0  0  0  0  0
   -3.1400    2.4054   -3.7202 O   0  0  0  0  0  0  0  0  0  0  0  0
    6.3756   -1.7859   -0.5966 H   0  0  0  0  0  0  0  0  0  0  0  0
    4.8326   -2.0676   -1.5288 H   0  0  0  0  0  0  0  0  0  0  0  0
    6.1711   -1.2213   -2.3391 H   0  0  0  0  0  0  0  0  0  0  0  0
    4.6046    0.3239   -1.8355 H   0  0  0  0  0  0  0  0  0  0  0  0
    5.9396    0.5707   -0.5810 H   0  0  0  0  0  0  0  0  0  0  0  0
    4.8227   -0.9113    0.9899 H   0  0  0  0  0  0  0  0  0  0  0  0
    3.5310   -1.2422   -0.1455 H   0  0  0  0  0  0  0  0  0  0  0  0
    4.1452    1.3420    1.4666 H   0  0  0  0  0  0  0  0  0  0  0  0
    2.9343    0.1450    1.8785 H   0  0  0  0  0  0  0  0  0  0  0  0
    1.9384    2.0973    1.1881 H   0  0  0  0  0  0  0  0  0  0  0  0
    1.8484    3.0088   -1.0303 H   0  0  0  0  0  0  0  0  0  0  0  0
    3.2646    2.1194   -1.6060 H   0  0  0  0  0  0  0  0  0  0  0  0
    2.3348    4.3015    1.1459 H   0  0  0  0  0  0  0  0  0  0  0  0
    5.6982    2.8969   -0.3949 H   0  0  0  0  0  0  0  0  0  0  0  0
    0.7147   -0.0356    1.7566 H   0  0  0  0  0  0  0  0  0  0  0  0
   -0.8530   -0.6657   -0.6778 H   0  0  0  0  0  0  0  0  0  0  0  0
    0.4219   -2.5740    0.4026 H   0  0  0  0  0  0  0  0  0  0  0  0
   -0.2639   -2.2118    1.9782 H   0  0  0  0  0  0  0  0  0  0  0  0
   -1.1072   -4.1779    1.1760 H   0  0  0  0  0  0  0  0  0  0  0  0
   -3.2502   -4.0938    1.6191 H   0  0  0  0  0  0  0  0  0  0  0  0
   -2.9570   -2.4304    2.1260 H   0  0  0  0  0  0  0  0  0  0  0  0
   -3.6782   -2.7848    0.5294 H   0  0  0  0  0  0  0  0  0  0  0  0
   -1.7816   -2.8910   -1.4887 H   0  0  0  0  0  0  0  0  0  0  0  0
   -2.3020   -4.5545   -0.8638 H   0  0  0  0  0  0  0  0  0  0  0  0
   -0.5843   -4.1301   -0.9988 H   0  0  0  0  0  0  0  0  0  0  0  0
   -4.3338    0.3745    2.3187 H   0  0  0  0  0  0  0  0  0  0  0  0
   -4.1111    1.8823    1.3988 H   0  0  0  0  0  0  0  0  0  0  0  0
   -6.0317    1.3122    0.3626 H   0  0  0  0  0  0  0  0  0  0  0  0
   -6.0238   -0.4029    1.0433 H   0  0  0  0  0  0  0  0  0  0  0  0
   -5.2176   -1.2538   -0.9120 H   0  0  0  0  0  0  0  0  0  0  0  0
   -5.4331    0.3783   -1.6207 H   0  0  0  0  0  0  0  0  0  0  0  0
   -3.0057   -0.8633   -1.2498 H   0  0  0  0  0  0  0  0  0  0  0  0
   -3.8627    0.5172   -3.4121 H   0  0  0  0  0  0  0  0  0  0  0  0
   -3.8538    3.0714   -3.7405 H   0  0  0  0  0  0  0  0  0  0  0  0
  1  2  1  0
  2  3  1  0
  3  4  1  0
  4  5  1  0
  5  6  1  0
  6  7  1  0
  7  8  1  0
  7  9  1  0
  9 10  2  0
  5 11  1  0
 11 12  2  0
 11 13  1  0
 13 14  1  0
 14 15  1  0
 15 16  1  0
 16 17  1  0
 16 18  1  0
 14 19  1  0
 19 20  2  0
 19 21  1  0
 21 22  1  0
 22 23  1  0
 23 24  1  0
 24 25  1  0
 25 26  1  0
 26 27  2  0
 26 28  1  0
 28 29  1  0
 25 21  1  0
  1 30  1  0
  1 31  1  0
  1 32  1  0
  2 33  1  0
  2 34  1  0
  3 35  1  0
  3 36  1  0
  4 37  1  0
  4 38  1  0
  5 39  1  1
  6 40  1  0
  6 41  1  0
  8 42  1  0
  9 43  1  0
 13 44  1  0
 14 45  1  6
 15 46  1  0
 15 47  1  0
 16 48  1  0
 17 49  1  0
 17 50  1  0
 17 51  1  0
 18 52  1  0
 18 53  1  0
 18 54  1  0
 22 55  1  0
 22 56  1  0
 23 57  1  0
 23 58  1  0
 24 59  1  0
 24 60  1  0
 25 61  1  6
 28 62  1  0
 29 63  1  0
M  END
$$$$
[H]OC([H])([H])[C@@]1([H])OC([H])(c2c([H])c([H])c([H])c([H])c2[H])[C@]([H])(O[H])[C@@]([H])(O[H])[C@]1([H])O[H]
     RDKit          3D

 33 34  0  0  0  0  0  0  0  0999 V2000
   -3.9324   -1.5630    0.3207 O   0  0  0  0  0  0  0  0  0  0  0  0
   -2.6446   -1.8100   -0.2056 C   0  0  0  0  0  0  0  0  0  0  0  0
   -1.6892   -0.9246    0.6067 C   0  0  1  0  0  0  0  0  0  0  0  0
   -0.4410   -1.0778    0.1937 O   0  0  0  0  0  0  0  0  0  0  0  0
    0.1578   -0.1770   -0.6227 C   0  0  0  0  0  0  0  0  0  0  0  0
   -0.3334    1.2268   -0.5392 C   0  0  2  0  0  0  0  0  0  0  0  0
    0.6567    2.1843   -0.6276 O   0  0  0  0  0  0  0  0  0  0  0  0
   -1.0890    1.4037    0.7853 C   0  0  1  0  0  0  0  0  0  0  0  0
   -1.5105    2.7092    0.9509 O   0  0  0  0  0  0  0  0  0  0  0  0
   -2.2732    0.4501    0.6145 C   0  0  2  0  0  0  0  0  0  0  0  0
   -3.2115    0.6140    1.6090 O   0  0  0  0  0  0  0  0  0  0  0  0
    1.6312   -0.2754   -0.4255 C   0  0  0  0  0  0  0  0  0  0  0  0
    2.5161   -0.2970   -1.4864 C   0  0  0  0  0  0  0  0  0  0  0  0
    3.8812   -0.3882   -1.3039 C   0  0  0  0  0  0  0  0  0  0  0  0
    4.4263   -0.4625   -0.0408 C   0  0  0  0  0  0  0  0  0  0  0  0
    3.5592   -0.4423    1.0275 C   0  0  0  0  0  0  0  0  0  0  0  0
    2.1957   -0.3510    0.8399 C   0  0  0  0  0  0  0  0  0  0  0  0
   -4.3387   -2.4077    0.5972 H   0  0  0  0  0  0  0  0  0  0  0  0
   -2.3643   -2.8667   -0.1121 H   0  0  0  0  0  0  0  0  0  0  0  0
   -2.6171   -1.4334   -1.2525 H   0  0  0  0  0  0  0  0  0  0  0  0
   -1.7844   -1.3183    1.6629 H   0  0  0  0  0  0  0  0  0  0  0  0
   -0.0183   -0.5218   -1.6858 H   0  0  0  0  0  0  0  0  0  0  0  0
   -1.0871    1.4306   -1.3284 H   0  0  0  0  0  0  0  0  0  0  0  0
    0.8000    2.4535   -1.5876 H   0  0  0  0  0  0  0  0  0  0  0  0
   -0.4421    1.0268    1.5836 H   0  0  0  0  0  0  0  0  0  0  0  0
   -0.9511    3.2869    0.4073 H   0  0  0  0  0  0  0  0  0  0  0  0
   -2.7283    0.6250   -0.3963 H   0  0  0  0  0  0  0  0  0  0  0  0
   -4.0657    0.9226    1.2059 H   0  0  0  0  0  0  0  0  0  0  0  0
    2.1167   -0.2397   -2.5019 H   0  0  0  0  0  0  0  0  0  0  0  0
    4.5561   -0.4036   -2.1467 H   0  0  0  0  0  0  0  0  0  0  0  0
    5.5071   -0.5353    0.1218 H   0  0  0  0  0  0  0  0  0  0  0  0
    3.9784   -0.5005    2.0324 H   0  0  0  0  0  0  0  0  0  0  0  0
    1.5389   -0.3375    1.7037 H   0  0  0  0  0  0  0  0  0  0  0  0
  1  2  1  0
  2  3  1  0
  3  4  1  0
  4  5  1  0
  5  6  1  0
  6  7  1  0
  6  8  1  0
  8  9  1  0
  8 10  1  0
 10 11  1  0
  5 12  1  0
 12 13  2  0
 13 14  1  0
 14 15  2  0
 15 16  1  0
 16 17  2  0
 10  3  1  0
 17 12  1  0
  1 18  1  0
  2 19  1  0
  2 20  1  0
  3 21  1  1
  5 22  1  0
  6 23  1  6
  7 24  1  0
  8 25  1  1
  9 26  1  0
 10 27  1  6
 11 28  1  0
 13 29  1  0
 14 30  1  0
 15 31  1  0
 16 32  1  0
 17 33  1  0
M  END
$$$$
[H]O[C@@]([H])(C([H])([H])C(=O)N([H])[C@]([H])(C(=O)N([H])[C@]([H])(C(=O)N([H])[H])C([H])([H])C([H])(C([H])([H])[H])C([H])([H])[H])C([H])([H])[H])[C@@]([H])(N([H])C(=O)[C@@]([H])(N([H])C(=O)OC(C([H])([H])[H])(C([H])([H])[H])C([H])([H])[H])C([H])(C([H])([H])[H])C([H])([H])[H])C([H])([H])c1c([H])c([H])c([H])c([H])c1[H]
     RDKit          3D

 91 91  0  0  0  0  0  0  0  0999 V2000
    8.2833    0.7047   -1.7432 C   0  0  0  0  0  0  0  0  0  0  0  0
    8.7709    0.9882   -0.3243 C   0  0  0  0  0  0  0  0  0  0  0  0
    8.9917    2.5055   -0.1778 C   0  0  0  0  0  0  0  0  0  0  0  0
    7.7863    0.5579    0.7031 C   0  0  0  0  0  0  0  0  0  0  0  0
    7.4704   -0.8987    0.6479 C   0  0  2  0  0  0  0  0  0  0  0  0
    6.4585   -1.1072    1.7145 N   0  0  0  0  0  0  0  0  0  0  0  0
    5.1746   -1.5085    1.3151 C   0  0  0  0  0  0  0  0  0  0  0  0
    4.9172   -1.6792    0.0883 O   0  0  0  0  0  0  0  0  0  0  0  0
    4.0866   -1.7435    2.2940 C   0  0  2  0  0  0  0  0  0  0  0  0
    4.3816   -2.8590    3.2567 C   0  0  0  0  0  0  0  0  0  0  0  0
    2.9001   -2.1201    1.5141 N   0  0  0  0  0  0  0  0  0  0  0  0
    1.7715   -1.2733    1.5756 C   0  0  0  0  0  0  0  0  0  0  0  0
    1.6969   -0.2356    2.2544 O   0  0  0  0  0  0  0  0  0  0  0  0
    0.5720   -1.6574    0.7464 C   0  0  0  0  0  0  0  0  0  0  0  0
   -0.4349   -0.5106    0.8344 C   0  0  2  0  0  0  0  0  0  0  0  0
   -0.7074   -0.5245    2.2579 O   0  0  0  0  0  0  0  0  0  0  0  0
   -1.6651   -0.8330    0.0787 C   0  0  2  0  0  0  0  0  0  0  0  0
   -1.5429   -0.3873   -1.3778 C   0  0  0  0  0  0  0  0  0  0  0  0
   -0.5145   -0.8877   -2.2186 C   0  0  0  0  0  0  0  0  0  0  0  0
    0.6426   -0.1239   -2.4087 C   0  0  0  0  0  0  0  0  0  0  0  0
    1.6773   -0.5358   -3.2183 C   0  0  0  0  0  0  0  0  0  0  0  0
    1.5560   -1.7588   -3.8666 C   0  0  0  0  0  0  0  0  0  0  0  0
    0.4232   -2.5182   -3.6875 C   0  0  0  0  0  0  0  0  0  0  0  0
   -0.6152   -2.1061   -2.8756 C   0  0  0  0  0  0  0  0  0  0  0  0
   -2.7480    0.0814    0.6001 N   0  0  0  0  0  0  0  0  0  0  0  0
   -4.0680   -0.3468    0.5750 C   0  0  0  0  0  0  0  0  0  0  0  0
   -4.3445   -1.4955    0.1150 O   0  0  0  0  0  0  0  0  0  0  0  0
   -5.2345    0.4524    1.0498 C   0  0  1  0  0  0  0  0  0  0  0  0
   -6.3480    0.3332    0.1482 N   0  0  0  0  0  0  0  0  0  0  0  0
   -6.8860    1.5044   -0.4922 C   0  0  0  0  0  0  0  0  0  0  0  0
   -6.3882    2.6430   -0.2549 O   0  0  0  0  0  0  0  0  0  0  0  0
   -7.9394    1.4365   -1.3717 O   0  0  0  0  0  0  0  0  0  0  0  0
   -8.5305    2.5274   -2.0462 C   0  0  0  0  0  0  0  0  0  0  0  0
   -9.1046    3.4664   -1.0121 C   0  0  0  0  0  0  0  0  0  0  0  0
   -9.5668    2.0630   -3.0219 C   0  0  0  0  0  0  0  0  0  0  0  0
   -7.4406    3.3479   -2.7651 C   0  0  0  0  0  0  0  0  0  0  0  0
   -5.6214   -0.0335    2.4356 C   0  0  0  0  0  0  0  0  0  0  0  0
   -4.4558    0.1521    3.3915 C   0  0  0  0  0  0  0  0  0  0  0  0
   -6.8846    0.5723    2.9438 C   0  0  0  0  0  0  0  0  0  0  0  0
    8.6246   -1.7657    0.9513 C   0  0  0  0  0  0  0  0  0  0  0  0
    9.7830   -1.9374    0.1694 N   0  0  0  0  0  0  0  0  0  0  0  0
    8.5995   -2.4537    2.0384 O   0  0  0  0  0  0  0  0  0  0  0  0
    7.1987    0.9793   -1.8458 H   0  0  0  0  0  0  0  0  0  0  0  0
    8.3353   -0.3631   -1.9874 H   0  0  0  0  0  0  0  0  0  0  0  0
    8.8863    1.2962   -2.4520 H   0  0  0  0  0  0  0  0  0  0  0  0
    9.7265    0.4863   -0.1900 H   0  0  0  0  0  0  0  0  0  0  0  0
    8.8396    2.7967    0.8839 H   0  0  0  0  0  0  0  0  0  0  0  0
    8.2833    3.0799   -0.8033 H   0  0  0  0  0  0  0  0  0  0  0  0
   10.0499    2.7287   -0.4283 H   0  0  0  0  0  0  0  0  0  0  0  0
    6.8616    1.1791    0.7224 H   0  0  0  0  0  0  0  0  0  0  0  0
    8.2655    0.7573    1.7015 H   0  0  0  0  0  0  0  0  0  0  0  0
    7.0389   -1.1585   -0.3218 H   0  0  0  0  0  0  0  0  0  0  0  0
    6.7636   -0.9425    2.6767 H   0  0  0  0  0  0  0  0  0  0  0  0
    3.8860   -0.8194    2.8824 H   0  0  0  0  0  0  0  0  0  0  0  0
    4.6350   -3.8128    2.7449 H   0  0  0  0  0  0  0  0  0  0  0  0
    3.4641   -3.0448    3.8506 H   0  0  0  0  0  0  0  0  0  0  0  0
    5.2521   -2.6006    3.9083 H   0  0  0  0  0  0  0  0  0  0  0  0
    2.9205   -2.9737    0.9538 H   0  0  0  0  0  0  0  0  0  0  0  0
    0.0565   -2.5221    1.2531 H   0  0  0  0  0  0  0  0  0  0  0  0
    0.9050   -1.9812   -0.1949 H   0  0  0  0  0  0  0  0  0  0  0  0
   -0.0079    0.4617    0.5899 H   0  0  0  0  0  0  0  0  0  0  0  0
   -1.1424   -1.3952    2.4364 H   0  0  0  0  0  0  0  0  0  0  0  0
   -2.0172   -1.8276    0.1907 H   0  0  0  0  0  0  0  0  0  0  0  0
   -1.5003    0.7524   -1.3681 H   0  0  0  0  0  0  0  0  0  0  0  0
   -2.5405   -0.5672   -1.8988 H   0  0  0  0  0  0  0  0  0  0  0  0
    0.7857    0.8437   -1.9240 H   0  0  0  0  0  0  0  0  0  0  0  0
    2.5820    0.0636   -3.3648 H   0  0  0  0  0  0  0  0  0  0  0  0
    2.3824   -2.0837   -4.5099 H   0  0  0  0  0  0  0  0  0  0  0  0
    0.3255   -3.4839   -4.1977 H   0  0  0  0  0  0  0  0  0  0  0  0
   -1.4833   -2.7514   -2.7784 H   0  0  0  0  0  0  0  0  0  0  0  0
   -2.4553    0.9872    0.9531 H   0  0  0  0  0  0  0  0  0  0  0  0
   -4.9414    1.5248    1.1450 H   0  0  0  0  0  0  0  0  0  0  0  0
   -6.7675   -0.5823   -0.0480 H   0  0  0  0  0  0  0  0  0  0  0  0
   -8.3524    4.0259   -0.4377 H   0  0  0  0  0  0  0  0  0  0  0  0
   -9.8253    4.1474   -1.5255 H   0  0  0  0  0  0  0  0  0  0  0  0
   -9.7309    2.8464   -0.3382 H   0  0  0  0  0  0  0  0  0  0  0  0
  -10.3488    1.5228   -2.4736 H   0  0  0  0  0  0  0  0  0  0  0  0
   -9.9326    2.9623   -3.5732 H   0  0  0  0  0  0  0  0  0  0  0  0
   -9.0527    1.3766   -3.7429 H   0  0  0  0  0  0  0  0  0  0  0  0
   -7.7995    3.7526   -3.7281 H   0  0  0  0  0  0  0  0  0  0  0  0
   -7.0865    4.1563   -2.0776 H   0  0  0  0  0  0  0  0  0  0  0  0
   -6.5199    2.7052   -2.9002 H   0  0  0  0  0  0  0  0  0  0  0  0
   -5.7568   -1.1363    2.3561 H   0  0  0  0  0  0  0  0  0  0  0  0
   -4.1671    1.2156    3.5263 H   0  0  0  0  0  0  0  0  0  0  0  0
   -4.7501   -0.3390    4.3624 H   0  0  0  0  0  0  0  0  0  0  0  0
   -3.6082   -0.4316    2.9805 H   0  0  0  0  0  0  0  0  0  0  0  0
   -7.6494   -0.2177    3.0571 H   0  0  0  0  0  0  0  0  0  0  0  0
   -6.7600    1.1247    3.8993 H   0  0  0  0  0  0  0  0  0  0  0  0
   -7.2921    1.2401    2.1268 H   0  0  0  0  0  0  0  0  0  0  0  0
   10.7209   -2.0445    0.6281 H   0  0  0  0  0  0  0  0  0  0  0  0
    9.7961   -1.9690   -0.8754 H   0  0  0  0  0  0  0  0  0  0  0  0
  1  2  1  0
  2  3  1  0
  2  4  1  0
  4  5  1  0
  5  6  1  0
  6  7  1  0
  7  8  2  0
  7  9  1  0
  9 10  1  0
  9 11  1  0
 11 12  1  0
 12 13  2  0
 12 14  1  0
 14 15  1  0
 15 16  1  0
 15 17  1  0
 17 18  1  0
 18 19  1  0
 19 20  2  0
 20 21  1  0
 21 22  2  0
 22 23  1  0
 23 24  2  0
 17 25  1  0
 25 26  1  0
 26 27  2  0
 26 28  1  0
 28 29  1  0
 29 30  1  0
 30 31  2  0
 30 32  1  0
 32 33  1  0
 33 34  1  0
 33 35  1  0
 33 36  1  0
 28 37  1  0
 37 38  1  0
 37 39  1  0
  5 40  1  0
 40 41  1  0
 40 42  2  0
 24 19  1  0
  1 43  1  0
  1 44  1  0
  1 45  1  0
  2 46  1  0
  3 47  1  0
  3 48  1  0
  3 49  1  0
  4 50  1  0
  4 51  1  0
  5 52  1  6
  6 53  1  0
  9 54  1  1
 10 55  1  0
 10 56  1  0
 10 57  1  0
 11 58  1  0
 14 59  1  0
 14 60  1  0
 15 61  1  6
 16 62  1  0
 17 63  1  6
 18 64  1  0
 18 65  1  0
 20 66  1  0
 21 67  1  0
 22 68  1  0
 23 69  1  0
 24 70  1  0
 25 71  1  0
 28 72  1  1
 29 73  1  0
 34 74  1  0
 34 75  1  0
 34 76  1  0
 35 77  1  0
 35 78  1  0
 35 79  1  0
 36 80  1  0
 36 81  1  0
 36 82  1  0
 37 83  1  0
 38 84  1  0
 38 85  1  0
 38 86  1  0
 39 87  1  0
 39 88  1  0
 39 89  1  0
 41 90  1  0
 41 91  1  0
M  END
$$$$
[H]O[C@@]([H])(C([H])([H])[H])[C@]([H])(c1nnc(-c2c([H])c([H])c([H])c([H])c2[H])o1)N([H])c1c([H])c([H])c([N+]#[C-])c(Cl)c1C([H])([H])[H]
     RDKit          3D

 43 45  0  0  0  0  0  0  0  0999 V2000
   -1.3834   -2.7110   -0.2442 C   0  0  0  0  0  0  0  0  0  0  0  0
   -0.2294   -1.7847   -0.1992 C   0  0  2  0  0  0  0  0  0  0  0  0
    0.2061   -1.7313    1.1495 O   0  0  0  0  0  0  0  0  0  0  0  0
   -0.4411   -0.3981   -0.7185 C   0  0  1  0  0  0  0  0  0  0  0  0
   -1.4147    0.3831   -0.0274 N   0  0  0  0  0  0  0  0  0  0  0  0
   -2.8164    0.3901   -0.2183 C   0  0  0  0  0  0  0  0  0  0  0  0
   -3.4697   -0.2143   -1.2691 C   0  0  0  0  0  0  0  0  0  0  0  0
   -4.8460   -0.1483   -1.4336 C   0  0  0  0  0  0  0  0  0  0  0  0
   -5.6397    0.5356   -0.5416 C   0  0  0  0  0  0  0  0  0  0  0  0
   -7.0123    0.5941   -0.7168 N   0  0  0  0  0  0  0  0  0  0  0  0
   -8.1546    0.6602   -0.8730 C   0  0  0  0  0  0  0  0  0  0  0  0
   -5.0083    1.1485    0.5164 C   0  0  0  0  0  0  0  0  0  0  0  0
   -6.0012    2.0241    1.6621 Cl  0  0  0  0  0  0  0  0  0  0  0  0
   -3.6452    1.0807    0.6764 C   0  0  0  0  0  0  0  0  0  0  0  0
   -2.9859    1.7533    1.8330 C   0  0  0  0  0  0  0  0  0  0  0  0
    0.9068    0.2712   -0.6961 C   0  0  0  0  0  0  0  0  0  0  0  0
    1.1040    1.5678   -0.9396 N   0  0  0  0  0  0  0  0  0  0  0  0
    2.4200    1.7977   -0.8305 N   0  0  0  0  0  0  0  0  0  0  0  0
    3.0183    0.6469   -0.5225 C   0  0  0  0  0  0  0  0  0  0  0  0
    2.0814   -0.2487   -0.4495 O   0  0  0  0  0  0  0  0  0  0  0  0
    4.4618    0.4506   -0.3105 C   0  0  0  0  0  0  0  0  0  0  0  0
    4.9459   -0.8071    0.0060 C   0  0  0  0  0  0  0  0  0  0  0  0
    6.2983   -1.0023    0.2070 C   0  0  0  0  0  0  0  0  0  0  0  0
    7.1784    0.0508    0.0949 C   0  0  0  0  0  0  0  0  0  0  0  0
    6.7076    1.3062   -0.2195 C   0  0  0  0  0  0  0  0  0  0  0  0
    5.3568    1.4882   -0.4176 C   0  0  0  0  0  0  0  0  0  0  0  0
   -2.1641   -2.4503    0.4933 H   0  0  0  0  0  0  0  0  0  0  0  0
   -1.0067   -3.7222    0.0554 H   0  0  0  0  0  0  0  0  0  0  0  0
   -1.7735   -2.8462   -1.2788 H   0  0  0  0  0  0  0  0  0  0  0  0
    0.6219   -2.3002   -0.7245 H   0  0  0  0  0  0  0  0  0  0  0  0
   -0.5527   -1.6094    1.7581 H   0  0  0  0  0  0  0  0  0  0  0  0
   -0.6763   -0.4843   -1.8224 H   0  0  0  0  0  0  0  0  0  0  0  0
   -1.0370    1.0430    0.7233 H   0  0  0  0  0  0  0  0  0  0  0  0
   -2.8895   -0.7489   -2.0093 H   0  0  0  0  0  0  0  0  0  0  0  0
   -5.3386   -0.6408   -2.2811 H   0  0  0  0  0  0  0  0  0  0  0  0
   -2.3179    1.0185    2.3421 H   0  0  0  0  0  0  0  0  0  0  0  0
   -3.7600    2.1177    2.5236 H   0  0  0  0  0  0  0  0  0  0  0  0
   -2.3437    2.5586    1.4185 H   0  0  0  0  0  0  0  0  0  0  0  0
    4.2460   -1.6339    0.0929 H   0  0  0  0  0  0  0  0  0  0  0  0
    6.6945   -1.9615    0.4516 H   0  0  0  0  0  0  0  0  0  0  0  0
    8.2497   -0.0477    0.2426 H   0  0  0  0  0  0  0  0  0  0  0  0
    7.4208    2.1382   -0.3060 H   0  0  0  0  0  0  0  0  0  0  0  0
    4.9897    2.4660   -0.6626 H   0  0  0  0  0  0  0  0  0  0  0  0
  1  2  1  0
  2  3  1  0
  2  4  1  0
  4  5  1  0
  5  6  1  0
  6  7  2  0
  7  8  1  0
  8  9  2  0
  9 10  1  0
 10 11  3  0
  9 12  1  0
 12 13  1  0
 12 14  2  0
 14 15  1  0
  4 16  1  0
 16 17  2  0
 17 18  1  0
 18 19  2  0
 19 20  1  0
 19 21  1  0
 21 22  2  0
 22 23  1  0
 23 24  2  0
 24 25  1  0
 25 26  2  0
 14  6  1  0
 20 16  1  0
 26 21  1  0
  1 27  1  0
  1 28  1  0
  1 29  1  0
  2 30  1  6
  3 31  1  0
  4 32  1  6
  5 33  1  0
  7 34  1  0
  8 35  1  0
 15 36  1  0
 15 37  1  0
 15 38  1  0
 22 39  1  0
 23 40  1  0
 24 41  1  0
 25 42  1  0
 26 43  1  0
M  CHG  2  10   1  11  -1
M  END
$$$$
[H]c1nc([H])n(C([H])([H])[C@@]2(c3c([H])c([H])c(Cl)c([H])c3[H])OC([H])([H])[C@@]([H])(C([H])([H])Oc3c([H])c([H])c(N4C([H])([H])C([H])([H])N(S(=O)(=O)C([H])(C([H])([H])[H])C([H])([H])[H])C([H])([H])C4([H])[H])c([H])c3[H])O2)c1[H]
     RDKit          3D

 71 75  0  0  0  0  0  0  0  0999 V2000
    8.4481   -1.9072   -0.8061 C   0  0  0  0  0  0  0  0  0  0  0  0
    8.7903   -1.1030    0.4416 C   0  0  0  0  0  0  0  0  0  0  0  0
    9.8447   -0.0665    0.2041 C   0  0  0  0  0  0  0  0  0  0  0  0
    7.3532   -0.4783    1.2323 S   0  0  0  0  0  0  0  0  0  0  0  0
    7.7674    0.0652    2.5903 O   0  0  0  0  0  0  0  0  0  0  0  0
    6.4301   -1.6426    1.5423 O   0  0  0  0  0  0  0  0  0  0  0  0
    6.5347    0.7545    0.4210 N   0  0  0  0  0  0  0  0  0  0  0  0
    5.9883    0.4720   -0.8550 C   0  0  0  0  0  0  0  0  0  0  0  0
    4.4983    0.1059   -0.7566 C   0  0  0  0  0  0  0  0  0  0  0  0
    3.7979    1.2921   -0.2457 N   0  0  0  0  0  0  0  0  0  0  0  0
    4.6198    2.1949    0.5322 C   0  0  0  0  0  0  0  0  0  0  0  0
    5.5641    1.3327    1.3439 C   0  0  0  0  0  0  0  0  0  0  0  0
    2.4329    1.4452   -0.5310 C   0  0  0  0  0  0  0  0  0  0  0  0
    1.7915    2.6670   -0.5455 C   0  0  0  0  0  0  0  0  0  0  0  0
    0.4590    2.8095   -0.8056 C   0  0  0  0  0  0  0  0  0  0  0  0
   -0.3301    1.6593   -1.0775 C   0  0  0  0  0  0  0  0  0  0  0  0
   -1.6189    1.7996   -1.3351 O   0  0  0  0  0  0  0  0  0  0  0  0
   -2.7887    1.1856   -1.5887 C   0  0  0  0  0  0  0  0  0  0  0  0
   -3.4221    0.4265   -0.4779 C   0  0  2  0  0  0  0  0  0  0  0  0
   -2.7378   -0.7505    0.0958 C   0  0  0  0  0  0  0  0  0  0  0  0
   -3.8085   -1.3553    0.8027 O   0  0  0  0  0  0  0  0  0  0  0  0
   -4.9632   -1.0397    0.1329 C   0  0  2  0  0  0  0  0  0  0  0  0
   -5.5214   -2.3603   -0.4051 C   0  0  0  0  0  0  0  0  0  0  0  0
   -6.7451   -2.1654   -1.1343 N   0  0  0  0  0  0  0  0  0  0  0  0
   -8.0157   -2.1848   -0.6617 C   0  0  0  0  0  0  0  0  0  0  0  0
   -8.9003   -1.9453   -1.6916 C   0  0  0  0  0  0  0  0  0  0  0  0
   -8.1569   -1.7810   -2.7932 N   0  0  0  0  0  0  0  0  0  0  0  0
   -6.8636   -1.9157   -2.4457 C   0  0  0  0  0  0  0  0  0  0  0  0
   -4.6406   -0.1838   -0.9080 O   0  0  0  0  0  0  0  0  0  0  0  0
   -5.9895   -0.3575    0.9643 C   0  0  0  0  0  0  0  0  0  0  0  0
   -6.7453    0.6682    0.4238 C   0  0  0  0  0  0  0  0  0  0  0  0
   -7.7215    1.3514    1.1108 C   0  0  0  0  0  0  0  0  0  0  0  0
   -7.9792    1.0089    2.4226 C   0  0  0  0  0  0  0  0  0  0  0  0
   -9.2094    1.8597    3.2979 Cl  0  0  0  0  0  0  0  0  0  0  0  0
   -7.2350   -0.0098    2.9762 C   0  0  0  0  0  0  0  0  0  0  0  0
   -6.2463   -0.6985    2.2717 C   0  0  0  0  0  0  0  0  0  0  0  0
    0.3423    0.4639   -1.0548 C   0  0  0  0  0  0  0  0  0  0  0  0
    1.6830    0.3320   -0.7926 C   0  0  0  0  0  0  0  0  0  0  0  0
    8.6099   -1.2821   -1.6999 H   0  0  0  0  0  0  0  0  0  0  0  0
    7.4488   -2.3566   -0.7681 H   0  0  0  0  0  0  0  0  0  0  0  0
    9.1540   -2.7855   -0.9071 H   0  0  0  0  0  0  0  0  0  0  0  0
    9.2471   -1.8800    1.1374 H   0  0  0  0  0  0  0  0  0  0  0  0
    9.4952    0.9774    0.3883 H   0  0  0  0  0  0  0  0  0  0  0  0
   10.1729   -0.1395   -0.8576 H   0  0  0  0  0  0  0  0  0  0  0  0
   10.7544   -0.1933    0.8318 H   0  0  0  0  0  0  0  0  0  0  0  0
    5.9816    1.4394   -1.4368 H   0  0  0  0  0  0  0  0  0  0  0  0
    6.4803   -0.2971   -1.4102 H   0  0  0  0  0  0  0  0  0  0  0  0
    4.1648   -0.0864   -1.7910 H   0  0  0  0  0  0  0  0  0  0  0  0
    4.4257   -0.7565   -0.0879 H   0  0  0  0  0  0  0  0  0  0  0  0
    3.9926    2.7853    1.2460 H   0  0  0  0  0  0  0  0  0  0  0  0
    5.1603    2.8874   -0.1388 H   0  0  0  0  0  0  0  0  0  0  0  0
    4.9537    0.5376    1.8333 H   0  0  0  0  0  0  0  0  0  0  0  0
    6.0991    1.9721    2.0495 H   0  0  0  0  0  0  0  0  0  0  0  0
    2.4204    3.5455   -0.3314 H   0  0  0  0  0  0  0  0  0  0  0  0
   -0.0294    3.7914   -0.8100 H   0  0  0  0  0  0  0  0  0  0  0  0
   -3.5516    2.0123   -1.8498 H   0  0  0  0  0  0  0  0  0  0  0  0
   -2.7734    0.5472   -2.5408 H   0  0  0  0  0  0  0  0  0  0  0  0
   -3.6694    1.1077    0.3931 H   0  0  0  0  0  0  0  0  0  0  0  0
   -2.4046   -1.4802   -0.6732 H   0  0  0  0  0  0  0  0  0  0  0  0
   -1.9279   -0.4828    0.8169 H   0  0  0  0  0  0  0  0  0  0  0  0
   -5.7685   -3.0386    0.4580 H   0  0  0  0  0  0  0  0  0  0  0  0
   -4.7603   -2.9010   -0.9979 H   0  0  0  0  0  0  0  0  0  0  0  0
   -8.3292   -2.3555    0.3569 H   0  0  0  0  0  0  0  0  0  0  0  0
  -10.0000   -1.9009   -1.6194 H   0  0  0  0  0  0  0  0  0  0  0  0
   -6.0457   -1.8238   -3.1829 H   0  0  0  0  0  0  0  0  0  0  0  0
   -6.5566    0.9585   -0.6160 H   0  0  0  0  0  0  0  0  0  0  0  0
   -8.2963    2.1584    0.6330 H   0  0  0  0  0  0  0  0  0  0  0  0
   -7.4407   -0.2802    4.0074 H   0  0  0  0  0  0  0  0  0  0  0  0
   -5.6806   -1.4946    2.7420 H   0  0  0  0  0  0  0  0  0  0  0  0
   -0.1606   -0.4911   -1.2793 H   0  0  0  0  0  0  0  0  0  0  0  0
    2.1277   -0.6438   -0.7957 H   0  0  0  0  0  0  0  0  0  0  0  0
  1  2  1  0
  2  3  1  0
  2  4  1  0
  4  5  2  0
  4  6  2  0
  4  7  1  0
  7  8  1  0
  8  9  1  0
  9 10  1  0
 10 11  1  0
 11 12  1  0
 10 13  1  0
 13 14  2  0
 14 15  1  0
 15 16  2  0
 16 17  1  0
 17 18  1  0
 18 19  1  0
 19 20  1  0
 20 21  1  0
 21 22  1  0
 22 23  1  6
 23 24  1  0
 24 25  1  0
 25 26  2  0
 26 27  1  0
 27 28  2  0
 22 29  1  0
 22 30  1  0
 30 31  2  0
 31 32  1  0
 32 33  2  0
 33 34  1  0
 33 35  1  0
 35 36  2  0
 16 37  1  0
 37 38  2  0
 12  7  1  0
 38 13  1  0
 29 19  1  0
 36 30  1  0
 28 24  1  0
  1 39  1  0
  1 40  1  0
  1 41  1  0
  2 42  1  0
  3 43  1  0
  3 44  1  0
  3 45  1  0
  8 46  1  0
  8 47  1  0
  9 48  1  0
  9 49  1  0
 11 50  1  0
 11 51  1  0
 12 52  1  0
 12 53  1  0
 14 54  1  0
 15 55  1  0
 18 56  1  0
 18 57  1  0
 19 58  1  1
 20 59  1  0
 20 60  1  0
 23 61  1  0
 23 62  1  0
 25 63  1  0
 26 64  1  0
 28 65  1  0
 31 66  1  0
 32 67  1  0
 35 68  1  0
 36 69  1  0
 37 70  1  0
 38 71  1  0
M  END
$$$$
[H]c1nc(N([H])C2(c3c([H])c([H])c(Cl)c([H])c3Cl)C([H])([H])C2([H])[H])nc([H])c1-c1nnc(C([H])(F)F)o1
     RDKit          3D

 37 40  0  0  0  0  0  0  0  0999 V2000
    7.5317    0.3194    1.9653 F   0  0  0  0  0  0  0  0  0  0  0  0
    7.5611   -0.6017    0.9126 C   0  0  0  0  0  0  0  0  0  0  0  0
    7.4331   -1.8707    1.3891 F   0  0  0  0  0  0  0  0  0  0  0  0
    6.3777   -0.2408    0.0527 C   0  0  0  0  0  0  0  0  0  0  0  0
    6.4439    0.2490   -1.1942 N   0  0  0  0  0  0  0  0  0  0  0  0
    5.1986    0.4310   -1.5968 N   0  0  0  0  0  0  0  0  0  0  0  0
    4.3555    0.0621   -0.6196 C   0  0  0  0  0  0  0  0  0  0  0  0
    5.1251   -0.3383    0.3604 O   0  0  0  0  0  0  0  0  0  0  0  0
    2.9042    0.0842   -0.6061 C   0  0  0  0  0  0  0  0  0  0  0  0
    2.1979    0.5282   -1.6999 C   0  0  0  0  0  0  0  0  0  0  0  0
    0.8595    0.5363   -1.6562 N   0  0  0  0  0  0  0  0  0  0  0  0
    0.1426    0.1252   -0.5777 C   0  0  0  0  0  0  0  0  0  0  0  0
   -1.2476    0.1667   -0.6423 N   0  0  0  0  0  0  0  0  0  0  0  0
   -2.2074   -0.2055    0.3619 C   0  0  0  0  0  0  0  0  0  0  0  0
   -2.0308   -1.6284    0.8438 C   0  0  0  0  0  0  0  0  0  0  0  0
   -1.8638   -0.4618    1.7776 C   0  0  0  0  0  0  0  0  0  0  0  0
   -3.6044    0.1983    0.0282 C   0  0  0  0  0  0  0  0  0  0  0  0
   -4.6122   -0.7083   -0.1188 C   0  0  0  0  0  0  0  0  0  0  0  0
   -5.9138   -0.3017   -0.4410 C   0  0  0  0  0  0  0  0  0  0  0  0
   -6.2137    1.0246   -0.6189 C   0  0  0  0  0  0  0  0  0  0  0  0
   -7.8621    1.5404   -1.0270 Cl  0  0  0  0  0  0  0  0  0  0  0  0
   -5.2035    1.9424   -0.4726 C   0  0  0  0  0  0  0  0  0  0  0  0
   -3.9223    1.5493   -0.1559 C   0  0  0  0  0  0  0  0  0  0  0  0
   -2.6256    2.7403    0.0309 Cl  0  0  0  0  0  0  0  0  0  0  0  0
    0.8652   -0.2974    0.4606 N   0  0  0  0  0  0  0  0  0  0  0  0
    2.2040   -0.3297    0.4786 C   0  0  0  0  0  0  0  0  0  0  0  0
    8.4892   -0.4029    0.3628 H   0  0  0  0  0  0  0  0  0  0  0  0
    2.7579    0.8581   -2.5644 H   0  0  0  0  0  0  0  0  0  0  0  0
   -1.6772    0.5203   -1.5623 H   0  0  0  0  0  0  0  0  0  0  0  0
   -1.0699   -2.1475    0.6236 H   0  0  0  0  0  0  0  0  0  0  0  0
   -2.8509   -2.3193    0.9943 H   0  0  0  0  0  0  0  0  0  0  0  0
   -0.9180   -0.1525    2.1834 H   0  0  0  0  0  0  0  0  0  0  0  0
   -2.7164   -0.3573    2.4960 H   0  0  0  0  0  0  0  0  0  0  0  0
   -4.4392   -1.7739    0.0034 H   0  0  0  0  0  0  0  0  0  0  0  0
   -6.6926   -1.0369   -0.5515 H   0  0  0  0  0  0  0  0  0  0  0  0
   -5.4514    2.9987   -0.6164 H   0  0  0  0  0  0  0  0  0  0  0  0
    2.6754   -0.7000    1.3963 H   0  0  0  0  0  0  0  0  0  0  0  0
  1  2  1  0
  2  3  1  0
  2  4  1  0
  4  5  2  0
  5  6  1  0
  6  7  2  0
  7  8  1  0
  7  9  1  0
  9 10  2  0
 10 11  1  0
 11 12  2  0
 12 13  1  0
 13 14  1  0
 14 15  1  0
 15 16  1  0
 14 17  1  0
 17 18  2  0
 18 19  1  0
 19 20  2  0
 20 21  1  0
 20 22  1  0
 22 23  2  0
 23 24  1  0
 12 25  1  0
 25 26  2  0
  8  4  1  0
 26  9  1  0
 16 14  1  0
 23 17  1  0
  2 27  1  0
 10 28  1  0
 13 29  1  0
 15 30  1  0
 15 31  1  0
 16 32  1  0
 16 33  1  0
 18 34  1  0
 19 35  1  0
 22 36  1  0
 26 37  1  0
M  END
$$$$
[H]OC(=O)C([H])([H])C([H])([H])[C@@]([H])(C(=O)N([H])[C@]([H])(C(=O)O[H])C([H])([H])C([H])(C([H])([H])[H])C([H])([H])[H])N([H])C(=O)[C@@]([H])(N([H])C(=O)OC([H])([H])c1c([H])c([H])c([H])c([H])c1[H])C([H])(C([H])([H])[H])C([H])([H])[H]
     RDKit          3D

 70 70  0  0  0  0  0  0  0  0999 V2000
   -8.0552   -0.0865   -0.7021 C   0  0  0  0  0  0  0  0  0  0  0  0
   -6.8294    0.0189   -1.5642 C   0  0  0  0  0  0  0  0  0  0  0  0
   -7.2041   -0.6419   -2.9110 C   0  0  0  0  0  0  0  0  0  0  0  0
   -5.5775   -0.5341   -1.0417 C   0  0  0  0  0  0  0  0  0  0  0  0
   -4.9547   -0.0159    0.1969 C   0  0  2  0  0  0  0  0  0  0  0  0
   -3.7012   -0.7790    0.4451 N   0  0  0  0  0  0  0  0  0  0  0  0
   -2.4419   -0.1583    0.5396 C   0  0  0  0  0  0  0  0  0  0  0  0
   -2.3220    1.0826    0.4271 O   0  0  0  0  0  0  0  0  0  0  0  0
   -1.1864   -0.9609    0.7779 C   0  0  2  0  0  0  0  0  0  0  0  0
   -1.3888   -2.0868    1.7059 C   0  0  0  0  0  0  0  0  0  0  0  0
   -1.8494   -1.8588    3.0819 C   0  0  0  0  0  0  0  0  0  0  0  0
   -0.9911   -1.1471    4.0267 C   0  0  0  0  0  0  0  0  0  0  0  0
   -1.5728   -0.7265    5.2505 O   0  0  0  0  0  0  0  0  0  0  0  0
    0.2114   -0.8550    3.8968 O   0  0  0  0  0  0  0  0  0  0  0  0
   -0.0181   -0.1624    0.8480 N   0  0  0  0  0  0  0  0  0  0  0  0
    1.0504   -0.2046   -0.0815 C   0  0  0  0  0  0  0  0  0  0  0  0
    0.8473   -1.0600   -1.0332 O   0  0  0  0  0  0  0  0  0  0  0  0
    2.2807    0.5532   -0.1007 C   0  0  1  0  0  0  0  0  0  0  0  0
    3.0648    0.2461   -1.2626 N   0  0  0  0  0  0  0  0  0  0  0  0
    4.3241   -0.3942   -1.1764 C   0  0  0  0  0  0  0  0  0  0  0  0
    4.7673   -0.7056   -0.0201 O   0  0  0  0  0  0  0  0  0  0  0  0
    5.1166   -0.7101   -2.2379 O   0  0  0  0  0  0  0  0  0  0  0  0
    6.3608   -1.3328   -2.2329 C   0  0  0  0  0  0  0  0  0  0  0  0
    7.3441   -0.5079   -1.4629 C   0  0  0  0  0  0  0  0  0  0  0  0
    8.4781   -1.0781   -0.9298 C   0  0  0  0  0  0  0  0  0  0  0  0
    9.3710   -0.3064   -0.2389 C   0  0  0  0  0  0  0  0  0  0  0  0
    9.1680    1.0497   -0.0557 C   0  0  0  0  0  0  0  0  0  0  0  0
    8.0184    1.6060   -0.6010 C   0  0  0  0  0  0  0  0  0  0  0  0
    7.1201    0.8268   -1.2964 C   0  0  0  0  0  0  0  0  0  0  0  0
    2.1811    2.0515   -0.0115 C   0  0  0  0  0  0  0  0  0  0  0  0
    1.3756    2.6939   -1.0842 C   0  0  0  0  0  0  0  0  0  0  0  0
    1.8505    2.4727    1.3934 C   0  0  0  0  0  0  0  0  0  0  0  0
   -5.7535   -0.1525    1.4294 C   0  0  0  0  0  0  0  0  0  0  0  0
   -6.5785    0.8809    1.8363 O   0  0  0  0  0  0  0  0  0  0  0  0
   -5.7116   -1.2045    2.1567 O   0  0  0  0  0  0  0  0  0  0  0  0
   -7.8994   -0.8798    0.0557 H   0  0  0  0  0  0  0  0  0  0  0  0
   -8.9579   -0.4044   -1.3421 H   0  0  0  0  0  0  0  0  0  0  0  0
   -8.3936    0.8865   -0.3013 H   0  0  0  0  0  0  0  0  0  0  0  0
   -6.6802    1.1048   -1.8533 H   0  0  0  0  0  0  0  0  0  0  0  0
   -8.2780   -0.4306   -3.0581 H   0  0  0  0  0  0  0  0  0  0  0  0
   -6.9673   -1.7150   -2.8479 H   0  0  0  0  0  0  0  0  0  0  0  0
   -6.6748   -0.1719   -3.7469 H   0  0  0  0  0  0  0  0  0  0  0  0
   -4.8072   -0.4551   -1.8634 H   0  0  0  0  0  0  0  0  0  0  0  0
   -5.7211   -1.6601   -0.9562 H   0  0  0  0  0  0  0  0  0  0  0  0
   -4.6256    1.0254    0.0648 H   0  0  0  0  0  0  0  0  0  0  0  0
   -3.8240   -1.8003    0.5428 H   0  0  0  0  0  0  0  0  0  0  0  0
   -1.0778   -1.4937   -0.2657 H   0  0  0  0  0  0  0  0  0  0  0  0
   -0.3615   -2.5939    1.7977 H   0  0  0  0  0  0  0  0  0  0  0  0
   -2.0047   -2.8969    1.2207 H   0  0  0  0  0  0  0  0  0  0  0  0
   -1.9876   -2.8997    3.5412 H   0  0  0  0  0  0  0  0  0  0  0  0
   -2.9014   -1.4503    3.1333 H   0  0  0  0  0  0  0  0  0  0  0  0
   -1.9169    0.2150    5.3754 H   0  0  0  0  0  0  0  0  0  0  0  0
    0.0678    0.5301    1.6119 H   0  0  0  0  0  0  0  0  0  0  0  0
    2.8992    0.1684    0.7830 H   0  0  0  0  0  0  0  0  0  0  0  0
    2.7358    0.4867   -2.2386 H   0  0  0  0  0  0  0  0  0  0  0  0
    6.7502   -1.5899   -3.2161 H   0  0  0  0  0  0  0  0  0  0  0  0
    6.2960   -2.3107   -1.6689 H   0  0  0  0  0  0  0  0  0  0  0  0
    8.6338   -2.1395   -1.0736 H   0  0  0  0  0  0  0  0  0  0  0  0
   10.2861   -0.7128    0.2015 H   0  0  0  0  0  0  0  0  0  0  0  0
    9.8449    1.6838    0.4780 H   0  0  0  0  0  0  0  0  0  0  0  0
    7.8723    2.6853   -0.4465 H   0  0  0  0  0  0  0  0  0  0  0  0
    6.2437    1.3491   -1.6958 H   0  0  0  0  0  0  0  0  0  0  0  0
    3.2478    2.4738   -0.1694 H   0  0  0  0  0  0  0  0  0  0  0  0
    1.2798    2.0339   -1.9494 H   0  0  0  0  0  0  0  0  0  0  0  0
    1.8538    3.6554   -1.4066 H   0  0  0  0  0  0  0  0  0  0  0  0
    0.3744    3.0268   -0.6867 H   0  0  0  0  0  0  0  0  0  0  0  0
    2.4853    3.3330    1.7289 H   0  0  0  0  0  0  0  0  0  0  0  0
    2.0572    1.6765    2.1364 H   0  0  0  0  0  0  0  0  0  0  0  0
    0.7838    2.7706    1.5049 H   0  0  0  0  0  0  0  0  0  0  0  0
   -7.4270    0.6872    2.3308 H   0  0  0  0  0  0  0  0  0  0  0  0
  1  2  1  0
  2  3  1  0
  2  4  1  0
  4  5  1  0
  5  6  1  0
  6  7  1  0
  7  8  2  0
  7  9  1  0
  9 10  1  0
 10 11  1  0
 11 12  1  0
 12 13  1  0
 12 14  2  0
  9 15  1  0
 15 16  1  0
 16 17  2  0
 16 18  1  0
 18 19  1  0
 19 20  1  0
 20 21  2  0
 20 22  1  0
 22 23  1  0
 23 24  1  0
 24 25  2  0
 25 26  1  0
 26 27  2  0
 27 28  1  0
 28 29  2  0
 18 30  1  0
 30 31  1  0
 30 32  1  0
  5 33  1  0
 33 34  1  0
 33 35  2  0
 29 24  1  0
  1 36  1  0
  1 37  1  0
  1 38  1  0
  2 39  1  0
  3 40  1  0
  3 41  1  0
  3 42  1  0
  4 43  1  0
  4 44  1  0
  5 45  1  6
  6 46  1  0
  9 47  1  6
 10 48  1  0
 10 49  1  0
 11 50  1  0
 11 51  1  0
 13 52  1  0
 15 53  1  0
 18 54  1  1
 19 55  1  0
 23 56  1  0
 23 57  1  0
 25 58  1  0
 26 59  1  0
 27 60  1  0
 28 61  1  0
 29 62  1  0
 30 63  1  0
 31 64  1  0
 31 65  1  0
 31 66  1  0
 32 67  1  0
 32 68  1  0
 32 69  1  0
 34 70  1  0
M  END
$$$$
[H]c1c([H])c([H])c2c(c1[H])-c1c([H])c([H])c([H])c([H])c1C2([H])N([H])C(=O)c1c([H])c(C(F)(F)F)c([H])c(C(F)(F)F)c1[H]
     RDKit          3D

 43 46  0  0  0  0  0  0  0  0999 V2000
    6.4940   -2.3121    0.2712 F   0  0  0  0  0  0  0  0  0  0  0  0
    5.1877   -2.5916    0.7131 C   0  0  0  0  0  0  0  0  0  0  0  0
    5.2837   -3.0032    2.0081 F   0  0  0  0  0  0  0  0  0  0  0  0
    4.7592   -3.6185   -0.1264 F   0  0  0  0  0  0  0  0  0  0  0  0
    4.3704   -1.3497    0.5346 C   0  0  0  0  0  0  0  0  0  0  0  0
    2.9944   -1.4246    0.6467 C   0  0  0  0  0  0  0  0  0  0  0  0
    2.1925   -0.2950    0.4268 C   0  0  0  0  0  0  0  0  0  0  0  0
    2.8098    0.8703    0.1048 C   0  0  0  0  0  0  0  0  0  0  0  0
    4.1988    0.9763   -0.0146 C   0  0  0  0  0  0  0  0  0  0  0  0
    4.9681   -0.1463    0.2045 C   0  0  0  0  0  0  0  0  0  0  0  0
    4.8945    2.2437   -0.3949 C   0  0  0  0  0  0  0  0  0  0  0  0
    5.9176    2.4235    0.4829 F   0  0  0  0  0  0  0  0  0  0  0  0
    5.3029    2.2203   -1.7193 F   0  0  0  0  0  0  0  0  0  0  0  0
    4.0634    3.3447   -0.2766 F   0  0  0  0  0  0  0  0  0  0  0  0
    0.7294   -0.4910    0.4855 C   0  0  0  0  0  0  0  0  0  0  0  0
    0.3083   -1.4921    1.1218 O   0  0  0  0  0  0  0  0  0  0  0  0
   -0.2237    0.3837   -0.1547 N   0  0  0  0  0  0  0  0  0  0  0  0
   -1.5640    0.0183   -0.1001 C   0  0  0  0  0  0  0  0  0  0  0  0
   -2.3623    0.1120   -1.3370 C   0  0  0  0  0  0  0  0  0  0  0  0
   -1.9551    0.2267   -2.6585 C   0  0  0  0  0  0  0  0  0  0  0  0
   -2.9916    0.1440   -3.5965 C   0  0  0  0  0  0  0  0  0  0  0  0
   -4.3124   -0.0350   -3.2197 C   0  0  0  0  0  0  0  0  0  0  0  0
   -4.6734   -0.1401   -1.8913 C   0  0  0  0  0  0  0  0  0  0  0  0
   -3.6657   -0.0601   -0.9417 C   0  0  0  0  0  0  0  0  0  0  0  0
   -3.7918    0.0606    0.5290 C   0  0  0  0  0  0  0  0  0  0  0  0
   -4.8682    0.1168    1.3776 C   0  0  0  0  0  0  0  0  0  0  0  0
   -4.7156    0.4325    2.6964 C   0  0  0  0  0  0  0  0  0  0  0  0
   -3.4276    0.6985    3.1701 C   0  0  0  0  0  0  0  0  0  0  0  0
   -2.3219    0.6475    2.3465 C   0  0  0  0  0  0  0  0  0  0  0  0
   -2.4682    0.3206    0.9982 C   0  0  0  0  0  0  0  0  0  0  0  0
    2.4780   -2.3467    0.9078 H   0  0  0  0  0  0  0  0  0  0  0  0
    2.1997    1.7528   -0.0634 H   0  0  0  0  0  0  0  0  0  0  0  0
    6.0609   -0.1443    0.1269 H   0  0  0  0  0  0  0  0  0  0  0  0
    0.1602    1.2485   -0.6331 H   0  0  0  0  0  0  0  0  0  0  0  0
   -1.5020   -1.2199   -0.0461 H   0  0  0  0  0  0  0  0  0  0  0  0
   -0.9217    0.3760   -2.9231 H   0  0  0  0  0  0  0  0  0  0  0  0
   -2.7020    0.2354   -4.6439 H   0  0  0  0  0  0  0  0  0  0  0  0
   -5.0694   -0.0968   -4.0062 H   0  0  0  0  0  0  0  0  0  0  0  0
   -5.6981   -0.2826   -1.6050 H   0  0  0  0  0  0  0  0  0  0  0  0
   -5.8744   -0.1061    0.9687 H   0  0  0  0  0  0  0  0  0  0  0  0
   -5.5957    0.4607    3.3097 H   0  0  0  0  0  0  0  0  0  0  0  0
   -3.3440    0.9678    4.1994 H   0  0  0  0  0  0  0  0  0  0  0  0
   -1.3246    0.8743    2.7219 H   0  0  0  0  0  0  0  0  0  0  0  0
  1  2  1  0
  2  3  1  0
  2  4  1  0
  2  5  1  0
  5  6  2  0
  6  7  1  0
  7  8  2  0
  8  9  1  0
  9 10  2  0
  9 11  1  0
 11 12  1  0
 11 13  1  0
 11 14  1  0
  7 15  1  0
 15 16  2  0
 15 17  1  0
 17 18  1  0
 18 19  1  0
 19 20  2  0
 20 21  1  0
 21 22  2  0
 22 23  1  0
 23 24  2  0
 24 25  1  0
 25 26  2  0
 26 27  1  0
 27 28  2  0
 28 29  1  0
 29 30  2  0
 10  5  1  0
 30 18  1  0
 24 19  1  0
 30 25  1  0
  6 31  1  0
  8 32  1  0
 10 33  1  0
 17 34  1  0
 18 35  1  0
 20 36  1  0
 21 37  1  0
 22 38  1  0
 23 39  1  0
 26 40  1  0
 27 41  1  0
 28 42  1  0
 29 43  1  0
M  END
$$$$
[H][C](N([H])C(=O)[C@@]([H])(N([H])C(=O)[C@@]([H])(N([H])C(=O)[C@@]([H])(N([H])C(=O)[C@@]([H])(N([H])C(=O)[C@@]([H])(N([H])C(=O)[C@@]([H])(N([H])C(=O)[C@@]([H])(N([H])[H])C([H])([H])C([H])([H])C(=O)N([H])[H])C([H])([H])C([H])([H])C(=O)N([H])[H])C([H])([H])C([H])([H])C([H])([H])N=C(N([H])[H])N([H])[H])C([H])([H])C(=O)N([H])[H])C([H])([H])C(=O)N([H])[H])C([H])([H])C([H])([H])C(=O)N([H])[H])C([H])([H])C([H])([H])C(=O)N([H])[H])C([H])([H])C([H])([H])C(=O)N([H])[H]
     RDKit          3D

135134  0  0  0  0  0  0  0  0999 V2000
   -5.7467   -6.6670   -0.9562 N   0  0  0  0  0  0  0  0  0  0  0  0
   -4.8441   -6.8213   -2.0719 C   0  0  0  0  0  0  0  0  0  0  0  0
   -4.4564   -8.1317   -2.4193 N   0  0  0  0  0  0  0  0  0  0  0  0
   -4.4316   -5.7827   -2.7062 N   0  0  0  0  0  0  0  0  0  0  0  0
   -4.8726   -4.4677   -2.3004 C   0  0  0  0  0  0  0  0  0  0  0  0
   -4.1219   -3.4253   -3.1292 C   0  0  0  0  0  0  0  0  0  0  0  0
   -4.5703   -2.0524   -2.7917 C   0  0  0  0  0  0  0  0  0  0  0  0
   -4.4617   -1.5760   -1.4128 C   0  0  2  0  0  0  0  0  0  0  0  0
   -5.0590   -0.2413   -1.2892 N   0  0  0  0  0  0  0  0  0  0  0  0
   -6.1213    0.0304   -0.4179 C   0  0  0  0  0  0  0  0  0  0  0  0
   -6.5372   -0.9184    0.2958 O   0  0  0  0  0  0  0  0  0  0  0  0
   -6.6990    1.3853   -0.3862 C   0  0  2  0  0  0  0  0  0  0  0  0
   -5.8190    2.5106   -0.6653 C   0  0  0  0  0  0  0  0  0  0  0  0
   -4.6196    2.8256    0.0978 C   0  0  0  0  0  0  0  0  0  0  0  0
   -4.6637    3.1625    1.4993 C   0  0  0  0  0  0  0  0  0  0  0  0
   -3.4045    3.5788    2.0940 N   0  0  0  0  0  0  0  0  0  0  0  0
   -5.6492    3.1324    2.2204 O   0  0  0  0  0  0  0  0  0  0  0  0
   -7.7667    1.4950    0.5571 N   0  0  0  0  0  0  0  0  0  0  0  0
   -9.1426    1.7368    0.1471 C   0  0  0  0  0  0  0  0  0  0  0  0
   -9.3377    1.8410   -1.0767 O   0  0  0  0  0  0  0  0  0  0  0  0
  -10.2207    1.8472    1.1125 C   0  0  1  0  0  0  0  0  0  0  0  0
   -9.7160    1.3537    2.4159 N   0  0  0  0  0  0  0  0  0  0  0  0
  -10.7051    3.2576    1.2696 C   0  0  0  0  0  0  0  0  0  0  0  0
  -11.2309    3.8161   -0.0112 C   0  0  0  0  0  0  0  0  0  0  0  0
  -11.7323    5.2069    0.1933 C   0  0  0  0  0  0  0  0  0  0  0  0
  -12.3349    5.9342   -0.8620 N   0  0  0  0  0  0  0  0  0  0  0  0
  -11.6119    5.7244    1.3113 O   0  0  0  0  0  0  0  0  0  0  0  0
   -3.2052   -1.5487   -0.7028 C   0  0  0  0  0  0  0  0  0  0  0  0
   -3.2789   -1.0529    0.5119 O   0  0  0  0  0  0  0  0  0  0  0  0
   -1.9145   -1.9441   -1.0517 N   0  0  0  0  0  0  0  0  0  0  0  0
   -0.7707   -1.9089   -0.2169 C   0  0  1  0  0  0  0  0  0  0  0  0
    0.3593   -2.7591   -0.6412 C   0  0  0  0  0  0  0  0  0  0  0  0
    0.8850   -2.4049   -1.9874 C   0  0  0  0  0  0  0  0  0  0  0  0
    2.0100   -3.1511   -2.4633 N   0  0  0  0  0  0  0  0  0  0  0  0
    0.4384   -1.5200   -2.7367 O   0  0  0  0  0  0  0  0  0  0  0  0
   -0.2520   -0.4891    0.0515 C   0  0  0  0  0  0  0  0  0  0  0  0
   -0.8353    0.4198   -0.5548 O   0  0  0  0  0  0  0  0  0  0  0  0
    0.7965   -0.3112    0.9271 N   0  0  0  0  0  0  0  0  0  0  0  0
    1.5275    0.8273    1.4088 C   0  0  1  0  0  0  0  0  0  0  0  0
    0.9543    1.4415    2.6542 C   0  0  0  0  0  0  0  0  0  0  0  0
    0.8331    0.6131    3.8314 C   0  0  0  0  0  0  0  0  0  0  0  0
    0.9211   -0.8278    3.8728 N   0  0  0  0  0  0  0  0  0  0  0  0
    0.6247    1.1333    4.9698 O   0  0  0  0  0  0  0  0  0  0  0  0
    2.9363    0.4873    1.4979 C   0  0  0  0  0  0  0  0  0  0  0  0
    3.4448   -0.2369    0.5976 O   0  0  0  0  0  0  0  0  0  0  0  0
    3.8692    0.8686    2.5174 N   0  0  0  0  0  0  0  0  0  0  0  0
    5.2076    0.4729    2.5495 C   0  0  1  0  0  0  0  0  0  0  0  0
    5.4457   -0.9197    3.0309 C   0  0  0  0  0  0  0  0  0  0  0  0
    4.9524   -0.9899    4.4674 C   0  0  0  0  0  0  0  0  0  0  0  0
    5.2150   -2.3472    4.9811 C   0  0  0  0  0  0  0  0  0  0  0  0
    4.7395   -2.7119    6.2811 N   0  0  0  0  0  0  0  0  0  0  0  0
    5.8563   -3.1603    4.2619 O   0  0  0  0  0  0  0  0  0  0  0  0
    6.0165    0.7992    1.3455 C   0  0  0  0  0  0  0  0  0  0  0  0
    6.0094    1.9900    0.9703 O   0  0  0  0  0  0  0  0  0  0  0  0
    6.7580   -0.1694    0.6590 N   0  0  0  0  0  0  0  0  0  0  0  0
    7.6271    0.0794   -0.4413 C   0  0  1  0  0  0  0  0  0  0  0  0
    8.1606   -1.1625   -1.0440 C   0  0  0  0  0  0  0  0  0  0  0  0
    8.9434   -2.0699   -0.1582 C   0  0  0  0  0  0  0  0  0  0  0  0
   10.1590   -1.4942    0.4315 C   0  0  0  0  0  0  0  0  0  0  0  0
   10.8561   -2.2993    1.3769 N   0  0  0  0  0  0  0  0  0  0  0  0
   10.6479   -0.3702    0.1890 O   0  0  0  0  0  0  0  0  0  0  0  0
    6.9888    0.8530   -1.5761 C   0  0  0  0  0  0  0  0  0  0  0  0
    5.8177    1.1237   -1.7195 O   0  0  0  0  0  0  0  0  0  0  0  0
    7.9519    1.2846   -2.5488 N   0  0  0  0  0  0  0  0  0  0  0  0
    7.6259    2.0387   -3.7179 C   0  0  0  0  0  3  0  0  0  0  0  0
    8.2604    3.4459   -3.6173 C   0  0  0  0  0  0  0  0  0  0  0  0
    9.7139    3.3663   -3.9910 C   0  0  0  0  0  0  0  0  0  0  0  0
   10.3715    4.7142   -3.9151 C   0  0  0  0  0  0  0  0  0  0  0  0
   11.7461    4.8192   -4.1541 N   0  0  0  0  0  0  0  0  0  0  0  0
    9.6962    5.7413   -3.6397 O   0  0  0  0  0  0  0  0  0  0  0  0
   -5.3808   -6.4559   -0.0273 H   0  0  0  0  0  0  0  0  0  0  0  0
   -6.7635   -6.7807   -1.1157 H   0  0  0  0  0  0  0  0  0  0  0  0
   -4.7120   -8.9491   -1.7948 H   0  0  0  0  0  0  0  0  0  0  0  0
   -3.9129   -8.2887   -3.2857 H   0  0  0  0  0  0  0  0  0  0  0  0
   -5.9566   -4.4085   -2.4169 H   0  0  0  0  0  0  0  0  0  0  0  0
   -4.5189   -4.3497   -1.2477 H   0  0  0  0  0  0  0  0  0  0  0  0
   -3.0798   -3.6605   -3.1619 H   0  0  0  0  0  0  0  0  0  0  0  0
   -4.5133   -3.6170   -4.1939 H   0  0  0  0  0  0  0  0  0  0  0  0
   -5.6230   -1.8964   -3.1994 H   0  0  0  0  0  0  0  0  0  0  0  0
   -3.9684   -1.3534   -3.4671 H   0  0  0  0  0  0  0  0  0  0  0  0
   -5.1463   -2.2542   -0.7656 H   0  0  0  0  0  0  0  0  0  0  0  0
   -4.6673    0.5233   -1.8703 H   0  0  0  0  0  0  0  0  0  0  0  0
   -7.3334    1.3267   -1.4175 H   0  0  0  0  0  0  0  0  0  0  0  0
   -6.4650    3.4441   -0.6709 H   0  0  0  0  0  0  0  0  0  0  0  0
   -5.5087    2.4480   -1.7553 H   0  0  0  0  0  0  0  0  0  0  0  0
   -4.1548    3.7461   -0.4172 H   0  0  0  0  0  0  0  0  0  0  0  0
   -3.7587    2.0706   -0.1147 H   0  0  0  0  0  0  0  0  0  0  0  0
   -3.3893    3.7135    3.1211 H   0  0  0  0  0  0  0  0  0  0  0  0
   -2.5590    3.7426    1.5299 H   0  0  0  0  0  0  0  0  0  0  0  0
   -7.6069    1.3862    1.5584 H   0  0  0  0  0  0  0  0  0  0  0  0
  -11.0635    1.1753    0.7738 H   0  0  0  0  0  0  0  0  0  0  0  0
   -9.9656    0.3426    2.4565 H   0  0  0  0  0  0  0  0  0  0  0  0
  -10.2860    1.8884    3.1179 H   0  0  0  0  0  0  0  0  0  0  0  0
  -11.5643    3.2561    2.0194 H   0  0  0  0  0  0  0  0  0  0  0  0
   -9.8808    3.9228    1.6260 H   0  0  0  0  0  0  0  0  0  0  0  0
  -11.9597    3.1752   -0.5237 H   0  0  0  0  0  0  0  0  0  0  0  0
  -10.3513    3.9298   -0.7221 H   0  0  0  0  0  0  0  0  0  0  0  0
  -13.0350    5.4595   -1.4661 H   0  0  0  0  0  0  0  0  0  0  0  0
  -12.1216    6.9335   -1.0753 H   0  0  0  0  0  0  0  0  0  0  0  0
   -1.7809   -2.2835   -2.0439 H   0  0  0  0  0  0  0  0  0  0  0  0
   -1.0774   -2.1952    0.8298 H   0  0  0  0  0  0  0  0  0  0  0  0
    1.1693   -2.7374    0.1127 H   0  0  0  0  0  0  0  0  0  0  0  0
    0.0252   -3.8249   -0.6894 H   0  0  0  0  0  0  0  0  0  0  0  0
    2.9306   -3.1068   -1.9998 H   0  0  0  0  0  0  0  0  0  0  0  0
    1.8624   -3.7437   -3.3058 H   0  0  0  0  0  0  0  0  0  0  0  0
    1.1751   -1.2494    1.3592 H   0  0  0  0  0  0  0  0  0  0  0  0
    1.4058    1.6462    0.6312 H   0  0  0  0  0  0  0  0  0  0  0  0
    1.5661    2.3486    2.9000 H   0  0  0  0  0  0  0  0  0  0  0  0
   -0.0656    1.8303    2.4064 H   0  0  0  0  0  0  0  0  0  0  0  0
    0.0804   -1.3302    4.1997 H   0  0  0  0  0  0  0  0  0  0  0  0
    1.8241   -1.2363    3.5743 H   0  0  0  0  0  0  0  0  0  0  0  0
    3.4673    1.4892    3.2735 H   0  0  0  0  0  0  0  0  0  0  0  0
    5.7399    1.1907    3.3437 H   0  0  0  0  0  0  0  0  0  0  0  0
    6.5044   -1.2489    2.9552 H   0  0  0  0  0  0  0  0  0  0  0  0
    4.8681   -1.6797    2.4678 H   0  0  0  0  0  0  0  0  0  0  0  0
    5.4570   -0.1792    5.0416 H   0  0  0  0  0  0  0  0  0  0  0  0
    3.8793   -0.7361    4.4690 H   0  0  0  0  0  0  0  0  0  0  0  0
    4.3045   -3.6463    6.4462 H   0  0  0  0  0  0  0  0  0  0  0  0
    4.8222   -2.0421    7.0801 H   0  0  0  0  0  0  0  0  0  0  0  0
    6.6517   -1.1789    0.9909 H   0  0  0  0  0  0  0  0  0  0  0  0
    8.4027    0.8159   -0.0836 H   0  0  0  0  0  0  0  0  0  0  0  0
    8.8416   -0.8793   -1.9085 H   0  0  0  0  0  0  0  0  0  0  0  0
    7.3017   -1.7626   -1.4466 H   0  0  0  0  0  0  0  0  0  0  0  0
    8.2379   -2.4380    0.6466 H   0  0  0  0  0  0  0  0  0  0  0  0
    9.2079   -2.9708   -0.7492 H   0  0  0  0  0  0  0  0  0  0  0  0
   11.5674   -1.9277    2.0502 H   0  0  0  0  0  0  0  0  0  0  0  0
   10.6813   -3.3423    1.4434 H   0  0  0  0  0  0  0  0  0  0  0  0
    8.9732    1.0437   -2.3865 H   0  0  0  0  0  0  0  0  0  0  0  0
    6.5162    2.2752   -3.6926 H   0  0  0  0  0  0  0  0  0  0  0  0
    8.1009    3.8839   -2.6156 H   0  0  0  0  0  0  0  0  0  0  0  0
    7.7200    4.0765   -4.3377 H   0  0  0  0  0  0  0  0  0  0  0  0
    9.8786    2.8854   -4.9901 H   0  0  0  0  0  0  0  0  0  0  0  0
   10.1759    2.6796   -3.2172 H   0  0  0  0  0  0  0  0  0  0  0  0
   12.2186    5.7025   -4.4752 H   0  0  0  0  0  0  0  0  0  0  0  0
   12.3790    3.9762   -4.0115 H   0  0  0  0  0  0  0  0  0  0  0  0
  1  2  1  0
  2  3  1  0
  2  4  2  3
  4  5  1  0
  5  6  1  0
  6  7  1  0
  7  8  1  0
  8  9  1  0
  9 10  1  0
 10 11  2  0
 10 12  1  0
 12 13  1  0
 13 14  1  0
 14 15  1  0
 15 16  1  0
 15 17  2  0
 12 18  1  0
 18 19  1  0
 19 20  2  0
 19 21  1  0
 21 22  1  0
 21 23  1  0
 23 24  1  0
 24 25  1  0
 25 26  1  0
 25 27  2  0
  8 28  1  0
 28 29  2  0
 28 30  1  0
 30 31  1  0
 31 32  1  0
 32 33  1  0
 33 34  1  0
 33 35  2  0
 31 36  1  0
 36 37  2  0
 36 38  1  0
 38 39  1  0
 39 40  1  0
 40 41  1  0
 41 42  1  0
 41 43  2  0
 39 44  1  0
 44 45  2  0
 44 46  1  0
 46 47  1  0
 47 48  1  0
 48 49  1  0
 49 50  1  0
 50 51  1  0
 50 52  2  0
 47 53  1  0
 53 54  2  0
 53 55  1  0
 55 56  1  0
 56 57  1  0
 57 58  1  0
 58 59  1  0
 59 60  1  0
 59 61  2  0
 56 62  1  0
 62 63  2  0
 62 64  1  0
 64 65  1  0
 65 66  1  0
 66 67  1  0
 67 68  1  0
 68 69  1  0
 68 70  2  0
  1 71  1  0
  1 72  1  0
  3 73  1  0
  3 74  1  0
  5 75  1  0
  5 76  1  0
  6 77  1  0
  6 78  1  0
  7 79  1  0
  7 80  1  0
  8 81  1  1
  9 82  1  0
 12 83  1  6
 13 84  1  0
 13 85  1  0
 14 86  1  0
 14 87  1  0
 16 88  1  0
 16 89  1  0
 18 90  1  0
 21 91  1  6
 22 92  1  0
 22 93  1  0
 23 94  1  0
 23 95  1  0
 24 96  1  0
 24 97  1  0
 26 98  1  0
 26 99  1  0
 30100  1  0
 31101  1  1
 32102  1  0
 32103  1  0
 34104  1  0
 34105  1  0
 38106  1  0
 39107  1  6
 40108  1  0
 40109  1  0
 42110  1  0
 42111  1  0
 46112  1  0
 47113  1  1
 48114  1  0
 48115  1  0
 49116  1  0
 49117  1  0
 51118  1  0
 51119  1  0
 55120  1  0
 56121  1  1
 57122  1  0
 57123  1  0
 58124  1  0
 58125  1  0
 60126  1  0
 60127  1  0
 64128  1  0
 65129  1  0
 66130  1  0
 66131  1  0
 67132  1  0
 67133  1  0
 69134  1  0
 69135  1  0
M  RAD  1  65   2
M  END
$$$$
[H]c1c(N([H])c2c([H])c(C([H])([H])[H])nn2[H])nc(Sc2c([H])c([H])c(N([H])C(=O)C3([H])C([H])([H])C3([H])[H])c([H])c2[H])nc1N1C([H])([H])C([H])([H])N(C([H])([H])[H])C([H])([H])C1([H])[H]
     RDKit          3D

 61 65  0  0  0  0  0  0  0  0999 V2000
   -4.2646   -5.6180   -0.8930 C   0  0  0  0  0  0  0  0  0  0  0  0
   -4.0388   -4.9096    0.3469 N   0  0  0  0  0  0  0  0  0  0  0  0
   -4.9696   -3.8770    0.6179 C   0  0  0  0  0  0  0  0  0  0  0  0
   -4.4568   -2.4780    0.3905 C   0  0  0  0  0  0  0  0  0  0  0  0
   -3.1604   -2.2721    0.9830 N   0  0  0  0  0  0  0  0  0  0  0  0
   -2.4057   -3.4027    1.4241 C   0  0  0  0  0  0  0  0  0  0  0  0
   -2.6716   -4.6457    0.6165 C   0  0  0  0  0  0  0  0  0  0  0  0
   -2.6280   -0.9703    1.1317 C   0  0  0  0  0  0  0  0  0  0  0  0
   -3.3065    0.1623    0.7177 C   0  0  0  0  0  0  0  0  0  0  0  0
   -2.7272    1.4220    0.8916 C   0  0  0  0  0  0  0  0  0  0  0  0
   -3.4153    2.5840    0.4694 N   0  0  0  0  0  0  0  0  0  0  0  0
   -2.9879    3.9099    0.5662 C   0  0  0  0  0  0  0  0  0  0  0  0
   -1.8261    4.4015    1.0807 C   0  0  0  0  0  0  0  0  0  0  0  0
   -1.8242    5.7979    0.9682 C   0  0  0  0  0  0  0  0  0  0  0  0
   -0.7519    6.7000    1.4065 C   0  0  0  0  0  0  0  0  0  0  0  0
   -2.9975    6.0783    0.3855 N   0  0  0  0  0  0  0  0  0  0  0  0
   -3.6831    4.9846    0.1471 N   0  0  0  0  0  0  0  0  0  0  0  0
   -1.5435    1.4581    1.4516 N   0  0  0  0  0  0  0  0  0  0  0  0
   -0.8398    0.3793    1.8733 C   0  0  0  0  0  0  0  0  0  0  0  0
    0.7577    0.5455    2.6192 S   0  0  0  0  0  0  0  0  0  0  0  0
    2.0730    0.4998    1.4305 C   0  0  0  0  0  0  0  0  0  0  0  0
    2.5763    1.6046    0.7996 C   0  0  0  0  0  0  0  0  0  0  0  0
    3.6213    1.4805   -0.1305 C   0  0  0  0  0  0  0  0  0  0  0  0
    4.1788    0.2819   -0.4490 C   0  0  0  0  0  0  0  0  0  0  0  0
    5.2261    0.1244   -1.3846 N   0  0  0  0  0  0  0  0  0  0  0  0
    5.8169    1.1027   -2.1894 C   0  0  0  0  0  0  0  0  0  0  0  0
    5.5218    2.3221   -2.2325 O   0  0  0  0  0  0  0  0  0  0  0  0
    6.9272    0.6974   -3.1173 C   0  0  0  0  0  0  0  0  0  0  0  0
    6.9786   -0.6854   -3.6287 C   0  0  0  0  0  0  0  0  0  0  0  0
    7.8874   -0.2702   -2.5303 C   0  0  0  0  0  0  0  0  0  0  0  0
    3.6565   -0.8432    0.2023 C   0  0  0  0  0  0  0  0  0  0  0  0
    2.6430   -0.7071    1.1021 C   0  0  0  0  0  0  0  0  0  0  0  0
   -1.4192   -0.8072    1.6934 N   0  0  0  0  0  0  0  0  0  0  0  0
   -5.2860   -5.5458   -1.2607 H   0  0  0  0  0  0  0  0  0  0  0  0
   -4.0438   -6.6889   -0.6970 H   0  0  0  0  0  0  0  0  0  0  0  0
   -3.5203   -5.2881   -1.6729 H   0  0  0  0  0  0  0  0  0  0  0  0
   -5.8463   -4.0096   -0.0641 H   0  0  0  0  0  0  0  0  0  0  0  0
   -5.3882   -3.9471    1.6460 H   0  0  0  0  0  0  0  0  0  0  0  0
   -5.1974   -1.7757    0.8383 H   0  0  0  0  0  0  0  0  0  0  0  0
   -4.4054   -2.2132   -0.6885 H   0  0  0  0  0  0  0  0  0  0  0  0
   -1.3288   -3.1638    1.3038 H   0  0  0  0  0  0  0  0  0  0  0  0
   -2.5603   -3.6014    2.5090 H   0  0  0  0  0  0  0  0  0  0  0  0
   -2.1263   -4.6198   -0.3623 H   0  0  0  0  0  0  0  0  0  0  0  0
   -2.2259   -5.5035    1.1720 H   0  0  0  0  0  0  0  0  0  0  0  0
   -4.2768    0.0432    0.2657 H   0  0  0  0  0  0  0  0  0  0  0  0
   -4.3882    2.4468    0.0162 H   0  0  0  0  0  0  0  0  0  0  0  0
   -0.9930    3.8851    1.5204 H   0  0  0  0  0  0  0  0  0  0  0  0
    0.0279    6.8369    0.6278 H   0  0  0  0  0  0  0  0  0  0  0  0
   -0.3297    6.3446    2.3712 H   0  0  0  0  0  0  0  0  0  0  0  0
   -1.1768    7.7166    1.6036 H   0  0  0  0  0  0  0  0  0  0  0  0
   -4.6364    5.0189   -0.3108 H   0  0  0  0  0  0  0  0  0  0  0  0
    2.1491    2.5815    1.0345 H   0  0  0  0  0  0  0  0  0  0  0  0
    3.9423    2.4136   -0.5646 H   0  0  0  0  0  0  0  0  0  0  0  0
    5.6195   -0.8577   -1.4942 H   0  0  0  0  0  0  0  0  0  0  0  0
    7.3829    1.4795   -3.7486 H   0  0  0  0  0  0  0  0  0  0  0  0
    6.1732   -1.4279   -3.3745 H   0  0  0  0  0  0  0  0  0  0  0  0
    7.4107   -0.8935   -4.6283 H   0  0  0  0  0  0  0  0  0  0  0  0
    7.7380   -0.6937   -1.5244 H   0  0  0  0  0  0  0  0  0  0  0  0
    8.9683   -0.1884   -2.8070 H   0  0  0  0  0  0  0  0  0  0  0  0
    4.0993   -1.7971   -0.0507 H   0  0  0  0  0  0  0  0  0  0  0  0
    2.2717   -1.6019    1.5799 H   0  0  0  0  0  0  0  0  0  0  0  0
  1  2  1  0
  2  3  1  0
  3  4  1  0
  4  5  1  0
  5  6  1  0
  6  7  1  0
  5  8  1  0
  8  9  2  0
  9 10  1  0
 10 11  1  0
 11 12  1  0
 12 13  2  0
 13 14  1  0
 14 15  1  0
 14 16  2  0
 16 17  1  0
 10 18  2  0
 18 19  1  0
 19 20  1  0
 20 21  1  0
 21 22  2  0
 22 23  1  0
 23 24  2  0
 24 25  1  0
 25 26  1  0
 26 27  2  0
 26 28  1  0
 28 29  1  0
 29 30  1  0
 24 31  1  0
 31 32  2  0
 19 33  2  0
  7  2  1  0
 33  8  1  0
 17 12  1  0
 32 21  1  0
 30 28  1  0
  1 34  1  0
  1 35  1  0
  1 36  1  0
  3 37  1  0
  3 38  1  0
  4 39  1  0
  4 40  1  0
  6 41  1  0
  6 42  1  0
  7 43  1  0
  7 44  1  0
  9 45  1  0
 11 46  1  0
 13 47  1  0
 15 48  1  0
 15 49  1  0
 15 50  1  0
 17 51  1  0
 22 52  1  0
 23 53  1  0
 25 54  1  0
 28 55  1  0
 29 56  1  0
 29 57  1  0
 30 58  1  0
 30 59  1  0
 31 60  1  0
 32 61  1  0
M  END
$$$$
[H]Oc1c([H])c([H])c(-c2c([H])c([H])c3c([H])c(O[H])c([H])c([H])c3c2Oc2c([H])c([H])c(OC([H])([H])C([H])([H])N3C([H])([H])C([H])([H])C([H])([H])C([H])([H])C3([H])[H])c([H])c2[H])c([H])c1[H]
     RDKit          3D

 63 67  0  0  0  0  0  0  0  0999 V2000
    5.0665   -5.5759    1.3362 O   0  0  0  0  0  0  0  0  0  0  0  0
    4.7592   -4.2225    1.2173 C   0  0  0  0  0  0  0  0  0  0  0  0
    3.4737   -3.7703    1.1163 C   0  0  0  0  0  0  0  0  0  0  0  0
    3.2064   -2.4077    0.9987 C   0  0  0  0  0  0  0  0  0  0  0  0
    4.2046   -1.5036    0.9806 C   0  0  0  0  0  0  0  0  0  0  0  0
    5.5149   -1.9952    1.0865 C   0  0  0  0  0  0  0  0  0  0  0  0
    5.8200   -3.3235    1.2039 C   0  0  0  0  0  0  0  0  0  0  0  0
    4.1025   -0.0577    0.8362 C   0  0  0  0  0  0  0  0  0  0  0  0
    4.5817    0.7232    1.9052 C   0  0  0  0  0  0  0  0  0  0  0  0
    4.5418    2.0958    1.8495 C   0  0  0  0  0  0  0  0  0  0  0  0
    4.0259    2.7202    0.7311 C   0  0  0  0  0  0  0  0  0  0  0  0
    3.9815    4.1130    0.6435 C   0  0  0  0  0  0  0  0  0  0  0  0
    3.4805    4.7403   -0.4635 C   0  0  0  0  0  0  0  0  0  0  0  0
    3.4505    6.1386   -0.5189 O   0  0  0  0  0  0  0  0  0  0  0  0
    3.0012    4.0157   -1.5336 C   0  0  0  0  0  0  0  0  0  0  0  0
    3.0421    2.6450   -1.4529 C   0  0  0  0  0  0  0  0  0  0  0  0
    3.5442    2.0006   -0.3422 C   0  0  0  0  0  0  0  0  0  0  0  0
    3.5998    0.6031   -0.2496 C   0  0  0  0  0  0  0  0  0  0  0  0
    3.1153   -0.0954   -1.3207 O   0  0  0  0  0  0  0  0  0  0  0  0
    1.7552   -0.2996   -1.4798 C   0  0  0  0  0  0  0  0  0  0  0  0
    1.2527   -1.0338   -2.5371 C   0  0  0  0  0  0  0  0  0  0  0  0
   -0.0867   -1.2222   -2.6765 C   0  0  0  0  0  0  0  0  0  0  0  0
   -1.0423   -0.7029   -1.7852 C   0  0  0  0  0  0  0  0  0  0  0  0
   -2.3654   -0.9510   -2.0212 O   0  0  0  0  0  0  0  0  0  0  0  0
   -3.4875   -0.5894   -1.3175 C   0  0  0  0  0  0  0  0  0  0  0  0
   -3.6362   -1.1260    0.0633 C   0  0  0  0  0  0  0  0  0  0  0  0
   -4.8588   -0.6687    0.7062 N   0  0  0  0  0  0  0  0  0  0  0  0
   -6.0315   -1.2457    0.0666 C   0  0  0  0  0  0  0  0  0  0  0  0
   -7.2089   -0.9924    0.9570 C   0  0  0  0  0  0  0  0  0  0  0  0
   -7.4132    0.4734    1.2499 C   0  0  0  0  0  0  0  0  0  0  0  0
   -6.1220    1.2002    1.5010 C   0  0  0  0  0  0  0  0  0  0  0  0
   -5.0051    0.7719    0.6010 C   0  0  0  0  0  0  0  0  0  0  0  0
   -0.5235    0.0251   -0.7397 C   0  0  0  0  0  0  0  0  0  0  0  0
    0.8431    0.2145   -0.6013 C   0  0  0  0  0  0  0  0  0  0  0  0
    5.2082   -6.0583    0.4380 H   0  0  0  0  0  0  0  0  0  0  0  0
    2.6367   -4.4553    1.1252 H   0  0  0  0  0  0  0  0  0  0  0  0
    2.1928   -2.0916    0.9435 H   0  0  0  0  0  0  0  0  0  0  0  0
    6.3563   -1.3081    1.0775 H   0  0  0  0  0  0  0  0  0  0  0  0
    6.8246   -3.7063    1.2853 H   0  0  0  0  0  0  0  0  0  0  0  0
    4.9827    0.2141    2.7712 H   0  0  0  0  0  0  0  0  0  0  0  0
    4.9012    2.7309    2.6537 H   0  0  0  0  0  0  0  0  0  0  0  0
    4.3592    4.6787    1.4853 H   0  0  0  0  0  0  0  0  0  0  0  0
    2.6487    6.6218   -0.1818 H   0  0  0  0  0  0  0  0  0  0  0  0
    2.6174    4.5644   -2.3792 H   0  0  0  0  0  0  0  0  0  0  0  0
    2.6839    2.0651   -2.2748 H   0  0  0  0  0  0  0  0  0  0  0  0
    1.9346   -1.4519   -3.2456 H   0  0  0  0  0  0  0  0  0  0  0  0
   -0.4608   -1.7926   -3.5003 H   0  0  0  0  0  0  0  0  0  0  0  0
   -4.4341   -0.7285   -1.9083 H   0  0  0  0  0  0  0  0  0  0  0  0
   -3.4474    0.5439   -1.2002 H   0  0  0  0  0  0  0  0  0  0  0  0
   -3.7658   -2.2411   -0.0252 H   0  0  0  0  0  0  0  0  0  0  0  0
   -2.7974   -0.9568    0.7121 H   0  0  0  0  0  0  0  0  0  0  0  0
   -6.2169   -0.7308   -0.9109 H   0  0  0  0  0  0  0  0  0  0  0  0
   -5.9453   -2.3206   -0.1065 H   0  0  0  0  0  0  0  0  0  0  0  0
   -7.1580   -1.6052    1.8832 H   0  0  0  0  0  0  0  0  0  0  0  0
   -8.1226   -1.3443    0.4099 H   0  0  0  0  0  0  0  0  0  0  0  0
   -8.0295    0.5481    2.1717 H   0  0  0  0  0  0  0  0  0  0  0  0
   -8.0099    0.9771    0.4519 H   0  0  0  0  0  0  0  0  0  0  0  0
   -5.8341    1.2051    2.5854 H   0  0  0  0  0  0  0  0  0  0  0  0
   -6.3260    2.2843    1.2564 H   0  0  0  0  0  0  0  0  0  0  0  0
   -4.0884    1.3033    0.9374 H   0  0  0  0  0  0  0  0  0  0  0  0
   -5.2988    1.0827   -0.4430 H   0  0  0  0  0  0  0  0  0  0  0  0
   -1.1696    0.4694   -0.0236 H   0  0  0  0  0  0  0  0  0  0  0  0
    1.1763    0.8053    0.2623 H   0  0  0  0  0  0  0  0  0  0  0  0
  1  2  1  0
  2  3  2  0
  3  4  1  0
  4  5  2  0
  5  6  1  0
  6  7  2  0
  5  8  1  0
  8  9  2  0
  9 10  1  0
 10 11  2  0
 11 12  1  0
 12 13  2  0
 13 14  1  0
 13 15  1  0
 15 16  2  0
 16 17  1  0
 17 18  2  0
 18 19  1  0
 19 20  1  0
 20 21  2  0
 21 22  1  0
 22 23  2  0
 23 24  1  0
 24 25  1  0
 25 26  1  0
 26 27  1  0
 27 28  1  0
 28 29  1  0
 29 30  1  0
 30 31  1  0
 31 32  1  0
 23 33  1  0
 33 34  2  0
  7  2  1  0
 18  8  1  0
 34 20  1  0
 17 11  1  0
 32 27  1  0
  1 35  1  0
  3 36  1  0
  4 37  1  0
  6 38  1  0
  7 39  1  0
  9 40  1  0
 10 41  1  0
 12 42  1  0
 14 43  1  0
 15 44  1  0
 16 45  1  0
 21 46  1  0
 22 47  1  0
 25 48  1  0
 25 49  1  0
 26 50  1  0
 26 51  1  0
 28 52  1  0
 28 53  1  0
 29 54  1  0
 29 55  1  0
 30 56  1  0
 30 57  1  0
 31 58  1  0
 31 59  1  0
 32 60  1  0
 32 61  1  0
 33 62  1  0
 34 63  1  0
M  END
$$$$
[H]c1c([H])c([H])c(N2C([H])([H])C([H])([H])N(C([H])([H])C([H])([H])n3c(=O)c4c(c5c([H])c(F)c([H])c([H])c5n4[H])n([H])c3=O)C([H])([H])C2([H])[H])c(OC([H])([H])[H])c1[H]
     RDKit          3D

 56 60  0  0  0  0  0  0  0  0999 V2000
   -6.3118    1.4796   -2.5697 C   0  0  0  0  0  0  0  0  0  0  0  0
   -6.0830    0.5526   -1.7138 O   0  0  0  0  0  0  0  0  0  0  0  0
   -5.9204   -0.4160   -0.8649 C   0  0  0  0  0  0  0  0  0  0  0  0
   -6.9334   -1.3953   -0.7121 C   0  0  0  0  0  0  0  0  0  0  0  0
   -6.8030   -2.4206    0.1595 C   0  0  0  0  0  0  0  0  0  0  0  0
   -5.6572   -2.5066    0.9098 C   0  0  0  0  0  0  0  0  0  0  0  0
   -4.6531   -1.5780    0.7909 C   0  0  0  0  0  0  0  0  0  0  0  0
   -4.7566   -0.5209   -0.0885 C   0  0  0  0  0  0  0  0  0  0  0  0
   -3.7530    0.4524   -0.2301 N   0  0  0  0  0  0  0  0  0  0  0  0
   -3.1090    0.7854   -1.4718 C   0  0  0  0  0  0  0  0  0  0  0  0
   -1.6042    0.7160   -1.2877 C   0  0  0  0  0  0  0  0  0  0  0  0
   -1.3500    0.1151    0.0038 N   0  0  0  0  0  0  0  0  0  0  0  0
    0.0383   -0.2862    0.1445 C   0  0  0  0  0  0  0  0  0  0  0  0
    0.9459    0.9153    0.2239 C   0  0  0  0  0  0  0  0  0  0  0  0
    2.3269    0.5877    0.3402 N   0  0  0  0  0  0  0  0  0  0  0  0
    2.8559    0.4013    1.5584 C   0  0  0  0  0  0  0  0  0  0  0  0
    2.1080    0.5165    2.5907 O   0  0  0  0  0  0  0  0  0  0  0  0
    4.1437    0.0943    1.7977 N   0  0  0  0  0  0  0  0  0  0  0  0
    4.9989   -0.0456    0.7745 C   0  0  0  0  0  0  0  0  0  0  0  0
    6.3352   -0.3420    0.6449 C   0  0  0  0  0  0  0  0  0  0  0  0
    7.2782   -0.6129    1.6164 C   0  0  0  0  0  0  0  0  0  0  0  0
    8.5664   -0.8835    1.2093 C   0  0  0  0  0  0  0  0  0  0  0  0
    9.5072   -1.1538    2.1413 F   0  0  0  0  0  0  0  0  0  0  0  0
    8.8979   -0.8811   -0.1492 C   0  0  0  0  0  0  0  0  0  0  0  0
    7.9631   -0.6122   -1.1253 C   0  0  0  0  0  0  0  0  0  0  0  0
    6.6775   -0.3435   -0.7017 C   0  0  0  0  0  0  0  0  0  0  0  0
    5.5340   -0.0476   -1.3701 N   0  0  0  0  0  0  0  0  0  0  0  0
    4.5152    0.1352   -0.5165 C   0  0  0  0  0  0  0  0  0  0  0  0
    3.1750    0.4508   -0.7055 C   0  0  0  0  0  0  0  0  0  0  0  0
    2.7352    0.6120   -1.8460 O   0  0  0  0  0  0  0  0  0  0  0  0
   -1.7841    0.9669    1.0920 C   0  0  0  0  0  0  0  0  0  0  0  0
   -3.2968    1.1717    0.9510 C   0  0  0  0  0  0  0  0  0  0  0  0
   -7.3006    2.0489   -2.4275 H   0  0  0  0  0  0  0  0  0  0  0  0
   -6.4113    1.1236   -3.6542 H   0  0  0  0  0  0  0  0  0  0  0  0
   -5.5721    2.3295   -2.6802 H   0  0  0  0  0  0  0  0  0  0  0  0
   -7.8276   -1.3028   -1.3183 H   0  0  0  0  0  0  0  0  0  0  0  0
   -7.5706   -3.1912    0.3012 H   0  0  0  0  0  0  0  0  0  0  0  0
   -5.5720   -3.3387    1.6025 H   0  0  0  0  0  0  0  0  0  0  0  0
   -3.7352   -1.6267    1.3780 H   0  0  0  0  0  0  0  0  0  0  0  0
   -3.4545    0.0762   -2.2561 H   0  0  0  0  0  0  0  0  0  0  0  0
   -3.3481    1.8549   -1.7563 H   0  0  0  0  0  0  0  0  0  0  0  0
   -1.1708    1.7097   -1.3620 H   0  0  0  0  0  0  0  0  0  0  0  0
   -1.1853    0.0111   -2.0415 H   0  0  0  0  0  0  0  0  0  0  0  0
    0.0982   -0.7813    1.1583 H   0  0  0  0  0  0  0  0  0  0  0  0
    0.2637   -0.9690   -0.6728 H   0  0  0  0  0  0  0  0  0  0  0  0
    0.7926    1.5078   -0.7001 H   0  0  0  0  0  0  0  0  0  0  0  0
    0.6576    1.4993    1.1287 H   0  0  0  0  0  0  0  0  0  0  0  0
    4.5233   -0.0442    2.7550 H   0  0  0  0  0  0  0  0  0  0  0  0
    6.9722   -0.6034    2.6493 H   0  0  0  0  0  0  0  0  0  0  0  0
    9.9298   -1.1001   -0.4007 H   0  0  0  0  0  0  0  0  0  0  0  0
    8.1911   -0.6028   -2.1815 H   0  0  0  0  0  0  0  0  0  0  0  0
    5.4329    0.0338   -2.4135 H   0  0  0  0  0  0  0  0  0  0  0  0
   -1.3226    1.9555    1.1007 H   0  0  0  0  0  0  0  0  0  0  0  0
   -1.6206    0.4511    2.0569 H   0  0  0  0  0  0  0  0  0  0  0  0
   -3.5311    2.2392    0.8366 H   0  0  0  0  0  0  0  0  0  0  0  0
   -3.8259    0.8125    1.8487 H   0  0  0  0  0  0  0  0  0  0  0  0
  1  2  1  0
  2  3  1  0
  3  4  2  0
  4  5  1  0
  5  6  2  0
  6  7  1  0
  7  8  2  0
  8  9  1  0
  9 10  1  0
 10 11  1  0
 11 12  1  0
 12 13  1  0
 13 14  1  0
 14 15  1  0
 15 16  1  0
 16 17  2  0
 16 18  1  0
 18 19  1  0
 19 20  1  0
 20 21  2  0
 21 22  1  0
 22 23  1  0
 22 24  2  0
 24 25  1  0
 25 26  2  0
 26 27  1  0
 27 28  1  0
 28 29  1  0
 29 30  2  0
 12 31  1  0
 31 32  1  0
  8  3  1  0
 32  9  1  0
 29 15  1  0
 28 19  2  0
 26 20  1  0
  1 33  1  0
  1 34  1  0
  1 35  1  0
  4 36  1  0
  5 37  1  0
  6 38  1  0
  7 39  1  0
 10 40  1  0
 10 41  1  0
 11 42  1  0
 11 43  1  0
 13 44  1  0
 13 45  1  0
 14 46  1  0
 14 47  1  0
 18 48  1  0
 21 49  1  0
 24 50  1  0
 25 51  1  0
 27 52  1  0
 31 53  1  0
 31 54  1  0
 32 55  1  0
 32 56  1  0
M  END
$$$$
[H]c1nn2c(N([H])C3([H])C([H])([H])C3([H])[H])c([H])c(N([H])c3c([H])c([H])c(N4C([H])([H])C([H])([H])N(C([H])([H])[H])C([H])([H])C4([H])[H])c(N([H])C(=O)C([H])([H])[H])c3[H])nc2c1C#N
     RDKit          3D

 60 64  0  0  0  0  0  0  0  0999 V2000
   -7.9824    0.1067    0.4726 C   0  0  0  0  0  0  0  0  0  0  0  0
   -6.7348   -0.1676    1.1366 N   0  0  0  0  0  0  0  0  0  0  0  0
   -5.8203    0.9377    0.9519 C   0  0  0  0  0  0  0  0  0  0  0  0
   -4.4072    0.5435    1.3944 C   0  0  0  0  0  0  0  0  0  0  0  0
   -3.9754   -0.5076    0.4981 N   0  0  0  0  0  0  0  0  0  0  0  0
   -4.9940   -1.2411   -0.2199 C   0  0  0  0  0  0  0  0  0  0  0  0
   -6.1595   -1.4284    0.7241 C   0  0  0  0  0  0  0  0  0  0  0  0
   -2.5921   -0.7670    0.3670 C   0  0  0  0  0  0  0  0  0  0  0  0
   -2.0965   -1.9086    0.9514 C   0  0  0  0  0  0  0  0  0  0  0  0
   -0.7668   -2.2428    0.9187 C   0  0  0  0  0  0  0  0  0  0  0  0
    0.1510   -1.3962    0.2645 C   0  0  0  0  0  0  0  0  0  0  0  0
    1.5051   -1.8039    0.2348 N   0  0  0  0  0  0  0  0  0  0  0  0
    2.6254   -0.9587    0.0750 C   0  0  0  0  0  0  0  0  0  0  0  0
    3.8930   -1.5652    0.0081 C   0  0  0  0  0  0  0  0  0  0  0  0
    5.0390   -0.7904   -0.1201 C   0  0  0  0  0  0  0  0  0  0  0  0
    6.3039   -1.4454   -0.1759 N   0  0  0  0  0  0  0  0  0  0  0  0
    7.5726   -0.7874   -0.3336 C   0  0  0  0  0  0  0  0  0  0  0  0
    8.8265   -1.6142   -0.2805 C   0  0  0  0  0  0  0  0  0  0  0  0
    8.5357   -0.5924    0.7618 C   0  0  0  0  0  0  0  0  0  0  0  0
    4.8790    0.5391   -0.1753 N   0  0  0  0  0  0  0  0  0  0  0  0
    5.7587    1.5024   -0.2870 N   0  0  0  0  0  0  0  0  0  0  0  0
    5.1817    2.7144   -0.3005 C   0  0  0  0  0  0  0  0  0  0  0  0
    3.8106    2.5202   -0.1879 C   0  0  0  0  0  0  0  0  0  0  0  0
    2.8053    3.5428   -0.1560 C   0  0  0  0  0  0  0  0  0  0  0  0
    2.0078    4.3807   -0.1185 N   0  0  0  0  0  0  0  0  0  0  0  0
    3.6639    1.1401   -0.1121 C   0  0  0  0  0  0  0  0  0  0  0  0
    2.5885    0.3830    0.0093 N   0  0  0  0  0  0  0  0  0  0  0  0
   -0.3614   -0.2654   -0.3122 C   0  0  0  0  0  0  0  0  0  0  0  0
   -1.7033    0.0835   -0.2867 C   0  0  0  0  0  0  0  0  0  0  0  0
   -2.2462    1.2216   -0.9106 N   0  0  0  0  0  0  0  0  0  0  0  0
   -1.6107    2.2671   -1.5801 C   0  0  0  0  0  0  0  0  0  0  0  0
   -2.4445    3.3756   -2.1622 C   0  0  0  0  0  0  0  0  0  0  0  0
   -0.3915    2.3478   -1.7307 O   0  0  0  0  0  0  0  0  0  0  0  0
   -8.8558   -0.2595    1.0131 H   0  0  0  0  0  0  0  0  0  0  0  0
   -7.9337   -0.2285   -0.5907 H   0  0  0  0  0  0  0  0  0  0  0  0
   -8.0819    1.2297    0.4212 H   0  0  0  0  0  0  0  0  0  0  0  0
   -6.1457    1.8275    1.4896 H   0  0  0  0  0  0  0  0  0  0  0  0
   -5.7549    1.1940   -0.1255 H   0  0  0  0  0  0  0  0  0  0  0  0
   -4.4723    0.0957    2.4283 H   0  0  0  0  0  0  0  0  0  0  0  0
   -3.7561    1.4198    1.4258 H   0  0  0  0  0  0  0  0  0  0  0  0
   -4.5724   -2.2410   -0.4465 H   0  0  0  0  0  0  0  0  0  0  0  0
   -5.3029   -0.7097   -1.1310 H   0  0  0  0  0  0  0  0  0  0  0  0
   -6.9540   -1.9812    0.1780 H   0  0  0  0  0  0  0  0  0  0  0  0
   -5.8504   -2.0150    1.5912 H   0  0  0  0  0  0  0  0  0  0  0  0
   -2.8101   -2.5734    1.4639 H   0  0  0  0  0  0  0  0  0  0  0  0
   -0.3885   -3.1444    1.3823 H   0  0  0  0  0  0  0  0  0  0  0  0
    1.7136   -2.8581    0.3430 H   0  0  0  0  0  0  0  0  0  0  0  0
    3.9919   -2.6444    0.0552 H   0  0  0  0  0  0  0  0  0  0  0  0
    6.3344   -2.4924   -0.0975 H   0  0  0  0  0  0  0  0  0  0  0  0
    7.5972    0.0061   -1.1436 H   0  0  0  0  0  0  0  0  0  0  0  0
    9.6309   -1.4425   -1.0100 H   0  0  0  0  0  0  0  0  0  0  0  0
    8.6476   -2.6856   -0.0518 H   0  0  0  0  0  0  0  0  0  0  0  0
    8.2183   -0.9128    1.7759 H   0  0  0  0  0  0  0  0  0  0  0  0
    9.1984    0.2888    0.7750 H   0  0  0  0  0  0  0  0  0  0  0  0
    5.6780    3.6658   -0.3828 H   0  0  0  0  0  0  0  0  0  0  0  0
    0.3025    0.3894   -0.8303 H   0  0  0  0  0  0  0  0  0  0  0  0
   -3.3196    1.3020   -0.8874 H   0  0  0  0  0  0  0  0  0  0  0  0
   -1.9031    3.9095   -2.9502 H   0  0  0  0  0  0  0  0  0  0  0  0
   -2.7215    4.1063   -1.3895 H   0  0  0  0  0  0  0  0  0  0  0  0
   -3.3513    2.9302   -2.6238 H   0  0  0  0  0  0  0  0  0  0  0  0
  1  2  1  0
  2  3  1  0
  3  4  1  0
  4  5  1  0
  5  6  1  0
  6  7  1  0
  5  8  1  0
  8  9  2  0
  9 10  1  0
 10 11  2  0
 11 12  1  0
 12 13  1  0
 13 14  1  0
 14 15  2  0
 15 16  1  0
 16 17  1  0
 17 18  1  0
 18 19  1  0
 15 20  1  0
 20 21  1  0
 21 22  2  0
 22 23  1  0
 23 24  1  0
 24 25  3  0
 23 26  2  0
 26 27  1  0
 11 28  1  0
 28 29  2  0
 29 30  1  0
 30 31  1  0
 31 32  1  0
 31 33  2  0
  7  2  1  0
 29  8  1  0
 27 13  2  0
 19 17  1  0
 26 20  1  0
  1 34  1  0
  1 35  1  0
  1 36  1  0
  3 37  1  0
  3 38  1  0
  4 39  1  0
  4 40  1  0
  6 41  1  0
  6 42  1  0
  7 43  1  0
  7 44  1  0
  9 45  1  0
 10 46  1  0
 12 47  1  0
 14 48  1  0
 16 49  1  0
 17 50  1  0
 18 51  1  0
 18 52  1  0
 19 53  1  0
 19 54  1  0
 22 55  1  0
 28 56  1  0
 30 57  1  0
 32 58  1  0
 32 59  1  0
 32 60  1  0
M  END
$$$$
[H]c1nc2c([H])c(OC([H])([H])C([H])([H])C([H])([H])N3C([H])([H])C([H])([H])N(C([H])([H])[H])C([H])([H])C3([H])[H])c(OC([H])([H])[H])c([H])c2c(N([H])c2c([H])c(OC([H])([H])[H])c(Cl)c([H])c2Cl)c1C#N
     RDKit          3D

 65 68  0  0  0  0  0  0  0  0999 V2000
   -5.2946    0.1799   -2.9709 C   0  0  0  0  0  0  0  0  0  0  0  0
   -6.0951   -0.9158   -2.5530 O   0  0  0  0  0  0  0  0  0  0  0  0
   -6.1608   -1.1576   -1.1778 C   0  0  0  0  0  0  0  0  0  0  0  0
   -5.4971   -0.3938   -0.2509 C   0  0  0  0  0  0  0  0  0  0  0  0
   -5.5371   -0.6002    1.1107 C   0  0  0  0  0  0  0  0  0  0  0  0
   -4.8166    0.2382    2.0340 N   0  0  0  0  0  0  0  0  0  0  0  0
   -4.0248    1.3195    1.6049 C   0  0  0  0  0  0  0  0  0  0  0  0
   -4.6352    2.5531    1.4917 C   0  0  0  0  0  0  0  0  0  0  0  0
   -3.8290    3.6094    1.0643 C   0  0  0  0  0  0  0  0  0  0  0  0
   -2.5270    3.4300    0.7791 N   0  0  0  0  0  0  0  0  0  0  0  0
   -1.9535    2.2186    0.8968 C   0  0  0  0  0  0  0  0  0  0  0  0
   -0.6053    1.9975    0.6091 C   0  0  0  0  0  0  0  0  0  0  0  0
   -0.0254    0.7512    0.7328 C   0  0  0  0  0  0  0  0  0  0  0  0
    1.3282    0.5594    0.4376 O   0  0  0  0  0  0  0  0  0  0  0  0
    2.1607    1.6065    0.0051 C   0  0  0  0  0  0  0  0  0  0  0  0
    3.5417    1.0243   -0.2125 C   0  0  0  0  0  0  0  0  0  0  0  0
    3.4226   -0.0554   -1.2622 C   0  0  0  0  0  0  0  0  0  0  0  0
    4.6627   -0.6900   -1.5641 N   0  0  0  0  0  0  0  0  0  0  0  0
    5.1982   -1.4923   -0.4904 C   0  0  0  0  0  0  0  0  0  0  0  0
    6.5388   -0.9813   -0.0123 C   0  0  0  0  0  0  0  0  0  0  0  0
    7.5161   -0.9508   -1.0794 N   0  0  0  0  0  0  0  0  0  0  0  0
    8.4297    0.1509   -0.7994 C   0  0  0  0  0  0  0  0  0  0  0  0
    6.9128   -0.6710   -2.3660 C   0  0  0  0  0  0  0  0  0  0  0  0
    5.6339    0.1418   -2.1961 C   0  0  0  0  0  0  0  0  0  0  0  0
   -0.7837   -0.3247    1.1524 C   0  0  0  0  0  0  0  0  0  0  0  0
   -0.1660   -1.5451    1.2609 O   0  0  0  0  0  0  0  0  0  0  0  0
   -0.8182   -2.7273    1.6769 C   0  0  0  0  0  0  0  0  0  0  0  0
   -2.1295   -0.1321    1.4455 C   0  0  0  0  0  0  0  0  0  0  0  0
   -2.6832    1.1246    1.3132 C   0  0  0  0  0  0  0  0  0  0  0  0
   -6.0331    2.7467    1.7978 C   0  0  0  0  0  0  0  0  0  0  0  0
   -7.1560    2.8867    2.0549 N   0  0  0  0  0  0  0  0  0  0  0  0
   -6.3055   -1.6561    1.5519 C   0  0  0  0  0  0  0  0  0  0  0  0
   -6.4410   -2.0259    3.2478 Cl  0  0  0  0  0  0  0  0  0  0  0  0
   -7.0004   -2.4646    0.6587 C   0  0  0  0  0  0  0  0  0  0  0  0
   -6.9278   -2.2166   -0.6919 C   0  0  0  0  0  0  0  0  0  0  0  0
   -7.7733   -3.1886   -1.8765 Cl  0  0  0  0  0  0  0  0  0  0  0  0
   -5.4136    0.3597   -4.0746 H   0  0  0  0  0  0  0  0  0  0  0  0
   -4.2180   -0.0377   -2.8166 H   0  0  0  0  0  0  0  0  0  0  0  0
   -5.5182    1.1093   -2.4102 H   0  0  0  0  0  0  0  0  0  0  0  0
   -4.8824    0.4495   -0.5886 H   0  0  0  0  0  0  0  0  0  0  0  0
   -4.9019    0.0142    3.0487 H   0  0  0  0  0  0  0  0  0  0  0  0
   -4.3295    4.5717    0.9823 H   0  0  0  0  0  0  0  0  0  0  0  0
   -0.0170    2.8280    0.2846 H   0  0  0  0  0  0  0  0  0  0  0  0
    1.7778    1.9385   -1.0008 H   0  0  0  0  0  0  0  0  0  0  0  0
    2.1821    2.4558    0.7154 H   0  0  0  0  0  0  0  0  0  0  0  0
    4.2210    1.8377   -0.5139 H   0  0  0  0  0  0  0  0  0  0  0  0
    3.9285    0.6049    0.7361 H   0  0  0  0  0  0  0  0  0  0  0  0
    2.9821    0.3266   -2.1992 H   0  0  0  0  0  0  0  0  0  0  0  0
    2.7315   -0.8214   -0.8541 H   0  0  0  0  0  0  0  0  0  0  0  0
    5.2338   -2.5366   -0.8312 H   0  0  0  0  0  0  0  0  0  0  0  0
    4.5037   -1.4099    0.3697 H   0  0  0  0  0  0  0  0  0  0  0  0
    6.3881   -0.0055    0.4627 H   0  0  0  0  0  0  0  0  0  0  0  0
    6.9097   -1.6815    0.7631 H   0  0  0  0  0  0  0  0  0  0  0  0
    7.9186    0.8915   -0.1786 H   0  0  0  0  0  0  0  0  0  0  0  0
    9.2446   -0.2873   -0.1540 H   0  0  0  0  0  0  0  0  0  0  0  0
    8.8635    0.5756   -1.7319 H   0  0  0  0  0  0  0  0  0  0  0  0
    7.6268   -0.0558   -2.9818 H   0  0  0  0  0  0  0  0  0  0  0  0
    6.6852   -1.5665   -2.9435 H   0  0  0  0  0  0  0  0  0  0  0  0
    5.9066    1.0433   -1.6186 H   0  0  0  0  0  0  0  0  0  0  0  0
    5.2600    0.4179   -3.1952 H   0  0  0  0  0  0  0  0  0  0  0  0
   -1.6281   -3.0342    0.9852 H   0  0  0  0  0  0  0  0  0  0  0  0
   -0.0534   -3.5288    1.7326 H   0  0  0  0  0  0  0  0  0  0  0  0
   -1.1857   -2.5572    2.7031 H   0  0  0  0  0  0  0  0  0  0  0  0
   -2.7370   -0.9576    1.7739 H   0  0  0  0  0  0  0  0  0  0  0  0
   -7.6050   -3.2933    0.9881 H   0  0  0  0  0  0  0  0  0  0  0  0
  1  2  1  0
  2  3  1  0
  3  4  2  0
  4  5  1  0
  5  6  1  0
  6  7  1  0
  7  8  2  0
  8  9  1  0
  9 10  2  0
 10 11  1  0
 11 12  2  0
 12 13  1  0
 13 14  1  0
 14 15  1  0
 15 16  1  0
 16 17  1  0
 17 18  1  0
 18 19  1  0
 19 20  1  0
 20 21  1  0
 21 22  1  0
 21 23  1  0
 23 24  1  0
 13 25  2  0
 25 26  1  0
 26 27  1  0
 25 28  1  0
 28 29  2  0
  8 30  1  0
 30 31  3  0
  5 32  2  0
 32 33  1  0
 32 34  1  0
 34 35  2  0
 35 36  1  0
 35  3  1  0
 29  7  1  0
 29 11  1  0
 24 18  1  0
  1 37  1  0
  1 38  1  0
  1 39  1  0
  4 40  1  0
  6 41  1  0
  9 42  1  0
 12 43  1  0
 15 44  1  0
 15 45  1  0
 16 46  1  0
 16 47  1  0
 17 48  1  0
 17 49  1  0
 19 50  1  0
 19 51  1  0
 20 52  1  0
 20 53  1  0
 22 54  1  0
 22 55  1  0
 22 56  1  0
 23 57  1  0
 23 58  1  0
 24 59  1  0
 24 60  1  0
 27 61  1  0
 27 62  1  0
 27 63  1  0
 28 64  1  0
 34 65  1  0
M  END
$$$$
[H]c1c([H])c(-c2nc(C([H])([H])[H])c(C(=O)N3C([H])([H])C([H])([H])OC([H])([H])C3([H])[H])[se]2)c([H])c(C#N)c1OC([H])([H])C([H])(C([H])([H])[H])C([H])([H])[H]
     RDKit          3D

 50 52  0  0  0  0  0  0  0  0999 V2000
    6.5650    0.4220    1.5057 C   0  0  0  0  0  0  0  0  0  0  0  0
    6.4520    0.1294   -0.0001 C   0  0  0  0  0  0  0  0  0  0  0  0
    7.8582    0.3326   -0.5341 C   0  0  0  0  0  0  0  0  0  0  0  0
    5.9604   -1.2630   -0.2058 C   0  0  0  0  0  0  0  0  0  0  0  0
    4.7254   -1.5547    0.3275 O   0  0  0  0  0  0  0  0  0  0  0  0
    3.5060   -1.0472   -0.0027 C   0  0  0  0  0  0  0  0  0  0  0  0
    3.2491   -0.1314   -0.9888 C   0  0  0  0  0  0  0  0  0  0  0  0
    1.9470    0.2985   -1.2187 C   0  0  0  0  0  0  0  0  0  0  0  0
    0.8909   -0.1680   -0.4842 C   0  0  0  0  0  0  0  0  0  0  0  0
    1.1342   -1.0866    0.5059 C   0  0  0  0  0  0  0  0  0  0  0  0
    2.4120   -1.5307    0.7575 C   0  0  0  0  0  0  0  0  0  0  0  0
    2.6357   -2.4909    1.7985 C   0  0  0  0  0  0  0  0  0  0  0  0
    2.8021   -3.2747    2.6349 N   0  0  0  0  0  0  0  0  0  0  0  0
   -0.4314    0.3181   -0.7739 C   0  0  0  0  0  0  0  0  0  0  0  0
   -1.0358    1.1102   -1.5503 N   0  0  0  0  0  0  0  0  0  0  0  0
   -2.2341    1.4462   -1.6947 C   0  0  0  0  0  0  0  0  0  0  0  0
   -2.6723    2.4717   -2.7680 C   0  0  0  0  0  0  0  0  0  0  0  0
   -3.2785    0.9872   -0.9709 C   0  0  0  0  0  0  0  0  0  0  0  0
   -2.1206   -0.3051    0.2621 Se  0  0  0  0  0  2  0  0  0  0  0  0
   -4.6815    1.1427   -0.8720 C   0  0  0  0  0  0  0  0  0  0  0  0
   -5.3502    1.9235   -1.6254 O   0  0  0  0  0  0  0  0  0  0  0  0
   -5.4446    0.4294    0.0857 N   0  0  0  0  0  0  0  0  0  0  0  0
   -6.9013    0.6104    0.1650 C   0  0  0  0  0  0  0  0  0  0  0  0
   -7.5260   -0.7607    0.1017 C   0  0  0  0  0  0  0  0  0  0  0  0
   -7.0716   -1.5750    1.1264 O   0  0  0  0  0  0  0  0  0  0  0  0
   -6.0954   -0.9927    1.8947 C   0  0  0  0  0  0  0  0  0  0  0  0
   -4.9056   -0.5107    1.0465 C   0  0  0  0  0  0  0  0  0  0  0  0
    7.4828   -0.1050    1.8347 H   0  0  0  0  0  0  0  0  0  0  0  0
    6.6264    1.5203    1.6022 H   0  0  0  0  0  0  0  0  0  0  0  0
    5.6712   -0.0044    1.9752 H   0  0  0  0  0  0  0  0  0  0  0  0
    5.8323    0.9141   -0.4200 H   0  0  0  0  0  0  0  0  0  0  0  0
    8.6289   -0.1274    0.0869 H   0  0  0  0  0  0  0  0  0  0  0  0
    8.0705    1.4145   -0.6564 H   0  0  0  0  0  0  0  0  0  0  0  0
    7.9128   -0.0955   -1.5746 H   0  0  0  0  0  0  0  0  0  0  0  0
    6.0427   -1.5427   -1.2944 H   0  0  0  0  0  0  0  0  0  0  0  0
    6.7254   -1.9621    0.2692 H   0  0  0  0  0  0  0  0  0  0  0  0
    4.0623    0.2298   -1.5920 H   0  0  0  0  0  0  0  0  0  0  0  0
    1.7991    1.0217   -2.0068 H   0  0  0  0  0  0  0  0  0  0  0  0
    0.2734   -1.4366    1.0697 H   0  0  0  0  0  0  0  0  0  0  0  0
   -3.1776    3.3205   -2.2571 H   0  0  0  0  0  0  0  0  0  0  0  0
   -1.8287    2.8730   -3.3135 H   0  0  0  0  0  0  0  0  0  0  0  0
   -3.4009    1.9953   -3.4410 H   0  0  0  0  0  0  0  0  0  0  0  0
   -7.2685    1.2041   -0.6961 H   0  0  0  0  0  0  0  0  0  0  0  0
   -7.1868    1.0990    1.1135 H   0  0  0  0  0  0  0  0  0  0  0  0
   -8.6295   -0.6837    0.1123 H   0  0  0  0  0  0  0  0  0  0  0  0
   -7.2557   -1.2114   -0.8811 H   0  0  0  0  0  0  0  0  0  0  0  0
   -6.4246   -0.1418    2.5157 H   0  0  0  0  0  0  0  0  0  0  0  0
   -5.6976   -1.7693    2.5844 H   0  0  0  0  0  0  0  0  0  0  0  0
   -4.4437   -1.4056    0.5446 H   0  0  0  0  0  0  0  0  0  0  0  0
   -4.2032   -0.0373    1.7655 H   0  0  0  0  0  0  0  0  0  0  0  0
  1  2  1  0
  2  3  1  0
  2  4  1  0
  4  5  1  0
  5  6  1  0
  6  7  2  0
  7  8  1  0
  8  9  2  0
  9 10  1  0
 10 11  2  0
 11 12  1  0
 12 13  3  0
  9 14  1  0
 14 15  2  0
 15 16  1  0
 16 17  1  0
 16 18  2  0
 18 19  1  0
 18 20  1  0
 20 21  2  0
 20 22  1  0
 22 23  1  0
 23 24  1  0
 24 25  1  0
 25 26  1  0
 26 27  1  0
 11  6  1  0
 19 14  1  0
 27 22  1  0
  1 28  1  0
  1 29  1  0
  1 30  1  0
  2 31  1  0
  3 32  1  0
  3 33  1  0
  3 34  1  0
  4 35  1  0
  4 36  1  0
  7 37  1  0
  8 38  1  0
 10 39  1  0
 17 40  1  0
 17 41  1  0
 17 42  1  0
 23 43  1  0
 23 44  1  0
 24 45  1  0
 24 46  1  0
 26 47  1  0
 26 48  1  0
 27 49  1  0
 27 50  1  0
M  END
$$$$
[H]c1nc(N([H])c2c([H])c([H])c(OC([H])([H])C([H])([H])C([H])([H])N3C([H])([H])C([H])([H])N(C([H])([H])[H])C([H])([H])C3([H])[H])c(OC([H])([H])[H])c2[H])nc(N([H])c2nc3c(c([H])c2[H])OC(C([H])([H])[H])(C([H])([H])[H])C(=O)N3[H])c1F
     RDKit          3D

 76 80  0  0  0  0  0  0  0  0999 V2000
   -1.4535   -0.8730    3.0975 C   0  0  0  0  0  0  0  0  0  0  0  0
   -2.3159   -1.0097    1.9846 O   0  0  0  0  0  0  0  0  0  0  0  0
   -1.7543   -0.8393    0.7175 C   0  0  0  0  0  0  0  0  0  0  0  0
   -0.4446   -0.5535    0.5120 C   0  0  0  0  0  0  0  0  0  0  0  0
    0.1543   -0.3759   -0.7550 C   0  0  0  0  0  0  0  0  0  0  0  0
    1.5106   -0.1096   -0.8597 N   0  0  0  0  0  0  0  0  0  0  0  0
    2.1941    0.4520   -1.9458 C   0  0  0  0  0  0  0  0  0  0  0  0
    1.6488    0.8560   -3.1016 N   0  0  0  0  0  0  0  0  0  0  0  0
    2.3449    1.3837   -4.1086 C   0  0  0  0  0  0  0  0  0  0  0  0
    3.6932    1.5500   -4.0224 C   0  0  0  0  0  0  0  0  0  0  0  0
    4.4377    2.0797   -5.0163 F   0  0  0  0  0  0  0  0  0  0  0  0
    4.3283    1.1439   -2.8293 C   0  0  0  0  0  0  0  0  0  0  0  0
    5.7061    1.3167   -2.7611 N   0  0  0  0  0  0  0  0  0  0  0  0
    6.5536    0.9961   -1.6817 C   0  0  0  0  0  0  0  0  0  0  0  0
    6.1635    0.4633   -0.4879 C   0  0  0  0  0  0  0  0  0  0  0  0
    7.1219    0.1948    0.4916 C   0  0  0  0  0  0  0  0  0  0  0  0
    8.4560    0.4515    0.2910 C   0  0  0  0  0  0  0  0  0  0  0  0
    9.3765    0.1731    1.2831 O   0  0  0  0  0  0  0  0  0  0  0  0
   10.6974    0.6736    1.2700 C   0  0  0  0  0  0  0  0  0  0  0  0
   11.5796   -0.3856    1.9300 C   0  0  0  0  0  0  0  0  0  0  0  0
   10.7251    1.9383    2.1154 C   0  0  0  0  0  0  0  0  0  0  0  0
   11.1879    0.9605   -0.1068 C   0  0  0  0  0  0  0  0  0  0  0  0
   12.4305    0.9527   -0.3713 O   0  0  0  0  0  0  0  0  0  0  0  0
   10.2169    1.2411   -1.1058 N   0  0  0  0  0  0  0  0  0  0  0  0
    8.8378    0.9933   -0.9286 C   0  0  0  0  0  0  0  0  0  0  0  0
    7.9016    1.2317   -1.8257 N   0  0  0  0  0  0  0  0  0  0  0  0
    3.5498    0.6311   -1.8873 N   0  0  0  0  0  0  0  0  0  0  0  0
   -0.6937   -0.5137   -1.8169 C   0  0  0  0  0  0  0  0  0  0  0  0
   -2.0527   -0.8083   -1.6395 C   0  0  0  0  0  0  0  0  0  0  0  0
   -2.5819   -0.9700   -0.3951 C   0  0  0  0  0  0  0  0  0  0  0  0
   -3.9290   -1.2638   -0.1778 O   0  0  0  0  0  0  0  0  0  0  0  0
   -4.8398   -1.4137   -1.2503 C   0  0  0  0  0  0  0  0  0  0  0  0
   -6.2164   -1.7283   -0.7086 C   0  0  0  0  0  0  0  0  0  0  0  0
   -6.7176   -0.6334    0.1907 C   0  0  0  0  0  0  0  0  0  0  0  0
   -8.0106   -0.8736    0.7303 N   0  0  0  0  0  0  0  0  0  0  0  0
   -9.0818   -0.8534   -0.1887 C   0  0  0  0  0  0  0  0  0  0  0  0
  -10.3249   -1.3936    0.4730 C   0  0  0  0  0  0  0  0  0  0  0  0
  -10.6740   -0.4993    1.5460 N   0  0  0  0  0  0  0  0  0  0  0  0
  -11.3448    0.6860    1.0712 C   0  0  0  0  0  0  0  0  0  0  0  0
   -9.6456   -0.2623    2.4852 C   0  0  0  0  0  0  0  0  0  0  0  0
   -8.2455   -0.3572    2.0256 C   0  0  0  0  0  0  0  0  0  0  0  0
   -2.0049   -1.2187    4.0213 H   0  0  0  0  0  0  0  0  0  0  0  0
   -1.3285    0.2313    3.2630 H   0  0  0  0  0  0  0  0  0  0  0  0
   -0.5014   -1.4055    2.9930 H   0  0  0  0  0  0  0  0  0  0  0  0
    0.2214   -0.4455    1.3563 H   0  0  0  0  0  0  0  0  0  0  0  0
    2.1125   -0.3621   -0.0132 H   0  0  0  0  0  0  0  0  0  0  0  0
    1.8362    1.6921   -5.0237 H   0  0  0  0  0  0  0  0  0  0  0  0
    6.2051    1.7372   -3.6058 H   0  0  0  0  0  0  0  0  0  0  0  0
    5.1204    0.2369   -0.2649 H   0  0  0  0  0  0  0  0  0  0  0  0
    6.7680   -0.2342    1.4402 H   0  0  0  0  0  0  0  0  0  0  0  0
   12.3598    0.1888    2.5062 H   0  0  0  0  0  0  0  0  0  0  0  0
   12.1044   -0.9001    1.1182 H   0  0  0  0  0  0  0  0  0  0  0  0
   10.9718   -1.0270    2.5776 H   0  0  0  0  0  0  0  0  0  0  0  0
   11.7807    2.1937    2.2838 H   0  0  0  0  0  0  0  0  0  0  0  0
   10.1902    1.6986    3.0539 H   0  0  0  0  0  0  0  0  0  0  0  0
   10.1549    2.7179    1.5857 H   0  0  0  0  0  0  0  0  0  0  0  0
   10.5308    1.6497   -2.0169 H   0  0  0  0  0  0  0  0  0  0  0  0
   -0.3330   -0.4142   -2.8504 H   0  0  0  0  0  0  0  0  0  0  0  0
   -2.6621   -0.9024   -2.5085 H   0  0  0  0  0  0  0  0  0  0  0  0
   -4.4728   -2.2155   -1.9075 H   0  0  0  0  0  0  0  0  0  0  0  0
   -4.8070   -0.4777   -1.8397 H   0  0  0  0  0  0  0  0  0  0  0  0
   -6.1783   -2.6955   -0.2140 H   0  0  0  0  0  0  0  0  0  0  0  0
   -6.8774   -1.8409   -1.6039 H   0  0  0  0  0  0  0  0  0  0  0  0
   -6.6982    0.3588   -0.2912 H   0  0  0  0  0  0  0  0  0  0  0  0
   -5.9988   -0.5705    1.0501 H   0  0  0  0  0  0  0  0  0  0  0  0
   -8.8063   -1.4326   -1.0896 H   0  0  0  0  0  0  0  0  0  0  0  0
   -9.2790    0.1850   -0.5032 H   0  0  0  0  0  0  0  0  0  0  0  0
  -10.1484   -2.4191    0.7976 H   0  0  0  0  0  0  0  0  0  0  0  0
  -11.1375   -1.3404   -0.2827 H   0  0  0  0  0  0  0  0  0  0  0  0
  -10.5900    1.4645    0.8761 H   0  0  0  0  0  0  0  0  0  0  0  0
  -11.8966    0.3908    0.1369 H   0  0  0  0  0  0  0  0  0  0  0  0
  -12.1030    1.0204    1.7824 H   0  0  0  0  0  0  0  0  0  0  0  0
   -9.8007    0.7823    2.8915 H   0  0  0  0  0  0  0  0  0  0  0  0
   -9.8394   -0.9115    3.3910 H   0  0  0  0  0  0  0  0  0  0  0  0
   -7.6984    0.6286    2.1001 H   0  0  0  0  0  0  0  0  0  0  0  0
   -7.6845   -1.0146    2.7541 H   0  0  0  0  0  0  0  0  0  0  0  0
  1  2  1  0
  2  3  1  0
  3  4  2  0
  4  5  1  0
  5  6  1  0
  6  7  1  0
  7  8  2  0
  8  9  1  0
  9 10  2  0
 10 11  1  0
 10 12  1  0
 12 13  1  0
 13 14  1  0
 14 15  2  0
 15 16  1  0
 16 17  2  0
 17 18  1  0
 18 19  1  0
 19 20  1  0
 19 21  1  0
 19 22  1  0
 22 23  2  0
 22 24  1  0
 24 25  1  0
 25 26  2  0
 12 27  2  0
  5 28  2  0
 28 29  1  0
 29 30  2  0
 30 31  1  0
 31 32  1  0
 32 33  1  0
 33 34  1  0
 34 35  1  0
 35 36  1  0
 36 37  1  0
 37 38  1  0
 38 39  1  0
 38 40  1  0
 40 41  1  0
 30  3  1  0
 41 35  1  0
 27  7  1  0
 26 14  1  0
 25 17  1  0
  1 42  1  0
  1 43  1  0
  1 44  1  0
  4 45  1  0
  6 46  1  0
  9 47  1  0
 13 48  1  0
 15 49  1  0
 16 50  1  0
 20 51  1  0
 20 52  1  0
 20 53  1  0
 21 54  1  0
 21 55  1  0
 21 56  1  0
 24 57  1  0
 28 58  1  0
 29 59  1  0
 32 60  1  0
 32 61  1  0
 33 62  1  0
 33 63  1  0
 34 64  1  0
 34 65  1  0
 36 66  1  0
 36 67  1  0
 37 68  1  0
 37 69  1  0
 39 70  1  0
 39 71  1  0
 39 72  1  0
 40 73  1  0
 40 74  1  0
 41 75  1  0
 41 76  1  0
M  END
$$$$
[H]O[C@@]1([H])C([H])([H])C([H])([H])[C@@]2([H])[C@@]3([H])C([H])([H])C([H])([H])[C@]([H])(OC(=O)/C([H])=C(\[H])c4c([H])c([H])c(OC([H])([H])[H])c(OC([H])([H])[H])c4[H])[C@]4(C([H])([H])[H])C(=O)O[C@]([H])(C([H])([H])[H])[C@@]4(C([H])([H])[H])C([H])([H])C([H])([H])[C@]3([H])[C@@]2(C([H])([H])[H])C([H])([H])C1([H])[H]
     RDKit          3D

 86 90  0  0  0  0  0  0  0  0999 V2000
   -1.4227    4.1623   -3.4255 C   0  0  0  0  0  0  0  0  0  0  0  0
   -0.5756    2.9762   -2.9684 C   0  0  1  0  0  0  0  0  0  0  0  0
    0.6073    3.3956   -2.3365 O   0  0  0  0  0  0  0  0  0  0  0  0
    0.8209    2.7011   -1.1162 C   0  0  0  0  0  0  0  0  0  0  0  0
    1.4827    3.0371   -0.1249 O   0  0  0  0  0  0  0  0  0  0  0  0
    0.0225    1.4664   -1.3836 C   0  0  1  0  0  0  0  0  0  0  0  0
    0.6687    0.9327   -2.6531 C   0  0  0  0  0  0  0  0  0  0  0  0
   -0.0529    0.4399   -0.4320 C   0  0  2  0  0  0  0  0  0  0  0  0
   -0.5437    0.4701    0.9413 C   0  0  0  0  0  0  0  0  0  0  0  0
   -1.8323    0.8046    1.4666 C   0  0  0  0  0  0  0  0  0  0  0  0
   -3.1254    0.5644    0.8867 C   0  0  2  0  0  0  0  0  0  0  0  0
   -4.0291   -0.5206    1.4595 C   0  0  2  0  0  0  0  0  0  0  0  0
   -3.3972   -1.8016    1.8231 C   0  0  0  0  0  0  0  0  0  0  0  0
   -4.4300   -2.6584    2.5274 C   0  0  0  0  0  0  0  0  0  0  0  0
   -5.8089   -2.4932    1.9808 C   0  0  2  0  0  0  0  0  0  0  0  0
   -6.6017   -3.4904    2.6024 O   0  0  0  0  0  0  0  0  0  0  0  0
   -5.9371   -2.6833    0.5202 C   0  0  0  0  0  0  0  0  0  0  0  0
   -5.1012   -1.8719   -0.3630 C   0  0  0  0  0  0  0  0  0  0  0  0
   -4.6940   -0.5245    0.1023 C   0  0  1  0  0  0  0  0  0  0  0  0
   -5.7848    0.4774   -0.0179 C   0  0  0  0  0  0  0  0  0  0  0  0
   -3.3242   -0.0545   -0.4333 C   0  0  1  0  0  0  0  0  0  0  0  0
   -3.4995    1.0396   -1.5021 C   0  0  0  0  0  0  0  0  0  0  0  0
   -2.2631    1.2837   -2.2676 C   0  0  0  0  0  0  0  0  0  0  0  0
   -1.2570    2.2281   -1.7938 C   0  0  2  0  0  0  0  0  0  0  0  0
   -1.6385    3.3167   -0.8736 C   0  0  0  0  0  0  0  0  0  0  0  0
    1.3062   -0.0060   -0.2072 O   0  0  0  0  0  0  0  0  0  0  0  0
    1.7489   -1.2910   -0.4340 C   0  0  0  0  0  0  0  0  0  0  0  0
    0.9338   -2.1403   -0.8585 O   0  0  0  0  0  0  0  0  0  0  0  0
    3.1278   -1.6809   -0.1942 C   0  0  0  0  0  0  0  0  0  0  0  0
    3.9788   -0.7993    0.2478 C   0  0  0  0  0  0  0  0  0  0  0  0
    5.3771   -1.0758    0.5220 C   0  0  0  0  0  0  0  0  0  0  0  0
    5.9533   -2.2927    0.3458 C   0  0  0  0  0  0  0  0  0  0  0  0
    7.2973   -2.5140    0.6211 C   0  0  0  0  0  0  0  0  0  0  0  0
    8.0906   -1.4768    1.0899 C   0  0  0  0  0  0  0  0  0  0  0  0
    9.4457   -1.6770    1.3736 O   0  0  0  0  0  0  0  0  0  0  0  0
    9.9926   -2.9649    1.1714 C   0  0  0  0  0  0  0  0  0  0  0  0
    7.5295   -0.2309    1.2776 C   0  0  0  0  0  0  0  0  0  0  0  0
    8.3355    0.7911    1.7456 O   0  0  0  0  0  0  0  0  0  0  0  0
    7.8584    2.1036    1.9716 C   0  0  0  0  0  0  0  0  0  0  0  0
    6.2067   -0.0616    0.9938 C   0  0  0  0  0  0  0  0  0  0  0  0
   -1.4754    4.2681   -4.5168 H   0  0  0  0  0  0  0  0  0  0  0  0
   -2.4663    4.0918   -3.0618 H   0  0  0  0  0  0  0  0  0  0  0  0
   -0.9107    5.1034   -3.0667 H   0  0  0  0  0  0  0  0  0  0  0  0
   -0.4911    2.3676   -3.8523 H   0  0  0  0  0  0  0  0  0  0  0  0
   -0.0457    0.4551   -3.3533 H   0  0  0  0  0  0  0  0  0  0  0  0
    1.4321    0.1539   -2.4866 H   0  0  0  0  0  0  0  0  0  0  0  0
    1.2463    1.7073   -3.2206 H   0  0  0  0  0  0  0  0  0  0  0  0
   -0.4843   -0.4736   -0.9130 H   0  0  0  0  0  0  0  0  0  0  0  0
   -0.3076   -0.5914    1.3224 H   0  0  0  0  0  0  0  0  0  0  0  0
    0.2169    1.0549    1.5583 H   0  0  0  0  0  0  0  0  0  0  0  0
   -1.9057    0.3038    2.5050 H   0  0  0  0  0  0  0  0  0  0  0  0
   -1.7976    1.8761    1.8793 H   0  0  0  0  0  0  0  0  0  0  0  0
   -3.7795    1.5014    0.9028 H   0  0  0  0  0  0  0  0  0  0  0  0
   -4.7354   -0.1692    2.2391 H   0  0  0  0  0  0  0  0  0  0  0  0
   -2.5627   -1.6830    2.5421 H   0  0  0  0  0  0  0  0  0  0  0  0
   -2.9879   -2.3889    0.9764 H   0  0  0  0  0  0  0  0  0  0  0  0
   -4.4600   -2.2838    3.5934 H   0  0  0  0  0  0  0  0  0  0  0  0
   -4.1092   -3.7174    2.6114 H   0  0  0  0  0  0  0  0  0  0  0  0
   -6.2425   -1.5342    2.3424 H   0  0  0  0  0  0  0  0  0  0  0  0
   -7.5459   -3.3915    2.3598 H   0  0  0  0  0  0  0  0  0  0  0  0
   -5.7394   -3.7741    0.3011 H   0  0  0  0  0  0  0  0  0  0  0  0
   -7.0203   -2.5527    0.2565 H   0  0  0  0  0  0  0  0  0  0  0  0
   -5.6532   -1.7214   -1.3379 H   0  0  0  0  0  0  0  0  0  0  0  0
   -4.1767   -2.4398   -0.6785 H   0  0  0  0  0  0  0  0  0  0  0  0
   -6.7603   -0.0869    0.0643 H   0  0  0  0  0  0  0  0  0  0  0  0
   -5.7972    1.2580    0.7618 H   0  0  0  0  0  0  0  0  0  0  0  0
   -5.8418    0.9893   -0.9981 H   0  0  0  0  0  0  0  0  0  0  0  0
   -2.7999   -0.9396   -0.7493 H   0  0  0  0  0  0  0  0  0  0  0  0
   -4.2270    0.5570   -2.2254 H   0  0  0  0  0  0  0  0  0  0  0  0
   -4.0167    1.8926   -1.0861 H   0  0  0  0  0  0  0  0  0  0  0  0
   -1.8080    0.2549   -2.4083 H   0  0  0  0  0  0  0  0  0  0  0  0
   -2.5519    1.5749   -3.3224 H   0  0  0  0  0  0  0  0  0  0  0  0
   -0.9378    3.4006    0.0129 H   0  0  0  0  0  0  0  0  0  0  0  0
   -1.5347    4.3731   -1.2727 H   0  0  0  0  0  0  0  0  0  0  0  0
   -2.6847    3.3203   -0.5117 H   0  0  0  0  0  0  0  0  0  0  0  0
    3.4451   -2.6922   -0.3806 H   0  0  0  0  0  0  0  0  0  0  0  0
    3.6016    0.2169    0.4205 H   0  0  0  0  0  0  0  0  0  0  0  0
    5.3918   -3.1286   -0.0128 H   0  0  0  0  0  0  0  0  0  0  0  0
    7.7299   -3.4908    0.4722 H   0  0  0  0  0  0  0  0  0  0  0  0
    9.7365   -3.2620    0.1328 H   0  0  0  0  0  0  0  0  0  0  0  0
   11.0823   -2.9221    1.2747 H   0  0  0  0  0  0  0  0  0  0  0  0
    9.5409   -3.6992    1.8796 H   0  0  0  0  0  0  0  0  0  0  0  0
    7.0813    2.1008    2.7706 H   0  0  0  0  0  0  0  0  0  0  0  0
    8.6776    2.7367    2.3367 H   0  0  0  0  0  0  0  0  0  0  0  0
    7.4200    2.5632    1.0706 H   0  0  0  0  0  0  0  0  0  0  0  0
    5.7889    0.9397    1.1529 H   0  0  0  0  0  0  0  0  0  0  0  0
  1  2  1  0
  2  3  1  0
  3  4  1  0
  4  5  2  0
  4  6  1  0
  6  7  1  6
  6  8  1  0
  8  9  1  0
  9 10  1  0
 10 11  1  0
 11 12  1  0
 12 13  1  0
 13 14  1  0
 14 15  1  0
 15 16  1  0
 15 17  1  0
 17 18  1  0
 18 19  1  0
 19 20  1  1
 19 21  1  0
 21 22  1  0
 22 23  1  0
 23 24  1  0
 24 25  1  1
  8 26  1  0
 26 27  1  0
 27 28  2  0
 27 29  1  0
 29 30  2  0
 30 31  1  0
 31 32  2  0
 32 33  1  0
 33 34  2  0
 34 35  1  0
 35 36  1  0
 34 37  1  0
 37 38  1  0
 38 39  1  0
 37 40  2  0
 24  2  1  0
 40 31  1  0
 24  6  1  0
 21 11  1  0
 19 12  1  0
  1 41  1  0
  1 42  1  0
  1 43  1  0
  2 44  1  6
  7 45  1  0
  7 46  1  0
  7 47  1  0
  8 48  1  6
  9 49  1  0
  9 50  1  0
 10 51  1  0
 10 52  1  0
 11 53  1  6
 12 54  1  1
 13 55  1  0
 13 56  1  0
 14 57  1  0
 14 58  1  0
 15 59  1  6
 16 60  1  0
 17 61  1  0
 17 62  1  0
 18 63  1  0
 18 64  1  0
 20 65  1  0
 20 66  1  0
 20 67  1  0
 21 68  1  6
 22 69  1  0
 22 70  1  0
 23 71  1  0
 23 72  1  0
 25 73  1  0
 25 74  1  0
 25 75  1  0
 29 76  1  0
 30 77  1  0
 32 78  1  0
 33 79  1  0
 36 80  1  0
 36 81  1  0
 36 82  1  0
 39 83  1  0
 39 84  1  0
 39 85  1  0
 40 86  1  0
M  END
$$$$
[H]c1nc2sc(C(=O)N([H])C([H])([H])[H])c([H])c2c(Oc2c([H])c([H])c(N([H])C(=O)c3c([H])c4c([H])c([H])c([H])c([H])c4n3[H])c([H])c2F)c1[H]
     RDKit          3D

 50 54  0  0  0  0  0  0  0  0999 V2000
    4.3832    3.4860    2.0619 C   0  0  0  0  0  0  0  0  0  0  0  0
    4.4744    2.1839    1.4317 N   0  0  0  0  0  0  0  0  0  0  0  0
    5.3489    1.1727    1.8716 C   0  0  0  0  0  0  0  0  0  0  0  0
    6.1189    1.2962    2.8318 O   0  0  0  0  0  0  0  0  0  0  0  0
    5.3599   -0.1203    1.1538 C   0  0  0  0  0  0  0  0  0  0  0  0
    4.6087   -0.4933    0.0743 C   0  0  0  0  0  0  0  0  0  0  0  0
    4.7803   -1.7331   -0.4271 C   0  0  0  0  0  0  0  0  0  0  0  0
    4.1330   -2.3253   -1.5180 C   0  0  0  0  0  0  0  0  0  0  0  0
    3.1655   -1.7178   -2.2938 O   0  0  0  0  0  0  0  0  0  0  0  0
    1.9286   -1.2566   -1.9335 C   0  0  0  0  0  0  0  0  0  0  0  0
    1.4937    0.0380   -2.1169 C   0  0  0  0  0  0  0  0  0  0  0  0
    0.2547    0.4918   -1.7536 C   0  0  0  0  0  0  0  0  0  0  0  0
   -0.6633   -0.3927   -1.1500 C   0  0  0  0  0  0  0  0  0  0  0  0
   -1.9400    0.0768   -0.7859 N   0  0  0  0  0  0  0  0  0  0  0  0
   -2.9119   -0.6122   -0.0657 C   0  0  0  0  0  0  0  0  0  0  0  0
   -2.8395   -1.7775    0.3985 O   0  0  0  0  0  0  0  0  0  0  0  0
   -4.1989    0.0648    0.2115 C   0  0  0  0  0  0  0  0  0  0  0  0
   -4.5119    1.3361   -0.1922 C   0  0  0  0  0  0  0  0  0  0  0  0
   -5.8046    1.6017    0.2627 C   0  0  0  0  0  0  0  0  0  0  0  0
   -6.6065    2.7164    0.1405 C   0  0  0  0  0  0  0  0  0  0  0  0
   -7.8719    2.7310    0.6903 C   0  0  0  0  0  0  0  0  0  0  0  0
   -8.2761    1.5911    1.3532 C   0  0  0  0  0  0  0  0  0  0  0  0
   -7.4913    0.4787    1.4820 C   0  0  0  0  0  0  0  0  0  0  0  0
   -6.2197    0.4853    0.9204 C   0  0  0  0  0  0  0  0  0  0  0  0
   -5.2584   -0.4402    0.8921 N   0  0  0  0  0  0  0  0  0  0  0  0
   -0.2199   -1.6925   -0.9689 C   0  0  0  0  0  0  0  0  0  0  0  0
    1.0281   -2.1456   -1.3358 C   0  0  0  0  0  0  0  0  0  0  0  0
    1.3515   -3.4351   -1.1099 F   0  0  0  0  0  0  0  0  0  0  0  0
    4.4655   -3.6186   -1.8736 C   0  0  0  0  0  0  0  0  0  0  0  0
    5.3994   -4.3688   -1.2184 C   0  0  0  0  0  0  0  0  0  0  0  0
    6.0142   -3.7967   -0.1755 N   0  0  0  0  0  0  0  0  0  0  0  0
    5.7116   -2.5165    0.2067 C   0  0  0  0  0  0  0  0  0  0  0  0
    6.2994   -1.5094    1.4556 S   0  0  0  0  0  0  0  0  0  0  0  0
    4.6449    3.4434    3.1406 H   0  0  0  0  0  0  0  0  0  0  0  0
    5.0105    4.2499    1.5675 H   0  0  0  0  0  0  0  0  0  0  0  0
    3.3341    3.8265    2.0110 H   0  0  0  0  0  0  0  0  0  0  0  0
    3.8539    2.0120    0.6171 H   0  0  0  0  0  0  0  0  0  0  0  0
    3.8925    0.2438   -0.3506 H   0  0  0  0  0  0  0  0  0  0  0  0
    2.1559    0.7882   -2.5829 H   0  0  0  0  0  0  0  0  0  0  0  0
   -0.0631    1.5126   -1.9074 H   0  0  0  0  0  0  0  0  0  0  0  0
   -2.1690    1.0667   -1.1074 H   0  0  0  0  0  0  0  0  0  0  0  0
   -3.8795    2.0177   -0.7603 H   0  0  0  0  0  0  0  0  0  0  0  0
   -6.1997    3.5723   -0.4026 H   0  0  0  0  0  0  0  0  0  0  0  0
   -8.4764    3.6139    0.5800 H   0  0  0  0  0  0  0  0  0  0  0  0
   -9.2595    1.5866    1.7872 H   0  0  0  0  0  0  0  0  0  0  0  0
   -7.7909   -0.4102    1.9921 H   0  0  0  0  0  0  0  0  0  0  0  0
   -5.2726   -1.4054    1.3093 H   0  0  0  0  0  0  0  0  0  0  0  0
   -0.8646   -2.4375   -0.5175 H   0  0  0  0  0  0  0  0  0  0  0  0
    3.9425   -4.0847   -2.7491 H   0  0  0  0  0  0  0  0  0  0  0  0
    5.6355   -5.3936   -1.5321 H   0  0  0  0  0  0  0  0  0  0  0  0
  1  2  1  0
  2  3  1  0
  3  4  2  0
  3  5  1  0
  5  6  2  0
  6  7  1  0
  7  8  2  0
  8  9  1  0
  9 10  1  0
 10 11  2  0
 11 12  1  0
 12 13  2  0
 13 14  1  0
 14 15  1  0
 15 16  2  0
 15 17  1  0
 17 18  2  0
 18 19  1  0
 19 20  2  0
 20 21  1  0
 21 22  2  0
 22 23  1  0
 23 24  2  0
 24 25  1  0
 13 26  1  0
 26 27  2  0
 27 28  1  0
  8 29  1  0
 29 30  2  0
 30 31  1  0
 31 32  2  0
 32 33  1  0
 33  5  1  0
 32  7  1  0
 27 10  1  0
 25 17  1  0
 24 19  1  0
  1 34  1  0
  1 35  1  0
  1 36  1  0
  2 37  1  0
  6 38  1  0
 11 39  1  0
 12 40  1  0
 14 41  1  0
 18 42  1  0
 20 43  1  0
 21 44  1  0
 22 45  1  0
 23 46  1  0
 25 47  1  0
 26 48  1  0
 29 49  1  0
 30 50  1  0
M  END
$$$$
[H]c1c([H])c([H])c(S(=O)(=O)[C@@]2([H])C([H])([H])N(C(=O)C3(c4c([H])c([H])c(Cl)c([H])c4[H])C([H])([H])C3([H])[H])[C@]([H])(C(=O)N([H])[C@]([H])(C(=O)C(=O)N([H])C3([H])C([H])([H])C3([H])[H])C([H])([H])C([H])([H])C([H])([H])C([H])([H])[H])C2([H])[H])c(Cl)c1[H]
     RDKit          3D

 78 82  0  0  0  0  0  0  0  0999 V2000
    6.5986    0.8530   -3.7946 C   0  0  0  0  0  0  0  0  0  0  0  0
    5.6669    0.6438   -2.5922 C   0  0  0  0  0  0  0  0  0  0  0  0
    4.3595    1.2624   -2.8795 C   0  0  0  0  0  0  0  0  0  0  0  0
    3.2564    1.2498   -1.9081 C   0  0  0  0  0  0  0  0  0  0  0  0
    2.8011   -0.0480   -1.3815 C   0  0  2  0  0  0  0  0  0  0  0  0
    1.5714    0.2503   -0.6063 N   0  0  0  0  0  0  0  0  0  0  0  0
    0.3678   -0.3774   -1.0087 C   0  0  0  0  0  0  0  0  0  0  0  0
    0.4506   -1.2375   -1.9477 O   0  0  0  0  0  0  0  0  0  0  0  0
   -0.8442   -0.0126   -0.3756 C   0  0  2  0  0  0  0  0  0  0  0  0
   -0.7306    0.9144    0.7988 C   0  0  0  0  0  0  0  0  0  0  0  0
   -2.2882    1.2809    0.9450 C   0  0  2  0  0  0  0  0  0  0  0  0
   -2.9379    0.0398    0.4185 C   0  0  0  0  0  0  0  0  0  0  0  0
   -1.8081   -0.9333    0.1655 N   0  0  0  0  0  0  0  0  0  0  0  0
   -1.7369   -2.2345    0.5795 C   0  0  0  0  0  0  0  0  0  0  0  0
   -0.5385   -2.7944    0.7180 O   0  0  0  0  0  0  0  0  0  0  0  0
   -2.8097   -3.1735    0.9245 C   0  0  0  0  0  0  0  0  0  0  0  0
   -3.3270   -2.9840    2.3533 C   0  0  0  0  0  0  0  0  0  0  0  0
   -2.5047   -4.1749    2.0382 C   0  0  0  0  0  0  0  0  0  0  0  0
   -3.8657   -3.4829   -0.0745 C   0  0  0  0  0  0  0  0  0  0  0  0
   -4.7614   -4.4903    0.2120 C   0  0  0  0  0  0  0  0  0  0  0  0
   -5.7122   -4.8817   -0.7348 C   0  0  0  0  0  0  0  0  0  0  0  0
   -5.7777   -4.2762   -1.9669 C   0  0  0  0  0  0  0  0  0  0  0  0
   -6.9911   -4.8240   -3.1070 Cl  0  0  0  0  0  0  0  0  0  0  0  0
   -4.9045   -3.2861   -2.2586 C   0  0  0  0  0  0  0  0  0  0  0  0
   -3.9582   -2.9074   -1.2960 C   0  0  0  0  0  0  0  0  0  0  0  0
   -2.4501    2.7398    0.0554 S   0  0  0  0  0  0  0  0  0  0  0  0
   -2.8002    2.3475   -1.3947 O   0  0  0  0  0  0  0  0  0  0  0  0
   -1.1355    3.4750   -0.0815 O   0  0  0  0  0  0  0  0  0  0  0  0
   -3.6531    3.8810    0.5125 C   0  0  0  0  0  0  0  0  0  0  0  0
   -4.5620    4.3501   -0.4221 C   0  0  0  0  0  0  0  0  0  0  0  0
   -5.5054    5.3242   -0.1380 C   0  0  0  0  0  0  0  0  0  0  0  0
   -5.5652    5.8675    1.1190 C   0  0  0  0  0  0  0  0  0  0  0  0
   -4.6496    5.3923    2.0569 C   0  0  0  0  0  0  0  0  0  0  0  0
   -3.7213    4.4353    1.7844 C   0  0  0  0  0  0  0  0  0  0  0  0
   -2.5740    3.8709    2.9886 Cl  0  0  0  0  0  0  0  0  0  0  0  0
    3.6659   -0.7971   -0.4699 C   0  0  0  0  0  0  0  0  0  0  0  0
    3.8633   -2.0492   -0.6865 O   0  0  0  0  0  0  0  0  0  0  0  0
    4.3119   -0.2330    0.6808 C   0  0  0  0  0  0  0  0  0  0  0  0
    4.0077    0.9617    1.0879 O   0  0  0  0  0  0  0  0  0  0  0  0
    5.2927   -0.9229    1.4259 N   0  0  0  0  0  0  0  0  0  0  0  0
    5.8335   -0.3322    2.6223 C   0  0  0  0  0  0  0  0  0  0  0  0
    6.8079   -1.2211    3.3426 C   0  0  0  0  0  0  0  0  0  0  0  0
    7.2080    0.1511    2.8172 C   0  0  0  0  0  0  0  0  0  0  0  0
    7.4754    1.3933   -3.4609 H   0  0  0  0  0  0  0  0  0  0  0  0
    6.0596    1.4863   -4.5619 H   0  0  0  0  0  0  0  0  0  0  0  0
    6.8631   -0.0924   -4.2506 H   0  0  0  0  0  0  0  0  0  0  0  0
    5.5381   -0.4841   -2.5085 H   0  0  0  0  0  0  0  0  0  0  0  0
    6.1323    0.9341   -1.6524 H   0  0  0  0  0  0  0  0  0  0  0  0
    4.5749    2.3647   -3.1205 H   0  0  0  0  0  0  0  0  0  0  0  0
    3.9650    0.8943   -3.8849 H   0  0  0  0  0  0  0  0  0  0  0  0
    2.3492    1.7011   -2.4507 H   0  0  0  0  0  0  0  0  0  0  0  0
    3.4431    2.0090   -1.1076 H   0  0  0  0  0  0  0  0  0  0  0  0
    2.4977   -0.6838   -2.2603 H   0  0  0  0  0  0  0  0  0  0  0  0
    1.6293    0.9101    0.2035 H   0  0  0  0  0  0  0  0  0  0  0  0
   -1.4855    0.5723   -1.1872 H   0  0  0  0  0  0  0  0  0  0  0  0
   -0.4172    0.4099    1.7163 H   0  0  0  0  0  0  0  0  0  0  0  0
   -0.1669    1.8007    0.5672 H   0  0  0  0  0  0  0  0  0  0  0  0
   -2.3765    1.3360    2.0521 H   0  0  0  0  0  0  0  0  0  0  0  0
   -3.3264    0.2299   -0.5820 H   0  0  0  0  0  0  0  0  0  0  0  0
   -3.6929   -0.4107    1.0639 H   0  0  0  0  0  0  0  0  0  0  0  0
   -2.8440   -2.1853    2.9701 H   0  0  0  0  0  0  0  0  0  0  0  0
   -4.4019   -3.0471    2.5254 H   0  0  0  0  0  0  0  0  0  0  0  0
   -2.9716   -5.1670    2.0245 H   0  0  0  0  0  0  0  0  0  0  0  0
   -1.4454   -4.1571    2.4218 H   0  0  0  0  0  0  0  0  0  0  0  0
   -4.7553   -4.9888    1.1573 H   0  0  0  0  0  0  0  0  0  0  0  0
   -6.4194   -5.6683   -0.5465 H   0  0  0  0  0  0  0  0  0  0  0  0
   -4.9250   -2.7773   -3.2301 H   0  0  0  0  0  0  0  0  0  0  0  0
   -3.2866   -2.1346   -1.6188 H   0  0  0  0  0  0  0  0  0  0  0  0
   -4.5967    3.9850   -1.4561 H   0  0  0  0  0  0  0  0  0  0  0  0
   -6.1885    5.6583   -0.9167 H   0  0  0  0  0  0  0  0  0  0  0  0
   -6.2936    6.6356    1.3437 H   0  0  0  0  0  0  0  0  0  0  0  0
   -4.6871    5.8087    3.0592 H   0  0  0  0  0  0  0  0  0  0  0  0
    5.6259   -1.8695    1.0713 H   0  0  0  0  0  0  0  0  0  0  0  0
    5.0394    0.2436    3.1817 H   0  0  0  0  0  0  0  0  0  0  0  0
    7.2564   -2.0862    2.8510 H   0  0  0  0  0  0  0  0  0  0  0  0
    6.6418   -1.3450    4.4441 H   0  0  0  0  0  0  0  0  0  0  0  0
    7.8902    0.1947    1.9702 H   0  0  0  0  0  0  0  0  0  0  0  0
    7.3490    0.9128    3.6502 H   0  0  0  0  0  0  0  0  0  0  0  0
  1  2  1  0
  2  3  1  0
  3  4  1  0
  4  5  1  0
  5  6  1  0
  6  7  1  0
  7  8  2  0
  7  9  1  0
  9 10  1  0
 10 11  1  0
 11 12  1  0
 12 13  1  0
 13 14  1  0
 14 15  2  0
 14 16  1  0
 16 17  1  0
 17 18  1  0
 16 19  1  0
 19 20  2  0
 20 21  1  0
 21 22  2  0
 22 23  1  0
 22 24  1  0
 24 25  2  0
 11 26  1  0
 26 27  2  0
 26 28  2  0
 26 29  1  0
 29 30  2  0
 30 31  1  0
 31 32  2  0
 32 33  1  0
 33 34  2  0
 34 35  1  0
  5 36  1  0
 36 37  2  0
 36 38  1  0
 38 39  2  0
 38 40  1  0
 40 41  1  0
 41 42  1  0
 42 43  1  0
 13  9  1  0
 18 16  1  0
 25 19  1  0
 34 29  1  0
 43 41  1  0
  1 44  1  0
  1 45  1  0
  1 46  1  0
  2 47  1  0
  2 48  1  0
  3 49  1  0
  3 50  1  0
  4 51  1  0
  4 52  1  0
  5 53  1  6
  6 54  1  0
  9 55  1  6
 10 56  1  0
 10 57  1  0
 11 58  1  1
 12 59  1  0
 12 60  1  0
 17 61  1  0
 17 62  1  0
 18 63  1  0
 18 64  1  0
 20 65  1  0
 21 66  1  0
 24 67  1  0
 25 68  1  0
 30 69  1  0
 31 70  1  0
 32 71  1  0
 33 72  1  0
 40 73  1  0
 41 74  1  0
 42 75  1  0
 42 76  1  0
 43 77  1  0
 43 78  1  0
M  END
$$$$
[H]N=C(N([H])[H])N([H])C([H])([H])C([H])([H])C([H])([H])[C@@]([H])(C(=O)c1nc2c([H])c([H])c([H])c([H])c2s1)N([H])C(=O)[C@@]([H])(N([H])C(=O)[C@@]([H])(N([H])C(=O)[C@@]([H])(N([H])C(=O)C([H])([H])[H])C([H])([H])C([H])([H])C(=O)N([H])[H])C([H])([H])C(=O)N([H])[H])C([H])([H])C([H])(C([H])([H])[H])C([H])([H])[H]
     RDKit          3D

 92 93  0  0  0  0  0  0  0  0999 V2000
   -0.5874    1.0988   -5.8061 C   0  0  0  0  0  0  0  0  0  0  0  0
   -1.0072   -0.2248   -5.2676 C   0  0  0  0  0  0  0  0  0  0  0  0
   -1.9984   -0.8573   -6.2221 C   0  0  0  0  0  0  0  0  0  0  0  0
   -1.5675   -0.1778   -3.8881 C   0  0  0  0  0  0  0  0  0  0  0  0
   -0.6740    0.3352   -2.8296 C   0  0  2  0  0  0  0  0  0  0  0  0
    0.5433   -0.4668   -2.6902 N   0  0  0  0  0  0  0  0  0  0  0  0
    1.6871    0.0010   -2.0424 C   0  0  0  0  0  0  0  0  0  0  0  0
    1.6514    1.1704   -1.5335 O   0  0  0  0  0  0  0  0  0  0  0  0
    2.9141   -0.7465   -1.8943 C   0  0  2  0  0  0  0  0  0  0  0  0
    2.9156   -2.0903   -2.5077 C   0  0  0  0  0  0  0  0  0  0  0  0
    2.7667   -2.0739   -3.9909 C   0  0  0  0  0  0  0  0  0  0  0  0
    2.9534   -0.8900   -4.7308 N   0  0  0  0  0  0  0  0  0  0  0  0
    2.4721   -3.1466   -4.5614 O   0  0  0  0  0  0  0  0  0  0  0  0
    3.3468   -0.7258   -0.5037 N   0  0  0  0  0  0  0  0  0  0  0  0
    4.4819   -0.0430   -0.0408 C   0  0  0  0  0  0  0  0  0  0  0  0
    5.1876    0.6036   -0.8386 O   0  0  0  0  0  0  0  0  0  0  0  0
    4.8470   -0.0925    1.4000 C   0  0  2  0  0  0  0  0  0  0  0  0
    3.6786    0.3799    2.2026 C   0  0  0  0  0  0  0  0  0  0  0  0
    3.8331    0.3882    3.6793 C   0  0  0  0  0  0  0  0  0  0  0  0
    4.7852    1.3254    4.2267 C   0  0  0  0  0  0  0  0  0  0  0  0
    5.5011    0.9567    5.4188 N   0  0  0  0  0  0  0  0  0  0  0  0
    5.0164    2.4662    3.7105 O   0  0  0  0  0  0  0  0  0  0  0  0
    6.0510    0.6683    1.5975 N   0  0  0  0  0  0  0  0  0  0  0  0
    7.2008    0.0540    2.1725 C   0  0  0  0  0  0  0  0  0  0  0  0
    8.4222    0.8447    2.3675 C   0  0  0  0  0  0  0  0  0  0  0  0
    7.1448   -1.1525    2.5007 O   0  0  0  0  0  0  0  0  0  0  0  0
   -1.3671    0.2407   -1.4592 C   0  0  0  0  0  0  0  0  0  0  0  0
   -0.7708   -0.4135   -0.6034 O   0  0  0  0  0  0  0  0  0  0  0  0
   -2.5816    0.8709   -1.2547 N   0  0  0  0  0  0  0  0  0  0  0  0
   -3.3769    0.8997   -0.0775 C   0  0  1  0  0  0  0  0  0  0  0  0
   -3.2292   -0.3405    0.7474 C   0  0  0  0  0  0  0  0  0  0  0  0
   -3.6903   -1.5276   -0.0637 C   0  0  0  0  0  0  0  0  0  0  0  0
   -3.5382   -2.8219    0.7120 C   0  0  0  0  0  0  0  0  0  0  0  0
   -3.9896   -3.9002   -0.1415 N   0  0  0  0  0  0  0  0  0  0  0  0
   -3.9458   -5.2204    0.3527 C   0  0  0  0  0  0  0  0  0  0  0  0
   -4.3408   -6.2918   -0.4701 N   0  0  0  0  0  0  0  0  0  0  0  0
   -3.5490   -5.4588    1.5463 N   0  0  0  0  0  0  0  0  0  0  0  0
   -3.1565    2.1639    0.6261 C   0  0  0  0  0  0  0  0  0  0  0  0
   -2.2960    2.9739    0.1463 O   0  0  0  0  0  0  0  0  0  0  0  0
   -3.8624    2.5522    1.8424 C   0  0  0  0  0  0  0  0  0  0  0  0
   -3.6479    3.6756    2.4959 N   0  0  0  0  0  0  0  0  0  0  0  0
   -4.3259    3.9547    3.5665 C   0  0  0  0  0  0  0  0  0  0  0  0
   -4.2026    5.1114    4.3618 C   0  0  0  0  0  0  0  0  0  0  0  0
   -4.9793    5.2688    5.4571 C   0  0  0  0  0  0  0  0  0  0  0  0
   -5.9240    4.3620    5.8869 C   0  0  0  0  0  0  0  0  0  0  0  0
   -6.0574    3.2262    5.1204 C   0  0  0  0  0  0  0  0  0  0  0  0
   -5.2628    3.0383    3.9786 C   0  0  0  0  0  0  0  0  0  0  0  0
   -5.0933    1.8256    2.7748 S   0  0  0  0  0  0  0  0  0  0  0  0
   -1.4295    1.8284   -5.8285 H   0  0  0  0  0  0  0  0  0  0  0  0
    0.3235    1.5009   -5.3108 H   0  0  0  0  0  0  0  0  0  0  0  0
   -0.2861    0.9411   -6.8812 H   0  0  0  0  0  0  0  0  0  0  0  0
   -0.0980   -0.8960   -5.3251 H   0  0  0  0  0  0  0  0  0  0  0  0
   -1.6943   -1.8890   -6.5352 H   0  0  0  0  0  0  0  0  0  0  0  0
   -2.1147   -0.2226   -7.1194 H   0  0  0  0  0  0  0  0  0  0  0  0
   -2.9940   -0.8954   -5.6960 H   0  0  0  0  0  0  0  0  0  0  0  0
   -2.5621    0.3270   -3.9218 H   0  0  0  0  0  0  0  0  0  0  0  0
   -1.8368   -1.2500   -3.6297 H   0  0  0  0  0  0  0  0  0  0  0  0
   -0.3752    1.3836   -2.8552 H   0  0  0  0  0  0  0  0  0  0  0  0
    0.4896   -1.4164   -3.0895 H   0  0  0  0  0  0  0  0  0  0  0  0
    3.7585   -0.1227   -2.4637 H   0  0  0  0  0  0  0  0  0  0  0  0
    2.0706   -2.7445   -2.1468 H   0  0  0  0  0  0  0  0  0  0  0  0
    3.8294   -2.6605   -2.2170 H   0  0  0  0  0  0  0  0  0  0  0  0
    2.2161   -0.4157   -5.2649 H   0  0  0  0  0  0  0  0  0  0  0  0
    3.9225   -0.4664   -4.7303 H   0  0  0  0  0  0  0  0  0  0  0  0
    2.7779   -1.2639    0.2251 H   0  0  0  0  0  0  0  0  0  0  0  0
    5.0443   -1.1671    1.6994 H   0  0  0  0  0  0  0  0  0  0  0  0
    3.3638    1.4147    1.8327 H   0  0  0  0  0  0  0  0  0  0  0  0
    2.7761   -0.2592    1.9502 H   0  0  0  0  0  0  0  0  0  0  0  0
    2.8499    0.5568    4.2020 H   0  0  0  0  0  0  0  0  0  0  0  0
    4.1207   -0.6717    3.9959 H   0  0  0  0  0  0  0  0  0  0  0  0
    6.5058    0.6653    5.3319 H   0  0  0  0  0  0  0  0  0  0  0  0
    5.0787    0.9618    6.3526 H   0  0  0  0  0  0  0  0  0  0  0  0
    6.1206    1.6594    1.3087 H   0  0  0  0  0  0  0  0  0  0  0  0
    8.9215    0.5145    3.3032 H   0  0  0  0  0  0  0  0  0  0  0  0
    9.1478    0.7706    1.5375 H   0  0  0  0  0  0  0  0  0  0  0  0
    8.1277    1.9175    2.4843 H   0  0  0  0  0  0  0  0  0  0  0  0
   -2.9514    1.4102   -2.1381 H   0  0  0  0  0  0  0  0  0  0  0  0
   -4.4825    0.8447   -0.4106 H   0  0  0  0  0  0  0  0  0  0  0  0
   -3.8923   -0.2655    1.6720 H   0  0  0  0  0  0  0  0  0  0  0  0
   -2.2163   -0.5021    1.1384 H   0  0  0  0  0  0  0  0  0  0  0  0
   -3.2253   -1.5620   -1.0461 H   0  0  0  0  0  0  0  0  0  0  0  0
   -4.7826   -1.3279   -0.2712 H   0  0  0  0  0  0  0  0  0  0  0  0
   -2.4675   -2.9256    0.9642 H   0  0  0  0  0  0  0  0  0  0  0  0
   -4.2018   -2.7426    1.5869 H   0  0  0  0  0  0  0  0  0  0  0  0
   -4.3451   -3.7163   -1.1165 H   0  0  0  0  0  0  0  0  0  0  0  0
   -5.2708   -6.2697   -0.9248 H   0  0  0  0  0  0  0  0  0  0  0  0
   -3.7115   -7.0951   -0.6224 H   0  0  0  0  0  0  0  0  0  0  0  0
   -3.2388   -4.7292    2.2225 H   0  0  0  0  0  0  0  0  0  0  0  0
   -3.4936    5.8904    4.1191 H   0  0  0  0  0  0  0  0  0  0  0  0
   -4.8694    6.1708    6.0650 H   0  0  0  0  0  0  0  0  0  0  0  0
   -6.5347    4.4892    6.7494 H   0  0  0  0  0  0  0  0  0  0  0  0
   -6.7490    2.4362    5.3305 H   0  0  0  0  0  0  0  0  0  0  0  0
  1  2  1  0
  2  3  1  0
  2  4  1  0
  4  5  1  0
  5  6  1  0
  6  7  1  0
  7  8  2  0
  7  9  1  0
  9 10  1  0
 10 11  1  0
 11 12  1  0
 11 13  2  0
  9 14  1  0
 14 15  1  0
 15 16  2  0
 15 17  1  0
 17 18  1  0
 18 19  1  0
 19 20  1  0
 20 21  1  0
 20 22  2  0
 17 23  1  0
 23 24  1  0
 24 25  1  0
 24 26  2  0
  5 27  1  0
 27 28  2  0
 27 29  1  0
 29 30  1  0
 30 31  1  0
 31 32  1  0
 32 33  1  0
 33 34  1  0
 34 35  1  0
 35 36  1  0
 35 37  2  3
 30 38  1  0
 38 39  2  0
 38 40  1  0
 40 41  2  0
 41 42  1  0
 42 43  2  0
 43 44  1  0
 44 45  2  0
 45 46  1  0
 46 47  2  0
 47 48  1  0
 48 40  1  0
 47 42  1  0
  1 49  1  0
  1 50  1  0
  1 51  1  0
  2 52  1  0
  3 53  1  0
  3 54  1  0
  3 55  1  0
  4 56  1  0
  4 57  1  0
  5 58  1  6
  6 59  1  0
  9 60  1  6
 10 61  1  0
 10 62  1  0
 12 63  1  0
 12 64  1  0
 14 65  1  0
 17 66  1  1
 18 67  1  0
 18 68  1  0
 19 69  1  0
 19 70  1  0
 21 71  1  0
 21 72  1  0
 23 73  1  0
 25 74  1  0
 25 75  1  0
 25 76  1  0
 29 77  1  0
 30 78  1  6
 31 79  1  0
 31 80  1  0
 32 81  1  0
 32 82  1  0
 33 83  1  0
 33 84  1  0
 34 85  1  0
 36 86  1  0
 36 87  1  0
 37 88  1  0
 43 89  1  0
 44 90  1  0
 45 91  1  0
 46 92  1  0
M  END
$$$$
[H]C#CC([H])([H])[N+]([H])(C([H])([H])[H])C([H])([H])C(=C([H])[H])c1c([H])c([H])c(OC([H])([H])c2c([H])c([H])c([H])c([H])c2[H])c([H])c1[H].[H]OC(=O)C(=O)[O-]
     RDKit          3D

 51 51  0  0  0  0  0  0  0  0999 V2000
   -1.2939   -0.1486   -0.7352 O   0  0  0  0  0  0  0  0  0  0  0  0
   -0.3604   -0.0204    0.2763 C   0  0  0  0  0  0  0  0  0  0  0  0
   -0.7565   -0.2395    1.4424 O   0  0  0  0  0  0  0  0  0  0  0  0
    0.9988    0.3539   -0.0683 C   0  0  0  0  0  0  0  0  0  0  0  0
    1.8975    0.4665    1.0104 O   0  0  0  0  0  0  0  0  0  0  0  0
    1.3963    0.5719   -1.2205 O   0  0  0  0  0  0  0  0  0  0  0  0
    3.8229    0.4701   -0.0428 C   0  0  0  0  0  0  0  0  0  0  0  0
    4.3235   -0.6723    0.6555 N   0  0  0  0  0  0  0  0  0  0  0  0
    4.3468   -0.5268    2.0941 C   0  0  0  0  0  0  0  0  0  0  0  0
    4.0683    0.8520    2.5173 C   0  0  0  0  0  0  0  0  0  0  0  0
    3.8518    1.9857    2.8831 C   0  0  0  0  0  0  0  0  0  0  0  0
    3.8333   -1.9435    0.2459 C   0  0  0  0  0  0  0  0  0  0  0  0
    2.8032   -1.9654   -0.7976 C   0  0  0  0  0  0  0  0  0  0  0  0
    3.0713   -2.5367   -1.9433 C   0  0  0  0  0  0  0  0  0  0  0  0
    1.4917   -1.3865   -0.6051 C   0  0  0  0  0  0  0  0  0  0  0  0
    0.6818   -0.9598   -1.6607 C   0  0  0  0  0  0  0  0  0  0  0  0
   -0.5816   -0.4428   -1.4606 C   0  0  0  0  0  0  0  0  0  0  0  0
   -1.1014   -0.3250   -0.1955 C   0  0  0  0  0  0  0  0  0  0  0  0
   -2.3622    0.1858    0.0694 O   0  0  0  0  0  0  0  0  0  0  0  0
   -3.1659    0.6132   -1.0272 C   0  0  0  0  0  0  0  0  0  0  0  0
   -4.4570    1.1153   -0.4939 C   0  0  0  0  0  0  0  0  0  0  0  0
   -5.5502    0.2585   -0.3270 C   0  0  0  0  0  0  0  0  0  0  0  0
   -6.7109    0.8057    0.1740 C   0  0  0  0  0  0  0  0  0  0  0  0
   -6.8227    2.1492    0.5091 C   0  0  0  0  0  0  0  0  0  0  0  0
   -5.7229    2.9537    0.3284 C   0  0  0  0  0  0  0  0  0  0  0  0
   -4.5542    2.4469   -0.1662 C   0  0  0  0  0  0  0  0  0  0  0  0
   -0.3366   -0.7340    0.8765 C   0  0  0  0  0  0  0  0  0  0  0  0
    0.9378   -1.2534    0.6442 C   0  0  0  0  0  0  0  0  0  0  0  0
   -1.8818   -0.9838   -0.7051 H   0  0  0  0  0  0  0  0  0  0  0  0
    3.0403    1.0081    0.5327 H   0  0  0  0  0  0  0  0  0  0  0  0
    3.5571    0.2027   -1.0659 H   0  0  0  0  0  0  0  0  0  0  0  0
    4.6900    1.1961   -0.1612 H   0  0  0  0  0  0  0  0  0  0  0  0
    5.3758   -0.6966    0.3965 H   0  0  0  0  0  0  0  0  0  0  0  0
    5.3318   -0.8540    2.5136 H   0  0  0  0  0  0  0  0  0  0  0  0
    3.6053   -1.2315    2.5144 H   0  0  0  0  0  0  0  0  0  0  0  0
    3.6509    2.9805    3.2000 H   0  0  0  0  0  0  0  0  0  0  0  0
    3.4252   -2.4334    1.1896 H   0  0  0  0  0  0  0  0  0  0  0  0
    4.6739   -2.6496   -0.0303 H   0  0  0  0  0  0  0  0  0  0  0  0
    2.3473   -2.5716   -2.7235 H   0  0  0  0  0  0  0  0  0  0  0  0
    4.0349   -2.9779   -2.1025 H   0  0  0  0  0  0  0  0  0  0  0  0
    1.0775   -1.0392   -2.6826 H   0  0  0  0  0  0  0  0  0  0  0  0
   -1.1759   -0.1250   -2.2940 H   0  0  0  0  0  0  0  0  0  0  0  0
   -2.6270    1.4563   -1.5061 H   0  0  0  0  0  0  0  0  0  0  0  0
   -3.3294   -0.2172   -1.7489 H   0  0  0  0  0  0  0  0  0  0  0  0
   -5.4437   -0.7850   -0.5936 H   0  0  0  0  0  0  0  0  0  0  0  0
   -7.5474    0.1509    0.3018 H   0  0  0  0  0  0  0  0  0  0  0  0
   -7.7357    2.5646    0.8998 H   0  0  0  0  0  0  0  0  0  0  0  0
   -5.8299    4.0094    0.5980 H   0  0  0  0  0  0  0  0  0  0  0  0
   -3.7133    3.1228   -0.2908 H   0  0  0  0  0  0  0  0  0  0  0  0
   -0.7384   -0.6448    1.8779 H   0  0  0  0  0  0  0  0  0  0  0  0
    1.4636   -1.5556    1.5347 H   0  0  0  0  0  0  0  0  0  0  0  0
  1  2  1  0
  2  3  2  0
  2  4  1  0
  4  5  1  0
  4  6  2  0
  7  8  1  0
  8  9  1  0
  9 10  1  0
 10 11  3  0
  8 12  1  0
 12 13  1  0
 13 14  2  3
 13 15  1  0
 15 16  2  0
 16 17  1  0
 17 18  2  0
 18 19  1  0
 19 20  1  0
 20 21  1  0
 21 22  2  0
 22 23  1  0
 23 24  2  0
 24 25  1  0
 25 26  2  0
 18 27  1  0
 27 28  2  0
 28 15  1  0
 26 21  1  0
  1 29  1  0
  7 30  1  0
  7 31  1  0
  7 32  1  0
  8 33  1  0
  9 34  1  0
  9 35  1  0
 11 36  1  0
 12 37  1  0
 12 38  1  0
 14 39  1  0
 14 40  1  0
 16 41  1  0
 17 42  1  0
 20 43  1  0
 20 44  1  0
 22 45  1  0
 23 46  1  0
 24 47  1  0
 25 48  1  0
 26 49  1  0
 27 50  1  0
 28 51  1  0
M  CHG  2   5  -1   8   1
M  END
$$$$
[H]OC(=O)C([H])([H])C([H])([H])[C@@]([H])(C(=O)N([H])[C@]([H])(C(=O)O[H])C([H])([H])c1c([H])c([H])c(O[H])c([H])c1[H])N([H])C(=O)[C@@]([H])(N([H])C(=O)C([H])([H])[H])C([H])([H])C([H])(C([H])([H])[H])C([H])([H])[H]
     RDKit          3D

 64 64  0  0  0  0  0  0  0  0999 V2000
   -1.7513    2.9968   -0.1009 C   0  0  0  0  0  0  0  0  0  0  0  0
   -2.8529    2.9318   -1.1137 C   0  0  0  0  0  0  0  0  0  0  0  0
   -2.3647    3.8254   -2.2798 C   0  0  0  0  0  0  0  0  0  0  0  0
   -3.1717    1.6128   -1.6643 C   0  0  0  0  0  0  0  0  0  0  0  0
   -3.6068    0.5308   -0.7115 C   0  0  2  0  0  0  0  0  0  0  0  0
   -4.7332    0.8830    0.0705 N   0  0  0  0  0  0  0  0  0  0  0  0
   -6.0368    0.3280   -0.0089 C   0  0  0  0  0  0  0  0  0  0  0  0
   -7.1465    0.7704    0.8613 C   0  0  0  0  0  0  0  0  0  0  0  0
   -6.2504   -0.5706   -0.8496 O   0  0  0  0  0  0  0  0  0  0  0  0
   -2.4326   -0.0091   -0.0094 C   0  0  0  0  0  0  0  0  0  0  0  0
   -2.4467    0.0378    1.2558 O   0  0  0  0  0  0  0  0  0  0  0  0
   -1.3199   -0.5664   -0.6555 N   0  0  0  0  0  0  0  0  0  0  0  0
   -0.1975   -1.0525    0.1168 C   0  0  1  0  0  0  0  0  0  0  0  0
   -0.6090   -2.5157    0.4745 C   0  0  0  0  0  0  0  0  0  0  0  0
   -0.8193   -3.2915   -0.7893 C   0  0  0  0  0  0  0  0  0  0  0  0
   -1.2054   -4.6800   -0.4297 C   0  0  0  0  0  0  0  0  0  0  0  0
   -1.4562   -5.5425   -1.5074 O   0  0  0  0  0  0  0  0  0  0  0  0
   -1.3130   -5.0946    0.7316 O   0  0  0  0  0  0  0  0  0  0  0  0
    1.0457   -1.0878   -0.6604 C   0  0  0  0  0  0  0  0  0  0  0  0
    1.0252   -0.8245   -1.9067 O   0  0  0  0  0  0  0  0  0  0  0  0
    2.2871   -1.4075   -0.0840 N   0  0  0  0  0  0  0  0  0  0  0  0
    3.5105   -1.4713   -0.8451 C   0  0  1  0  0  0  0  0  0  0  0  0
    4.2333   -0.1374   -0.9278 C   0  0  0  0  0  0  0  0  0  0  0  0
    4.6175    0.4385    0.3575 C   0  0  0  0  0  0  0  0  0  0  0  0
    5.8416    0.1744    0.9623 C   0  0  0  0  0  0  0  0  0  0  0  0
    6.1806    0.7491    2.1594 C   0  0  0  0  0  0  0  0  0  0  0  0
    5.3327    1.6124    2.8227 C   0  0  0  0  0  0  0  0  0  0  0  0
    5.6947    2.1986    4.0548 O   0  0  0  0  0  0  0  0  0  0  0  0
    4.1117    1.8892    2.2423 C   0  0  0  0  0  0  0  0  0  0  0  0
    3.7781    1.3095    1.0408 C   0  0  0  0  0  0  0  0  0  0  0  0
    4.3622   -2.5643   -0.3426 C   0  0  0  0  0  0  0  0  0  0  0  0
    5.5829   -2.8023   -0.9416 O   0  0  0  0  0  0  0  0  0  0  0  0
    3.9804   -3.2705    0.6212 O   0  0  0  0  0  0  0  0  0  0  0  0
   -1.3270    4.0506   -0.0661 H   0  0  0  0  0  0  0  0  0  0  0  0
   -0.9249    2.2970   -0.2649 H   0  0  0  0  0  0  0  0  0  0  0  0
   -2.1488    2.8202    0.9329 H   0  0  0  0  0  0  0  0  0  0  0  0
   -3.7171    3.4783   -0.6713 H   0  0  0  0  0  0  0  0  0  0  0  0
   -3.1694    3.8194   -3.0316 H   0  0  0  0  0  0  0  0  0  0  0  0
   -2.1580    4.8323   -1.9181 H   0  0  0  0  0  0  0  0  0  0  0  0
   -1.4466    3.3128   -2.6556 H   0  0  0  0  0  0  0  0  0  0  0  0
   -3.9305    1.6820   -2.4688 H   0  0  0  0  0  0  0  0  0  0  0  0
   -2.2430    1.2655   -2.2278 H   0  0  0  0  0  0  0  0  0  0  0  0
   -3.9697   -0.3585   -1.3508 H   0  0  0  0  0  0  0  0  0  0  0  0
   -4.5944    1.6383    0.7952 H   0  0  0  0  0  0  0  0  0  0  0  0
   -7.6384    1.6912    0.4497 H   0  0  0  0  0  0  0  0  0  0  0  0
   -7.9506    0.0086    0.9432 H   0  0  0  0  0  0  0  0  0  0  0  0
   -6.7474    1.0571    1.8587 H   0  0  0  0  0  0  0  0  0  0  0  0
   -1.2658   -0.6436   -1.6915 H   0  0  0  0  0  0  0  0  0  0  0  0
   -0.1197   -0.5624    1.0935 H   0  0  0  0  0  0  0  0  0  0  0  0
    0.1311   -2.9479    1.1514 H   0  0  0  0  0  0  0  0  0  0  0  0
   -1.5746   -2.4250    0.9911 H   0  0  0  0  0  0  0  0  0  0  0  0
    0.0952   -3.2781   -1.4413 H   0  0  0  0  0  0  0  0  0  0  0  0
   -1.6754   -2.8018   -1.3184 H   0  0  0  0  0  0  0  0  0  0  0  0
   -2.3781   -5.6482   -1.8838 H   0  0  0  0  0  0  0  0  0  0  0  0
    2.3283   -1.6114    0.9325 H   0  0  0  0  0  0  0  0  0  0  0  0
    3.2212   -1.6484   -1.9420 H   0  0  0  0  0  0  0  0  0  0  0  0
    5.1783   -0.3421   -1.5010 H   0  0  0  0  0  0  0  0  0  0  0  0
    3.6143    0.5348   -1.5648 H   0  0  0  0  0  0  0  0  0  0  0  0
    6.5735   -0.5015    0.4974 H   0  0  0  0  0  0  0  0  0  0  0  0
    7.1442    0.5432    2.6437 H   0  0  0  0  0  0  0  0  0  0  0  0
    6.1824    3.0849    4.1048 H   0  0  0  0  0  0  0  0  0  0  0  0
    3.4271    2.5582    2.7280 H   0  0  0  0  0  0  0  0  0  0  0  0
    2.7967    1.5396    0.5927 H   0  0  0  0  0  0  0  0  0  0  0  0
    6.4167   -2.8451   -0.3564 H   0  0  0  0  0  0  0  0  0  0  0  0
  1  2  1  0
  2  3  1  0
  2  4  1  0
  4  5  1  0
  5  6  1  0
  6  7  1  0
  7  8  1  0
  7  9  2  0
  5 10  1  0
 10 11  2  0
 10 12  1  0
 12 13  1  0
 13 14  1  0
 14 15  1  0
 15 16  1  0
 16 17  1  0
 16 18  2  0
 13 19  1  0
 19 20  2  0
 19 21  1  0
 21 22  1  0
 22 23  1  0
 23 24  1  0
 24 25  2  0
 25 26  1  0
 26 27  2  0
 27 28  1  0
 27 29  1  0
 29 30  2  0
 22 31  1  0
 31 32  1  0
 31 33  2  0
 30 24  1  0
  1 34  1  0
  1 35  1  0
  1 36  1  0
  2 37  1  0
  3 38  1  0
  3 39  1  0
  3 40  1  0
  4 41  1  0
  4 42  1  0
  5 43  1  6
  6 44  1  0
  8 45  1  0
  8 46  1  0
  8 47  1  0
 12 48  1  0
 13 49  1  1
 14 50  1  0
 14 51  1  0
 15 52  1  0
 15 53  1  0
 17 54  1  0
 21 55  1  0
 22 56  1  6
 23 57  1  0
 23 58  1  0
 25 59  1  0
 26 60  1  0
 28 61  1  0
 29 62  1  0
 30 63  1  0
 32 64  1  0
M  END
$$$$
[H]c1c([H])c(C([H])([H])[H])c([H])c([H])c1C(=O)O[C@]1([H])[C@@]([H])(OC([H])([H])[H])[C@@]([H])(C([H])([H])[H])O[C@]([H])(C([H])([H])[H])[C@@]1([H])OC(=O)c1c([H])c([H])c(C([H])([H])[H])c([H])c1[H]
     RDKit          3D

 58 60  0  0  0  0  0  0  0  0999 V2000
   -0.7377   -1.1916    3.4549 C   0  0  0  0  0  0  0  0  0  0  0  0
   -0.8974   -1.3356    2.1112 O   0  0  0  0  0  0  0  0  0  0  0  0
    0.1666   -1.5052    1.3292 C   0  0  2  0  0  0  0  0  0  0  0  0
    0.3371   -0.3121    0.3851 C   0  0  1  0  0  0  0  0  0  0  0  0
    1.7138   -0.1574    0.0936 O   0  0  0  0  0  0  0  0  0  0  0  0
    2.4468    0.9658    0.4678 C   0  0  0  0  0  0  0  0  0  0  0  0
    1.8051    1.8510    1.0905 O   0  0  0  0  0  0  0  0  0  0  0  0
    3.8632    1.0986    0.1547 C   0  0  0  0  0  0  0  0  0  0  0  0
    4.5388    2.2315    0.5486 C   0  0  0  0  0  0  0  0  0  0  0  0
    5.8991    2.3932    0.2655 C   0  0  0  0  0  0  0  0  0  0  0  0
    6.5892    1.4169   -0.4157 C   0  0  0  0  0  0  0  0  0  0  0  0
    8.0504    1.5926   -0.7188 C   0  0  0  0  0  0  0  0  0  0  0  0
    5.9203    0.2754   -0.8160 C   0  0  0  0  0  0  0  0  0  0  0  0
    4.5718    0.1357   -0.5248 C   0  0  0  0  0  0  0  0  0  0  0  0
   -0.4962   -0.4525   -0.8516 C   0  0  2  0  0  0  0  0  0  0  0  0
   -1.8594   -0.1987   -0.5400 O   0  0  0  0  0  0  0  0  0  0  0  0
   -2.5846    0.8382   -1.1086 C   0  0  0  0  0  0  0  0  0  0  0  0
   -1.9703    1.5628   -1.9323 O   0  0  0  0  0  0  0  0  0  0  0  0
   -3.9779    1.0995   -0.7917 C   0  0  0  0  0  0  0  0  0  0  0  0
   -4.6225    2.1485   -1.4012 C   0  0  0  0  0  0  0  0  0  0  0  0
   -5.9473    2.4580   -1.1496 C   0  0  0  0  0  0  0  0  0  0  0  0
   -6.6468    1.6907   -0.2585 C   0  0  0  0  0  0  0  0  0  0  0  0
   -8.0635    1.9885    0.0376 C   0  0  0  0  0  0  0  0  0  0  0  0
   -6.0240    0.6290    0.3696 C   0  0  0  0  0  0  0  0  0  0  0  0
   -4.6860    0.3326    0.1023 C   0  0  0  0  0  0  0  0  0  0  0  0
   -0.4262   -1.8067   -1.4856 C   0  0  1  0  0  0  0  0  0  0  0  0
    0.8321   -2.0382   -2.2783 C   0  0  0  0  0  0  0  0  0  0  0  0
   -0.6815   -2.7687   -0.5427 O   0  0  0  0  0  0  0  0  0  0  0  0
    0.2490   -2.7398    0.4892 C   0  0  2  0  0  0  0  0  0  0  0  0
    0.2325   -4.0095    1.3050 C   0  0  0  0  0  0  0  0  0  0  0  0
   -1.6432   -1.0569    4.0366 H   0  0  0  0  0  0  0  0  0  0  0  0
   -0.1529   -2.0114    3.9346 H   0  0  0  0  0  0  0  0  0  0  0  0
   -0.1159   -0.2688    3.6118 H   0  0  0  0  0  0  0  0  0  0  0  0
    1.0859   -1.4992    1.9685 H   0  0  0  0  0  0  0  0  0  0  0  0
   -0.0497    0.5773    0.9417 H   0  0  0  0  0  0  0  0  0  0  0  0
    3.9859    2.9914    1.0831 H   0  0  0  0  0  0  0  0  0  0  0  0
    6.4289    3.2786    0.5730 H   0  0  0  0  0  0  0  0  0  0  0  0
    8.4411    2.4620   -0.1903 H   0  0  0  0  0  0  0  0  0  0  0  0
    8.5677    0.6583   -0.3527 H   0  0  0  0  0  0  0  0  0  0  0  0
    8.1411    1.6459   -1.8053 H   0  0  0  0  0  0  0  0  0  0  0  0
    6.4744   -0.4663   -1.3415 H   0  0  0  0  0  0  0  0  0  0  0  0
    4.0629   -0.7557   -0.8409 H   0  0  0  0  0  0  0  0  0  0  0  0
   -0.1049    0.2809   -1.5975 H   0  0  0  0  0  0  0  0  0  0  0  0
   -4.0833    2.7607   -2.1049 H   0  0  0  0  0  0  0  0  0  0  0  0
   -6.4637    3.2808   -1.6234 H   0  0  0  0  0  0  0  0  0  0  0  0
   -8.4548    2.7062   -0.7186 H   0  0  0  0  0  0  0  0  0  0  0  0
   -8.1518    2.4681    1.0239 H   0  0  0  0  0  0  0  0  0  0  0  0
   -8.6546    1.0450   -0.0337 H   0  0  0  0  0  0  0  0  0  0  0  0
   -6.5984    0.0453    1.0636 H   0  0  0  0  0  0  0  0  0  0  0  0
   -4.2498   -0.5006    0.6152 H   0  0  0  0  0  0  0  0  0  0  0  0
   -1.2743   -1.8531   -2.2313 H   0  0  0  0  0  0  0  0  0  0  0  0
    0.7735   -1.3446   -3.1676 H   0  0  0  0  0  0  0  0  0  0  0  0
    1.7521   -1.7847   -1.7575 H   0  0  0  0  0  0  0  0  0  0  0  0
    0.8326   -3.0560   -2.6635 H   0  0  0  0  0  0  0  0  0  0  0  0
    1.2458   -2.7112   -0.0122 H   0  0  0  0  0  0  0  0  0  0  0  0
    0.5961   -3.8768    2.3253 H   0  0  0  0  0  0  0  0  0  0  0  0
    0.8436   -4.8205    0.8404 H   0  0  0  0  0  0  0  0  0  0  0  0
   -0.8290   -4.3873    1.2632 H   0  0  0  0  0  0  0  0  0  0  0  0
  1  2  1  0
  2  3  1  0
  3  4  1  0
  4  5  1  0
  5  6  1  0
  6  7  2  0
  6  8  1  0
  8  9  2  0
  9 10  1  0
 10 11  2  0
 11 12  1  0
 11 13  1  0
 13 14  2  0
  4 15  1  0
 15 16  1  0
 16 17  1  0
 17 18  2  0
 17 19  1  0
 19 20  2  0
 20 21  1  0
 21 22  2  0
 22 23  1  0
 22 24  1  0
 24 25  2  0
 15 26  1  0
 26 27  1  0
 26 28  1  0
 28 29  1  0
 29 30  1  0
 29  3  1  0
 14  8  1  0
 25 19  1  0
  1 31  1  0
  1 32  1  0
  1 33  1  0
  3 34  1  1
  4 35  1  1
  9 36  1  0
 10 37  1  0
 12 38  1  0
 12 39  1  0
 12 40  1  0
 13 41  1  0
 14 42  1  0
 15 43  1  6
 20 44  1  0
 21 45  1  0
 23 46  1  0
 23 47  1  0
 23 48  1  0
 24 49  1  0
 25 50  1  0
 26 51  1  6
 27 52  1  0
 27 53  1  0
 27 54  1  0
 29 55  1  6
 30 56  1  0
 30 57  1  0
 30 58  1  0
M  END
$$$$
[H]O[C@]12C([H])([H])[C@]([H])(C([H])([H])[H])[C@@]([H])(OC([H])([H])[H])[C@@]1(C([H])([H])[H])C([H])([H])C([H])([H])[C@]1([H])[C@]3(C([H])([H])[H])C(=C([H])C(=O)C([H])([H])C3([H])[H])C([H])([H])C([H])([H])[C@]12[H]
     RDKit          3D

 56 59  0  0  0  0  0  0  0  0999 V2000
    4.8891   -1.5331   -1.0714 C   0  0  0  0  0  0  0  0  0  0  0  0
    3.6352   -1.8877   -0.5504 O   0  0  0  0  0  0  0  0  0  0  0  0
    3.0710   -0.7529   -0.0256 C   0  0  2  0  0  0  0  0  0  0  0  0
    2.7090   -0.8510    1.4226 C   0  0  1  0  0  0  0  0  0  0  0  0
    3.8659   -0.4132    2.3069 C   0  0  0  0  0  0  0  0  0  0  0  0
    1.5694    0.1499    1.6203 C   0  0  0  0  0  0  0  0  0  0  0  0
    1.2300    0.6634    0.2763 C   0  0  2  0  0  0  0  0  0  0  0  0
    1.9472    1.8554    0.0698 O   0  0  0  0  0  0  0  0  0  0  0  0
   -0.1975    0.9337    0.0147 C   0  0  2  0  0  0  0  0  0  0  0  0
   -0.6571    2.1165    0.8536 C   0  0  0  0  0  0  0  0  0  0  0  0
   -1.9873    2.5372    0.2587 C   0  0  0  0  0  0  0  0  0  0  0  0
   -2.9168    1.3928    0.4884 C   0  0  0  0  0  0  0  0  0  0  0  0
   -4.0327    1.6692    1.1408 C   0  0  0  0  0  0  0  0  0  0  0  0
   -4.9727    0.6151    1.3966 C   0  0  0  0  0  0  0  0  0  0  0  0
   -5.9760    0.7925    2.1321 O   0  0  0  0  0  0  0  0  0  0  0  0
   -4.7743   -0.7115    0.7924 C   0  0  0  0  0  0  0  0  0  0  0  0
   -3.3479   -1.0589    0.5542 C   0  0  0  0  0  0  0  0  0  0  0  0
   -2.5304    0.0744   -0.0170 C   0  0  1  0  0  0  0  0  0  0  0  0
   -2.8126    0.0785   -1.5267 C   0  0  0  0  0  0  0  0  0  0  0  0
   -1.0792   -0.2693    0.2109 C   0  0  1  0  0  0  0  0  0  0  0  0
   -0.6151   -1.3125   -0.8088 C   0  0  0  0  0  0  0  0  0  0  0  0
    0.8365   -1.6082   -0.5728 C   0  0  0  0  0  0  0  0  0  0  0  0
    1.7258   -0.4139   -0.6628 C   0  0  2  0  0  0  0  0  0  0  0  0
    1.8969    0.0862   -2.0665 C   0  0  0  0  0  0  0  0  0  0  0  0
    5.4233   -2.3768   -1.5165 H   0  0  0  0  0  0  0  0  0  0  0  0
    4.8140   -0.7364   -1.8345 H   0  0  0  0  0  0  0  0  0  0  0  0
    5.4689   -1.1155   -0.1994 H   0  0  0  0  0  0  0  0  0  0  0  0
    3.7293    0.1492   -0.1385 H   0  0  0  0  0  0  0  0  0  0  0  0
    2.4308   -1.8643    1.7523 H   0  0  0  0  0  0  0  0  0  0  0  0
    4.1443    0.6221    2.0226 H   0  0  0  0  0  0  0  0  0  0  0  0
    3.4955   -0.3563    3.3542 H   0  0  0  0  0  0  0  0  0  0  0  0
    4.7374   -1.0594    2.1743 H   0  0  0  0  0  0  0  0  0  0  0  0
    0.7770   -0.3616    2.1594 H   0  0  0  0  0  0  0  0  0  0  0  0
    1.9031    1.0022    2.2749 H   0  0  0  0  0  0  0  0  0  0  0  0
    1.5870    2.3622   -0.7064 H   0  0  0  0  0  0  0  0  0  0  0  0
   -0.3109    1.2495   -1.0439 H   0  0  0  0  0  0  0  0  0  0  0  0
    0.0647    2.9401    0.6318 H   0  0  0  0  0  0  0  0  0  0  0  0
   -0.7206    1.8884    1.9203 H   0  0  0  0  0  0  0  0  0  0  0  0
   -1.8253    2.6096   -0.8386 H   0  0  0  0  0  0  0  0  0  0  0  0
   -2.3335    3.4749    0.7013 H   0  0  0  0  0  0  0  0  0  0  0  0
   -4.2598    2.6723    1.4898 H   0  0  0  0  0  0  0  0  0  0  0  0
   -5.3908   -0.8058   -0.1489 H   0  0  0  0  0  0  0  0  0  0  0  0
   -5.1995   -1.4694    1.4824 H   0  0  0  0  0  0  0  0  0  0  0  0
   -2.9035   -1.4965    1.4699 H   0  0  0  0  0  0  0  0  0  0  0  0
   -3.3313   -1.8961   -0.2027 H   0  0  0  0  0  0  0  0  0  0  0  0
   -2.0417    0.6204   -2.0796 H   0  0  0  0  0  0  0  0  0  0  0  0
   -2.9404   -0.9729   -1.8563 H   0  0  0  0  0  0  0  0  0  0  0  0
   -3.8343    0.5420   -1.6418 H   0  0  0  0  0  0  0  0  0  0  0  0
   -0.9921   -0.7350    1.1992 H   0  0  0  0  0  0  0  0  0  0  0  0
   -1.1787   -2.2502   -0.7249 H   0  0  0  0  0  0  0  0  0  0  0  0
   -0.7200   -0.9170   -1.8493 H   0  0  0  0  0  0  0  0  0  0  0  0
    1.1740   -2.3377   -1.3537 H   0  0  0  0  0  0  0  0  0  0  0  0
    0.9294   -2.1130    0.3939 H   0  0  0  0  0  0  0  0  0  0  0  0
    2.4015   -0.6998   -2.6552 H   0  0  0  0  0  0  0  0  0  0  0  0
    0.9083    0.2715   -2.4943 H   0  0  0  0  0  0  0  0  0  0  0  0
    2.5172    1.0068   -2.0171 H   0  0  0  0  0  0  0  0  0  0  0  0
  1  2  1  0
  2  3  1  0
  3  4  1  0
  4  5  1  0
  4  6  1  0
  6  7  1  0
  7  8  1  6
  7  9  1  0
  9 10  1  0
 10 11  1  0
 11 12  1  0
 12 13  2  0
 13 14  1  0
 14 15  2  0
 14 16  1  0
 16 17  1  0
 17 18  1  0
 18 19  1  6
 18 20  1  0
 20 21  1  0
 21 22  1  0
 22 23  1  0
 23 24  1  6
 23  3  1  0
 23  7  1  0
 20  9  1  0
 18 12  1  0
  1 25  1  0
  1 26  1  0
  1 27  1  0
  3 28  1  1
  4 29  1  1
  5 30  1  0
  5 31  1  0
  5 32  1  0
  6 33  1  0
  6 34  1  0
  8 35  1  0
  9 36  1  6
 10 37  1  0
 10 38  1  0
 11 39  1  0
 11 40  1  0
 13 41  1  0
 16 42  1  0
 16 43  1  0
 17 44  1  0
 17 45  1  0
 19 46  1  0
 19 47  1  0
 19 48  1  0
 20 49  1  1
 21 50  1  0
 21 51  1  0
 22 52  1  0
 22 53  1  0
 24 54  1  0
 24 55  1  0
 24 56  1  0
M  END
$$$$
[H]ON([H])C(=O)C([H])([H])[C@]([H])(C(=O)N([H])[C@]([H])(C(=O)N([H])C([H])([H])[H])C([H])([H])c1c([H])n([H])c2c([H])c([H])c([H])c([H])c12)C([H])([H])C([H])(C([H])([H])[H])C([H])([H])[H]
     RDKit          3D

 56 57  0  0  0  0  0  0  0  0999 V2000
    2.8825    0.5675    3.6143 C   0  0  0  0  0  0  0  0  0  0  0  0
    2.4131   -0.3051    2.5628 N   0  0  0  0  0  0  0  0  0  0  0  0
    1.1376   -0.1923    1.9583 C   0  0  0  0  0  0  0  0  0  0  0  0
    0.4139    0.7542    2.4268 O   0  0  0  0  0  0  0  0  0  0  0  0
    0.5840   -1.0240    0.9000 C   0  0  2  0  0  0  0  0  0  0  0  0
    1.1395   -0.9807   -0.4649 C   0  0  0  0  0  0  0  0  0  0  0  0
    2.5448   -1.2939   -0.7006 C   0  0  0  0  0  0  0  0  0  0  0  0
    3.1273   -2.5404   -0.9265 C   0  0  0  0  0  0  0  0  0  0  0  0
    4.4505   -2.3884   -1.0547 N   0  0  0  0  0  0  0  0  0  0  0  0
    4.7831   -1.0918   -0.9255 C   0  0  0  0  0  0  0  0  0  0  0  0
    5.9829   -0.4094   -0.9913 C   0  0  0  0  0  0  0  0  0  0  0  0
    6.0295    0.9766   -0.8402 C   0  0  0  0  0  0  0  0  0  0  0  0
    4.8665    1.6925   -0.6205 C   0  0  0  0  0  0  0  0  0  0  0  0
    3.6984    0.9797   -0.5608 C   0  0  0  0  0  0  0  0  0  0  0  0
    3.6231   -0.4044   -0.7075 C   0  0  0  0  0  0  0  0  0  0  0  0
   -0.8696   -0.7858    0.7594 N   0  0  0  0  0  0  0  0  0  0  0  0
   -1.4594    0.3923    0.2927 C   0  0  0  0  0  0  0  0  0  0  0  0
   -0.7362    1.3624   -0.0376 O   0  0  0  0  0  0  0  0  0  0  0  0
   -2.9167    0.5950    0.1530 C   0  0  2  0  0  0  0  0  0  0  0  0
   -3.5776   -0.1837   -0.9215 C   0  0  0  0  0  0  0  0  0  0  0  0
   -3.5618   -1.6552   -0.8841 C   0  0  0  0  0  0  0  0  0  0  0  0
   -4.3210   -2.1288   -2.1551 C   0  0  0  0  0  0  0  0  0  0  0  0
   -4.3671   -2.2502    0.2522 C   0  0  0  0  0  0  0  0  0  0  0  0
   -3.3057    2.0319    0.0565 C   0  0  0  0  0  0  0  0  0  0  0  0
   -2.8056    2.7987   -1.0819 C   0  0  0  0  0  0  0  0  0  0  0  0
   -2.1923    2.3659   -2.0853 O   0  0  0  0  0  0  0  0  0  0  0  0
   -3.0241    4.2153   -1.0860 N   0  0  0  0  0  0  0  0  0  0  0  0
   -2.6191    5.0310   -2.0621 O   0  0  0  0  0  0  0  0  0  0  0  0
    2.9729    1.5952    3.1545 H   0  0  0  0  0  0  0  0  0  0  0  0
    3.8601    0.2491    3.9718 H   0  0  0  0  0  0  0  0  0  0  0  0
    2.1298    0.6837    4.4202 H   0  0  0  0  0  0  0  0  0  0  0  0
    3.0439   -1.0645    2.2412 H   0  0  0  0  0  0  0  0  0  0  0  0
    0.6756   -2.1046    1.2521 H   0  0  0  0  0  0  0  0  0  0  0  0
    0.5298   -1.7106   -1.0765 H   0  0  0  0  0  0  0  0  0  0  0  0
    0.9474    0.0330   -0.9146 H   0  0  0  0  0  0  0  0  0  0  0  0
    2.5862   -3.4605   -0.9850 H   0  0  0  0  0  0  0  0  0  0  0  0
    5.1688   -3.1499   -1.2329 H   0  0  0  0  0  0  0  0  0  0  0  0
    6.8973   -0.9723   -1.1639 H   0  0  0  0  0  0  0  0  0  0  0  0
    6.9472    1.5222   -0.8877 H   0  0  0  0  0  0  0  0  0  0  0  0
    4.9106    2.7658   -0.5051 H   0  0  0  0  0  0  0  0  0  0  0  0
    2.7481    1.4901   -0.3895 H   0  0  0  0  0  0  0  0  0  0  0  0
   -1.5060   -1.5607    1.0514 H   0  0  0  0  0  0  0  0  0  0  0  0
   -3.3162    0.2740    1.1866 H   0  0  0  0  0  0  0  0  0  0  0  0
   -4.6266    0.2085   -1.0486 H   0  0  0  0  0  0  0  0  0  0  0  0
   -3.0871    0.1264   -1.8973 H   0  0  0  0  0  0  0  0  0  0  0  0
   -2.5846   -2.1335   -0.9321 H   0  0  0  0  0  0  0  0  0  0  0  0
   -4.4251   -3.2295   -2.0583 H   0  0  0  0  0  0  0  0  0  0  0  0
   -5.3355   -1.6925   -2.1540 H   0  0  0  0  0  0  0  0  0  0  0  0
   -3.7115   -1.8425   -3.0258 H   0  0  0  0  0  0  0  0  0  0  0  0
   -4.7665   -3.2237   -0.0788 H   0  0  0  0  0  0  0  0  0  0  0  0
   -5.2263   -1.6145    0.5307 H   0  0  0  0  0  0  0  0  0  0  0  0
   -3.7162   -2.4784    1.1375 H   0  0  0  0  0  0  0  0  0  0  0  0
   -4.4174    2.1294    0.0985 H   0  0  0  0  0  0  0  0  0  0  0  0
   -2.9382    2.5840    0.9806 H   0  0  0  0  0  0  0  0  0  0  0  0
   -3.5298    4.6223   -0.2755 H   0  0  0  0  0  0  0  0  0  0  0  0
   -2.1514    5.8253   -1.7223 H   0  0  0  0  0  0  0  0  0  0  0  0
  1  2  1  0
  2  3  1  0
  3  4  2  0
  3  5  1  0
  5  6  1  0
  6  7  1  0
  7  8  2  0
  8  9  1  0
  9 10  1  0
 10 11  2  0
 11 12  1  0
 12 13  2  0
 13 14  1  0
 14 15  2  0
  5 16  1  0
 16 17  1  0
 17 18  2  0
 17 19  1  0
 19 20  1  0
 20 21  1  0
 21 22  1  0
 21 23  1  0
 19 24  1  0
 24 25  1  0
 25 26  2  0
 25 27  1  0
 27 28  1  0
 15  7  1  0
 15 10  1  0
  1 29  1  0
  1 30  1  0
  1 31  1  0
  2 32  1  0
  5 33  1  1
  6 34  1  0
  6 35  1  0
  8 36  1  0
  9 37  1  0
 11 38  1  0
 12 39  1  0
 13 40  1  0
 14 41  1  0
 16 42  1  0
 19 43  1  1
 20 44  1  0
 20 45  1  0
 21 46  1  0
 22 47  1  0
 22 48  1  0
 22 49  1  0
 23 50  1  0
 23 51  1  0
 23 52  1  0
 24 53  1  0
 24 54  1  0
 27 55  1  0
 28 56  1  0
M  END
$$$$
[H]c1nc(N([H])c2c([H])c(OC([H])([H])[H])c(OC([H])([H])[H])c(OC([H])([H])[H])c2[H])nc(N([H])c2nc3c(c([H])c2[H])OC(C([H])([H])[H])(C([H])([H])[H])C(=O)N3[H])c1F
     RDKit          3D

 57 60  0  0  0  0  0  0  0  0999 V2000
   -5.6364    2.1181   -1.8630 C   0  0  0  0  0  0  0  0  0  0  0  0
   -5.8443    0.7587   -1.5880 O   0  0  0  0  0  0  0  0  0  0  0  0
   -4.8072    0.0010   -1.0783 C   0  0  0  0  0  0  0  0  0  0  0  0
   -3.5618    0.6012   -0.8432 C   0  0  0  0  0  0  0  0  0  0  0  0
   -2.5031   -0.0703   -0.3477 C   0  0  0  0  0  0  0  0  0  0  0  0
   -1.2316    0.4626   -0.0655 N   0  0  0  0  0  0  0  0  0  0  0  0
   -0.9067    1.8244    0.0656 C   0  0  0  0  0  0  0  0  0  0  0  0
   -1.7494    2.8585   -0.0431 N   0  0  0  0  0  0  0  0  0  0  0  0
   -1.4116    4.1432    0.0863 C   0  0  0  0  0  0  0  0  0  0  0  0
   -0.1125    4.4539    0.3502 C   0  0  0  0  0  0  0  0  0  0  0  0
    0.3587    5.6995    0.5032 F   0  0  0  0  0  0  0  0  0  0  0  0
    0.8217    3.4140    0.4762 C   0  0  0  0  0  0  0  0  0  0  0  0
    2.1801    3.7060    0.7505 N   0  0  0  0  0  0  0  0  0  0  0  0
    3.1050    2.6399    0.8733 C   0  0  0  0  0  0  0  0  0  0  0  0
    4.4571    2.8965    1.1446 C   0  0  0  0  0  0  0  0  0  0  0  0
    5.3443    1.8517    1.2613 C   0  0  0  0  0  0  0  0  0  0  0  0
    4.9285    0.5481    1.1161 C   0  0  0  0  0  0  0  0  0  0  0  0
    5.7961   -0.5293    1.2273 O   0  0  0  0  0  0  0  0  0  0  0  0
    5.5066   -1.7939    0.6515 C   0  0  0  0  0  0  0  0  0  0  0  0
    6.2846   -2.8749    1.3459 C   0  0  0  0  0  0  0  0  0  0  0  0
    5.8127   -1.7705   -0.8228 C   0  0  0  0  0  0  0  0  0  0  0  0
    4.0556   -2.1122    0.8177 C   0  0  0  0  0  0  0  0  0  0  0  0
    3.6763   -3.3008    1.0572 O   0  0  0  0  0  0  0  0  0  0  0  0
    3.1427   -1.0383    0.6962 N   0  0  0  0  0  0  0  0  0  0  0  0
    3.5828    0.3027    0.8467 C   0  0  0  0  0  0  0  0  0  0  0  0
    2.7547    1.3550    0.7416 N   0  0  0  0  0  0  0  0  0  0  0  0
    0.3826    2.1601    0.3289 N   0  0  0  0  0  0  0  0  0  0  0  0
   -2.7045   -1.4372   -0.0691 C   0  0  0  0  0  0  0  0  0  0  0  0
   -3.9082   -2.0549   -0.2874 C   0  0  0  0  0  0  0  0  0  0  0  0
   -4.0666   -3.3859   -0.0045 O   0  0  0  0  0  0  0  0  0  0  0  0
   -2.9762   -4.1177    0.5153 C   0  0  0  0  0  0  0  0  0  0  0  0
   -4.9761   -1.3425   -0.7952 C   0  0  0  0  0  0  0  0  0  0  0  0
   -6.2188   -1.9257   -1.0338 O   0  0  0  0  0  0  0  0  0  0  0  0
   -7.1743   -1.9137    0.0186 C   0  0  0  0  0  0  0  0  0  0  0  0
   -4.7813    2.3111   -2.5387 H   0  0  0  0  0  0  0  0  0  0  0  0
   -5.4850    2.7232   -0.9417 H   0  0  0  0  0  0  0  0  0  0  0  0
   -6.5386    2.5082   -2.4098 H   0  0  0  0  0  0  0  0  0  0  0  0
   -3.4970    1.6360   -1.0973 H   0  0  0  0  0  0  0  0  0  0  0  0
   -0.4103   -0.2136    0.0641 H   0  0  0  0  0  0  0  0  0  0  0  0
   -2.1604    4.9024   -0.0184 H   0  0  0  0  0  0  0  0  0  0  0  0
    2.4712    4.6872    0.8556 H   0  0  0  0  0  0  0  0  0  0  0  0
    4.7318    3.9285    1.2492 H   0  0  0  0  0  0  0  0  0  0  0  0
    6.3943    2.0780    1.4734 H   0  0  0  0  0  0  0  0  0  0  0  0
    5.7812   -3.1588    2.2953 H   0  0  0  0  0  0  0  0  0  0  0  0
    7.3278   -2.5920    1.5737 H   0  0  0  0  0  0  0  0  0  0  0  0
    6.3119   -3.7970    0.7168 H   0  0  0  0  0  0  0  0  0  0  0  0
    5.5475   -2.7321   -1.2838 H   0  0  0  0  0  0  0  0  0  0  0  0
    5.2428   -0.9509   -1.3072 H   0  0  0  0  0  0  0  0  0  0  0  0
    6.8942   -1.5474   -0.9277 H   0  0  0  0  0  0  0  0  0  0  0  0
    2.1474   -1.2464    0.4955 H   0  0  0  0  0  0  0  0  0  0  0  0
   -1.8577   -2.0119    0.3366 H   0  0  0  0  0  0  0  0  0  0  0  0
   -2.2185   -4.1935   -0.2936 H   0  0  0  0  0  0  0  0  0  0  0  0
   -3.3828   -5.1246    0.7905 H   0  0  0  0  0  0  0  0  0  0  0  0
   -2.5554   -3.6060    1.4036 H   0  0  0  0  0  0  0  0  0  0  0  0
   -7.4919   -2.9486    0.2973 H   0  0  0  0  0  0  0  0  0  0  0  0
   -8.0902   -1.3564   -0.3279 H   0  0  0  0  0  0  0  0  0  0  0  0
   -6.7818   -1.4227    0.9319 H   0  0  0  0  0  0  0  0  0  0  0  0
  1  2  1  0
  2  3  1  0
  3  4  2  0
  4  5  1  0
  5  6  1  0
  6  7  1  0
  7  8  2  0
  8  9  1  0
  9 10  2  0
 10 11  1  0
 10 12  1  0
 12 13  1  0
 13 14  1  0
 14 15  2  0
 15 16  1  0
 16 17  2  0
 17 18  1  0
 18 19  1  0
 19 20  1  0
 19 21  1  0
 19 22  1  0
 22 23  2  0
 22 24  1  0
 24 25  1  0
 25 26  2  0
 12 27  2  0
  5 28  2  0
 28 29  1  0
 29 30  1  0
 30 31  1  0
 29 32  2  0
 32 33  1  0
 33 34  1  0
 32  3  1  0
 27  7  1  0
 26 14  1  0
 25 17  1  0
  1 35  1  0
  1 36  1  0
  1 37  1  0
  4 38  1  0
  6 39  1  0
  9 40  1  0
 13 41  1  0
 15 42  1  0
 16 43  1  0
 20 44  1  0
 20 45  1  0
 20 46  1  0
 21 47  1  0
 21 48  1  0
 21 49  1  0
 24 50  1  0
 28 51  1  0
 31 52  1  0
 31 53  1  0
 31 54  1  0
 34 55  1  0
 34 56  1  0
 34 57  1  0
M  END
$$$$
[H]O[C@@]1([H])C([H])([H])C([H])([H])[C@]2([H])[C@]1(C([H])([H])[H])C([H])([H])C([H])([H])[C@]1([H])[C@]3(C([H])([H])[H])C(=C([H])C(=O)C([H])([H])C3([H])[H])C([H])([H])C([H])([H])[C@@]21[H]
     RDKit          3D

 49 52  0  0  0  0  0  0  0  0999 V2000
    2.6003    1.3949    0.7370 C   0  0  0  0  0  0  0  0  0  0  0  0
    2.3315    0.4990   -0.4424 C   0  0  2  0  0  0  0  0  0  0  0  0
    1.5103    1.1614   -1.4949 C   0  0  0  0  0  0  0  0  0  0  0  0
    0.1483    1.4556   -0.9170 C   0  0  0  0  0  0  0  0  0  0  0  0
   -0.5369    0.1560   -0.5507 C   0  0  1  0  0  0  0  0  0  0  0  0
    0.2754   -0.6369    0.4710 C   0  0  1  0  0  0  0  0  0  0  0  0
   -0.3169   -2.0384    0.5263 C   0  0  0  0  0  0  0  0  0  0  0  0
   -1.7749   -2.0482    0.8169 C   0  0  0  0  0  0  0  0  0  0  0  0
   -2.5405   -0.9871    0.1457 C   0  0  0  0  0  0  0  0  0  0  0  0
   -3.7658   -1.2727   -0.2625 C   0  0  0  0  0  0  0  0  0  0  0  0
   -4.6079   -0.3042   -0.9341 C   0  0  0  0  0  0  0  0  0  0  0  0
   -5.6066   -0.6232   -1.6118 O   0  0  0  0  0  0  0  0  0  0  0  0
   -4.2087    1.1393   -0.7699 C   0  0  0  0  0  0  0  0  0  0  0  0
   -2.7163    1.1869   -1.0278 C   0  0  0  0  0  0  0  0  0  0  0  0
   -1.9296    0.3620   -0.0560 C   0  0  2  0  0  0  0  0  0  0  0  0
   -1.9459    1.0713    1.2829 C   0  0  0  0  0  0  0  0  0  0  0  0
    1.6457   -0.7900   -0.0472 C   0  0  2  0  0  0  0  0  0  0  0  0
    2.6444   -1.3862    0.8737 C   0  0  0  0  0  0  0  0  0  0  0  0
    3.9631   -1.0731    0.1623 C   0  0  0  0  0  0  0  0  0  0  0  0
    3.6050   -0.1289   -0.9688 C   0  0  2  0  0  0  0  0  0  0  0  0
    4.5812    0.7519   -1.2889 O   0  0  0  0  0  0  0  0  0  0  0  0
    3.6756    1.2716    1.0471 H   0  0  0  0  0  0  0  0  0  0  0  0
    1.9625    1.2047    1.6015 H   0  0  0  0  0  0  0  0  0  0  0  0
    2.4819    2.4492    0.4115 H   0  0  0  0  0  0  0  0  0  0  0  0
    1.9872    2.1545   -1.7263 H   0  0  0  0  0  0  0  0  0  0  0  0
    1.4562    0.5158   -2.3781 H   0  0  0  0  0  0  0  0  0  0  0  0
   -0.4734    1.9510   -1.6671 H   0  0  0  0  0  0  0  0  0  0  0  0
    0.2714    2.1214   -0.0498 H   0  0  0  0  0  0  0  0  0  0  0  0
   -0.5888   -0.4547   -1.4753 H   0  0  0  0  0  0  0  0  0  0  0  0
    0.1940   -0.1895    1.4684 H   0  0  0  0  0  0  0  0  0  0  0  0
   -0.0876   -2.5040   -0.4691 H   0  0  0  0  0  0  0  0  0  0  0  0
    0.2474   -2.5825    1.3004 H   0  0  0  0  0  0  0  0  0  0  0  0
   -2.1698   -3.0559    0.5263 H   0  0  0  0  0  0  0  0  0  0  0  0
   -1.9002   -2.0016    1.9294 H   0  0  0  0  0  0  0  0  0  0  0  0
   -4.1853   -2.2671   -0.1012 H   0  0  0  0  0  0  0  0  0  0  0  0
   -4.4637    1.4087    0.2637 H   0  0  0  0  0  0  0  0  0  0  0  0
   -4.7180    1.7173   -1.5432 H   0  0  0  0  0  0  0  0  0  0  0  0
   -2.5697    0.8169   -2.0700 H   0  0  0  0  0  0  0  0  0  0  0  0
   -2.4147    2.2480   -0.9356 H   0  0  0  0  0  0  0  0  0  0  0  0
   -2.6695    1.9362    1.2729 H   0  0  0  0  0  0  0  0  0  0  0  0
   -2.2828    0.4031    2.1004 H   0  0  0  0  0  0  0  0  0  0  0  0
   -0.9566    1.5164    1.5155 H   0  0  0  0  0  0  0  0  0  0  0  0
    1.6091   -1.4204   -0.9702 H   0  0  0  0  0  0  0  0  0  0  0  0
    2.6340   -0.7940    1.8359 H   0  0  0  0  0  0  0  0  0  0  0  0
    2.5188   -2.4554    1.0564 H   0  0  0  0  0  0  0  0  0  0  0  0
    4.3735   -2.0337   -0.2265 H   0  0  0  0  0  0  0  0  0  0  0  0
    4.6899   -0.6220    0.8558 H   0  0  0  0  0  0  0  0  0  0  0  0
    3.3380   -0.7531   -1.8418 H   0  0  0  0  0  0  0  0  0  0  0  0
    4.6855    1.5297   -0.7163 H   0  0  0  0  0  0  0  0  0  0  0  0
  2  1  1  1
  2  3  1  0
  3  4  1  0
  4  5  1  0
  5  6  1  0
  6  7  1  0
  7  8  1  0
  8  9  1  0
  9 10  2  0
 10 11  1  0
 11 12  2  0
 11 13  1  0
 13 14  1  0
 14 15  1  0
 15 16  1  1
  6 17  1  0
 17 18  1  0
 18 19  1  0
 19 20  1  0
 20 21  1  0
 17  2  1  0
 20  2  1  0
 15  5  1  0
 15  9  1  0
  1 22  1  0
  1 23  1  0
  1 24  1  0
  3 25  1  0
  3 26  1  0
  4 27  1  0
  4 28  1  0
  5 29  1  6
  6 30  1  1
  7 31  1  0
  7 32  1  0
  8 33  1  0
  8 34  1  0
 10 35  1  0
 13 36  1  0
 13 37  1  0
 14 38  1  0
 14 39  1  0
 16 40  1  0
 16 41  1  0
 16 42  1  0
 17 43  1  6
 18 44  1  0
 18 45  1  0
 19 46  1  0
 19 47  1  0
 20 48  1  6
 21 49  1  0
M  END
$$$$
[H]C#Cc1c([H])c([H])c([H])c(N([H])c2nc3c([H])c(C(=O)O[H])c([H])c([H])c3c3c([H])nc([H])nc23)c1[H]
     RDKit          3D

 38 41  0  0  0  0  0  0  0  0999 V2000
    6.0025   -2.5416    0.8040 O   0  0  0  0  0  0  0  0  0  0  0  0
    4.6179   -2.5387    0.7233 C   0  0  0  0  0  0  0  0  0  0  0  0
    4.0072   -3.6275    0.8662 O   0  0  0  0  0  0  0  0  0  0  0  0
    3.8687   -1.3056    0.4779 C   0  0  0  0  0  0  0  0  0  0  0  0
    4.5510   -0.1093    0.3215 C   0  0  0  0  0  0  0  0  0  0  0  0
    3.8396    1.0508    0.0903 C   0  0  0  0  0  0  0  0  0  0  0  0
    2.4674    1.0092    0.0175 C   0  0  0  0  0  0  0  0  0  0  0  0
    1.7815   -0.2021    0.1761 C   0  0  0  0  0  0  0  0  0  0  0  0
    2.5039   -1.3399    0.4044 C   0  0  0  0  0  0  0  0  0  0  0  0
    0.4478   -0.2383    0.1047 N   0  0  0  0  0  0  0  0  0  0  0  0
   -0.3447    0.8154   -0.1138 C   0  0  0  0  0  0  0  0  0  0  0  0
   -1.7428    0.7696   -0.1712 N   0  0  0  0  0  0  0  0  0  0  0  0
   -2.5987   -0.3485   -0.0520 C   0  0  0  0  0  0  0  0  0  0  0  0
   -2.2276   -1.6549   -0.1673 C   0  0  0  0  0  0  0  0  0  0  0  0
   -3.1268   -2.7245   -0.0153 C   0  0  0  0  0  0  0  0  0  0  0  0
   -4.4407   -2.4412    0.2619 C   0  0  0  0  0  0  0  0  0  0  0  0
   -4.8665   -1.1471    0.3875 C   0  0  0  0  0  0  0  0  0  0  0  0
   -3.9554   -0.1348    0.2316 C   0  0  0  0  0  0  0  0  0  0  0  0
   -6.2564   -0.8287    0.6809 C   0  0  0  0  0  0  0  0  0  0  0  0
   -7.4032   -0.5682    0.9427 C   0  0  0  0  0  0  0  0  0  0  0  0
    0.2858    2.0407   -0.2779 C   0  0  0  0  0  0  0  0  0  0  0  0
   -0.4563    3.1575   -0.5040 N   0  0  0  0  0  0  0  0  0  0  0  0
    0.1845    4.3161   -0.6568 C   0  0  0  0  0  0  0  0  0  0  0  0
    1.5189    4.4159   -0.5957 N   0  0  0  0  0  0  0  0  0  0  0  0
    2.2788    3.3283   -0.3734 C   0  0  0  0  0  0  0  0  0  0  0  0
    1.6574    2.1138   -0.2103 C   0  0  0  0  0  0  0  0  0  0  0  0
    6.5050   -2.7626    1.6482 H   0  0  0  0  0  0  0  0  0  0  0  0
    5.6272   -0.1597    0.3922 H   0  0  0  0  0  0  0  0  0  0  0  0
    4.4034    1.9483   -0.0240 H   0  0  0  0  0  0  0  0  0  0  0  0
    2.0132   -2.2989    0.5329 H   0  0  0  0  0  0  0  0  0  0  0  0
   -2.2289    1.7221   -0.3336 H   0  0  0  0  0  0  0  0  0  0  0  0
   -1.2038   -1.9082   -0.3980 H   0  0  0  0  0  0  0  0  0  0  0  0
   -2.7803   -3.7528   -0.1167 H   0  0  0  0  0  0  0  0  0  0  0  0
   -5.1925   -3.2276    0.3922 H   0  0  0  0  0  0  0  0  0  0  0  0
   -4.2666    0.9036    0.3275 H   0  0  0  0  0  0  0  0  0  0  0  0
   -8.4146   -0.3437    1.1860 H   0  0  0  0  0  0  0  0  0  0  0  0
   -0.4021    5.2343   -0.8413 H   0  0  0  0  0  0  0  0  0  0  0  0
    3.3464    3.3789   -0.3197 H   0  0  0  0  0  0  0  0  0  0  0  0
  1  2  1  0
  2  3  2  0
  2  4  1  0
  4  5  2  0
  5  6  1  0
  6  7  2  0
  7  8  1  0
  8  9  2  0
  8 10  1  0
 10 11  2  0
 11 12  1  0
 12 13  1  0
 13 14  2  0
 14 15  1  0
 15 16  2  0
 16 17  1  0
 17 18  2  0
 17 19  1  0
 19 20  3  0
 11 21  1  0
 21 22  2  0
 22 23  1  0
 23 24  2  0
 24 25  1  0
 25 26  2  0
  9  4  1  0
 18 13  1  0
 26 21  1  0
 26  7  1  0
  1 27  1  0
  5 28  1  0
  6 29  1  0
  9 30  1  0
 12 31  1  0
 14 32  1  0
 15 33  1  0
 16 34  1  0
 18 35  1  0
 20 36  1  0
 23 37  1  0
 25 38  1  0
M  END
$$$$
[H]c1c([H])c(N([H])[H])c2c(C3=C(c4c([H])n([H])c5c([H])c([H])c([H])c([H])c45)C(=O)N([H])C3=O)nc(N3C([H])([H])C([H])([H])N(C([H])([H])[H])C([H])([H])C3([H])[H])nc2c1[H]
     RDKit          3D

 57 62  0  0  0  0  0  0  0  0999 V2000
   -5.8927   -2.8399   -0.6365 C   0  0  0  0  0  0  0  0  0  0  0  0
   -4.6760   -2.0654   -0.7699 N   0  0  0  0  0  0  0  0  0  0  0  0
   -3.9983   -2.0926    0.5089 C   0  0  0  0  0  0  0  0  0  0  0  0
   -2.6608   -1.3928    0.4872 C   0  0  0  0  0  0  0  0  0  0  0  0
   -2.6471   -0.2596   -0.4055 N   0  0  0  0  0  0  0  0  0  0  0  0
   -3.6621   -0.0057   -1.3957 C   0  0  0  0  0  0  0  0  0  0  0  0
   -4.9795   -0.6608   -1.0431 C   0  0  0  0  0  0  0  0  0  0  0  0
   -1.5785    0.6600   -0.3043 C   0  0  0  0  0  0  0  0  0  0  0  0
   -0.6474    0.4831    0.5936 N   0  0  0  0  0  0  0  0  0  0  0  0
    0.4480    1.2674    0.8289 C   0  0  0  0  0  0  0  0  0  0  0  0
    1.3268    0.8700    1.8816 C   0  0  0  0  0  0  0  0  0  0  0  0
    2.4483    0.2330    1.8615 C   0  0  0  0  0  0  0  0  0  0  0  0
    2.9588    0.0773    3.2569 C   0  0  0  0  0  0  0  0  0  0  0  0
    4.0253   -0.4905    3.6035 O   0  0  0  0  0  0  0  0  0  0  0  0
    2.0332    0.6830    4.1511 N   0  0  0  0  0  0  0  0  0  0  0  0
    1.0113    1.1794    3.2999 C   0  0  0  0  0  0  0  0  0  0  0  0
   -0.0210    1.7976    3.6944 O   0  0  0  0  0  0  0  0  0  0  0  0
    3.2308   -0.3734    0.7923 C   0  0  0  0  0  0  0  0  0  0  0  0
    4.5761   -0.0316    0.5117 C   0  0  0  0  0  0  0  0  0  0  0  0
    5.0534   -0.7633   -0.4788 N   0  0  0  0  0  0  0  0  0  0  0  0
    4.0779   -1.5735   -0.8610 C   0  0  0  0  0  0  0  0  0  0  0  0
    4.0873   -2.5511   -1.8638 C   0  0  0  0  0  0  0  0  0  0  0  0
    2.9536   -3.3008   -2.0832 C   0  0  0  0  0  0  0  0  0  0  0  0
    1.8371   -3.0790   -1.3184 C   0  0  0  0  0  0  0  0  0  0  0  0
    1.8201   -2.1224   -0.3340 C   0  0  0  0  0  0  0  0  0  0  0  0
    2.9504   -1.3693   -0.1120 C   0  0  0  0  0  0  0  0  0  0  0  0
    0.5447    2.3599    0.0091 C   0  0  0  0  0  0  0  0  0  0  0  0
    1.5495    3.2821    0.1084 C   0  0  0  0  0  0  0  0  0  0  0  0
    2.5762    3.2114    1.0853 N   0  0  0  0  0  0  0  0  0  0  0  0
    1.5730    4.3853   -0.7457 C   0  0  0  0  0  0  0  0  0  0  0  0
    0.6136    4.5865   -1.6943 C   0  0  0  0  0  0  0  0  0  0  0  0
   -0.3953    3.6871   -1.8100 C   0  0  0  0  0  0  0  0  0  0  0  0
   -0.4282    2.5800   -0.9597 C   0  0  0  0  0  0  0  0  0  0  0  0
   -1.4711    1.7382   -1.1086 N   0  0  0  0  0  0  0  0  0  0  0  0
   -6.5045   -2.5558    0.2219 H   0  0  0  0  0  0  0  0  0  0  0  0
   -5.5897   -3.9049   -0.5351 H   0  0  0  0  0  0  0  0  0  0  0  0
   -6.4641   -2.7832   -1.6074 H   0  0  0  0  0  0  0  0  0  0  0  0
   -3.8621   -3.1333    0.8898 H   0  0  0  0  0  0  0  0  0  0  0  0
   -4.6939   -1.5924    1.2441 H   0  0  0  0  0  0  0  0  0  0  0  0
   -1.8275   -2.1143    0.2524 H   0  0  0  0  0  0  0  0  0  0  0  0
   -2.4574   -1.0356    1.5215 H   0  0  0  0  0  0  0  0  0  0  0  0
   -3.8830    1.0787   -1.5292 H   0  0  0  0  0  0  0  0  0  0  0  0
   -3.3506   -0.4332   -2.3919 H   0  0  0  0  0  0  0  0  0  0  0  0
   -5.6594   -0.5623   -1.9015 H   0  0  0  0  0  0  0  0  0  0  0  0
   -5.4032   -0.1770   -0.1375 H   0  0  0  0  0  0  0  0  0  0  0  0
    2.1068    0.7389    5.1899 H   0  0  0  0  0  0  0  0  0  0  0  0
    5.1244    0.7299    1.0472 H   0  0  0  0  0  0  0  0  0  0  0  0
    6.0346   -0.7019   -0.8817 H   0  0  0  0  0  0  0  0  0  0  0  0
    4.9852   -2.6980   -2.4467 H   0  0  0  0  0  0  0  0  0  0  0  0
    2.9911   -4.0552   -2.8723 H   0  0  0  0  0  0  0  0  0  0  0  0
    0.9571   -3.6986   -1.5262 H   0  0  0  0  0  0  0  0  0  0  0  0
    0.9752   -1.9439    0.2772 H   0  0  0  0  0  0  0  0  0  0  0  0
    3.5043    2.8748    0.7533 H   0  0  0  0  0  0  0  0  0  0  0  0
    2.4903    3.4834    2.0781 H   0  0  0  0  0  0  0  0  0  0  0  0
    2.3927    5.0968   -0.6349 H   0  0  0  0  0  0  0  0  0  0  0  0
    0.6683    5.4642   -2.3463 H   0  0  0  0  0  0  0  0  0  0  0  0
   -1.1720    3.8133   -2.5477 H   0  0  0  0  0  0  0  0  0  0  0  0
  1  2  1  0
  2  3  1  0
  3  4  1  0
  4  5  1  0
  5  6  1  0
  6  7  1  0
  5  8  1  0
  8  9  2  0
  9 10  1  0
 10 11  1  0
 11 12  2  0
 12 13  1  0
 13 14  2  0
 13 15  1  0
 15 16  1  0
 16 17  2  0
 12 18  1  0
 18 19  2  0
 19 20  1  0
 20 21  1  0
 21 22  2  0
 22 23  1  0
 23 24  2  0
 24 25  1  0
 25 26  2  0
 10 27  2  0
 27 28  1  0
 28 29  1  0
 28 30  2  0
 30 31  1  0
 31 32  2  0
 32 33  1  0
 33 34  2  0
  7  2  1  0
 34  8  1  0
 16 11  1  0
 26 18  1  0
 33 27  1  0
 26 21  1  0
  1 35  1  0
  1 36  1  0
  1 37  1  0
  3 38  1  0
  3 39  1  0
  4 40  1  0
  4 41  1  0
  6 42  1  0
  6 43  1  0
  7 44  1  0
  7 45  1  0
 15 46  1  0
 19 47  1  0
 20 48  1  0
 22 49  1  0
 23 50  1  0
 24 51  1  0
 25 52  1  0
 29 53  1  0
 29 54  1  0
 30 55  1  0
 31 56  1  0
 32 57  1  0
M  END
$$$$
[H]c1nc2c([H])c([H])c([H])c([H])n2c1C(=O)N([H])c1c([H])c(-c2noc(C3([H])C([H])([H])C([H])(C(F)(F)F)C3([H])[H])n2)c([H])c([H])c1C([H])([H])[H]
     RDKit          3D

 50 54  0  0  0  0  0  0  0  0999 V2000
   -2.8481   -3.5467    0.6440 C   0  0  0  0  0  0  0  0  0  0  0  0
   -1.5032   -2.9406    0.5571 C   0  0  0  0  0  0  0  0  0  0  0  0
   -0.4080   -3.7180    0.8409 C   0  0  0  0  0  0  0  0  0  0  0  0
    0.8547   -3.1845    0.7700 C   0  0  0  0  0  0  0  0  0  0  0  0
    1.0326   -1.8705    0.4150 C   0  0  0  0  0  0  0  0  0  0  0  0
   -0.1019   -1.1181    0.1357 C   0  0  0  0  0  0  0  0  0  0  0  0
   -1.3902   -1.5867    0.1869 C   0  0  0  0  0  0  0  0  0  0  0  0
   -2.5598   -0.8346   -0.0949 N   0  0  0  0  0  0  0  0  0  0  0  0
   -2.6535    0.5002   -0.4686 C   0  0  0  0  0  0  0  0  0  0  0  0
   -1.6263    1.2276   -0.6247 O   0  0  0  0  0  0  0  0  0  0  0  0
   -3.9181    1.1881   -0.7216 C   0  0  0  0  0  0  0  0  0  0  0  0
   -4.0645    2.2412   -1.6478 C   0  0  0  0  0  0  0  0  0  0  0  0
   -5.3274    2.6544   -1.5953 N   0  0  0  0  0  0  0  0  0  0  0  0
   -6.0000    1.9099   -0.6706 C   0  0  0  0  0  0  0  0  0  0  0  0
   -7.3181    2.0005   -0.2777 C   0  0  0  0  0  0  0  0  0  0  0  0
   -7.7933    1.1554    0.6989 C   0  0  0  0  0  0  0  0  0  0  0  0
   -6.8936    0.2573    1.2274 C   0  0  0  0  0  0  0  0  0  0  0  0
   -5.5686    0.1886    0.8105 C   0  0  0  0  0  0  0  0  0  0  0  0
   -5.1172    1.0214   -0.1495 N   0  0  0  0  0  0  0  0  0  0  0  0
    2.3661   -1.2833    0.3335 C   0  0  0  0  0  0  0  0  0  0  0  0
    3.5394   -1.8823    0.5725 N   0  0  0  0  0  0  0  0  0  0  0  0
    4.4927   -0.9956    0.3842 O   0  0  0  0  0  0  0  0  0  0  0  0
    3.9556    0.1376    0.0355 C   0  0  0  0  0  0  0  0  0  0  0  0
    2.6147   -0.0138   -0.0048 N   0  0  0  0  0  0  0  0  0  0  0  0
    4.6686    1.3810   -0.2669 C   0  0  0  0  0  0  0  0  0  0  0  0
    5.7822    1.2258   -1.3119 C   0  0  0  0  0  0  0  0  0  0  0  0
    6.5941    2.1913   -0.4600 C   0  0  0  0  0  0  0  0  0  0  0  0
    5.7816    1.6947    0.7363 C   0  0  0  0  0  0  0  0  0  0  0  0
    8.0647    1.8549   -0.3888 C   0  0  0  0  0  0  0  0  0  0  0  0
    8.6593    2.8144    0.4132 F   0  0  0  0  0  0  0  0  0  0  0  0
    8.1756    0.5933    0.1887 F   0  0  0  0  0  0  0  0  0  0  0  0
    8.6272    1.8856   -1.6407 F   0  0  0  0  0  0  0  0  0  0  0  0
   -3.3313   -3.6575   -0.3627 H   0  0  0  0  0  0  0  0  0  0  0  0
   -3.5133   -2.9368    1.3222 H   0  0  0  0  0  0  0  0  0  0  0  0
   -2.7908   -4.5715    1.0572 H   0  0  0  0  0  0  0  0  0  0  0  0
   -0.5227   -4.7716    1.1273 H   0  0  0  0  0  0  0  0  0  0  0  0
    1.7520   -3.7641    0.9866 H   0  0  0  0  0  0  0  0  0  0  0  0
    0.1003   -0.0988   -0.1356 H   0  0  0  0  0  0  0  0  0  0  0  0
   -3.4639   -1.4191   -0.0380 H   0  0  0  0  0  0  0  0  0  0  0  0
   -3.2404    2.6012   -2.2666 H   0  0  0  0  0  0  0  0  0  0  0  0
   -8.0043    2.7291   -0.7215 H   0  0  0  0  0  0  0  0  0  0  0  0
   -8.8106    1.1638    1.0599 H   0  0  0  0  0  0  0  0  0  0  0  0
   -7.2189   -0.4241    1.9952 H   0  0  0  0  0  0  0  0  0  0  0  0
   -4.8991   -0.5044    1.2668 H   0  0  0  0  0  0  0  0  0  0  0  0
    4.0519    2.2394   -0.5438 H   0  0  0  0  0  0  0  0  0  0  0  0
    5.5002    1.6101   -2.3102 H   0  0  0  0  0  0  0  0  0  0  0  0
    6.2493    0.2191   -1.3089 H   0  0  0  0  0  0  0  0  0  0  0  0
    6.3452    3.2369   -0.6675 H   0  0  0  0  0  0  0  0  0  0  0  0
    6.1477    0.7312    1.1549 H   0  0  0  0  0  0  0  0  0  0  0  0
    5.5317    2.4686    1.4713 H   0  0  0  0  0  0  0  0  0  0  0  0
  1  2  1  0
  2  3  2  0
  3  4  1  0
  4  5  2  0
  5  6  1  0
  6  7  2  0
  7  8  1  0
  8  9  1  0
  9 10  2  0
  9 11  1  0
 11 12  2  0
 12 13  1  0
 13 14  2  0
 14 15  1  0
 15 16  2  0
 16 17  1  0
 17 18  2  0
 18 19  1  0
  5 20  1  0
 20 21  2  0
 21 22  1  0
 22 23  1  0
 23 24  2  0
 23 25  1  0
 25 26  1  0
 26 27  1  0
 27 28  1  0
 27 29  1  0
 29 30  1  0
 29 31  1  0
 29 32  1  0
  7  2  1  0
 19 11  1  0
 24 20  1  0
 28 25  1  0
 19 14  1  0
  1 33  1  0
  1 34  1  0
  1 35  1  0
  3 36  1  0
  4 37  1  0
  6 38  1  0
  8 39  1  0
 12 40  1  0
 15 41  1  0
 16 42  1  0
 17 43  1  0
 18 44  1  0
 25 45  1  0
 26 46  1  0
 26 47  1  0
 27 48  1  0
 28 49  1  0
 28 50  1  0
M  END
$$$$
[H]N=C(c1c([H])c([H])c([H])c(C([H])([H])[C@@]([H])(C(=O)N2C([H])([H])C([H])([H])N(S(=O)(=O)C([H])([H])[H])C([H])([H])C2([H])[H])N([H])S(=O)(=O)c2c([H])c([H])c3c([H])c([H])c([H])c([H])c3c2[H])c1[H])N([H])[H]
     RDKit          3D

 66 69  0  0  0  0  0  0  0  0999 V2000
    1.0640    3.7150   -1.8680 N   0  0  0  0  0  0  0  0  0  0  0  0
    0.4655    3.0574   -2.9813 C   0  0  0  0  0  0  0  0  0  0  0  0
    0.2126    3.7765   -3.9978 N   0  0  0  0  0  0  0  0  0  0  0  0
    0.1791    1.6232   -2.8964 C   0  0  0  0  0  0  0  0  0  0  0  0
   -0.4142    0.9722   -3.9406 C   0  0  0  0  0  0  0  0  0  0  0  0
   -0.6665   -0.4051   -3.8115 C   0  0  0  0  0  0  0  0  0  0  0  0
   -0.2988   -1.0192   -2.6389 C   0  0  0  0  0  0  0  0  0  0  0  0
    0.2981   -0.3930   -1.5749 C   0  0  0  0  0  0  0  0  0  0  0  0
    0.6638   -1.0771   -0.3542 C   0  0  0  0  0  0  0  0  0  0  0  0
    0.1025   -0.8585    0.9507 C   0  0  2  0  0  0  0  0  0  0  0  0
    0.8907   -1.8144    1.8568 N   0  0  0  0  0  0  0  0  0  0  0  0
    2.0260   -0.9874    2.7982 S   0  0  0  0  0  0  0  0  0  0  0  0
    1.2502   -0.0356    3.7051 O   0  0  0  0  0  0  0  0  0  0  0  0
    2.7118   -1.9550    3.7293 O   0  0  0  0  0  0  0  0  0  0  0  0
    3.2562   -0.1460    1.9297 C   0  0  0  0  0  0  0  0  0  0  0  0
    3.1843    1.2037    1.5664 C   0  0  0  0  0  0  0  0  0  0  0  0
    4.1982    1.8233    0.8793 C   0  0  0  0  0  0  0  0  0  0  0  0
    5.3403    1.1072    0.5229 C   0  0  0  0  0  0  0  0  0  0  0  0
    6.3899    1.6685   -0.1554 C   0  0  0  0  0  0  0  0  0  0  0  0
    7.5263    0.9781   -0.5094 C   0  0  0  0  0  0  0  0  0  0  0  0
    7.6003   -0.3773   -0.1477 C   0  0  0  0  0  0  0  0  0  0  0  0
    6.5716   -0.9426    0.5228 C   0  0  0  0  0  0  0  0  0  0  0  0
    5.4214   -0.2167    0.8735 C   0  0  0  0  0  0  0  0  0  0  0  0
    4.3957   -0.8496    1.5706 C   0  0  0  0  0  0  0  0  0  0  0  0
   -1.2298   -0.8043    1.4228 C   0  0  0  0  0  0  0  0  0  0  0  0
   -1.2558   -1.0566    2.7887 O   0  0  0  0  0  0  0  0  0  0  0  0
   -2.5342   -0.5864    1.0335 N   0  0  0  0  0  0  0  0  0  0  0  0
   -3.6213   -0.5107    2.0686 C   0  0  0  0  0  0  0  0  0  0  0  0
   -4.5385   -1.6505    1.8288 C   0  0  0  0  0  0  0  0  0  0  0  0
   -5.0017   -1.7017    0.4594 N   0  0  0  0  0  0  0  0  0  0  0  0
   -4.5633   -0.5350   -0.2853 C   0  0  0  0  0  0  0  0  0  0  0  0
   -3.0373   -0.4593   -0.2894 C   0  0  0  0  0  0  0  0  0  0  0  0
   -6.7125   -1.7562    0.4463 S   0  0  0  0  0  0  0  0  0  0  0  0
   -7.3715   -0.2926    1.1830 C   0  0  0  0  0  0  0  0  0  0  0  0
   -7.2187   -2.9116    1.2667 O   0  0  0  0  0  0  0  0  0  0  0  0
   -7.1962   -1.8548   -0.9723 O   0  0  0  0  0  0  0  0  0  0  0  0
    0.5375    0.9774   -1.7302 C   0  0  0  0  0  0  0  0  0  0  0  0
    0.4740    3.9715   -1.0631 H   0  0  0  0  0  0  0  0  0  0  0  0
    2.0730    3.9150   -1.9042 H   0  0  0  0  0  0  0  0  0  0  0  0
   -0.2198    3.3628   -4.8354 H   0  0  0  0  0  0  0  0  0  0  0  0
   -0.6970    1.4549   -4.8457 H   0  0  0  0  0  0  0  0  0  0  0  0
   -1.1359   -0.9285   -4.6240 H   0  0  0  0  0  0  0  0  0  0  0  0
   -0.4898   -2.1003   -2.5213 H   0  0  0  0  0  0  0  0  0  0  0  0
    0.5806   -2.2104   -0.6119 H   0  0  0  0  0  0  0  0  0  0  0  0
    1.8254   -1.0048   -0.2070 H   0  0  0  0  0  0  0  0  0  0  0  0
    0.5895    0.1937    1.2805 H   0  0  0  0  0  0  0  0  0  0  0  0
    1.3383   -2.5089    1.2618 H   0  0  0  0  0  0  0  0  0  0  0  0
    2.3056    1.7612    1.8344 H   0  0  0  0  0  0  0  0  0  0  0  0
    4.1728    2.8629    0.5821 H   0  0  0  0  0  0  0  0  0  0  0  0
    6.3171    2.7184   -0.4277 H   0  0  0  0  0  0  0  0  0  0  0  0
    8.3371    1.4113   -1.0390 H   0  0  0  0  0  0  0  0  0  0  0  0
    8.4888   -0.9193   -0.4291 H   0  0  0  0  0  0  0  0  0  0  0  0
    6.6023   -1.9921    0.8165 H   0  0  0  0  0  0  0  0  0  0  0  0
    4.4759   -1.8879    1.8325 H   0  0  0  0  0  0  0  0  0  0  0  0
   -3.2135   -0.5080    3.0713 H   0  0  0  0  0  0  0  0  0  0  0  0
   -4.1852    0.4394    1.9024 H   0  0  0  0  0  0  0  0  0  0  0  0
   -3.9725   -2.6061    2.0160 H   0  0  0  0  0  0  0  0  0  0  0  0
   -5.3561   -1.6503    2.5798 H   0  0  0  0  0  0  0  0  0  0  0  0
   -5.0190    0.3992    0.0164 H   0  0  0  0  0  0  0  0  0  0  0  0
   -4.8338   -0.7306   -1.3508 H   0  0  0  0  0  0  0  0  0  0  0  0
   -2.6680   -1.2878   -0.9512 H   0  0  0  0  0  0  0  0  0  0  0  0
   -2.7208    0.4932   -0.7291 H   0  0  0  0  0  0  0  0  0  0  0  0
   -6.7683    0.1163    2.0096 H   0  0  0  0  0  0  0  0  0  0  0  0
   -7.4969    0.5523    0.4556 H   0  0  0  0  0  0  0  0  0  0  0  0
   -8.4411   -0.4890    1.5200 H   0  0  0  0  0  0  0  0  0  0  0  0
    1.0114    1.4667   -0.8893 H   0  0  0  0  0  0  0  0  0  0  0  0
  1  2  1  0
  2  3  2  3
  2  4  1  0
  4  5  2  0
  5  6  1  0
  6  7  2  0
  7  8  1  0
  8  9  1  0
  9 10  1  0
 10 11  1  0
 11 12  1  0
 12 13  2  0
 12 14  2  0
 12 15  1  0
 15 16  2  0
 16 17  1  0
 17 18  2  0
 18 19  1  0
 19 20  2  0
 20 21  1  0
 21 22  2  0
 22 23  1  0
 23 24  2  0
 10 25  1  0
 25 26  2  0
 25 27  1  0
 27 28  1  0
 28 29  1  0
 29 30  1  0
 30 31  1  0
 31 32  1  0
 30 33  1  0
 33 34  1  0
 33 35  2  0
 33 36  2  0
  8 37  2  0
 37  4  1  0
 24 15  1  0
 32 27  1  0
 23 18  1  0
  1 38  1  0
  1 39  1  0
  3 40  1  0
  5 41  1  0
  6 42  1  0
  7 43  1  0
  9 44  1  0
  9 45  1  0
 10 46  1  1
 11 47  1  0
 16 48  1  0
 17 49  1  0
 19 50  1  0
 20 51  1  0
 21 52  1  0
 22 53  1  0
 24 54  1  0
 28 55  1  0
 28 56  1  0
 29 57  1  0
 29 58  1  0
 31 59  1  0
 31 60  1  0
 32 61  1  0
 32 62  1  0
 34 63  1  0
 34 64  1  0
 34 65  1  0
 37 66  1  0
M  END
$$$$
[H]ON(C([H])=O)C([H])([H])[C@]([H])(C(=O)N1C([H])([H])C([H])([H])C([H])([H])[C@@]1([H])C(=O)N([H])C(=O)c1nc([H])c([H])c([H])c1[H])C([H])([H])C1([H])C([H])([H])C([H])([H])C([H])([H])C1([H])[H]
     RDKit          3D

 58 60  0  0  0  0  0  0  0  0999 V2000
   -0.9128   -2.9399    0.2158 O   0  0  0  0  0  0  0  0  0  0  0  0
   -2.2575   -2.5520    0.1948 N   0  0  0  0  0  0  0  0  0  0  0  0
   -2.5289   -1.5091   -0.7298 C   0  0  0  0  0  0  0  0  0  0  0  0
   -2.3180   -0.1080   -0.2474 C   0  0  1  0  0  0  0  0  0  0  0  0
   -3.2005    0.2868    0.8489 C   0  0  0  0  0  0  0  0  0  0  0  0
   -4.6552    0.3482    0.6140 C   0  0  0  0  0  0  0  0  0  0  0  0
   -5.3255    0.7718    1.9209 C   0  0  0  0  0  0  0  0  0  0  0  0
   -5.1269    2.2742    1.9493 C   0  0  0  0  0  0  0  0  0  0  0  0
   -5.3434    2.6679    0.5257 C   0  0  0  0  0  0  0  0  0  0  0  0
   -5.1167    1.4445   -0.2991 C   0  0  0  0  0  0  0  0  0  0  0  0
   -0.8756    0.0769    0.2050 C   0  0  0  0  0  0  0  0  0  0  0  0
   -0.7958    0.1922    1.4648 O   0  0  0  0  0  0  0  0  0  0  0  0
    0.1975    0.1060   -0.6950 N   0  0  0  0  0  0  0  0  0  0  0  0
   -0.0109   -0.0087   -2.1603 C   0  0  0  0  0  0  0  0  0  0  0  0
    1.0389    0.9757   -2.7167 C   0  0  0  0  0  0  0  0  0  0  0  0
    1.7323    1.5044   -1.4805 C   0  0  0  0  0  0  0  0  0  0  0  0
    1.6261    0.2118   -0.6527 C   0  0  1  0  0  0  0  0  0  0  0  0
    2.3732    0.2264    0.5428 C   0  0  0  0  0  0  0  0  0  0  0  0
    1.8496    0.4438    1.6735 O   0  0  0  0  0  0  0  0  0  0  0  0
    3.7517    0.0017    0.5781 N   0  0  0  0  0  0  0  0  0  0  0  0
    4.6356   -0.3005   -0.4758 C   0  0  0  0  0  0  0  0  0  0  0  0
    4.2687   -0.4180   -1.7005 O   0  0  0  0  0  0  0  0  0  0  0  0
    6.0697   -0.5116   -0.2764 C   0  0  0  0  0  0  0  0  0  0  0  0
    6.6929   -0.4358    0.9432 C   0  0  0  0  0  0  0  0  0  0  0  0
    8.0672   -0.6456    1.0856 C   0  0  0  0  0  0  0  0  0  0  0  0
    8.8201   -0.9362   -0.0243 C   0  0  0  0  0  0  0  0  0  0  0  0
    8.1737   -1.0074   -1.2396 C   0  0  0  0  0  0  0  0  0  0  0  0
    6.8450   -0.7979   -1.3315 N   0  0  0  0  0  0  0  0  0  0  0  0
   -3.0582   -3.2335    1.0984 C   0  0  0  0  0  0  0  0  0  0  0  0
   -4.2976   -3.0877    1.2329 O   0  0  0  0  0  0  0  0  0  0  0  0
   -0.9166   -3.8498   -0.1662 H   0  0  0  0  0  0  0  0  0  0  0  0
   -1.9897   -1.7176   -1.7074 H   0  0  0  0  0  0  0  0  0  0  0  0
   -3.6189   -1.6145   -1.0618 H   0  0  0  0  0  0  0  0  0  0  0  0
   -2.3619    0.6103   -1.1228 H   0  0  0  0  0  0  0  0  0  0  0  0
   -2.8095    1.2548    1.2824 H   0  0  0  0  0  0  0  0  0  0  0  0
   -3.0338   -0.4432    1.6976 H   0  0  0  0  0  0  0  0  0  0  0  0
   -5.1200   -0.5944    0.3055 H   0  0  0  0  0  0  0  0  0  0  0  0
   -4.7766    0.2971    2.7520 H   0  0  0  0  0  0  0  0  0  0  0  0
   -6.3884    0.5346    1.9374 H   0  0  0  0  0  0  0  0  0  0  0  0
   -4.1340    2.5642    2.3236 H   0  0  0  0  0  0  0  0  0  0  0  0
   -5.9345    2.6750    2.6152 H   0  0  0  0  0  0  0  0  0  0  0  0
   -4.6847    3.5134    0.1945 H   0  0  0  0  0  0  0  0  0  0  0  0
   -6.3917    3.0617    0.4401 H   0  0  0  0  0  0  0  0  0  0  0  0
   -4.4587    1.6681   -1.1284 H   0  0  0  0  0  0  0  0  0  0  0  0
   -6.1096    1.1470   -0.7305 H   0  0  0  0  0  0  0  0  0  0  0  0
    0.3163   -1.0300   -2.4178 H   0  0  0  0  0  0  0  0  0  0  0  0
   -1.0049    0.2659   -2.4842 H   0  0  0  0  0  0  0  0  0  0  0  0
    1.8134    0.4229   -3.3003 H   0  0  0  0  0  0  0  0  0  0  0  0
    0.5759    1.7541   -3.3240 H   0  0  0  0  0  0  0  0  0  0  0  0
    2.7108    1.9038   -1.6021 H   0  0  0  0  0  0  0  0  0  0  0  0
    1.0687    2.2367   -0.9405 H   0  0  0  0  0  0  0  0  0  0  0  0
    1.9908   -0.6248   -1.3171 H   0  0  0  0  0  0  0  0  0  0  0  0
    4.2207    0.0541    1.5384 H   0  0  0  0  0  0  0  0  0  0  0  0
    6.1216   -0.2079    1.8348 H   0  0  0  0  0  0  0  0  0  0  0  0
    8.5501   -0.5856    2.0394 H   0  0  0  0  0  0  0  0  0  0  0  0
    9.9006   -1.1088    0.0357 H   0  0  0  0  0  0  0  0  0  0  0  0
    8.7862   -1.2377   -2.1011 H   0  0  0  0  0  0  0  0  0  0  0  0
   -2.6403   -3.9897    1.7978 H   0  0  0  0  0  0  0  0  0  0  0  0
  1  2  1  0
  2  3  1  0
  3  4  1  0
  4  5  1  0
  5  6  1  0
  6  7  1  0
  7  8  1  0
  8  9  1  0
  9 10  1  0
  4 11  1  0
 11 12  2  0
 11 13  1  0
 13 14  1  0
 14 15  1  0
 15 16  1  0
 16 17  1  0
 17 18  1  0
 18 19  2  0
 18 20  1  0
 20 21  1  0
 21 22  2  0
 21 23  1  0
 23 24  2  0
 24 25  1  0
 25 26  2  0
 26 27  1  0
 27 28  2  0
  2 29  1  0
 29 30  2  0
 10  6  1  0
 17 13  1  0
 28 23  1  0
  1 31  1  0
  3 32  1  0
  3 33  1  0
  4 34  1  6
  5 35  1  0
  5 36  1  0
  6 37  1  0
  7 38  1  0
  7 39  1  0
  8 40  1  0
  8 41  1  0
  9 42  1  0
  9 43  1  0
 10 44  1  0
 10 45  1  0
 14 46  1  0
 14 47  1  0
 15 48  1  0
 15 49  1  0
 16 50  1  0
 16 51  1  0
 17 52  1  6
 20 53  1  0
 24 54  1  0
 25 55  1  0
 26 56  1  0
 27 57  1  0
 29 58  1  0
M  END
$$$$
[H]O[C@@]1([H])[C@]([H])(O[H])[C@]([H])(O[H])[C@]1([H])C([H])([H])OP(=O)(O[H])OP(=O)(O[H])O[H]
     RDKit          3D

 29 29  0  0  0  0  0  0  0  0999 V2000
   -3.0051    2.0114   -0.7058 O   0  0  0  0  0  0  0  0  0  0  0  0
   -2.7622    0.7606   -0.1745 C   0  0  2  0  0  0  0  0  0  0  0  0
   -1.5112    0.0722   -0.7104 C   0  0  1  0  0  0  0  0  0  0  0  0
   -0.3999    0.2553    0.2736 C   0  0  0  0  0  0  0  0  0  0  0  0
    0.7872   -0.3738   -0.1003 O   0  0  0  0  0  0  0  0  0  0  0  0
    1.9691    0.2671    0.9430 P   0  0  0  0  0  0  0  0  0  0  0  0
    2.2746    1.8533    0.4901 O   0  0  0  0  0  0  0  0  0  0  0  0
    1.3392    0.2716    2.3263 O   0  0  0  0  0  0  0  0  0  0  0  0
    3.3421   -0.6848    1.0157 O   0  0  0  0  0  0  0  0  0  0  0  0
    4.4092   -0.4226   -0.2527 P   0  0  0  0  0  0  0  0  0  0  0  0
    5.2160    1.0544   -0.1277 O   0  0  0  0  0  0  0  0  0  0  0  0
    5.5894   -1.6454   -0.1748 O   0  0  0  0  0  0  0  0  0  0  0  0
    3.7166   -0.5593   -1.5831 O   0  0  0  0  0  0  0  0  0  0  0  0
   -2.2886   -1.2203   -0.6118 C   0  0  1  0  0  0  0  0  0  0  0  0
   -2.3070   -1.7784    0.6518 O   0  0  0  0  0  0  0  0  0  0  0  0
   -3.5444   -0.3799   -0.8182 C   0  0  1  0  0  0  0  0  0  0  0  0
   -4.6456   -0.7897   -0.0855 O   0  0  0  0  0  0  0  0  0  0  0  0
   -3.7767    2.3877   -0.2305 H   0  0  0  0  0  0  0  0  0  0  0  0
   -2.8678    0.6824    0.9196 H   0  0  0  0  0  0  0  0  0  0  0  0
   -1.2637    0.3700   -1.7363 H   0  0  0  0  0  0  0  0  0  0  0  0
   -0.7260   -0.0055    1.2902 H   0  0  0  0  0  0  0  0  0  0  0  0
   -0.1632    1.3496    0.2969 H   0  0  0  0  0  0  0  0  0  0  0  0
    1.7841    2.0868   -0.3496 H   0  0  0  0  0  0  0  0  0  0  0  0
    6.1125    0.9671    0.2657 H   0  0  0  0  0  0  0  0  0  0  0  0
    5.2902   -2.4068    0.3983 H   0  0  0  0  0  0  0  0  0  0  0  0
   -2.1463   -1.9318   -1.4361 H   0  0  0  0  0  0  0  0  0  0  0  0
   -1.3981   -2.0156    0.9447 H   0  0  0  0  0  0  0  0  0  0  0  0
   -3.7605   -0.1710   -1.8958 H   0  0  0  0  0  0  0  0  0  0  0  0
   -5.2639   -0.0045   -0.0536 H   0  0  0  0  0  0  0  0  0  0  0  0
  1  2  1  0
  2  3  1  0
  3  4  1  0
  4  5  1  0
  5  6  1  0
  6  7  1  0
  6  8  2  0
  6  9  1  0
  9 10  1  0
 10 11  1  0
 10 12  1  0
 10 13  2  0
  3 14  1  0
 14 15  1  0
 14 16  1  0
 16 17  1  0
 16  2  1  0
  1 18  1  0
  2 19  1  1
  3 20  1  6
  4 21  1  0
  4 22  1  0
  7 23  1  0
 11 24  1  0
 12 25  1  0
 14 26  1  6
 15 27  1  0
 16 28  1  6
 17 29  1  0
M  END
$$$$
[H]OC([H])([H])[C@@]1([H])O[C@]([H])(O[H])[C@@]([H])(O[H])[C@@]([H])(O[H])[C@]1([H])O[H]
     RDKit          3D

 24 24  0  0  0  0  0  0  0  0999 V2000
    3.1817    0.2238   -0.5484 O   0  0  0  0  0  0  0  0  0  0  0  0
    2.1599    1.1118   -0.3025 C   0  0  0  0  0  0  0  0  0  0  0  0
    1.0140    0.4474    0.4756 C   0  0  1  0  0  0  0  0  0  0  0  0
    0.0617    1.3518    0.6817 O   0  0  0  0  0  0  0  0  0  0  0  0
   -1.1876    1.2218    0.2580 C   0  0  2  0  0  0  0  0  0  0  0  0
   -2.0678    1.5300    1.3244 O   0  0  0  0  0  0  0  0  0  0  0  0
   -1.6341   -0.0875   -0.2903 C   0  0  1  0  0  0  0  0  0  0  0  0
   -1.3647   -0.1451   -1.6759 O   0  0  0  0  0  0  0  0  0  0  0  0
   -0.7776   -1.1484    0.4073 C   0  0  1  0  0  0  0  0  0  0  0  0
   -1.1936   -2.4185    0.1598 O   0  0  0  0  0  0  0  0  0  0  0  0
    0.6159   -0.8499   -0.1594 C   0  0  2  0  0  0  0  0  0  0  0  0
    1.4869   -1.8834    0.1076 O   0  0  0  0  0  0  0  0  0  0  0  0
    3.0457   -0.3137   -1.3679 H   0  0  0  0  0  0  0  0  0  0  0  0
    1.7463    1.5969   -1.1868 H   0  0  0  0  0  0  0  0  0  0  0  0
    2.5631    1.9239    0.3649 H   0  0  0  0  0  0  0  0  0  0  0  0
    1.4858    0.1735    1.4672 H   0  0  0  0  0  0  0  0  0  0  0  0
   -1.4001    1.9981   -0.5354 H   0  0  0  0  0  0  0  0  0  0  0  0
   -2.5370    2.3751    1.1854 H   0  0  0  0  0  0  0  0  0  0  0  0
   -2.7145   -0.2552   -0.1018 H   0  0  0  0  0  0  0  0  0  0  0  0
   -2.1220    0.1578   -2.2151 H   0  0  0  0  0  0  0  0  0  0  0  0
   -0.7731   -0.8548    1.4827 H   0  0  0  0  0  0  0  0  0  0  0  0
   -1.1544   -2.9252    1.0333 H   0  0  0  0  0  0  0  0  0  0  0  0
    0.5449   -0.7032   -1.2685 H   0  0  0  0  0  0  0  0  0  0  0  0
    1.0208   -2.5269    0.7041 H   0  0  0  0  0  0  0  0  0  0  0  0
  1  2  1  0
  2  3  1  0
  3  4  1  0
  4  5  1  0
  5  6  1  0
  5  7  1  0
  7  8  1  0
  7  9  1  0
  9 10  1  0
  9 11  1  0
 11 12  1  0
 11  3  1  0
  1 13  1  0
  2 14  1  0
  2 15  1  0
  3 16  1  1
  5 17  1  6
  6 18  1  0
  7 19  1  6
  8 20  1  0
  9 21  1  1
 10 22  1  0
 11 23  1  6
 12 24  1  0
M  END
$$$$
[H]OC(=O)c1[se]c(-c2c([H])c([H])c(OC([H])([H])C([H])(C([H])([H])[H])C([H])([H])[H])c(C#N)c2[H])nc1C([H])([H])[H]
     RDKit          3D

 38 39  0  0  0  0  0  0  0  0999 V2000
   -4.7698   -1.0324    0.9031 C   0  0  0  0  0  0  0  0  0  0  0  0
   -4.4555   -0.1097   -0.2803 C   0  0  0  0  0  0  0  0  0  0  0  0
   -5.8352    0.1287   -0.9334 C   0  0  0  0  0  0  0  0  0  0  0  0
   -4.0283    1.2409    0.2290 C   0  0  0  0  0  0  0  0  0  0  0  0
   -2.9078    1.2495    1.0353 O   0  0  0  0  0  0  0  0  0  0  0  0
   -1.6302    0.9215    0.7523 C   0  0  0  0  0  0  0  0  0  0  0  0
   -1.1777    0.5152   -0.4827 C   0  0  0  0  0  0  0  0  0  0  0  0
    0.1598    0.2020   -0.6728 C   0  0  0  0  0  0  0  0  0  0  0  0
    1.0828    0.2803    0.3407 C   0  0  0  0  0  0  0  0  0  0  0  0
    0.6287    0.6879    1.5762 C   0  0  0  0  0  0  0  0  0  0  0  0
   -0.6857    1.0060    1.8042 C   0  0  0  0  0  0  0  0  0  0  0  0
   -1.0848    1.4226    3.1168 C   0  0  0  0  0  0  0  0  0  0  0  0
   -1.3837    1.7550    4.1782 N   0  0  0  0  0  0  0  0  0  0  0  0
    2.4481   -0.0485    0.1077 C   0  0  0  0  0  0  0  0  0  0  0  0
    3.5898   -0.1492    0.5911 N   0  0  0  0  0  0  0  0  0  0  0  0
    4.7342   -0.4790    0.1832 C   0  0  0  0  0  0  0  0  0  0  0  0
    5.9739   -0.4806    1.1317 C   0  0  0  0  0  0  0  0  0  0  0  0
    5.0122   -0.8602   -1.0900 C   0  0  0  0  0  0  0  0  0  0  0  0
    3.0748   -0.6782   -1.8672 Se  0  0  0  0  0  2  0  0  0  0  0  0
    6.1481   -1.2791   -1.8473 C   0  0  0  0  0  0  0  0  0  0  0  0
    7.3666   -1.3558   -1.2015 O   0  0  0  0  0  0  0  0  0  0  0  0
    6.1233   -1.5848   -3.0630 O   0  0  0  0  0  0  0  0  0  0  0  0
   -3.8979   -1.7365    0.9634 H   0  0  0  0  0  0  0  0  0  0  0  0
   -4.8185   -0.4322    1.8204 H   0  0  0  0  0  0  0  0  0  0  0  0
   -5.6701   -1.6409    0.7089 H   0  0  0  0  0  0  0  0  0  0  0  0
   -3.8186   -0.5762   -1.0089 H   0  0  0  0  0  0  0  0  0  0  0  0
   -6.4591    0.5753   -0.1465 H   0  0  0  0  0  0  0  0  0  0  0  0
   -5.6846    0.7853   -1.8152 H   0  0  0  0  0  0  0  0  0  0  0  0
   -6.2064   -0.8481   -1.2503 H   0  0  0  0  0  0  0  0  0  0  0  0
   -3.8395    1.8695   -0.7035 H   0  0  0  0  0  0  0  0  0  0  0  0
   -4.9175    1.6877    0.7738 H   0  0  0  0  0  0  0  0  0  0  0  0
   -1.8466    0.4496   -1.3339 H   0  0  0  0  0  0  0  0  0  0  0  0
    0.4434   -0.1118   -1.6739 H   0  0  0  0  0  0  0  0  0  0  0  0
    1.4149    0.7301    2.3427 H   0  0  0  0  0  0  0  0  0  0  0  0
    6.3348   -1.5236    1.2273 H   0  0  0  0  0  0  0  0  0  0  0  0
    5.7106   -0.0169    2.0960 H   0  0  0  0  0  0  0  0  0  0  0  0
    6.7694    0.1078    0.6827 H   0  0  0  0  0  0  0  0  0  0  0  0
    8.1022   -0.6713   -1.3957 H   0  0  0  0  0  0  0  0  0  0  0  0
  1  2  1  0
  2  3  1  0
  2  4  1  0
  4  5  1  0
  5  6  1  0
  6  7  2  0
  7  8  1  0
  8  9  2  0
  9 10  1  0
 10 11  2  0
 11 12  1  0
 12 13  3  0
  9 14  1  0
 14 15  2  0
 15 16  1  0
 16 17  1  0
 16 18  2  0
 18 19  1  0
 18 20  1  0
 20 21  1  0
 20 22  2  0
 11  6  1  0
 19 14  1  0
  1 23  1  0
  1 24  1  0
  1 25  1  0
  2 26  1  0
  3 27  1  0
  3 28  1  0
  3 29  1  0
  4 30  1  0
  4 31  1  0
  7 32  1  0
  8 33  1  0
 10 34  1  0
 17 35  1  0
 17 36  1  0
 17 37  1  0
 21 38  1  0
M  END
$$$$
[H]OB(O[H])[C@@]([H])(N([H])C(=O)[C@@]([H])(N([H])C(=O)C([H])([H])N=[N+]=[N-])C([H])([H])c1c([H])c([H])c([H])c([H])c1[H])C([H])([H])C([H])(C([H])([H])[H])C([H])([H])[H]
     RDKit          3D

 50 50  0  0  0  0  0  0  0  0999 V2000
    5.1441    1.7512    1.3531 C   0  0  0  0  0  0  0  0  0  0  0  0
    4.3396    0.6907    0.5294 C   0  0  0  0  0  0  0  0  0  0  0  0
    5.0811   -0.5995    0.7336 C   0  0  0  0  0  0  0  0  0  0  0  0
    2.9648    0.7168    1.0955 C   0  0  0  0  0  0  0  0  0  0  0  0
    2.0212   -0.2086    0.3901 C   0  0  2  0  0  0  0  0  0  0  0  0
    0.7018   -0.0585    1.0235 N   0  0  0  0  0  0  0  0  0  0  0  0
   -0.3391    0.5723    0.3200 C   0  0  0  0  0  0  0  0  0  0  0  0
   -0.1483    1.0084   -0.8379 O   0  0  0  0  0  0  0  0  0  0  0  0
   -1.7200    0.7562    0.9309 C   0  0  2  0  0  0  0  0  0  0  0  0
   -2.3319   -0.6117    1.2305 C   0  0  0  0  0  0  0  0  0  0  0  0
   -2.5276   -1.4868    0.0820 C   0  0  0  0  0  0  0  0  0  0  0  0
   -3.7176   -1.4397   -0.6400 C   0  0  0  0  0  0  0  0  0  0  0  0
   -3.9901   -2.2387   -1.7156 C   0  0  0  0  0  0  0  0  0  0  0  0
   -3.0433   -3.1528   -2.1274 C   0  0  0  0  0  0  0  0  0  0  0  0
   -1.8305   -3.2547   -1.4517 C   0  0  0  0  0  0  0  0  0  0  0  0
   -1.6149   -2.4099   -0.3613 C   0  0  0  0  0  0  0  0  0  0  0  0
   -2.5085    1.5747    0.1679 N   0  0  0  0  0  0  0  0  0  0  0  0
   -3.2949    2.3909   -0.5930 C   0  0  0  0  0  0  0  0  0  0  0  0
   -4.0380    3.3073   -0.1836 O   0  0  0  0  0  0  0  0  0  0  0  0
   -3.2957    2.1985   -2.1248 C   0  0  0  0  0  0  0  0  0  0  0  0
   -4.1736    3.1382   -2.7311 N   0  0  0  0  0  0  0  0  0  0  0  0
   -4.0639    4.3532   -2.6101 N   0  0  0  0  0  0  0  0  0  0  0  0
   -4.3036    5.5104   -2.2520 N   0  0  0  0  0  0  0  0  0  0  0  0
    2.4879   -1.7061    0.5743 B   0  0  0  0  0  0  0  0  0  0  0  0
    2.2196   -2.6223   -0.5457 O   0  0  0  0  0  0  0  0  0  0  0  0
    2.2168   -2.2824    1.9152 O   0  0  0  0  0  0  0  0  0  0  0  0
    4.9163    1.5430    2.4053 H   0  0  0  0  0  0  0  0  0  0  0  0
    4.7349    2.7308    1.0463 H   0  0  0  0  0  0  0  0  0  0  0  0
    6.2060    1.5948    1.1484 H   0  0  0  0  0  0  0  0  0  0  0  0
    4.3894    1.0123   -0.5100 H   0  0  0  0  0  0  0  0  0  0  0  0
    5.0233   -1.3024   -0.0904 H   0  0  0  0  0  0  0  0  0  0  0  0
    4.8226   -1.0634    1.7013 H   0  0  0  0  0  0  0  0  0  0  0  0
    6.2122   -0.3578    0.7926 H   0  0  0  0  0  0  0  0  0  0  0  0
    2.5180    1.7456    1.0708 H   0  0  0  0  0  0  0  0  0  0  0  0
    3.0268    0.3979    2.1872 H   0  0  0  0  0  0  0  0  0  0  0  0
    1.9393    0.1040   -0.6789 H   0  0  0  0  0  0  0  0  0  0  0  0
    0.5353   -0.4155    1.9860 H   0  0  0  0  0  0  0  0  0  0  0  0
   -1.4574    1.1581    1.9590 H   0  0  0  0  0  0  0  0  0  0  0  0
   -1.6695   -1.1517    1.9447 H   0  0  0  0  0  0  0  0  0  0  0  0
   -3.2692   -0.4049    1.8001 H   0  0  0  0  0  0  0  0  0  0  0  0
   -4.4583   -0.7242   -0.3169 H   0  0  0  0  0  0  0  0  0  0  0  0
   -4.9263   -2.1831   -2.2651 H   0  0  0  0  0  0  0  0  0  0  0  0
   -3.2741   -3.7721   -2.9730 H   0  0  0  0  0  0  0  0  0  0  0  0
   -1.0993   -3.9597   -1.7683 H   0  0  0  0  0  0  0  0  0  0  0  0
   -0.6484   -2.5391    0.1407 H   0  0  0  0  0  0  0  0  0  0  0  0
   -2.9838    2.1715    1.2995 H   0  0  0  0  0  0  0  0  0  0  0  0
   -2.2267    2.3025   -2.4218 H   0  0  0  0  0  0  0  0  0  0  0  0
   -3.6813    1.1840   -2.2875 H   0  0  0  0  0  0  0  0  0  0  0  0
    2.6749   -2.3138   -1.3607 H   0  0  0  0  0  0  0  0  0  0  0  0
    2.4597   -1.6535    2.6343 H   0  0  0  0  0  0  0  0  0  0  0  0
  1  2  1  0
  2  3  1  0
  2  4  1  0
  4  5  1  0
  5  6  1  0
  6  7  1  0
  7  8  2  0
  7  9  1  0
  9 10  1  0
 10 11  1  0
 11 12  2  0
 12 13  1  0
 13 14  2  0
 14 15  1  0
 15 16  2  0
  9 17  1  0
 17 18  1  0
 18 19  2  0
 18 20  1  0
 20 21  1  0
 21 22  2  3
 22 23  2  0
  5 24  1  0
 24 25  1  0
 24 26  1  0
 16 11  1  0
  1 27  1  0
  1 28  1  0
  1 29  1  0
  2 30  1  0
  3 31  1  0
  3 32  1  0
  3 33  1  0
  4 34  1  0
  4 35  1  0
  5 36  1  6
  6 37  1  0
  9 38  1  1
 10 39  1  0
 10 40  1  0
 12 41  1  0
 13 42  1  0
 14 43  1  0
 15 44  1  0
 16 45  1  0
 17 46  1  0
 20 47  1  0
 20 48  1  0
 25 49  1  0
 26 50  1  0
M  CHG  2  22   1  23  -1
M  END
$$$$
[H]c1c([H])c([H])c([C@]([H])(n2nnnc2-c2c([H])c([H])c(N3C([H])([H])C([H])([H])N([H])C([H])([H])C3([H])[H])c([H])c2[H])C([H])([H])[H])c([H])c1[H]
     RDKit          3D

 47 50  0  0  0  0  0  0  0  0999 V2000
    3.2008    1.3259    1.6281 C   0  0  0  0  0  0  0  0  0  0  0  0
    2.9424    0.6121    0.3316 C   0  0  2  0  0  0  0  0  0  0  0  0
    4.3273    0.1708   -0.1315 C   0  0  0  0  0  0  0  0  0  0  0  0
    4.5342   -1.0138   -0.7942 C   0  0  0  0  0  0  0  0  0  0  0  0
    5.8013   -1.4062   -1.2125 C   0  0  0  0  0  0  0  0  0  0  0  0
    6.8895   -0.6011   -0.9658 C   0  0  0  0  0  0  0  0  0  0  0  0
    6.6927    0.5838   -0.3046 C   0  0  0  0  0  0  0  0  0  0  0  0
    5.4318    0.9566    0.1023 C   0  0  0  0  0  0  0  0  0  0  0  0
    2.3472    1.3779   -0.6841 N   0  0  0  0  0  0  0  0  0  0  0  0
    3.1406    2.1638   -1.4615 N   0  0  0  0  0  0  0  0  0  0  0  0
    2.4456    2.7776   -2.3621 N   0  0  0  0  0  0  0  0  0  0  0  0
    1.2033    2.4192   -2.2032 N   0  0  0  0  0  0  0  0  0  0  0  0
    1.1369    1.5266   -1.1322 C   0  0  0  0  0  0  0  0  0  0  0  0
   -0.0992    0.9178   -0.7307 C   0  0  0  0  0  0  0  0  0  0  0  0
   -1.2123    1.0009   -1.5756 C   0  0  0  0  0  0  0  0  0  0  0  0
   -2.4218    0.4811   -1.2425 C   0  0  0  0  0  0  0  0  0  0  0  0
   -2.6246   -0.1622   -0.0459 C   0  0  0  0  0  0  0  0  0  0  0  0
   -1.5611   -0.2623    0.8057 C   0  0  0  0  0  0  0  0  0  0  0  0
   -0.3106    0.2866    0.4389 C   0  0  0  0  0  0  0  0  0  0  0  0
   -3.9184   -0.7092    0.2905 N   0  0  0  0  0  0  0  0  0  0  0  0
   -4.0414   -1.3642    1.5624 C   0  0  0  0  0  0  0  0  0  0  0  0
   -5.4194   -1.9117    1.8095 C   0  0  0  0  0  0  0  0  0  0  0  0
   -6.4440   -1.0407    1.2364 N   0  0  0  0  0  0  0  0  0  0  0  0
   -6.2803   -1.1250   -0.2127 C   0  0  0  0  0  0  0  0  0  0  0  0
   -4.9744   -0.5595   -0.6608 C   0  0  0  0  0  0  0  0  0  0  0  0
    3.5301    2.3577    1.5397 H   0  0  0  0  0  0  0  0  0  0  0  0
    2.3014    1.2151    2.3033 H   0  0  0  0  0  0  0  0  0  0  0  0
    4.0017    0.7655    2.1532 H   0  0  0  0  0  0  0  0  0  0  0  0
    2.4381   -0.3412    0.5532 H   0  0  0  0  0  0  0  0  0  0  0  0
    3.7014   -1.6622   -1.0001 H   0  0  0  0  0  0  0  0  0  0  0  0
    5.9505   -2.3389   -1.7320 H   0  0  0  0  0  0  0  0  0  0  0  0
    7.8927   -0.9130   -1.2976 H   0  0  0  0  0  0  0  0  0  0  0  0
    7.5323    1.2171   -0.1079 H   0  0  0  0  0  0  0  0  0  0  0  0
    5.2853    1.9015    0.6274 H   0  0  0  0  0  0  0  0  0  0  0  0
   -1.0697    1.5013   -2.5194 H   0  0  0  0  0  0  0  0  0  0  0  0
   -3.2870    0.5507   -1.9133 H   0  0  0  0  0  0  0  0  0  0  0  0
   -1.6805   -0.7631    1.7607 H   0  0  0  0  0  0  0  0  0  0  0  0
    0.4521    0.1791    1.1882 H   0  0  0  0  0  0  0  0  0  0  0  0
   -3.7477   -0.7123    2.4101 H   0  0  0  0  0  0  0  0  0  0  0  0
   -3.3408   -2.2324    1.5761 H   0  0  0  0  0  0  0  0  0  0  0  0
   -5.6437   -2.0146    2.8856 H   0  0  0  0  0  0  0  0  0  0  0  0
   -5.5126   -2.8798    1.2830 H   0  0  0  0  0  0  0  0  0  0  0  0
   -6.3266   -0.0701    1.5916 H   0  0  0  0  0  0  0  0  0  0  0  0
   -6.3633   -2.2201   -0.4547 H   0  0  0  0  0  0  0  0  0  0  0  0
   -7.1216   -0.6320   -0.7449 H   0  0  0  0  0  0  0  0  0  0  0  0
   -4.6643   -1.1238   -1.5859 H   0  0  0  0  0  0  0  0  0  0  0  0
   -5.1138    0.4961   -1.0019 H   0  0  0  0  0  0  0  0  0  0  0  0
  1  2  1  0
  2  3  1  0
  3  4  2  0
  4  5  1  0
  5  6  2  0
  6  7  1  0
  7  8  2  0
  2  9  1  0
  9 10  1  0
 10 11  2  0
 11 12  1  0
 12 13  2  0
 13 14  1  0
 14 15  2  0
 15 16  1  0
 16 17  2  0
 17 18  1  0
 18 19  2  0
 17 20  1  0
 20 21  1  0
 21 22  1  0
 22 23  1  0
 23 24  1  0
 24 25  1  0
  8  3  1  0
 13  9  1  0
 19 14  1  0
 25 20  1  0
  1 26  1  0
  1 27  1  0
  1 28  1  0
  2 29  1  1
  4 30  1  0
  5 31  1  0
  6 32  1  0
  7 33  1  0
  8 34  1  0
 15 35  1  0
 16 36  1  0
 18 37  1  0
 19 38  1  0
 21 39  1  0
 21 40  1  0
 22 41  1  0
 22 42  1  0
 23 43  1  0
 24 44  1  0
 24 45  1  0
 25 46  1  0
 25 47  1  0
M  END
$$$$
[H]c1nc2c(nc([H])c(=O)n2[H])c(Oc2c([H])c([H])c(N([H])C(=O)N([H])c3c([H])c(C(C([H])([H])[H])(C([H])([H])[H])C([H])([H])[H])nn3-c3c([H])c([H])c([H])c(C#N)c3[H])c3c([H])c([H])c([H])c([H])c23)c1[H]
     RDKit          3D

 69 74  0  0  0  0  0  0  0  0999 V2000
   -5.8534   -3.1439    0.7041 C   0  0  0  0  0  0  0  0  0  0  0  0
   -4.8865   -2.6204   -0.3615 C   0  0  0  0  0  0  0  0  0  0  0  0
   -5.6217   -2.6839   -1.6846 C   0  0  0  0  0  0  0  0  0  0  0  0
   -3.7028   -3.5496   -0.4390 C   0  0  0  0  0  0  0  0  0  0  0  0
   -4.5019   -1.2142   -0.0488 C   0  0  0  0  0  0  0  0  0  0  0  0
   -3.2221   -0.7631    0.2904 C   0  0  0  0  0  0  0  0  0  0  0  0
   -3.2533    0.5871    0.5090 C   0  0  0  0  0  0  0  0  0  0  0  0
   -2.2807    1.5345    0.8421 N   0  0  0  0  0  0  0  0  0  0  0  0
   -0.8727    1.4247    0.8995 C   0  0  0  0  0  0  0  0  0  0  0  0
   -0.2924    2.4582    1.4191 O   0  0  0  0  0  0  0  0  0  0  0  0
   -0.1197    0.3406    0.4564 N   0  0  0  0  0  0  0  0  0  0  0  0
    1.2850    0.1911    0.5720 C   0  0  0  0  0  0  0  0  0  0  0  0
    2.0174    0.7328    1.5858 C   0  0  0  0  0  0  0  0  0  0  0  0
    3.3551    0.3778    1.7655 C   0  0  0  0  0  0  0  0  0  0  0  0
    4.0060   -0.5350    0.9341 C   0  0  0  0  0  0  0  0  0  0  0  0
    5.2715   -0.8082    1.1958 O   0  0  0  0  0  0  0  0  0  0  0  0
    6.4879   -0.8106    0.7062 C   0  0  0  0  0  0  0  0  0  0  0  0
    7.2513   -1.9829    0.6660 C   0  0  0  0  0  0  0  0  0  0  0  0
    8.5133   -2.0538    0.1770 C   0  0  0  0  0  0  0  0  0  0  0  0
    9.0944   -0.9472   -0.3072 N   0  0  0  0  0  0  0  0  0  0  0  0
    8.4185    0.2247   -0.3037 C   0  0  0  0  0  0  0  0  0  0  0  0
    9.0626    1.3005   -0.8009 N   0  0  0  0  0  0  0  0  0  0  0  0
    8.3914    2.4921   -0.7983 C   0  0  0  0  0  0  0  0  0  0  0  0
    8.9871    3.5058   -1.2662 O   0  0  0  0  0  0  0  0  0  0  0  0
    7.1081    2.6159   -0.3108 C   0  0  0  0  0  0  0  0  0  0  0  0
    6.5194    1.5064    0.1716 N   0  0  0  0  0  0  0  0  0  0  0  0
    7.1264    0.3081    0.1960 C   0  0  0  0  0  0  0  0  0  0  0  0
    3.2420   -1.0550   -0.0763 C   0  0  0  0  0  0  0  0  0  0  0  0
    3.8059   -1.9244   -0.9841 C   0  0  0  0  0  0  0  0  0  0  0  0
    3.0823   -2.4409   -2.0548 C   0  0  0  0  0  0  0  0  0  0  0  0
    1.7747   -2.1071   -2.2492 C   0  0  0  0  0  0  0  0  0  0  0  0
    1.1859   -1.2249   -1.3344 C   0  0  0  0  0  0  0  0  0  0  0  0
    1.9172   -0.7187   -0.2768 C   0  0  0  0  0  0  0  0  0  0  0  0
   -4.5616    0.9229    0.2961 N   0  0  0  0  0  0  0  0  0  0  0  0
   -5.2639   -0.1326   -0.0251 N   0  0  0  0  0  0  0  0  0  0  0  0
   -5.1496    2.2171    0.4120 C   0  0  0  0  0  0  0  0  0  0  0  0
   -6.0595    2.3979    1.4397 C   0  0  0  0  0  0  0  0  0  0  0  0
   -6.6643    3.5965    1.6118 C   0  0  0  0  0  0  0  0  0  0  0  0
   -6.3971    4.6573    0.7833 C   0  0  0  0  0  0  0  0  0  0  0  0
   -5.4828    4.4539   -0.2373 C   0  0  0  0  0  0  0  0  0  0  0  0
   -4.8594    3.2479   -0.4298 C   0  0  0  0  0  0  0  0  0  0  0  0
   -5.2145    5.5879   -1.1029 C   0  0  0  0  0  0  0  0  0  0  0  0
   -5.0105    6.4661   -1.7995 N   0  0  0  0  0  0  0  0  0  0  0  0
   -5.4638   -2.9034    1.7277 H   0  0  0  0  0  0  0  0  0  0  0  0
   -6.8307   -2.6378    0.6374 H   0  0  0  0  0  0  0  0  0  0  0  0
   -5.9512   -4.2336    0.5311 H   0  0  0  0  0  0  0  0  0  0  0  0
   -5.7253   -1.6756   -2.1449 H   0  0  0  0  0  0  0  0  0  0  0  0
   -6.6474   -3.0980   -1.5763 H   0  0  0  0  0  0  0  0  0  0  0  0
   -5.1083   -3.3501   -2.4090 H   0  0  0  0  0  0  0  0  0  0  0  0
   -2.7803   -3.0454   -0.7966 H   0  0  0  0  0  0  0  0  0  0  0  0
   -3.9060   -4.3955   -1.1424 H   0  0  0  0  0  0  0  0  0  0  0  0
   -3.5045   -4.0381    0.5431 H   0  0  0  0  0  0  0  0  0  0  0  0
   -2.4121   -1.4414    0.3776 H   0  0  0  0  0  0  0  0  0  0  0  0
   -2.6619    2.4755    1.2213 H   0  0  0  0  0  0  0  0  0  0  0  0
   -0.6581   -0.4410   -0.0103 H   0  0  0  0  0  0  0  0  0  0  0  0
    1.5645    1.4429    2.2732 H   0  0  0  0  0  0  0  0  0  0  0  0
    3.9066    0.8361    2.5813 H   0  0  0  0  0  0  0  0  0  0  0  0
    6.8094   -2.9205    1.0512 H   0  0  0  0  0  0  0  0  0  0  0  0
    9.0664   -2.9975    0.1618 H   0  0  0  0  0  0  0  0  0  0  0  0
   10.0293    1.2484   -1.1764 H   0  0  0  0  0  0  0  0  0  0  0  0
    6.6327    3.5844   -0.3361 H   0  0  0  0  0  0  0  0  0  0  0  0
    4.8061   -2.2300   -0.9095 H   0  0  0  0  0  0  0  0  0  0  0  0
    3.5399   -3.1317   -2.7772 H   0  0  0  0  0  0  0  0  0  0  0  0
    1.1962   -2.4949   -3.0720 H   0  0  0  0  0  0  0  0  0  0  0  0
    0.1561   -0.9785   -1.5415 H   0  0  0  0  0  0  0  0  0  0  0  0
   -6.2902    1.5606    2.1125 H   0  0  0  0  0  0  0  0  0  0  0  0
   -7.3702    3.6975    2.4263 H   0  0  0  0  0  0  0  0  0  0  0  0
   -6.8733    5.6146    0.9147 H   0  0  0  0  0  0  0  0  0  0  0  0
   -4.1569    3.1214   -1.2272 H   0  0  0  0  0  0  0  0  0  0  0  0
  1  2  1  0
  2  3  1  0
  2  4  1  0
  2  5  1  0
  5  6  1  0
  6  7  2  0
  7  8  1  0
  8  9  1  0
  9 10  2  0
  9 11  1  0
 11 12  1  0
 12 13  2  0
 13 14  1  0
 14 15  2  0
 15 16  1  0
 16 17  1  0
 17 18  2  0
 18 19  1  0
 19 20  2  0
 20 21  1  0
 21 22  1  0
 22 23  1  0
 23 24  2  0
 23 25  1  0
 25 26  2  0
 26 27  1  0
 15 28  1  0
 28 29  2  0
 29 30  1  0
 30 31  2  0
 31 32  1  0
 32 33  2  0
  7 34  1  0
 34 35  1  0
 34 36  1  0
 36 37  2  0
 37 38  1  0
 38 39  2  0
 39 40  1  0
 40 41  2  0
 40 42  1  0
 42 43  3  0
 35  5  2  0
 41 36  1  0
 33 12  1  0
 27 17  1  0
 33 28  1  0
 27 21  2  0
  1 44  1  0
  1 45  1  0
  1 46  1  0
  3 47  1  0
  3 48  1  0
  3 49  1  0
  4 50  1  0
  4 51  1  0
  4 52  1  0
  6 53  1  0
  8 54  1  0
 11 55  1  0
 13 56  1  0
 14 57  1  0
 18 58  1  0
 19 59  1  0
 22 60  1  0
 25 61  1  0
 29 62  1  0
 30 63  1  0
 31 64  1  0
 32 65  1  0
 37 66  1  0
 38 67  1  0
 39 68  1  0
 41 69  1  0
M  END
$$$$
[H]c1nc(N([H])c2c([H])c(OC([H])([H])[H])c(OC([H])([H])[H])c(OC([H])([H])[H])c2[H])nc(N([H])c2nc3c(c([H])c2[H])OC(C([H])([H])[H])(C([H])([H])[H])C(=O)N3[H])c1F
     RDKit          3D

 57 60  0  0  0  0  0  0  0  0999 V2000
   -5.6364    2.1181   -1.8630 C   0  0  0  0  0  0  0  0  0  0  0  0
   -5.8443    0.7587   -1.5880 O   0  0  0  0  0  0  0  0  0  0  0  0
   -4.8072    0.0010   -1.0783 C   0  0  0  0  0  0  0  0  0  0  0  0
   -3.5618    0.6012   -0.8432 C   0  0  0  0  0  0  0  0  0  0  0  0
   -2.5031   -0.0703   -0.3477 C   0  0  0  0  0  0  0  0  0  0  0  0
   -1.2316    0.4626   -0.0655 N   0  0  0  0  0  0  0  0  0  0  0  0
   -0.9067    1.8244    0.0656 C   0  0  0  0  0  0  0  0  0  0  0  0
   -1.7494    2.8585   -0.0431 N   0  0  0  0  0  0  0  0  0  0  0  0
   -1.4116    4.1432    0.0863 C   0  0  0  0  0  0  0  0  0  0  0  0
   -0.1125    4.4539    0.3502 C   0  0  0  0  0  0  0  0  0  0  0  0
    0.3587    5.6995    0.5032 F   0  0  0  0  0  0  0  0  0  0  0  0
    0.8217    3.4140    0.4762 C   0  0  0  0  0  0  0  0  0  0  0  0
    2.1801    3.7060    0.7505 N   0  0  0  0  0  0  0  0  0  0  0  0
    3.1050    2.6399    0.8733 C   0  0  0  0  0  0  0  0  0  0  0  0
    4.4571    2.8965    1.1446 C   0  0  0  0  0  0  0  0  0  0  0  0
    5.3443    1.8517    1.2613 C   0  0  0  0  0  0  0  0  0  0  0  0
    4.9285    0.5481    1.1161 C   0  0  0  0  0  0  0  0  0  0  0  0
    5.7961   -0.5293    1.2273 O   0  0  0  0  0  0  0  0  0  0  0  0
    5.5066   -1.7939    0.6515 C   0  0  0  0  0  0  0  0  0  0  0  0
    6.2846   -2.8749    1.3459 C   0  0  0  0  0  0  0  0  0  0  0  0
    5.8127   -1.7705   -0.8228 C   0  0  0  0  0  0  0  0  0  0  0  0
    4.0556   -2.1122    0.8177 C   0  0  0  0  0  0  0  0  0  0  0  0
    3.6763   -3.3008    1.0572 O   0  0  0  0  0  0  0  0  0  0  0  0
    3.1427   -1.0383    0.6962 N   0  0  0  0  0  0  0  0  0  0  0  0
    3.5828    0.3027    0.8467 C   0  0  0  0  0  0  0  0  0  0  0  0
    2.7547    1.3550    0.7416 N   0  0  0  0  0  0  0  0  0  0  0  0
    0.3826    2.1601    0.3289 N   0  0  0  0  0  0  0  0  0  0  0  0
   -2.7045   -1.4372   -0.0691 C   0  0  0  0  0  0  0  0  0  0  0  0
   -3.9082   -2.0549   -0.2874 C   0  0  0  0  0  0  0  0  0  0  0  0
   -4.0666   -3.3859   -0.0045 O   0  0  0  0  0  0  0  0  0  0  0  0
   -2.9762   -4.1177    0.5153 C   0  0  0  0  0  0  0  0  0  0  0  0
   -4.9761   -1.3425   -0.7952 C   0  0  0  0  0  0  0  0  0  0  0  0
   -6.2188   -1.9257   -1.0338 O   0  0  0  0  0  0  0  0  0  0  0  0
   -7.1743   -1.9137    0.0186 C   0  0  0  0  0  0  0  0  0  0  0  0
   -4.7813    2.3111   -2.5387 H   0  0  0  0  0  0  0  0  0  0  0  0
   -5.4850    2.7232   -0.9417 H   0  0  0  0  0  0  0  0  0  0  0  0
   -6.5386    2.5082   -2.4098 H   0  0  0  0  0  0  0  0  0  0  0  0
   -3.4970    1.6360   -1.0973 H   0  0  0  0  0  0  0  0  0  0  0  0
   -0.4103   -0.2136    0.0641 H   0  0  0  0  0  0  0  0  0  0  0  0
   -2.1604    4.9024   -0.0184 H   0  0  0  0  0  0  0  0  0  0  0  0
    2.4712    4.6872    0.8556 H   0  0  0  0  0  0  0  0  0  0  0  0
    4.7318    3.9285    1.2492 H   0  0  0  0  0  0  0  0  0  0  0  0
    6.3943    2.0780    1.4734 H   0  0  0  0  0  0  0  0  0  0  0  0
    5.7812   -3.1588    2.2953 H   0  0  0  0  0  0  0  0  0  0  0  0
    7.3278   -2.5920    1.5737 H   0  0  0  0  0  0  0  0  0  0  0  0
    6.3119   -3.7970    0.7168 H   0  0  0  0  0  0  0  0  0  0  0  0
    5.5475   -2.7321   -1.2838 H   0  0  0  0  0  0  0  0  0  0  0  0
    5.2428   -0.9509   -1.3072 H   0  0  0  0  0  0  0  0  0  0  0  0
    6.8942   -1.5474   -0.9277 H   0  0  0  0  0  0  0  0  0  0  0  0
    2.1474   -1.2464    0.4955 H   0  0  0  0  0  0  0  0  0  0  0  0
   -1.8577   -2.0119    0.3366 H   0  0  0  0  0  0  0  0  0  0  0  0
   -2.2185   -4.1935   -0.2936 H   0  0  0  0  0  0  0  0  0  0  0  0
   -3.3828   -5.1246    0.7905 H   0  0  0  0  0  0  0  0  0  0  0  0
   -2.5554   -3.6060    1.4036 H   0  0  0  0  0  0  0  0  0  0  0  0
   -7.4919   -2.9486    0.2973 H   0  0  0  0  0  0  0  0  0  0  0  0
   -8.0902   -1.3564   -0.3279 H   0  0  0  0  0  0  0  0  0  0  0  0
   -6.7818   -1.4227    0.9319 H   0  0  0  0  0  0  0  0  0  0  0  0
  1  2  1  0
  2  3  1  0
  3  4  2  0
  4  5  1  0
  5  6  1  0
  6  7  1  0
  7  8  2  0
  8  9  1  0
  9 10  2  0
 10 11  1  0
 10 12  1  0
 12 13  1  0
 13 14  1  0
 14 15  2  0
 15 16  1  0
 16 17  2  0
 17 18  1  0
 18 19  1  0
 19 20  1  0
 19 21  1  0
 19 22  1  0
 22 23  2  0
 22 24  1  0
 24 25  1  0
 25 26  2  0
 12 27  2  0
  5 28  2  0
 28 29  1  0
 29 30  1  0
 30 31  1  0
 29 32  2  0
 32 33  1  0
 33 34  1  0
 32  3  1  0
 27  7  1  0
 26 14  1  0
 25 17  1  0
  1 35  1  0
  1 36  1  0
  1 37  1  0
  4 38  1  0
  6 39  1  0
  9 40  1  0
 13 41  1  0
 15 42  1  0
 16 43  1  0
 20 44  1  0
 20 45  1  0
 20 46  1  0
 21 47  1  0
 21 48  1  0
 21 49  1  0
 24 50  1  0
 28 51  1  0
 31 52  1  0
 31 53  1  0
 31 54  1  0
 34 55  1  0
 34 56  1  0
 34 57  1  0
M  END
$$$$
[H]C1=C([H])C([H])(Cl)C([H])([H])C([H])=C1N([H])C(=O)C1(C(=O)N([H])c2c([H])c([H])c(Oc3c([H])c([H])nc4c([H])c(OC([H])([H])C([H])([H])C([H])([H])N5C([H])([H])C([H])([H])OC([H])([H])C5([H])[H])c(OC([H])([H])[H])c([H])c34)c(F)c2[H])C([H])([H])C1([H])[H]
     RDKit          3D

 82 87  0  0  0  0  0  0  0  0999 V2000
   -1.9066    1.4597    0.2745 C   0  0  0  0  0  0  0  0  0  0  0  0
   -3.1047    0.7217    0.2577 O   0  0  0  0  0  0  0  0  0  0  0  0
   -3.2175   -0.4076   -0.5508 C   0  0  0  0  0  0  0  0  0  0  0  0
   -2.1517   -0.7849   -1.3259 C   0  0  0  0  0  0  0  0  0  0  0  0
   -2.2099   -1.9104   -2.1527 C   0  0  0  0  0  0  0  0  0  0  0  0
   -1.1334   -2.2526   -2.9237 C   0  0  0  0  0  0  0  0  0  0  0  0
    0.0588   -1.7078   -3.0554 O   0  0  0  0  0  0  0  0  0  0  0  0
    1.1544   -1.3540   -2.4112 C   0  0  0  0  0  0  0  0  0  0  0  0
    2.0981   -2.4183   -2.1891 C   0  0  0  0  0  0  0  0  0  0  0  0
    3.2755   -2.2864   -1.5624 C   0  0  0  0  0  0  0  0  0  0  0  0
    3.6723   -1.0294   -1.0596 C   0  0  0  0  0  0  0  0  0  0  0  0
    4.8847   -0.8688   -0.3628 N   0  0  0  0  0  0  0  0  0  0  0  0
    5.5915   -1.7738    0.3917 C   0  0  0  0  0  0  0  0  0  0  0  0
    5.1550   -2.9620    0.5800 O   0  0  0  0  0  0  0  0  0  0  0  0
    6.9123   -1.4597    1.0620 C   0  0  0  0  0  0  0  0  0  0  0  0
    7.5432   -2.5291    1.8450 C   0  0  0  0  0  0  0  0  0  0  0  0
    6.7859   -1.4664    2.5869 C   0  0  0  0  0  0  0  0  0  0  0  0
    7.6551   -0.2908    0.5644 C   0  0  0  0  0  0  0  0  0  0  0  0
    7.4797    0.0107   -0.6798 O   0  0  0  0  0  0  0  0  0  0  0  0
    8.5333    0.5370    1.2611 N   0  0  0  0  0  0  0  0  0  0  0  0
    9.1427    1.6392    0.5411 C   0  0  0  0  0  0  0  0  0  0  0  0
   10.4694    1.7153    0.3930 C   0  0  0  0  0  0  0  0  0  0  0  0
   11.1083    2.8138   -0.3326 C   0  0  0  0  0  0  0  0  0  0  0  0
   10.2224    3.8708   -0.8786 C   0  0  0  0  0  0  0  0  0  0  0  0
   10.6869    5.4753   -0.2082 Cl  0  0  0  0  0  0  0  0  0  0  0  0
    8.7714    3.6949   -0.6587 C   0  0  0  0  0  0  0  0  0  0  0  0
    8.2990    2.6569   -0.0023 C   0  0  0  0  0  0  0  0  0  0  0  0
    2.8034    0.0249   -1.2504 C   0  0  0  0  0  0  0  0  0  0  0  0
    1.5955   -0.1680   -1.9098 C   0  0  0  0  0  0  0  0  0  0  0  0
    0.8614    0.9679   -2.1794 F   0  0  0  0  0  0  0  0  0  0  0  0
   -1.3145   -3.4449   -3.7676 C   0  0  0  0  0  0  0  0  0  0  0  0
   -2.4843   -4.0982   -3.7271 C   0  0  0  0  0  0  0  0  0  0  0  0
   -3.5035   -3.7101   -2.9426 N   0  0  0  0  0  0  0  0  0  0  0  0
   -3.3824   -2.6252   -2.1546 C   0  0  0  0  0  0  0  0  0  0  0  0
   -4.4321   -2.2259   -1.3653 C   0  0  0  0  0  0  0  0  0  0  0  0
   -4.4284   -1.1239   -0.5321 C   0  0  0  0  0  0  0  0  0  0  0  0
   -5.4489   -0.8134    0.1867 O   0  0  0  0  0  0  0  0  0  0  0  0
   -6.4714   -0.5083    0.9025 C   0  0  0  0  0  0  0  0  0  0  0  0
   -6.4028    0.7849    1.7218 C   0  0  0  0  0  0  0  0  0  0  0  0
   -7.6780    0.9743    2.5067 C   0  0  0  0  0  0  0  0  0  0  0  0
   -8.8504    1.0344    1.7853 N   0  0  0  0  0  0  0  0  0  0  0  0
  -10.0215    1.1859    2.6115 C   0  0  0  0  0  0  0  0  0  0  0  0
  -11.1378    0.4010    1.8840 C   0  0  0  0  0  0  0  0  0  0  0  0
  -10.8282    0.2410    0.5581 O   0  0  0  0  0  0  0  0  0  0  0  0
  -10.2750    1.3261   -0.0698 C   0  0  0  0  0  0  0  0  0  0  0  0
   -9.0184    1.8132    0.6275 C   0  0  0  0  0  0  0  0  0  0  0  0
   -1.0827    0.8341    0.6901 H   0  0  0  0  0  0  0  0  0  0  0  0
   -1.6064    1.7399   -0.7616 H   0  0  0  0  0  0  0  0  0  0  0  0
   -2.0075    2.3482    0.9297 H   0  0  0  0  0  0  0  0  0  0  0  0
   -1.2495   -0.2502   -1.3172 H   0  0  0  0  0  0  0  0  0  0  0  0
    1.7971   -3.3915   -2.5830 H   0  0  0  0  0  0  0  0  0  0  0  0
    3.9693   -3.1092   -1.4307 H   0  0  0  0  0  0  0  0  0  0  0  0
    5.2941    0.1282   -0.4162 H   0  0  0  0  0  0  0  0  0  0  0  0
    7.0455   -3.5365    1.9318 H   0  0  0  0  0  0  0  0  0  0  0  0
    8.6556   -2.5376    1.9976 H   0  0  0  0  0  0  0  0  0  0  0  0
    5.7894   -1.7058    3.0171 H   0  0  0  0  0  0  0  0  0  0  0  0
    7.3922   -0.7554    3.1642 H   0  0  0  0  0  0  0  0  0  0  0  0
    8.7689    0.4134    2.2450 H   0  0  0  0  0  0  0  0  0  0  0  0
   11.0875    0.9451    0.8310 H   0  0  0  0  0  0  0  0  0  0  0  0
   11.8925    3.2785    0.3127 H   0  0  0  0  0  0  0  0  0  0  0  0
   11.6491    2.3491   -1.2092 H   0  0  0  0  0  0  0  0  0  0  0  0
   10.3568    3.9933   -1.9863 H   0  0  0  0  0  0  0  0  0  0  0  0
    8.1090    4.4457   -1.0594 H   0  0  0  0  0  0  0  0  0  0  0  0
    7.1998    2.6084    0.1213 H   0  0  0  0  0  0  0  0  0  0  0  0
    3.0712    1.0250   -0.8671 H   0  0  0  0  0  0  0  0  0  0  0  0
   -0.4640   -3.6977   -4.3656 H   0  0  0  0  0  0  0  0  0  0  0  0
   -2.6286   -4.9857   -4.3625 H   0  0  0  0  0  0  0  0  0  0  0  0
   -5.3280   -2.8305   -1.4043 H   0  0  0  0  0  0  0  0  0  0  0  0
   -6.7376   -1.2923    1.6756 H   0  0  0  0  0  0  0  0  0  0  0  0
   -7.4266   -0.4812    0.2770 H   0  0  0  0  0  0  0  0  0  0  0  0
   -5.5800    0.6404    2.4411 H   0  0  0  0  0  0  0  0  0  0  0  0
   -6.1472    1.6644    1.1157 H   0  0  0  0  0  0  0  0  0  0  0  0
   -7.7288    0.0487    3.1757 H   0  0  0  0  0  0  0  0  0  0  0  0
   -7.4869    1.7852    3.2502 H   0  0  0  0  0  0  0  0  0  0  0  0
  -10.3380    2.2328    2.5464 H   0  0  0  0  0  0  0  0  0  0  0  0
   -9.9160    0.8482    3.6416 H   0  0  0  0  0  0  0  0  0  0  0  0
  -12.1058    0.9327    2.0035 H   0  0  0  0  0  0  0  0  0  0  0  0
  -11.2003   -0.6089    2.3302 H   0  0  0  0  0  0  0  0  0  0  0  0
   -9.9627    0.9576   -1.0945 H   0  0  0  0  0  0  0  0  0  0  0  0
  -11.0044    2.1533   -0.2569 H   0  0  0  0  0  0  0  0  0  0  0  0
   -9.2428    2.8915    0.8894 H   0  0  0  0  0  0  0  0  0  0  0  0
   -8.1936    1.7897   -0.1106 H   0  0  0  0  0  0  0  0  0  0  0  0
  1  2  1  0
  2  3  1  0
  3  4  2  0
  4  5  1  0
  5  6  2  0
  6  7  1  0
  7  8  1  0
  8  9  2  0
  9 10  1  0
 10 11  2  0
 11 12  1  0
 12 13  1  0
 13 14  2  0
 13 15  1  0
 15 16  1  0
 16 17  1  0
 15 18  1  0
 18 19  2  0
 18 20  1  0
 20 21  1  0
 21 22  2  0
 22 23  1  0
 23 24  1  0
 24 25  1  0
 24 26  1  0
 26 27  2  0
 11 28  1  0
 28 29  2  0
 29 30  1  0
  6 31  1  0
 31 32  2  0
 32 33  1  0
 33 34  2  0
 34 35  1  0
 35 36  2  0
 36 37  1  0
 37 38  1  0
 38 39  1  0
 39 40  1  0
 40 41  1  0
 41 42  1  0
 42 43  1  0
 43 44  1  0
 44 45  1  0
 45 46  1  0
 36  3  1  0
 46 41  1  0
 34  5  1  0
 29  8  1  0
 17 15  1  0
 27 21  1  0
  1 47  1  0
  1 48  1  0
  1 49  1  0
  4 50  1  0
  9 51  1  0
 10 52  1  0
 12 53  1  0
 16 54  1  0
 16 55  1  0
 17 56  1  0
 17 57  1  0
 20 58  1  0
 22 59  1  0
 23 60  1  0
 23 61  1  0
 24 62  1  0
 26 63  1  0
 27 64  1  0
 28 65  1  0
 31 66  1  0
 32 67  1  0
 35 68  1  0
 38 69  1  0
 38 70  1  0
 39 71  1  0
 39 72  1  0
 40 73  1  0
 40 74  1  0
 42 75  1  0
 42 76  1  0
 43 77  1  0
 43 78  1  0
 45 79  1  0
 45 80  1  0
 46 81  1  0
 46 82  1  0
M  END
$$$$
[H]c1nc(C(C#N)(C([H])([H])[H])C([H])([H])[H])c([H])c(C(=O)N([H])c2c([H])c([H])c(C([H])([H])[H])c(-c3nnc(OC([H])([H])C([H])([H])[H])c(N4C([H])([H])C([H])([H])OC([H])([H])C4([H])[H])c3[H])c2[H])c1[H]
     RDKit          3D

 66 69  0  0  0  0  0  0  0  0999 V2000
   -6.9315   -3.0565   -1.2120 C   0  0  0  0  0  0  0  0  0  0  0  0
   -7.2559   -1.9825   -0.2166 C   0  0  0  0  0  0  0  0  0  0  0  0
   -6.3920   -0.9077   -0.3493 O   0  0  0  0  0  0  0  0  0  0  0  0
   -5.0359   -0.9771   -0.1463 C   0  0  0  0  0  0  0  0  0  0  0  0
   -4.3511   -2.0558    0.2120 N   0  0  0  0  0  0  0  0  0  0  0  0
   -3.0647   -2.1075    0.4057 N   0  0  0  0  0  0  0  0  0  0  0  0
   -2.2792   -1.0102    0.2500 C   0  0  0  0  0  0  0  0  0  0  0  0
   -2.8866    0.1658   -0.1241 C   0  0  0  0  0  0  0  0  0  0  0  0
   -4.2553    0.1855   -0.3197 C   0  0  0  0  0  0  0  0  0  0  0  0
   -4.9509    1.3742   -0.6171 N   0  0  0  0  0  0  0  0  0  0  0  0
   -5.9127    1.5969   -1.6553 C   0  0  0  0  0  0  0  0  0  0  0  0
   -6.9491    2.5620   -1.0710 C   0  0  0  0  0  0  0  0  0  0  0  0
   -7.1012    2.4537    0.2922 O   0  0  0  0  0  0  0  0  0  0  0  0
   -5.9986    2.7496    1.0523 C   0  0  0  0  0  0  0  0  0  0  0  0
   -4.7128    2.5583    0.2514 C   0  0  0  0  0  0  0  0  0  0  0  0
   -0.8765   -1.0704    0.6400 C   0  0  0  0  0  0  0  0  0  0  0  0
    0.1767   -0.9394   -0.2041 C   0  0  0  0  0  0  0  0  0  0  0  0
    1.4652   -1.0058    0.2852 C   0  0  0  0  0  0  0  0  0  0  0  0
    2.6279   -1.0028   -0.5224 N   0  0  0  0  0  0  0  0  0  0  0  0
    3.7584   -0.2974   -0.1246 C   0  0  0  0  0  0  0  0  0  0  0  0
    3.7028    0.4021    0.9349 O   0  0  0  0  0  0  0  0  0  0  0  0
    5.0534   -0.3045   -0.8401 C   0  0  0  0  0  0  0  0  0  0  0  0
    5.2334   -0.8896   -2.0455 C   0  0  0  0  0  0  0  0  0  0  0  0
    6.5483   -0.9209   -2.5655 C   0  0  0  0  0  0  0  0  0  0  0  0
    7.5692   -0.3833   -1.8751 N   0  0  0  0  0  0  0  0  0  0  0  0
    7.4448    0.2055   -0.6833 C   0  0  0  0  0  0  0  0  0  0  0  0
    6.1442    0.2363   -0.1729 C   0  0  0  0  0  0  0  0  0  0  0  0
    8.5889    0.7724    0.0907 C   0  0  0  0  0  0  0  0  0  0  0  0
    9.3212    1.7374   -0.8135 C   0  0  0  0  0  0  0  0  0  0  0  0
    8.0784    1.5690    1.2680 C   0  0  0  0  0  0  0  0  0  0  0  0
    9.4781   -0.3048    0.5309 C   0  0  0  0  0  0  0  0  0  0  0  0
   10.1814   -1.1779    0.8816 N   0  0  0  0  0  0  0  0  0  0  0  0
    1.6343   -1.2080    1.6718 C   0  0  0  0  0  0  0  0  0  0  0  0
    0.5903   -1.3402    2.5356 C   0  0  0  0  0  0  0  0  0  0  0  0
   -0.6810   -1.2725    2.0245 C   0  0  0  0  0  0  0  0  0  0  0  0
   -1.8718   -1.3864    2.8896 C   0  0  0  0  0  0  0  0  0  0  0  0
   -5.8978   -3.4174   -1.1624 H   0  0  0  0  0  0  0  0  0  0  0  0
   -7.0875   -2.6719   -2.2666 H   0  0  0  0  0  0  0  0  0  0  0  0
   -7.5666   -3.9680   -1.0748 H   0  0  0  0  0  0  0  0  0  0  0  0
   -7.1358   -2.4864    0.7996 H   0  0  0  0  0  0  0  0  0  0  0  0
   -8.3288   -1.6636   -0.2982 H   0  0  0  0  0  0  0  0  0  0  0  0
   -2.3262    1.1059   -0.2779 H   0  0  0  0  0  0  0  0  0  0  0  0
   -6.4209    0.7280   -2.0617 H   0  0  0  0  0  0  0  0  0  0  0  0
   -5.4116    2.1477   -2.4884 H   0  0  0  0  0  0  0  0  0  0  0  0
   -6.7247    3.6176   -1.3754 H   0  0  0  0  0  0  0  0  0  0  0  0
   -7.9203    2.2980   -1.5454 H   0  0  0  0  0  0  0  0  0  0  0  0
   -5.9887    2.0199    1.9161 H   0  0  0  0  0  0  0  0  0  0  0  0
   -6.0183    3.7538    1.4693 H   0  0  0  0  0  0  0  0  0  0  0  0
   -4.5027    3.4427   -0.3334 H   0  0  0  0  0  0  0  0  0  0  0  0
   -3.8913    2.3308    0.9379 H   0  0  0  0  0  0  0  0  0  0  0  0
   -0.0001   -0.7837   -1.2881 H   0  0  0  0  0  0  0  0  0  0  0  0
    2.6273   -1.5365   -1.4133 H   0  0  0  0  0  0  0  0  0  0  0  0
    4.4168   -1.3310   -2.6146 H   0  0  0  0  0  0  0  0  0  0  0  0
    6.7230   -1.3962   -3.5178 H   0  0  0  0  0  0  0  0  0  0  0  0
    6.0219    0.7199    0.7838 H   0  0  0  0  0  0  0  0  0  0  0  0
    9.4612    1.3290   -1.8171 H   0  0  0  0  0  0  0  0  0  0  0  0
    8.6660    2.6543   -0.9075 H   0  0  0  0  0  0  0  0  0  0  0  0
   10.2708    2.0963   -0.3642 H   0  0  0  0  0  0  0  0  0  0  0  0
    8.9442    2.0515    1.7758 H   0  0  0  0  0  0  0  0  0  0  0  0
    7.3429    2.2942    0.8895 H   0  0  0  0  0  0  0  0  0  0  0  0
    7.6314    0.8337    1.9971 H   0  0  0  0  0  0  0  0  0  0  0  0
    2.6544   -1.2793    2.0350 H   0  0  0  0  0  0  0  0  0  0  0  0
    0.7605   -1.4962    3.5992 H   0  0  0  0  0  0  0  0  0  0  0  0
   -2.1604   -2.4629    2.8618 H   0  0  0  0  0  0  0  0  0  0  0  0
   -2.6909   -0.7239    2.5867 H   0  0  0  0  0  0  0  0  0  0  0  0
   -1.5381   -1.1737    3.9433 H   0  0  0  0  0  0  0  0  0  0  0  0
  1  2  1  0
  2  3  1  0
  3  4  1  0
  4  5  2  0
  5  6  1  0
  6  7  2  0
  7  8  1  0
  8  9  2  0
  9 10  1  0
 10 11  1  0
 11 12  1  0
 12 13  1  0
 13 14  1  0
 14 15  1  0
  7 16  1  0
 16 17  2  0
 17 18  1  0
 18 19  1  0
 19 20  1  0
 20 21  2  0
 20 22  1  0
 22 23  2  0
 23 24  1  0
 24 25  2  0
 25 26  1  0
 26 27  2  0
 26 28  1  0
 28 29  1  0
 28 30  1  0
 28 31  1  0
 31 32  3  0
 18 33  2  0
 33 34  1  0
 34 35  2  0
 35 36  1  0
  9  4  1  0
 15 10  1  0
 35 16  1  0
 27 22  1  0
  1 37  1  0
  1 38  1  0
  1 39  1  0
  2 40  1  0
  2 41  1  0
  8 42  1  0
 11 43  1  0
 11 44  1  0
 12 45  1  0
 12 46  1  0
 14 47  1  0
 14 48  1  0
 15 49  1  0
 15 50  1  0
 17 51  1  0
 19 52  1  0
 23 53  1  0
 24 54  1  0
 27 55  1  0
 29 56  1  0
 29 57  1  0
 29 58  1  0
 30 59  1  0
 30 60  1  0
 30 61  1  0
 33 62  1  0
 34 63  1  0
 36 64  1  0
 36 65  1  0
 36 66  1  0
M  END
$$$$
[H]c1nc([H])c(Cl)c(N([H])C(=O)N([H])c2c([H])c(-c3c([H])c([H])c([H])c(-c4c([H])c([H])c([H])c(C(=O)N([H])C5([H])C([H])([H])C5([H])[H])c4[H])c3[H])nn(C([H])([H])C([H])([H])[H])c2=O)c1Cl
     RDKit          3D

 63 67  0  0  0  0  0  0  0  0999 V2000
   -1.7312   -5.2029    0.7561 C   0  0  0  0  0  0  0  0  0  0  0  0
   -2.0933   -4.6105   -0.5897 C   0  0  0  0  0  0  0  0  0  0  0  0
   -2.2961   -3.1716   -0.3654 N   0  0  0  0  0  0  0  0  0  0  0  0
   -1.2977   -2.3199   -0.4741 N   0  0  0  0  0  0  0  0  0  0  0  0
   -1.4598   -0.9943   -0.2739 C   0  0  0  0  0  0  0  0  0  0  0  0
   -2.7031   -0.4754    0.0584 C   0  0  0  0  0  0  0  0  0  0  0  0
   -3.7784   -1.3285    0.1834 C   0  0  0  0  0  0  0  0  0  0  0  0
   -5.0998   -0.9718    0.5121 N   0  0  0  0  0  0  0  0  0  0  0  0
   -5.5744    0.3025    0.7639 C   0  0  0  0  0  0  0  0  0  0  0  0
   -4.8537    1.3224    0.7262 O   0  0  0  0  0  0  0  0  0  0  0  0
   -6.9506    0.5615    1.0927 N   0  0  0  0  0  0  0  0  0  0  0  0
   -7.4103    1.8632    1.3425 C   0  0  0  0  0  0  0  0  0  0  0  0
   -7.8892    2.6195    0.2674 C   0  0  0  0  0  0  0  0  0  0  0  0
   -7.8895    1.9081   -1.3133 Cl  0  0  0  0  0  0  0  0  0  0  0  0
   -8.3585    3.9070    0.4278 C   0  0  0  0  0  0  0  0  0  0  0  0
   -8.3466    4.4254    1.6478 N   0  0  0  0  0  0  0  0  0  0  0  0
   -7.8935    3.7352    2.7212 C   0  0  0  0  0  0  0  0  0  0  0  0
   -7.4152    2.4340    2.5826 C   0  0  0  0  0  0  0  0  0  0  0  0
   -6.8333    1.5463    3.9620 Cl  0  0  0  0  0  0  0  0  0  0  0  0
   -3.4887   -2.6846   -0.0480 C   0  0  0  0  0  0  0  0  0  0  0  0
   -4.4403   -3.5051    0.0545 O   0  0  0  0  0  0  0  0  0  0  0  0
   -0.3175   -0.0878   -0.4079 C   0  0  0  0  0  0  0  0  0  0  0  0
   -0.3808    1.2668   -0.2213 C   0  0  0  0  0  0  0  0  0  0  0  0
    0.7283    2.0937   -0.3590 C   0  0  0  0  0  0  0  0  0  0  0  0
    1.9343    1.5229   -0.6963 C   0  0  0  0  0  0  0  0  0  0  0  0
    2.0505    0.1693   -0.8944 C   0  0  0  0  0  0  0  0  0  0  0  0
    0.9319   -0.6225   -0.7500 C   0  0  0  0  0  0  0  0  0  0  0  0
    3.3016   -0.4826   -1.2527 C   0  0  0  0  0  0  0  0  0  0  0  0
    3.3139   -1.6204   -2.0299 C   0  0  0  0  0  0  0  0  0  0  0  0
    4.5053   -2.2347   -2.3680 C   0  0  0  0  0  0  0  0  0  0  0  0
    5.6858   -1.6910   -1.9150 C   0  0  0  0  0  0  0  0  0  0  0  0
    5.7309   -0.5466   -1.1291 C   0  0  0  0  0  0  0  0  0  0  0  0
    4.5183    0.0330   -0.8162 C   0  0  0  0  0  0  0  0  0  0  0  0
    7.0014   -0.0054   -0.6727 C   0  0  0  0  0  0  0  0  0  0  0  0
    8.0578   -0.5763   -1.0408 O   0  0  0  0  0  0  0  0  0  0  0  0
    7.1094    1.1332    0.1662 N   0  0  0  0  0  0  0  0  0  0  0  0
    8.3745    1.6589    0.6105 C   0  0  0  0  0  0  0  0  0  0  0  0
    8.4499    3.1691    0.6971 C   0  0  0  0  0  0  0  0  0  0  0  0
    8.5119    2.3204    1.9466 C   0  0  0  0  0  0  0  0  0  0  0  0
   -1.6404   -6.3104    0.6734 H   0  0  0  0  0  0  0  0  0  0  0  0
   -2.5777   -4.9514    1.4439 H   0  0  0  0  0  0  0  0  0  0  0  0
   -0.8091   -4.7229    1.1269 H   0  0  0  0  0  0  0  0  0  0  0  0
   -3.0675   -5.0827   -0.9047 H   0  0  0  0  0  0  0  0  0  0  0  0
   -1.3395   -4.8101   -1.3561 H   0  0  0  0  0  0  0  0  0  0  0  0
   -2.8422    0.5729    0.2195 H   0  0  0  0  0  0  0  0  0  0  0  0
   -5.8306   -1.7540    0.5799 H   0  0  0  0  0  0  0  0  0  0  0  0
   -7.6027   -0.2372    1.1422 H   0  0  0  0  0  0  0  0  0  0  0  0
   -8.7212    4.4550   -0.4435 H   0  0  0  0  0  0  0  0  0  0  0  0
   -7.9038    4.2010    3.6969 H   0  0  0  0  0  0  0  0  0  0  0  0
   -1.3119    1.7473    0.0443 H   0  0  0  0  0  0  0  0  0  0  0  0
    0.6104    3.1661   -0.1966 H   0  0  0  0  0  0  0  0  0  0  0  0
    2.8256    2.1460   -0.8123 H   0  0  0  0  0  0  0  0  0  0  0  0
    0.9587   -1.6919   -0.8921 H   0  0  0  0  0  0  0  0  0  0  0  0
    2.3492   -2.0033   -2.3579 H   0  0  0  0  0  0  0  0  0  0  0  0
    4.4746   -3.1126   -2.9702 H   0  0  0  0  0  0  0  0  0  0  0  0
    6.6193   -2.1645   -2.1748 H   0  0  0  0  0  0  0  0  0  0  0  0
    4.4656    0.9195   -0.2135 H   0  0  0  0  0  0  0  0  0  0  0  0
    6.2450    1.6066    0.4725 H   0  0  0  0  0  0  0  0  0  0  0  0
    9.2668    1.1108    0.2329 H   0  0  0  0  0  0  0  0  0  0  0  0
    9.3786    3.6813    0.3553 H   0  0  0  0  0  0  0  0  0  0  0  0
    7.5326    3.7604    0.6147 H   0  0  0  0  0  0  0  0  0  0  0  0
    7.6790    2.3340    2.6702 H   0  0  0  0  0  0  0  0  0  0  0  0
    9.5371    2.2791    2.4085 H   0  0  0  0  0  0  0  0  0  0  0  0
  1  2  1  0
  2  3  1  0
  3  4  1  0
  4  5  2  0
  5  6  1  0
  6  7  2  0
  7  8  1  0
  8  9  1  0
  9 10  2  0
  9 11  1  0
 11 12  1  0
 12 13  2  0
 13 14  1  0
 13 15  1  0
 15 16  2  0
 16 17  1  0
 17 18  2  0
 18 19  1  0
  7 20  1  0
 20 21  2  0
  5 22  1  0
 22 23  2  0
 23 24  1  0
 24 25  2  0
 25 26  1  0
 26 27  2  0
 26 28  1  0
 28 29  2  0
 29 30  1  0
 30 31  2  0
 31 32  1  0
 32 33  2  0
 32 34  1  0
 34 35  2  0
 34 36  1  0
 36 37  1  0
 37 38  1  0
 38 39  1  0
 20  3  1  0
 27 22  1  0
 33 28  1  0
 39 37  1  0
 18 12  1  0
  1 40  1  0
  1 41  1  0
  1 42  1  0
  2 43  1  0
  2 44  1  0
  6 45  1  0
  8 46  1  0
 11 47  1  0
 15 48  1  0
 17 49  1  0
 23 50  1  0
 24 51  1  0
 25 52  1  0
 27 53  1  0
 29 54  1  0
 30 55  1  0
 31 56  1  0
 33 57  1  0
 36 58  1  0
 37 59  1  0
 38 60  1  0
 38 61  1  0
 39 62  1  0
 39 63  1  0
M  END
$$$$
[H]Oc1c([H])c(O[H])c(C(=O)N2C([H])([H])c3c([H])c([H])c([H])c([H])c3C2([H])[H])c([H])c1Cl
     RDKit          3D

 32 34  0  0  0  0  0  0  0  0999 V2000
   -5.9005    0.7168   -0.6714 O   0  0  0  0  0  0  0  0  0  0  0  0
   -4.6164    0.2359   -0.4146 C   0  0  0  0  0  0  0  0  0  0  0  0
   -4.3734   -0.8432    0.3850 C   0  0  0  0  0  0  0  0  0  0  0  0
   -3.0862   -1.2770    0.6061 C   0  0  0  0  0  0  0  0  0  0  0  0
   -2.8368   -2.3839    1.4267 O   0  0  0  0  0  0  0  0  0  0  0  0
   -1.9625   -0.6578    0.0409 C   0  0  0  0  0  0  0  0  0  0  0  0
   -2.2565    0.4193   -0.7537 C   0  0  0  0  0  0  0  0  0  0  0  0
   -3.5525    0.8814   -0.9951 C   0  0  0  0  0  0  0  0  0  0  0  0
   -3.8414    2.2775   -2.0316 Cl  0  0  0  0  0  0  0  0  0  0  0  0
   -0.6461   -1.1762    0.2903 C   0  0  0  0  0  0  0  0  0  0  0  0
   -0.5984   -2.3038    0.9256 O   0  0  0  0  0  0  0  0  0  0  0  0
    0.6078   -0.6444   -0.0504 N   0  0  0  0  0  0  0  0  0  0  0  0
    1.8445   -1.3443    0.2672 C   0  0  0  0  0  0  0  0  0  0  0  0
    2.9302   -0.3489    0.2459 C   0  0  0  0  0  0  0  0  0  0  0  0
    4.2611   -0.3937    0.6856 C   0  0  0  0  0  0  0  0  0  0  0  0
    5.0907    0.6931    0.5342 C   0  0  0  0  0  0  0  0  0  0  0  0
    4.5772    1.8245   -0.0607 C   0  0  0  0  0  0  0  0  0  0  0  0
    3.2700    1.8599   -0.4888 C   0  0  0  0  0  0  0  0  0  0  0  0
    2.4381    0.7838   -0.3419 C   0  0  0  0  0  0  0  0  0  0  0  0
    1.0105    0.5808   -0.6979 C   0  0  0  0  0  0  0  0  0  0  0  0
   -6.0476    1.5180   -1.2678 H   0  0  0  0  0  0  0  0  0  0  0  0
   -5.2085   -1.3559    0.8449 H   0  0  0  0  0  0  0  0  0  0  0  0
   -3.5748   -2.8959    1.8781 H   0  0  0  0  0  0  0  0  0  0  0  0
   -1.4815    0.9588   -1.2497 H   0  0  0  0  0  0  0  0  0  0  0  0
    2.0676   -2.0834   -0.5385 H   0  0  0  0  0  0  0  0  0  0  0  0
    1.7977   -1.8231    1.2645 H   0  0  0  0  0  0  0  0  0  0  0  0
    4.6179   -1.3078    1.1477 H   0  0  0  0  0  0  0  0  0  0  0  0
    6.1284    0.6488    0.8805 H   0  0  0  0  0  0  0  0  0  0  0  0
    5.1912    2.6956   -0.1985 H   0  0  0  0  0  0  0  0  0  0  0  0
    2.8482    2.7570   -0.9651 H   0  0  0  0  0  0  0  0  0  0  0  0
    0.4848    1.4498   -0.1816 H   0  0  0  0  0  0  0  0  0  0  0  0
    0.8174    0.5384   -1.7722 H   0  0  0  0  0  0  0  0  0  0  0  0
  1  2  1  0
  2  3  2  0
  3  4  1  0
  4  5  1  0
  4  6  2  0
  6  7  1  0
  7  8  2  0
  8  9  1  0
  6 10  1  0
 10 11  2  0
 10 12  1  0
 12 13  1  0
 13 14  1  0
 14 15  2  0
 15 16  1  0
 16 17  2  0
 17 18  1  0
 18 19  2  0
 19 20  1  0
  8  2  1  0
 20 12  1  0
 19 14  1  0
  1 21  1  0
  3 22  1  0
  5 23  1  0
  7 24  1  0
 13 25  1  0
 13 26  1  0
 15 27  1  0
 16 28  1  0
 17 29  1  0
 18 30  1  0
 20 31  1  0
 20 32  1  0
M  END
$$$$
[H]c1c([H])c([H])c(C([H])([H])[C@@]([H])(C(=O)N([H])[C@]([H])(C(=O)N([H])[C@]([H])(C(=O)N([H])[H])C([H])([H])c2c([H])n([H])c3c([H])c([H])c([H])c([H])c23)C([H])([H])C([H])([H])C([H])([H])N=C(N([H])[H])N([H])[H])N([H])C(=O)[C@@]([H])(N([H])C(=O)[C@@]([H])(N([H])[H])C([H])([H])[H])C([H])(C([H])([H])[H])C([H])([H])[H])c([H])c1[H]
     RDKit          3D

 97 99  0  0  0  0  0  0  0  0999 V2000
   -8.8428   -3.9618    0.5802 C   0  0  0  0  0  0  0  0  0  0  0  0
   -8.2110   -2.8772   -0.3099 C   0  0  2  0  0  0  0  0  0  0  0  0
   -7.6915   -3.4892   -1.5105 N   0  0  0  0  0  0  0  0  0  0  0  0
   -7.1318   -2.2656    0.5110 C   0  0  0  0  0  0  0  0  0  0  0  0
   -7.4560   -1.6077    1.5411 O   0  0  0  0  0  0  0  0  0  0  0  0
   -5.7752   -2.4275    0.1269 N   0  0  0  0  0  0  0  0  0  0  0  0
   -4.7365   -1.8147    0.9347 C   0  0  1  0  0  0  0  0  0  0  0  0
   -3.9076   -2.9112    1.5932 C   0  0  0  0  0  0  0  0  0  0  0  0
   -4.8584   -3.7262    2.4493 C   0  0  0  0  0  0  0  0  0  0  0  0
   -3.3104   -3.8499    0.5693 C   0  0  0  0  0  0  0  0  0  0  0  0
   -3.8970   -0.9726    0.0498 C   0  0  0  0  0  0  0  0  0  0  0  0
   -3.9118   -1.2838   -1.1862 O   0  0  0  0  0  0  0  0  0  0  0  0
   -3.1056    0.1126    0.4484 N   0  0  0  0  0  0  0  0  0  0  0  0
   -2.3178    0.8516   -0.5216 C   0  0  1  0  0  0  0  0  0  0  0  0
   -3.0203    2.1457   -0.8923 C   0  0  0  0  0  0  0  0  0  0  0  0
   -3.2461    3.0330    0.2378 C   0  0  0  0  0  0  0  0  0  0  0  0
   -4.3219    3.0210    1.0933 C   0  0  0  0  0  0  0  0  0  0  0  0
   -4.5068    3.8663    2.1538 C   0  0  0  0  0  0  0  0  0  0  0  0
   -3.5362    4.8241    2.4027 C   0  0  0  0  0  0  0  0  0  0  0  0
   -2.4442    4.8667    1.5659 C   0  0  0  0  0  0  0  0  0  0  0  0
   -2.2850    3.9939    0.4973 C   0  0  0  0  0  0  0  0  0  0  0  0
   -0.9354    1.0835   -0.0383 C   0  0  0  0  0  0  0  0  0  0  0  0
   -0.7157    0.8062    1.1650 O   0  0  0  0  0  0  0  0  0  0  0  0
    0.0711    1.5808   -0.8729 N   0  0  0  0  0  0  0  0  0  0  0  0
    1.4433    1.8727   -0.5835 C   0  0  1  0  0  0  0  0  0  0  0  0
    1.4513    2.8993    0.5526 C   0  0  0  0  0  0  0  0  0  0  0  0
    2.7849    3.3567    0.9881 C   0  0  0  0  0  0  0  0  0  0  0  0
    3.6168    4.0757   -0.0145 C   0  0  0  0  0  0  0  0  0  0  0  0
    2.9874    5.2732   -0.5120 N   0  0  0  0  0  0  0  0  0  0  0  0
    3.0445    6.4382   -0.0256 C   0  0  0  0  0  0  0  0  0  0  0  0
    2.3323    7.4813   -0.6932 N   0  0  0  0  0  0  0  0  0  0  0  0
    3.7675    6.7891    1.1451 N   0  0  0  0  0  0  0  0  0  0  0  0
    2.2469    0.7183   -0.1752 C   0  0  0  0  0  0  0  0  0  0  0  0
    1.7558   -0.1717    0.5565 O   0  0  0  0  0  0  0  0  0  0  0  0
    3.5957    0.5444   -0.5747 N   0  0  0  0  0  0  0  0  0  0  0  0
    4.3774   -0.6372   -0.1030 C   0  0  1  0  0  0  0  0  0  0  0  0
    4.2830   -1.6162   -1.2099 C   0  0  0  0  0  0  0  0  0  0  0  0
    4.9739   -2.8949   -1.0816 C   0  0  0  0  0  0  0  0  0  0  0  0
    4.4544   -4.0662   -0.5002 C   0  0  0  0  0  0  0  0  0  0  0  0
    5.4130   -4.9796   -0.5393 N   0  0  0  0  0  0  0  0  0  0  0  0
    6.5193   -4.4716   -1.1107 C   0  0  0  0  0  0  0  0  0  0  0  0
    7.7460   -5.0326   -1.3850 C   0  0  0  0  0  0  0  0  0  0  0  0
    8.7312   -4.2780   -2.0176 C   0  0  0  0  0  0  0  0  0  0  0  0
    8.4928   -2.9749   -2.3727 C   0  0  0  0  0  0  0  0  0  0  0  0
    7.2762   -2.4234   -2.0976 C   0  0  0  0  0  0  0  0  0  0  0  0
    6.2854   -3.1380   -1.4757 C   0  0  0  0  0  0  0  0  0  0  0  0
    5.6478   -0.1684    0.3630 C   0  0  0  0  0  0  0  0  0  0  0  0
    6.5294   -0.9724    1.1286 N   0  0  0  0  0  0  0  0  0  0  0  0
    6.0433    1.0058    0.1162 O   0  0  0  0  0  0  0  0  0  0  0  0
   -8.1404   -4.2639    1.3913 H   0  0  0  0  0  0  0  0  0  0  0  0
   -9.0620   -4.8493   -0.0736 H   0  0  0  0  0  0  0  0  0  0  0  0
   -9.7824   -3.5804    0.9955 H   0  0  0  0  0  0  0  0  0  0  0  0
   -9.0049   -2.1349   -0.5715 H   0  0  0  0  0  0  0  0  0  0  0  0
   -7.1263   -2.8627   -2.1025 H   0  0  0  0  0  0  0  0  0  0  0  0
   -7.1688   -4.3656   -1.2770 H   0  0  0  0  0  0  0  0  0  0  0  0
   -5.5518   -2.9718   -0.7179 H   0  0  0  0  0  0  0  0  0  0  0  0
   -5.2225   -1.2223    1.7250 H   0  0  0  0  0  0  0  0  0  0  0  0
   -3.0988   -2.4808    2.2322 H   0  0  0  0  0  0  0  0  0  0  0  0
   -5.4073   -3.1267    3.1734 H   0  0  0  0  0  0  0  0  0  0  0  0
   -5.6222   -4.1205    1.7220 H   0  0  0  0  0  0  0  0  0  0  0  0
   -4.3749   -4.6390    2.8663 H   0  0  0  0  0  0  0  0  0  0  0  0
   -2.3839   -3.4203    0.1143 H   0  0  0  0  0  0  0  0  0  0  0  0
   -4.0529   -4.1913   -0.1704 H   0  0  0  0  0  0  0  0  0  0  0  0
   -3.0510   -4.7894    1.1497 H   0  0  0  0  0  0  0  0  0  0  0  0
   -3.0460    0.4352    1.4468 H   0  0  0  0  0  0  0  0  0  0  0  0
   -2.2785    0.2711   -1.4419 H   0  0  0  0  0  0  0  0  0  0  0  0
   -3.9668    1.9184   -1.4145 H   0  0  0  0  0  0  0  0  0  0  0  0
   -2.3774    2.6298   -1.6464 H   0  0  0  0  0  0  0  0  0  0  0  0
   -5.0919    2.2845    0.9197 H   0  0  0  0  0  0  0  0  0  0  0  0
   -5.3766    3.8005    2.7865 H   0  0  0  0  0  0  0  0  0  0  0  0
   -3.6274    5.5237    3.2344 H   0  0  0  0  0  0  0  0  0  0  0  0
   -1.6916    5.6207    1.7609 H   0  0  0  0  0  0  0  0  0  0  0  0
   -1.3931    4.1110   -0.1019 H   0  0  0  0  0  0  0  0  0  0  0  0
   -0.2445    1.7680   -1.8826 H   0  0  0  0  0  0  0  0  0  0  0  0
    1.8697    2.4501   -1.4436 H   0  0  0  0  0  0  0  0  0  0  0  0
    0.9405    3.8027    0.0955 H   0  0  0  0  0  0  0  0  0  0  0  0
    0.8662    2.5900    1.4140 H   0  0  0  0  0  0  0  0  0  0  0  0
    2.6120    4.0853    1.8341 H   0  0  0  0  0  0  0  0  0  0  0  0
    3.3221    2.5133    1.4790 H   0  0  0  0  0  0  0  0  0  0  0  0
    3.9933    3.5160   -0.8584 H   0  0  0  0  0  0  0  0  0  0  0  0
    4.5352    4.4372    0.5398 H   0  0  0  0  0  0  0  0  0  0  0  0
    1.4174    7.8546   -0.3752 H   0  0  0  0  0  0  0  0  0  0  0  0
    2.7251    7.9308   -1.5727 H   0  0  0  0  0  0  0  0  0  0  0  0
    3.1842    7.1285    1.9592 H   0  0  0  0  0  0  0  0  0  0  0  0
    4.7990    6.7325    1.2451 H   0  0  0  0  0  0  0  0  0  0  0  0
    4.1229    1.1880   -1.1993 H   0  0  0  0  0  0  0  0  0  0  0  0
    3.7209   -1.0444    0.7414 H   0  0  0  0  0  0  0  0  0  0  0  0
    4.6766   -1.1332   -2.1485 H   0  0  0  0  0  0  0  0  0  0  0  0
    3.2067   -1.8329   -1.4265 H   0  0  0  0  0  0  0  0  0  0  0  0
    3.4353   -4.1184   -0.1128 H   0  0  0  0  0  0  0  0  0  0  0  0
    5.3022   -5.9523   -0.1706 H   0  0  0  0  0  0  0  0  0  0  0  0
    7.9710   -6.0709   -1.1136 H   0  0  0  0  0  0  0  0  0  0  0  0
    9.6997   -4.7231   -2.2318 H   0  0  0  0  0  0  0  0  0  0  0  0
    9.2602   -2.3879   -2.8651 H   0  0  0  0  0  0  0  0  0  0  0  0
    7.0914   -1.3990   -2.3751 H   0  0  0  0  0  0  0  0  0  0  0  0
    7.5297   -1.0654    0.8529 H   0  0  0  0  0  0  0  0  0  0  0  0
    6.1568   -1.4730    1.9803 H   0  0  0  0  0  0  0  0  0  0  0  0
  1  2  1  0
  2  3  1  0
  2  4  1  0
  4  5  2  0
  4  6  1  0
  6  7  1  0
  7  8  1  0
  8  9  1  0
  8 10  1  0
  7 11  1  0
 11 12  2  0
 11 13  1  0
 13 14  1  0
 14 15  1  0
 15 16  1  0
 16 17  2  0
 17 18  1  0
 18 19  2  0
 19 20  1  0
 20 21  2  0
 14 22  1  0
 22 23  2  0
 22 24  1  0
 24 25  1  0
 25 26  1  0
 26 27  1  0
 27 28  1  0
 28 29  1  0
 29 30  2  3
 30 31  1  0
 30 32  1  0
 25 33  1  0
 33 34  2  0
 33 35  1  0
 35 36  1  0
 36 37  1  0
 37 38  1  0
 38 39  2  0
 39 40  1  0
 40 41  1  0
 41 42  2  0
 42 43  1  0
 43 44  2  0
 44 45  1  0
 45 46  2  0
 36 47  1  0
 47 48  1  0
 47 49  2  0
 21 16  1  0
 46 38  1  0
 46 41  1  0
  1 50  1  0
  1 51  1  0
  1 52  1  0
  2 53  1  6
  3 54  1  0
  3 55  1  0
  6 56  1  0
  7 57  1  1
  8 58  1  0
  9 59  1  0
  9 60  1  0
  9 61  1  0
 10 62  1  0
 10 63  1  0
 10 64  1  0
 13 65  1  0
 14 66  1  6
 15 67  1  0
 15 68  1  0
 17 69  1  0
 18 70  1  0
 19 71  1  0
 20 72  1  0
 21 73  1  0
 24 74  1  0
 25 75  1  6
 26 76  1  0
 26 77  1  0
 27 78  1  0
 27 79  1  0
 28 80  1  0
 28 81  1  0
 31 82  1  0
 31 83  1  0
 32 84  1  0
 32 85  1  0
 35 86  1  0
 36 87  1  1
 37 88  1  0
 37 89  1  0
 39 90  1  0
 40 91  1  0
 42 92  1  0
 43 93  1  0
 44 94  1  0
 45 95  1  0
 48 96  1  0
 48 97  1  0
M  END
$$$$
[H]c1c(F)c([H])c2c(C3=C(c4c([H])n([H])c5c([H])c([H])c([H])c([H])c45)C(=O)N([H])C3=O)nc(N3C([H])([H])C([H])([H])N(C([H])([H])[H])C([H])([H])C3([H])[H])nc2c1[H]
     RDKit          3D

 55 60  0  0  0  0  0  0  0  0999 V2000
   -4.7346    2.7211   -0.6279 C   0  0  0  0  0  0  0  0  0  0  0  0
   -4.0606    2.5657    0.6314 N   0  0  0  0  0  0  0  0  0  0  0  0
   -2.6953    2.9485    0.6233 C   0  0  0  0  0  0  0  0  0  0  0  0
   -1.7438    1.8464    0.1397 C   0  0  0  0  0  0  0  0  0  0  0  0
   -2.0728    0.6669    0.8931 N   0  0  0  0  0  0  0  0  0  0  0  0
   -3.1104    0.7621    1.8812 C   0  0  0  0  0  0  0  0  0  0  0  0
   -4.3344    1.2720    1.1552 C   0  0  0  0  0  0  0  0  0  0  0  0
   -1.4014   -0.5607    0.6747 C   0  0  0  0  0  0  0  0  0  0  0  0
   -0.4356   -0.6409   -0.2585 N   0  0  0  0  0  0  0  0  0  0  0  0
    0.2539   -1.7794   -0.5322 C   0  0  0  0  0  0  0  0  0  0  0  0
    1.2879   -1.7760   -1.5618 C   0  0  0  0  0  0  0  0  0  0  0  0
    2.3808   -0.9786   -1.4986 C   0  0  0  0  0  0  0  0  0  0  0  0
    3.1760   -1.2389   -2.6890 C   0  0  0  0  0  0  0  0  0  0  0  0
    4.2833   -0.6790   -2.9761 O   0  0  0  0  0  0  0  0  0  0  0  0
    2.5278   -2.2112   -3.4743 N   0  0  0  0  0  0  0  0  0  0  0  0
    1.3474   -2.5584   -2.7903 C   0  0  0  0  0  0  0  0  0  0  0  0
    0.5259   -3.4143   -3.2370 O   0  0  0  0  0  0  0  0  0  0  0  0
    2.6987   -0.0639   -0.4101 C   0  0  0  0  0  0  0  0  0  0  0  0
    2.6686   -0.4135    0.9313 C   0  0  0  0  0  0  0  0  0  0  0  0
    2.9920    0.6511    1.6719 N   0  0  0  0  0  0  0  0  0  0  0  0
    3.2411    1.7153    0.8762 C   0  0  0  0  0  0  0  0  0  0  0  0
    3.5993    3.0128    1.1608 C   0  0  0  0  0  0  0  0  0  0  0  0
    3.7775    3.8873    0.1120 C   0  0  0  0  0  0  0  0  0  0  0  0
    3.5934    3.4428   -1.1782 C   0  0  0  0  0  0  0  0  0  0  0  0
    3.2340    2.1402   -1.4594 C   0  0  0  0  0  0  0  0  0  0  0  0
    3.0555    1.2633   -0.4306 C   0  0  0  0  0  0  0  0  0  0  0  0
   -0.0685   -2.8985    0.1997 C   0  0  0  0  0  0  0  0  0  0  0  0
    0.5925   -4.0794    0.0097 C   0  0  0  0  0  0  0  0  0  0  0  0
    0.2733   -5.1953    0.7651 C   0  0  0  0  0  0  0  0  0  0  0  0
    0.9566   -6.3411    0.5379 F   0  0  0  0  0  0  0  0  0  0  0  0
   -0.7170   -5.1180    1.7179 C   0  0  0  0  0  0  0  0  0  0  0  0
   -1.3992   -3.9443    1.9354 C   0  0  0  0  0  0  0  0  0  0  0  0
   -1.0737   -2.8368    1.1779 C   0  0  0  0  0  0  0  0  0  0  0  0
   -1.6973   -1.6685    1.3723 N   0  0  0  0  0  0  0  0  0  0  0  0
   -5.8052    2.9678   -0.4330 H   0  0  0  0  0  0  0  0  0  0  0  0
   -4.6280    1.7720   -1.2043 H   0  0  0  0  0  0  0  0  0  0  0  0
   -4.3128    3.5570   -1.1979 H   0  0  0  0  0  0  0  0  0  0  0  0
   -2.5451    3.8009   -0.0774 H   0  0  0  0  0  0  0  0  0  0  0  0
   -2.3514    3.3008    1.6242 H   0  0  0  0  0  0  0  0  0  0  0  0
   -0.7328    2.1887    0.4212 H   0  0  0  0  0  0  0  0  0  0  0  0
   -1.8792    1.7146   -0.9542 H   0  0  0  0  0  0  0  0  0  0  0  0
   -3.3124   -0.2088    2.3889 H   0  0  0  0  0  0  0  0  0  0  0  0
   -2.8330    1.5426    2.6203 H   0  0  0  0  0  0  0  0  0  0  0  0
   -4.5159    0.5896    0.2766 H   0  0  0  0  0  0  0  0  0  0  0  0
   -5.2334    1.2522    1.8075 H   0  0  0  0  0  0  0  0  0  0  0  0
    2.8979   -2.5766   -4.3936 H   0  0  0  0  0  0  0  0  0  0  0  0
    2.4254   -1.3942    1.3212 H   0  0  0  0  0  0  0  0  0  0  0  0
    3.0620    0.7214    2.7232 H   0  0  0  0  0  0  0  0  0  0  0  0
    3.7515    3.3921    2.1598 H   0  0  0  0  0  0  0  0  0  0  0  0
    4.0634    4.9351    0.2757 H   0  0  0  0  0  0  0  0  0  0  0  0
    3.7229    4.0975   -2.0266 H   0  0  0  0  0  0  0  0  0  0  0  0
    3.0838    1.8192   -2.4958 H   0  0  0  0  0  0  0  0  0  0  0  0
    1.4032   -4.1411   -0.7268 H   0  0  0  0  0  0  0  0  0  0  0  0
   -0.9909   -5.9733    2.3247 H   0  0  0  0  0  0  0  0  0  0  0  0
   -2.1906   -3.8561    2.6868 H   0  0  0  0  0  0  0  0  0  0  0  0
  1  2  1  0
  2  3  1  0
  3  4  1  0
  4  5  1  0
  5  6  1  0
  6  7  1  0
  5  8  1  0
  8  9  2  0
  9 10  1  0
 10 11  1  0
 11 12  2  0
 12 13  1  0
 13 14  2  0
 13 15  1  0
 15 16  1  0
 16 17  2  0
 12 18  1  0
 18 19  2  0
 19 20  1  0
 20 21  1  0
 21 22  2  0
 22 23  1  0
 23 24  2  0
 24 25  1  0
 25 26  2  0
 10 27  2  0
 27 28  1  0
 28 29  2  0
 29 30  1  0
 29 31  1  0
 31 32  2  0
 32 33  1  0
 33 34  2  0
  7  2  1  0
 34  8  1  0
 16 11  1  0
 26 18  1  0
 33 27  1  0
 26 21  1  0
  1 35  1  0
  1 36  1  0
  1 37  1  0
  3 38  1  0
  3 39  1  0
  4 40  1  0
  4 41  1  0
  6 42  1  0
  6 43  1  0
  7 44  1  0
  7 45  1  0
 15 46  1  0
 19 47  1  0
 20 48  1  0
 22 49  1  0
 23 50  1  0
 24 51  1  0
 25 52  1  0
 28 53  1  0
 31 54  1  0
 32 55  1  0
M  END
$$$$
[H]O[C@]1([H])C([H])([H])C([H])([H])[C@@]([H])(N([H])S(=O)(=O)c2c([H])c([H])c(C([H])([H])[H])c(-c3c([H])nc(N([H])[H])c(-c4oc(C([H])([H])[H])nc4[H])c3[H])c2[H])C([H])([H])C1([H])[H]
     RDKit          3D

 57 60  0  0  0  0  0  0  0  0999 V2000
    9.1571    0.3831    0.0479 C   0  0  0  0  0  0  0  0  0  0  0  0
    7.6970    0.5481   -0.2560 C   0  0  0  0  0  0  0  0  0  0  0  0
    7.1431    1.3296   -1.1972 N   0  0  0  0  0  0  0  0  0  0  0  0
    5.8057    1.1996   -1.1526 C   0  0  0  0  0  0  0  0  0  0  0  0
    5.5413    0.2986   -0.1382 C   0  0  0  0  0  0  0  0  0  0  0  0
    6.7125   -0.0404    0.3429 O   0  0  0  0  0  0  0  0  0  0  0  0
    4.2378   -0.1843    0.3145 C   0  0  0  0  0  0  0  0  0  0  0  0
    3.0729    0.2720   -0.3010 C   0  0  0  0  0  0  0  0  0  0  0  0
    1.8369   -0.1714    0.1120 C   0  0  0  0  0  0  0  0  0  0  0  0
    1.8349   -1.0912    1.1685 C   0  0  0  0  0  0  0  0  0  0  0  0
    2.9788   -1.5059    1.7342 N   0  0  0  0  0  0  0  0  0  0  0  0
    4.2041   -1.0887    1.3509 C   0  0  0  0  0  0  0  0  0  0  0  0
    5.3760   -1.5674    1.9925 N   0  0  0  0  0  0  0  0  0  0  0  0
    0.5949    0.2785   -0.4913 C   0  0  0  0  0  0  0  0  0  0  0  0
   -0.3259   -0.7007   -0.8941 C   0  0  0  0  0  0  0  0  0  0  0  0
   -1.5169   -0.3499   -1.4829 C   0  0  0  0  0  0  0  0  0  0  0  0
   -1.7751    0.9913   -1.6636 C   0  0  0  0  0  0  0  0  0  0  0  0
   -0.8684    1.9639   -1.2671 C   0  0  0  0  0  0  0  0  0  0  0  0
    0.3448    1.6093   -0.6671 C   0  0  0  0  0  0  0  0  0  0  0  0
    1.2949    2.6624   -0.2392 C   0  0  0  0  0  0  0  0  0  0  0  0
   -2.6850   -1.5578   -1.9999 S   0  0  0  0  0  0  0  0  0  0  0  0
   -3.5035   -0.9079   -3.1071 O   0  0  0  0  0  0  0  0  0  0  0  0
   -1.9462   -2.7453   -2.5045 O   0  0  0  0  0  0  0  0  0  0  0  0
   -3.7144   -1.9229   -0.6913 N   0  0  0  0  0  0  0  0  0  0  0  0
   -4.4758   -0.8190   -0.2128 C   0  0  1  0  0  0  0  0  0  0  0  0
   -5.9720   -1.0726   -0.2465 C   0  0  0  0  0  0  0  0  0  0  0  0
   -6.6377    0.2961   -0.2288 C   0  0  0  0  0  0  0  0  0  0  0  0
   -6.0355    1.0615    0.9209 C   0  0  2  0  0  0  0  0  0  0  0  0
   -5.2157    2.0913    0.5250 O   0  0  0  0  0  0  0  0  0  0  0  0
   -5.2861    0.1580    1.8738 C   0  0  0  0  0  0  0  0  0  0  0  0
   -4.1160   -0.5301    1.2285 C   0  0  0  0  0  0  0  0  0  0  0  0
    9.2558   -0.1639    1.0056 H   0  0  0  0  0  0  0  0  0  0  0  0
    9.5581    1.4169    0.1845 H   0  0  0  0  0  0  0  0  0  0  0  0
    9.6865   -0.1309   -0.7603 H   0  0  0  0  0  0  0  0  0  0  0  0
    5.0542    1.6814   -1.7651 H   0  0  0  0  0  0  0  0  0  0  0  0
    3.1578    0.9796   -1.1158 H   0  0  0  0  0  0  0  0  0  0  0  0
    0.8550   -1.4378    1.4899 H   0  0  0  0  0  0  0  0  0  0  0  0
    5.9515   -0.9025    2.5453 H   0  0  0  0  0  0  0  0  0  0  0  0
    5.6905   -2.5548    1.9377 H   0  0  0  0  0  0  0  0  0  0  0  0
   -0.1289   -1.7434   -0.7554 H   0  0  0  0  0  0  0  0  0  0  0  0
   -2.7059    1.3092   -2.1284 H   0  0  0  0  0  0  0  0  0  0  0  0
   -1.0498    3.0212   -1.3988 H   0  0  0  0  0  0  0  0  0  0  0  0
    1.8254    2.3983    0.6902 H   0  0  0  0  0  0  0  0  0  0  0  0
    1.9479    3.0292   -1.0570 H   0  0  0  0  0  0  0  0  0  0  0  0
    0.6740    3.5676    0.0324 H   0  0  0  0  0  0  0  0  0  0  0  0
   -3.3066   -2.5397    0.0149 H   0  0  0  0  0  0  0  0  0  0  0  0
   -4.2541    0.0823   -0.7904 H   0  0  0  0  0  0  0  0  0  0  0  0
   -6.2828   -1.6767   -1.1169 H   0  0  0  0  0  0  0  0  0  0  0  0
   -6.2490   -1.6448    0.6580 H   0  0  0  0  0  0  0  0  0  0  0  0
   -6.2822    0.8112   -1.1673 H   0  0  0  0  0  0  0  0  0  0  0  0
   -7.7371    0.2285   -0.1825 H   0  0  0  0  0  0  0  0  0  0  0  0
   -6.8866    1.4891    1.4999 H   0  0  0  0  0  0  0  0  0  0  0  0
   -4.4648    2.2802    1.1373 H   0  0  0  0  0  0  0  0  0  0  0  0
   -5.9917   -0.5593    2.3675 H   0  0  0  0  0  0  0  0  0  0  0  0
   -4.9345    0.8245    2.7115 H   0  0  0  0  0  0  0  0  0  0  0  0
   -3.2441    0.1749    1.2873 H   0  0  0  0  0  0  0  0  0  0  0  0
   -3.8969   -1.4584    1.8052 H   0  0  0  0  0  0  0  0  0  0  0  0
  1  2  1  0
  2  3  2  0
  3  4  1  0
  4  5  2  0
  5  6  1  0
  5  7  1  0
  7  8  2  0
  8  9  1  0
  9 10  2  0
 10 11  1  0
 11 12  2  0
 12 13  1  0
  9 14  1  0
 14 15  2  0
 15 16  1  0
 16 17  2  0
 17 18  1  0
 18 19  2  0
 19 20  1  0
 16 21  1  0
 21 22  2  0
 21 23  2  0
 21 24  1  0
 24 25  1  0
 25 26  1  0
 26 27  1  0
 27 28  1  0
 28 29  1  0
 28 30  1  0
 30 31  1  0
  6  2  1  0
 12  7  1  0
 19 14  1  0
 31 25  1  0
  1 32  1  0
  1 33  1  0
  1 34  1  0
  4 35  1  0
  8 36  1  0
 10 37  1  0
 13 38  1  0
 13 39  1  0
 15 40  1  0
 17 41  1  0
 18 42  1  0
 20 43  1  0
 20 44  1  0
 20 45  1  0
 24 46  1  0
 25 47  1  6
 26 48  1  0
 26 49  1  0
 27 50  1  0
 27 51  1  0
 28 52  1  1
 29 53  1  0
 30 54  1  0
 30 55  1  0
 31 56  1  0
 31 57  1  0
M  END
$$$$
[H]c1c([H])c([H])c2c([H])c(C(=O)N([H])[C@@]3([H])C([H])([H])N4C([H])([H])C([H])([H])C3([H])C([H])([H])C4([H])[H])sc2c1[H]
     RDKit          3D

 38 41  0  0  0  0  0  0  0  0999 V2000
    0.1674   -2.0388   -1.4729 O   0  0  0  0  0  0  0  0  0  0  0  0
    0.4764   -1.1868   -0.6313 C   0  0  0  0  0  0  0  0  0  0  0  0
   -0.4824   -0.3742   -0.0100 N   0  0  0  0  0  0  0  0  0  0  0  0
   -1.8867   -0.5375   -0.3659 C   0  0  1  0  0  0  0  0  0  0  0  0
   -2.7574   -0.8012    0.8473 C   0  0  0  0  0  0  0  0  0  0  0  0
   -4.0680   -0.1696    0.6865 N   0  0  0  0  0  0  0  0  0  0  0  0
   -3.9459    1.2798    0.8775 C   0  0  0  0  0  0  0  0  0  0  0  0
   -2.5997    1.7019    0.2844 C   0  0  0  0  0  0  0  0  0  0  0  0
   -2.3466    0.8220   -0.9093 C   0  0  0  0  0  0  0  0  0  0  0  0
   -3.6931    0.6265   -1.6013 C   0  0  0  0  0  0  0  0  0  0  0  0
   -4.4681   -0.3438   -0.7092 C   0  0  0  0  0  0  0  0  0  0  0  0
    1.8907   -1.0301   -0.2801 C   0  0  0  0  0  0  0  0  0  0  0  0
    2.4555   -0.1596    0.6159 C   0  0  0  0  0  0  0  0  0  0  0  0
    3.7997   -0.2071    0.7661 C   0  0  0  0  0  0  0  0  0  0  0  0
    4.5651    0.6001    1.6320 C   0  0  0  0  0  0  0  0  0  0  0  0
    5.9178    0.4432    1.6810 C   0  0  0  0  0  0  0  0  0  0  0  0
    6.6320   -0.4726    0.9277 C   0  0  0  0  0  0  0  0  0  0  0  0
    5.8756   -1.2591    0.0825 C   0  0  0  0  0  0  0  0  0  0  0  0
    4.4806   -1.1152    0.0151 C   0  0  0  0  0  0  0  0  0  0  0  0
    3.2567   -1.8829   -0.8801 S   0  0  0  0  0  0  0  0  0  0  0  0
   -0.2300    0.3521    0.7059 H   0  0  0  0  0  0  0  0  0  0  0  0
   -2.0304   -1.3226   -1.1190 H   0  0  0  0  0  0  0  0  0  0  0  0
   -2.9490   -1.8971    0.9129 H   0  0  0  0  0  0  0  0  0  0  0  0
   -2.2665   -0.4757    1.7852 H   0  0  0  0  0  0  0  0  0  0  0  0
   -4.7395    1.8025    0.2953 H   0  0  0  0  0  0  0  0  0  0  0  0
   -3.9541    1.5543    1.9386 H   0  0  0  0  0  0  0  0  0  0  0  0
   -2.6376    2.7721   -0.0214 H   0  0  0  0  0  0  0  0  0  0  0  0
   -1.8549    1.5231    1.0744 H   0  0  0  0  0  0  0  0  0  0  0  0
   -1.5743    1.1815   -1.5872 H   0  0  0  0  0  0  0  0  0  0  0  0
   -4.1904    1.6012   -1.6724 H   0  0  0  0  0  0  0  0  0  0  0  0
   -3.5334    0.1166   -2.5630 H   0  0  0  0  0  0  0  0  0  0  0  0
   -5.5514   -0.1573   -0.8186 H   0  0  0  0  0  0  0  0  0  0  0  0
   -4.2152   -1.3883   -0.9810 H   0  0  0  0  0  0  0  0  0  0  0  0
    1.7637    0.5336    1.1643 H   0  0  0  0  0  0  0  0  0  0  0  0
    4.1289    1.3514    2.2716 H   0  0  0  0  0  0  0  0  0  0  0  0
    6.5016    1.0748    2.3563 H   0  0  0  0  0  0  0  0  0  0  0  0
    7.7037   -0.5311    1.0282 H   0  0  0  0  0  0  0  0  0  0  0  0
    6.3590   -1.9859   -0.5274 H   0  0  0  0  0  0  0  0  0  0  0  0
  1  2  2  0
  2  3  1  0
  3  4  1  0
  4  5  1  0
  5  6  1  0
  6  7  1  0
  7  8  1  0
  8  9  1  0
  9 10  1  0
 10 11  1  0
  2 12  1  0
 12 13  2  0
 13 14  1  0
 14 15  2  0
 15 16  1  0
 16 17  2  0
 17 18  1  0
 18 19  2  0
 19 20  1  0
  9  4  1  0
 20 12  1  0
 11  6  1  0
 19 14  1  0
  3 21  1  0
  4 22  1  6
  5 23  1  0
  5 24  1  0
  7 25  1  0
  7 26  1  0
  8 27  1  0
  8 28  1  0
  9 29  1  0
 10 30  1  0
 10 31  1  0
 11 32  1  0
 11 33  1  0
 13 34  1  0
 15 35  1  0
 16 36  1  0
 17 37  1  0
 18 38  1  0
M  END
$$$$
[H]OC(=O)[C@@]([H])(N([H])[H])C([H])([H])OP(=O)(O[H])OC([H])([H])C([H])([H])C([H])([H])OC(=O)C([H])([H])C([H])([H])c1c([H])c([H])c(C([H])([H])C([H])([H])C([H])([H])C([H])([H])C([H])([H])C([H])([H])C([H])([H])C([H])([H])[H])c([H])c1[H]
     RDKit          3D

 71 71  0  0  0  0  0  0  0  0999 V2000
    9.5851    0.2100   -1.9094 C   0  0  0  0  0  0  0  0  0  0  0  0
    8.3129    0.0907   -1.0800 C   0  0  0  0  0  0  0  0  0  0  0  0
    8.1382   -1.3581   -0.6096 C   0  0  0  0  0  0  0  0  0  0  0  0
    6.8602   -1.5025    0.2290 C   0  0  0  0  0  0  0  0  0  0  0  0
    6.8994   -0.6296    1.4314 C   0  0  0  0  0  0  0  0  0  0  0  0
    5.7260   -0.6734    2.3370 C   0  0  0  0  0  0  0  0  0  0  0  0
    4.4195   -0.2993    1.7075 C   0  0  0  0  0  0  0  0  0  0  0  0
    4.4584    1.0777    1.0942 C   0  0  0  0  0  0  0  0  0  0  0  0
    3.1311    1.3962    0.5404 C   0  0  0  0  0  0  0  0  0  0  0  0
    2.2994    2.1626    1.3790 C   0  0  0  0  0  0  0  0  0  0  0  0
    1.0430    2.5122    0.9816 C   0  0  0  0  0  0  0  0  0  0  0  0
    0.5496    2.1179   -0.2677 C   0  0  0  0  0  0  0  0  0  0  0  0
   -0.8036    2.5779   -0.6360 C   0  0  0  0  0  0  0  0  0  0  0  0
   -1.8334    1.6892   -0.0165 C   0  0  0  0  0  0  0  0  0  0  0  0
   -1.7021    0.3019   -0.4806 C   0  0  0  0  0  0  0  0  0  0  0  0
   -0.7812   -0.4906   -0.1332 O   0  0  0  0  0  0  0  0  0  0  0  0
   -2.6638   -0.1649   -1.3589 O   0  0  0  0  0  0  0  0  0  0  0  0
   -2.7636   -1.4306   -1.9178 C   0  0  0  0  0  0  0  0  0  0  0  0
   -2.8818   -2.5158   -0.8525 C   0  0  0  0  0  0  0  0  0  0  0  0
   -4.0752   -2.2279    0.0412 C   0  0  0  0  0  0  0  0  0  0  0  0
   -5.2656   -2.1806   -0.6437 O   0  0  0  0  0  0  0  0  0  0  0  0
   -6.4691   -1.7868    0.5027 P   0  0  0  0  0  0  0  0  0  0  0  0
   -5.7440   -0.9847    1.8233 O   0  0  0  0  0  0  0  0  0  0  0  0
   -7.0724   -3.0498    1.0067 O   0  0  0  0  0  0  0  0  0  0  0  0
   -7.5514   -0.7410   -0.2314 O   0  0  0  0  0  0  0  0  0  0  0  0
   -8.6913   -0.4868    0.5227 C   0  0  0  0  0  0  0  0  0  0  0  0
   -9.5361    0.4853   -0.2998 C   0  0  2  0  0  0  0  0  0  0  0  0
   -9.8241   -0.1775   -1.5379 N   0  0  0  0  0  0  0  0  0  0  0  0
   -8.7549    1.7234   -0.5052 C   0  0  0  0  0  0  0  0  0  0  0  0
   -8.3808    2.1397   -1.7742 O   0  0  0  0  0  0  0  0  0  0  0  0
   -8.4014    2.4426    0.4670 O   0  0  0  0  0  0  0  0  0  0  0  0
    1.3760    1.3767   -1.0559 C   0  0  0  0  0  0  0  0  0  0  0  0
    2.6605    1.0034   -0.6831 C   0  0  0  0  0  0  0  0  0  0  0  0
    9.9065   -0.8200   -2.1754 H   0  0  0  0  0  0  0  0  0  0  0  0
    9.4191    0.8310   -2.8006 H   0  0  0  0  0  0  0  0  0  0  0  0
   10.4121    0.6293   -1.2824 H   0  0  0  0  0  0  0  0  0  0  0  0
    8.4304    0.7931   -0.2370 H   0  0  0  0  0  0  0  0  0  0  0  0
    7.4399    0.4188   -1.6672 H   0  0  0  0  0  0  0  0  0  0  0  0
    7.9521   -1.9441   -1.5413 H   0  0  0  0  0  0  0  0  0  0  0  0
    9.0178   -1.6960   -0.0534 H   0  0  0  0  0  0  0  0  0  0  0  0
    6.8321   -2.5599    0.5336 H   0  0  0  0  0  0  0  0  0  0  0  0
    6.0395   -1.2765   -0.4830 H   0  0  0  0  0  0  0  0  0  0  0  0
    7.1128    0.4427    1.2068 H   0  0  0  0  0  0  0  0  0  0  0  0
    7.8058   -0.9512    2.0279 H   0  0  0  0  0  0  0  0  0  0  0  0
    5.9642   -0.0297    3.2277 H   0  0  0  0  0  0  0  0  0  0  0  0
    5.6336   -1.7057    2.7745 H   0  0  0  0  0  0  0  0  0  0  0  0
    4.1445   -1.0748    0.9760 H   0  0  0  0  0  0  0  0  0  0  0  0
    3.6456   -0.2651    2.5041 H   0  0  0  0  0  0  0  0  0  0  0  0
    5.1693    1.1320    0.2385 H   0  0  0  0  0  0  0  0  0  0  0  0
    4.7304    1.7959    1.8628 H   0  0  0  0  0  0  0  0  0  0  0  0
    2.6482    2.4934    2.3652 H   0  0  0  0  0  0  0  0  0  0  0  0
    0.4126    3.0984    1.6255 H   0  0  0  0  0  0  0  0  0  0  0  0
   -0.9601    3.6013   -0.2134 H   0  0  0  0  0  0  0  0  0  0  0  0
   -0.9446    2.6230   -1.7386 H   0  0  0  0  0  0  0  0  0  0  0  0
   -2.8754    2.0474   -0.2200 H   0  0  0  0  0  0  0  0  0  0  0  0
   -1.6887    1.6353    1.1137 H   0  0  0  0  0  0  0  0  0  0  0  0
   -1.9495   -1.7147   -2.6087 H   0  0  0  0  0  0  0  0  0  0  0  0
   -3.7132   -1.4413   -2.5272 H   0  0  0  0  0  0  0  0  0  0  0  0
   -3.1252   -3.4656   -1.3846 H   0  0  0  0  0  0  0  0  0  0  0  0
   -1.9763   -2.6078   -0.2668 H   0  0  0  0  0  0  0  0  0  0  0  0
   -4.1455   -3.0663    0.7657 H   0  0  0  0  0  0  0  0  0  0  0  0
   -3.9211   -1.3142    0.6451 H   0  0  0  0  0  0  0  0  0  0  0  0
   -6.2656   -0.1899    2.0908 H   0  0  0  0  0  0  0  0  0  0  0  0
   -8.4316    0.0133    1.4765 H   0  0  0  0  0  0  0  0  0  0  0  0
   -9.3102   -1.3900    0.6597 H   0  0  0  0  0  0  0  0  0  0  0  0
  -10.4558    0.6886    0.2971 H   0  0  0  0  0  0  0  0  0  0  0  0
  -10.5929    0.2454   -2.0951 H   0  0  0  0  0  0  0  0  0  0  0  0
  -10.0117   -1.1866   -1.3597 H   0  0  0  0  0  0  0  0  0  0  0  0
   -8.9412    2.1213   -2.5905 H   0  0  0  0  0  0  0  0  0  0  0  0
    1.0160    1.0679   -2.0087 H   0  0  0  0  0  0  0  0  0  0  0  0
    3.3124    0.4138   -1.3189 H   0  0  0  0  0  0  0  0  0  0  0  0
  1  2  1  0
  2  3  1  0
  3  4  1  0
  4  5  1  0
  5  6  1  0
  6  7  1  0
  7  8  1  0
  8  9  1  0
  9 10  2  0
 10 11  1  0
 11 12  2  0
 12 13  1  0
 13 14  1  0
 14 15  1  0
 15 16  2  0
 15 17  1  0
 17 18  1  0
 18 19  1  0
 19 20  1  0
 20 21  1  0
 21 22  1  0
 22 23  1  0
 22 24  2  0
 22 25  1  0
 25 26  1  0
 26 27  1  0
 27 28  1  0
 27 29  1  0
 29 30  1  0
 29 31  2  0
 12 32  1  0
 32 33  2  0
 33  9  1  0
  1 34  1  0
  1 35  1  0
  1 36  1  0
  2 37  1  0
  2 38  1  0
  3 39  1  0
  3 40  1  0
  4 41  1  0
  4 42  1  0
  5 43  1  0
  5 44  1  0
  6 45  1  0
  6 46  1  0
  7 47  1  0
  7 48  1  0
  8 49  1  0
  8 50  1  0
 10 51  1  0
 11 52  1  0
 13 53  1  0
 13 54  1  0
 14 55  1  0
 14 56  1  0
 18 57  1  0
 18 58  1  0
 19 59  1  0
 19 60  1  0
 20 61  1  0
 20 62  1  0
 23 63  1  0
 26 64  1  0
 26 65  1  0
 27 66  1  1
 28 67  1  0
 28 68  1  0
 30 69  1  0
 32 70  1  0
 33 71  1  0
M  END
$$$$
[H]c1c([H])c([H])c(/C(=C2/C(=O)N([H])c3c([H])c(C(=O)OC([H])([H])[H])c([H])c([H])c32)N([H])c2c([H])c([H])c(N(C(=O)C([H])([H])N3C([H])([H])C([H])([H])N(C([H])([H])[H])C([H])([H])C3([H])[H])C([H])([H])[H])c([H])c2[H])c([H])c1[H]
     RDKit          3D

 73 77  0  0  0  0  0  0  0  0999 V2000
   -9.6259    2.7362   -3.1505 C   0  0  0  0  0  0  0  0  0  0  0  0
   -8.5822    2.1423   -2.4234 O   0  0  0  0  0  0  0  0  0  0  0  0
   -7.8814    1.0256   -2.8716 C   0  0  0  0  0  0  0  0  0  0  0  0
   -8.1814    0.5157   -3.9683 O   0  0  0  0  0  0  0  0  0  0  0  0
   -6.8215    0.5153   -2.0123 C   0  0  0  0  0  0  0  0  0  0  0  0
   -6.4947    1.0717   -0.8140 C   0  0  0  0  0  0  0  0  0  0  0  0
   -5.4728    0.5613   -0.0049 C   0  0  0  0  0  0  0  0  0  0  0  0
   -4.7972   -0.5386   -0.4611 C   0  0  0  0  0  0  0  0  0  0  0  0
   -3.6924   -1.2784    0.1218 C   0  0  0  0  0  0  0  0  0  0  0  0
   -3.1406   -1.1461    1.2984 C   0  0  0  0  0  0  0  0  0  0  0  0
   -2.0489   -2.0001    1.6122 N   0  0  0  0  0  0  0  0  0  0  0  0
   -0.6955   -1.7404    1.2757 C   0  0  0  0  0  0  0  0  0  0  0  0
   -0.3049   -0.6232    0.5755 C   0  0  0  0  0  0  0  0  0  0  0  0
    1.0409   -0.3967    0.2619 C   0  0  0  0  0  0  0  0  0  0  0  0
    1.9996   -1.2983    0.6546 C   0  0  0  0  0  0  0  0  0  0  0  0
    1.6109   -2.4148    1.3542 C   0  0  0  0  0  0  0  0  0  0  0  0
    0.2717   -2.6400    1.6660 C   0  0  0  0  0  0  0  0  0  0  0  0
    3.3997   -1.0553    0.3267 N   0  0  0  0  0  0  0  0  0  0  0  0
    4.2743   -1.0443    1.4779 C   0  0  0  0  0  0  0  0  0  0  0  0
    3.8217   -0.9048   -0.9850 C   0  0  0  0  0  0  0  0  0  0  0  0
    2.8737   -1.1517   -1.8665 O   0  0  0  0  0  0  0  0  0  0  0  0
    5.0990   -0.5334   -1.5790 C   0  0  0  0  0  0  0  0  0  0  0  0
    6.1819   -0.1535   -0.7808 N   0  0  0  0  0  0  0  0  0  0  0  0
    6.1479    1.1188   -0.1443 C   0  0  0  0  0  0  0  0  0  0  0  0
    7.0593    2.1225   -0.8152 C   0  0  0  0  0  0  0  0  0  0  0  0
    8.4000    1.6684   -0.9414 N   0  0  0  0  0  0  0  0  0  0  0  0
    9.2089    2.3796   -1.8600 C   0  0  0  0  0  0  0  0  0  0  0  0
    8.6125    0.2731   -0.8355 C   0  0  0  0  0  0  0  0  0  0  0  0
    7.4754   -0.6243   -1.1164 C   0  0  0  0  0  0  0  0  0  0  0  0
   -3.6419   -0.3131    2.3473 C   0  0  0  0  0  0  0  0  0  0  0  0
   -3.0180    0.7830    2.8957 C   0  0  0  0  0  0  0  0  0  0  0  0
   -3.5184    1.4571    3.9801 C   0  0  0  0  0  0  0  0  0  0  0  0
   -4.6869    1.0413    4.5595 C   0  0  0  0  0  0  0  0  0  0  0  0
   -5.3502   -0.0483    4.0505 C   0  0  0  0  0  0  0  0  0  0  0  0
   -4.8397   -0.7104    2.9694 C   0  0  0  0  0  0  0  0  0  0  0  0
   -3.3759   -2.3505   -0.8690 C   0  0  0  0  0  0  0  0  0  0  0  0
   -2.4929   -3.2072   -0.7677 O   0  0  0  0  0  0  0  0  0  0  0  0
   -4.2699   -2.2220   -1.9626 N   0  0  0  0  0  0  0  0  0  0  0  0
   -5.1182   -1.1186   -1.6868 C   0  0  0  0  0  0  0  0  0  0  0  0
   -6.1305   -0.5894   -2.4585 C   0  0  0  0  0  0  0  0  0  0  0  0
   -9.4840    3.8397   -3.1260 H   0  0  0  0  0  0  0  0  0  0  0  0
  -10.6287    2.4400   -2.7994 H   0  0  0  0  0  0  0  0  0  0  0  0
   -9.5092    2.4513   -4.2231 H   0  0  0  0  0  0  0  0  0  0  0  0
   -7.0554    1.9338   -0.4979 H   0  0  0  0  0  0  0  0  0  0  0  0
   -5.2980    1.1170    0.8877 H   0  0  0  0  0  0  0  0  0  0  0  0
   -2.3225   -2.8839    2.1371 H   0  0  0  0  0  0  0  0  0  0  0  0
   -1.0852    0.0650    0.2820 H   0  0  0  0  0  0  0  0  0  0  0  0
    1.2956    0.4918   -0.2875 H   0  0  0  0  0  0  0  0  0  0  0  0
    2.3988   -3.1019    1.6458 H   0  0  0  0  0  0  0  0  0  0  0  0
   -0.0090   -3.5256    2.2172 H   0  0  0  0  0  0  0  0  0  0  0  0
    4.3098   -0.0784    2.0033 H   0  0  0  0  0  0  0  0  0  0  0  0
    5.2439   -1.4894    1.2146 H   0  0  0  0  0  0  0  0  0  0  0  0
    3.8678   -1.7578    2.2758 H   0  0  0  0  0  0  0  0  0  0  0  0
    4.9292    0.2743   -2.3603 H   0  0  0  0  0  0  0  0  0  0  0  0
    5.4335   -1.4380   -2.1821 H   0  0  0  0  0  0  0  0  0  0  0  0
    6.5430    1.0192    0.8973 H   0  0  0  0  0  0  0  0  0  0  0  0
    5.1051    1.4958   -0.1442 H   0  0  0  0  0  0  0  0  0  0  0  0
    7.0209    3.0816   -0.2641 H   0  0  0  0  0  0  0  0  0  0  0  0
    6.6418    2.3090   -1.8254 H   0  0  0  0  0  0  0  0  0  0  0  0
    9.5515    1.7468   -2.6801 H   0  0  0  0  0  0  0  0  0  0  0  0
    8.6875    3.2979   -2.1848 H   0  0  0  0  0  0  0  0  0  0  0  0
   10.1414    2.7025   -1.3095 H   0  0  0  0  0  0  0  0  0  0  0  0
    9.4640   -0.0087   -1.5031 H   0  0  0  0  0  0  0  0  0  0  0  0
    8.9967    0.0613    0.2048 H   0  0  0  0  0  0  0  0  0  0  0  0
    7.6214   -1.6038   -0.5691 H   0  0  0  0  0  0  0  0  0  0  0  0
    7.4535   -0.9472   -2.2000 H   0  0  0  0  0  0  0  0  0  0  0  0
   -2.1060    1.1196    2.4536 H   0  0  0  0  0  0  0  0  0  0  0  0
   -3.0267    2.3165    4.4077 H   0  0  0  0  0  0  0  0  0  0  0  0
   -5.1025    1.5578    5.4176 H   0  0  0  0  0  0  0  0  0  0  0  0
   -6.2843   -0.3557    4.5382 H   0  0  0  0  0  0  0  0  0  0  0  0
   -5.4043   -1.5664    2.6063 H   0  0  0  0  0  0  0  0  0  0  0  0
   -4.3057   -2.8330   -2.8311 H   0  0  0  0  0  0  0  0  0  0  0  0
   -6.3795   -1.0398   -3.4080 H   0  0  0  0  0  0  0  0  0  0  0  0
  1  2  1  0
  2  3  1  0
  3  4  2  0
  3  5  1  0
  5  6  2  0
  6  7  1  0
  7  8  2  0
  8  9  1  0
  9 10  2  0
 10 11  1  0
 11 12  1  0
 12 13  2  0
 13 14  1  0
 14 15  2  0
 15 16  1  0
 16 17  2  0
 15 18  1  0
 18 19  1  0
 18 20  1  0
 20 21  2  0
 20 22  1  0
 22 23  1  0
 23 24  1  0
 24 25  1  0
 25 26  1  0
 26 27  1  0
 26 28  1  0
 28 29  1  0
 10 30  1  0
 30 31  2  0
 31 32  1  0
 32 33  2  0
 33 34  1  0
 34 35  2  0
  9 36  1  0
 36 37  2  0
 36 38  1  0
 38 39  1  0
 39 40  2  0
 40  5  1  0
 39  8  1  0
 17 12  1  0
 29 23  1  0
 35 30  1  0
  1 41  1  0
  1 42  1  0
  1 43  1  0
  6 44  1  0
  7 45  1  0
 11 46  1  0
 13 47  1  0
 14 48  1  0
 16 49  1  0
 17 50  1  0
 19 51  1  0
 19 52  1  0
 19 53  1  0
 22 54  1  0
 22 55  1  0
 24 56  1  0
 24 57  1  0
 25 58  1  0
 25 59  1  0
 27 60  1  0
 27 61  1  0
 27 62  1  0
 28 63  1  0
 28 64  1  0
 29 65  1  0
 29 66  1  0
 31 67  1  0
 32 68  1  0
 33 69  1  0
 34 70  1  0
 35 71  1  0
 38 72  1  0
 40 73  1  0
M  END
$$$$
[H]ON([H])C(=O)C([H])([H])N(C([H])([H])c1c([H])c([H])c([N+](=O)[O-])c([H])c1[H])S(=O)(=O)c1c([H])c([H])c(C([H])([H])[H])c([H])c1[H]
     RDKit          3D

 43 44  0  0  0  0  0  0  0  0999 V2000
   -5.9715   -1.3488    0.0952 C   0  0  0  0  0  0  0  0  0  0  0  0
   -4.5946   -0.8438    0.3211 C   0  0  0  0  0  0  0  0  0  0  0  0
   -3.6122   -1.7003    0.7641 C   0  0  0  0  0  0  0  0  0  0  0  0
   -2.3435   -1.1687    0.9569 C   0  0  0  0  0  0  0  0  0  0  0  0
   -2.0630    0.1473    0.7220 C   0  0  0  0  0  0  0  0  0  0  0  0
   -3.0823    0.9942    0.2721 C   0  0  0  0  0  0  0  0  0  0  0  0
   -4.3456    0.4878    0.0748 C   0  0  0  0  0  0  0  0  0  0  0  0
   -0.4852    0.8721    0.9446 S   0  0  0  0  0  0  0  0  0  0  0  0
    0.2450    0.0562    2.0041 O   0  0  0  0  0  0  0  0  0  0  0  0
   -0.6980    2.2239    1.5267 O   0  0  0  0  0  0  0  0  0  0  0  0
    0.4011    0.8075   -0.4764 N   0  0  0  0  0  0  0  0  0  0  0  0
   -0.1107    1.4847   -1.6042 C   0  0  0  0  0  0  0  0  0  0  0  0
    0.3049    2.8692   -1.7945 C   0  0  0  0  0  0  0  0  0  0  0  0
   -0.1235    3.5211   -2.7827 O   0  0  0  0  0  0  0  0  0  0  0  0
    1.1850    3.5532   -0.9176 N   0  0  0  0  0  0  0  0  0  0  0  0
    1.5749    4.8317   -1.0842 O   0  0  0  0  0  0  0  0  0  0  0  0
    0.8356   -0.5201   -0.7613 C   0  0  0  0  0  0  0  0  0  0  0  0
    2.1383   -0.8871   -0.2168 C   0  0  0  0  0  0  0  0  0  0  0  0
    2.6190   -2.1702   -0.3765 C   0  0  0  0  0  0  0  0  0  0  0  0
    3.8522   -2.5619    0.1235 C   0  0  0  0  0  0  0  0  0  0  0  0
    4.6555   -1.6525    0.8146 C   0  0  0  0  0  0  0  0  0  0  0  0
    4.1769   -0.3699    0.9752 C   0  0  0  0  0  0  0  0  0  0  0  0
    2.9431   -0.0181    0.4624 C   0  0  0  0  0  0  0  0  0  0  0  0
    5.9111   -2.0732    1.3168 N   0  0  0  0  0  0  0  0  0  0  0  0
    6.6858   -1.1693    1.9917 O   0  0  0  0  0  0  0  0  0  0  0  0
    6.2739   -3.2442    1.1328 O   0  0  0  0  0  0  0  0  0  0  0  0
   -6.6247   -1.2264    0.9746 H   0  0  0  0  0  0  0  0  0  0  0  0
   -5.8993   -2.4202   -0.2216 H   0  0  0  0  0  0  0  0  0  0  0  0
   -6.3665   -0.7980   -0.8015 H   0  0  0  0  0  0  0  0  0  0  0  0
   -3.7928   -2.7431    0.9606 H   0  0  0  0  0  0  0  0  0  0  0  0
   -1.5520   -1.8163    1.3055 H   0  0  0  0  0  0  0  0  0  0  0  0
   -2.8851    2.0281    0.0818 H   0  0  0  0  0  0  0  0  0  0  0  0
   -5.1229    1.1537   -0.2729 H   0  0  0  0  0  0  0  0  0  0  0  0
   -1.2378    1.4142   -1.6685 H   0  0  0  0  0  0  0  0  0  0  0  0
    0.2278    0.9153   -2.5220 H   0  0  0  0  0  0  0  0  0  0  0  0
    1.5537    3.0370   -0.0951 H   0  0  0  0  0  0  0  0  0  0  0  0
    0.8033    5.4394   -1.2157 H   0  0  0  0  0  0  0  0  0  0  0  0
    0.0812   -1.2307   -0.3391 H   0  0  0  0  0  0  0  0  0  0  0  0
    0.8084   -0.7323   -1.8693 H   0  0  0  0  0  0  0  0  0  0  0  0
    2.0228   -2.8901   -0.9036 H   0  0  0  0  0  0  0  0  0  0  0  0
    4.2109   -3.5733   -0.0127 H   0  0  0  0  0  0  0  0  0  0  0  0
    4.8050    0.3245    1.5104 H   0  0  0  0  0  0  0  0  0  0  0  0
    2.5956    0.9976    0.6045 H   0  0  0  0  0  0  0  0  0  0  0  0
  1  2  1  0
  2  3  2  0
  3  4  1  0
  4  5  2  0
  5  6  1  0
  6  7  2  0
  5  8  1  0
  8  9  2  0
  8 10  2  0
  8 11  1  0
 11 12  1  0
 12 13  1  0
 13 14  2  0
 13 15  1  0
 15 16  1  0
 11 17  1  0
 17 18  1  0
 18 19  2  0
 19 20  1  0
 20 21  2  0
 21 22  1  0
 22 23  2  0
 21 24  1  0
 24 25  1  0
 24 26  2  0
  7  2  1  0
 23 18  1  0
  1 27  1  0
  1 28  1  0
  1 29  1  0
  3 30  1  0
  4 31  1  0
  6 32  1  0
  7 33  1  0
 12 34  1  0
 12 35  1  0
 15 36  1  0
 16 37  1  0
 17 38  1  0
 17 39  1  0
 19 40  1  0
 20 41  1  0
 22 42  1  0
 23 43  1  0
M  CHG  2  24   1  25  -1
M  END
$$$$
[H]c1c([H])c(C([H])([H])N2C([H])([H])C([H])([H])N(C([H])([H])[H])C([H])([H])C2([H])[H])c([H])c([H])c1C(=O)N([H])c1sc(N([H])c2c([H])c([H])c3c([H])c([H])c([H])c([H])c3c2[H])nc1C(=O)N([H])[H]
     RDKit          3D

 64 68  0  0  0  0  0  0  0  0999 V2000
  -10.1419    1.4408    0.9756 C   0  0  0  0  0  0  0  0  0  0  0  0
   -8.8283    1.3729    0.3587 N   0  0  0  0  0  0  0  0  0  0  0  0
   -9.0047    0.7381   -0.9367 C   0  0  0  0  0  0  0  0  0  0  0  0
   -8.2027   -0.5466   -1.0090 C   0  0  0  0  0  0  0  0  0  0  0  0
   -6.7979   -0.1413   -0.8146 N   0  0  0  0  0  0  0  0  0  0  0  0
   -6.0206   -1.3322   -1.1021 C   0  0  0  0  0  0  0  0  0  0  0  0
   -4.5852   -0.9934   -0.9664 C   0  0  0  0  0  0  0  0  0  0  0  0
   -4.1153    0.3007   -1.1098 C   0  0  0  0  0  0  0  0  0  0  0  0
   -2.7873    0.5829   -0.9759 C   0  0  0  0  0  0  0  0  0  0  0  0
   -1.8550   -0.4226   -0.6897 C   0  0  0  0  0  0  0  0  0  0  0  0
   -2.3442   -1.6919   -0.5530 C   0  0  0  0  0  0  0  0  0  0  0  0
   -3.7047   -1.9939   -0.6880 C   0  0  0  0  0  0  0  0  0  0  0  0
   -0.4669   -0.0534   -0.5609 C   0  0  0  0  0  0  0  0  0  0  0  0
   -0.1146    1.1474   -0.6692 O   0  0  0  0  0  0  0  0  0  0  0  0
    0.5204   -1.0262   -0.3120 N   0  0  0  0  0  0  0  0  0  0  0  0
    1.8973   -0.6322   -0.1877 C   0  0  0  0  0  0  0  0  0  0  0  0
    2.5228    0.9778   -0.3123 S   0  0  0  0  0  0  0  0  0  0  0  0
    4.2021    0.6110   -0.0545 C   0  0  0  0  0  0  0  0  0  0  0  0
    5.2816    1.5377   -0.0543 N   0  0  0  0  0  0  0  0  0  0  0  0
    6.6091    1.1820    0.1922 C   0  0  0  0  0  0  0  0  0  0  0  0
    6.9795    0.0203    0.7897 C   0  0  0  0  0  0  0  0  0  0  0  0
    8.3350   -0.2870    0.9896 C   0  0  0  0  0  0  0  0  0  0  0  0
    9.3243    0.5724    0.5905 C   0  0  0  0  0  0  0  0  0  0  0  0
   10.6613    0.2881    0.7783 C   0  0  0  0  0  0  0  0  0  0  0  0
   11.6603    1.1470    0.3799 C   0  0  0  0  0  0  0  0  0  0  0  0
   11.2801    2.3268   -0.2261 C   0  0  0  0  0  0  0  0  0  0  0  0
    9.9511    2.6300   -0.4232 C   0  0  0  0  0  0  0  0  0  0  0  0
    8.9456    1.7535   -0.0161 C   0  0  0  0  0  0  0  0  0  0  0  0
    7.6311    2.0668   -0.2181 C   0  0  0  0  0  0  0  0  0  0  0  0
    4.1475   -0.6774    0.1014 N   0  0  0  0  0  0  0  0  0  0  0  0
    3.0409   -1.3453    0.0463 C   0  0  0  0  0  0  0  0  0  0  0  0
    3.0111   -2.8225    0.2289 C   0  0  0  0  0  0  0  0  0  0  0  0
    4.2739   -3.4654    0.4693 N   0  0  0  0  0  0  0  0  0  0  0  0
    1.9837   -3.5014    0.1849 O   0  0  0  0  0  0  0  0  0  0  0  0
   -6.6886    0.1690    0.5973 C   0  0  0  0  0  0  0  0  0  0  0  0
   -7.9959    0.5698    1.2328 C   0  0  0  0  0  0  0  0  0  0  0  0
  -10.3083    0.4656    1.4793 H   0  0  0  0  0  0  0  0  0  0  0  0
  -10.9396    1.5951    0.2085 H   0  0  0  0  0  0  0  0  0  0  0  0
  -10.1984    2.2216    1.7581 H   0  0  0  0  0  0  0  0  0  0  0  0
   -8.5890    1.4240   -1.7039 H   0  0  0  0  0  0  0  0  0  0  0  0
  -10.0441    0.5363   -1.1910 H   0  0  0  0  0  0  0  0  0  0  0  0
   -8.3035   -0.9619   -2.0172 H   0  0  0  0  0  0  0  0  0  0  0  0
   -8.5160   -1.1942   -0.1917 H   0  0  0  0  0  0  0  0  0  0  0  0
   -6.2700   -1.7588   -2.0965 H   0  0  0  0  0  0  0  0  0  0  0  0
   -6.2308   -2.1440   -0.3650 H   0  0  0  0  0  0  0  0  0  0  0  0
   -4.8113    1.1056   -1.3349 H   0  0  0  0  0  0  0  0  0  0  0  0
   -2.4539    1.6034   -1.0939 H   0  0  0  0  0  0  0  0  0  0  0  0
   -1.6608   -2.4988   -0.3318 H   0  0  0  0  0  0  0  0  0  0  0  0
   -4.0026   -3.0351   -0.5619 H   0  0  0  0  0  0  0  0  0  0  0  0
    0.2615   -2.0086   -0.2201 H   0  0  0  0  0  0  0  0  0  0  0  0
    5.0363    2.5694   -0.2578 H   0  0  0  0  0  0  0  0  0  0  0  0
    6.2820   -0.7155    1.1543 H   0  0  0  0  0  0  0  0  0  0  0  0
    8.6114   -1.2231    1.4697 H   0  0  0  0  0  0  0  0  0  0  0  0
   10.9084   -0.6588    1.2628 H   0  0  0  0  0  0  0  0  0  0  0  0
   12.7053    0.9175    0.5302 H   0  0  0  0  0  0  0  0  0  0  0  0
   12.0347    3.0106   -0.5447 H   0  0  0  0  0  0  0  0  0  0  0  0
    9.6195    3.5581   -0.9010 H   0  0  0  0  0  0  0  0  0  0  0  0
    7.3593    2.9952   -0.6941 H   0  0  0  0  0  0  0  0  0  0  0  0
    4.5113   -4.3702    0.0171 H   0  0  0  0  0  0  0  0  0  0  0  0
    4.9652   -3.0159    1.1093 H   0  0  0  0  0  0  0  0  0  0  0  0
   -5.8848    0.9066    0.7867 H   0  0  0  0  0  0  0  0  0  0  0  0
   -6.3695   -0.7627    1.1112 H   0  0  0  0  0  0  0  0  0  0  0  0
   -7.7444    1.2176    2.1151 H   0  0  0  0  0  0  0  0  0  0  0  0
   -8.5726   -0.2814    1.6311 H   0  0  0  0  0  0  0  0  0  0  0  0
  1  2  1  0
  2  3  1  0
  3  4  1  0
  4  5  1  0
  5  6  1  0
  6  7  1  0
  7  8  2  0
  8  9  1  0
  9 10  2  0
 10 11  1  0
 11 12  2  0
 10 13  1  0
 13 14  2  0
 13 15  1  0
 15 16  1  0
 16 17  1  0
 17 18  1  0
 18 19  1  0
 19 20  1  0
 20 21  2  0
 21 22  1  0
 22 23  2  0
 23 24  1  0
 24 25  2  0
 25 26  1  0
 26 27  2  0
 27 28  1  0
 28 29  2  0
 18 30  2  0
 30 31  1  0
 31 32  1  0
 32 33  1  0
 32 34  2  0
  5 35  1  0
 35 36  1  0
 36  2  1  0
 12  7  1  0
 31 16  2  0
 29 20  1  0
 28 23  1  0
  1 37  1  0
  1 38  1  0
  1 39  1  0
  3 40  1  0
  3 41  1  0
  4 42  1  0
  4 43  1  0
  6 44  1  0
  6 45  1  0
  8 46  1  0
  9 47  1  0
 11 48  1  0
 12 49  1  0
 15 50  1  0
 19 51  1  0
 21 52  1  0
 22 53  1  0
 24 54  1  0
 25 55  1  0
 26 56  1  0
 27 57  1  0
 29 58  1  0
 33 59  1  0
 33 60  1  0
 35 61  1  0
 35 62  1  0
 36 63  1  0
 36 64  1  0
M  END
$$$$
[H]O[C@]1([H])[C@@]([H])(C([H])([H])OS(=O)(=O)N([H])C(=O)[C@]([H])(N([H])[H])C([H])(C([H])([H])[H])C([H])([H])[H])O[C@@]([H])(n2c([H])nc3c(N([H])[H])nc([H])nc32)[C@]1([H])O[H]
     RDKit          3D

 53 55  0  0  0  0  0  0  0  0999 V2000
   -5.6776   -0.9088    1.3488 C   0  0  0  0  0  0  0  0  0  0  0  0
   -5.5290   -0.4286   -0.0540 C   0  0  0  0  0  0  0  0  0  0  0  0
   -6.5891   -1.0259   -0.9300 C   0  0  0  0  0  0  0  0  0  0  0  0
   -5.5570    1.0927   -0.1554 C   0  0  1  0  0  0  0  0  0  0  0  0
   -6.7946    1.6055    0.3443 N   0  0  0  0  0  0  0  0  0  0  0  0
   -4.3675    1.6426    0.4972 C   0  0  0  0  0  0  0  0  0  0  0  0
   -4.4822    2.4948    1.4082 O   0  0  0  0  0  0  0  0  0  0  0  0
   -3.0764    1.2241    0.1121 N   0  0  0  0  0  0  0  0  0  0  0  0
   -1.6549    1.8318    0.8399 S   0  0  0  0  0  0  0  0  0  0  0  0
   -1.8152    1.9033    2.3332 O   0  0  0  0  0  0  0  0  0  0  0  0
   -1.4428    3.2361    0.3133 O   0  0  0  0  0  0  0  0  0  0  0  0
   -0.3019    0.9254    0.4708 O   0  0  0  0  0  0  0  0  0  0  0  0
   -0.4195    0.2523   -0.7281 C   0  0  0  0  0  0  0  0  0  0  0  0
    0.8407   -0.5560   -1.0226 C   0  0  1  0  0  0  0  0  0  0  0  0
    1.9566    0.2544   -1.0971 O   0  0  0  0  0  0  0  0  0  0  0  0
    3.0332   -0.5863   -0.8233 C   0  0  2  0  0  0  0  0  0  0  0  0
    2.5487   -1.3583    0.3649 C   0  0  2  0  0  0  0  0  0  0  0  0
    3.1362   -2.6264    0.4770 O   0  0  0  0  0  0  0  0  0  0  0  0
    1.0921   -1.6265   -0.0084 C   0  0  2  0  0  0  0  0  0  0  0  0
    0.9997   -2.8698   -0.6767 O   0  0  0  0  0  0  0  0  0  0  0  0
    4.1976    0.2123   -0.5543 N   0  0  0  0  0  0  0  0  0  0  0  0
    4.3009    1.5379   -0.7523 C   0  0  0  0  0  0  0  0  0  0  0  0
    5.5242    1.9653   -0.3965 N   0  0  0  0  0  0  0  0  0  0  0  0
    6.2269    0.8975    0.0402 C   0  0  0  0  0  0  0  0  0  0  0  0
    7.5245    0.7696    0.5202 C   0  0  0  0  0  0  0  0  0  0  0  0
    8.3248    1.9279    0.5987 N   0  0  0  0  0  0  0  0  0  0  0  0
    7.9423   -0.4507    0.8826 N   0  0  0  0  0  0  0  0  0  0  0  0
    7.1241   -1.5077    0.7807 C   0  0  0  0  0  0  0  0  0  0  0  0
    5.8752   -1.4010    0.3220 N   0  0  0  0  0  0  0  0  0  0  0  0
    5.3807   -0.1912   -0.0656 C   0  0  0  0  0  0  0  0  0  0  0  0
   -5.8869   -1.9956    1.3235 H   0  0  0  0  0  0  0  0  0  0  0  0
   -4.7065   -0.7940    1.9142 H   0  0  0  0  0  0  0  0  0  0  0  0
   -6.5143   -0.4411    1.9065 H   0  0  0  0  0  0  0  0  0  0  0  0
   -4.5405   -0.7724   -0.4272 H   0  0  0  0  0  0  0  0  0  0  0  0
   -6.2719   -1.1158   -1.9903 H   0  0  0  0  0  0  0  0  0  0  0  0
   -7.5588   -0.5320   -0.8440 H   0  0  0  0  0  0  0  0  0  0  0  0
   -6.7294   -2.0872   -0.5857 H   0  0  0  0  0  0  0  0  0  0  0  0
   -5.5300    1.3060   -1.2587 H   0  0  0  0  0  0  0  0  0  0  0  0
   -7.4597    0.8658    0.6487 H   0  0  0  0  0  0  0  0  0  0  0  0
   -7.2457    2.3106   -0.2773 H   0  0  0  0  0  0  0  0  0  0  0  0
   -2.9773    0.5166   -0.6459 H   0  0  0  0  0  0  0  0  0  0  0  0
   -0.6083    0.9056   -1.5805 H   0  0  0  0  0  0  0  0  0  0  0  0
   -1.2383   -0.5151   -0.7013 H   0  0  0  0  0  0  0  0  0  0  0  0
    0.6855   -0.9752   -2.0558 H   0  0  0  0  0  0  0  0  0  0  0  0
    3.1540   -1.2614   -1.6937 H   0  0  0  0  0  0  0  0  0  0  0  0
    2.6231   -0.7740    1.2923 H   0  0  0  0  0  0  0  0  0  0  0  0
    3.2335   -2.9194    1.4019 H   0  0  0  0  0  0  0  0  0  0  0  0
    0.4257   -1.5906    0.8626 H   0  0  0  0  0  0  0  0  0  0  0  0
    0.5779   -2.7861   -1.5509 H   0  0  0  0  0  0  0  0  0  0  0  0
    3.5272    2.2173   -1.1460 H   0  0  0  0  0  0  0  0  0  0  0  0
    8.5503    2.3319    1.5240 H   0  0  0  0  0  0  0  0  0  0  0  0
    8.6824    2.3697   -0.2637 H   0  0  0  0  0  0  0  0  0  0  0  0
    7.4871   -2.4998    1.0835 H   0  0  0  0  0  0  0  0  0  0  0  0
  1  2  1  0
  2  3  1  0
  2  4  1  0
  4  5  1  0
  4  6  1  0
  6  7  2  0
  6  8  1  0
  8  9  1  0
  9 10  2  0
  9 11  2  0
  9 12  1  0
 12 13  1  0
 13 14  1  0
 14 15  1  0
 15 16  1  0
 16 17  1  0
 17 18  1  0
 17 19  1  0
 19 20  1  0
 16 21  1  0
 21 22  1  0
 22 23  2  0
 23 24  1  0
 24 25  2  0
 25 26  1  0
 25 27  1  0
 27 28  2  0
 28 29  1  0
 29 30  2  0
 19 14  1  0
 30 21  1  0
 30 24  1  0
  1 31  1  0
  1 32  1  0
  1 33  1  0
  2 34  1  0
  3 35  1  0
  3 36  1  0
  3 37  1  0
  4 38  1  6
  5 39  1  0
  5 40  1  0
  8 41  1  0
 13 42  1  0
 13 43  1  0
 14 44  1  6
 16 45  1  6
 17 46  1  1
 18 47  1  0
 19 48  1  1
 20 49  1  0
 22 50  1  0
 26 51  1  0
 26 52  1  0
 28 53  1  0
M  END
$$$$
[H]Oc1c([H])nc([H])c(-c2c([H])nc3c(c2[H])c(-c2c([H])c([H])c(O[H])c([H])c2[H])c([H])n3[H])c1[H]
     RDKit          3D

 36 39  0  0  0  0  0  0  0  0999 V2000
   -5.2285    2.4118    0.6939 O   0  0  0  0  0  0  0  0  0  0  0  0
   -4.2906    1.4494    0.3585 C   0  0  0  0  0  0  0  0  0  0  0  0
   -4.5149    0.1424    0.7831 C   0  0  0  0  0  0  0  0  0  0  0  0
   -3.5795   -0.8205    0.4494 C   0  0  0  0  0  0  0  0  0  0  0  0
   -2.4409   -0.5522   -0.2795 C   0  0  0  0  0  0  0  0  0  0  0  0
   -2.2445    0.7505   -0.6867 C   0  0  0  0  0  0  0  0  0  0  0  0
   -3.1575    1.7307   -0.3700 C   0  0  0  0  0  0  0  0  0  0  0  0
   -1.5179   -1.6370   -0.5844 C   0  0  0  0  0  0  0  0  0  0  0  0
   -1.8466   -2.9067   -1.0773 C   0  0  0  0  0  0  0  0  0  0  0  0
   -0.7189   -3.6125   -1.2309 N   0  0  0  0  0  0  0  0  0  0  0  0
    0.3322   -2.8548   -0.8580 C   0  0  0  0  0  0  0  0  0  0  0  0
    1.6672   -3.0603   -0.8096 N   0  0  0  0  0  0  0  0  0  0  0  0
    2.5396   -2.1375   -0.3923 C   0  0  0  0  0  0  0  0  0  0  0  0
    2.0537   -0.9050    0.0126 C   0  0  0  0  0  0  0  0  0  0  0  0
    0.7091   -0.6293   -0.0111 C   0  0  0  0  0  0  0  0  0  0  0  0
   -0.1484   -1.6160   -0.4507 C   0  0  0  0  0  0  0  0  0  0  0  0
    2.9465    0.1398    0.4756 C   0  0  0  0  0  0  0  0  0  0  0  0
    4.1257   -0.1043    1.1395 C   0  0  0  0  0  0  0  0  0  0  0  0
    4.9270    0.9188    1.5530 N   0  0  0  0  0  0  0  0  0  0  0  0
    4.6244    2.2135    1.3439 C   0  0  0  0  0  0  0  0  0  0  0  0
    3.4497    2.4948    0.6814 C   0  0  0  0  0  0  0  0  0  0  0  0
    3.0826    3.8234    0.4356 O   0  0  0  0  0  0  0  0  0  0  0  0
    2.6201    1.4576    0.2525 C   0  0  0  0  0  0  0  0  0  0  0  0
   -5.0428    3.3639    0.3717 H   0  0  0  0  0  0  0  0  0  0  0  0
   -5.4092   -0.0843    1.3589 H   0  0  0  0  0  0  0  0  0  0  0  0
   -3.7880   -1.8403    0.8003 H   0  0  0  0  0  0  0  0  0  0  0  0
   -1.3533    1.0140   -1.2720 H   0  0  0  0  0  0  0  0  0  0  0  0
   -2.9807    2.7479   -0.7017 H   0  0  0  0  0  0  0  0  0  0  0  0
   -2.8656   -3.2075   -1.2803 H   0  0  0  0  0  0  0  0  0  0  0  0
   -0.6563   -4.6057   -1.5873 H   0  0  0  0  0  0  0  0  0  0  0  0
    3.6105   -2.2801   -0.3453 H   0  0  0  0  0  0  0  0  0  0  0  0
    0.3010    0.3272    0.3022 H   0  0  0  0  0  0  0  0  0  0  0  0
    4.4338   -1.1152    1.3428 H   0  0  0  0  0  0  0  0  0  0  0  0
    5.2645    3.0225    1.6748 H   0  0  0  0  0  0  0  0  0  0  0  0
    3.3880    4.2636   -0.4308 H   0  0  0  0  0  0  0  0  0  0  0  0
    1.7084    1.6977   -0.2623 H   0  0  0  0  0  0  0  0  0  0  0  0
  1  2  1  0
  2  3  2  0
  3  4  1  0
  4  5  2  0
  5  6  1  0
  6  7  2  0
  5  8  1  0
  8  9  2  0
  9 10  1  0
 10 11  1  0
 11 12  2  0
 12 13  1  0
 13 14  2  0
 14 15  1  0
 15 16  2  0
 14 17  1  0
 17 18  2  0
 18 19  1  0
 19 20  2  0
 20 21  1  0
 21 22  1  0
 21 23  2  0
  7  2  1  0
 16  8  1  0
 23 17  1  0
 16 11  1  0
  1 24  1  0
  3 25  1  0
  4 26  1  0
  6 27  1  0
  7 28  1  0
  9 29  1  0
 10 30  1  0
 13 31  1  0
 15 32  1  0
 18 33  1  0
 20 34  1  0
 22 35  1  0
 23 36  1  0
M  END
$$$$
[H]c1c([H])c([H])c2c(c1[H])c(C(=O)OC1([H])C([H])([H])C3([H])N(C([H])([H])[H])C([H])(C([H])([H])C3([H])[H])C1([H])[H])c(Cl)n2C([H])([H])C([H])([H])F
     RDKit          3D

 47 50  0  0  0  0  0  0  0  0999 V2000
    5.9156    0.0048    0.1743 C   0  0  0  0  0  0  0  0  0  0  0  0
    4.4882    0.1736    0.3380 N   0  0  0  0  0  0  0  0  0  0  0  0
    3.8644    0.8099   -0.8021 C   0  0  0  0  0  0  0  0  0  0  0  0
    3.7653   -0.2238   -1.8826 C   0  0  0  0  0  0  0  0  0  0  0  0
    4.1580   -1.5076   -1.1913 C   0  0  0  0  0  0  0  0  0  0  0  0
    3.8989   -1.1659    0.2638 C   0  0  0  0  0  0  0  0  0  0  0  0
    2.4188   -1.1338    0.5117 C   0  0  0  0  0  0  0  0  0  0  0  0
    1.8528    0.2523    0.5926 C   0  0  0  0  0  0  0  0  0  0  0  0
    2.4675    1.2090   -0.3944 C   0  0  0  0  0  0  0  0  0  0  0  0
    0.4678    0.1991    0.3233 O   0  0  0  0  0  0  0  0  0  0  0  0
   -0.5136    0.5863    1.1953 C   0  0  0  0  0  0  0  0  0  0  0  0
   -0.1906    1.0253    2.3256 O   0  0  0  0  0  0  0  0  0  0  0  0
   -1.9338    0.5125    0.8710 C   0  0  0  0  0  0  0  0  0  0  0  0
   -2.6477    1.5515    0.2673 C   0  0  0  0  0  0  0  0  0  0  0  0
   -1.9546    3.1006   -0.1942 Cl  0  0  0  0  0  0  0  0  0  0  0  0
   -3.9218    1.2009    0.0929 N   0  0  0  0  0  0  0  0  0  0  0  0
   -4.9428    2.0393   -0.5053 C   0  0  0  0  0  0  0  0  0  0  0  0
   -4.9458    1.7755   -1.9981 C   0  0  0  0  0  0  0  0  0  0  0  0
   -5.9249    2.5827   -2.5530 F   0  0  0  0  0  0  0  0  0  0  0  0
   -4.0457   -0.0475    0.5732 C   0  0  0  0  0  0  0  0  0  0  0  0
   -5.1441   -0.8794    0.6398 C   0  0  0  0  0  0  0  0  0  0  0  0
   -4.9897   -2.1399    1.1946 C   0  0  0  0  0  0  0  0  0  0  0  0
   -3.7736   -2.5835    1.6798 C   0  0  0  0  0  0  0  0  0  0  0  0
   -2.6744   -1.7495    1.6125 C   0  0  0  0  0  0  0  0  0  0  0  0
   -2.8339   -0.4994    1.0607 C   0  0  0  0  0  0  0  0  0  0  0  0
    6.2484   -0.9729    0.6140 H   0  0  0  0  0  0  0  0  0  0  0  0
    6.4195    0.7896    0.7960 H   0  0  0  0  0  0  0  0  0  0  0  0
    6.2619    0.0740   -0.8557 H   0  0  0  0  0  0  0  0  0  0  0  0
    4.3959    1.7232   -1.1229 H   0  0  0  0  0  0  0  0  0  0  0  0
    2.7195   -0.3656   -2.2599 H   0  0  0  0  0  0  0  0  0  0  0  0
    4.3903   -0.0030   -2.7635 H   0  0  0  0  0  0  0  0  0  0  0  0
    5.2553   -1.6404   -1.3446 H   0  0  0  0  0  0  0  0  0  0  0  0
    3.5684   -2.3612   -1.5473 H   0  0  0  0  0  0  0  0  0  0  0  0
    4.4386   -1.8638    0.9262 H   0  0  0  0  0  0  0  0  0  0  0  0
    1.9230   -1.7214   -0.2819 H   0  0  0  0  0  0  0  0  0  0  0  0
    2.2236   -1.6618    1.4713 H   0  0  0  0  0  0  0  0  0  0  0  0
    2.0760    0.6495    1.6084 H   0  0  0  0  0  0  0  0  0  0  0  0
    2.5300    2.2300    0.0369 H   0  0  0  0  0  0  0  0  0  0  0  0
    1.8683    1.3027   -1.3257 H   0  0  0  0  0  0  0  0  0  0  0  0
   -5.9358    1.8523   -0.0801 H   0  0  0  0  0  0  0  0  0  0  0  0
   -4.7282    3.1173   -0.3687 H   0  0  0  0  0  0  0  0  0  0  0  0
   -5.1999    0.6971   -2.1278 H   0  0  0  0  0  0  0  0  0  0  0  0
   -3.9578    2.0024   -2.4285 H   0  0  0  0  0  0  0  0  0  0  0  0
   -6.0883   -0.5190    0.2565 H   0  0  0  0  0  0  0  0  0  0  0  0
   -5.8667   -2.7834    1.2393 H   0  0  0  0  0  0  0  0  0  0  0  0
   -3.7011   -3.5773    2.1049 H   0  0  0  0  0  0  0  0  0  0  0  0
   -1.7012   -2.0617    1.9833 H   0  0  0  0  0  0  0  0  0  0  0  0
  1  2  1  0
  2  3  1  0
  3  4  1  0
  4  5  1  0
  5  6  1  0
  6  7  1  0
  7  8  1  0
  8  9  1  0
  8 10  1  0
 10 11  1  0
 11 12  2  0
 11 13  1  0
 13 14  2  0
 14 15  1  0
 14 16  1  0
 16 17  1  0
 17 18  1  0
 18 19  1  0
 16 20  1  0
 20 21  2  0
 21 22  1  0
 22 23  2  0
 23 24  1  0
 24 25  2  0
  6  2  1  0
 25 13  1  0
  9  3  1  0
 25 20  1  0
  1 26  1  0
  1 27  1  0
  1 28  1  0
  3 29  1  0
  4 30  1  0
  4 31  1  0
  5 32  1  0
  5 33  1  0
  6 34  1  0
  7 35  1  0
  7 36  1  0
  8 37  1  0
  9 38  1  0
  9 39  1  0
 17 40  1  0
 17 41  1  0
 18 42  1  0
 18 43  1  0
 21 44  1  0
 22 45  1  0
 23 46  1  0
 24 47  1  0
M  END
$$$$
[H]C1=C(C(=O)[O-])N2C(=O)/C(=C(\[H])c3nc4n(c3[H])C([H])([H])C([H])([H])S4)[C@@]2([H])S1
     RDKit          3D

 28 31  0  0  0  0  0  0  0  0999 V2000
   -6.0141   -1.3502    1.8267 O   0  0  0  0  0  0  0  0  0  0  0  0
   -5.3304   -0.5959    0.8902 C   0  0  0  0  0  0  0  0  0  0  0  0
   -6.0154    0.0422    0.0500 O   0  0  0  0  0  0  0  0  0  0  0  0
   -3.8600   -0.5662    0.9080 C   0  0  0  0  0  0  0  0  0  0  0  0
   -3.1412   -1.2315    1.7795 C   0  0  0  0  0  0  0  0  0  0  0  0
   -1.4282   -0.8877    1.3983 S   0  0  0  0  0  0  0  0  0  0  0  0
   -1.8096   -0.3428   -0.3325 C   0  0  1  0  0  0  0  0  0  0  0  0
   -3.1154    0.2152   -0.0102 N   0  0  0  0  0  0  0  0  0  0  0  0
   -2.8159    1.2952   -0.8856 C   0  0  0  0  0  0  0  0  0  0  0  0
   -3.4747    2.1669   -1.5486 O   0  0  0  0  0  0  0  0  0  0  0  0
   -1.3852    0.9763   -0.6973 C   0  0  0  0  0  0  0  0  0  0  0  0
   -0.3300    1.7322   -0.8633 C   0  0  0  0  0  0  0  0  0  0  0  0
    0.9921    1.1861   -0.6350 C   0  0  0  0  0  0  0  0  0  0  0  0
    1.5952    0.0042   -0.9268 C   0  0  0  0  0  0  0  0  0  0  0  0
    2.9076    0.0007   -0.4933 N   0  0  0  0  0  0  0  0  0  0  0  0
    4.0292   -0.8821   -0.5243 C   0  0  0  0  0  0  0  0  0  0  0  0
    5.0074   -0.5814    0.5751 C   0  0  0  0  0  0  0  0  0  0  0  0
    4.7599    1.2449    0.6614 S   0  0  0  0  0  0  0  0  0  0  0  0
    3.0813    1.1924    0.0635 C   0  0  0  0  0  0  0  0  0  0  0  0
    1.9632    1.9220   -0.0032 N   0  0  0  0  0  0  0  0  0  0  0  0
   -3.4752   -1.8573    2.5637 H   0  0  0  0  0  0  0  0  0  0  0  0
   -1.8188   -1.1489   -1.0706 H   0  0  0  0  0  0  0  0  0  0  0  0
   -0.4665    2.7849   -1.1719 H   0  0  0  0  0  0  0  0  0  0  0  0
    1.0841   -0.8133   -1.4316 H   0  0  0  0  0  0  0  0  0  0  0  0
    4.5701   -0.8418   -1.5061 H   0  0  0  0  0  0  0  0  0  0  0  0
    3.6743   -1.9287   -0.3479 H   0  0  0  0  0  0  0  0  0  0  0  0
    4.7857   -1.0648    1.5417 H   0  0  0  0  0  0  0  0  0  0  0  0
    6.0302   -0.7996    0.1902 H   0  0  0  0  0  0  0  0  0  0  0  0
  1  2  1  0
  2  3  2  0
  2  4  1  0
  4  5  2  0
  5  6  1  0
  6  7  1  0
  7  8  1  0
  8  9  1  0
  9 10  2  0
  9 11  1  0
 11 12  2  0
 12 13  1  0
 13 14  2  0
 14 15  1  0
 15 16  1  0
 16 17  1  0
 17 18  1  0
 18 19  1  0
 19 20  2  0
  8  4  1  0
 20 13  1  0
 11  7  1  0
 19 15  1  0
  5 21  1  0
  7 22  1  6
 12 23  1  0
 14 24  1  0
 16 25  1  0
 16 26  1  0
 17 27  1  0
 17 28  1  0
M  CHG  1   1  -1
M  END
$$$$
[H]c1c([H])c(S(=O)(=O)N([H])c2c([H])c([H])c3c([H])c([H])c([H])c([H])c3c2[H])c([H])c(OC([H])([H])[H])c1OC([H])([H])[H]
     RDKit          3D

 41 43  0  0  0  0  0  0  0  0999 V2000
    4.9982   -0.9238    2.7987 C   0  0  0  0  0  0  0  0  0  0  0  0
    4.5912    0.2368    2.1497 O   0  0  0  0  0  0  0  0  0  0  0  0
    3.7112    0.2826    1.0866 C   0  0  0  0  0  0  0  0  0  0  0  0
    3.1533   -0.8692    0.5756 C   0  0  0  0  0  0  0  0  0  0  0  0
    2.2720   -0.8739   -0.4820 C   0  0  0  0  0  0  0  0  0  0  0  0
    1.9157    0.3183   -1.0744 C   0  0  0  0  0  0  0  0  0  0  0  0
    2.4656    1.4842   -0.5750 C   0  0  0  0  0  0  0  0  0  0  0  0
    3.3543    1.4786    0.4929 C   0  0  0  0  0  0  0  0  0  0  0  0
    3.8961    2.6577    0.9808 O   0  0  0  0  0  0  0  0  0  0  0  0
    3.5173    3.8696    0.3587 C   0  0  0  0  0  0  0  0  0  0  0  0
    0.8062    0.3607   -2.4125 S   0  0  0  0  0  0  0  0  0  0  0  0
    1.3821    1.3621   -3.4001 O   0  0  0  0  0  0  0  0  0  0  0  0
    0.9348   -0.9744   -3.1051 O   0  0  0  0  0  0  0  0  0  0  0  0
   -0.7829    0.7726   -2.0451 N   0  0  0  0  0  0  0  0  0  0  0  0
   -1.6999    0.1072   -1.2025 C   0  0  0  0  0  0  0  0  0  0  0  0
   -1.4702   -0.2923    0.0901 C   0  0  0  0  0  0  0  0  0  0  0  0
   -2.4667   -0.9339    0.8387 C   0  0  0  0  0  0  0  0  0  0  0  0
   -3.7129   -1.1885    0.3105 C   0  0  0  0  0  0  0  0  0  0  0  0
   -4.7074   -1.8215    1.0378 C   0  0  0  0  0  0  0  0  0  0  0  0
   -5.9623   -2.0875    0.5315 C   0  0  0  0  0  0  0  0  0  0  0  0
   -6.2044   -1.6892   -0.7679 C   0  0  0  0  0  0  0  0  0  0  0  0
   -5.2201   -1.0586   -1.4987 C   0  0  0  0  0  0  0  0  0  0  0  0
   -3.9573   -0.7921   -0.9861 C   0  0  0  0  0  0  0  0  0  0  0  0
   -2.9805   -0.1679   -1.7081 C   0  0  0  0  0  0  0  0  0  0  0  0
    5.9613   -0.7572    3.3360 H   0  0  0  0  0  0  0  0  0  0  0  0
    5.2126   -1.7008    2.0286 H   0  0  0  0  0  0  0  0  0  0  0  0
    4.1892   -1.2385    3.4948 H   0  0  0  0  0  0  0  0  0  0  0  0
    3.4295   -1.8255    1.0394 H   0  0  0  0  0  0  0  0  0  0  0  0
    1.8455   -1.8136   -0.8644 H   0  0  0  0  0  0  0  0  0  0  0  0
    2.1697    2.4174   -1.0591 H   0  0  0  0  0  0  0  0  0  0  0  0
    3.7897    3.8194   -0.7328 H   0  0  0  0  0  0  0  0  0  0  0  0
    2.4301    3.9596    0.3958 H   0  0  0  0  0  0  0  0  0  0  0  0
    4.0662    4.7335    0.7664 H   0  0  0  0  0  0  0  0  0  0  0  0
   -1.1746    1.6656   -2.5069 H   0  0  0  0  0  0  0  0  0  0  0  0
   -0.5034   -0.0903    0.5257 H   0  0  0  0  0  0  0  0  0  0  0  0
   -2.2552   -1.2340    1.8462 H   0  0  0  0  0  0  0  0  0  0  0  0
   -4.4964   -2.1271    2.0592 H   0  0  0  0  0  0  0  0  0  0  0  0
   -6.7318   -2.5825    1.1084 H   0  0  0  0  0  0  0  0  0  0  0  0
   -7.1832   -1.8810   -1.2046 H   0  0  0  0  0  0  0  0  0  0  0  0
   -5.3829   -0.7319   -2.5297 H   0  0  0  0  0  0  0  0  0  0  0  0
   -3.1998    0.1292   -2.7151 H   0  0  0  0  0  0  0  0  0  0  0  0
  1  2  1  0
  2  3  1  0
  3  4  2  0
  4  5  1  0
  5  6  2  0
  6  7  1  0
  7  8  2  0
  8  9  1  0
  9 10  1  0
  6 11  1  0
 11 12  2  0
 11 13  2  0
 11 14  1  0
 14 15  1  0
 15 16  2  0
 16 17  1  0
 17 18  2  0
 18 19  1  0
 19 20  2  0
 20 21  1  0
 21 22  2  0
 22 23  1  0
 23 24  2  0
  8  3  1  0
 24 15  1  0
 23 18  1  0
  1 25  1  0
  1 26  1  0
  1 27  1  0
  4 28  1  0
  5 29  1  0
  7 30  1  0
 10 31  1  0
 10 32  1  0
 10 33  1  0
 14 34  1  0
 16 35  1  0
 17 36  1  0
 19 37  1  0
 20 38  1  0
 21 39  1  0
 22 40  1  0
 24 41  1  0
M  END
$$$$
[H]c1c([H])c([H])c(C([H])([H])C([H])([H])N([H])C(=O)C(=O)[C@@]([H])(N([H])C(=O)[C@@]2([H])N(C(=O)C3(c4c([H])c([H])c(Cl)c([H])c4[H])C([H])([H])C3([H])[H])C([H])([H])[C@]([H])(S(=O)(=O)c3c([H])c([H])c([H])c([H])c3Cl)C2([H])[H])C([H])([H])C([H])([H])[H])c([H])c1[H]
     RDKit          3D

 81 85  0  0  0  0  0  0  0  0999 V2000
    3.3221   -2.1155    1.5279 C   0  0  0  0  0  0  0  0  0  0  0  0
    3.2477   -0.6238    1.6469 C   0  0  0  0  0  0  0  0  0  0  0  0
    2.4665    0.0036    0.4716 C   0  0  2  0  0  0  0  0  0  0  0  0
    1.1147   -0.5341    0.4781 N   0  0  0  0  0  0  0  0  0  0  0  0
   -0.0277    0.2910    0.7749 C   0  0  0  0  0  0  0  0  0  0  0  0
    0.1927    1.4951    1.0321 O   0  0  0  0  0  0  0  0  0  0  0  0
   -1.3108   -0.3198    0.7531 C   0  0  2  0  0  0  0  0  0  0  0  0
   -1.5309   -1.3464   -0.3858 C   0  0  0  0  0  0  0  0  0  0  0  0
   -3.0605   -1.6363   -0.2665 C   0  0  2  0  0  0  0  0  0  0  0  0
   -3.4683   -0.7685    0.8912 C   0  0  0  0  0  0  0  0  0  0  0  0
   -2.5444    0.3713    0.6403 N   0  0  0  0  0  0  0  0  0  0  0  0
   -2.8943    1.6529    0.3113 C   0  0  0  0  0  0  0  0  0  0  0  0
   -1.9187    2.4513   -0.0745 O   0  0  0  0  0  0  0  0  0  0  0  0
   -4.1809    2.3706    0.2944 C   0  0  0  0  0  0  0  0  0  0  0  0
   -5.3419    1.6981   -0.3479 C   0  0  0  0  0  0  0  0  0  0  0  0
   -5.3678    1.9590    1.0855 C   0  0  0  0  0  0  0  0  0  0  0  0
   -4.0773    3.8674    0.1391 C   0  0  0  0  0  0  0  0  0  0  0  0
   -4.8341    4.5698   -0.7474 C   0  0  0  0  0  0  0  0  0  0  0  0
   -4.6747    5.9558   -0.8110 C   0  0  0  0  0  0  0  0  0  0  0  0
   -3.7880    6.6431   -0.0191 C   0  0  0  0  0  0  0  0  0  0  0  0
   -3.6259    8.4014   -0.1406 Cl  0  0  0  0  0  0  0  0  0  0  0  0
   -3.0227    5.9274    0.8778 C   0  0  0  0  0  0  0  0  0  0  0  0
   -3.1700    4.5571    0.9514 C   0  0  0  0  0  0  0  0  0  0  0  0
   -3.3222   -3.3465   -0.1484 S   0  0  0  0  0  0  0  0  0  0  0  0
   -2.7532   -3.8155    1.1753 O   0  0  0  0  0  0  0  0  0  0  0  0
   -2.5084   -4.0149   -1.2574 O   0  0  0  0  0  0  0  0  0  0  0  0
   -4.9839   -3.8026   -0.2721 C   0  0  0  0  0  0  0  0  0  0  0  0
   -5.4246   -4.3187   -1.5016 C   0  0  0  0  0  0  0  0  0  0  0  0
   -6.7337   -4.6420   -1.7064 C   0  0  0  0  0  0  0  0  0  0  0  0
   -7.6654   -4.4770   -0.7263 C   0  0  0  0  0  0  0  0  0  0  0  0
   -7.2685   -3.9759    0.4886 C   0  0  0  0  0  0  0  0  0  0  0  0
   -5.9186   -3.6439    0.6999 C   0  0  0  0  0  0  0  0  0  0  0  0
   -5.4208   -3.0891    2.2925 Cl  0  0  0  0  0  0  0  0  0  0  0  0
    3.1624   -0.4308   -0.7559 C   0  0  0  0  0  0  0  0  0  0  0  0
    2.5901   -1.2439   -1.5416 O   0  0  0  0  0  0  0  0  0  0  0  0
    4.5025    0.0288   -1.1360 C   0  0  0  0  0  0  0  0  0  0  0  0
    5.0320    0.8650   -0.3781 O   0  0  0  0  0  0  0  0  0  0  0  0
    5.1619   -0.4342   -2.2789 N   0  0  0  0  0  0  0  0  0  0  0  0
    6.4193   -0.1736   -2.8335 C   0  0  0  0  0  0  0  0  0  0  0  0
    7.6833   -0.5818   -2.2285 C   0  0  0  0  0  0  0  0  0  0  0  0
    8.0167   -0.1066   -0.9065 C   0  0  0  0  0  0  0  0  0  0  0  0
    8.5726    1.1708   -0.7589 C   0  0  0  0  0  0  0  0  0  0  0  0
    8.9628    1.6118    0.4809 C   0  0  0  0  0  0  0  0  0  0  0  0
    8.8000    0.7850    1.5674 C   0  0  0  0  0  0  0  0  0  0  0  0
    8.2552   -0.4780    1.4501 C   0  0  0  0  0  0  0  0  0  0  0  0
    7.8593   -0.9360    0.2180 C   0  0  0  0  0  0  0  0  0  0  0  0
    4.3517   -2.5057    1.4787 H   0  0  0  0  0  0  0  0  0  0  0  0
    2.7979   -2.4725    0.6134 H   0  0  0  0  0  0  0  0  0  0  0  0
    2.7941   -2.5668    2.4015 H   0  0  0  0  0  0  0  0  0  0  0  0
    4.2550   -0.1919    1.6168 H   0  0  0  0  0  0  0  0  0  0  0  0
    2.7644   -0.3213    2.6053 H   0  0  0  0  0  0  0  0  0  0  0  0
    2.5121    1.0902    0.6551 H   0  0  0  0  0  0  0  0  0  0  0  0
    0.9756   -1.5255    0.2656 H   0  0  0  0  0  0  0  0  0  0  0  0
   -1.4060   -0.9793    1.7167 H   0  0  0  0  0  0  0  0  0  0  0  0
   -1.2701   -0.9506   -1.3607 H   0  0  0  0  0  0  0  0  0  0  0  0
   -1.0248   -2.2836   -0.1971 H   0  0  0  0  0  0  0  0  0  0  0  0
   -3.5180   -1.2634   -1.2295 H   0  0  0  0  0  0  0  0  0  0  0  0
   -4.4979   -0.5233    0.9291 H   0  0  0  0  0  0  0  0  0  0  0  0
   -3.0508   -1.2311    1.8180 H   0  0  0  0  0  0  0  0  0  0  0  0
   -6.0749    2.2786   -0.9945 H   0  0  0  0  0  0  0  0  0  0  0  0
   -5.2084    0.6945   -0.8249 H   0  0  0  0  0  0  0  0  0  0  0  0
   -5.1834    1.3073    1.9207 H   0  0  0  0  0  0  0  0  0  0  0  0
   -6.0797    2.7975    1.3920 H   0  0  0  0  0  0  0  0  0  0  0  0
   -5.5620    4.0951   -1.4197 H   0  0  0  0  0  0  0  0  0  0  0  0
   -5.2988    6.4814   -1.5335 H   0  0  0  0  0  0  0  0  0  0  0  0
   -2.3256    6.4524    1.5024 H   0  0  0  0  0  0  0  0  0  0  0  0
   -2.5446    4.0547    1.6736 H   0  0  0  0  0  0  0  0  0  0  0  0
   -4.6739   -4.4450   -2.2716 H   0  0  0  0  0  0  0  0  0  0  0  0
   -7.0516   -5.0383   -2.6622 H   0  0  0  0  0  0  0  0  0  0  0  0
   -8.7142   -4.7251   -0.8628 H   0  0  0  0  0  0  0  0  0  0  0  0
   -7.9566   -3.8169    1.3193 H   0  0  0  0  0  0  0  0  0  0  0  0
    4.5517   -1.1531   -2.8457 H   0  0  0  0  0  0  0  0  0  0  0  0
    6.4581    0.9472   -3.1107 H   0  0  0  0  0  0  0  0  0  0  0  0
    6.4272   -0.6139   -3.9003 H   0  0  0  0  0  0  0  0  0  0  0  0
    8.5111   -0.2058   -2.9156 H   0  0  0  0  0  0  0  0  0  0  0  0
    7.7617   -1.7173   -2.2965 H   0  0  0  0  0  0  0  0  0  0  0  0
    8.7032    1.8227   -1.6026 H   0  0  0  0  0  0  0  0  0  0  0  0
    9.3925    2.6141    0.5595 H   0  0  0  0  0  0  0  0  0  0  0  0
    9.1033    1.1170    2.5583 H   0  0  0  0  0  0  0  0  0  0  0  0
    8.1280   -1.1317    2.3171 H   0  0  0  0  0  0  0  0  0  0  0  0
    7.4296   -1.9119    0.0753 H   0  0  0  0  0  0  0  0  0  0  0  0
  1  2  1  0
  2  3  1  0
  3  4  1  0
  4  5  1  0
  5  6  2  0
  5  7  1  0
  7  8  1  0
  8  9  1  0
  9 10  1  0
 10 11  1  0
 11 12  1  0
 12 13  2  0
 12 14  1  0
 14 15  1  0
 15 16  1  0
 14 17  1  0
 17 18  2  0
 18 19  1  0
 19 20  2  0
 20 21  1  0
 20 22  1  0
 22 23  2  0
  9 24  1  0
 24 25  2  0
 24 26  2  0
 24 27  1  0
 27 28  2  0
 28 29  1  0
 29 30  2  0
 30 31  1  0
 31 32  2  0
 32 33  1  0
  3 34  1  0
 34 35  2  0
 34 36  1  0
 36 37  2  0
 36 38  1  0
 38 39  1  0
 39 40  1  0
 40 41  1  0
 41 42  2  0
 42 43  1  0
 43 44  2  0
 44 45  1  0
 45 46  2  0
 11  7  1  0
 16 14  1  0
 23 17  1  0
 32 27  1  0
 46 41  1  0
  1 47  1  0
  1 48  1  0
  1 49  1  0
  2 50  1  0
  2 51  1  0
  3 52  1  1
  4 53  1  0
  7 54  1  1
  8 55  1  0
  8 56  1  0
  9 57  1  6
 10 58  1  0
 10 59  1  0
 15 60  1  0
 15 61  1  0
 16 62  1  0
 16 63  1  0
 18 64  1  0
 19 65  1  0
 22 66  1  0
 23 67  1  0
 28 68  1  0
 29 69  1  0
 30 70  1  0
 31 71  1  0
 38 72  1  0
 39 73  1  0
 39 74  1  0
 40 75  1  0
 40 76  1  0
 42 77  1  0
 43 78  1  0
 44 79  1  0
 45 80  1  0
 46 81  1  0
M  END
$$$$
[H]ON(C([H])=O)[C@@]([H])(C([H])([H])[H])[C@]([H])(C(=O)N([H])[C@]([H])(C(=O)N([H])C([H])([H])[H])C(C([H])([H])[H])(C([H])([H])[H])C([H])([H])[H])C([H])([H])C([H])(C([H])([H])[H])C([H])([H])[H]
     RDKit          3D

 54 53  0  0  0  0  0  0  0  0999 V2000
    4.3785    0.2555    3.2596 C   0  0  0  0  0  0  0  0  0  0  0  0
    3.8744    0.4787    1.8991 N   0  0  0  0  0  0  0  0  0  0  0  0
    2.6755   -0.1353    1.4939 C   0  0  0  0  0  0  0  0  0  0  0  0
    2.0849   -0.8736    2.4003 O   0  0  0  0  0  0  0  0  0  0  0  0
    2.0267   -0.0322    0.1793 C   0  0  1  0  0  0  0  0  0  0  0  0
    0.5892   -0.0087    0.3168 N   0  0  0  0  0  0  0  0  0  0  0  0
   -0.2827   -1.0209   -0.1300 C   0  0  0  0  0  0  0  0  0  0  0  0
    0.2525   -2.0184   -0.6932 O   0  0  0  0  0  0  0  0  0  0  0  0
   -1.7465   -0.9786    0.0209 C   0  0  2  0  0  0  0  0  0  0  0  0
   -2.4317    0.1676   -0.6141 C   0  0  0  0  0  0  0  0  0  0  0  0
   -2.2735    0.2955   -2.0827 C   0  0  0  0  0  0  0  0  0  0  0  0
   -2.7774   -0.8732   -2.8778 C   0  0  0  0  0  0  0  0  0  0  0  0
   -3.0216    1.5212   -2.5733 C   0  0  0  0  0  0  0  0  0  0  0  0
   -2.0495   -1.0471    1.5124 C   0  0  2  0  0  0  0  0  0  0  0  0
   -1.4783   -2.3671    2.0599 C   0  0  0  0  0  0  0  0  0  0  0  0
   -3.4300   -0.9125    1.8246 N   0  0  0  0  0  0  0  0  0  0  0  0
   -3.8508    0.0533    2.6564 O   0  0  0  0  0  0  0  0  0  0  0  0
   -4.3692   -1.7977    1.2583 C   0  0  0  0  0  0  0  0  0  0  0  0
   -5.5817   -1.6669    1.5448 O   0  0  0  0  0  0  0  0  0  0  0  0
    2.6349    0.9862   -0.6920 C   0  0  0  0  0  0  0  0  0  0  0  0
    2.6576    2.3777   -0.1415 C   0  0  0  0  0  0  0  0  0  0  0  0
    4.0169    0.5823   -1.1019 C   0  0  0  0  0  0  0  0  0  0  0  0
    1.8468    1.0396   -2.0524 C   0  0  0  0  0  0  0  0  0  0  0  0
    5.0931   -0.5914    3.2342 H   0  0  0  0  0  0  0  0  0  0  0  0
    4.9120    1.1302    3.6412 H   0  0  0  0  0  0  0  0  0  0  0  0
    3.5219   -0.0543    3.8876 H   0  0  0  0  0  0  0  0  0  0  0  0
    4.4688    1.1070    1.3402 H   0  0  0  0  0  0  0  0  0  0  0  0
    2.3165   -1.0368   -0.3336 H   0  0  0  0  0  0  0  0  0  0  0  0
    0.1608    0.8208    0.7821 H   0  0  0  0  0  0  0  0  0  0  0  0
   -2.1982   -1.9099   -0.3906 H   0  0  0  0  0  0  0  0  0  0  0  0
   -3.5109    0.1331   -0.3695 H   0  0  0  0  0  0  0  0  0  0  0  0
   -2.0488    1.1170   -0.1555 H   0  0  0  0  0  0  0  0  0  0  0  0
   -1.2149    0.4498   -2.3675 H   0  0  0  0  0  0  0  0  0  0  0  0
   -1.9576   -1.6224   -3.0336 H   0  0  0  0  0  0  0  0  0  0  0  0
   -3.6930   -1.3235   -2.4696 H   0  0  0  0  0  0  0  0  0  0  0  0
   -3.0310   -0.5059   -3.8959 H   0  0  0  0  0  0  0  0  0  0  0  0
   -4.0991    1.2381   -2.5953 H   0  0  0  0  0  0  0  0  0  0  0  0
   -2.7589    1.7659   -3.6259 H   0  0  0  0  0  0  0  0  0  0  0  0
   -2.9104    2.3762   -1.8959 H   0  0  0  0  0  0  0  0  0  0  0  0
   -1.4824   -0.2584    2.0615 H   0  0  0  0  0  0  0  0  0  0  0  0
   -0.3848   -2.2925    1.9635 H   0  0  0  0  0  0  0  0  0  0  0  0
   -1.8975   -3.2104    1.4621 H   0  0  0  0  0  0  0  0  0  0  0  0
   -1.7301   -2.4184    3.1272 H   0  0  0  0  0  0  0  0  0  0  0  0
   -3.2765    0.8545    2.5035 H   0  0  0  0  0  0  0  0  0  0  0  0
   -4.1135   -2.6017    0.5773 H   0  0  0  0  0  0  0  0  0  0  0  0
    2.4818    2.4367    0.9514 H   0  0  0  0  0  0  0  0  0  0  0  0
    3.6131    2.8709   -0.4360 H   0  0  0  0  0  0  0  0  0  0  0  0
    1.8550    2.9635   -0.6298 H   0  0  0  0  0  0  0  0  0  0  0  0
    4.0300    0.2137   -2.1707 H   0  0  0  0  0  0  0  0  0  0  0  0
    4.7599    1.4003   -0.9996 H   0  0  0  0  0  0  0  0  0  0  0  0
    4.2908   -0.3363   -0.5192 H   0  0  0  0  0  0  0  0  0  0  0  0
    0.8675    1.5220   -1.8612 H   0  0  0  0  0  0  0  0  0  0  0  0
    1.8057    0.0405   -2.4854 H   0  0  0  0  0  0  0  0  0  0  0  0
    2.3860    1.6962   -2.7645 H   0  0  0  0  0  0  0  0  0  0  0  0
  1  2  1  0
  2  3  1  0
  3  4  2  0
  3  5  1  0
  5  6  1  0
  6  7  1  0
  7  8  2  0
  7  9  1  0
  9 10  1  0
 10 11  1  0
 11 12  1  0
 11 13  1  0
  9 14  1  0
 14 15  1  0
 14 16  1  0
 16 17  1  0
 16 18  1  0
 18 19  2  0
  5 20  1  0
 20 21  1  0
 20 22  1  0
 20 23  1  0
  1 24  1  0
  1 25  1  0
  1 26  1  0
  2 27  1  0
  5 28  1  6
  6 29  1  0
  9 30  1  6
 10 31  1  0
 10 32  1  0
 11 33  1  0
 12 34  1  0
 12 35  1  0
 12 36  1  0
 13 37  1  0
 13 38  1  0
 13 39  1  0
 14 40  1  1
 15 41  1  0
 15 42  1  0
 15 43  1  0
 17 44  1  0
 18 45  1  0
 21 46  1  0
 21 47  1  0
 21 48  1  0
 22 49  1  0
 22 50  1  0
 22 51  1  0
 23 52  1  0
 23 53  1  0
 23 54  1  0
M  END
$$$$
[H]OC(=O)C([H])([H])C([H])(c1c([H])c([H])c(Cl)c(Cl)c1[H])N(C([H])([H])c1c([H])c([H])c(OC([H])([H])C([H])([H])N2C(=O)C([H])([H])C([H])([H])C2=O)c(C([H])([H])[H])c1[H])C([H])([H])C([H])([H])C([H])([H])C([H])([H])[H]
     RDKit          3D

 68 70  0  0  0  0  0  0  0  0999 V2000
   -2.6242    4.2314   -0.1976 C   0  0  0  0  0  0  0  0  0  0  0  0
   -3.2880    2.9189    0.1531 C   0  0  0  0  0  0  0  0  0  0  0  0
   -2.3455    1.7492   -0.1635 C   0  0  0  0  0  0  0  0  0  0  0  0
   -2.9952    0.4447    0.1792 C   0  0  0  0  0  0  0  0  0  0  0  0
   -2.2914   -0.7298   -0.0836 N   0  0  0  0  0  0  0  0  0  0  0  0
   -1.1275   -1.0769    0.6055 C   0  0  0  0  0  0  0  0  0  0  0  0
    0.0823   -0.2595    0.3718 C   0  0  0  0  0  0  0  0  0  0  0  0
    0.5400    0.0483   -0.8871 C   0  0  0  0  0  0  0  0  0  0  0  0
    1.6959    0.7987   -1.1045 C   0  0  0  0  0  0  0  0  0  0  0  0
    2.4349    1.2666   -0.0475 C   0  0  0  0  0  0  0  0  0  0  0  0
    3.5686    2.0049   -0.2050 O   0  0  0  0  0  0  0  0  0  0  0  0
    4.2765    2.4523   -1.2855 C   0  0  0  0  0  0  0  0  0  0  0  0
    4.8923    1.4133   -2.1477 C   0  0  0  0  0  0  0  0  0  0  0  0
    5.8406    0.5648   -1.4566 N   0  0  0  0  0  0  0  0  0  0  0  0
    5.5005   -0.6476   -0.8194 C   0  0  0  0  0  0  0  0  0  0  0  0
    4.5781   -1.4635   -1.0789 O   0  0  0  0  0  0  0  0  0  0  0  0
    6.4713   -0.8469    0.3030 C   0  0  0  0  0  0  0  0  0  0  0  0
    7.7272   -0.1950   -0.2398 C   0  0  0  0  0  0  0  0  0  0  0  0
    7.2331    0.7355   -1.2608 C   0  0  0  0  0  0  0  0  0  0  0  0
    7.9312    1.5728   -1.8842 O   0  0  0  0  0  0  0  0  0  0  0  0
    1.9798    0.9604    1.2549 C   0  0  0  0  0  0  0  0  0  0  0  0
    2.7823    1.4685    2.3961 C   0  0  0  0  0  0  0  0  0  0  0  0
    0.8596    0.2341    1.4237 C   0  0  0  0  0  0  0  0  0  0  0  0
   -3.0873   -1.8333   -0.5627 C   0  0  0  0  0  0  0  0  0  0  0  0
   -3.7306   -1.5654   -1.8958 C   0  0  0  0  0  0  0  0  0  0  0  0
   -2.7471   -1.3158   -2.9523 C   0  0  0  0  0  0  0  0  0  0  0  0
   -2.1662   -2.4304   -3.5692 O   0  0  0  0  0  0  0  0  0  0  0  0
   -2.4536   -0.1509   -3.2732 O   0  0  0  0  0  0  0  0  0  0  0  0
   -4.0562   -2.3782    0.4039 C   0  0  0  0  0  0  0  0  0  0  0  0
   -5.3967   -2.4244    0.0865 C   0  0  0  0  0  0  0  0  0  0  0  0
   -6.3629   -2.9377    0.9255 C   0  0  0  0  0  0  0  0  0  0  0  0
   -5.9642   -3.4302    2.1467 C   0  0  0  0  0  0  0  0  0  0  0  0
   -7.1397   -4.1066    3.2844 Cl  0  0  0  0  0  0  0  0  0  0  0  0
   -4.6413   -3.4149    2.5270 C   0  0  0  0  0  0  0  0  0  0  0  0
   -4.1138   -4.0448    4.0932 Cl  0  0  0  0  0  0  0  0  0  0  0  0
   -3.7015   -2.8802    1.6313 C   0  0  0  0  0  0  0  0  0  0  0  0
   -3.4136    4.9874   -0.2913 H   0  0  0  0  0  0  0  0  0  0  0  0
   -1.8189    4.5057    0.5026 H   0  0  0  0  0  0  0  0  0  0  0  0
   -2.1478    4.1316   -1.2037 H   0  0  0  0  0  0  0  0  0  0  0  0
   -4.1707    2.8080   -0.5077 H   0  0  0  0  0  0  0  0  0  0  0  0
   -3.6322    2.8883    1.1851 H   0  0  0  0  0  0  0  0  0  0  0  0
   -1.4498    1.9801    0.4697 H   0  0  0  0  0  0  0  0  0  0  0  0
   -2.0765    1.7701   -1.2267 H   0  0  0  0  0  0  0  0  0  0  0  0
   -4.0504    0.4467   -0.2016 H   0  0  0  0  0  0  0  0  0  0  0  0
   -3.1543    0.4925    1.3116 H   0  0  0  0  0  0  0  0  0  0  0  0
   -1.2541   -1.1174    1.7250 H   0  0  0  0  0  0  0  0  0  0  0  0
   -0.8397   -2.1214    0.3011 H   0  0  0  0  0  0  0  0  0  0  0  0
   -0.0392   -0.3230   -1.7167 H   0  0  0  0  0  0  0  0  0  0  0  0
    1.9547    0.9969   -2.1320 H   0  0  0  0  0  0  0  0  0  0  0  0
    4.9870    3.2840   -1.0334 H   0  0  0  0  0  0  0  0  0  0  0  0
    3.5272    2.9931   -1.9626 H   0  0  0  0  0  0  0  0  0  0  0  0
    4.1502    0.7922   -2.6352 H   0  0  0  0  0  0  0  0  0  0  0  0
    5.4924    1.9666   -2.9381 H   0  0  0  0  0  0  0  0  0  0  0  0
    6.0635   -0.3470    1.1826 H   0  0  0  0  0  0  0  0  0  0  0  0
    6.6369   -1.9381    0.4251 H   0  0  0  0  0  0  0  0  0  0  0  0
    8.4570   -0.9304   -0.6024 H   0  0  0  0  0  0  0  0  0  0  0  0
    8.1737    0.3644    0.6219 H   0  0  0  0  0  0  0  0  0  0  0  0
    2.1528    1.9727    3.1577 H   0  0  0  0  0  0  0  0  0  0  0  0
    3.2367    0.5718    2.8819 H   0  0  0  0  0  0  0  0  0  0  0  0
    3.5400    2.1807    2.0594 H   0  0  0  0  0  0  0  0  0  0  0  0
    0.5037   -0.0052    2.4202 H   0  0  0  0  0  0  0  0  0  0  0  0
   -2.3090   -2.6396   -0.7936 H   0  0  0  0  0  0  0  0  0  0  0  0
   -4.2754   -2.5132   -2.1828 H   0  0  0  0  0  0  0  0  0  0  0  0
   -4.4911   -0.7548   -1.8167 H   0  0  0  0  0  0  0  0  0  0  0  0
   -2.0654   -3.2893   -3.0585 H   0  0  0  0  0  0  0  0  0  0  0  0
   -5.7361   -2.0336   -0.8843 H   0  0  0  0  0  0  0  0  0  0  0  0
   -7.4219   -2.9558    0.6328 H   0  0  0  0  0  0  0  0  0  0  0  0
   -2.6910   -2.8966    1.9559 H   0  0  0  0  0  0  0  0  0  0  0  0
  1  2  1  0
  2  3  1  0
  3  4  1  0
  4  5  1  0
  5  6  1  0
  6  7  1  0
  7  8  2  0
  8  9  1  0
  9 10  2  0
 10 11  1  0
 11 12  1  0
 12 13  1  0
 13 14  1  0
 14 15  1  0
 15 16  2  0
 15 17  1  0
 17 18  1  0
 18 19  1  0
 19 20  2  0
 10 21  1  0
 21 22  1  0
 21 23  2  0
  5 24  1  0
 24 25  1  0
 25 26  1  0
 26 27  1  0
 26 28  2  0
 24 29  1  0
 29 30  2  0
 30 31  1  0
 31 32  2  0
 32 33  1  0
 32 34  1  0
 34 35  1  0
 34 36  2  0
 23  7  1  0
 36 29  1  0
 19 14  1  0
  1 37  1  0
  1 38  1  0
  1 39  1  0
  2 40  1  0
  2 41  1  0
  3 42  1  0
  3 43  1  0
  4 44  1  0
  4 45  1  0
  6 46  1  0
  6 47  1  0
  8 48  1  0
  9 49  1  0
 12 50  1  0
 12 51  1  0
 13 52  1  0
 13 53  1  0
 17 54  1  0
 17 55  1  0
 18 56  1  0
 18 57  1  0
 22 58  1  0
 22 59  1  0
 22 60  1  0
 23 61  1  0
 24 62  1  0
 25 63  1  0
 25 64  1  0
 27 65  1  0
 30 66  1  0
 31 67  1  0
 36 68  1  0
M  END
$$$$
[H]OC([H])([H])c1c([H])c(N(c2nc(N([H])c3c([H])c(N4C([H])([H])C([H])([H])OC([H])([H])C4([H])[H])c([H])c(N4C([H])([H])C([H])([H])OC([H])([H])C4([H])[H])c3[H])nc([H])c2[H])C([H])([H])[H])c([H])c(C(F)(F)F)c1[H]
     RDKit          3D

 70 74  0  0  0  0  0  0  0  0999 V2000
    4.7253   -1.8673    2.9531 C   0  0  0  0  0  0  0  0  0  0  0  0
    4.3414   -1.1622    1.7313 N   0  0  0  0  0  0  0  0  0  0  0  0
    3.0270   -1.4074    1.2688 C   0  0  0  0  0  0  0  0  0  0  0  0
    2.7978   -2.6011    0.5700 C   0  0  0  0  0  0  0  0  0  0  0  0
    1.5465   -2.8907    0.0703 C   0  0  0  0  0  0  0  0  0  0  0  0
    0.5960   -1.9795    0.2937 N   0  0  0  0  0  0  0  0  0  0  0  0
    0.7478   -0.8316    0.9470 C   0  0  0  0  0  0  0  0  0  0  0  0
   -0.2967    0.1101    1.1040 N   0  0  0  0  0  0  0  0  0  0  0  0
   -1.6080    0.0258    0.6143 C   0  0  0  0  0  0  0  0  0  0  0  0
   -2.2786   -1.0809    0.2070 C   0  0  0  0  0  0  0  0  0  0  0  0
   -3.5599   -1.0649   -0.3324 C   0  0  0  0  0  0  0  0  0  0  0  0
   -4.1713    0.1778   -0.4503 C   0  0  0  0  0  0  0  0  0  0  0  0
   -3.5374    1.3337   -0.0501 C   0  0  0  0  0  0  0  0  0  0  0  0
   -2.2829    1.2539    0.4715 C   0  0  0  0  0  0  0  0  0  0  0  0
   -4.1597    2.6024   -0.1999 N   0  0  0  0  0  0  0  0  0  0  0  0
   -4.9346    2.8126   -1.4177 C   0  0  0  0  0  0  0  0  0  0  0  0
   -4.9966    4.2656   -1.7612 C   0  0  0  0  0  0  0  0  0  0  0  0
   -4.0137    5.0501   -1.2001 O   0  0  0  0  0  0  0  0  0  0  0  0
   -3.9916    5.0238    0.1777 C   0  0  0  0  0  0  0  0  0  0  0  0
   -4.0958    3.6629    0.7717 C   0  0  0  0  0  0  0  0  0  0  0  0
   -4.2213   -2.2498   -0.7345 N   0  0  0  0  0  0  0  0  0  0  0  0
   -5.5457   -2.1939   -1.2812 C   0  0  0  0  0  0  0  0  0  0  0  0
   -6.3129   -3.4202   -0.7980 C   0  0  0  0  0  0  0  0  0  0  0  0
   -5.6574   -4.5122   -1.3152 O   0  0  0  0  0  0  0  0  0  0  0  0
   -4.4672   -4.7073   -0.6482 C   0  0  0  0  0  0  0  0  0  0  0  0
   -3.5592   -3.5231   -0.6047 C   0  0  0  0  0  0  0  0  0  0  0  0
    1.9986   -0.5829    1.4242 N   0  0  0  0  0  0  0  0  0  0  0  0
    5.2579   -0.3027    1.0588 C   0  0  0  0  0  0  0  0  0  0  0  0
    4.8549    0.4226   -0.0263 C   0  0  0  0  0  0  0  0  0  0  0  0
    5.7501    1.2510   -0.6944 C   0  0  0  0  0  0  0  0  0  0  0  0
    5.3368    2.0508   -1.8762 C   0  0  0  0  0  0  0  0  0  0  0  0
    6.4578    2.7274   -2.3597 O   0  0  0  0  0  0  0  0  0  0  0  0
    7.0665    1.3184   -0.2273 C   0  0  0  0  0  0  0  0  0  0  0  0
    7.4454    0.5668    0.8785 C   0  0  0  0  0  0  0  0  0  0  0  0
    6.5346   -0.2374    1.5125 C   0  0  0  0  0  0  0  0  0  0  0  0
    8.8563    0.6491    1.3648 C   0  0  0  0  0  0  0  0  0  0  0  0
    9.7307    0.3640    0.3225 F   0  0  0  0  0  0  0  0  0  0  0  0
    9.0552   -0.3498    2.3141 F   0  0  0  0  0  0  0  0  0  0  0  0
    9.1479    1.8674    1.9371 F   0  0  0  0  0  0  0  0  0  0  0  0
    3.8306   -2.2015    3.5117 H   0  0  0  0  0  0  0  0  0  0  0  0
    5.2470   -2.8072    2.6033 H   0  0  0  0  0  0  0  0  0  0  0  0
    5.3318   -1.2726    3.6366 H   0  0  0  0  0  0  0  0  0  0  0  0
    3.5874   -3.3171    0.3999 H   0  0  0  0  0  0  0  0  0  0  0  0
    1.3645   -3.8221   -0.4749 H   0  0  0  0  0  0  0  0  0  0  0  0
   -0.0272    0.9654    1.6780 H   0  0  0  0  0  0  0  0  0  0  0  0
   -1.8140   -2.0447    0.3032 H   0  0  0  0  0  0  0  0  0  0  0  0
   -5.1533    0.3129   -0.8575 H   0  0  0  0  0  0  0  0  0  0  0  0
   -1.7769    2.1638    0.7965 H   0  0  0  0  0  0  0  0  0  0  0  0
   -4.4740    2.2106   -2.2478 H   0  0  0  0  0  0  0  0  0  0  0  0
   -5.9589    2.4339   -1.2322 H   0  0  0  0  0  0  0  0  0  0  0  0
   -4.8297    4.3368   -2.8821 H   0  0  0  0  0  0  0  0  0  0  0  0
   -6.0391    4.6847   -1.6349 H   0  0  0  0  0  0  0  0  0  0  0  0
   -3.0375    5.4874    0.4860 H   0  0  0  0  0  0  0  0  0  0  0  0
   -4.8072    5.6874    0.5817 H   0  0  0  0  0  0  0  0  0  0  0  0
   -5.0214    3.5647    1.4129 H   0  0  0  0  0  0  0  0  0  0  0  0
   -3.2438    3.5122    1.4800 H   0  0  0  0  0  0  0  0  0  0  0  0
   -6.1415   -1.3162   -1.0362 H   0  0  0  0  0  0  0  0  0  0  0  0
   -5.4496   -2.3023   -2.3883 H   0  0  0  0  0  0  0  0  0  0  0  0
   -7.3243   -3.3428   -1.2364 H   0  0  0  0  0  0  0  0  0  0  0  0
   -6.3798   -3.4416    0.3059 H   0  0  0  0  0  0  0  0  0  0  0  0
   -3.9234   -5.5444   -1.1616 H   0  0  0  0  0  0  0  0  0  0  0  0
   -4.6822   -5.1081    0.3810 H   0  0  0  0  0  0  0  0  0  0  0  0
   -3.0157   -3.5958    0.3791 H   0  0  0  0  0  0  0  0  0  0  0  0
   -2.7956   -3.6256   -1.4259 H   0  0  0  0  0  0  0  0  0  0  0  0
    3.8461    0.3684   -0.3894 H   0  0  0  0  0  0  0  0  0  0  0  0
    4.5310    2.7852   -1.5987 H   0  0  0  0  0  0  0  0  0  0  0  0
    4.9696    1.4060   -2.7018 H   0  0  0  0  0  0  0  0  0  0  0  0
    7.0261    2.0954   -2.8797 H   0  0  0  0  0  0  0  0  0  0  0  0
    7.7345    1.9663   -0.7586 H   0  0  0  0  0  0  0  0  0  0  0  0
    6.8421   -0.8104    2.3651 H   0  0  0  0  0  0  0  0  0  0  0  0
  1  2  1  0
  2  3  1  0
  3  4  2  0
  4  5  1  0
  5  6  2  0
  6  7  1  0
  7  8  1  0
  8  9  1  0
  9 10  2  0
 10 11  1  0
 11 12  2  0
 12 13  1  0
 13 14  2  0
 13 15  1  0
 15 16  1  0
 16 17  1  0
 17 18  1  0
 18 19  1  0
 19 20  1  0
 11 21  1  0
 21 22  1  0
 22 23  1  0
 23 24  1  0
 24 25  1  0
 25 26  1  0
  7 27  2  0
  2 28  1  0
 28 29  2  0
 29 30  1  0
 30 31  1  0
 31 32  1  0
 30 33  2  0
 33 34  1  0
 34 35  2  0
 34 36  1  0
 36 37  1  0
 36 38  1  0
 36 39  1  0
 27  3  1  0
 35 28  1  0
 14  9  1  0
 20 15  1  0
 26 21  1  0
  1 40  1  0
  1 41  1  0
  1 42  1  0
  4 43  1  0
  5 44  1  0
  8 45  1  0
 10 46  1  0
 12 47  1  0
 14 48  1  0
 16 49  1  0
 16 50  1  0
 17 51  1  0
 17 52  1  0
 19 53  1  0
 19 54  1  0
 20 55  1  0
 20 56  1  0
 22 57  1  0
 22 58  1  0
 23 59  1  0
 23 60  1  0
 25 61  1  0
 25 62  1  0
 26 63  1  0
 26 64  1  0
 29 65  1  0
 31 66  1  0
 31 67  1  0
 32 68  1  0
 33 69  1  0
 35 70  1  0
M  END
$$$$
[H]OC(=O)c1c([H])c([H])c(/C([H])=C(\[H])c2c([H])c([H])c([H])c(/C([H])=C(\[H])c3c([H])c([H])c(C(F)(F)F)c([H])c3[H])c2[H])c([H])c1[H]
     RDKit          3D

 46 48  0  0  0  0  0  0  0  0999 V2000
   -9.0465   -2.2635   -2.0518 O   0  0  0  0  0  0  0  0  0  0  0  0
   -8.7060   -1.5778   -0.9137 C   0  0  0  0  0  0  0  0  0  0  0  0
   -9.6488   -1.3936   -0.0701 O   0  0  0  0  0  0  0  0  0  0  0  0
   -7.3824   -1.0928   -0.6624 C   0  0  0  0  0  0  0  0  0  0  0  0
   -7.1258   -0.3813    0.5137 C   0  0  0  0  0  0  0  0  0  0  0  0
   -5.8699    0.0767    0.8145 C   0  0  0  0  0  0  0  0  0  0  0  0
   -4.7561   -0.1230   -0.0177 C   0  0  0  0  0  0  0  0  0  0  0  0
   -3.4910    0.3772    0.4150 C   0  0  0  0  0  0  0  0  0  0  0  0
   -2.3476    0.3084   -0.2198 C   0  0  0  0  0  0  0  0  0  0  0  0
   -1.1885    0.9167    0.4460 C   0  0  0  0  0  0  0  0  0  0  0  0
   -1.3573    1.6902    1.5526 C   0  0  0  0  0  0  0  0  0  0  0  0
   -0.3040    2.1641    2.3033 C   0  0  0  0  0  0  0  0  0  0  0  0
    0.9328    1.8312    1.9079 C   0  0  0  0  0  0  0  0  0  0  0  0
    1.2150    1.0363    0.7761 C   0  0  0  0  0  0  0  0  0  0  0  0
    2.6039    0.7237    0.5724 C   0  0  0  0  0  0  0  0  0  0  0  0
    3.2559    0.2606   -0.4534 C   0  0  0  0  0  0  0  0  0  0  0  0
    4.7085    0.0193   -0.3927 C   0  0  0  0  0  0  0  0  0  0  0  0
    5.4650   -0.2077   -1.4936 C   0  0  0  0  0  0  0  0  0  0  0  0
    6.8523   -0.4588   -1.4212 C   0  0  0  0  0  0  0  0  0  0  0  0
    7.4900   -0.4773   -0.1958 C   0  0  0  0  0  0  0  0  0  0  0  0
    6.7426   -0.2510    0.9317 C   0  0  0  0  0  0  0  0  0  0  0  0
    5.3567   -0.0021    0.8199 C   0  0  0  0  0  0  0  0  0  0  0  0
    8.9288   -0.7107   -0.0473 C   0  0  0  0  0  0  0  0  0  0  0  0
    9.6221    0.3633   -0.6471 F   0  0  0  0  0  0  0  0  0  0  0  0
    9.3097   -0.9373    1.2557 F   0  0  0  0  0  0  0  0  0  0  0  0
    9.2780   -1.8304   -0.7919 F   0  0  0  0  0  0  0  0  0  0  0  0
    0.1148    0.6024    0.0738 C   0  0  0  0  0  0  0  0  0  0  0  0
   -5.0480   -0.8256   -1.1736 C   0  0  0  0  0  0  0  0  0  0  0  0
   -6.3047   -1.2899   -1.4791 C   0  0  0  0  0  0  0  0  0  0  0  0
   -9.1499   -1.8540   -2.9395 H   0  0  0  0  0  0  0  0  0  0  0  0
   -7.9340   -0.1932    1.2066 H   0  0  0  0  0  0  0  0  0  0  0  0
   -5.7017    0.6278    1.7388 H   0  0  0  0  0  0  0  0  0  0  0  0
   -3.4660    0.8484    1.4261 H   0  0  0  0  0  0  0  0  0  0  0  0
   -2.2539   -0.1666   -1.1689 H   0  0  0  0  0  0  0  0  0  0  0  0
   -2.3490    2.0243    1.9240 H   0  0  0  0  0  0  0  0  0  0  0  0
   -0.4893    2.7880    3.1879 H   0  0  0  0  0  0  0  0  0  0  0  0
    1.7730    2.2007    2.4728 H   0  0  0  0  0  0  0  0  0  0  0  0
    3.3002    0.8956    1.4444 H   0  0  0  0  0  0  0  0  0  0  0  0
    2.6930    0.0762   -1.3426 H   0  0  0  0  0  0  0  0  0  0  0  0
    5.0187   -0.2058   -2.4768 H   0  0  0  0  0  0  0  0  0  0  0  0
    7.4531   -0.6247   -2.3153 H   0  0  0  0  0  0  0  0  0  0  0  0
    7.2266   -0.2701    1.8965 H   0  0  0  0  0  0  0  0  0  0  0  0
    4.8898    0.1505    1.7823 H   0  0  0  0  0  0  0  0  0  0  0  0
    0.3166   -0.0012   -0.8109 H   0  0  0  0  0  0  0  0  0  0  0  0
   -4.2010   -1.0001   -1.8242 H   0  0  0  0  0  0  0  0  0  0  0  0
   -6.4257   -1.8431   -2.3836 H   0  0  0  0  0  0  0  0  0  0  0  0
  1  2  1  0
  2  3  2  0
  2  4  1  0
  4  5  2  0
  5  6  1  0
  6  7  2  0
  7  8  1  0
  8  9  2  0
  9 10  1  0
 10 11  2  0
 11 12  1  0
 12 13  2  0
 13 14  1  0
 14 15  1  0
 15 16  2  0
 16 17  1  0
 17 18  2  0
 18 19  1  0
 19 20  2  0
 20 21  1  0
 21 22  2  0
 20 23  1  0
 23 24  1  0
 23 25  1  0
 23 26  1  0
 14 27  2  0
  7 28  1  0
 28 29  2  0
 29  4  1  0
 27 10  1  0
 22 17  1  0
  1 30  1  0
  5 31  1  0
  6 32  1  0
  8 33  1  0
  9 34  1  0
 11 35  1  0
 12 36  1  0
 13 37  1  0
 15 38  1  0
 16 39  1  0
 18 40  1  0
 19 41  1  0
 21 42  1  0
 22 43  1  0
 27 44  1  0
 28 45  1  0
 29 46  1  0
M  END
$$$$
[H]c1nc(N2C([H])([H])C([H])([H])N(c3nc(N4C([H])([H])C([H])([H])C(F)(F)C([H])([H])C4([H])[H])nc(C(F)(F)F)c3[H])[C@]([H])(C([H])([H])[H])C2([H])[H])c([H])c(C#N)c1[H]
     RDKit          3D

 55 58  0  0  0  0  0  0  0  0999 V2000
    0.9069   -0.6907    1.6676 C   0  0  0  0  0  0  0  0  0  0  0  0
    1.7034   -0.7520    0.4275 C   0  0  2  0  0  0  0  0  0  0  0  0
    2.3537    0.5917    0.0270 C   0  0  0  0  0  0  0  0  0  0  0  0
    3.4224    0.0956   -0.8812 N   0  0  0  0  0  0  0  0  0  0  0  0
    3.0234   -0.6152   -2.0155 C   0  0  0  0  0  0  0  0  0  0  0  0
    1.5879   -1.1014   -2.0280 C   0  0  0  0  0  0  0  0  0  0  0  0
    0.9054   -1.0601   -0.7801 N   0  0  0  0  0  0  0  0  0  0  0  0
   -0.4736   -1.2577   -0.5941 C   0  0  0  0  0  0  0  0  0  0  0  0
   -0.9868   -2.5305   -0.5127 C   0  0  0  0  0  0  0  0  0  0  0  0
   -2.3523   -2.7417   -0.2787 C   0  0  0  0  0  0  0  0  0  0  0  0
   -3.1184   -1.6620   -0.1444 N   0  0  0  0  0  0  0  0  0  0  0  0
   -2.6472   -0.3882   -0.2187 C   0  0  0  0  0  0  0  0  0  0  0  0
   -1.3467   -0.2223   -0.4412 N   0  0  0  0  0  0  0  0  0  0  0  0
   -3.5755    0.6744   -0.0566 N   0  0  0  0  0  0  0  0  0  0  0  0
   -4.5719    0.9441   -1.0376 C   0  0  0  0  0  0  0  0  0  0  0  0
   -5.7333    1.7185   -0.5958 C   0  0  0  0  0  0  0  0  0  0  0  0
   -5.8892    2.0029    0.8386 C   0  0  0  0  0  0  0  0  0  0  0  0
   -5.8585    3.3841    1.0868 F   0  0  0  0  0  0  0  0  0  0  0  0
   -7.1625    1.6222    1.3022 F   0  0  0  0  0  0  0  0  0  0  0  0
   -4.9030    1.3889    1.7753 C   0  0  0  0  0  0  0  0  0  0  0  0
   -3.5127    1.5021    1.1449 C   0  0  0  0  0  0  0  0  0  0  0  0
   -2.8706   -4.1379   -0.1626 C   0  0  0  0  0  0  0  0  0  0  0  0
   -3.9038   -4.3769   -1.0153 F   0  0  0  0  0  0  0  0  0  0  0  0
   -3.2295   -4.3488    1.1602 F   0  0  0  0  0  0  0  0  0  0  0  0
   -1.8705   -5.0255   -0.4438 F   0  0  0  0  0  0  0  0  0  0  0  0
    4.7247    0.3933   -0.4660 C   0  0  0  0  0  0  0  0  0  0  0  0
    5.0118    1.6831    0.0523 C   0  0  0  0  0  0  0  0  0  0  0  0
    6.2436    2.0121    0.5602 C   0  0  0  0  0  0  0  0  0  0  0  0
    7.2219    1.0443    0.5589 C   0  0  0  0  0  0  0  0  0  0  0  0
    6.9673   -0.2148    0.0596 C   0  0  0  0  0  0  0  0  0  0  0  0
    5.7210   -0.4944   -0.4390 N   0  0  0  0  0  0  0  0  0  0  0  0
    6.5484    3.3027    1.0929 C   0  0  0  0  0  0  0  0  0  0  0  0
    6.7737    4.3566    1.5216 N   0  0  0  0  0  0  0  0  0  0  0  0
    0.6719    0.3341    1.9658 H   0  0  0  0  0  0  0  0  0  0  0  0
    1.5732   -1.0820    2.5035 H   0  0  0  0  0  0  0  0  0  0  0  0
    0.0333   -1.3821    1.6726 H   0  0  0  0  0  0  0  0  0  0  0  0
    2.4999   -1.5268    0.4325 H   0  0  0  0  0  0  0  0  0  0  0  0
    1.6834    1.1959   -0.5888 H   0  0  0  0  0  0  0  0  0  0  0  0
    2.7411    1.0684    0.9178 H   0  0  0  0  0  0  0  0  0  0  0  0
    3.6845   -1.5329   -2.1223 H   0  0  0  0  0  0  0  0  0  0  0  0
    3.1519   -0.0164   -2.9780 H   0  0  0  0  0  0  0  0  0  0  0  0
    1.5984   -2.1796   -2.3802 H   0  0  0  0  0  0  0  0  0  0  0  0
    1.0078   -0.5878   -2.8486 H   0  0  0  0  0  0  0  0  0  0  0  0
   -0.3892   -3.4231   -0.6241 H   0  0  0  0  0  0  0  0  0  0  0  0
   -4.8305   -0.0240   -1.5352 H   0  0  0  0  0  0  0  0  0  0  0  0
   -4.0440    1.5312   -1.8519 H   0  0  0  0  0  0  0  0  0  0  0  0
   -6.6533    1.1715   -0.9558 H   0  0  0  0  0  0  0  0  0  0  0  0
   -5.8148    2.7006   -1.1565 H   0  0  0  0  0  0  0  0  0  0  0  0
   -5.1238    0.3210    1.9211 H   0  0  0  0  0  0  0  0  0  0  0  0
   -4.9667    1.9459    2.7226 H   0  0  0  0  0  0  0  0  0  0  0  0
   -2.7270    1.1524    1.8436 H   0  0  0  0  0  0  0  0  0  0  0  0
   -3.4202    2.5585    0.8421 H   0  0  0  0  0  0  0  0  0  0  0  0
    4.2141    2.3960    0.0243 H   0  0  0  0  0  0  0  0  0  0  0  0
    8.2373    1.2332    0.9459 H   0  0  0  0  0  0  0  0  0  0  0  0
    7.7633   -0.9509    0.0852 H   0  0  0  0  0  0  0  0  0  0  0  0
  1  2  1  0
  2  3  1  0
  3  4  1  0
  4  5  1  0
  5  6  1  0
  6  7  1  0
  7  8  1  0
  8  9  2  0
  9 10  1  0
 10 11  2  0
 11 12  1  0
 12 13  2  0
 12 14  1  0
 14 15  1  0
 15 16  1  0
 16 17  1  0
 17 18  1  0
 17 19  1  0
 17 20  1  0
 20 21  1  0
 10 22  1  0
 22 23  1  0
 22 24  1  0
 22 25  1  0
  4 26  1  0
 26 27  2  0
 27 28  1  0
 28 29  2  0
 29 30  1  0
 30 31  2  0
 28 32  1  0
 32 33  3  0
  7  2  1  0
 13  8  1  0
 21 14  1  0
 31 26  1  0
  1 34  1  0
  1 35  1  0
  1 36  1  0
  2 37  1  1
  3 38  1  0
  3 39  1  0
  5 40  1  0
  5 41  1  0
  6 42  1  0
  6 43  1  0
  9 44  1  0
 15 45  1  0
 15 46  1  0
 16 47  1  0
 16 48  1  0
 20 49  1  0
 20 50  1  0
 21 51  1  0
 21 52  1  0
 27 53  1  0
 29 54  1  0
 30 55  1  0
M  END
$$$$
[H]c1c([H])c(N([H])C(=O)N([H])c2c([H])c([H])c(N3C([H])([H])C([H])([H])OC([H])([H])C3([H])[H])c([H])c2[H])c([H])c([H])c1-c1nc(N2C([H])([H])C([H])([H])OC([H])([H])C2([H])[H])nc(N2C([H])([H])C([H])([H])OC([H])([H])[C@@]2([H])C([H])([H])[H])n1
     RDKit          3D

 77 82  0  0  0  0  0  0  0  0999 V2000
   -8.3131    0.8893    0.7185 C   0  0  0  0  0  0  0  0  0  0  0  0
   -7.5933    2.1728    0.9016 C   0  0  2  0  0  0  0  0  0  0  0  0
   -7.8052    3.1183   -0.2820 C   0  0  0  0  0  0  0  0  0  0  0  0
   -6.7928    4.0747   -0.3059 O   0  0  0  0  0  0  0  0  0  0  0  0
   -6.2971    4.4090    0.9480 C   0  0  0  0  0  0  0  0  0  0  0  0
   -5.5225    3.2578    1.6032 C   0  0  0  0  0  0  0  0  0  0  0  0
   -6.1515    2.0611    1.0076 N   0  0  0  0  0  0  0  0  0  0  0  0
   -5.3926    0.9553    0.5487 C   0  0  0  0  0  0  0  0  0  0  0  0
   -5.9369   -0.0182   -0.2076 N   0  0  0  0  0  0  0  0  0  0  0  0
   -5.2547   -1.0693   -0.6912 C   0  0  0  0  0  0  0  0  0  0  0  0
   -3.9522   -1.1110   -0.3760 N   0  0  0  0  0  0  0  0  0  0  0  0
   -3.3365   -0.1783    0.3718 C   0  0  0  0  0  0  0  0  0  0  0  0
   -4.0784    0.8469    0.8250 N   0  0  0  0  0  0  0  0  0  0  0  0
   -1.9173   -0.2888    0.5658 C   0  0  0  0  0  0  0  0  0  0  0  0
   -1.1782   -1.1987   -0.1608 C   0  0  0  0  0  0  0  0  0  0  0  0
    0.1668   -1.3192   -0.0305 C   0  0  0  0  0  0  0  0  0  0  0  0
    0.8588   -0.4736    0.8951 C   0  0  0  0  0  0  0  0  0  0  0  0
    2.1674   -0.4995    0.9481 N   0  0  0  0  0  0  0  0  0  0  0  0
    3.5235   -0.5301    1.0123 C   0  0  0  0  0  0  0  0  0  0  0  0
    4.2328   -0.9273    1.9658 O   0  0  0  0  0  0  0  0  0  0  0  0
    4.2595   -0.0524   -0.1380 N   0  0  0  0  0  0  0  0  0  0  0  0
    5.6617   -0.0250   -0.1327 C   0  0  0  0  0  0  0  0  0  0  0  0
    6.3142   -0.3619   -1.2925 C   0  0  0  0  0  0  0  0  0  0  0  0
    7.6934   -0.2809   -1.3419 C   0  0  0  0  0  0  0  0  0  0  0  0
    8.4465    0.1395   -0.2332 C   0  0  0  0  0  0  0  0  0  0  0  0
    7.7676    0.4645    0.9010 C   0  0  0  0  0  0  0  0  0  0  0  0
    6.3591    0.3832    0.9598 C   0  0  0  0  0  0  0  0  0  0  0  0
    9.8385    0.2220   -0.3682 N   0  0  0  0  0  0  0  0  0  0  0  0
   10.5085   -0.2641   -1.5504 C   0  0  0  0  0  0  0  0  0  0  0  0
   11.8904    0.4050   -1.5838 C   0  0  0  0  0  0  0  0  0  0  0  0
   12.6522    0.1047   -0.4876 O   0  0  0  0  0  0  0  0  0  0  0  0
   12.0161    0.1280    0.7262 C   0  0  0  0  0  0  0  0  0  0  0  0
   10.6622    0.8114    0.6511 C   0  0  0  0  0  0  0  0  0  0  0  0
    0.1087    0.4406    1.6322 C   0  0  0  0  0  0  0  0  0  0  0  0
   -1.2612    0.5124    1.4487 C   0  0  0  0  0  0  0  0  0  0  0  0
   -5.8281   -2.0877   -1.4795 N   0  0  0  0  0  0  0  0  0  0  0  0
   -7.0332   -1.9626   -2.2799 C   0  0  0  0  0  0  0  0  0  0  0  0
   -8.0179   -2.9674   -1.6633 C   0  0  0  0  0  0  0  0  0  0  0  0
   -7.4591   -4.2109   -1.5343 O   0  0  0  0  0  0  0  0  0  0  0  0
   -6.3077   -4.2747   -0.7609 C   0  0  0  0  0  0  0  0  0  0  0  0
   -5.2442   -3.4449   -1.5187 C   0  0  0  0  0  0  0  0  0  0  0  0
   -7.9356    0.1037    1.4094 H   0  0  0  0  0  0  0  0  0  0  0  0
   -9.3736    1.0727    1.0900 H   0  0  0  0  0  0  0  0  0  0  0  0
   -8.4416    0.5695   -0.3212 H   0  0  0  0  0  0  0  0  0  0  0  0
   -7.9656    2.6545    1.8459 H   0  0  0  0  0  0  0  0  0  0  0  0
   -7.6365    2.4624   -1.1899 H   0  0  0  0  0  0  0  0  0  0  0  0
   -8.8153    3.5078   -0.3012 H   0  0  0  0  0  0  0  0  0  0  0  0
   -5.5694    5.2267    0.8116 H   0  0  0  0  0  0  0  0  0  0  0  0
   -7.0911    4.7718    1.6229 H   0  0  0  0  0  0  0  0  0  0  0  0
   -5.7716    3.2578    2.6610 H   0  0  0  0  0  0  0  0  0  0  0  0
   -4.4635    3.3490    1.3336 H   0  0  0  0  0  0  0  0  0  0  0  0
   -1.7166   -1.8302   -0.8620 H   0  0  0  0  0  0  0  0  0  0  0  0
    0.7832   -2.0128   -0.5758 H   0  0  0  0  0  0  0  0  0  0  0  0
    2.1000   -1.1027    2.1987 H   0  0  0  0  0  0  0  0  0  0  0  0
    3.6905    0.2776   -0.9646 H   0  0  0  0  0  0  0  0  0  0  0  0
    5.7420   -0.6854   -2.1409 H   0  0  0  0  0  0  0  0  0  0  0  0
    8.1590   -0.5534   -2.2570 H   0  0  0  0  0  0  0  0  0  0  0  0
    8.2997    0.7838    1.7769 H   0  0  0  0  0  0  0  0  0  0  0  0
    5.9245    0.6740    1.8960 H   0  0  0  0  0  0  0  0  0  0  0  0
   10.5924   -1.3540   -1.5694 H   0  0  0  0  0  0  0  0  0  0  0  0
   10.0215    0.0792   -2.4990 H   0  0  0  0  0  0  0  0  0  0  0  0
   12.4427    0.0299   -2.4758 H   0  0  0  0  0  0  0  0  0  0  0  0
   11.7335    1.4844   -1.6848 H   0  0  0  0  0  0  0  0  0  0  0  0
   12.6278    0.6944    1.4464 H   0  0  0  0  0  0  0  0  0  0  0  0
   11.8472   -0.8857    1.1574 H   0  0  0  0  0  0  0  0  0  0  0  0
   10.2235    0.7193    1.6513 H   0  0  0  0  0  0  0  0  0  0  0  0
   10.8094    1.8865    0.3895 H   0  0  0  0  0  0  0  0  0  0  0  0
    0.6291    1.0642    2.3281 H   0  0  0  0  0  0  0  0  0  0  0  0
   -1.8247    1.2364    2.0330 H   0  0  0  0  0  0  0  0  0  0  0  0
   -7.4643   -0.9684   -2.3224 H   0  0  0  0  0  0  0  0  0  0  0  0
   -6.7712   -2.3741   -3.2910 H   0  0  0  0  0  0  0  0  0  0  0  0
   -8.9258   -3.0669   -2.2754 H   0  0  0  0  0  0  0  0  0  0  0  0
   -8.2759   -2.5735   -0.6586 H   0  0  0  0  0  0  0  0  0  0  0  0
   -6.4694   -3.7500    0.2143 H   0  0  0  0  0  0  0  0  0  0  0  0
   -6.0095   -5.3240   -0.6441 H   0  0  0  0  0  0  0  0  0  0  0  0
   -4.2701   -3.5001   -1.0309 H   0  0  0  0  0  0  0  0  0  0  0  0
   -5.2888   -3.7744   -2.5604 H   0  0  0  0  0  0  0  0  0  0  0  0
  1  2  1  0
  2  3  1  0
  3  4  1  0
  4  5  1  0
  5  6  1  0
  6  7  1  0
  7  8  1  0
  8  9  2  0
  9 10  1  0
 10 11  2  0
 11 12  1  0
 12 13  2  0
 12 14  1  0
 14 15  2  0
 15 16  1  0
 16 17  2  0
 17 18  1  0
 18 19  1  0
 19 20  2  0
 19 21  1  0
 21 22  1  0
 22 23  2  0
 23 24  1  0
 24 25  2  0
 25 26  1  0
 26 27  2  0
 25 28  1  0
 28 29  1  0
 29 30  1  0
 30 31  1  0
 31 32  1  0
 32 33  1  0
 17 34  1  0
 34 35  2  0
 10 36  1  0
 36 37  1  0
 37 38  1  0
 38 39  1  0
 39 40  1  0
 40 41  1  0
  7  2  1  0
 13  8  1  0
 35 14  1  0
 41 36  1  0
 27 22  1  0
 33 28  1  0
  1 42  1  0
  1 43  1  0
  1 44  1  0
  2 45  1  1
  3 46  1  0
  3 47  1  0
  5 48  1  0
  5 49  1  0
  6 50  1  0
  6 51  1  0
 15 52  1  0
 16 53  1  0
 18 54  1  0
 21 55  1  0
 23 56  1  0
 24 57  1  0
 26 58  1  0
 27 59  1  0
 29 60  1  0
 29 61  1  0
 30 62  1  0
 30 63  1  0
 32 64  1  0
 32 65  1  0
 33 66  1  0
 33 67  1  0
 34 68  1  0
 35 69  1  0
 37 70  1  0
 37 71  1  0
 38 72  1  0
 38 73  1  0
 40 74  1  0
 40 75  1  0
 41 76  1  0
 41 77  1  0
M  END
$$$$
[H]c1c([H])c(C(F)(F)F)c([H])c(C([H])([H])Oc2c([H])c([H])c3c(C([H])([H])[H])c(C([H])([H])[H])c(=O)oc3c2[H])c1[H]
     RDKit          3D

 40 42  0  0  0  0  0  0  0  0999 V2000
   -5.0803   -0.1947   -1.3925 C   0  0  0  0  0  0  0  0  0  0  0  0
   -4.2134    0.3478   -0.3242 C   0  0  0  0  0  0  0  0  0  0  0  0
   -4.7515    1.2417    0.5791 C   0  0  0  0  0  0  0  0  0  0  0  0
   -6.1591    1.7165    0.5914 C   0  0  0  0  0  0  0  0  0  0  0  0
   -3.8817    1.7608    1.5466 C   0  0  0  0  0  0  0  0  0  0  0  0
   -4.3562    2.5849    2.3910 O   0  0  0  0  0  0  0  0  0  0  0  0
   -2.6249    1.4183    1.5942 O   0  0  0  0  0  0  0  0  0  0  0  0
   -2.1099    0.5625    0.7327 C   0  0  0  0  0  0  0  0  0  0  0  0
   -0.7619    0.2267    0.8419 C   0  0  0  0  0  0  0  0  0  0  0  0
   -0.2262   -0.6771   -0.0569 C   0  0  0  0  0  0  0  0  0  0  0  0
    1.1162   -1.0326    0.0199 O   0  0  0  0  0  0  0  0  0  0  0  0
    1.9191   -0.4567    1.0284 C   0  0  0  0  0  0  0  0  0  0  0  0
    3.3274   -0.8384    0.6898 C   0  0  0  0  0  0  0  0  0  0  0  0
    3.6843   -2.1008    0.3696 C   0  0  0  0  0  0  0  0  0  0  0  0
    4.9868   -2.3434   -0.0576 C   0  0  0  0  0  0  0  0  0  0  0  0
    5.8903   -1.3006   -0.1493 C   0  0  0  0  0  0  0  0  0  0  0  0
    5.4987   -0.0243    0.1843 C   0  0  0  0  0  0  0  0  0  0  0  0
    4.2293    0.2264    0.6060 C   0  0  0  0  0  0  0  0  0  0  0  0
    6.4098    1.1756    0.1065 C   0  0  0  0  0  0  0  0  0  0  0  0
    5.7765    2.1279   -0.6958 F   0  0  0  0  0  0  0  0  0  0  0  0
    6.5317    1.6558    1.3859 F   0  0  0  0  0  0  0  0  0  0  0  0
    7.6054    0.8602   -0.4868 F   0  0  0  0  0  0  0  0  0  0  0  0
   -1.0101   -1.2591   -1.0690 C   0  0  0  0  0  0  0  0  0  0  0  0
   -2.3333   -0.9294   -1.1782 C   0  0  0  0  0  0  0  0  0  0  0  0
   -2.8699   -0.0201   -0.2711 C   0  0  0  0  0  0  0  0  0  0  0  0
   -4.9482    0.3700   -2.3512 H   0  0  0  0  0  0  0  0  0  0  0  0
   -4.8985   -1.2899   -1.5615 H   0  0  0  0  0  0  0  0  0  0  0  0
   -6.1597   -0.1317   -1.1498 H   0  0  0  0  0  0  0  0  0  0  0  0
   -6.3575    2.1330    1.6141 H   0  0  0  0  0  0  0  0  0  0  0  0
   -6.8986    0.9795    0.3049 H   0  0  0  0  0  0  0  0  0  0  0  0
   -6.1844    2.5428   -0.1910 H   0  0  0  0  0  0  0  0  0  0  0  0
   -0.1640    0.7031    1.6342 H   0  0  0  0  0  0  0  0  0  0  0  0
    1.6403   -0.8606    2.0380 H   0  0  0  0  0  0  0  0  0  0  0  0
    1.7916    0.6371    0.9901 H   0  0  0  0  0  0  0  0  0  0  0  0
    2.9579   -2.9249    0.4446 H   0  0  0  0  0  0  0  0  0  0  0  0
    5.2590   -3.3398   -0.3109 H   0  0  0  0  0  0  0  0  0  0  0  0
    6.9013   -1.4353   -0.4826 H   0  0  0  0  0  0  0  0  0  0  0  0
    3.9099    1.2100    0.8825 H   0  0  0  0  0  0  0  0  0  0  0  0
   -0.4954   -1.9638   -1.7063 H   0  0  0  0  0  0  0  0  0  0  0  0
   -2.9507   -1.3576   -1.9187 H   0  0  0  0  0  0  0  0  0  0  0  0
  1  2  1  0
  2  3  2  0
  3  4  1  0
  3  5  1  0
  5  6  2  0
  5  7  1  0
  7  8  1  0
  8  9  2  0
  9 10  1  0
 10 11  1  0
 11 12  1  0
 12 13  1  0
 13 14  2  0
 14 15  1  0
 15 16  2  0
 16 17  1  0
 17 18  2  0
 17 19  1  0
 19 20  1  0
 19 21  1  0
 19 22  1  0
 10 23  2  0
 23 24  1  0
 24 25  2  0
 25  2  1  0
 25  8  1  0
 18 13  1  0
  1 26  1  0
  1 27  1  0
  1 28  1  0
  4 29  1  0
  4 30  1  0
  4 31  1  0
  9 32  1  0
 12 33  1  0
 12 34  1  0
 14 35  1  0
 15 36  1  0
 16 37  1  0
 18 38  1  0
 23 39  1  0
 24 40  1  0
M  END
$$$$
[H]c1c([H])c(S(=O)(=O)N([H])[H])c([H])c([H])c1N([H])c1nc(N([H])C([H])(C([H])([H])[H])C([H])([H])[H])c2c([H])c([H])n([H])c2n1
     RDKit          3D

 42 44  0  0  0  0  0  0  0  0999 V2000
   -3.5112    2.6941    0.8580 C   0  0  0  0  0  0  0  0  0  0  0  0
   -4.1970    1.4089    1.2184 C   0  0  0  0  0  0  0  0  0  0  0  0
   -5.6767    1.5890    1.4555 C   0  0  0  0  0  0  0  0  0  0  0  0
   -3.9956    0.3624    0.2378 N   0  0  0  0  0  0  0  0  0  0  0  0
   -2.7079   -0.1306   -0.1006 C   0  0  0  0  0  0  0  0  0  0  0  0
   -1.5870    0.3412    0.4668 N   0  0  0  0  0  0  0  0  0  0  0  0
   -0.3418   -0.1138    0.1604 C   0  0  0  0  0  0  0  0  0  0  0  0
    0.7943    0.4067    0.7983 N   0  0  0  0  0  0  0  0  0  0  0  0
    2.1494    0.0678    0.6026 C   0  0  0  0  0  0  0  0  0  0  0  0
    3.0816    0.4583    1.5798 C   0  0  0  0  0  0  0  0  0  0  0  0
    4.4199    0.2057    1.5000 C   0  0  0  0  0  0  0  0  0  0  0  0
    4.9184   -0.4703    0.4094 C   0  0  0  0  0  0  0  0  0  0  0  0
    4.0460   -0.8720   -0.5717 C   0  0  0  0  0  0  0  0  0  0  0  0
    2.6740   -0.6008   -0.4682 C   0  0  0  0  0  0  0  0  0  0  0  0
    6.6371   -0.7835    0.3292 S   0  0  0  0  0  0  0  0  0  0  0  0
    7.3819    0.5306   -0.4678 N   0  0  0  0  0  0  0  0  0  0  0  0
    6.9266   -2.0924   -0.3441 O   0  0  0  0  0  0  0  0  0  0  0  0
    7.1772   -0.8474    1.7373 O   0  0  0  0  0  0  0  0  0  0  0  0
   -0.3002   -1.0798   -0.7597 N   0  0  0  0  0  0  0  0  0  0  0  0
   -1.3559   -1.6123   -1.3786 C   0  0  0  0  0  0  0  0  0  0  0  0
   -1.5363   -2.5635   -2.3076 N   0  0  0  0  0  0  0  0  0  0  0  0
   -2.8415   -2.7127   -2.5855 C   0  0  0  0  0  0  0  0  0  0  0  0
   -3.5336   -1.8260   -1.8086 C   0  0  0  0  0  0  0  0  0  0  0  0
   -2.6208   -1.1276   -1.0457 C   0  0  0  0  0  0  0  0  0  0  0  0
   -4.2422    3.5143    0.9967 H   0  0  0  0  0  0  0  0  0  0  0  0
   -3.2039    2.6748   -0.2054 H   0  0  0  0  0  0  0  0  0  0  0  0
   -2.6384    2.8748    1.5283 H   0  0  0  0  0  0  0  0  0  0  0  0
   -3.7665    1.0399    2.1954 H   0  0  0  0  0  0  0  0  0  0  0  0
   -6.2322    1.2198    0.5464 H   0  0  0  0  0  0  0  0  0  0  0  0
   -5.9272    2.6755    1.5661 H   0  0  0  0  0  0  0  0  0  0  0  0
   -6.0168    1.0149    2.3160 H   0  0  0  0  0  0  0  0  0  0  0  0
   -4.8240   -0.0396   -0.2331 H   0  0  0  0  0  0  0  0  0  0  0  0
    0.5777    1.1702    1.5289 H   0  0  0  0  0  0  0  0  0  0  0  0
    2.6974    0.9816    2.4267 H   0  0  0  0  0  0  0  0  0  0  0  0
    5.1242    0.5220    2.2771 H   0  0  0  0  0  0  0  0  0  0  0  0
    4.4323   -1.4067   -1.4367 H   0  0  0  0  0  0  0  0  0  0  0  0
    2.0406   -0.9306   -1.2761 H   0  0  0  0  0  0  0  0  0  0  0  0
    6.7674    1.3663   -0.4785 H   0  0  0  0  0  0  0  0  0  0  0  0
    7.8049    0.2933   -1.3839 H   0  0  0  0  0  0  0  0  0  0  0  0
   -0.7200   -3.0928   -2.7296 H   0  0  0  0  0  0  0  0  0  0  0  0
   -3.2545   -3.4253   -3.3101 H   0  0  0  0  0  0  0  0  0  0  0  0
   -4.6193   -1.6844   -1.7854 H   0  0  0  0  0  0  0  0  0  0  0  0
  1  2  1  0
  2  3  1  0
  2  4  1  0
  4  5  1  0
  5  6  2  0
  6  7  1  0
  7  8  1  0
  8  9  1  0
  9 10  2  0
 10 11  1  0
 11 12  2  0
 12 13  1  0
 13 14  2  0
 12 15  1  0
 15 16  1  0
 15 17  2  0
 15 18  2  0
  7 19  2  0
 19 20  1  0
 20 21  1  0
 21 22  1  0
 22 23  2  0
 23 24  1  0
 24  5  1  0
 14  9  1  0
 24 20  2  0
  1 25  1  0
  1 26  1  0
  1 27  1  0
  2 28  1  0
  3 29  1  0
  3 30  1  0
  3 31  1  0
  4 32  1  0
  8 33  1  0
 10 34  1  0
 11 35  1  0
 13 36  1  0
 14 37  1  0
 16 38  1  0
 16 39  1  0
 21 40  1  0
 22 41  1  0
 23 42  1  0
M  END
$$$$
[H]C#C[C@]1(O[H])C([H])([H])C([H])([H])[C@]2([H])[C@]1(C([H])([H])[H])C([H])([H])C([H])([H])[C@]1([H])[C@]3(C([H])([H])[H])C(=C([H])C([H])([H])[C@@]21[H])C([H])([H])[C@@]([H])(O[H])C([H])([H])C3([H])[H]
     RDKit          3D

 53 56  0  0  0  0  0  0  0  0999 V2000
   -2.2868    0.7680    1.7014 C   0  0  0  0  0  0  0  0  0  0  0  0
   -2.4679    0.1118    0.3730 C   0  0  2  0  0  0  0  0  0  0  0  0
   -1.9981   -1.3214    0.3525 C   0  0  0  0  0  0  0  0  0  0  0  0
   -0.5055   -1.4331    0.4890 C   0  0  0  0  0  0  0  0  0  0  0  0
    0.2580   -0.5155   -0.4435 C   0  0  1  0  0  0  0  0  0  0  0  0
   -0.2836    0.8977   -0.3715 C   0  0  1  0  0  0  0  0  0  0  0  0
    0.4910    1.8219   -1.2492 C   0  0  0  0  0  0  0  0  0  0  0  0
    1.9258    1.7241   -0.8970 C   0  0  0  0  0  0  0  0  0  0  0  0
    2.4782    0.6512   -0.3954 C   0  0  0  0  0  0  0  0  0  0  0  0
    3.9197    0.6631   -0.0817 C   0  0  0  0  0  0  0  0  0  0  0  0
    4.6227   -0.5387   -0.6567 C   0  0  1  0  0  0  0  0  0  0  0  0
    5.7613   -0.7684    0.1278 O   0  0  0  0  0  0  0  0  0  0  0  0
    3.8280   -1.7946   -0.6861 C   0  0  0  0  0  0  0  0  0  0  0  0
    2.3717   -1.6271   -1.0467 C   0  0  0  0  0  0  0  0  0  0  0  0
    1.7144   -0.5724   -0.1329 C   0  0  2  0  0  0  0  0  0  0  0  0
    1.9771   -0.9642    1.3156 C   0  0  0  0  0  0  0  0  0  0  0  0
   -1.7358    0.8149   -0.7450 C   0  0  2  0  0  0  0  0  0  0  0  0
   -2.4553    2.1025   -0.8424 C   0  0  0  0  0  0  0  0  0  0  0  0
   -3.8943    1.7245   -0.5786 C   0  0  0  0  0  0  0  0  0  0  0  0
   -3.8830    0.2803   -0.0664 C   0  0  2  0  0  0  0  0  0  0  0  0
   -4.7310    0.1873    1.0325 O   0  0  0  0  0  0  0  0  0  0  0  0
   -4.2427   -0.6364   -1.1304 C   0  0  0  0  0  0  0  0  0  0  0  0
   -4.5601   -1.3914   -2.0261 C   0  0  0  0  0  0  0  0  0  0  0  0
   -1.5363    0.2293    2.3259 H   0  0  0  0  0  0  0  0  0  0  0  0
   -2.0108    1.8354    1.6490 H   0  0  0  0  0  0  0  0  0  0  0  0
   -3.2364    0.7380    2.3129 H   0  0  0  0  0  0  0  0  0  0  0  0
   -2.4468   -1.8281    1.2316 H   0  0  0  0  0  0  0  0  0  0  0  0
   -2.3749   -1.8432   -0.5463 H   0  0  0  0  0  0  0  0  0  0  0  0
   -0.2252   -2.4708    0.2176 H   0  0  0  0  0  0  0  0  0  0  0  0
   -0.1858   -1.2944    1.5532 H   0  0  0  0  0  0  0  0  0  0  0  0
    0.0728   -0.9231   -1.4808 H   0  0  0  0  0  0  0  0  0  0  0  0
   -0.1354    1.2339    0.6828 H   0  0  0  0  0  0  0  0  0  0  0  0
    0.3080    1.6580   -2.3315 H   0  0  0  0  0  0  0  0  0  0  0  0
    0.1229    2.8586   -1.0359 H   0  0  0  0  0  0  0  0  0  0  0  0
    2.5114    2.6466   -1.0940 H   0  0  0  0  0  0  0  0  0  0  0  0
    4.4113    1.5694   -0.5486 H   0  0  0  0  0  0  0  0  0  0  0  0
    4.1441    0.7074    1.0036 H   0  0  0  0  0  0  0  0  0  0  0  0
    5.0320   -0.2622   -1.6726 H   0  0  0  0  0  0  0  0  0  0  0  0
    5.9498   -1.7177    0.2642 H   0  0  0  0  0  0  0  0  0  0  0  0
    4.2682   -2.4641   -1.4552 H   0  0  0  0  0  0  0  0  0  0  0  0
    3.9328   -2.3643    0.2825 H   0  0  0  0  0  0  0  0  0  0  0  0
    2.3300   -1.1992   -2.0694 H   0  0  0  0  0  0  0  0  0  0  0  0
    1.8851   -2.5972   -0.9632 H   0  0  0  0  0  0  0  0  0  0  0  0
    1.5087   -0.2540    2.0008 H   0  0  0  0  0  0  0  0  0  0  0  0
    1.6982   -2.0339    1.5070 H   0  0  0  0  0  0  0  0  0  0  0  0
    3.0717   -0.9348    1.4876 H   0  0  0  0  0  0  0  0  0  0  0  0
   -1.8284    0.1954   -1.6527 H   0  0  0  0  0  0  0  0  0  0  0  0
   -2.3888    2.5100   -1.8611 H   0  0  0  0  0  0  0  0  0  0  0  0
   -2.0734    2.8540   -0.1277 H   0  0  0  0  0  0  0  0  0  0  0  0
   -4.4797    1.7202   -1.5417 H   0  0  0  0  0  0  0  0  0  0  0  0
   -4.3649    2.4073    0.1586 H   0  0  0  0  0  0  0  0  0  0  0  0
   -5.4273    0.9069    0.9343 H   0  0  0  0  0  0  0  0  0  0  0  0
   -4.8368   -2.0676   -2.8030 H   0  0  0  0  0  0  0  0  0  0  0  0
  2  1  1  1
  2  3  1  0
  3  4  1  0
  4  5  1  0
  5  6  1  0
  6  7  1  0
  7  8  1  0
  8  9  2  0
  9 10  1  0
 10 11  1  0
 11 12  1  0
 11 13  1  0
 13 14  1  0
 14 15  1  0
 15 16  1  1
  6 17  1  0
 17 18  1  0
 18 19  1  0
 19 20  1  0
 20 21  1  0
 20 22  1  6
 22 23  3  0
 17  2  1  0
 20  2  1  0
 15  5  1  0
 15  9  1  0
  1 24  1  0
  1 25  1  0
  1 26  1  0
  3 27  1  0
  3 28  1  0
  4 29  1  0
  4 30  1  0
  5 31  1  6
  6 32  1  1
  7 33  1  0
  7 34  1  0
  8 35  1  0
 10 36  1  0
 10 37  1  0
 11 38  1  6
 12 39  1  0
 13 40  1  0
 13 41  1  0
 14 42  1  0
 14 43  1  0
 16 44  1  0
 16 45  1  0
 16 46  1  0
 17 47  1  6
 18 48  1  0
 18 49  1  0
 19 50  1  0
 19 51  1  0
 21 52  1  0
 23 53  1  0
M  END
$$$$
[H]Oc1c([H])c(C([H])([H])[H])c2c(oc(=O)c3c(O[H])c([H])c(OC([H])([H])[H])c([H])c32)c1O[H]
     RDKit          3D

 33 35  0  0  0  0  0  0  0  0999 V2000
    3.9081   -1.4397   -0.4085 C   0  0  0  0  0  0  0  0  0  0  0  0
    3.8448   -0.0424   -0.2785 O   0  0  0  0  0  0  0  0  0  0  0  0
    2.6523    0.6233   -0.1303 C   0  0  0  0  0  0  0  0  0  0  0  0
    2.6105    1.9874   -0.0049 C   0  0  0  0  0  0  0  0  0  0  0  0
    1.4370    2.6660    0.1428 C   0  0  0  0  0  0  0  0  0  0  0  0
    1.3731    4.0551    0.2718 O   0  0  0  0  0  0  0  0  0  0  0  0
    0.2682    1.9415    0.1647 C   0  0  0  0  0  0  0  0  0  0  0  0
    0.2805    0.5484    0.0395 C   0  0  0  0  0  0  0  0  0  0  0  0
    1.4558   -0.1263   -0.1089 C   0  0  0  0  0  0  0  0  0  0  0  0
   -0.9249   -0.1348    0.0620 C   0  0  0  0  0  0  0  0  0  0  0  0
   -0.9599   -1.4952   -0.0541 C   0  0  0  0  0  0  0  0  0  0  0  0
    0.1738   -2.3777   -0.1851 C   0  0  0  0  0  0  0  0  0  0  0  0
   -2.2594   -2.0742   -0.0181 C   0  0  0  0  0  0  0  0  0  0  0  0
   -3.4034   -1.3403    0.1230 C   0  0  0  0  0  0  0  0  0  0  0  0
   -4.6452   -1.9473    0.1526 O   0  0  0  0  0  0  0  0  0  0  0  0
   -3.3156    0.0109    0.2360 C   0  0  0  0  0  0  0  0  0  0  0  0
   -4.4509    0.7932    0.3813 O   0  0  0  0  0  0  0  0  0  0  0  0
   -2.0864    0.6288    0.2076 C   0  0  0  0  0  0  0  0  0  0  0  0
   -2.0471    1.9427    0.3214 O   0  0  0  0  0  0  0  0  0  0  0  0
   -0.9422    2.6147    0.3066 C   0  0  0  0  0  0  0  0  0  0  0  0
   -0.9260    3.8544    0.4160 O   0  0  0  0  0  0  0  0  0  0  0  0
    3.3644   -1.9641    0.4174 H   0  0  0  0  0  0  0  0  0  0  0  0
    4.9476   -1.8210   -0.3623 H   0  0  0  0  0  0  0  0  0  0  0  0
    3.4139   -1.7501   -1.3534 H   0  0  0  0  0  0  0  0  0  0  0  0
    3.5185    2.5673   -0.0196 H   0  0  0  0  0  0  0  0  0  0  0  0
    2.1633    4.6553    0.2669 H   0  0  0  0  0  0  0  0  0  0  0  0
    1.6154   -1.1341   -0.2232 H   0  0  0  0  0  0  0  0  0  0  0  0
    0.6370   -2.5039   -1.1871 H   0  0  0  0  0  0  0  0  0  0  0  0
    0.7987   -2.5834    0.7157 H   0  0  0  0  0  0  0  0  0  0  0  0
   -0.2937   -3.4423   -0.1810 H   0  0  0  0  0  0  0  0  0  0  0  0
   -2.3326   -3.1543   -0.1094 H   0  0  0  0  0  0  0  0  0  0  0  0
   -5.4554   -1.3586    0.2585 H   0  0  0  0  0  0  0  0  0  0  0  0
   -4.4204    1.8005    0.4679 H   0  0  0  0  0  0  0  0  0  0  0  0
  1  2  1  0
  2  3  1  0
  3  4  2  0
  4  5  1  0
  5  6  1  0
  5  7  2  0
  7  8  1  0
  8  9  2  0
  8 10  1  0
 10 11  2  0
 11 12  1  0
 11 13  1  0
 13 14  2  0
 14 15  1  0
 14 16  1  0
 16 17  1  0
 16 18  2  0
 18 19  1  0
 19 20  1  0
 20 21  2  0
  9  3  1  0
 18 10  1  0
 20  7  1  0
  1 22  1  0
  1 23  1  0
  1 24  1  0
  4 25  1  0
  6 26  1  0
  9 27  1  0
 12 28  1  0
 12 29  1  0
 12 30  1  0
 13 31  1  0
 15 32  1  0
 17 33  1  0
M  END
$$$$
[H]OC(=O)C([H])([H])[C@@]([H])(C(=O)N([H])[C@]([H])(C(=O)N([H])[C@]([H])(C(=O)O[H])C([H])([H])c1c([H])c([H])c([H])c([H])c1[H])C([H])([H])C([H])(C([H])([H])[H])C([H])([H])[H])N([H])C(=O)[C@]([H])(c1c([H])c([H])c([H])c([H])c1[H])C([H])([H])[H]
     RDKit          3D

 73 74  0  0  0  0  0  0  0  0999 V2000
    1.2864   -4.4365   -2.0289 C   0  0  0  0  0  0  0  0  0  0  0  0
    1.1694   -2.8953   -1.9876 C   0  0  0  0  0  0  0  0  0  0  0  0
    2.2952   -2.3984   -2.8186 C   0  0  0  0  0  0  0  0  0  0  0  0
    1.1470   -2.5417   -0.5616 C   0  0  0  0  0  0  0  0  0  0  0  0
    1.0316   -1.0959   -0.1868 C   0  0  2  0  0  0  0  0  0  0  0  0
   -0.1477   -0.4571   -0.6842 N   0  0  0  0  0  0  0  0  0  0  0  0
   -1.3674   -0.3539    0.0191 C   0  0  0  0  0  0  0  0  0  0  0  0
   -1.4542   -0.8578    1.1514 O   0  0  0  0  0  0  0  0  0  0  0  0
   -2.5840    0.3402   -0.5341 C   0  0  2  0  0  0  0  0  0  0  0  0
   -2.3264    1.7823   -0.7846 C   0  0  0  0  0  0  0  0  0  0  0  0
   -3.5314    2.4381   -1.3198 C   0  0  0  0  0  0  0  0  0  0  0  0
   -3.4781    3.7908   -1.6633 O   0  0  0  0  0  0  0  0  0  0  0  0
   -4.6403    1.8752   -1.5007 O   0  0  0  0  0  0  0  0  0  0  0  0
   -3.7046    0.1864    0.3851 N   0  0  0  0  0  0  0  0  0  0  0  0
   -4.7522   -0.7286    0.1363 C   0  0  0  0  0  0  0  0  0  0  0  0
   -4.6743   -1.4254   -0.9263 O   0  0  0  0  0  0  0  0  0  0  0  0
   -5.9119   -0.9271    1.0165 C   0  0  1  0  0  0  0  0  0  0  0  0
   -5.4770   -1.3182    2.4299 C   0  0  0  0  0  0  0  0  0  0  0  0
   -6.8781    0.1835    1.0601 C   0  0  0  0  0  0  0  0  0  0  0  0
   -6.6462    1.4459    1.5357 C   0  0  0  0  0  0  0  0  0  0  0  0
   -7.6426    2.4207    1.5259 C   0  0  0  0  0  0  0  0  0  0  0  0
   -8.8859    2.1713    1.0475 C   0  0  0  0  0  0  0  0  0  0  0  0
   -9.1551    0.9038    0.5590 C   0  0  0  0  0  0  0  0  0  0  0  0
   -8.1641   -0.0438    0.5752 C   0  0  0  0  0  0  0  0  0  0  0  0
    2.2693   -0.3269   -0.3733 C   0  0  0  0  0  0  0  0  0  0  0  0
    2.1630    0.8051   -0.9753 O   0  0  0  0  0  0  0  0  0  0  0  0
    3.5395   -0.7310    0.0528 N   0  0  0  0  0  0  0  0  0  0  0  0
    4.7693    0.0502   -0.1440 C   0  0  1  0  0  0  0  0  0  0  0  0
    5.2265    0.6008    1.1798 C   0  0  0  0  0  0  0  0  0  0  0  0
    6.4334    1.4037    1.1756 C   0  0  0  0  0  0  0  0  0  0  0  0
    6.3758    2.7787    0.9347 C   0  0  0  0  0  0  0  0  0  0  0  0
    7.5265    3.5328    0.9557 C   0  0  0  0  0  0  0  0  0  0  0  0
    8.7526    2.9522    1.2132 C   0  0  0  0  0  0  0  0  0  0  0  0
    8.8073    1.6043    1.4499 C   0  0  0  0  0  0  0  0  0  0  0  0
    7.6574    0.8635    1.4265 C   0  0  0  0  0  0  0  0  0  0  0  0
    5.7713   -0.7656   -0.8559 C   0  0  0  0  0  0  0  0  0  0  0  0
    7.0145   -0.3359   -1.2735 O   0  0  0  0  0  0  0  0  0  0  0  0
    5.4886   -1.9616   -1.1158 O   0  0  0  0  0  0  0  0  0  0  0  0
    0.9974   -4.7380   -3.0479 H   0  0  0  0  0  0  0  0  0  0  0  0
    2.3043   -4.7234   -1.7469 H   0  0  0  0  0  0  0  0  0  0  0  0
    0.5139   -4.7989   -1.3107 H   0  0  0  0  0  0  0  0  0  0  0  0
    0.2223   -2.6953   -2.5335 H   0  0  0  0  0  0  0  0  0  0  0  0
    3.2488   -2.9450   -2.6264 H   0  0  0  0  0  0  0  0  0  0  0  0
    2.0478   -2.7040   -3.8860 H   0  0  0  0  0  0  0  0  0  0  0  0
    2.4172   -1.3142   -2.8843 H   0  0  0  0  0  0  0  0  0  0  0  0
    0.3202   -3.1344   -0.0699 H   0  0  0  0  0  0  0  0  0  0  0  0
    2.0783   -2.9491   -0.0879 H   0  0  0  0  0  0  0  0  0  0  0  0
    0.8628   -1.1340    0.9481 H   0  0  0  0  0  0  0  0  0  0  0  0
   -0.1008   -0.0330   -1.6441 H   0  0  0  0  0  0  0  0  0  0  0  0
   -2.8306   -0.2261   -1.4491 H   0  0  0  0  0  0  0  0  0  0  0  0
   -2.0231    2.3099    0.1682 H   0  0  0  0  0  0  0  0  0  0  0  0
   -1.4610    1.9640   -1.4632 H   0  0  0  0  0  0  0  0  0  0  0  0
   -3.5529    4.4878   -0.9615 H   0  0  0  0  0  0  0  0  0  0  0  0
   -3.7229    0.7556    1.2469 H   0  0  0  0  0  0  0  0  0  0  0  0
   -6.4846   -1.8464    0.6665 H   0  0  0  0  0  0  0  0  0  0  0  0
   -5.0267   -0.4954    2.9905 H   0  0  0  0  0  0  0  0  0  0  0  0
   -6.3792   -1.7567    2.9083 H   0  0  0  0  0  0  0  0  0  0  0  0
   -4.7560   -2.1394    2.3130 H   0  0  0  0  0  0  0  0  0  0  0  0
   -5.7056    1.7154    1.9313 H   0  0  0  0  0  0  0  0  0  0  0  0
   -7.4347    3.4244    1.9103 H   0  0  0  0  0  0  0  0  0  0  0  0
   -9.7043    2.8870    1.0122 H   0  0  0  0  0  0  0  0  0  0  0  0
  -10.1563    0.6721    0.1653 H   0  0  0  0  0  0  0  0  0  0  0  0
   -8.4487   -1.0218    0.1716 H   0  0  0  0  0  0  0  0  0  0  0  0
    3.6523   -1.6380    0.5421 H   0  0  0  0  0  0  0  0  0  0  0  0
    4.4905    0.9030   -0.7899 H   0  0  0  0  0  0  0  0  0  0  0  0
    5.2692   -0.2324    1.9208 H   0  0  0  0  0  0  0  0  0  0  0  0
    4.3886    1.2667    1.5358 H   0  0  0  0  0  0  0  0  0  0  0  0
    5.4473    3.2729    0.7286 H   0  0  0  0  0  0  0  0  0  0  0  0
    7.5102    4.6120    0.7704 H   0  0  0  0  0  0  0  0  0  0  0  0
    9.6682    3.5369    1.2329 H   0  0  0  0  0  0  0  0  0  0  0  0
    9.7838    1.1141    1.6630 H   0  0  0  0  0  0  0  0  0  0  0  0
    7.7347   -0.2061    1.6152 H   0  0  0  0  0  0  0  0  0  0  0  0
    7.5263   -0.7188   -2.0354 H   0  0  0  0  0  0  0  0  0  0  0  0
  1  2  1  0
  2  3  1  0
  2  4  1  0
  4  5  1  0
  5  6  1  0
  6  7  1  0
  7  8  2  0
  7  9  1  0
  9 10  1  0
 10 11  1  0
 11 12  1  0
 11 13  2  0
  9 14  1  0
 14 15  1  0
 15 16  2  0
 15 17  1  0
 17 18  1  0
 17 19  1  0
 19 20  2  0
 20 21  1  0
 21 22  2  0
 22 23  1  0
 23 24  2  0
  5 25  1  0
 25 26  2  0
 25 27  1  0
 27 28  1  0
 28 29  1  0
 29 30  1  0
 30 31  2  0
 31 32  1  0
 32 33  2  0
 33 34  1  0
 34 35  2  0
 28 36  1  0
 36 37  1  0
 36 38  2  0
 24 19  1  0
 35 30  1  0
  1 39  1  0
  1 40  1  0
  1 41  1  0
  2 42  1  0
  3 43  1  0
  3 44  1  0
  3 45  1  0
  4 46  1  0
  4 47  1  0
  5 48  1  1
  6 49  1  0
  9 50  1  6
 10 51  1  0
 10 52  1  0
 12 53  1  0
 14 54  1  0
 17 55  1  6
 18 56  1  0
 18 57  1  0
 18 58  1  0
 20 59  1  0
 21 60  1  0
 22 61  1  0
 23 62  1  0
 24 63  1  0
 27 64  1  0
 28 65  1  6
 29 66  1  0
 29 67  1  0
 31 68  1  0
 32 69  1  0
 33 70  1  0
 34 71  1  0
 35 72  1  0
 37 73  1  0
M  END
$$$$
[H]c1nc(N([H])c2c([H])c([H])c(N3C([H])([H])C([H])([H])C([H])(N4C(=O)N(C([H])([H])[H])C([H])([H])C4([H])[H])C([H])([H])C3([H])[H])c([H])c2OC([H])([H])[H])nc(N([H])c2c([H])c([H])c([H])c([H])c2S(=O)(=O)C([H])(C([H])([H])[H])C([H])([H])[H])c1Cl
     RDKit          3D

 78 82  0  0  0  0  0  0  0  0999 V2000
   -0.4936    2.5006   -2.7471 C   0  0  0  0  0  0  0  0  0  0  0  0
    0.1731    1.5567   -1.9276 O   0  0  0  0  0  0  0  0  0  0  0  0
   -0.4969    0.7679   -1.0321 C   0  0  0  0  0  0  0  0  0  0  0  0
   -1.8607    0.8698   -0.8992 C   0  0  0  0  0  0  0  0  0  0  0  0
   -2.5856    0.1034   -0.0171 C   0  0  0  0  0  0  0  0  0  0  0  0
   -1.8593   -0.7932    0.7462 C   0  0  0  0  0  0  0  0  0  0  0  0
   -0.4654   -0.9041    0.6174 C   0  0  0  0  0  0  0  0  0  0  0  0
    0.2546   -0.1439   -0.2587 C   0  0  0  0  0  0  0  0  0  0  0  0
    1.6337   -0.1859   -0.4620 N   0  0  0  0  0  0  0  0  0  0  0  0
    2.5645   -0.9937    0.1951 C   0  0  0  0  0  0  0  0  0  0  0  0
    2.2593   -1.8688    1.1477 N   0  0  0  0  0  0  0  0  0  0  0  0
    3.1686   -2.6349    1.7607 C   0  0  0  0  0  0  0  0  0  0  0  0
    4.4808   -2.5378    1.4149 C   0  0  0  0  0  0  0  0  0  0  0  0
    5.6778   -3.5283    2.1944 Cl  0  0  0  0  0  0  0  0  0  0  0  0
    4.8729   -1.6316    0.4144 C   0  0  0  0  0  0  0  0  0  0  0  0
    6.2324   -1.5127    0.0869 N   0  0  0  0  0  0  0  0  0  0  0  0
    6.8290   -0.7155   -0.8940 C   0  0  0  0  0  0  0  0  0  0  0  0
    6.0687   -0.2342   -1.9537 C   0  0  0  0  0  0  0  0  0  0  0  0
    6.6291    0.4675   -3.0096 C   0  0  0  0  0  0  0  0  0  0  0  0
    7.9772    0.6915   -3.0059 C   0  0  0  0  0  0  0  0  0  0  0  0
    8.7323    0.2221   -1.9670 C   0  0  0  0  0  0  0  0  0  0  0  0
    8.2151   -0.4846   -0.8855 C   0  0  0  0  0  0  0  0  0  0  0  0
    9.2330   -0.9410    0.4091 S   0  0  0  0  0  0  0  0  0  0  0  0
   10.6977   -0.7305   -0.0525 O   0  0  0  0  0  0  0  0  0  0  0  0
    9.2083   -2.4231    0.7365 O   0  0  0  0  0  0  0  0  0  0  0  0
    9.0827   -0.0389    1.8936 C   0  0  0  0  0  0  0  0  0  0  0  0
    9.5909    1.4043    1.6647 C   0  0  0  0  0  0  0  0  0  0  0  0
    7.7600    0.0620    2.5365 C   0  0  0  0  0  0  0  0  0  0  0  0
    3.8851   -0.9292   -0.1187 N   0  0  0  0  0  0  0  0  0  0  0  0
   -3.9871    0.1536    0.1528 N   0  0  0  0  0  0  0  0  0  0  0  0
   -4.5872   -0.5113    1.2902 C   0  0  0  0  0  0  0  0  0  0  0  0
   -6.0296    0.0199    1.3396 C   0  0  0  0  0  0  0  0  0  0  0  0
   -6.6741   -0.5340    0.0674 C   0  0  0  0  0  0  0  0  0  0  0  0
   -6.1069    0.1489   -1.1246 C   0  0  0  0  0  0  0  0  0  0  0  0
   -4.8251    0.8427   -0.7829 C   0  0  0  0  0  0  0  0  0  0  0  0
   -8.1116   -0.3861    0.1407 N   0  0  0  0  0  0  0  0  0  0  0  0
   -9.0644   -1.4710    0.2249 C   0  0  0  0  0  0  0  0  0  0  0  0
  -10.4007   -0.8584   -0.1292 C   0  0  0  0  0  0  0  0  0  0  0  0
  -10.2520    0.5696    0.1544 N   0  0  0  0  0  0  0  0  0  0  0  0
  -11.3284    1.5123    0.3973 C   0  0  0  0  0  0  0  0  0  0  0  0
   -8.8435    0.8382    0.1426 C   0  0  0  0  0  0  0  0  0  0  0  0
   -8.3454    1.9788    0.1354 O   0  0  0  0  0  0  0  0  0  0  0  0
    0.2244    3.0982   -3.3385 H   0  0  0  0  0  0  0  0  0  0  0  0
   -1.1350    1.9324   -3.4413 H   0  0  0  0  0  0  0  0  0  0  0  0
   -1.1258    3.1247   -2.0861 H   0  0  0  0  0  0  0  0  0  0  0  0
   -2.4262    1.5979   -1.5125 H   0  0  0  0  0  0  0  0  0  0  0  0
   -2.3930   -1.4180    1.4561 H   0  0  0  0  0  0  0  0  0  0  0  0
    0.0003   -1.6347    1.2596 H   0  0  0  0  0  0  0  0  0  0  0  0
    2.0670    0.4672   -1.2054 H   0  0  0  0  0  0  0  0  0  0  0  0
    2.8133   -3.3260    2.5346 H   0  0  0  0  0  0  0  0  0  0  0  0
    6.8888   -2.1315    0.6445 H   0  0  0  0  0  0  0  0  0  0  0  0
    5.0089   -0.3916   -2.0269 H   0  0  0  0  0  0  0  0  0  0  0  0
    5.9962    0.8361   -3.8340 H   0  0  0  0  0  0  0  0  0  0  0  0
    8.4082    1.2411   -3.8382 H   0  0  0  0  0  0  0  0  0  0  0  0
    9.8181    0.4105   -1.9775 H   0  0  0  0  0  0  0  0  0  0  0  0
    9.7957   -0.4442    2.6789 H   0  0  0  0  0  0  0  0  0  0  0  0
    8.9053    1.8939    0.9428 H   0  0  0  0  0  0  0  0  0  0  0  0
    9.5808    1.9807    2.5916 H   0  0  0  0  0  0  0  0  0  0  0  0
   10.6138    1.3520    1.2103 H   0  0  0  0  0  0  0  0  0  0  0  0
    7.3169   -0.9048    2.8263 H   0  0  0  0  0  0  0  0  0  0  0  0
    7.9102    0.6291    3.5009 H   0  0  0  0  0  0  0  0  0  0  0  0
    7.0087    0.6754    1.9933 H   0  0  0  0  0  0  0  0  0  0  0  0
   -4.1129   -0.2201    2.2482 H   0  0  0  0  0  0  0  0  0  0  0  0
   -4.6288   -1.6122    1.1656 H   0  0  0  0  0  0  0  0  0  0  0  0
   -6.0056    1.1132    1.3127 H   0  0  0  0  0  0  0  0  0  0  0  0
   -6.4762   -0.3881    2.2473 H   0  0  0  0  0  0  0  0  0  0  0  0
   -6.4264   -1.6345    0.0891 H   0  0  0  0  0  0  0  0  0  0  0  0
   -5.9278   -0.6116   -1.9233 H   0  0  0  0  0  0  0  0  0  0  0  0
   -6.8348    0.9245   -1.4986 H   0  0  0  0  0  0  0  0  0  0  0  0
   -4.2846    1.0310   -1.7596 H   0  0  0  0  0  0  0  0  0  0  0  0
   -5.0089    1.8842   -0.3917 H   0  0  0  0  0  0  0  0  0  0  0  0
   -8.7952   -2.2900   -0.4819 H   0  0  0  0  0  0  0  0  0  0  0  0
   -9.0818   -1.8004    1.2807 H   0  0  0  0  0  0  0  0  0  0  0  0
  -10.5919   -0.9725   -1.2108 H   0  0  0  0  0  0  0  0  0  0  0  0
  -11.2244   -1.2748    0.4546 H   0  0  0  0  0  0  0  0  0  0  0  0
  -12.1751    1.3624   -0.3012 H   0  0  0  0  0  0  0  0  0  0  0  0
  -10.9405    2.5348    0.3530 H   0  0  0  0  0  0  0  0  0  0  0  0
  -11.6712    1.3291    1.4411 H   0  0  0  0  0  0  0  0  0  0  0  0
  1  2  1  0
  2  3  1  0
  3  4  2  0
  4  5  1  0
  5  6  2  0
  6  7  1  0
  7  8  2  0
  8  9  1  0
  9 10  1  0
 10 11  2  0
 11 12  1  0
 12 13  2  0
 13 14  1  0
 13 15  1  0
 15 16  1  0
 16 17  1  0
 17 18  2  0
 18 19  1  0
 19 20  2  0
 20 21  1  0
 21 22  2  0
 22 23  1  0
 23 24  2  0
 23 25  2  0
 23 26  1  0
 26 27  1  0
 26 28  1  0
 15 29  2  0
  5 30  1  0
 30 31  1  0
 31 32  1  0
 32 33  1  0
 33 34  1  0
 34 35  1  0
 33 36  1  0
 36 37  1  0
 37 38  1  0
 38 39  1  0
 39 40  1  0
 39 41  1  0
 41 42  2  0
  8  3  1  0
 29 10  1  0
 35 30  1  0
 41 36  1  0
 22 17  1  0
  1 43  1  0
  1 44  1  0
  1 45  1  0
  4 46  1  0
  6 47  1  0
  7 48  1  0
  9 49  1  0
 12 50  1  0
 16 51  1  0
 18 52  1  0
 19 53  1  0
 20 54  1  0
 21 55  1  0
 26 56  1  0
 27 57  1  0
 27 58  1  0
 27 59  1  0
 28 60  1  0
 28 61  1  0
 28 62  1  0
 31 63  1  0
 31 64  1  0
 32 65  1  0
 32 66  1  0
 33 67  1  0
 34 68  1  0
 34 69  1  0
 35 70  1  0
 35 71  1  0
 37 72  1  0
 37 73  1  0
 38 74  1  0
 38 75  1  0
 40 76  1  0
 40 77  1  0
 40 78  1  0
M  END
$$$$
[H]OC(=O)[C@@]([H])(N([H])[H])C([H])([H])n1nnc(-c2on([H])c(=O)c2Br)n1
     RDKit          3D

 25 26  0  0  0  0  0  0  0  0999 V2000
   -2.7910   -1.2449    0.3200 N   0  0  0  0  0  0  0  0  0  0  0  0
   -2.6565    0.2000    0.3051 C   0  0  1  0  0  0  0  0  0  0  0  0
   -1.8180    0.6502   -0.8734 C   0  0  0  0  0  0  0  0  0  0  0  0
   -0.4876    0.0861   -0.8274 N   0  0  0  0  0  0  0  0  0  0  0  0
   -0.0837   -1.0419   -1.3477 N   0  0  0  0  0  0  0  0  0  0  0  0
    1.2084   -1.2296   -1.1018 N   0  0  0  0  0  0  0  0  0  0  0  0
    1.6422   -0.1724   -0.3936 C   0  0  0  0  0  0  0  0  0  0  0  0
    0.5808    0.6251   -0.2364 N   0  0  0  0  0  0  0  0  0  0  0  0
    3.0147    0.0456    0.1007 C   0  0  0  0  0  0  0  0  0  0  0  0
    3.4748    1.0429    0.7825 O   0  0  0  0  0  0  0  0  0  0  0  0
    4.7514    0.8919    1.0448 N   0  0  0  0  0  0  0  0  0  0  0  0
    5.1913   -0.2658    0.5179 C   0  0  0  0  0  0  0  0  0  0  0  0
    6.3580   -0.7339    0.5733 O   0  0  0  0  0  0  0  0  0  0  0  0
    4.0660   -0.8155   -0.0946 C   0  0  0  0  0  0  0  0  0  0  0  0
    4.0511   -2.4647   -1.0195 Br  0  0  0  0  0  0  0  0  0  0  0  0
   -3.9890    0.8437    0.2291 C   0  0  0  0  0  0  0  0  0  0  0  0
   -5.1803    0.1281    0.1802 O   0  0  0  0  0  0  0  0  0  0  0  0
   -4.0789    2.0932    0.2063 O   0  0  0  0  0  0  0  0  0  0  0  0
   -3.8174   -1.4809    0.4077 H   0  0  0  0  0  0  0  0  0  0  0  0
   -2.5025   -1.6102   -0.6081 H   0  0  0  0  0  0  0  0  0  0  0  0
   -2.1368    0.5222    1.2184 H   0  0  0  0  0  0  0  0  0  0  0  0
   -1.8119    1.7386   -0.9440 H   0  0  0  0  0  0  0  0  0  0  0  0
   -2.3257    0.2633   -1.7899 H   0  0  0  0  0  0  0  0  0  0  0  0
    5.3168    1.5797    1.5823 H   0  0  0  0  0  0  0  0  0  0  0  0
   -5.9766    0.3491    0.7692 H   0  0  0  0  0  0  0  0  0  0  0  0
  1  2  1  0
  2  3  1  0
  3  4  1  0
  4  5  1  0
  5  6  2  0
  6  7  1  0
  7  8  2  0
  7  9  1  0
  9 10  1  0
 10 11  1  0
 11 12  1  0
 12 13  2  0
 12 14  1  0
 14 15  1  0
  2 16  1  0
 16 17  1  0
 16 18  2  0
  8  4  1  0
 14  9  2  0
  1 19  1  0
  1 20  1  0
  2 21  1  1
  3 22  1  0
  3 23  1  0
 11 24  1  0
 17 25  1  0
M  END
$$$$
[H]OC(=O)c1[se]c(-c2c([H])c([H])c(-c3c([H])c([H])c([H])c([H])c3[H])c(C(F)(F)F)c2[H])nc1C([H])([H])[H]
     RDKit          3D

 37 39  0  0  0  0  0  0  0  0999 V2000
   -5.5383    1.3865   -1.4169 C   0  0  0  0  0  0  0  0  0  0  0  0
   -4.5041    0.5913   -0.5749 C   0  0  0  0  0  0  0  0  0  0  0  0
   -3.2711    0.7064   -0.7177 N   0  0  0  0  0  0  0  0  0  0  0  0
   -2.2434    0.2149   -0.2031 C   0  0  0  0  0  0  0  0  0  0  0  0
   -3.3903   -1.0443    1.1721 Se  0  0  0  0  0  2  0  0  0  0  0  0
   -5.1083   -0.2353    0.3257 C   0  0  0  0  0  0  0  0  0  0  0  0
   -6.4463   -0.5719    0.7088 C   0  0  0  0  0  0  0  0  0  0  0  0
   -6.6433   -1.4983    1.7108 O   0  0  0  0  0  0  0  0  0  0  0  0
   -7.3878   -0.0248    0.1331 O   0  0  0  0  0  0  0  0  0  0  0  0
   -0.8214    0.1514   -0.1562 C   0  0  0  0  0  0  0  0  0  0  0  0
   -0.0993    0.9436   -1.0215 C   0  0  0  0  0  0  0  0  0  0  0  0
    1.2530    0.9575   -1.0568 C   0  0  0  0  0  0  0  0  0  0  0  0
    1.9803    0.1318   -0.1774 C   0  0  0  0  0  0  0  0  0  0  0  0
    3.4321    0.1516   -0.2180 C   0  0  0  0  0  0  0  0  0  0  0  0
    4.1141   -0.7295   -1.0240 C   0  0  0  0  0  0  0  0  0  0  0  0
    5.5028   -0.7330   -1.1038 C   0  0  0  0  0  0  0  0  0  0  0  0
    6.2338    0.1607   -0.3652 C   0  0  0  0  0  0  0  0  0  0  0  0
    5.5770    1.0520    0.4481 C   0  0  0  0  0  0  0  0  0  0  0  0
    4.1936    1.0388    0.5132 C   0  0  0  0  0  0  0  0  0  0  0  0
    1.2833   -0.6607    0.6876 C   0  0  0  0  0  0  0  0  0  0  0  0
   -0.1242   -0.6476    0.6949 C   0  0  0  0  0  0  0  0  0  0  0  0
    1.9651   -1.5625    1.6470 C   0  0  0  0  0  0  0  0  0  0  0  0
    1.0233   -2.2481    2.4231 F   0  0  0  0  0  0  0  0  0  0  0  0
    2.8839   -0.9491    2.4379 F   0  0  0  0  0  0  0  0  0  0  0  0
    2.6066   -2.5507    0.9113 F   0  0  0  0  0  0  0  0  0  0  0  0
   -6.1843    1.9662   -0.7282 H   0  0  0  0  0  0  0  0  0  0  0  0
   -5.0560    2.0675   -2.0996 H   0  0  0  0  0  0  0  0  0  0  0  0
   -6.1775    0.6765   -1.9637 H   0  0  0  0  0  0  0  0  0  0  0  0
   -6.2442   -1.4287    2.6343 H   0  0  0  0  0  0  0  0  0  0  0  0
   -0.6566    1.5925   -1.7128 H   0  0  0  0  0  0  0  0  0  0  0  0
    1.8009    1.5752   -1.7312 H   0  0  0  0  0  0  0  0  0  0  0  0
    3.5569   -1.4465   -1.6204 H   0  0  0  0  0  0  0  0  0  0  0  0
    6.0084   -1.4370   -1.7455 H   0  0  0  0  0  0  0  0  0  0  0  0
    7.3235    0.1934   -0.3970 H   0  0  0  0  0  0  0  0  0  0  0  0
    6.1309    1.7712    1.0444 H   0  0  0  0  0  0  0  0  0  0  0  0
    3.6654    1.7303    1.1452 H   0  0  0  0  0  0  0  0  0  0  0  0
   -0.6384   -1.2911    1.3966 H   0  0  0  0  0  0  0  0  0  0  0  0
  1  2  1  0
  2  3  1  0
  3  4  2  0
  4  5  1  0
  5  6  1  0
  6  7  1  0
  7  8  1  0
  7  9  2  0
  4 10  1  0
 10 11  2  0
 11 12  1  0
 12 13  2  0
 13 14  1  0
 14 15  2  0
 15 16  1  0
 16 17  2  0
 17 18  1  0
 18 19  2  0
 13 20  1  0
 20 21  2  0
 20 22  1  0
 22 23  1  0
 22 24  1  0
 22 25  1  0
  6  2  2  0
 21 10  1  0
 19 14  1  0
  1 26  1  0
  1 27  1  0
  1 28  1  0
  8 29  1  0
 11 30  1  0
 12 31  1  0
 15 32  1  0
 16 33  1  0
 17 34  1  0
 18 35  1  0
 19 36  1  0
 21 37  1  0
M  END
$$$$
[H]OC(=O)[C@]([H])(N([H])[C@]1([H])C([H])([H])C([H])([H])[C@@]([H])(n2nc(-c3c([H])c([H])c(Oc4c([H])c([H])c([H])c([H])c4[H])c([H])c3[H])c3c(N([H])[H])nc([H])nc32)C([H])([H])C1([H])[H])C([H])([H])c1c([H])c([H])c([H])c([H])c1[H]
     RDKit          3D

 73 78  0  0  0  0  0  0  0  0999 V2000
   -4.2836   -1.5922    2.1126 N   0  0  0  0  0  0  0  0  0  0  0  0
   -2.8622   -1.6090    1.9799 C   0  0  0  0  0  0  0  0  0  0  0  0
   -2.0877   -2.0739    2.9898 N   0  0  0  0  0  0  0  0  0  0  0  0
   -0.7466   -2.0450    2.9145 C   0  0  0  0  0  0  0  0  0  0  0  0
   -0.1663   -1.5423    1.8141 N   0  0  0  0  0  0  0  0  0  0  0  0
   -0.8932   -1.0695    0.7861 C   0  0  0  0  0  0  0  0  0  0  0  0
   -0.5874   -0.5077   -0.3909 N   0  0  0  0  0  0  0  0  0  0  0  0
   -1.6935   -0.1900   -1.0646 N   0  0  0  0  0  0  0  0  0  0  0  0
   -2.7850   -0.5447   -0.3204 C   0  0  0  0  0  0  0  0  0  0  0  0
   -4.1594   -0.3204   -0.7366 C   0  0  0  0  0  0  0  0  0  0  0  0
   -4.5660    0.9811   -1.0943 C   0  0  0  0  0  0  0  0  0  0  0  0
   -5.8404    1.2095   -1.5533 C   0  0  0  0  0  0  0  0  0  0  0  0
   -6.7476    0.1808   -1.6747 C   0  0  0  0  0  0  0  0  0  0  0  0
   -8.0469    0.3786   -2.1336 O   0  0  0  0  0  0  0  0  0  0  0  0
   -9.0545    0.7034   -1.2085 C   0  0  0  0  0  0  0  0  0  0  0  0
  -10.3502    0.8788   -1.6351 C   0  0  0  0  0  0  0  0  0  0  0  0
  -11.3119    1.1992   -0.6909 C   0  0  0  0  0  0  0  0  0  0  0  0
  -11.0178    1.3467    0.6492 C   0  0  0  0  0  0  0  0  0  0  0  0
   -9.7146    1.1690    1.0723 C   0  0  0  0  0  0  0  0  0  0  0  0
   -8.7633    0.8509    0.1244 C   0  0  0  0  0  0  0  0  0  0  0  0
   -6.3692   -1.0992   -1.3314 C   0  0  0  0  0  0  0  0  0  0  0  0
   -5.0793   -1.3117   -0.8710 C   0  0  0  0  0  0  0  0  0  0  0  0
   -2.2986   -1.0917    0.8398 C   0  0  0  0  0  0  0  0  0  0  0  0
    0.7251   -0.2144   -0.8936 C   0  0  1  0  0  0  0  0  0  0  0  0
    1.1918    1.1710   -0.4730 C   0  0  0  0  0  0  0  0  0  0  0  0
    2.2370    1.1032    0.6053 C   0  0  0  0  0  0  0  0  0  0  0  0
    3.5211    0.4494    0.0871 C   0  0  1  0  0  0  0  0  0  0  0  0
    3.1075   -0.4485   -1.0665 C   0  0  0  0  0  0  0  0  0  0  0  0
    1.8114   -1.1624   -0.5826 C   0  0  0  0  0  0  0  0  0  0  0  0
    4.4920    1.4213   -0.2297 N   0  0  0  0  0  0  0  0  0  0  0  0
    5.8553    1.1991    0.1535 C   0  0  2  0  0  0  0  0  0  0  0  0
    6.4291    0.0131   -0.5528 C   0  0  0  0  0  0  0  0  0  0  0  0
    7.8389   -0.2276   -0.2071 C   0  0  0  0  0  0  0  0  0  0  0  0
    8.8351    0.5297   -0.8310 C   0  0  0  0  0  0  0  0  0  0  0  0
   10.1501    0.2712   -0.5730 C   0  0  0  0  0  0  0  0  0  0  0  0
   10.5757   -0.7144    0.2876 C   0  0  0  0  0  0  0  0  0  0  0  0
    9.6114   -1.4700    0.9109 C   0  0  0  0  0  0  0  0  0  0  0  0
    8.2837   -1.2199    0.6588 C   0  0  0  0  0  0  0  0  0  0  0  0
    6.0580    1.1727    1.6040 C   0  0  0  0  0  0  0  0  0  0  0  0
    7.2755    1.1167    2.2019 O   0  0  0  0  0  0  0  0  0  0  0  0
    5.0341    1.2090    2.3947 O   0  0  0  0  0  0  0  0  0  0  0  0
   -4.8215   -2.4756    2.0557 H   0  0  0  0  0  0  0  0  0  0  0  0
   -4.8056   -0.7074    2.2652 H   0  0  0  0  0  0  0  0  0  0  0  0
   -0.1397   -2.4240    3.7349 H   0  0  0  0  0  0  0  0  0  0  0  0
   -3.8719    1.8010   -1.0079 H   0  0  0  0  0  0  0  0  0  0  0  0
   -6.1738    2.2234   -1.8392 H   0  0  0  0  0  0  0  0  0  0  0  0
  -10.6258    0.7704   -2.6792 H   0  0  0  0  0  0  0  0  0  0  0  0
  -12.3541    1.3472   -0.9687 H   0  0  0  0  0  0  0  0  0  0  0  0
  -11.7796    1.5979    1.3780 H   0  0  0  0  0  0  0  0  0  0  0  0
   -9.4385    1.2723    2.1044 H   0  0  0  0  0  0  0  0  0  0  0  0
   -7.7162    0.6997    0.4202 H   0  0  0  0  0  0  0  0  0  0  0  0
   -7.0462   -1.9298   -1.4131 H   0  0  0  0  0  0  0  0  0  0  0  0
   -4.8415   -2.3581   -0.6434 H   0  0  0  0  0  0  0  0  0  0  0  0
    0.6503   -0.1792   -2.0218 H   0  0  0  0  0  0  0  0  0  0  0  0
    1.5977    1.7411   -1.3512 H   0  0  0  0  0  0  0  0  0  0  0  0
    0.3314    1.7342   -0.0970 H   0  0  0  0  0  0  0  0  0  0  0  0
    2.5001    2.1756    0.8325 H   0  0  0  0  0  0  0  0  0  0  0  0
    1.8342    0.6314    1.4945 H   0  0  0  0  0  0  0  0  0  0  0  0
    3.8214   -0.2636    0.8977 H   0  0  0  0  0  0  0  0  0  0  0  0
    3.8162   -1.2464   -1.2476 H   0  0  0  0  0  0  0  0  0  0  0  0
    2.8669    0.1634   -1.9787 H   0  0  0  0  0  0  0  0  0  0  0  0
    2.0059   -1.3883    0.4697 H   0  0  0  0  0  0  0  0  0  0  0  0
    1.7052   -2.0879   -1.2109 H   0  0  0  0  0  0  0  0  0  0  0  0
    4.4302    1.6640   -1.2368 H   0  0  0  0  0  0  0  0  0  0  0  0
    6.4218    2.1055   -0.2254 H   0  0  0  0  0  0  0  0  0  0  0  0
    6.2984    0.0751   -1.6508 H   0  0  0  0  0  0  0  0  0  0  0  0
    5.8684   -0.8805   -0.1431 H   0  0  0  0  0  0  0  0  0  0  0  0
    8.4868    1.3222   -1.5128 H   0  0  0  0  0  0  0  0  0  0  0  0
   10.9107    0.8888   -1.0750 H   0  0  0  0  0  0  0  0  0  0  0  0
   11.6241   -0.9117    0.4845 H   0  0  0  0  0  0  0  0  0  0  0  0
    9.9088   -2.2598    1.5937 H   0  0  0  0  0  0  0  0  0  0  0  0
    7.4880   -1.8074    1.1392 H   0  0  0  0  0  0  0  0  0  0  0  0
    7.4406    0.6072    3.0702 H   0  0  0  0  0  0  0  0  0  0  0  0
  1  2  1  0
  2  3  2  0
  3  4  1  0
  4  5  2  0
  5  6  1  0
  6  7  1  0
  7  8  1  0
  8  9  2  0
  9 10  1  0
 10 11  2  0
 11 12  1  0
 12 13  2  0
 13 14  1  0
 14 15  1  0
 15 16  2  0
 16 17  1  0
 17 18  2  0
 18 19  1  0
 19 20  2  0
 13 21  1  0
 21 22  2  0
  9 23  1  0
  7 24  1  0
 24 25  1  0
 25 26  1  0
 26 27  1  0
 27 28  1  0
 28 29  1  0
 27 30  1  0
 30 31  1  0
 31 32  1  0
 32 33  1  0
 33 34  2  0
 34 35  1  0
 35 36  2  0
 36 37  1  0
 37 38  2  0
 31 39  1  0
 39 40  1  0
 39 41  2  0
 23  2  1  0
 29 24  1  0
 38 33  1  0
 23  6  2  0
 22 10  1  0
 20 15  1  0
  1 42  1  0
  1 43  1  0
  4 44  1  0
 11 45  1  0
 12 46  1  0
 16 47  1  0
 17 48  1  0
 18 49  1  0
 19 50  1  0
 20 51  1  0
 21 52  1  0
 22 53  1  0
 24 54  1  6
 25 55  1  0
 25 56  1  0
 26 57  1  0
 26 58  1  0
 27 59  1  1
 28 60  1  0
 28 61  1  0
 29 62  1  0
 29 63  1  0
 30 64  1  0
 31 65  1  6
 32 66  1  0
 32 67  1  0
 34 68  1  0
 35 69  1  0
 36 70  1  0
 37 71  1  0
 38 72  1  0
 40 73  1  0
M  END
$$$$
[H]N=C(N([H])[H])N([H])C([H])([H])C([H])([H])C([H])([H])[C@@]([H])(C([H])=O)N([H])C(=O)[C@@]([H])(N([H])C(=O)[C@]([H])(N([H])S(=O)(=O)C([H])([H])c1c([H])c([H])c([H])c([H])c1[H])C([H])([H])O[H])C([H])([H])C([H])(C([H])([H])[H])C([H])([H])[H]
     RDKit          3D

 71 71  0  0  0  0  0  0  0  0999 V2000
   -0.8492   -3.0755    0.9500 C   0  0  0  0  0  0  0  0  0  0  0  0
    0.6234   -2.7862    1.1131 C   0  0  0  0  0  0  0  0  0  0  0  0
    1.4018   -3.0475   -0.1419 C   0  0  0  0  0  0  0  0  0  0  0  0
    0.9550   -1.5601    1.8602 C   0  0  0  0  0  0  0  0  0  0  0  0
    0.5321   -0.2368    1.4238 C   0  0  2  0  0  0  0  0  0  0  0  0
   -0.8683    0.0022    1.3063 N   0  0  0  0  0  0  0  0  0  0  0  0
   -1.5724    0.1714    0.1052 C   0  0  0  0  0  0  0  0  0  0  0  0
   -1.0883    0.1219   -1.0411 O   0  0  0  0  0  0  0  0  0  0  0  0
   -3.0830    0.4463    0.1565 C   0  0  1  0  0  0  0  0  0  0  0  0
   -3.3051    1.6693    0.9582 C   0  0  0  0  0  0  0  0  0  0  0  0
   -4.6388    1.9846    1.0361 O   0  0  0  0  0  0  0  0  0  0  0  0
   -3.5197    0.5804   -1.2005 N   0  0  0  0  0  0  0  0  0  0  0  0
   -4.4563   -0.7348   -1.7307 S   0  0  0  0  0  0  0  0  0  0  0  0
   -4.5394   -1.7296   -0.5753 O   0  0  0  0  0  0  0  0  0  0  0  0
   -3.7379   -1.4582   -2.8656 O   0  0  0  0  0  0  0  0  0  0  0  0
   -6.0742   -0.3785   -2.2564 C   0  0  0  0  0  0  0  0  0  0  0  0
   -6.9599    0.2467   -1.2957 C   0  0  0  0  0  0  0  0  0  0  0  0
   -7.1464    1.6357   -1.3555 C   0  0  0  0  0  0  0  0  0  0  0  0
   -7.9732    2.3051   -0.4876 C   0  0  0  0  0  0  0  0  0  0  0  0
   -8.6495    1.5985    0.4811 C   0  0  0  0  0  0  0  0  0  0  0  0
   -8.4867    0.2436    0.5626 C   0  0  0  0  0  0  0  0  0  0  0  0
   -7.6515   -0.4247   -0.3156 C   0  0  0  0  0  0  0  0  0  0  0  0
    1.4101    0.5214    0.5109 C   0  0  0  0  0  0  0  0  0  0  0  0
    0.9643    1.4953   -0.1326 O   0  0  0  0  0  0  0  0  0  0  0  0
    2.7665    0.2044    0.3130 N   0  0  0  0  0  0  0  0  0  0  0  0
    3.6188    0.9663   -0.5781 C   0  0  1  0  0  0  0  0  0  0  0  0
    4.8117    1.5683    0.0629 C   0  0  0  0  0  0  0  0  0  0  0  0
    5.7886    0.6671    0.7054 C   0  0  0  0  0  0  0  0  0  0  0  0
    6.4810   -0.3300   -0.1530 C   0  0  0  0  0  0  0  0  0  0  0  0
    7.2435    0.2995   -1.1887 N   0  0  0  0  0  0  0  0  0  0  0  0
    8.3943    1.0500   -0.8217 C   0  0  0  0  0  0  0  0  0  0  0  0
    9.5926    0.3655   -0.4153 N   0  0  0  0  0  0  0  0  0  0  0  0
    8.4245    2.3295   -0.8365 N   0  0  0  0  0  0  0  0  0  0  0  0
    3.9260    0.2522   -1.8449 C   0  0  0  0  0  0  0  0  0  0  0  0
    3.4837   -0.8484   -2.1268 O   0  0  0  0  0  0  0  0  0  0  0  0
   -1.3904   -2.5004    1.7235 H   0  0  0  0  0  0  0  0  0  0  0  0
   -1.0416   -4.1556    1.2150 H   0  0  0  0  0  0  0  0  0  0  0  0
   -1.2089   -2.9177   -0.0831 H   0  0  0  0  0  0  0  0  0  0  0  0
    0.9843   -3.6246    1.7981 H   0  0  0  0  0  0  0  0  0  0  0  0
    2.4830   -3.0771    0.0681 H   0  0  0  0  0  0  0  0  0  0  0  0
    1.2123   -2.3809   -0.9675 H   0  0  0  0  0  0  0  0  0  0  0  0
    1.1269   -4.0838   -0.4743 H   0  0  0  0  0  0  0  0  0  0  0  0
    2.0361   -1.5531    2.1061 H   0  0  0  0  0  0  0  0  0  0  0  0
    0.4843   -1.7245    2.9002 H   0  0  0  0  0  0  0  0  0  0  0  0
    0.7668    0.4136    2.4091 H   0  0  0  0  0  0  0  0  0  0  0  0
   -1.4842    0.0607    2.1845 H   0  0  0  0  0  0  0  0  0  0  0  0
   -3.5068   -0.4557    0.6459 H   0  0  0  0  0  0  0  0  0  0  0  0
   -2.8850    1.5185    1.9907 H   0  0  0  0  0  0  0  0  0  0  0  0
   -2.7434    2.5264    0.5064 H   0  0  0  0  0  0  0  0  0  0  0  0
   -4.8393    2.8795    1.3858 H   0  0  0  0  0  0  0  0  0  0  0  0
   -2.7939    0.8917   -1.8587 H   0  0  0  0  0  0  0  0  0  0  0  0
   -6.0276    0.2747   -3.1854 H   0  0  0  0  0  0  0  0  0  0  0  0
   -6.5487   -1.3541   -2.5664 H   0  0  0  0  0  0  0  0  0  0  0  0
   -6.6073    2.1863   -2.1243 H   0  0  0  0  0  0  0  0  0  0  0  0
   -8.0731    3.3952   -0.5893 H   0  0  0  0  0  0  0  0  0  0  0  0
   -9.3111    2.0944    1.1835 H   0  0  0  0  0  0  0  0  0  0  0  0
   -9.0110   -0.3366    1.3202 H   0  0  0  0  0  0  0  0  0  0  0  0
   -7.5276   -1.5040   -0.2427 H   0  0  0  0  0  0  0  0  0  0  0  0
    3.1713   -0.6034    0.8218 H   0  0  0  0  0  0  0  0  0  0  0  0
    2.9491    1.8293   -0.9214 H   0  0  0  0  0  0  0  0  0  0  0  0
    5.3228    2.2769   -0.6259 H   0  0  0  0  0  0  0  0  0  0  0  0
    4.4174    2.2465    0.8848 H   0  0  0  0  0  0  0  0  0  0  0  0
    5.3548    0.1934    1.6201 H   0  0  0  0  0  0  0  0  0  0  0  0
    6.6048    1.3296    1.1277 H   0  0  0  0  0  0  0  0  0  0  0  0
    7.2008   -0.8768    0.5456 H   0  0  0  0  0  0  0  0  0  0  0  0
    5.8694   -1.1190   -0.5839 H   0  0  0  0  0  0  0  0  0  0  0  0
    7.0218    0.2492   -2.2036 H   0  0  0  0  0  0  0  0  0  0  0  0
   10.1426   -0.1534   -1.1514 H   0  0  0  0  0  0  0  0  0  0  0  0
    9.8707    0.4057    0.5768 H   0  0  0  0  0  0  0  0  0  0  0  0
    7.5851    2.8483   -1.1253 H   0  0  0  0  0  0  0  0  0  0  0  0
    4.5773    0.6859   -2.6038 H   0  0  0  0  0  0  0  0  0  0  0  0
  1  2  1  0
  2  3  1  0
  2  4  1  0
  4  5  1  0
  5  6  1  0
  6  7  1  0
  7  8  2  0
  7  9  1  0
  9 10  1  0
 10 11  1  0
  9 12  1  0
 12 13  1  0
 13 14  2  0
 13 15  2  0
 13 16  1  0
 16 17  1  0
 17 18  2  0
 18 19  1  0
 19 20  2  0
 20 21  1  0
 21 22  2  0
  5 23  1  0
 23 24  2  0
 23 25  1  0
 25 26  1  0
 26 27  1  0
 27 28  1  0
 28 29  1  0
 29 30  1  0
 30 31  1  0
 31 32  1  0
 31 33  2  3
 26 34  1  0
 34 35  2  0
 22 17  1  0
  1 36  1  0
  1 37  1  0
  1 38  1  0
  2 39  1  0
  3 40  1  0
  3 41  1  0
  3 42  1  0
  4 43  1  0
  4 44  1  0
  5 45  1  1
  6 46  1  0
  9 47  1  1
 10 48  1  0
 10 49  1  0
 11 50  1  0
 12 51  1  0
 16 52  1  0
 16 53  1  0
 18 54  1  0
 19 55  1  0
 20 56  1  0
 21 57  1  0
 22 58  1  0
 25 59  1  0
 26 60  1  6
 27 61  1  0
 27 62  1  0
 28 63  1  0
 28 64  1  0
 29 65  1  0
 29 66  1  0
 30 67  1  0
 32 68  1  0
 32 69  1  0
 33 70  1  0
 34 71  1  0
M  END
$$$$
[H]c1c([H])c([H])c(C([H])([H])[C@@]2([H])C(=O)N3C([H])([H])C([H])([H])C([H])([H])[C@@]3([H])C(=O)N([H])[C@@]([H])(C([H])([H])c3c([H])c([H])c([H])c([H])c3[H])C(=O)N3C([H])([H])C([H])([H])C([H])([H])[C@@]3([H])C(=O)N([H])[C@@]([H])(C([H])([H])c3c([H])n([H])c4c([H])c([H])c([H])c([H])c34)C(=O)N([H])[C@@]([H])([C@@]([H])(C([H])([H])[H])C([H])([H])C([H])([H])[H])C(=O)N2[H])c([H])c1[H]
     RDKit          3D

111117  0  0  0  0  0  0  0  0999 V2000
   -5.7850    0.6808   -0.0914 C   0  0  0  0  0  0  0  0  0  0  0  0
   -5.1306    0.9326   -1.3960 C   0  0  0  0  0  0  0  0  0  0  0  0
   -3.7074    1.3337   -1.4194 C   0  0  2  0  0  0  0  0  0  0  0  0
   -3.3789    1.5358   -2.9294 C   0  0  0  0  0  0  0  0  0  0  0  0
   -2.7029    0.3437   -0.8638 C   0  0  2  0  0  0  0  0  0  0  0  0
   -2.7620   -0.9062   -1.5912 N   0  0  0  0  0  0  0  0  0  0  0  0
   -2.4378   -2.2241   -1.3271 C   0  0  0  0  0  0  0  0  0  0  0  0
   -3.4914   -2.9546   -1.1493 O   0  0  0  0  0  0  0  0  0  0  0  0
   -1.1965   -2.9722   -1.2099 C   0  0  2  0  0  0  0  0  0  0  0  0
   -1.2671   -4.4131   -0.8529 C   0  0  0  0  0  0  0  0  0  0  0  0
   -1.8555   -4.8839    0.3619 C   0  0  0  0  0  0  0  0  0  0  0  0
   -1.3391   -4.7204    1.6705 C   0  0  0  0  0  0  0  0  0  0  0  0
   -2.1622   -5.1881    2.5823 N   0  0  0  0  0  0  0  0  0  0  0  0
   -3.2308   -5.6728    1.9526 C   0  0  0  0  0  0  0  0  0  0  0  0
   -4.3264   -6.2904    2.5072 C   0  0  0  0  0  0  0  0  0  0  0  0
   -5.3095   -6.7641    1.6754 C   0  0  0  0  0  0  0  0  0  0  0  0
   -5.1982   -6.6216    0.2971 C   0  0  0  0  0  0  0  0  0  0  0  0
   -4.0982   -6.0021   -0.2187 C   0  0  0  0  0  0  0  0  0  0  0  0
   -3.0634   -5.4957    0.5690 C   0  0  0  0  0  0  0  0  0  0  0  0
   -0.1130   -2.3124   -0.4665 N   0  0  0  0  0  0  0  0  0  0  0  0
    1.2588   -2.3513   -0.7118 C   0  0  0  0  0  0  0  0  0  0  0  0
    2.0525   -2.9969    0.1203 O   0  0  0  0  0  0  0  0  0  0  0  0
    2.0594   -1.7620   -1.8109 C   0  0  2  0  0  0  0  0  0  0  0  0
    2.0874   -2.9106   -2.8373 C   0  0  0  0  0  0  0  0  0  0  0  0
    3.2579   -2.5725   -3.6622 C   0  0  0  0  0  0  0  0  0  0  0  0
    4.1408   -1.7532   -2.8396 C   0  0  0  0  0  0  0  0  0  0  0  0
    3.4697   -1.5591   -1.5219 N   0  0  0  0  0  0  0  0  0  0  0  0
    4.1079   -1.2602   -0.2972 C   0  0  0  0  0  0  0  0  0  0  0  0
    4.8382   -2.2369    0.1454 O   0  0  0  0  0  0  0  0  0  0  0  0
    4.0826   -0.0599    0.5329 C   0  0  2  0  0  0  0  0  0  0  0  0
    5.2721    0.0836    1.4654 C   0  0  0  0  0  0  0  0  0  0  0  0
    6.5966    0.1574    0.8845 C   0  0  0  0  0  0  0  0  0  0  0  0
    7.0994    1.3176    0.2794 C   0  0  0  0  0  0  0  0  0  0  0  0
    8.3796    1.4023   -0.2161 C   0  0  0  0  0  0  0  0  0  0  0  0
    9.2439    0.3192   -0.1351 C   0  0  0  0  0  0  0  0  0  0  0  0
    8.7825   -0.8332    0.4531 C   0  0  0  0  0  0  0  0  0  0  0  0
    7.4759   -0.8935    0.9498 C   0  0  0  0  0  0  0  0  0  0  0  0
    2.9252    0.0355    1.4082 N   0  0  0  0  0  0  0  0  0  0  0  0
    2.0450    1.0939    1.6177 C   0  0  0  0  0  0  0  0  0  0  0  0
    1.9884    1.5066    2.8473 O   0  0  0  0  0  0  0  0  0  0  0  0
    1.1805    1.8021    0.6733 C   0  0  2  0  0  0  0  0  0  0  0  0
    1.7817    2.3896   -0.5386 C   0  0  0  0  0  0  0  0  0  0  0  0
    2.4883    3.6180   -0.0495 C   0  0  0  0  0  0  0  0  0  0  0  0
    1.7395    3.9799    1.2147 C   0  0  0  0  0  0  0  0  0  0  0  0
    0.6758    3.0220    1.3352 N   0  0  0  0  0  0  0  0  0  0  0  0
   -0.5904    3.0773    1.9537 C   0  0  0  0  0  0  0  0  0  0  0  0
   -0.6703    3.5189    3.1648 O   0  0  0  0  0  0  0  0  0  0  0  0
   -1.8550    2.6506    1.2958 C   0  0  2  0  0  0  0  0  0  0  0  0
   -3.0584    3.4323    1.7897 C   0  0  0  0  0  0  0  0  0  0  0  0
   -2.9329    4.8746    1.5135 C   0  0  0  0  0  0  0  0  0  0  0  0
   -3.1879    5.3379    0.2144 C   0  0  0  0  0  0  0  0  0  0  0  0
   -3.1347    6.6655   -0.1084 C   0  0  0  0  0  0  0  0  0  0  0  0
   -2.8202    7.5655    0.8799 C   0  0  0  0  0  0  0  0  0  0  0  0
   -2.5662    7.1560    2.1553 C   0  0  0  0  0  0  0  0  0  0  0  0
   -2.6269    5.8113    2.4557 C   0  0  0  0  0  0  0  0  0  0  0  0
   -2.0659    1.2280    1.4408 N   0  0  0  0  0  0  0  0  0  0  0  0
   -2.6953    0.3187    0.5649 C   0  0  0  0  0  0  0  0  0  0  0  0
   -3.3196   -0.6315    1.2095 O   0  0  0  0  0  0  0  0  0  0  0  0
   -5.3925    1.2468    0.7717 H   0  0  0  0  0  0  0  0  0  0  0  0
   -6.8729    1.0395   -0.1440 H   0  0  0  0  0  0  0  0  0  0  0  0
   -5.9423   -0.4172    0.1334 H   0  0  0  0  0  0  0  0  0  0  0  0
   -5.6941    1.7955   -1.8767 H   0  0  0  0  0  0  0  0  0  0  0  0
   -5.3717    0.0853   -2.0828 H   0  0  0  0  0  0  0  0  0  0  0  0
   -3.6171    2.3125   -0.9916 H   0  0  0  0  0  0  0  0  0  0  0  0
   -2.4316    1.0644   -3.1934 H   0  0  0  0  0  0  0  0  0  0  0  0
   -3.3700    2.6423   -3.1562 H   0  0  0  0  0  0  0  0  0  0  0  0
   -4.1844    1.1213   -3.5663 H   0  0  0  0  0  0  0  0  0  0  0  0
   -1.6968    0.7858   -1.1928 H   0  0  0  0  0  0  0  0  0  0  0  0
   -3.1939   -0.6947   -2.5817 H   0  0  0  0  0  0  0  0  0  0  0  0
   -0.7114   -3.0557   -2.2707 H   0  0  0  0  0  0  0  0  0  0  0  0
   -1.8036   -4.9608   -1.7066 H   0  0  0  0  0  0  0  0  0  0  0  0
   -0.2010   -4.8061   -1.0067 H   0  0  0  0  0  0  0  0  0  0  0  0
   -0.3665   -4.2543    1.7992 H   0  0  0  0  0  0  0  0  0  0  0  0
   -1.9649   -5.1596    3.6292 H   0  0  0  0  0  0  0  0  0  0  0  0
   -4.4477   -6.4172    3.5708 H   0  0  0  0  0  0  0  0  0  0  0  0
   -6.2035   -7.2627    2.0533 H   0  0  0  0  0  0  0  0  0  0  0  0
   -5.9946   -7.0072   -0.3575 H   0  0  0  0  0  0  0  0  0  0  0  0
   -3.9418   -5.8558   -1.2996 H   0  0  0  0  0  0  0  0  0  0  0  0
   -0.4243   -1.7711    0.3713 H   0  0  0  0  0  0  0  0  0  0  0  0
    1.6076   -0.8634   -2.2777 H   0  0  0  0  0  0  0  0  0  0  0  0
    2.1995   -3.8724   -2.2795 H   0  0  0  0  0  0  0  0  0  0  0  0
    1.2081   -2.9009   -3.5058 H   0  0  0  0  0  0  0  0  0  0  0  0
    3.7368   -3.5385   -4.0096 H   0  0  0  0  0  0  0  0  0  0  0  0
    2.9385   -2.0719   -4.6231 H   0  0  0  0  0  0  0  0  0  0  0  0
    4.2716   -0.7814   -3.3860 H   0  0  0  0  0  0  0  0  0  0  0  0
    5.1056   -2.3039   -2.7229 H   0  0  0  0  0  0  0  0  0  0  0  0
    4.1312    0.8945   -0.0553 H   0  0  0  0  0  0  0  0  0  0  0  0
    5.1898   -0.7466    2.2404 H   0  0  0  0  0  0  0  0  0  0  0  0
    5.1550    1.0031    2.1095 H   0  0  0  0  0  0  0  0  0  0  0  0
    6.4107    2.1736    0.2186 H   0  0  0  0  0  0  0  0  0  0  0  0
    8.7447    2.2988   -0.6747 H   0  0  0  0  0  0  0  0  0  0  0  0
   10.2569    0.3768   -0.5245 H   0  0  0  0  0  0  0  0  0  0  0  0
    9.4380   -1.6893    0.5277 H   0  0  0  0  0  0  0  0  0  0  0  0
    7.1962   -1.8158    1.4240 H   0  0  0  0  0  0  0  0  0  0  0  0
    2.7891   -0.8841    1.9511 H   0  0  0  0  0  0  0  0  0  0  0  0
    0.3098    1.1915    0.3372 H   0  0  0  0  0  0  0  0  0  0  0  0
    2.3078    1.7556   -1.2315 H   0  0  0  0  0  0  0  0  0  0  0  0
    0.8945    2.7883   -1.1388 H   0  0  0  0  0  0  0  0  0  0  0  0
    3.5598    3.4931    0.0848 H   0  0  0  0  0  0  0  0  0  0  0  0
    2.3286    4.4689   -0.7663 H   0  0  0  0  0  0  0  0  0  0  0  0
    1.4574    5.0280    1.2611 H   0  0  0  0  0  0  0  0  0  0  0  0
    2.4614    3.7699    2.0545 H   0  0  0  0  0  0  0  0  0  0  0  0
   -1.7384    2.9169    0.2035 H   0  0  0  0  0  0  0  0  0  0  0  0
   -3.1815    3.2624    2.8947 H   0  0  0  0  0  0  0  0  0  0  0  0
   -3.9481    3.0747    1.2346 H   0  0  0  0  0  0  0  0  0  0  0  0
   -3.4379    4.6529   -0.5788 H   0  0  0  0  0  0  0  0  0  0  0  0
   -3.3264    7.0635   -1.0984 H   0  0  0  0  0  0  0  0  0  0  0  0
   -2.7635    8.6402    0.6747 H   0  0  0  0  0  0  0  0  0  0  0  0
   -2.3123    7.8573    2.9629 H   0  0  0  0  0  0  0  0  0  0  0  0
   -2.4467    5.5353    3.4877 H   0  0  0  0  0  0  0  0  0  0  0  0
   -1.6671    0.8440    2.3660 H   0  0  0  0  0  0  0  0  0  0  0  0
  1  2  1  0
  2  3  1  0
  3  4  1  0
  3  5  1  0
  5  6  1  0
  6  7  1  0
  7  8  2  0
  7  9  1  0
  9 10  1  0
 10 11  1  0
 11 12  2  0
 12 13  1  0
 13 14  1  0
 14 15  2  0
 15 16  1  0
 16 17  2  0
 17 18  1  0
 18 19  2  0
  9 20  1  0
 20 21  1  0
 21 22  2  0
 21 23  1  0
 23 24  1  0
 24 25  1  0
 25 26  1  0
 26 27  1  0
 27 28  1  0
 28 29  2  0
 28 30  1  0
 30 31  1  0
 31 32  1  0
 32 33  2  0
 33 34  1  0
 34 35  2  0
 35 36  1  0
 36 37  2  0
 30 38  1  0
 38 39  1  0
 39 40  2  0
 39 41  1  0
 41 42  1  0
 42 43  1  0
 43 44  1  0
 44 45  1  0
 45 46  1  0
 46 47  2  0
 46 48  1  0
 48 49  1  0
 49 50  1  0
 50 51  2  0
 51 52  1  0
 52 53  2  0
 53 54  1  0
 54 55  2  0
 48 56  1  0
 56 57  1  0
 57 58  2  0
 57  5  1  0
 19 11  1  0
 27 23  1  0
 37 32  1  0
 45 41  1  0
 55 50  1  0
 19 14  1  0
  1 59  1  0
  1 60  1  0
  1 61  1  0
  2 62  1  0
  2 63  1  0
  3 64  1  1
  4 65  1  0
  4 66  1  0
  4 67  1  0
  5 68  1  6
  6 69  1  0
  9 70  1  6
 10 71  1  0
 10 72  1  0
 12 73  1  0
 13 74  1  0
 15 75  1  0
 16 76  1  0
 17 77  1  0
 18 78  1  0
 20 79  1  0
 23 80  1  6
 24 81  1  0
 24 82  1  0
 25 83  1  0
 25 84  1  0
 26 85  1  0
 26 86  1  0
 30 87  1  6
 31 88  1  0
 31 89  1  0
 33 90  1  0
 34 91  1  0
 35 92  1  0
 36 93  1  0
 37 94  1  0
 38 95  1  0
 41 96  1  6
 42 97  1  0
 42 98  1  0
 43 99  1  0
 43100  1  0
 44101  1  0
 44102  1  0
 48103  1  6
 49104  1  0
 49105  1  0
 51106  1  0
 52107  1  0
 53108  1  0
 54109  1  0
 55110  1  0
 56111  1  0
M  END
$$$$
[H]OC(=O)[C@@]([H])(N([H])C(=O)[C@@]([H])(C([H])([H])S[H])[C@@]1([H])c2c([H])c([H])c([H])c([H])c2C([H])([H])C1([H])[H])C([H])([H])c1c([H])n([H])c2c([H])c([H])c([H])c([H])c12
     RDKit          3D

 53 56  0  0  0  0  0  0  0  0999 V2000
    2.3492    2.7883   -2.0001 O   0  0  0  0  0  0  0  0  0  0  0  0
    1.7944    1.5877   -1.5606 C   0  0  0  0  0  0  0  0  0  0  0  0
    1.7984    0.6561   -2.4325 O   0  0  0  0  0  0  0  0  0  0  0  0
    1.2294    1.3666   -0.2212 C   0  0  2  0  0  0  0  0  0  0  0  0
    2.2576    1.3001    0.8453 C   0  0  0  0  0  0  0  0  0  0  0  0
    3.2935    0.2860    0.7979 C   0  0  0  0  0  0  0  0  0  0  0  0
    3.2243   -0.9777    1.4121 C   0  0  0  0  0  0  0  0  0  0  0  0
    4.3242   -1.6877    1.1502 N   0  0  0  0  0  0  0  0  0  0  0  0
    5.1463   -0.9439    0.3747 C   0  0  0  0  0  0  0  0  0  0  0  0
    6.3951   -1.2260   -0.1317 C   0  0  0  0  0  0  0  0  0  0  0  0
    7.0442   -0.2690   -0.8794 C   0  0  0  0  0  0  0  0  0  0  0  0
    6.4422    0.9316   -1.1020 C   0  0  0  0  0  0  0  0  0  0  0  0
    5.2086    1.2006   -0.5979 C   0  0  0  0  0  0  0  0  0  0  0  0
    4.5200    0.2742    0.1531 C   0  0  0  0  0  0  0  0  0  0  0  0
    0.4070    0.1453   -0.3058 N   0  0  0  0  0  0  0  0  0  0  0  0
   -0.9980    0.2431   -0.3540 C   0  0  0  0  0  0  0  0  0  0  0  0
   -1.4752    1.4008   -0.3049 O   0  0  0  0  0  0  0  0  0  0  0  0
   -1.9118   -0.9017   -0.4656 C   0  0  1  0  0  0  0  0  0  0  0  0
   -1.1020   -2.1914   -0.1161 C   0  0  0  0  0  0  0  0  0  0  0  0
   -0.5398   -2.0458    1.5700 S   0  0  0  0  0  0  0  0  0  0  0  0
   -3.0459   -0.9242    0.5030 C   0  0  2  0  0  0  0  0  0  0  0  0
   -3.9343   -2.1321    0.1756 C   0  0  0  0  0  0  0  0  0  0  0  0
   -4.9861   -1.4963   -0.7714 C   0  0  0  0  0  0  0  0  0  0  0  0
   -5.1078   -0.1549   -0.1779 C   0  0  0  0  0  0  0  0  0  0  0  0
   -6.1919    0.7095   -0.2820 C   0  0  0  0  0  0  0  0  0  0  0  0
   -6.2074    1.9103    0.3509 C   0  0  0  0  0  0  0  0  0  0  0  0
   -5.1106    2.2650    1.1122 C   0  0  0  0  0  0  0  0  0  0  0  0
   -4.0316    1.3912    1.2075 C   0  0  0  0  0  0  0  0  0  0  0  0
   -3.9791    0.1721    0.5825 C   0  0  0  0  0  0  0  0  0  0  0  0
    1.9288    3.3700   -2.7067 H   0  0  0  0  0  0  0  0  0  0  0  0
    0.5248    2.2427   -0.0438 H   0  0  0  0  0  0  0  0  0  0  0  0
    2.8139    2.2978    0.9231 H   0  0  0  0  0  0  0  0  0  0  0  0
    1.7704    1.2458    1.8696 H   0  0  0  0  0  0  0  0  0  0  0  0
    2.4171   -1.3416    2.0244 H   0  0  0  0  0  0  0  0  0  0  0  0
    4.5533   -2.6666    1.4731 H   0  0  0  0  0  0  0  0  0  0  0  0
    6.8454   -2.1948    0.0638 H   0  0  0  0  0  0  0  0  0  0  0  0
    8.0216   -0.4729   -1.2836 H   0  0  0  0  0  0  0  0  0  0  0  0
    6.9594    1.6991   -1.6969 H   0  0  0  0  0  0  0  0  0  0  0  0
    4.7419    2.1855   -0.7612 H   0  0  0  0  0  0  0  0  0  0  0  0
    0.8885   -0.7474   -0.3287 H   0  0  0  0  0  0  0  0  0  0  0  0
   -2.2988   -1.0882   -1.4843 H   0  0  0  0  0  0  0  0  0  0  0  0
   -0.2688   -2.2886   -0.8540 H   0  0  0  0  0  0  0  0  0  0  0  0
   -1.7348   -3.0429   -0.2505 H   0  0  0  0  0  0  0  0  0  0  0  0
   -0.5635   -0.7352    2.0641 H   0  0  0  0  0  0  0  0  0  0  0  0
   -2.5941   -1.1941    1.5031 H   0  0  0  0  0  0  0  0  0  0  0  0
   -4.4051   -2.5627    1.0539 H   0  0  0  0  0  0  0  0  0  0  0  0
   -3.4812   -2.9035   -0.4314 H   0  0  0  0  0  0  0  0  0  0  0  0
   -5.8992   -2.1048   -0.7394 H   0  0  0  0  0  0  0  0  0  0  0  0
   -4.5497   -1.3814   -1.7778 H   0  0  0  0  0  0  0  0  0  0  0  0
   -7.0729    0.4451   -0.8815 H   0  0  0  0  0  0  0  0  0  0  0  0
   -7.0709    2.5737    0.2551 H   0  0  0  0  0  0  0  0  0  0  0  0
   -5.1224    3.2340    1.6250 H   0  0  0  0  0  0  0  0  0  0  0  0
   -3.2161    1.7534    1.8527 H   0  0  0  0  0  0  0  0  0  0  0  0
  1  2  1  0
  2  3  2  0
  2  4  1  0
  4  5  1  0
  5  6  1  0
  6  7  2  0
  7  8  1  0
  8  9  1  0
  9 10  2  0
 10 11  1  0
 11 12  2  0
 12 13  1  0
 13 14  2  0
  4 15  1  0
 15 16  1  0
 16 17  2  0
 16 18  1  0
 18 19  1  0
 19 20  1  0
 18 21  1  0
 21 22  1  0
 22 23  1  0
 23 24  1  0
 24 25  2  0
 25 26  1  0
 26 27  2  0
 27 28  1  0
 28 29  2  0
 14  6  1  0
 29 21  1  0
 14  9  1  0
 29 24  1  0
  1 30  1  0
  4 31  1  1
  5 32  1  0
  5 33  1  0
  7 34  1  0
  8 35  1  0
 10 36  1  0
 11 37  1  0
 12 38  1  0
 13 39  1  0
 15 40  1  0
 18 41  1  6
 19 42  1  0
 19 43  1  0
 20 44  1  0
 21 45  1  1
 22 46  1  0
 22 47  1  0
 23 48  1  0
 23 49  1  0
 25 50  1  0
 26 51  1  0
 27 52  1  0
 28 53  1  0
M  END
$$$$
[H]Oc1c([H])c([H])c(C([H])([H])[C@@]2([H])C(=O)N([H])[C@@]([H])(C([H])([H])C([H])([H])C([H])([H])C([H])([H])N([H])[H])C(=O)N([H])[C@@]([H])(C([H])([H])c3c([H])n([H])c4c([H])c([H])c([H])c([H])c34)C(=O)N([H])[C@@]([H])([C@@]([H])(C([H])([H])[H])C([H])([H])C([H])([H])[H])C(=O)N([H])[C@@]([H])(C([H])([H])C(=O)N([H])[H])C(=O)N2[H])c([H])c1[H]
     RDKit          3D

 99102  0  0  0  0  0  0  0  0999 V2000
    4.1349   -3.7229   -3.0119 C   0  0  0  0  0  0  0  0  0  0  0  0
    2.7902   -3.4613   -2.3777 C   0  0  0  0  0  0  0  0  0  0  0  0
    2.9337   -2.9988   -0.9412 C   0  0  2  0  0  0  0  0  0  0  0  0
    3.6352   -4.0702   -0.1715 C   0  0  0  0  0  0  0  0  0  0  0  0
    1.6069   -2.5813   -0.3577 C   0  0  2  0  0  0  0  0  0  0  0  0
    1.7977   -2.1531    1.0060 N   0  0  0  0  0  0  0  0  0  0  0  0
    1.7974   -0.8247    1.4837 C   0  0  0  0  0  0  0  0  0  0  0  0
    1.1110   -0.5494    2.5073 O   0  0  0  0  0  0  0  0  0  0  0  0
    2.5546    0.2935    0.8676 C   0  0  2  0  0  0  0  0  0  0  0  0
    3.8272    0.4360    1.6352 C   0  0  0  0  0  0  0  0  0  0  0  0
    4.7439    1.5053    1.2177 C   0  0  0  0  0  0  0  0  0  0  0  0
    5.8133    1.4169    0.3219 C   0  0  0  0  0  0  0  0  0  0  0  0
    6.4042    2.6035    0.1596 N   0  0  0  0  0  0  0  0  0  0  0  0
    5.7288    3.4796    0.9477 C   0  0  0  0  0  0  0  0  0  0  0  0
    5.9907    4.8230    1.1152 C   0  0  0  0  0  0  0  0  0  0  0  0
    5.1958    5.5738    1.9881 C   0  0  0  0  0  0  0  0  0  0  0  0
    4.1782    4.9267    2.6460 C   0  0  0  0  0  0  0  0  0  0  0  0
    3.9345    3.5902    2.4646 C   0  0  0  0  0  0  0  0  0  0  0  0
    4.7019    2.8123    1.6055 C   0  0  0  0  0  0  0  0  0  0  0  0
    1.8502    1.5188    0.7339 N   0  0  0  0  0  0  0  0  0  0  0  0
    0.5729    1.9003    1.1307 C   0  0  0  0  0  0  0  0  0  0  0  0
    0.4133    2.8025    2.0319 O   0  0  0  0  0  0  0  0  0  0  0  0
   -0.7305    1.3747    0.6210 C   0  0  2  0  0  0  0  0  0  0  0  0
   -1.1886    2.1895   -0.5726 C   0  0  0  0  0  0  0  0  0  0  0  0
   -0.2343    2.1529   -1.7113 C   0  0  0  0  0  0  0  0  0  0  0  0
   -0.7088    2.9774   -2.8891 C   0  0  0  0  0  0  0  0  0  0  0  0
   -0.8622    4.4210   -2.4703 C   0  0  0  0  0  0  0  0  0  0  0  0
    0.4143    4.9356   -2.0018 N   0  0  0  0  0  0  0  0  0  0  0  0
   -1.7532    1.3047    1.6460 N   0  0  0  0  0  0  0  0  0  0  0  0
   -2.7255    0.3042    1.8146 C   0  0  0  0  0  0  0  0  0  0  0  0
   -3.1874    0.1435    3.0010 O   0  0  0  0  0  0  0  0  0  0  0  0
   -3.2551   -0.5697    0.7539 C   0  0  2  0  0  0  0  0  0  0  0  0
   -4.6537   -0.2766    0.3663 C   0  0  0  0  0  0  0  0  0  0  0  0
   -5.6911   -0.3833    1.3700 C   0  0  0  0  0  0  0  0  0  0  0  0
   -6.0937    0.6635    2.1499 C   0  0  0  0  0  0  0  0  0  0  0  0
   -7.0817    0.5969    3.1108 C   0  0  0  0  0  0  0  0  0  0  0  0
   -7.7136   -0.6197    3.3009 C   0  0  0  0  0  0  0  0  0  0  0  0
   -8.7183   -0.6884    4.2767 O   0  0  0  0  0  0  0  0  0  0  0  0
   -7.3489   -1.6863    2.5522 C   0  0  0  0  0  0  0  0  0  0  0  0
   -6.3424   -1.5875    1.5846 C   0  0  0  0  0  0  0  0  0  0  0  0
   -3.0789   -1.9769    1.0185 N   0  0  0  0  0  0  0  0  0  0  0  0
   -2.0535   -2.7937    0.5152 C   0  0  0  0  0  0  0  0  0  0  0  0
   -1.5598   -3.6294    1.3564 O   0  0  0  0  0  0  0  0  0  0  0  0
   -1.5152   -2.7746   -0.8478 C   0  0  2  0  0  0  0  0  0  0  0  0
   -2.5723   -2.8345   -1.9194 C   0  0  0  0  0  0  0  0  0  0  0  0
   -1.9214   -2.8108   -3.2587 C   0  0  0  0  0  0  0  0  0  0  0  0
   -2.7431   -2.8580   -4.4245 N   0  0  0  0  0  0  0  0  0  0  0  0
   -0.6599   -2.7496   -3.3335 O   0  0  0  0  0  0  0  0  0  0  0  0
   -0.5506   -3.8087   -1.0373 N   0  0  0  0  0  0  0  0  0  0  0  0
    0.7291   -3.7918   -0.4253 C   0  0  0  0  0  0  0  0  0  0  0  0
    1.2032   -4.8379    0.1107 O   0  0  0  0  0  0  0  0  0  0  0  0
    3.9910   -3.5809   -4.1220 H   0  0  0  0  0  0  0  0  0  0  0  0
    4.3995   -4.8175   -2.9244 H   0  0  0  0  0  0  0  0  0  0  0  0
    4.9318   -3.0923   -2.6254 H   0  0  0  0  0  0  0  0  0  0  0  0
    2.2357   -2.6593   -2.9377 H   0  0  0  0  0  0  0  0  0  0  0  0
    2.1894   -4.3701   -2.4887 H   0  0  0  0  0  0  0  0  0  0  0  0
    3.6074   -2.1217   -0.9847 H   0  0  0  0  0  0  0  0  0  0  0  0
    4.7525   -3.8967   -0.2196 H   0  0  0  0  0  0  0  0  0  0  0  0
    3.5295   -5.0940   -0.6367 H   0  0  0  0  0  0  0  0  0  0  0  0
    3.4101   -4.0994    0.9034 H   0  0  0  0  0  0  0  0  0  0  0  0
    1.2062   -1.7636   -0.9968 H   0  0  0  0  0  0  0  0  0  0  0  0
    1.9510   -2.9342    1.7125 H   0  0  0  0  0  0  0  0  0  0  0  0
    2.7639   -0.0456   -0.1894 H   0  0  0  0  0  0  0  0  0  0  0  0
    4.3751   -0.5564    1.6693 H   0  0  0  0  0  0  0  0  0  0  0  0
    3.5790    0.5957    2.7323 H   0  0  0  0  0  0  0  0  0  0  0  0
    6.0990    0.4983   -0.1586 H   0  0  0  0  0  0  0  0  0  0  0  0
    7.2336    2.8255   -0.4573 H   0  0  0  0  0  0  0  0  0  0  0  0
    6.7840    5.3505    0.6093 H   0  0  0  0  0  0  0  0  0  0  0  0
    5.3718    6.6285    2.1441 H   0  0  0  0  0  0  0  0  0  0  0  0
    3.5532    5.4793    3.3220 H   0  0  0  0  0  0  0  0  0  0  0  0
    3.1248    3.0948    2.9976 H   0  0  0  0  0  0  0  0  0  0  0  0
    2.4070    2.2829    0.2246 H   0  0  0  0  0  0  0  0  0  0  0  0
   -0.5502    0.3482    0.2436 H   0  0  0  0  0  0  0  0  0  0  0  0
   -1.3449    3.2152   -0.1941 H   0  0  0  0  0  0  0  0  0  0  0  0
   -2.1748    1.8390   -0.9258 H   0  0  0  0  0  0  0  0  0  0  0  0
   -0.1515    1.0984   -2.1105 H   0  0  0  0  0  0  0  0  0  0  0  0
    0.7826    2.4928   -1.4926 H   0  0  0  0  0  0  0  0  0  0  0  0
   -1.6353    2.5906   -3.3232 H   0  0  0  0  0  0  0  0  0  0  0  0
    0.0905    2.9317   -3.6753 H   0  0  0  0  0  0  0  0  0  0  0  0
   -1.2214    5.0103   -3.3610 H   0  0  0  0  0  0  0  0  0  0  0  0
   -1.6126    4.5624   -1.6796 H   0  0  0  0  0  0  0  0  0  0  0  0
    0.9201    5.2691   -2.8680 H   0  0  0  0  0  0  0  0  0  0  0  0
    0.2772    5.7776   -1.3811 H   0  0  0  0  0  0  0  0  0  0  0  0
   -1.7595    2.0963    2.3320 H   0  0  0  0  0  0  0  0  0  0  0  0
   -2.6122   -0.3731   -0.1571 H   0  0  0  0  0  0  0  0  0  0  0  0
   -4.6733    0.7910   -0.0166 H   0  0  0  0  0  0  0  0  0  0  0  0
   -4.9276   -0.8624   -0.5637 H   0  0  0  0  0  0  0  0  0  0  0  0
   -5.6117    1.6148    2.0153 H   0  0  0  0  0  0  0  0  0  0  0  0
   -7.3910    1.4347    3.7221 H   0  0  0  0  0  0  0  0  0  0  0  0
   -8.9729    0.1036    4.8166 H   0  0  0  0  0  0  0  0  0  0  0  0
   -7.8601   -2.6445    2.7154 H   0  0  0  0  0  0  0  0  0  0  0  0
   -6.1275   -2.4944    1.0431 H   0  0  0  0  0  0  0  0  0  0  0  0
   -3.7856   -2.4401    1.6498 H   0  0  0  0  0  0  0  0  0  0  0  0
   -0.9891   -1.7832   -0.9882 H   0  0  0  0  0  0  0  0  0  0  0  0
   -3.2202   -1.9201   -1.8975 H   0  0  0  0  0  0  0  0  0  0  0  0
   -3.2485   -3.6958   -1.8098 H   0  0  0  0  0  0  0  0  0  0  0  0
   -3.6755   -2.4151   -4.3833 H   0  0  0  0  0  0  0  0  0  0  0  0
   -2.3712   -3.3439   -5.2916 H   0  0  0  0  0  0  0  0  0  0  0  0
   -0.7685   -4.6345   -1.6520 H   0  0  0  0  0  0  0  0  0  0  0  0
  1  2  1  0
  2  3  1  0
  3  4  1  0
  3  5  1  0
  5  6  1  0
  6  7  1  0
  7  8  2  0
  7  9  1  0
  9 10  1  0
 10 11  1  0
 11 12  2  0
 12 13  1  0
 13 14  1  0
 14 15  2  0
 15 16  1  0
 16 17  2  0
 17 18  1  0
 18 19  2  0
  9 20  1  0
 20 21  1  0
 21 22  2  0
 21 23  1  0
 23 24  1  0
 24 25  1  0
 25 26  1  0
 26 27  1  0
 27 28  1  0
 23 29  1  0
 29 30  1  0
 30 31  2  0
 30 32  1  0
 32 33  1  0
 33 34  1  0
 34 35  2  0
 35 36  1  0
 36 37  2  0
 37 38  1  0
 37 39  1  0
 39 40  2  0
 32 41  1  0
 41 42  1  0
 42 43  2  0
 42 44  1  0
 44 45  1  0
 45 46  1  0
 46 47  1  0
 46 48  2  0
 44 49  1  0
 49 50  1  0
 50 51  2  0
 50  5  1  0
 19 11  1  0
 40 34  1  0
 19 14  1  0
  1 52  1  0
  1 53  1  0
  1 54  1  0
  2 55  1  0
  2 56  1  0
  3 57  1  6
  4 58  1  0
  4 59  1  0
  4 60  1  0
  5 61  1  6
  6 62  1  0
  9 63  1  6
 10 64  1  0
 10 65  1  0
 12 66  1  0
 13 67  1  0
 15 68  1  0
 16 69  1  0
 17 70  1  0
 18 71  1  0
 20 72  1  0
 23 73  1  6
 24 74  1  0
 24 75  1  0
 25 76  1  0
 25 77  1  0
 26 78  1  0
 26 79  1  0
 27 80  1  0
 27 81  1  0
 28 82  1  0
 28 83  1  0
 29 84  1  0
 32 85  1  6
 33 86  1  0
 33 87  1  0
 35 88  1  0
 36 89  1  0
 38 90  1  0
 39 91  1  0
 40 92  1  0
 41 93  1  0
 44 94  1  6
 45 95  1  0
 45 96  1  0
 47 97  1  0
 47 98  1  0
 49 99  1  0
M  END
$$$$
[H]c1oc(C(=O)N2C([H])([H])C([H])([H])N(c3nc(N([H])[H])c4c([H])c(OC([H])([H])[H])c(OC([H])([H])[H])c([H])c4n3)C([H])([H])C2([H])[H])c([H])c1[H]
     RDKit          3D

 49 52  0  0  0  0  0  0  0  0999 V2000
   -4.4417    3.8483   -1.0782 C   0  0  0  0  0  0  0  0  0  0  0  0
   -5.1209    2.6915   -0.6539 O   0  0  0  0  0  0  0  0  0  0  0  0
   -4.4452    1.5500   -0.2596 C   0  0  0  0  0  0  0  0  0  0  0  0
   -3.0453    1.5755   -0.2941 C   0  0  0  0  0  0  0  0  0  0  0  0
   -2.3366    0.4596    0.0904 C   0  0  0  0  0  0  0  0  0  0  0  0
   -0.9845    0.4372    0.0738 N   0  0  0  0  0  0  0  0  0  0  0  0
   -0.2808   -0.6373    0.4437 C   0  0  0  0  0  0  0  0  0  0  0  0
   -0.9372   -1.7292    0.8445 N   0  0  0  0  0  0  0  0  0  0  0  0
   -2.2709   -1.7994    0.8937 C   0  0  0  0  0  0  0  0  0  0  0  0
   -2.8941   -2.9847    1.3271 N   0  0  0  0  0  0  0  0  0  0  0  0
   -2.9958   -0.6938    0.5131 C   0  0  0  0  0  0  0  0  0  0  0  0
   -4.3750   -0.6674    0.5287 C   0  0  0  0  0  0  0  0  0  0  0  0
   -5.1202    0.4214    0.1545 C   0  0  0  0  0  0  0  0  0  0  0  0
   -6.5107    0.4477    0.1704 O   0  0  0  0  0  0  0  0  0  0  0  0
   -7.3019   -0.6335    0.5698 C   0  0  0  0  0  0  0  0  0  0  0  0
    1.1254   -0.6357    0.4176 N   0  0  0  0  0  0  0  0  0  0  0  0
    1.8349    0.5537   -0.0191 C   0  0  0  0  0  0  0  0  0  0  0  0
    3.0063    0.1825   -0.9153 C   0  0  0  0  0  0  0  0  0  0  0  0
    3.7233   -0.9467   -0.4165 N   0  0  0  0  0  0  0  0  0  0  0  0
    2.8916   -2.1701   -0.2699 C   0  0  0  0  0  0  0  0  0  0  0  0
    1.8798   -1.8058    0.8208 C   0  0  0  0  0  0  0  0  0  0  0  0
    5.0715   -1.0353   -0.0575 C   0  0  0  0  0  0  0  0  0  0  0  0
    5.5118   -2.1579    0.3688 O   0  0  0  0  0  0  0  0  0  0  0  0
    6.0239    0.0526   -0.1288 C   0  0  0  0  0  0  0  0  0  0  0  0
    7.3830   -0.0149    0.2255 C   0  0  0  0  0  0  0  0  0  0  0  0
    7.9467    1.2181    0.0176 C   0  0  0  0  0  0  0  0  0  0  0  0
    6.9173    2.0009   -0.4565 C   0  0  0  0  0  0  0  0  0  0  0  0
    5.8421    1.2811   -0.5193 O   0  0  0  0  0  0  0  0  0  0  0  0
   -5.1758    4.6732   -1.1851 H   0  0  0  0  0  0  0  0  0  0  0  0
   -3.9330    3.7361   -2.0386 H   0  0  0  0  0  0  0  0  0  0  0  0
   -3.7004    4.1975   -0.3088 H   0  0  0  0  0  0  0  0  0  0  0  0
   -2.5238    2.4653   -0.6205 H   0  0  0  0  0  0  0  0  0  0  0  0
   -2.5313   -3.9286    1.0738 H   0  0  0  0  0  0  0  0  0  0  0  0
   -3.7488   -2.9519    1.9226 H   0  0  0  0  0  0  0  0  0  0  0  0
   -4.8759   -1.5575    0.8548 H   0  0  0  0  0  0  0  0  0  0  0  0
   -8.3096   -0.2886    0.8802 H   0  0  0  0  0  0  0  0  0  0  0  0
   -7.3609   -1.4191   -0.2162 H   0  0  0  0  0  0  0  0  0  0  0  0
   -6.8125   -1.0943    1.4689 H   0  0  0  0  0  0  0  0  0  0  0  0
    2.1513    1.1215    0.8731 H   0  0  0  0  0  0  0  0  0  0  0  0
    1.1764    1.2226   -0.6119 H   0  0  0  0  0  0  0  0  0  0  0  0
    2.5541   -0.1305   -1.9061 H   0  0  0  0  0  0  0  0  0  0  0  0
    3.5803    1.0808   -1.1110 H   0  0  0  0  0  0  0  0  0  0  0  0
    2.3585   -2.3940   -1.2035 H   0  0  0  0  0  0  0  0  0  0  0  0
    3.5039   -3.0082    0.0527 H   0  0  0  0  0  0  0  0  0  0  0  0
    1.2021   -2.6491    1.0415 H   0  0  0  0  0  0  0  0  0  0  0  0
    2.4498   -1.5618    1.7481 H   0  0  0  0  0  0  0  0  0  0  0  0
    7.8745   -0.8949    0.5944 H   0  0  0  0  0  0  0  0  0  0  0  0
    8.9877    1.5144    0.1911 H   0  0  0  0  0  0  0  0  0  0  0  0
    7.0366    3.0587   -0.7247 H   0  0  0  0  0  0  0  0  0  0  0  0
  1  2  1  0
  2  3  1  0
  3  4  2  0
  4  5  1  0
  5  6  2  0
  6  7  1  0
  7  8  2  0
  8  9  1  0
  9 10  1  0
  9 11  2  0
 11 12  1  0
 12 13  2  0
 13 14  1  0
 14 15  1  0
  7 16  1  0
 16 17  1  0
 17 18  1  0
 18 19  1  0
 19 20  1  0
 20 21  1  0
 19 22  1  0
 22 23  2  0
 22 24  1  0
 24 25  2  0
 25 26  1  0
 26 27  2  0
 27 28  1  0
 13  3  1  0
 21 16  1  0
 28 24  1  0
 11  5  1  0
  1 29  1  0
  1 30  1  0
  1 31  1  0
  4 32  1  0
 10 33  1  0
 10 34  1  0
 12 35  1  0
 15 36  1  0
 15 37  1  0
 15 38  1  0
 17 39  1  0
 17 40  1  0
 18 41  1  0
 18 42  1  0
 20 43  1  0
 20 44  1  0
 21 45  1  0
 21 46  1  0
 25 47  1  0
 26 48  1  0
 27 49  1  0
M  END
$$$$
[H]c1nc(OC([H])([H])[H])c(N([H])S(=O)(=O)C([H])([H])[H])c([H])c1-c1c([H])c(OC([H])([H])[H])c2nc(N3C([H])([H])C([H])([H])OC([H])([H])C3([H])[H])n([H])c2c1[H]
     RDKit          3D

 53 56  0  0  0  0  0  0  0  0999 V2000
    5.9219    0.1758   -4.2056 C   0  0  0  0  0  0  0  0  0  0  0  0
    5.8633    0.1973   -2.8036 O   0  0  0  0  0  0  0  0  0  0  0  0
    4.6169    0.0656   -2.1778 C   0  0  0  0  0  0  0  0  0  0  0  0
    3.4885   -0.0793   -2.8943 N   0  0  0  0  0  0  0  0  0  0  0  0
    2.2629   -0.2100   -2.3595 C   0  0  0  0  0  0  0  0  0  0  0  0
    2.0964   -0.2018   -0.9924 C   0  0  0  0  0  0  0  0  0  0  0  0
    3.2553   -0.0525   -0.2271 C   0  0  0  0  0  0  0  0  0  0  0  0
    4.5037    0.0803   -0.7983 C   0  0  0  0  0  0  0  0  0  0  0  0
    5.6646    0.2246    0.0168 N   0  0  0  0  0  0  0  0  0  0  0  0
    5.5907    0.5235    1.7138 S   0  0  0  0  0  0  0  0  0  0  0  0
    4.7691    2.0715    1.9692 C   0  0  0  0  0  0  0  0  0  0  0  0
    7.0162    0.5963    2.2278 O   0  0  0  0  0  0  0  0  0  0  0  0
    4.8888   -0.6158    2.4207 O   0  0  0  0  0  0  0  0  0  0  0  0
    0.7752   -0.3429   -0.3725 C   0  0  0  0  0  0  0  0  0  0  0  0
    0.6855   -0.9635    0.8732 C   0  0  0  0  0  0  0  0  0  0  0  0
   -0.5183   -1.1265    1.5038 C   0  0  0  0  0  0  0  0  0  0  0  0
   -0.5599   -1.7453    2.7341 O   0  0  0  0  0  0  0  0  0  0  0  0
    0.5812   -2.2220    3.3807 C   0  0  0  0  0  0  0  0  0  0  0  0
   -1.6644   -0.6684    0.8958 C   0  0  0  0  0  0  0  0  0  0  0  0
   -2.9549   -0.6701    1.2303 N   0  0  0  0  0  0  0  0  0  0  0  0
   -3.7170   -0.0880    0.2790 C   0  0  0  0  0  0  0  0  0  0  0  0
   -2.8449    0.2887   -0.6868 N   0  0  0  0  0  0  0  0  0  0  0  0
   -1.5928   -0.0468   -0.3473 C   0  0  0  0  0  0  0  0  0  0  0  0
   -0.3670    0.1129   -0.9771 C   0  0  0  0  0  0  0  0  0  0  0  0
   -5.1200    0.0967    0.2752 N   0  0  0  0  0  0  0  0  0  0  0  0
   -5.7442    0.7432   -0.8422 C   0  0  0  0  0  0  0  0  0  0  0  0
   -7.1845    0.3707   -1.0104 C   0  0  0  0  0  0  0  0  0  0  0  0
   -7.9120    0.2681    0.1408 O   0  0  0  0  0  0  0  0  0  0  0  0
   -7.2334    0.3959    1.3190 C   0  0  0  0  0  0  0  0  0  0  0  0
   -5.9221   -0.3553    1.3754 C   0  0  0  0  0  0  0  0  0  0  0  0
    6.4862    1.0436   -4.6060 H   0  0  0  0  0  0  0  0  0  0  0  0
    6.3929   -0.7662   -4.5937 H   0  0  0  0  0  0  0  0  0  0  0  0
    4.8923    0.1781   -4.6101 H   0  0  0  0  0  0  0  0  0  0  0  0
    1.3810   -0.3253   -2.9967 H   0  0  0  0  0  0  0  0  0  0  0  0
    3.1015   -0.0517    0.8343 H   0  0  0  0  0  0  0  0  0  0  0  0
    6.5944    0.1360   -0.4850 H   0  0  0  0  0  0  0  0  0  0  0  0
    3.6917    1.9333    2.0047 H   0  0  0  0  0  0  0  0  0  0  0  0
    4.9944    2.7027    1.0631 H   0  0  0  0  0  0  0  0  0  0  0  0
    5.1763    2.6098    2.8537 H   0  0  0  0  0  0  0  0  0  0  0  0
    1.5863   -1.3191    1.3428 H   0  0  0  0  0  0  0  0  0  0  0  0
    1.3793   -1.4560    3.3670 H   0  0  0  0  0  0  0  0  0  0  0  0
    1.0106   -3.1355    2.8901 H   0  0  0  0  0  0  0  0  0  0  0  0
    0.3242   -2.4519    4.4567 H   0  0  0  0  0  0  0  0  0  0  0  0
   -3.1261    0.7703   -1.5630 H   0  0  0  0  0  0  0  0  0  0  0  0
   -0.3126    0.5960   -1.9427 H   0  0  0  0  0  0  0  0  0  0  0  0
   -5.6060    1.8430   -0.8426 H   0  0  0  0  0  0  0  0  0  0  0  0
   -5.2104    0.3844   -1.7645 H   0  0  0  0  0  0  0  0  0  0  0  0
   -7.3060   -0.5487   -1.6503 H   0  0  0  0  0  0  0  0  0  0  0  0
   -7.6591    1.1881   -1.6293 H   0  0  0  0  0  0  0  0  0  0  0  0
   -7.0311    1.4287    1.6415 H   0  0  0  0  0  0  0  0  0  0  0  0
   -7.8864   -0.0494    2.1267 H   0  0  0  0  0  0  0  0  0  0  0  0
   -5.4665   -0.0865    2.3678 H   0  0  0  0  0  0  0  0  0  0  0  0
   -6.0517   -1.4466    1.4009 H   0  0  0  0  0  0  0  0  0  0  0  0
  1  2  1  0
  2  3  1  0
  3  4  2  0
  4  5  1  0
  5  6  2  0
  6  7  1  0
  7  8  2  0
  8  9  1  0
  9 10  1  0
 10 11  1  0
 10 12  2  0
 10 13  2  0
  6 14  1  0
 14 15  2  0
 15 16  1  0
 16 17  1  0
 17 18  1  0
 16 19  2  0
 19 20  1  0
 20 21  2  0
 21 22  1  0
 22 23  1  0
 23 24  2  0
 21 25  1  0
 25 26  1  0
 26 27  1  0
 27 28  1  0
 28 29  1  0
 29 30  1  0
  8  3  1  0
 24 14  1  0
 30 25  1  0
 23 19  1  0
  1 31  1  0
  1 32  1  0
  1 33  1  0
  5 34  1  0
  7 35  1  0
  9 36  1  0
 11 37  1  0
 11 38  1  0
 11 39  1  0
 15 40  1  0
 18 41  1  0
 18 42  1  0
 18 43  1  0
 22 44  1  0
 24 45  1  0
 26 46  1  0
 26 47  1  0
 27 48  1  0
 27 49  1  0
 29 50  1  0
 29 51  1  0
 30 52  1  0
 30 53  1  0
M  END
$$$$
[H]N=C(c1c([H])c([H])c([H])c(C([H])([H])[C@]([H])(C(=O)N2C([H])([H])C([H])([H])C([H])(C([H])([H])C([H])([H])N=C(N([H])[H])N([H])[H])C([H])([H])C2([H])[H])N([H])S(=O)(=O)c2c([H])c([H])c3c([H])c([H])c([H])c([H])c3c2[H])c1[H])N([H])[H]
     RDKit          3D

 74 77  0  0  0  0  0  0  0  0999 V2000
    6.6420   -3.0476   -1.5455 N   0  0  0  0  0  0  0  0  0  0  0  0
    6.9301   -2.3275   -0.3677 C   0  0  0  0  0  0  0  0  0  0  0  0
    8.2380   -1.9512    0.0175 N   0  0  0  0  0  0  0  0  0  0  0  0
    5.9741   -1.9826    0.4161 N   0  0  0  0  0  0  0  0  0  0  0  0
    4.6136   -2.3517    0.0562 C   0  0  0  0  0  0  0  0  0  0  0  0
    3.7139   -1.7122    1.0842 C   0  0  0  0  0  0  0  0  0  0  0  0
    2.2363   -2.0252    0.8666 C   0  0  0  0  0  0  0  0  0  0  0  0
    1.8267   -1.5114   -0.4766 C   0  0  0  0  0  0  0  0  0  0  0  0
    1.6692    0.0100   -0.3463 C   0  0  0  0  0  0  0  0  0  0  0  0
    0.4575    0.1745    0.4246 N   0  0  0  0  0  0  0  0  0  0  0  0
    0.4446   -0.4119    1.7345 C   0  0  0  0  0  0  0  0  0  0  0  0
    1.3906   -1.5270    1.9744 C   0  0  0  0  0  0  0  0  0  0  0  0
   -0.6337    0.8635   -0.1394 C   0  0  0  0  0  0  0  0  0  0  0  0
   -0.4450    1.2764   -1.3496 O   0  0  0  0  0  0  0  0  0  0  0  0
   -1.9292    1.1492    0.4903 C   0  0  1  0  0  0  0  0  0  0  0  0
   -1.8672    2.0413    1.7085 C   0  0  0  0  0  0  0  0  0  0  0  0
   -1.3101    3.3694    1.4757 C   0  0  0  0  0  0  0  0  0  0  0  0
    0.0296    3.5973    1.6380 C   0  0  0  0  0  0  0  0  0  0  0  0
    0.6147    4.8059    1.4355 C   0  0  0  0  0  0  0  0  0  0  0  0
   -0.1558    5.8815    1.0448 C   0  0  0  0  0  0  0  0  0  0  0  0
   -1.5046    5.6986    0.8702 C   0  0  0  0  0  0  0  0  0  0  0  0
   -2.0763    4.4370    1.0878 C   0  0  0  0  0  0  0  0  0  0  0  0
   -2.3220    6.8218    0.4603 C   0  0  0  0  0  0  0  0  0  0  0  0
   -3.7322    6.5921    0.2882 N   0  0  0  0  0  0  0  0  0  0  0  0
   -1.8498    7.9782    0.2517 N   0  0  0  0  0  0  0  0  0  0  0  0
   -2.7966    1.7353   -0.5222 N   0  0  0  0  0  0  0  0  0  0  0  0
   -4.1702    0.7665   -0.8588 S   0  0  0  0  0  0  0  0  0  0  0  0
   -5.0047    0.6176    0.3670 O   0  0  0  0  0  0  0  0  0  0  0  0
   -4.9850    1.4856   -1.8971 O   0  0  0  0  0  0  0  0  0  0  0  0
   -3.7084   -0.8063   -1.4881 C   0  0  0  0  0  0  0  0  0  0  0  0
   -3.5226   -1.0187   -2.8458 C   0  0  0  0  0  0  0  0  0  0  0  0
   -3.1579   -2.2532   -3.3404 C   0  0  0  0  0  0  0  0  0  0  0  0
   -2.9626   -3.3300   -2.5037 C   0  0  0  0  0  0  0  0  0  0  0  0
   -2.5937   -4.5712   -3.0159 C   0  0  0  0  0  0  0  0  0  0  0  0
   -2.3975   -5.6504   -2.1745 C   0  0  0  0  0  0  0  0  0  0  0  0
   -2.5812   -5.4462   -0.8206 C   0  0  0  0  0  0  0  0  0  0  0  0
   -2.9467   -4.2148   -0.3179 C   0  0  0  0  0  0  0  0  0  0  0  0
   -3.1440   -3.1336   -1.1517 C   0  0  0  0  0  0  0  0  0  0  0  0
   -3.5121   -1.8870   -0.6536 C   0  0  0  0  0  0  0  0  0  0  0  0
    6.1895   -2.5961   -2.3722 H   0  0  0  0  0  0  0  0  0  0  0  0
    6.8883   -4.0573   -1.5897 H   0  0  0  0  0  0  0  0  0  0  0  0
    8.8856   -2.6257    0.4550 H   0  0  0  0  0  0  0  0  0  0  0  0
    8.5482   -0.9801   -0.1439 H   0  0  0  0  0  0  0  0  0  0  0  0
    4.4431   -3.4383    0.0473 H   0  0  0  0  0  0  0  0  0  0  0  0
    4.3856   -1.9519   -0.9687 H   0  0  0  0  0  0  0  0  0  0  0  0
    3.9324   -0.6272    1.0535 H   0  0  0  0  0  0  0  0  0  0  0  0
    4.0293   -2.0320    2.1094 H   0  0  0  0  0  0  0  0  0  0  0  0
    2.1654   -3.1614    0.7828 H   0  0  0  0  0  0  0  0  0  0  0  0
    2.4668   -1.7853   -1.3102 H   0  0  0  0  0  0  0  0  0  0  0  0
    0.7803   -1.9045   -0.6833 H   0  0  0  0  0  0  0  0  0  0  0  0
    1.5787    0.4363   -1.3674 H   0  0  0  0  0  0  0  0  0  0  0  0
    2.4814    0.4768    0.2250 H   0  0  0  0  0  0  0  0  0  0  0  0
   -0.6011   -0.6855    2.0498 H   0  0  0  0  0  0  0  0  0  0  0  0
    0.7124    0.4148    2.4608 H   0  0  0  0  0  0  0  0  0  0  0  0
    2.0567   -1.2697    2.8442 H   0  0  0  0  0  0  0  0  0  0  0  0
    0.7827   -2.3966    2.3466 H   0  0  0  0  0  0  0  0  0  0  0  0
   -2.3890    0.1994    0.8016 H   0  0  0  0  0  0  0  0  0  0  0  0
   -1.4011    1.4669    2.5251 H   0  0  0  0  0  0  0  0  0  0  0  0
   -2.9528    2.1291    2.0407 H   0  0  0  0  0  0  0  0  0  0  0  0
    0.6921    2.7751    1.9524 H   0  0  0  0  0  0  0  0  0  0  0  0
    1.6828    4.9321    1.5784 H   0  0  0  0  0  0  0  0  0  0  0  0
    0.3477    6.8526    0.8876 H   0  0  0  0  0  0  0  0  0  0  0  0
   -3.1590    4.3486    0.9329 H   0  0  0  0  0  0  0  0  0  0  0  0
   -4.4022    6.9640    0.9818 H   0  0  0  0  0  0  0  0  0  0  0  0
   -4.0059    6.0464   -0.5526 H   0  0  0  0  0  0  0  0  0  0  0  0
   -0.8782    8.2835    0.3341 H   0  0  0  0  0  0  0  0  0  0  0  0
   -2.3042    2.0850   -1.3440 H   0  0  0  0  0  0  0  0  0  0  0  0
   -3.6782   -0.1643   -3.5041 H   0  0  0  0  0  0  0  0  0  0  0  0
   -3.0126   -2.4202   -4.4003 H   0  0  0  0  0  0  0  0  0  0  0  0
   -2.4549   -4.7065   -4.0876 H   0  0  0  0  0  0  0  0  0  0  0  0
   -2.1112   -6.6345   -2.5164 H   0  0  0  0  0  0  0  0  0  0  0  0
   -2.4392   -6.2603   -0.1243 H   0  0  0  0  0  0  0  0  0  0  0  0
   -3.0915   -4.0557    0.7506 H   0  0  0  0  0  0  0  0  0  0  0  0
   -3.6398   -1.7992    0.4161 H   0  0  0  0  0  0  0  0  0  0  0  0
  1  2  1  0
  2  3  1  0
  2  4  2  3
  4  5  1  0
  5  6  1  0
  6  7  1  0
  7  8  1  0
  8  9  1  0
  9 10  1  0
 10 11  1  0
 11 12  1  0
 10 13  1  0
 13 14  2  0
 13 15  1  0
 15 16  1  0
 16 17  1  0
 17 18  2  0
 18 19  1  0
 19 20  2  0
 20 21  1  0
 21 22  2  0
 21 23  1  0
 23 24  1  0
 23 25  2  3
 15 26  1  0
 26 27  1  0
 27 28  2  0
 27 29  2  0
 27 30  1  0
 30 31  2  0
 31 32  1  0
 32 33  2  0
 33 34  1  0
 34 35  2  0
 35 36  1  0
 36 37  2  0
 37 38  1  0
 38 39  2  0
 12  7  1  0
 22 17  1  0
 39 30  1  0
 38 33  1  0
  1 40  1  0
  1 41  1  0
  3 42  1  0
  3 43  1  0
  5 44  1  0
  5 45  1  0
  6 46  1  0
  6 47  1  0
  7 48  1  0
  8 49  1  0
  8 50  1  0
  9 51  1  0
  9 52  1  0
 11 53  1  0
 11 54  1  0
 12 55  1  0
 12 56  1  0
 15 57  1  1
 16 58  1  0
 16 59  1  0
 18 60  1  0
 19 61  1  0
 20 62  1  0
 22 63  1  0
 24 64  1  0
 24 65  1  0
 25 66  1  0
 26 67  1  0
 31 68  1  0
 32 69  1  0
 34 70  1  0
 35 71  1  0
 36 72  1  0
 37 73  1  0
 39 74  1  0
M  END
$$$$
[H]N=C(N([H])[H])N([H])C([H])([H])C([H])([H])C([H])([H])[C@@]1([H])C(=O)N2C([H])([H])C([H])([H])C([H])([H])[C@]2([H])C(=O)N([H])[C@@]([H])(C([H])([H])c2c([H])nc([H])n2[H])C(=O)N([H])[C@@]([H])(C([H])([H])c2c([H])c([H])c(O[H])c([H])c2[H])C(=O)N([H])[C@@]([H])(C([H])([H])O[H])C(=O)N1[H]
     RDKit          3D

 86 89  0  0  0  0  0  0  0  0999 V2000
    7.7417   -0.1225    0.9280 N   0  0  0  0  0  0  0  0  0  0  0  0
    7.4640    0.3201   -0.3777 C   0  0  0  0  0  0  0  0  0  0  0  0
    8.4087    0.6000   -1.2001 N   0  0  0  0  0  0  0  0  0  0  0  0
    6.1182    0.4612   -0.7976 N   0  0  0  0  0  0  0  0  0  0  0  0
    5.1398   -0.5857   -0.6960 C   0  0  0  0  0  0  0  0  0  0  0  0
    3.8161   -0.0581   -1.2436 C   0  0  0  0  0  0  0  0  0  0  0  0
    2.8039   -1.1563   -1.1401 C   0  0  0  0  0  0  0  0  0  0  0  0
    2.5134   -1.7194    0.1819 C   0  0  2  0  0  0  0  0  0  0  0  0
    1.5400   -2.8284    0.1180 N   0  0  0  0  0  0  0  0  0  0  0  0
    0.2170   -2.8083   -0.3056 C   0  0  0  0  0  0  0  0  0  0  0  0
   -0.1221   -3.5279   -1.3239 O   0  0  0  0  0  0  0  0  0  0  0  0
   -0.9408   -2.0542    0.2536 C   0  0  2  0  0  0  0  0  0  0  0  0
   -1.6312   -3.0825    1.1757 C   0  0  0  0  0  0  0  0  0  0  0  0
   -0.7955   -3.4901    2.1928 O   0  0  0  0  0  0  0  0  0  0  0  0
   -1.8445   -1.6510   -0.8028 N   0  0  0  0  0  0  0  0  0  0  0  0
   -2.7451   -0.5950   -0.8134 C   0  0  0  0  0  0  0  0  0  0  0  0
   -2.7714    0.1270   -1.8785 O   0  0  0  0  0  0  0  0  0  0  0  0
   -3.6934   -0.1581    0.2165 C   0  0  2  0  0  0  0  0  0  0  0  0
   -5.0858   -0.6220   -0.2617 C   0  0  0  0  0  0  0  0  0  0  0  0
   -5.2011   -2.0639   -0.4290 C   0  0  0  0  0  0  0  0  0  0  0  0
   -5.5951   -2.9436    0.5788 C   0  0  0  0  0  0  0  0  0  0  0  0
   -5.6891   -4.3019    0.3530 C   0  0  0  0  0  0  0  0  0  0  0  0
   -5.3976   -4.8490   -0.8789 C   0  0  0  0  0  0  0  0  0  0  0  0
   -5.4962   -6.2331   -1.0989 O   0  0  0  0  0  0  0  0  0  0  0  0
   -5.0071   -3.9897   -1.8825 C   0  0  0  0  0  0  0  0  0  0  0  0
   -4.9170   -2.6362   -1.6455 C   0  0  0  0  0  0  0  0  0  0  0  0
   -3.8264    1.2706    0.3774 N   0  0  0  0  0  0  0  0  0  0  0  0
   -3.0308    2.3237   -0.0827 C   0  0  0  0  0  0  0  0  0  0  0  0
   -3.5472    3.0811   -0.9842 O   0  0  0  0  0  0  0  0  0  0  0  0
   -1.6498    2.6921    0.3336 C   0  0  2  0  0  0  0  0  0  0  0  0
   -0.8832    3.1337   -0.8421 C   0  0  0  0  0  0  0  0  0  0  0  0
   -1.3362    4.3771   -1.5114 C   0  0  0  0  0  0  0  0  0  0  0  0
   -0.9582    4.6632   -2.8322 C   0  0  0  0  0  0  0  0  0  0  0  0
   -1.4372    5.8616   -3.1467 N   0  0  0  0  0  0  0  0  0  0  0  0
   -2.0925    6.3186   -2.0700 C   0  0  0  0  0  0  0  0  0  0  0  0
   -2.0395    5.4290   -1.0699 N   0  0  0  0  0  0  0  0  0  0  0  0
   -1.1004    1.7777    1.2554 N   0  0  0  0  0  0  0  0  0  0  0  0
    0.1694    1.6422    1.8414 C   0  0  0  0  0  0  0  0  0  0  0  0
    0.2240    1.6280    3.1387 O   0  0  0  0  0  0  0  0  0  0  0  0
    1.4928    1.5084    1.2091 C   0  0  1  0  0  0  0  0  0  0  0  0
    2.3109    2.7870    1.4253 C   0  0  0  0  0  0  0  0  0  0  0  0
    3.6438    2.3116    1.9497 C   0  0  0  0  0  0  0  0  0  0  0  0
    3.1509    1.1326    2.7575 C   0  0  0  0  0  0  0  0  0  0  0  0
    2.3333    0.4279    1.7407 N   0  0  0  0  0  0  0  0  0  0  0  0
    2.3250   -0.9112    1.3699 C   0  0  0  0  0  0  0  0  0  0  0  0
    2.0723   -1.7062    2.3979 O   0  0  0  0  0  0  0  0  0  0  0  0
    8.3759   -0.9206    1.1314 H   0  0  0  0  0  0  0  0  0  0  0  0
    7.2945    0.3678    1.7300 H   0  0  0  0  0  0  0  0  0  0  0  0
    9.3965    0.4963   -0.8915 H   0  0  0  0  0  0  0  0  0  0  0  0
    5.8347    1.3793   -1.2006 H   0  0  0  0  0  0  0  0  0  0  0  0
    5.4984   -1.4519   -1.2818 H   0  0  0  0  0  0  0  0  0  0  0  0
    5.0387   -0.9420    0.3609 H   0  0  0  0  0  0  0  0  0  0  0  0
    3.5489    0.9102   -0.8585 H   0  0  0  0  0  0  0  0  0  0  0  0
    4.0347    0.0171   -2.3757 H   0  0  0  0  0  0  0  0  0  0  0  0
    3.2694   -2.0013   -1.7539 H   0  0  0  0  0  0  0  0  0  0  0  0
    1.8967   -0.9423   -1.7639 H   0  0  0  0  0  0  0  0  0  0  0  0
    3.5150   -2.2608    0.4164 H   0  0  0  0  0  0  0  0  0  0  0  0
    1.8907   -3.8005    0.4355 H   0  0  0  0  0  0  0  0  0  0  0  0
   -0.6394   -1.2048    0.8590 H   0  0  0  0  0  0  0  0  0  0  0  0
   -2.6136   -2.7235    1.5320 H   0  0  0  0  0  0  0  0  0  0  0  0
   -1.8682   -4.0108    0.5748 H   0  0  0  0  0  0  0  0  0  0  0  0
   -1.0965   -3.0614    3.0283 H   0  0  0  0  0  0  0  0  0  0  0  0
   -1.8005   -2.2529   -1.6820 H   0  0  0  0  0  0  0  0  0  0  0  0
   -3.4993   -0.5522    1.2340 H   0  0  0  0  0  0  0  0  0  0  0  0
   -5.8607   -0.2942    0.4865 H   0  0  0  0  0  0  0  0  0  0  0  0
   -5.3274   -0.0565   -1.1885 H   0  0  0  0  0  0  0  0  0  0  0  0
   -5.8257   -2.5259    1.5469 H   0  0  0  0  0  0  0  0  0  0  0  0
   -5.9946   -4.9797    1.1371 H   0  0  0  0  0  0  0  0  0  0  0  0
   -6.3901   -6.5960   -1.4213 H   0  0  0  0  0  0  0  0  0  0  0  0
   -4.7801   -4.4332   -2.8486 H   0  0  0  0  0  0  0  0  0  0  0  0
   -4.6076   -2.0176   -2.4740 H   0  0  0  0  0  0  0  0  0  0  0  0
   -4.6988    1.5529    0.9369 H   0  0  0  0  0  0  0  0  0  0  0  0
   -1.8589    3.7093    0.8958 H   0  0  0  0  0  0  0  0  0  0  0  0
   -0.9148    2.3420   -1.6692 H   0  0  0  0  0  0  0  0  0  0  0  0
    0.2084    3.2632   -0.7107 H   0  0  0  0  0  0  0  0  0  0  0  0
   -0.3795    4.0304   -3.4904 H   0  0  0  0  0  0  0  0  0  0  0  0
   -2.5850    7.2893   -2.0609 H   0  0  0  0  0  0  0  0  0  0  0  0
   -2.4511    5.5237   -0.1173 H   0  0  0  0  0  0  0  0  0  0  0  0
   -1.7912    1.0322    1.6143 H   0  0  0  0  0  0  0  0  0  0  0  0
    1.3994    1.4125    0.1091 H   0  0  0  0  0  0  0  0  0  0  0  0
    1.8190    3.3508    2.2710 H   0  0  0  0  0  0  0  0  0  0  0  0
    2.3808    3.3978    0.5281 H   0  0  0  0  0  0  0  0  0  0  0  0
    4.1204    3.0782    2.6047 H   0  0  0  0  0  0  0  0  0  0  0  0
    4.2769    2.0253    1.1052 H   0  0  0  0  0  0  0  0  0  0  0  0
    3.9620    0.5415    3.1888 H   0  0  0  0  0  0  0  0  0  0  0  0
    2.5714    1.5281    3.5825 H   0  0  0  0  0  0  0  0  0  0  0  0
  1  2  1  0
  2  3  2  3
  2  4  1  0
  4  5  1  0
  5  6  1  0
  6  7  1  0
  7  8  1  0
  8  9  1  0
  9 10  1  0
 10 11  2  0
 10 12  1  0
 12 13  1  0
 13 14  1  0
 12 15  1  0
 15 16  1  0
 16 17  2  0
 16 18  1  0
 18 19  1  0
 19 20  1  0
 20 21  2  0
 21 22  1  0
 22 23  2  0
 23 24  1  0
 23 25  1  0
 25 26  2  0
 18 27  1  0
 27 28  1  0
 28 29  2  0
 28 30  1  0
 30 31  1  0
 31 32  1  0
 32 33  2  0
 33 34  1  0
 34 35  2  0
 35 36  1  0
 30 37  1  0
 37 38  1  0
 38 39  2  0
 38 40  1  0
 40 41  1  0
 41 42  1  0
 42 43  1  0
 43 44  1  0
 44 45  1  0
 45 46  2  0
 45  8  1  0
 26 20  1  0
 36 32  1  0
 44 40  1  0
  1 47  1  0
  1 48  1  0
  3 49  1  0
  4 50  1  0
  5 51  1  0
  5 52  1  0
  6 53  1  0
  6 54  1  0
  7 55  1  0
  7 56  1  0
  8 57  1  1
  9 58  1  0
 12 59  1  1
 13 60  1  0
 13 61  1  0
 14 62  1  0
 15 63  1  0
 18 64  1  1
 19 65  1  0
 19 66  1  0
 21 67  1  0
 22 68  1  0
 24 69  1  0
 25 70  1  0
 26 71  1  0
 27 72  1  0
 30 73  1  1
 31 74  1  0
 31 75  1  0
 33 76  1  0
 35 77  1  0
 36 78  1  0
 37 79  1  0
 40 80  1  6
 41 81  1  0
 41 82  1  0
 42 83  1  0
 42 84  1  0
 43 85  1  0
 43 86  1  0
M  END
$$$$
[H]c1nc(N([H])[C@]2([H])C([H])([H])C([H])([H])[C@@]([H])(N3C([H])([H])[C@]([H])(C([H])([H])[H])O[C@]([H])(C([H])([H])[H])C3([H])[H])C([H])([H])C2([H])[H])c2c([H])c([H])n([H])c2c1[H]
     RDKit          3D

 52 55  0  0  0  0  0  0  0  0999 V2000
    5.0461   -0.1471    0.9412 C   0  0  0  0  0  0  0  0  0  0  0  0
    4.3550   -1.4474    0.6056 C   0  0  1  0  0  0  0  0  0  0  0  0
    2.8612   -1.3593    0.7930 C   0  0  0  0  0  0  0  0  0  0  0  0
    2.3410   -0.4535   -0.1689 N   0  0  0  0  0  0  0  0  0  0  0  0
    2.7706   -0.6944   -1.5147 C   0  0  0  0  0  0  0  0  0  0  0  0
    4.0309   -1.4243   -1.7054 C   0  0  1  0  0  0  0  0  0  0  0  0
    5.0379   -0.4940   -2.3980 C   0  0  0  0  0  0  0  0  0  0  0  0
    4.6414   -1.9531   -0.6194 O   0  0  0  0  0  0  0  0  0  0  0  0
    0.9568   -0.1163   -0.0490 C   0  0  1  0  0  0  0  0  0  0  0  0
    0.7361    0.5853    1.2689 C   0  0  0  0  0  0  0  0  0  0  0  0
   -0.7197    0.9695    1.3916 C   0  0  0  0  0  0  0  0  0  0  0  0
   -1.2486    1.8003    0.2812 C   0  0  1  0  0  0  0  0  0  0  0  0
   -0.7203    1.4647   -1.0892 C   0  0  0  0  0  0  0  0  0  0  0  0
    0.6450    0.8865   -1.1279 C   0  0  0  0  0  0  0  0  0  0  0  0
   -2.6873    1.6952    0.2372 N   0  0  0  0  0  0  0  0  0  0  0  0
   -3.4095    0.5020    0.0001 C   0  0  0  0  0  0  0  0  0  0  0  0
   -2.8682   -0.7034   -0.2258 N   0  0  0  0  0  0  0  0  0  0  0  0
   -3.5786   -1.8218   -0.4521 C   0  0  0  0  0  0  0  0  0  0  0  0
   -4.9529   -1.8003   -0.4669 C   0  0  0  0  0  0  0  0  0  0  0  0
   -5.5676   -0.5786   -0.2390 C   0  0  0  0  0  0  0  0  0  0  0  0
   -6.8814   -0.2142   -0.1870 N   0  0  0  0  0  0  0  0  0  0  0  0
   -6.9595    1.1018    0.0663 C   0  0  0  0  0  0  0  0  0  0  0  0
   -5.6760    1.5880    0.1784 C   0  0  0  0  0  0  0  0  0  0  0  0
   -4.8045    0.5367   -0.0126 C   0  0  0  0  0  0  0  0  0  0  0  0
    5.0173    0.0292    2.0446 H   0  0  0  0  0  0  0  0  0  0  0  0
    4.4881    0.6830    0.4752 H   0  0  0  0  0  0  0  0  0  0  0  0
    6.1196   -0.1727    0.6706 H   0  0  0  0  0  0  0  0  0  0  0  0
    4.7163   -2.1927    1.3736 H   0  0  0  0  0  0  0  0  0  0  0  0
    2.6913   -0.9853    1.8104 H   0  0  0  0  0  0  0  0  0  0  0  0
    2.4749   -2.4072    0.6605 H   0  0  0  0  0  0  0  0  0  0  0  0
    1.9378   -1.2774   -2.0091 H   0  0  0  0  0  0  0  0  0  0  0  0
    2.7857    0.2928   -2.0360 H   0  0  0  0  0  0  0  0  0  0  0  0
    3.9001   -2.2679   -2.4472 H   0  0  0  0  0  0  0  0  0  0  0  0
    4.4998    0.2136   -3.0774 H   0  0  0  0  0  0  0  0  0  0  0  0
    5.6151    0.0970   -1.6585 H   0  0  0  0  0  0  0  0  0  0  0  0
    5.7722   -1.0659   -2.9889 H   0  0  0  0  0  0  0  0  0  0  0  0
    0.2713   -0.9784   -0.1758 H   0  0  0  0  0  0  0  0  0  0  0  0
    0.9537   -0.0453    2.1551 H   0  0  0  0  0  0  0  0  0  0  0  0
    1.3137    1.5336    1.2598 H   0  0  0  0  0  0  0  0  0  0  0  0
   -0.7578    1.6203    2.3232 H   0  0  0  0  0  0  0  0  0  0  0  0
   -1.3676    0.1203    1.6366 H   0  0  0  0  0  0  0  0  0  0  0  0
   -1.0179    2.8918    0.5061 H   0  0  0  0  0  0  0  0  0  0  0  0
   -0.6513    2.4499   -1.6492 H   0  0  0  0  0  0  0  0  0  0  0  0
   -1.4734    0.8971   -1.6512 H   0  0  0  0  0  0  0  0  0  0  0  0
    1.4097    1.7028   -1.1447 H   0  0  0  0  0  0  0  0  0  0  0  0
    0.7571    0.3710   -2.1256 H   0  0  0  0  0  0  0  0  0  0  0  0
   -3.2463    2.5698    0.3927 H   0  0  0  0  0  0  0  0  0  0  0  0
   -3.0851   -2.7877   -0.6324 H   0  0  0  0  0  0  0  0  0  0  0  0
   -5.5534   -2.6768   -0.6446 H   0  0  0  0  0  0  0  0  0  0  0  0
   -7.6837   -0.8707   -0.3250 H   0  0  0  0  0  0  0  0  0  0  0  0
   -7.8654    1.7093    0.1709 H   0  0  0  0  0  0  0  0  0  0  0  0
   -5.3696    2.6246    0.3831 H   0  0  0  0  0  0  0  0  0  0  0  0
  1  2  1  0
  2  3  1  0
  3  4  1  0
  4  5  1  0
  5  6  1  0
  6  7  1  0
  6  8  1  0
  4  9  1  0
  9 10  1  0
 10 11  1  0
 11 12  1  0
 12 13  1  0
 13 14  1  0
 12 15  1  0
 15 16  1  0
 16 17  2  0
 17 18  1  0
 18 19  2  0
 19 20  1  0
 20 21  1  0
 21 22  1  0
 22 23  2  0
 23 24  1  0
  8  2  1  0
 14  9  1  0
 24 16  1  0
 24 20  2  0
  1 25  1  0
  1 26  1  0
  1 27  1  0
  2 28  1  1
  3 29  1  0
  3 30  1  0
  5 31  1  0
  5 32  1  0
  6 33  1  6
  7 34  1  0
  7 35  1  0
  7 36  1  0
  9 37  1  6
 10 38  1  0
 10 39  1  0
 11 40  1  0
 11 41  1  0
 12 42  1  1
 13 43  1  0
 13 44  1  0
 14 45  1  0
 14 46  1  0
 15 47  1  0
 18 48  1  0
 19 49  1  0
 21 50  1  0
 22 51  1  0
 23 52  1  0
M  END
$$$$
[H]c1nn([H])c(-c2nc([H])c([H])c3c(-c4c([H])nc(N([H])[H])nc4[H])c([H])c(N4C([H])([H])C([H])([H])OC([H])([H])[C@@]4([H])C([H])([H])[H])nc23)c1[H]
     RDKit          3D

 49 53  0  0  0  0  0  0  0  0999 V2000
   -3.8670   -1.4538   -0.9414 C   0  0  0  0  0  0  0  0  0  0  0  0
   -2.6572   -1.6765   -0.0365 C   0  0  2  0  0  0  0  0  0  0  0  0
   -3.1522   -2.2627    1.2946 C   0  0  0  0  0  0  0  0  0  0  0  0
   -4.2511   -1.4843    1.6560 O   0  0  0  0  0  0  0  0  0  0  0  0
   -3.9468   -0.1803    1.9558 C   0  0  0  0  0  0  0  0  0  0  0  0
   -3.1461    0.5358    0.8822 C   0  0  0  0  0  0  0  0  0  0  0  0
   -2.1479   -0.3673    0.2961 N   0  0  0  0  0  0  0  0  0  0  0  0
   -0.7878    0.0177    0.0914 C   0  0  0  0  0  0  0  0  0  0  0  0
    0.1611   -0.9657   -0.0335 C   0  0  0  0  0  0  0  0  0  0  0  0
    1.5103   -0.6748   -0.2484 C   0  0  0  0  0  0  0  0  0  0  0  0
    2.4834   -1.7429   -0.3337 C   0  0  0  0  0  0  0  0  0  0  0  0
    3.5664   -1.8661    0.4676 C   0  0  0  0  0  0  0  0  0  0  0  0
    4.4073   -2.8893    0.3096 N   0  0  0  0  0  0  0  0  0  0  0  0
    4.2070   -3.8259   -0.6457 C   0  0  0  0  0  0  0  0  0  0  0  0
    5.1504   -4.8839   -0.7473 N   0  0  0  0  0  0  0  0  0  0  0  0
    3.1500   -3.7238   -1.4431 N   0  0  0  0  0  0  0  0  0  0  0  0
    2.2824   -2.7054   -1.3114 C   0  0  0  0  0  0  0  0  0  0  0  0
    1.8597    0.6517   -0.3331 C   0  0  0  0  0  0  0  0  0  0  0  0
    3.1523    1.0526   -0.5538 C   0  0  0  0  0  0  0  0  0  0  0  0
    3.4435    2.3926   -0.6377 C   0  0  0  0  0  0  0  0  0  0  0  0
    2.4866    3.2874   -0.5078 N   0  0  0  0  0  0  0  0  0  0  0  0
    1.1677    2.9864   -0.2871 C   0  0  0  0  0  0  0  0  0  0  0  0
    0.2134    4.0683   -0.1664 C   0  0  0  0  0  0  0  0  0  0  0  0
   -1.1298    4.0881    0.0394 C   0  0  0  0  0  0  0  0  0  0  0  0
   -1.5699    5.4227    0.0678 C   0  0  0  0  0  0  0  0  0  0  0  0
   -0.4632    6.1566   -0.1239 N   0  0  0  0  0  0  0  0  0  0  0  0
    0.5783    5.3850   -0.2613 N   0  0  0  0  0  0  0  0  0  0  0  0
    0.8695    1.6377   -0.2015 C   0  0  0  0  0  0  0  0  0  0  0  0
   -0.4106    1.2976    0.0048 N   0  0  0  0  0  0  0  0  0  0  0  0
   -4.7746   -1.4789   -0.3210 H   0  0  0  0  0  0  0  0  0  0  0  0
   -3.8408   -2.2812   -1.7041 H   0  0  0  0  0  0  0  0  0  0  0  0
   -3.7391   -0.5173   -1.5004 H   0  0  0  0  0  0  0  0  0  0  0  0
   -1.9469   -2.3704   -0.4632 H   0  0  0  0  0  0  0  0  0  0  0  0
   -3.5102   -3.2898    1.1644 H   0  0  0  0  0  0  0  0  0  0  0  0
   -2.3303   -2.1676    2.0160 H   0  0  0  0  0  0  0  0  0  0  0  0
   -3.3741   -0.0951    2.9043 H   0  0  0  0  0  0  0  0  0  0  0  0
   -4.9086    0.3629    2.0732 H   0  0  0  0  0  0  0  0  0  0  0  0
   -2.5910    1.3673    1.3573 H   0  0  0  0  0  0  0  0  0  0  0  0
   -3.8314    0.8423    0.0745 H   0  0  0  0  0  0  0  0  0  0  0  0
   -0.0767   -2.0311    0.0330 H   0  0  0  0  0  0  0  0  0  0  0  0
    3.7566   -1.1220    1.2526 H   0  0  0  0  0  0  0  0  0  0  0  0
    5.6036   -5.3293    0.0717 H   0  0  0  0  0  0  0  0  0  0  0  0
    5.4032   -5.2336   -1.6916 H   0  0  0  0  0  0  0  0  0  0  0  0
    1.4262   -2.6613   -1.9898 H   0  0  0  0  0  0  0  0  0  0  0  0
    3.9253    0.3280   -0.6731 H   0  0  0  0  0  0  0  0  0  0  0  0
    4.4865    2.6523   -0.8133 H   0  0  0  0  0  0  0  0  0  0  0  0
   -1.7919    3.2564    0.1631 H   0  0  0  0  0  0  0  0  0  0  0  0
   -2.5835    5.7264    0.2147 H   0  0  0  0  0  0  0  0  0  0  0  0
    1.5380    5.7643   -0.4200 H   0  0  0  0  0  0  0  0  0  0  0  0
  1  2  1  0
  2  3  1  0
  3  4  1  0
  4  5  1  0
  5  6  1  0
  6  7  1  0
  7  8  1  0
  8  9  2  0
  9 10  1  0
 10 11  1  0
 11 12  2  0
 12 13  1  0
 13 14  2  0
 14 15  1  0
 14 16  1  0
 16 17  2  0
 10 18  2  0
 18 19  1  0
 19 20  2  0
 20 21  1  0
 21 22  2  0
 22 23  1  0
 23 24  2  0
 24 25  1  0
 25 26  2  0
 26 27  1  0
 22 28  1  0
 28 29  2  0
  7  2  1  0
 29  8  1  0
 17 11  1  0
 28 18  1  0
 27 23  1  0
  1 30  1  0
  1 31  1  0
  1 32  1  0
  2 33  1  6
  3 34  1  0
  3 35  1  0
  5 36  1  0
  5 37  1  0
  6 38  1  0
  6 39  1  0
  9 40  1  0
 12 41  1  0
 15 42  1  0
 15 43  1  0
 17 44  1  0
 19 45  1  0
 20 46  1  0
 24 47  1  0
 25 48  1  0
 27 49  1  0
M  END
$$$$
[H]C1=C([H])C([H])(F)C([H])([H])C([H])=C1N([H])C(=O)C1(C(=O)N([H])c2c([H])c([H])c(Oc3c([H])c([H])nc4c([H])c(OC([H])([H])C([H])([H])C([H])([H])N5C([H])([H])C([H])([H])OC([H])([H])C5([H])[H])c(OC([H])([H])[H])c([H])c34)c(F)c2[H])C([H])([H])C1([H])[H]
     RDKit          3D

 82 87  0  0  0  0  0  0  0  0999 V2000
    3.9666    3.0495   -1.7322 C   0  0  0  0  0  0  0  0  0  0  0  0
    4.8184    1.9472   -1.5191 O   0  0  0  0  0  0  0  0  0  0  0  0
    4.2779    0.7150   -1.2054 C   0  0  0  0  0  0  0  0  0  0  0  0
    2.9355    0.4830   -1.0834 C   0  0  0  0  0  0  0  0  0  0  0  0
    2.5057   -0.7878   -0.7673 C   0  0  0  0  0  0  0  0  0  0  0  0
    1.1302   -1.0757   -0.6337 C   0  0  0  0  0  0  0  0  0  0  0  0
    0.2693   -0.0306   -0.8259 O   0  0  0  0  0  0  0  0  0  0  0  0
   -1.0898   -0.1642   -0.6451 C   0  0  0  0  0  0  0  0  0  0  0  0
   -1.9847   -0.0120   -1.6950 C   0  0  0  0  0  0  0  0  0  0  0  0
   -3.3381   -0.1282   -1.5809 C   0  0  0  0  0  0  0  0  0  0  0  0
   -3.8905   -0.4214   -0.3289 C   0  0  0  0  0  0  0  0  0  0  0  0
   -5.3238   -0.4986   -0.2135 N   0  0  0  0  0  0  0  0  0  0  0  0
   -5.9613   -1.3830    0.6262 C   0  0  0  0  0  0  0  0  0  0  0  0
   -5.1921   -2.1849    1.2964 O   0  0  0  0  0  0  0  0  0  0  0  0
   -7.4011   -1.5958    0.9101 C   0  0  0  0  0  0  0  0  0  0  0  0
   -7.6820   -2.4618    2.1265 C   0  0  0  0  0  0  0  0  0  0  0  0
   -7.8126   -3.1190    0.8294 C   0  0  0  0  0  0  0  0  0  0  0  0
   -8.4706   -0.6963    0.4763 C   0  0  0  0  0  0  0  0  0  0  0  0
   -9.6747   -1.1656    0.7176 O   0  0  0  0  0  0  0  0  0  0  0  0
   -8.4814    0.5528   -0.1324 N   0  0  0  0  0  0  0  0  0  0  0  0
   -9.7446    1.2195   -0.4499 C   0  0  0  0  0  0  0  0  0  0  0  0
   -9.9496    2.4040    0.0799 C   0  0  0  0  0  0  0  0  0  0  0  0
  -11.1350    3.2347   -0.1097 C   0  0  0  0  0  0  0  0  0  0  0  0
  -12.2008    2.6387   -0.9439 C   0  0  0  0  0  0  0  0  0  0  0  0
  -12.4721    3.4850   -2.0494 F   0  0  0  0  0  0  0  0  0  0  0  0
  -11.8730    1.3187   -1.4859 C   0  0  0  0  0  0  0  0  0  0  0  0
  -10.7586    0.6480   -1.2759 C   0  0  0  0  0  0  0  0  0  0  0  0
   -3.0432   -0.5784    0.7341 C   0  0  0  0  0  0  0  0  0  0  0  0
   -1.6522   -0.4525    0.5863 C   0  0  0  0  0  0  0  0  0  0  0  0
   -0.8827   -0.5957    1.6903 F   0  0  0  0  0  0  0  0  0  0  0  0
    0.7223   -2.3515   -0.3227 C   0  0  0  0  0  0  0  0  0  0  0  0
    1.6378   -3.3635   -0.1352 C   0  0  0  0  0  0  0  0  0  0  0  0
    2.9451   -3.0865   -0.2619 N   0  0  0  0  0  0  0  0  0  0  0  0
    3.3732   -1.8309   -0.5703 C   0  0  0  0  0  0  0  0  0  0  0  0
    4.7330   -1.5901   -0.6954 C   0  0  0  0  0  0  0  0  0  0  0  0
    5.1920   -0.3333   -1.0085 C   0  0  0  0  0  0  0  0  0  0  0  0
    6.5206   -0.0853   -1.1253 O   0  0  0  0  0  0  0  0  0  0  0  0
    7.5310   -0.9938   -0.8772 C   0  0  0  0  0  0  0  0  0  0  0  0
    7.6262   -1.3701    0.5948 C   0  0  0  0  0  0  0  0  0  0  0  0
    7.9359   -0.0985    1.3961 C   0  0  0  0  0  0  0  0  0  0  0  0
    9.1945    0.4265    0.9288 N   0  0  0  0  0  0  0  0  0  0  0  0
    9.4053    1.7864    1.4776 C   0  0  0  0  0  0  0  0  0  0  0  0
   10.8161    2.1639    1.0165 C   0  0  0  0  0  0  0  0  0  0  0  0
   11.2632    1.3549   -0.0281 O   0  0  0  0  0  0  0  0  0  0  0  0
   11.4615    0.0232    0.3872 C   0  0  0  0  0  0  0  0  0  0  0  0
   10.3466   -0.3576    1.3702 C   0  0  0  0  0  0  0  0  0  0  0  0
    4.5770    3.9509   -1.9692 H   0  0  0  0  0  0  0  0  0  0  0  0
    3.3066    3.2216   -0.8582 H   0  0  0  0  0  0  0  0  0  0  0  0
    3.3086    2.7911   -2.5987 H   0  0  0  0  0  0  0  0  0  0  0  0
    2.2243    1.2761   -1.2311 H   0  0  0  0  0  0  0  0  0  0  0  0
   -1.5528    0.2161   -2.6750 H   0  0  0  0  0  0  0  0  0  0  0  0
   -4.0246   -0.0039   -2.4200 H   0  0  0  0  0  0  0  0  0  0  0  0
   -5.8260    0.1518   -0.8369 H   0  0  0  0  0  0  0  0  0  0  0  0
   -6.8106   -2.7138    2.7607 H   0  0  0  0  0  0  0  0  0  0  0  0
   -8.5985   -2.2800    2.7131 H   0  0  0  0  0  0  0  0  0  0  0  0
   -7.0275   -3.7752    0.4011 H   0  0  0  0  0  0  0  0  0  0  0  0
   -8.7992   -3.3162    0.3639 H   0  0  0  0  0  0  0  0  0  0  0  0
   -7.6334    1.0911   -0.3743 H   0  0  0  0  0  0  0  0  0  0  0  0
   -9.1652    2.8388    0.7401 H   0  0  0  0  0  0  0  0  0  0  0  0
  -11.5358    3.5321    0.9159 H   0  0  0  0  0  0  0  0  0  0  0  0
  -10.8538    4.2484   -0.5572 H   0  0  0  0  0  0  0  0  0  0  0  0
  -13.1586    2.5647   -0.3407 H   0  0  0  0  0  0  0  0  0  0  0  0
  -12.6648    0.8691   -2.1323 H   0  0  0  0  0  0  0  0  0  0  0  0
  -10.6018   -0.3227   -1.7168 H   0  0  0  0  0  0  0  0  0  0  0  0
   -3.4037   -0.7893    1.7394 H   0  0  0  0  0  0  0  0  0  0  0  0
   -0.3200   -2.5956   -0.2356 H   0  0  0  0  0  0  0  0  0  0  0  0
    1.2680   -4.3480    0.1079 H   0  0  0  0  0  0  0  0  0  0  0  0
    5.3620   -2.4538   -0.5623 H   0  0  0  0  0  0  0  0  0  0  0  0
    7.4424   -1.9223   -1.5038 H   0  0  0  0  0  0  0  0  0  0  0  0
    8.4920   -0.5348   -1.2249 H   0  0  0  0  0  0  0  0  0  0  0  0
    6.7751   -1.8921    1.0071 H   0  0  0  0  0  0  0  0  0  0  0  0
    8.4922   -2.0400    0.6815 H   0  0  0  0  0  0  0  0  0  0  0  0
    7.1233    0.6400    1.3255 H   0  0  0  0  0  0  0  0  0  0  0  0
    8.0487   -0.4301    2.4644 H   0  0  0  0  0  0  0  0  0  0  0  0
    9.4079    1.7624    2.5778 H   0  0  0  0  0  0  0  0  0  0  0  0
    8.6320    2.4413    1.0296 H   0  0  0  0  0  0  0  0  0  0  0  0
   11.5508    2.0414    1.8480 H   0  0  0  0  0  0  0  0  0  0  0  0
   10.8264    3.2054    0.6080 H   0  0  0  0  0  0  0  0  0  0  0  0
   11.3001   -0.6008   -0.5146 H   0  0  0  0  0  0  0  0  0  0  0  0
   12.4569   -0.1361    0.8078 H   0  0  0  0  0  0  0  0  0  0  0  0
   10.1090   -1.3943    1.4038 H   0  0  0  0  0  0  0  0  0  0  0  0
   10.6797    0.0679    2.3647 H   0  0  0  0  0  0  0  0  0  0  0  0
  1  2  1  0
  2  3  1  0
  3  4  2  0
  4  5  1  0
  5  6  2  0
  6  7  1  0
  7  8  1  0
  8  9  2  0
  9 10  1  0
 10 11  2  0
 11 12  1  0
 12 13  1  0
 13 14  2  0
 13 15  1  0
 15 16  1  0
 16 17  1  0
 15 18  1  0
 18 19  2  0
 18 20  1  0
 20 21  1  0
 21 22  2  0
 22 23  1  0
 23 24  1  0
 24 25  1  0
 24 26  1  0
 26 27  2  0
 11 28  1  0
 28 29  2  0
 29 30  1  0
  6 31  1  0
 31 32  2  0
 32 33  1  0
 33 34  2  0
 34 35  1  0
 35 36  2  0
 36 37  1  0
 37 38  1  0
 38 39  1  0
 39 40  1  0
 40 41  1  0
 41 42  1  0
 42 43  1  0
 43 44  1  0
 44 45  1  0
 45 46  1  0
 36  3  1  0
 46 41  1  0
 34  5  1  0
 29  8  1  0
 17 15  1  0
 27 21  1  0
  1 47  1  0
  1 48  1  0
  1 49  1  0
  4 50  1  0
  9 51  1  0
 10 52  1  0
 12 53  1  0
 16 54  1  0
 16 55  1  0
 17 56  1  0
 17 57  1  0
 20 58  1  0
 22 59  1  0
 23 60  1  0
 23 61  1  0
 24 62  1  0
 26 63  1  0
 27 64  1  0
 28 65  1  0
 31 66  1  0
 32 67  1  0
 35 68  1  0
 38 69  1  0
 38 70  1  0
 39 71  1  0
 39 72  1  0
 40 73  1  0
 40 74  1  0
 42 75  1  0
 42 76  1  0
 43 77  1  0
 43 78  1  0
 45 79  1  0
 45 80  1  0
 46 81  1  0
 46 82  1  0
M  END
$$$$
[H]ON(C([H])=O)C([H])([H])[C@]([H])(C(=O)N1C([H])([H])C([H])([H])C([H])([H])[C@@]1([H])C(=O)N([H])C(=O)N([H])C([H])([H])C([H])([H])c1c([H])c([H])c([H])c([H])c1[H])C([H])([H])C1([H])C([H])([H])C([H])([H])C([H])([H])C([H])([H])C1([H])[H]
     RDKit          3D

 70 72  0  0  0  0  0  0  0  0999 V2000
    2.6136   -4.2809    1.4243 O   0  0  0  0  0  0  0  0  0  0  0  0
    3.5081   -3.4937    0.7316 N   0  0  0  0  0  0  0  0  0  0  0  0
    3.4257   -2.1069    0.9599 C   0  0  0  0  0  0  0  0  0  0  0  0
    2.4535   -1.3080    0.1490 C   0  0  1  0  0  0  0  0  0  0  0  0
    2.4928    0.1512    0.5333 C   0  0  0  0  0  0  0  0  0  0  0  0
    3.7714    0.8723    0.3863 C   0  0  0  0  0  0  0  0  0  0  0  0
    3.4700    2.3056    0.8810 C   0  0  0  0  0  0  0  0  0  0  0  0
    4.7383    3.0470    1.1933 C   0  0  0  0  0  0  0  0  0  0  0  0
    5.6796    2.9149    0.0140 C   0  0  0  0  0  0  0  0  0  0  0  0
    4.9118    2.4081   -1.1758 C   0  0  0  0  0  0  0  0  0  0  0  0
    4.3139    1.0388   -0.9882 C   0  0  0  0  0  0  0  0  0  0  0  0
    2.3743   -1.5763   -1.2780 C   0  0  0  0  0  0  0  0  0  0  0  0
    3.3837   -1.8723   -1.9434 O   0  0  0  0  0  0  0  0  0  0  0  0
    1.1208   -1.5027   -1.9656 N   0  0  0  0  0  0  0  0  0  0  0  0
    0.9925   -1.7187   -3.3810 C   0  0  0  0  0  0  0  0  0  0  0  0
   -0.2490   -0.9686   -3.7774 C   0  0  0  0  0  0  0  0  0  0  0  0
   -0.7788   -0.3430   -2.5310 C   0  0  0  0  0  0  0  0  0  0  0  0
   -0.1987   -1.2348   -1.4233 C   0  0  1  0  0  0  0  0  0  0  0  0
   -1.0541   -2.4238   -1.3097 C   0  0  0  0  0  0  0  0  0  0  0  0
   -0.5278   -3.4873   -1.8420 O   0  0  0  0  0  0  0  0  0  0  0  0
   -2.3082   -2.5945   -0.7386 N   0  0  0  0  0  0  0  0  0  0  0  0
   -3.1799   -1.7616   -0.0455 C   0  0  0  0  0  0  0  0  0  0  0  0
   -4.2887   -2.3177    0.3405 O   0  0  0  0  0  0  0  0  0  0  0  0
   -3.0670   -0.4077    0.3147 N   0  0  0  0  0  0  0  0  0  0  0  0
   -4.0515    0.3717    1.0178 C   0  0  0  0  0  0  0  0  0  0  0  0
   -5.3188    0.4773    0.2386 C   0  0  0  0  0  0  0  0  0  0  0  0
   -6.2711    1.3223    1.0261 C   0  0  0  0  0  0  0  0  0  0  0  0
   -7.1202    0.7527    1.9206 C   0  0  0  0  0  0  0  0  0  0  0  0
   -7.9818    1.5606    2.6365 C   0  0  0  0  0  0  0  0  0  0  0  0
   -7.9651    2.9073    2.4336 C   0  0  0  0  0  0  0  0  0  0  0  0
   -7.1003    3.5106    1.5184 C   0  0  0  0  0  0  0  0  0  0  0  0
   -6.2448    2.6874    0.8107 C   0  0  0  0  0  0  0  0  0  0  0  0
    4.3869   -4.1522   -0.1493 C   0  0  0  0  0  0  0  0  0  0  0  0
    4.3302   -5.4164   -0.3216 O   0  0  0  0  0  0  0  0  0  0  0  0
    1.9164   -4.6244    0.7867 H   0  0  0  0  0  0  0  0  0  0  0  0
    3.2121   -1.9361    2.0549 H   0  0  0  0  0  0  0  0  0  0  0  0
    4.4395   -1.6553    0.8215 H   0  0  0  0  0  0  0  0  0  0  0  0
    1.4337   -1.6459    0.5560 H   0  0  0  0  0  0  0  0  0  0  0  0
    1.6884    0.6671    0.0003 H   0  0  0  0  0  0  0  0  0  0  0  0
    2.2195    0.1820    1.6268 H   0  0  0  0  0  0  0  0  0  0  0  0
    4.5376    0.4879    1.0749 H   0  0  0  0  0  0  0  0  0  0  0  0
    2.8285    2.1843    1.7691 H   0  0  0  0  0  0  0  0  0  0  0  0
    2.8812    2.7770    0.0722 H   0  0  0  0  0  0  0  0  0  0  0  0
    5.1794    2.6214    2.1079 H   0  0  0  0  0  0  0  0  0  0  0  0
    4.4682    4.0964    1.3993 H   0  0  0  0  0  0  0  0  0  0  0  0
    6.0134    3.9416   -0.2456 H   0  0  0  0  0  0  0  0  0  0  0  0
    6.5372    2.2989    0.2987 H   0  0  0  0  0  0  0  0  0  0  0  0
    4.1685    3.1883   -1.4439 H   0  0  0  0  0  0  0  0  0  0  0  0
    5.6388    2.4235   -2.0416 H   0  0  0  0  0  0  0  0  0  0  0  0
    5.0883    0.3279   -1.2949 H   0  0  0  0  0  0  0  0  0  0  0  0
    3.4761    0.9802   -1.7149 H   0  0  0  0  0  0  0  0  0  0  0  0
    0.9504   -2.8110   -3.5639 H   0  0  0  0  0  0  0  0  0  0  0  0
    1.8967   -1.3190   -3.9232 H   0  0  0  0  0  0  0  0  0  0  0  0
    0.0479   -0.2044   -4.5434 H   0  0  0  0  0  0  0  0  0  0  0  0
   -0.9648   -1.6413   -4.2979 H   0  0  0  0  0  0  0  0  0  0  0  0
   -0.3783    0.6589   -2.3966 H   0  0  0  0  0  0  0  0  0  0  0  0
   -1.8804   -0.2960   -2.4881 H   0  0  0  0  0  0  0  0  0  0  0  0
   -0.1282   -0.6718   -0.4677 H   0  0  0  0  0  0  0  0  0  0  0  0
   -2.7224   -3.6232   -0.8386 H   0  0  0  0  0  0  0  0  0  0  0  0
   -2.1932    0.1016    0.0673 H   0  0  0  0  0  0  0  0  0  0  0  0
   -3.6309    1.3797    1.2562 H   0  0  0  0  0  0  0  0  0  0  0  0
   -4.2296   -0.1725    1.9984 H   0  0  0  0  0  0  0  0  0  0  0  0
   -5.7550   -0.4971    0.0657 H   0  0  0  0  0  0  0  0  0  0  0  0
   -5.0656    0.9998   -0.7248 H   0  0  0  0  0  0  0  0  0  0  0  0
   -7.1241   -0.3034    2.0682 H   0  0  0  0  0  0  0  0  0  0  0  0
   -8.6476    1.0917    3.3399 H   0  0  0  0  0  0  0  0  0  0  0  0
   -8.6294    3.5752    2.9791 H   0  0  0  0  0  0  0  0  0  0  0  0
   -7.1167    4.5802    1.3878 H   0  0  0  0  0  0  0  0  0  0  0  0
   -5.5491    3.0955    0.0850 H   0  0  0  0  0  0  0  0  0  0  0  0
    5.1320   -3.6182   -0.7017 H   0  0  0  0  0  0  0  0  0  0  0  0
  1  2  1  0
  2  3  1  0
  3  4  1  0
  4  5  1  0
  5  6  1  0
  6  7  1  0
  7  8  1  0
  8  9  1  0
  9 10  1  0
 10 11  1  0
  4 12  1  0
 12 13  2  0
 12 14  1  0
 14 15  1  0
 15 16  1  0
 16 17  1  0
 17 18  1  0
 18 19  1  0
 19 20  2  0
 19 21  1  0
 21 22  1  0
 22 23  2  0
 22 24  1  0
 24 25  1  0
 25 26  1  0
 26 27  1  0
 27 28  2  0
 28 29  1  0
 29 30  2  0
 30 31  1  0
 31 32  2  0
  2 33  1  0
 33 34  2  0
 11  6  1  0
 18 14  1  0
 32 27  1  0
  1 35  1  0
  3 36  1  0
  3 37  1  0
  4 38  1  1
  5 39  1  0
  5 40  1  0
  6 41  1  0
  7 42  1  0
  7 43  1  0
  8 44  1  0
  8 45  1  0
  9 46  1  0
  9 47  1  0
 10 48  1  0
 10 49  1  0
 11 50  1  0
 11 51  1  0
 15 52  1  0
 15 53  1  0
 16 54  1  0
 16 55  1  0
 17 56  1  0
 17 57  1  0
 18 58  1  1
 21 59  1  0
 24 60  1  0
 25 61  1  0
 25 62  1  0
 26 63  1  0
 26 64  1  0
 28 65  1  0
 29 66  1  0
 30 67  1  0
 31 68  1  0
 32 69  1  0
 33 70  1  0
M  END
$$$$
[H]c1c([H])c([H])c2c(c1[H])c(C1=C(c3c([H])n(C([H])([H])[H])c4c([H])c([H])c([H])c([H])c34)C(=O)N([H])C1=O)c([H])n2[H]
     RDKit          3D

 41 45  0  0  0  0  0  0  0  0999 V2000
    2.5045   -2.9689   -0.2720 C   0  0  0  0  0  0  0  0  0  0  0  0
    2.1817   -1.5711   -0.0357 N   0  0  0  0  0  0  0  0  0  0  0  0
    1.0541   -1.1102    0.5827 C   0  0  0  0  0  0  0  0  0  0  0  0
    1.0580    0.2355    0.6497 C   0  0  0  0  0  0  0  0  0  0  0  0
    0.1321    1.2574    1.1613 C   0  0  0  0  0  0  0  0  0  0  0  0
   -1.0977    1.5105    0.7833 C   0  0  0  0  0  0  0  0  0  0  0  0
   -1.5841    2.6426    1.6215 C   0  0  0  0  0  0  0  0  0  0  0  0
   -2.7235    3.1288    1.5075 O   0  0  0  0  0  0  0  0  0  0  0  0
   -0.5717    3.0175    2.4927 N   0  0  0  0  0  0  0  0  0  0  0  0
    0.5299    2.1870    2.2548 C   0  0  0  0  0  0  0  0  0  0  0  0
    1.6628    2.1385    2.7856 O   0  0  0  0  0  0  0  0  0  0  0  0
   -1.9492    0.8655   -0.2257 C   0  0  0  0  0  0  0  0  0  0  0  0
   -2.2941    1.4737   -1.4391 C   0  0  0  0  0  0  0  0  0  0  0  0
   -3.1410    0.6688   -2.1090 N   0  0  0  0  0  0  0  0  0  0  0  0
   -3.3720   -0.4456   -1.3908 C   0  0  0  0  0  0  0  0  0  0  0  0
   -4.1681   -1.5303   -1.6566 C   0  0  0  0  0  0  0  0  0  0  0  0
   -4.2303   -2.5347   -0.7155 C   0  0  0  0  0  0  0  0  0  0  0  0
   -3.5090   -2.4329    0.4465 C   0  0  0  0  0  0  0  0  0  0  0  0
   -2.7129   -1.3370    0.7001 C   0  0  0  0  0  0  0  0  0  0  0  0
   -2.6246   -0.3186   -0.2126 C   0  0  0  0  0  0  0  0  0  0  0  0
    2.2658    0.6194    0.0323 C   0  0  0  0  0  0  0  0  0  0  0  0
    2.8492    1.8393   -0.2204 C   0  0  0  0  0  0  0  0  0  0  0  0
    4.0772    1.9185   -0.8699 C   0  0  0  0  0  0  0  0  0  0  0  0
    4.7103    0.7636   -1.2607 C   0  0  0  0  0  0  0  0  0  0  0  0
    4.1516   -0.4745   -1.0231 C   0  0  0  0  0  0  0  0  0  0  0  0
    2.9350   -0.5151   -0.3790 C   0  0  0  0  0  0  0  0  0  0  0  0
    3.6089   -3.1033   -0.3703 H   0  0  0  0  0  0  0  0  0  0  0  0
    1.9534   -3.3375   -1.1628 H   0  0  0  0  0  0  0  0  0  0  0  0
    2.2091   -3.5781    0.6331 H   0  0  0  0  0  0  0  0  0  0  0  0
    0.2833   -1.7475    0.9669 H   0  0  0  0  0  0  0  0  0  0  0  0
   -0.5698    3.7813    3.2249 H   0  0  0  0  0  0  0  0  0  0  0  0
   -1.9310    2.4394   -1.7788 H   0  0  0  0  0  0  0  0  0  0  0  0
   -3.5706    0.8713   -3.0614 H   0  0  0  0  0  0  0  0  0  0  0  0
   -4.7514   -1.6589   -2.5498 H   0  0  0  0  0  0  0  0  0  0  0  0
   -4.8513   -3.4318   -0.8717 H   0  0  0  0  0  0  0  0  0  0  0  0
   -3.5452   -3.2194    1.2070 H   0  0  0  0  0  0  0  0  0  0  0  0
   -2.1384   -1.2349    1.6010 H   0  0  0  0  0  0  0  0  0  0  0  0
    2.3392    2.7277    0.0837 H   0  0  0  0  0  0  0  0  0  0  0  0
    4.4745    2.9240   -1.0353 H   0  0  0  0  0  0  0  0  0  0  0  0
    5.6548    0.8800   -1.7576 H   0  0  0  0  0  0  0  0  0  0  0  0
    4.7006   -1.3400   -1.3551 H   0  0  0  0  0  0  0  0  0  0  0  0
  1  2  1  0
  2  3  1  0
  3  4  2  0
  4  5  1  0
  5  6  2  0
  6  7  1  0
  7  8  2  0
  7  9  1  0
  9 10  1  0
 10 11  2  0
  6 12  1  0
 12 13  2  0
 13 14  1  0
 14 15  1  0
 15 16  2  0
 16 17  1  0
 17 18  2  0
 18 19  1  0
 19 20  2  0
  4 21  1  0
 21 22  2  0
 22 23  1  0
 23 24  2  0
 24 25  1  0
 25 26  2  0
 26  2  1  0
 10  5  1  0
 20 12  1  0
 26 21  1  0
 20 15  1  0
  1 27  1  0
  1 28  1  0
  1 29  1  0
  3 30  1  0
  9 31  1  0
 13 32  1  0
 14 33  1  0
 16 34  1  0
 17 35  1  0
 18 36  1  0
 19 37  1  0
 22 38  1  0
 23 39  1  0
 24 40  1  0
 25 41  1  0
M  END
$$$$
[H]c1c([H])c([H])c2c(c1[H])c(C(=O)OC1([H])C([H])([H])C3([H])N(C([H])([H])[H])C([H])(C([H])([H])C3([H])[H])C1([H])[H])c([H])n2[H]
     RDKit          3D

 41 44  0  0  0  0  0  0  0  0999 V2000
   -5.2682    1.0423   -0.1017 C   0  0  0  0  0  0  0  0  0  0  0  0
   -3.8393    1.0029   -0.3151 N   0  0  0  0  0  0  0  0  0  0  0  0
   -3.1452    1.0980    0.9711 C   0  0  0  0  0  0  0  0  0  0  0  0
   -3.4633   -0.2168    1.6044 C   0  0  0  0  0  0  0  0  0  0  0  0
   -3.7039   -1.2142    0.4963 C   0  0  0  0  0  0  0  0  0  0  0  0
   -3.4760   -0.3338   -0.7393 C   0  0  0  0  0  0  0  0  0  0  0  0
   -2.0127   -0.4477   -1.0775 C   0  0  0  0  0  0  0  0  0  0  0  0
   -1.1120   -0.0252    0.0548 C   0  0  0  0  0  0  0  0  0  0  0  0
   -1.6757    1.2535    0.6485 C   0  0  0  0  0  0  0  0  0  0  0  0
    0.1787    0.2847   -0.4381 O   0  0  0  0  0  0  0  0  0  0  0  0
    1.3299   -0.3265    0.0282 C   0  0  0  0  0  0  0  0  0  0  0  0
    1.1992   -1.1892    0.9267 O   0  0  0  0  0  0  0  0  0  0  0  0
    2.6396    0.0067   -0.4910 C   0  0  0  0  0  0  0  0  0  0  0  0
    2.8876    0.9514   -1.4892 C   0  0  0  0  0  0  0  0  0  0  0  0
    4.1983    1.0180   -1.7364 N   0  0  0  0  0  0  0  0  0  0  0  0
    4.8463    0.1519   -0.9410 C   0  0  0  0  0  0  0  0  0  0  0  0
    6.1660   -0.1934   -0.7690 C   0  0  0  0  0  0  0  0  0  0  0  0
    6.5185   -1.1386    0.1475 C   0  0  0  0  0  0  0  0  0  0  0  0
    5.5761   -1.7718    0.9228 C   0  0  0  0  0  0  0  0  0  0  0  0
    4.2529   -1.4304    0.7553 C   0  0  0  0  0  0  0  0  0  0  0  0
    3.8793   -0.4880   -0.1555 C   0  0  0  0  0  0  0  0  0  0  0  0
   -5.7857    0.2039   -0.6547 H   0  0  0  0  0  0  0  0  0  0  0  0
   -5.7285    1.9793   -0.5323 H   0  0  0  0  0  0  0  0  0  0  0  0
   -5.5633    0.9204    0.9506 H   0  0  0  0  0  0  0  0  0  0  0  0
   -3.4805    1.9573    1.5665 H   0  0  0  0  0  0  0  0  0  0  0  0
   -2.6497   -0.6056    2.2487 H   0  0  0  0  0  0  0  0  0  0  0  0
   -4.3499   -0.0726    2.2557 H   0  0  0  0  0  0  0  0  0  0  0  0
   -4.7151   -1.6365    0.5073 H   0  0  0  0  0  0  0  0  0  0  0  0
   -2.9871   -2.0567    0.5135 H   0  0  0  0  0  0  0  0  0  0  0  0
   -4.0497   -0.6806   -1.6018 H   0  0  0  0  0  0  0  0  0  0  0  0
   -1.8151   -1.5440   -1.2388 H   0  0  0  0  0  0  0  0  0  0  0  0
   -1.7564    0.0423   -2.0265 H   0  0  0  0  0  0  0  0  0  0  0  0
   -1.0798   -0.8070    0.8484 H   0  0  0  0  0  0  0  0  0  0  0  0
   -1.0848    1.6264    1.4997 H   0  0  0  0  0  0  0  0  0  0  0  0
   -1.6081    2.0208   -0.1527 H   0  0  0  0  0  0  0  0  0  0  0  0
    2.1222    1.5298   -1.9749 H   0  0  0  0  0  0  0  0  0  0  0  0
    4.7122    1.6225   -2.4238 H   0  0  0  0  0  0  0  0  0  0  0  0
    6.9354    0.3006   -1.3785 H   0  0  0  0  0  0  0  0  0  0  0  0
    7.5679   -1.4047    0.2757 H   0  0  0  0  0  0  0  0  0  0  0  0
    5.8630   -2.5229    1.6503 H   0  0  0  0  0  0  0  0  0  0  0  0
    3.4772   -1.9245    1.3658 H   0  0  0  0  0  0  0  0  0  0  0  0
  1  2  1  0
  2  3  1  0
  3  4  1  0
  4  5  1  0
  5  6  1  0
  6  7  1  0
  7  8  1  0
  8  9  1  0
  8 10  1  0
 10 11  1  0
 11 12  2  0
 11 13  1  0
 13 14  2  0
 14 15  1  0
 15 16  1  0
 16 17  2  0
 17 18  1  0
 18 19  2  0
 19 20  1  0
 20 21  2  0
  6  2  1  0
 21 13  1  0
  9  3  1  0
 21 16  1  0
  1 22  1  0
  1 23  1  0
  1 24  1  0
  3 25  1  0
  4 26  1  0
  4 27  1  0
  5 28  1  0
  5 29  1  0
  6 30  1  0
  7 31  1  0
  7 32  1  0
  8 33  1  0
  9 34  1  0
  9 35  1  0
 14 36  1  0
 15 37  1  0
 17 38  1  0
 18 39  1  0
 19 40  1  0
 20 41  1  0
M  END
$$$$
[H]OC(=O)C1([H])C([H])([H])C([H])(c2nc(-c3c([H])c([H])c(C([H])([H])[H])c(N([H])C(=O)c4c([H])nc5c([H])c([H])c([H])c([H])n45)c3[H])no2)C1([H])[H]
     RDKit          3D

 50 54  0  0  0  0  0  0  0  0999 V2000
   -1.5690    3.9148    1.4929 C   0  0  0  0  0  0  0  0  0  0  0  0
   -0.6875    2.7851    1.0785 C   0  0  0  0  0  0  0  0  0  0  0  0
    0.6718    2.9390    1.1360 C   0  0  0  0  0  0  0  0  0  0  0  0
    1.5489    1.9240    0.7631 C   0  0  0  0  0  0  0  0  0  0  0  0
    1.0752    0.7118    0.3167 C   0  0  0  0  0  0  0  0  0  0  0  0
   -0.3071    0.5670    0.2626 C   0  0  0  0  0  0  0  0  0  0  0  0
   -1.1953    1.5618    0.6280 C   0  0  0  0  0  0  0  0  0  0  0  0
   -2.5904    1.4564    0.5891 N   0  0  0  0  0  0  0  0  0  0  0  0
   -3.3867    0.3594    0.1836 C   0  0  0  0  0  0  0  0  0  0  0  0
   -2.9088   -0.7213   -0.2159 O   0  0  0  0  0  0  0  0  0  0  0  0
   -4.8746    0.4662    0.2231 C   0  0  0  0  0  0  0  0  0  0  0  0
   -5.5915    1.5585    0.6269 C   0  0  0  0  0  0  0  0  0  0  0  0
   -6.8829    1.2834    0.5252 N   0  0  0  0  0  0  0  0  0  0  0  0
   -6.9769    0.0211    0.0584 C   0  0  0  0  0  0  0  0  0  0  0  0
   -8.1106   -0.7368   -0.2218 C   0  0  0  0  0  0  0  0  0  0  0  0
   -7.9962   -2.0320   -0.7007 C   0  0  0  0  0  0  0  0  0  0  0  0
   -6.7336   -2.5468   -0.8911 C   0  0  0  0  0  0  0  0  0  0  0  0
   -5.6238   -1.7601   -0.6002 C   0  0  0  0  0  0  0  0  0  0  0  0
   -5.7451   -0.4850   -0.1287 N   0  0  0  0  0  0  0  0  0  0  0  0
    1.9456   -0.3848   -0.0862 C   0  0  0  0  0  0  0  0  0  0  0  0
    1.5684   -1.5956   -0.5320 N   0  0  0  0  0  0  0  0  0  0  0  0
    2.6440   -2.3108   -0.7945 O   0  0  0  0  0  0  0  0  0  0  0  0
    3.7044   -1.6190   -0.5393 C   0  0  0  0  0  0  0  0  0  0  0  0
    3.2883   -0.4223   -0.0992 N   0  0  0  0  0  0  0  0  0  0  0  0
    5.1485   -1.9983   -0.6779 C   0  0  0  0  0  0  0  0  0  0  0  0
    5.9025   -0.9048   -1.4069 C   0  0  0  0  0  0  0  0  0  0  0  0
    6.9336   -0.9497   -0.2985 C   0  0  0  0  0  0  0  0  0  0  0  0
    5.9222   -1.6367    0.5733 C   0  0  0  0  0  0  0  0  0  0  0  0
    8.0875   -1.7688   -0.7220 C   0  0  0  0  0  0  0  0  0  0  0  0
    8.7793   -1.3354   -1.8657 O   0  0  0  0  0  0  0  0  0  0  0  0
    8.4819   -2.8017   -0.1421 O   0  0  0  0  0  0  0  0  0  0  0  0
   -2.1751    3.6710    2.3622 H   0  0  0  0  0  0  0  0  0  0  0  0
   -2.2513    4.1052    0.6167 H   0  0  0  0  0  0  0  0  0  0  0  0
   -1.0106    4.8331    1.6741 H   0  0  0  0  0  0  0  0  0  0  0  0
    1.0721    3.9017    1.4905 H   0  0  0  0  0  0  0  0  0  0  0  0
    2.6234    2.0527    0.8112 H   0  0  0  0  0  0  0  0  0  0  0  0
   -0.6629   -0.3847   -0.0878 H   0  0  0  0  0  0  0  0  0  0  0  0
   -3.1585    2.3033    0.9025 H   0  0  0  0  0  0  0  0  0  0  0  0
   -5.1734    2.4837    0.9691 H   0  0  0  0  0  0  0  0  0  0  0  0
   -9.0977   -0.3108   -0.0643 H   0  0  0  0  0  0  0  0  0  0  0  0
   -8.8800   -2.6170   -0.9171 H   0  0  0  0  0  0  0  0  0  0  0  0
   -6.6148   -3.5497   -1.2619 H   0  0  0  0  0  0  0  0  0  0  0  0
   -4.6624   -2.1833   -0.7566 H   0  0  0  0  0  0  0  0  0  0  0  0
    5.3060   -3.0128   -1.0512 H   0  0  0  0  0  0  0  0  0  0  0  0
    6.2970   -1.1931   -2.4029 H   0  0  0  0  0  0  0  0  0  0  0  0
    5.3339    0.0566   -1.4567 H   0  0  0  0  0  0  0  0  0  0  0  0
    7.2378    0.0500    0.0823 H   0  0  0  0  0  0  0  0  0  0  0  0
    6.3350   -2.5244    1.1264 H   0  0  0  0  0  0  0  0  0  0  0  0
    5.3823   -0.9094    1.2179 H   0  0  0  0  0  0  0  0  0  0  0  0
    9.5770   -0.6958   -1.7891 H   0  0  0  0  0  0  0  0  0  0  0  0
  1  2  1  0
  2  3  2  0
  3  4  1  0
  4  5  2  0
  5  6  1  0
  6  7  2  0
  7  8  1  0
  8  9  1  0
  9 10  2  0
  9 11  1  0
 11 12  2  0
 12 13  1  0
 13 14  2  0
 14 15  1  0
 15 16  2  0
 16 17  1  0
 17 18  2  0
 18 19  1  0
  5 20  1  0
 20 21  2  0
 21 22  1  0
 22 23  1  0
 23 24  2  0
 23 25  1  0
 25 26  1  0
 26 27  1  0
 27 28  1  0
 27 29  1  0
 29 30  1  0
 29 31  2  0
  7  2  1  0
 19 11  1  0
 24 20  1  0
 28 25  1  0
 19 14  1  0
  1 32  1  0
  1 33  1  0
  1 34  1  0
  3 35  1  0
  4 36  1  0
  6 37  1  0
  8 38  1  0
 12 39  1  0
 15 40  1  0
 16 41  1  0
 17 42  1  0
 18 43  1  0
 25 44  1  0
 26 45  1  0
 26 46  1  0
 27 47  1  0
 28 48  1  0
 28 49  1  0
 30 50  1  0
M  END
$$$$
[H]OC(=O)C([H])([H])[C@@]([H])(C([H])=O)N([H])C(=O)[C@@]([H])(N([H])C(=O)[C@@]([H])(N([H])C(=O)OC([H])([H])c1c([H])c([H])c([H])c([H])c1[H])C([H])(C([H])([H])[H])C([H])([H])[H])C([H])([H])C(=O)O[H]
     RDKit          3D

 60 60  0  0  0  0  0  0  0  0999 V2000
    2.6035   -1.8008   -2.3607 C   0  0  0  0  0  0  0  0  0  0  0  0
    1.3031   -1.7160   -1.6400 C   0  0  0  0  0  0  0  0  0  0  0  0
    0.4857   -2.9627   -1.6115 C   0  0  0  0  0  0  0  0  0  0  0  0
    1.4135   -1.0797   -0.2488 C   0  0  2  0  0  0  0  0  0  0  0  0
    2.3054   -1.8357    0.5920 N   0  0  0  0  0  0  0  0  0  0  0  0
    3.5636   -1.3552    1.0341 C   0  0  0  0  0  0  0  0  0  0  0  0
    3.8758   -0.1838    0.6248 O   0  0  0  0  0  0  0  0  0  0  0  0
    4.4505   -2.0070    1.8350 O   0  0  0  0  0  0  0  0  0  0  0  0
    5.6934   -1.4862    2.2357 C   0  0  0  0  0  0  0  0  0  0  0  0
    5.6384   -0.2209    2.9743 C   0  0  0  0  0  0  0  0  0  0  0  0
    5.1842   -0.2098    4.2698 C   0  0  0  0  0  0  0  0  0  0  0  0
    5.1167    0.9451    5.0346 C   0  0  0  0  0  0  0  0  0  0  0  0
    5.5143    2.1518    4.5021 C   0  0  0  0  0  0  0  0  0  0  0  0
    5.9784    2.1798    3.1967 C   0  0  0  0  0  0  0  0  0  0  0  0
    6.0342    1.0107    2.4595 C   0  0  0  0  0  0  0  0  0  0  0  0
    0.0306   -1.0377    0.2984 C   0  0  0  0  0  0  0  0  0  0  0  0
   -0.3964   -1.9421    1.0496 O   0  0  0  0  0  0  0  0  0  0  0  0
   -0.7910    0.0334   -0.0377 N   0  0  0  0  0  0  0  0  0  0  0  0
   -2.1899    0.1862    0.4298 C   0  0  1  0  0  0  0  0  0  0  0  0
   -2.3424    1.3718    1.2984 C   0  0  0  0  0  0  0  0  0  0  0  0
   -3.7232    1.4494    1.8329 C   0  0  0  0  0  0  0  0  0  0  0  0
   -4.5193    0.3071    1.7730 O   0  0  0  0  0  0  0  0  0  0  0  0
   -4.2181    2.4897    2.3410 O   0  0  0  0  0  0  0  0  0  0  0  0
   -2.9210    0.3373   -0.8402 C   0  0  0  0  0  0  0  0  0  0  0  0
   -2.5314   -0.4187   -1.8037 O   0  0  0  0  0  0  0  0  0  0  0  0
   -3.9631    1.2041   -1.0933 N   0  0  0  0  0  0  0  0  0  0  0  0
   -4.5529    1.1852   -2.4768 C   0  0  1  0  0  0  0  0  0  0  0  0
   -5.9740    0.7415   -2.2782 C   0  0  0  0  0  0  0  0  0  0  0  0
   -6.6845    0.6671   -3.5924 C   0  0  0  0  0  0  0  0  0  0  0  0
   -8.0075    0.2724   -3.5598 O   0  0  0  0  0  0  0  0  0  0  0  0
   -6.1112    0.9481   -4.6702 O   0  0  0  0  0  0  0  0  0  0  0  0
   -4.4118    2.5670   -2.9840 C   0  0  0  0  0  0  0  0  0  0  0  0
   -3.9078    3.4152   -2.2640 O   0  0  0  0  0  0  0  0  0  0  0  0
    2.5485   -2.4049   -3.2942 H   0  0  0  0  0  0  0  0  0  0  0  0
    2.8817   -0.7652   -2.7167 H   0  0  0  0  0  0  0  0  0  0  0  0
    3.4202   -2.2564   -1.7691 H   0  0  0  0  0  0  0  0  0  0  0  0
    0.6957   -0.9526   -2.2179 H   0  0  0  0  0  0  0  0  0  0  0  0
    0.6721   -3.4977   -0.6657 H   0  0  0  0  0  0  0  0  0  0  0  0
   -0.6140   -2.7301   -1.6147 H   0  0  0  0  0  0  0  0  0  0  0  0
    0.6618   -3.6286   -2.4830 H   0  0  0  0  0  0  0  0  0  0  0  0
    1.8115   -0.0502   -0.3484 H   0  0  0  0  0  0  0  0  0  0  0  0
    2.0291   -2.7959    0.9058 H   0  0  0  0  0  0  0  0  0  0  0  0
    6.2976   -1.3043    1.2987 H   0  0  0  0  0  0  0  0  0  0  0  0
    6.2862   -2.2291    2.8181 H   0  0  0  0  0  0  0  0  0  0  0  0
    4.8601   -1.1474    4.7205 H   0  0  0  0  0  0  0  0  0  0  0  0
    4.7544    0.9046    6.0518 H   0  0  0  0  0  0  0  0  0  0  0  0
    5.4536    3.0568    5.1233 H   0  0  0  0  0  0  0  0  0  0  0  0
    6.2877    3.1410    2.7943 H   0  0  0  0  0  0  0  0  0  0  0  0
    6.3968    1.0545    1.4561 H   0  0  0  0  0  0  0  0  0  0  0  0
   -0.4496    0.7966   -0.6453 H   0  0  0  0  0  0  0  0  0  0  0  0
   -2.5267   -0.7191    0.9612 H   0  0  0  0  0  0  0  0  0  0  0  0
   -2.0753    2.3344    0.8021 H   0  0  0  0  0  0  0  0  0  0  0  0
   -1.6730    1.2251    2.1955 H   0  0  0  0  0  0  0  0  0  0  0  0
   -5.5149    0.3912    1.8652 H   0  0  0  0  0  0  0  0  0  0  0  0
   -4.4391    1.9083   -0.5132 H   0  0  0  0  0  0  0  0  0  0  0  0
   -4.0292    0.4530   -3.0967 H   0  0  0  0  0  0  0  0  0  0  0  0
   -6.4843    1.4089   -1.5569 H   0  0  0  0  0  0  0  0  0  0  0  0
   -5.9398   -0.2988   -1.8605 H   0  0  0  0  0  0  0  0  0  0  0  0
   -8.5113    0.0633   -4.4251 H   0  0  0  0  0  0  0  0  0  0  0  0
   -4.7457    2.8362   -3.9754 H   0  0  0  0  0  0  0  0  0  0  0  0
  1  2  1  0
  2  3  1  0
  2  4  1  0
  4  5  1  0
  5  6  1  0
  6  7  2  0
  6  8  1  0
  8  9  1  0
  9 10  1  0
 10 11  2  0
 11 12  1  0
 12 13  2  0
 13 14  1  0
 14 15  2  0
  4 16  1  0
 16 17  2  0
 16 18  1  0
 18 19  1  0
 19 20  1  0
 20 21  1  0
 21 22  1  0
 21 23  2  0
 19 24  1  0
 24 25  2  0
 24 26  1  0
 26 27  1  0
 27 28  1  0
 28 29  1  0
 29 30  1  0
 29 31  2  0
 27 32  1  0
 32 33  2  0
 15 10  1  0
  1 34  1  0
  1 35  1  0
  1 36  1  0
  2 37  1  0
  3 38  1  0
  3 39  1  0
  3 40  1  0
  4 41  1  6
  5 42  1  0
  9 43  1  0
  9 44  1  0
 11 45  1  0
 12 46  1  0
 13 47  1  0
 14 48  1  0
 15 49  1  0
 18 50  1  0
 19 51  1  1
 20 52  1  0
 20 53  1  0
 22 54  1  0
 26 55  1  0
 27 56  1  6
 28 57  1  0
 28 58  1  0
 30 59  1  0
 32 60  1  0
M  END
$$$$
[H]OC([H])([H])C(=O)[C@@]1([H])C([H])([H])C([H])([H])[C@@]2([H])[C@]3([H])C([H])([H])C([H])=C4C([H])([H])[C@]([H])(O[H])C([H])([H])C([H])([H])[C@]4(C([H])([H])[H])[C@@]3([H])C([H])([H])C([H])([H])[C@]12C([H])([H])[H]
     RDKit          3D

 56 59  0  0  0  0  0  0  0  0999 V2000
    2.3167    1.5074   -0.1143 C   0  0  0  0  0  0  0  0  0  0  0  0
    1.9744    0.0431   -0.0389 C   0  0  2  0  0  0  0  0  0  0  0  0
    1.2646   -0.4653   -1.2207 C   0  0  0  0  0  0  0  0  0  0  0  0
   -0.0675   -1.0702   -1.0050 C   0  0  0  0  0  0  0  0  0  0  0  0
   -0.8776   -0.6029    0.1240 C   0  0  1  0  0  0  0  0  0  0  0  0
   -0.1311    0.2893    1.1210 C   0  0  1  0  0  0  0  0  0  0  0  0
   -0.9353    0.2567    2.4018 C   0  0  0  0  0  0  0  0  0  0  0  0
   -2.3284    0.6916    2.0835 C   0  0  0  0  0  0  0  0  0  0  0  0
   -2.8852    0.6068    0.8920 C   0  0  0  0  0  0  0  0  0  0  0  0
   -4.2798    1.0772    0.7198 C   0  0  0  0  0  0  0  0  0  0  0  0
   -4.8804    0.6926   -0.5862 C   0  0  2  0  0  0  0  0  0  0  0  0
   -6.2798    0.6100   -0.3892 O   0  0  0  0  0  0  0  0  0  0  0  0
   -4.4437   -0.6018   -1.1667 C   0  0  0  0  0  0  0  0  0  0  0  0
   -3.0836   -1.0737   -0.7982 C   0  0  0  0  0  0  0  0  0  0  0  0
   -2.1787    0.0577   -0.2977 C   0  0  2  0  0  0  0  0  0  0  0  0
   -2.0073    1.0808   -1.3689 C   0  0  0  0  0  0  0  0  0  0  0  0
    1.2144   -0.2907    1.2426 C   0  0  2  0  0  0  0  0  0  0  0  0
    2.1379    0.2044    2.2690 C   0  0  0  0  0  0  0  0  0  0  0  0
    3.5137   -0.1717    1.6984 C   0  0  0  0  0  0  0  0  0  0  0  0
    3.2531   -0.6956    0.3036 C   0  0  2  0  0  0  0  0  0  0  0  0
    4.3473   -0.4623   -0.6439 C   0  0  0  0  0  0  0  0  0  0  0  0
    4.1558    0.2638   -1.5972 O   0  0  0  0  0  0  0  0  0  0  0  0
    5.6830   -1.0834   -0.4795 C   0  0  0  0  0  0  0  0  0  0  0  0
    6.5407   -0.7108   -1.5001 O   0  0  0  0  0  0  0  0  0  0  0  0
    1.5786    2.1718    0.3797 H   0  0  0  0  0  0  0  0  0  0  0  0
    3.3537    1.7161    0.2077 H   0  0  0  0  0  0  0  0  0  0  0  0
    2.2692    1.7911   -1.2006 H   0  0  0  0  0  0  0  0  0  0  0  0
    1.9421   -1.2121   -1.7355 H   0  0  0  0  0  0  0  0  0  0  0  0
    1.2032    0.3742   -1.9774 H   0  0  0  0  0  0  0  0  0  0  0  0
    0.0636   -2.1937   -0.9774 H   0  0  0  0  0  0  0  0  0  0  0  0
   -0.6648   -0.9116   -1.9539 H   0  0  0  0  0  0  0  0  0  0  0  0
   -1.1971   -1.4899    0.7492 H   0  0  0  0  0  0  0  0  0  0  0  0
   -0.2157    1.3010    0.7231 H   0  0  0  0  0  0  0  0  0  0  0  0
   -0.8937   -0.7029    2.9228 H   0  0  0  0  0  0  0  0  0  0  0  0
   -0.4741    1.0266    3.0783 H   0  0  0  0  0  0  0  0  0  0  0  0
   -2.9400    1.1150    2.9011 H   0  0  0  0  0  0  0  0  0  0  0  0
   -4.9323    0.7616    1.5793 H   0  0  0  0  0  0  0  0  0  0  0  0
   -4.2526    2.1902    0.7779 H   0  0  0  0  0  0  0  0  0  0  0  0
   -4.7626    1.5210   -1.3407 H   0  0  0  0  0  0  0  0  0  0  0  0
   -6.4029   -0.2596    0.0999 H   0  0  0  0  0  0  0  0  0  0  0  0
   -4.5090   -0.5253   -2.2910 H   0  0  0  0  0  0  0  0  0  0  0  0
   -5.1541   -1.4478   -0.9308 H   0  0  0  0  0  0  0  0  0  0  0  0
   -2.6011   -1.5083   -1.6966 H   0  0  0  0  0  0  0  0  0  0  0  0
   -3.0892   -1.8976   -0.0460 H   0  0  0  0  0  0  0  0  0  0  0  0
   -2.6481    0.8166   -2.2527 H   0  0  0  0  0  0  0  0  0  0  0  0
   -0.9794    1.3080   -1.6478 H   0  0  0  0  0  0  0  0  0  0  0  0
   -2.4491    2.0474   -0.9860 H   0  0  0  0  0  0  0  0  0  0  0  0
    1.1653   -1.3965    1.2766 H   0  0  0  0  0  0  0  0  0  0  0  0
    2.0773    1.2687    2.5108 H   0  0  0  0  0  0  0  0  0  0  0  0
    1.9925   -0.3555    3.2138 H   0  0  0  0  0  0  0  0  0  0  0  0
    4.1904    0.6790    1.7460 H   0  0  0  0  0  0  0  0  0  0  0  0
    3.9722   -0.9828    2.3361 H   0  0  0  0  0  0  0  0  0  0  0  0
    3.0546   -1.7974    0.4257 H   0  0  0  0  0  0  0  0  0  0  0  0
    6.1733   -0.7479    0.4784 H   0  0  0  0  0  0  0  0  0  0  0  0
    5.6258   -2.2013   -0.5058 H   0  0  0  0  0  0  0  0  0  0  0  0
    7.4807   -0.6112   -1.1863 H   0  0  0  0  0  0  0  0  0  0  0  0
  2  1  1  6
  2  3  1  0
  3  4  1  0
  4  5  1  0
  5  6  1  0
  6  7  1  0
  7  8  1  0
  8  9  2  0
  9 10  1  0
 10 11  1  0
 11 12  1  0
 11 13  1  0
 13 14  1  0
 14 15  1  0
 15 16  1  6
  6 17  1  0
 17 18  1  0
 18 19  1  0
 19 20  1  0
 20 21  1  0
 21 22  2  0
 21 23  1  0
 23 24  1  0
 17  2  1  0
 20  2  1  0
 15  5  1  0
 15  9  1  0
  1 25  1  0
  1 26  1  0
  1 27  1  0
  3 28  1  0
  3 29  1  0
  4 30  1  0
  4 31  1  0
  5 32  1  1
  6 33  1  6
  7 34  1  0
  7 35  1  0
  8 36  1  0
 10 37  1  0
 10 38  1  0
 11 39  1  6
 12 40  1  0
 13 41  1  0
 13 42  1  0
 14 43  1  0
 14 44  1  0
 16 45  1  0
 16 46  1  0
 16 47  1  0
 17 48  1  1
 18 49  1  0
 18 50  1  0
 19 51  1  0
 19 52  1  0
 20 53  1  1
 23 54  1  0
 23 55  1  0
 24 56  1  0
M  END
$$$$
