[H]c1c([H])c([N+](=O)[O-])c([H])c([H])c1N1C([H])([H])C([H])([H])N(C(=O)c2nc3c([H])c([H])c([H])c([H])c3n2[H])C([H])([H])C1([H])[H]
     RDKit          3D

 43 46  0  0  0  0  0  0  0  0999 V2000
   -7.6736   -2.6025    0.7641 O   0  0  0  0  0  0  0  0  0  0  0  0
   -7.2279   -1.7264   -0.1786 N   0  0  0  0  0  0  0  0  0  0  0  0
   -7.9696   -1.3945   -1.1046 O   0  0  0  0  0  0  0  0  0  0  0  0
   -5.9238   -1.2037   -0.0923 C   0  0  0  0  0  0  0  0  0  0  0  0
   -5.4845   -0.3185   -1.0517 C   0  0  0  0  0  0  0  0  0  0  0  0
   -4.2097    0.1913   -0.9657 C   0  0  0  0  0  0  0  0  0  0  0  0
   -3.3413   -0.1410    0.0402 C   0  0  0  0  0  0  0  0  0  0  0  0
   -3.7910   -1.0244    0.9907 C   0  0  0  0  0  0  0  0  0  0  0  0
   -5.0560   -1.5551    0.9398 C   0  0  0  0  0  0  0  0  0  0  0  0
   -2.0074    0.4349    0.0902 N   0  0  0  0  0  0  0  0  0  0  0  0
   -1.6651    1.5469   -0.7517 C   0  0  0  0  0  0  0  0  0  0  0  0
   -0.5916    2.3621   -0.0162 C   0  0  0  0  0  0  0  0  0  0  0  0
    0.5555    1.4386    0.0510 N   0  0  0  0  0  0  0  0  0  0  0  0
    0.3668    0.0949    0.5190 C   0  0  0  0  0  0  0  0  0  0  0  0
   -1.0582   -0.1386    0.9850 C   0  0  0  0  0  0  0  0  0  0  0  0
    1.8049    1.9153   -0.3515 C   0  0  0  0  0  0  0  0  0  0  0  0
    1.9217    3.1260   -0.7556 O   0  0  0  0  0  0  0  0  0  0  0  0
    2.9912    1.0575   -0.3226 C   0  0  0  0  0  0  0  0  0  0  0  0
    3.1083   -0.2197    0.0460 N   0  0  0  0  0  0  0  0  0  0  0  0
    4.3732   -0.6543   -0.0754 C   0  0  0  0  0  0  0  0  0  0  0  0
    5.0149   -1.8562    0.1643 C   0  0  0  0  0  0  0  0  0  0  0  0
    6.3680   -2.0366   -0.0529 C   0  0  0  0  0  0  0  0  0  0  0  0
    7.0779   -0.9530   -0.5286 C   0  0  0  0  0  0  0  0  0  0  0  0
    6.4753    0.2729   -0.7837 C   0  0  0  0  0  0  0  0  0  0  0  0
    5.1152    0.4231   -0.5557 C   0  0  0  0  0  0  0  0  0  0  0  0
    4.2504    1.4380   -0.6932 N   0  0  0  0  0  0  0  0  0  0  0  0
   -6.1435   -0.0193   -1.8803 H   0  0  0  0  0  0  0  0  0  0  0  0
   -3.8719    0.8972   -1.7452 H   0  0  0  0  0  0  0  0  0  0  0  0
   -3.1041   -1.2981    1.8086 H   0  0  0  0  0  0  0  0  0  0  0  0
   -5.4091   -2.2546    1.6941 H   0  0  0  0  0  0  0  0  0  0  0  0
   -1.1951    1.2083   -1.6899 H   0  0  0  0  0  0  0  0  0  0  0  0
   -2.5530    2.1849   -0.9521 H   0  0  0  0  0  0  0  0  0  0  0  0
   -0.9149    2.5316    1.0313 H   0  0  0  0  0  0  0  0  0  0  0  0
   -0.3220    3.2683   -0.5601 H   0  0  0  0  0  0  0  0  0  0  0  0
    0.9962   -0.0537    1.4447 H   0  0  0  0  0  0  0  0  0  0  0  0
    0.5899   -0.6745   -0.2355 H   0  0  0  0  0  0  0  0  0  0  0  0
   -1.2706   -1.2518    0.9990 H   0  0  0  0  0  0  0  0  0  0  0  0
   -1.2091    0.1873    2.0384 H   0  0  0  0  0  0  0  0  0  0  0  0
    4.4513   -2.7048    0.5385 H   0  0  0  0  0  0  0  0  0  0  0  0
    6.8559   -2.9642    0.1336 H   0  0  0  0  0  0  0  0  0  0  0  0
    8.1423   -1.0525   -0.7125 H   0  0  0  0  0  0  0  0  0  0  0  0
    7.0356    1.1291   -1.1595 H   0  0  0  0  0  0  0  0  0  0  0  0
    4.4988    2.3896   -1.0354 H   0  0  0  0  0  0  0  0  0  0  0  0
  1  2  1  0
  2  3  2  0
  2  4  1  0
  4  5  2  0
  5  6  1  0
  6  7  2  0
  7  8  1  0
  8  9  2  0
  7 10  1  0
 10 11  1  0
 11 12  1  0
 12 13  1  0
 13 14  1  0
 14 15  1  0
 13 16  1  0
 16 17  2  0
 16 18  1  0
 18 19  2  0
 19 20  1  0
 20 21  2  0
 21 22  1  0
 22 23  2  0
 23 24  1  0
 24 25  2  0
 25 26  1  0
  9  4  1  0
 15 10  1  0
 26 18  1  0
 25 20  1  0
  5 27  1  0
  6 28  1  0
  8 29  1  0
  9 30  1  0
 11 31  1  0
 11 32  1  0
 12 33  1  0
 12 34  1  0
 14 35  1  0
 14 36  1  0
 15 37  1  0
 15 38  1  0
 21 39  1  0
 22 40  1  0
 23 41  1  0
 24 42  1  0
 26 43  1  0
M  CHG  2   1  -1   2   1
M  END
$$$$
[H]OC(=O)[C@@]([H])(N([H])[H])C([H])([H])OP(=O)(O[H])OC([H])([H])[C@]([H])(O[H])C([H])([H])OC(=O)C([H])([H])C([H])([H])C([H])([H])C([H])([H])C([H])([H])C([H])([H])C([H])([H])/C([H])=C(/[H])C([H])([H])C([H])([H])C([H])([H])C([H])([H])C([H])([H])C([H])([H])C([H])([H])C([H])([H])[H]
     RDKit          3D

 81 80  0  0  0  0  0  0  0  0999 V2000
    9.5930   -3.4687    0.0842 C   0  0  0  0  0  0  0  0  0  0  0  0
    8.1924   -2.9794   -0.2107 C   0  0  0  0  0  0  0  0  0  0  0  0
    7.7122   -2.0250    0.8860 C   0  0  0  0  0  0  0  0  0  0  0  0
    8.6808   -0.8787    0.8989 C   0  0  0  0  0  0  0  0  0  0  0  0
    8.3718    0.1672    1.9160 C   0  0  0  0  0  0  0  0  0  0  0  0
    7.0485    0.8289    1.7674 C   0  0  0  0  0  0  0  0  0  0  0  0
    6.8794    1.5347    0.4421 C   0  0  0  0  0  0  0  0  0  0  0  0
    5.4960    2.1974    0.3633 C   0  0  0  0  0  0  0  0  0  0  0  0
    4.3979    1.2425    0.4911 C   0  0  0  0  0  0  0  0  0  0  0  0
    3.5170    1.0936   -0.4839 C   0  0  0  0  0  0  0  0  0  0  0  0
    3.4998    1.8090   -1.7602 C   0  0  0  0  0  0  0  0  0  0  0  0
    2.2426    2.6196   -1.9815 C   0  0  0  0  0  0  0  0  0  0  0  0
    1.0056    1.7439   -1.9660 C   0  0  0  0  0  0  0  0  0  0  0  0
   -0.2496    2.5857   -2.2062 C   0  0  0  0  0  0  0  0  0  0  0  0
   -0.4770    3.6272   -1.1931 C   0  0  0  0  0  0  0  0  0  0  0  0
   -0.7352    3.2977    0.2127 C   0  0  0  0  0  0  0  0  0  0  0  0
   -1.9795    2.6144    0.5467 C   0  0  0  0  0  0  0  0  0  0  0  0
   -2.1769    1.2755   -0.0308 C   0  0  0  0  0  0  0  0  0  0  0  0
   -1.3918    0.3219    0.3080 O   0  0  0  0  0  0  0  0  0  0  0  0
   -3.1594    0.9819   -0.9126 O   0  0  0  0  0  0  0  0  0  0  0  0
   -3.5232   -0.1751   -1.5444 C   0  0  0  0  0  0  0  0  0  0  0  0
   -4.0567   -1.2738   -0.6881 C   0  0  1  0  0  0  0  0  0  0  0  0
   -3.1480   -1.7135    0.2373 O   0  0  0  0  0  0  0  0  0  0  0  0
   -5.3358   -0.8482    0.0209 C   0  0  0  0  0  0  0  0  0  0  0  0
   -5.8472   -1.9618    0.7139 O   0  0  0  0  0  0  0  0  0  0  0  0
   -7.2610   -1.5911    1.5265 P   0  0  0  0  0  0  0  0  0  0  0  0
   -7.2765    0.0942    1.8105 O   0  0  0  0  0  0  0  0  0  0  0  0
   -7.3699   -2.2726    2.8692 O   0  0  0  0  0  0  0  0  0  0  0  0
   -8.6285   -1.9946    0.6051 O   0  0  0  0  0  0  0  0  0  0  0  0
   -9.5555   -2.6705    1.3886 C   0  0  0  0  0  0  0  0  0  0  0  0
  -10.7372   -2.9947    0.5029 C   0  0  2  0  0  0  0  0  0  0  0  0
  -10.3232   -3.8343   -0.6207 N   0  0  0  0  0  0  0  0  0  0  0  0
  -11.2791   -1.7155    0.0007 C   0  0  0  0  0  0  0  0  0  0  0  0
  -11.7320   -0.7647    0.8942 O   0  0  0  0  0  0  0  0  0  0  0  0
  -11.3354   -1.4772   -1.2227 O   0  0  0  0  0  0  0  0  0  0  0  0
   10.3290   -2.6929   -0.2678 H   0  0  0  0  0  0  0  0  0  0  0  0
    9.7502   -4.3989   -0.4943 H   0  0  0  0  0  0  0  0  0  0  0  0
    9.7479   -3.6793    1.1656 H   0  0  0  0  0  0  0  0  0  0  0  0
    8.2176   -2.4689   -1.1928 H   0  0  0  0  0  0  0  0  0  0  0  0
    7.5131   -3.8498   -0.2960 H   0  0  0  0  0  0  0  0  0  0  0  0
    7.7727   -2.5943    1.8561 H   0  0  0  0  0  0  0  0  0  0  0  0
    6.6866   -1.7209    0.6687 H   0  0  0  0  0  0  0  0  0  0  0  0
    9.6883   -1.2958    1.1536 H   0  0  0  0  0  0  0  0  0  0  0  0
    8.7737   -0.4864   -0.1324 H   0  0  0  0  0  0  0  0  0  0  0  0
    8.3479   -0.3629    2.9144 H   0  0  0  0  0  0  0  0  0  0  0  0
    9.1942    0.8978    2.0094 H   0  0  0  0  0  0  0  0  0  0  0  0
    6.2205    0.1353    1.9515 H   0  0  0  0  0  0  0  0  0  0  0  0
    6.9775    1.6184    2.5509 H   0  0  0  0  0  0  0  0  0  0  0  0
    7.6131    2.3220    0.2746 H   0  0  0  0  0  0  0  0  0  0  0  0
    6.8938    0.7584   -0.3506 H   0  0  0  0  0  0  0  0  0  0  0  0
    5.4628    2.8299    1.3124 H   0  0  0  0  0  0  0  0  0  0  0  0
    5.4363    2.9254   -0.4406 H   0  0  0  0  0  0  0  0  0  0  0  0
    4.2584    0.6190    1.3861 H   0  0  0  0  0  0  0  0  0  0  0  0
    2.6975    0.3530   -0.3377 H   0  0  0  0  0  0  0  0  0  0  0  0
    4.3590    2.4227   -2.0051 H   0  0  0  0  0  0  0  0  0  0  0  0
    3.4684    1.0221   -2.5823 H   0  0  0  0  0  0  0  0  0  0  0  0
    2.2815    3.1181   -2.9679 H   0  0  0  0  0  0  0  0  0  0  0  0
    2.1154    3.4056   -1.2163 H   0  0  0  0  0  0  0  0  0  0  0  0
    1.0233    0.9937   -2.7847 H   0  0  0  0  0  0  0  0  0  0  0  0
    0.8879    1.2187   -1.0258 H   0  0  0  0  0  0  0  0  0  0  0  0
   -1.1033    1.9744   -2.4842 H   0  0  0  0  0  0  0  0  0  0  0  0
   -0.0025    3.1503   -3.1742 H   0  0  0  0  0  0  0  0  0  0  0  0
    0.3638    4.3897   -1.3023 H   0  0  0  0  0  0  0  0  0  0  0  0
   -1.3815    4.2265   -1.5682 H   0  0  0  0  0  0  0  0  0  0  0  0
    0.1071    2.7017    0.6831 H   0  0  0  0  0  0  0  0  0  0  0  0
   -0.7244    4.2874    0.7893 H   0  0  0  0  0  0  0  0  0  0  0  0
   -2.0317    2.5179    1.6871 H   0  0  0  0  0  0  0  0  0  0  0  0
   -2.8608    3.2519    0.2401 H   0  0  0  0  0  0  0  0  0  0  0  0
   -2.6396   -0.5572   -2.1326 H   0  0  0  0  0  0  0  0  0  0  0  0
   -4.2915    0.1013   -2.3413 H   0  0  0  0  0  0  0  0  0  0  0  0
   -4.3227   -2.1464   -1.3517 H   0  0  0  0  0  0  0  0  0  0  0  0
   -3.4629   -2.5468    0.6717 H   0  0  0  0  0  0  0  0  0  0  0  0
   -5.1168   -0.0162    0.6889 H   0  0  0  0  0  0  0  0  0  0  0  0
   -6.0613   -0.5848   -0.7705 H   0  0  0  0  0  0  0  0  0  0  0  0
   -7.6038    0.5547    0.9790 H   0  0  0  0  0  0  0  0  0  0  0  0
   -9.1439   -3.5905    1.8365 H   0  0  0  0  0  0  0  0  0  0  0  0
   -9.9195   -1.9607    2.1651 H   0  0  0  0  0  0  0  0  0  0  0  0
  -11.4739   -3.5530    1.0878 H   0  0  0  0  0  0  0  0  0  0  0  0
  -11.1586   -4.2960   -1.0396 H   0  0  0  0  0  0  0  0  0  0  0  0
   -9.8305   -3.2264   -1.2903 H   0  0  0  0  0  0  0  0  0  0  0  0
  -12.1169   -0.9788    1.8119 H   0  0  0  0  0  0  0  0  0  0  0  0
  1  2  1  0
  2  3  1  0
  3  4  1  0
  4  5  1  0
  5  6  1  0
  6  7  1  0
  7  8  1  0
  8  9  1  0
  9 10  2  0
 10 11  1  0
 11 12  1  0
 12 13  1  0
 13 14  1  0
 14 15  1  0
 15 16  1  0
 16 17  1  0
 17 18  1  0
 18 19  2  0
 18 20  1  0
 20 21  1  0
 21 22  1  0
 22 23  1  0
 22 24  1  0
 24 25  1  0
 25 26  1  0
 26 27  1  0
 26 28  2  0
 26 29  1  0
 29 30  1  0
 30 31  1  0
 31 32  1  0
 31 33  1  0
 33 34  1  0
 33 35  2  0
  1 36  1  0
  1 37  1  0
  1 38  1  0
  2 39  1  0
  2 40  1  0
  3 41  1  0
  3 42  1  0
  4 43  1  0
  4 44  1  0
  5 45  1  0
  5 46  1  0
  6 47  1  0
  6 48  1  0
  7 49  1  0
  7 50  1  0
  8 51  1  0
  8 52  1  0
  9 53  1  0
 10 54  1  0
 11 55  1  0
 11 56  1  0
 12 57  1  0
 12 58  1  0
 13 59  1  0
 13 60  1  0
 14 61  1  0
 14 62  1  0
 15 63  1  0
 15 64  1  0
 16 65  1  0
 16 66  1  0
 17 67  1  0
 17 68  1  0
 21 69  1  0
 21 70  1  0
 22 71  1  6
 23 72  1  0
 24 73  1  0
 24 74  1  0
 27 75  1  0
 30 76  1  0
 30 77  1  0
 31 78  1  1
 32 79  1  0
 32 80  1  0
 34 81  1  0
M  END
$$$$
[H]c1c(C#N)c([H])c2c(C3([H])C([H])([H])C([H])([H])N(C([H])([H])[H])C([H])([H])C3([H])[H])c([H])n([H])c2c1[H]
     RDKit          3D

 35 37  0  0  0  0  0  0  0  0999 V2000
    4.2446   -0.4693   -0.2081 C   0  0  0  0  0  0  0  0  0  0  0  0
    3.2437    0.5106    0.1236 N   0  0  0  0  0  0  0  0  0  0  0  0
    2.5803    1.0833   -0.9693 C   0  0  0  0  0  0  0  0  0  0  0  0
    1.1019    0.8626   -1.0288 C   0  0  0  0  0  0  0  0  0  0  0  0
    0.7123   -0.1013    0.0559 C   0  0  0  0  0  0  0  0  0  0  0  0
    1.1242    0.3605    1.3801 C   0  0  0  0  0  0  0  0  0  0  0  0
    2.6449    0.4817    1.3726 C   0  0  0  0  0  0  0  0  0  0  0  0
   -0.5188   -0.8185   -0.1652 C   0  0  0  0  0  0  0  0  0  0  0  0
   -0.6666   -2.1580   -0.4675 C   0  0  0  0  0  0  0  0  0  0  0  0
   -1.9718   -2.5086   -0.4914 N   0  0  0  0  0  0  0  0  0  0  0  0
   -2.6813   -1.3863   -0.2068 C   0  0  0  0  0  0  0  0  0  0  0  0
   -4.0574   -1.2018   -0.1959 C   0  0  0  0  0  0  0  0  0  0  0  0
   -4.5443    0.0949    0.0189 C   0  0  0  0  0  0  0  0  0  0  0  0
   -3.6717    1.1469    0.2180 C   0  0  0  0  0  0  0  0  0  0  0  0
   -2.3073    0.8906    0.2015 C   0  0  0  0  0  0  0  0  0  0  0  0
   -1.8137   -0.3543   -0.0084 C   0  0  0  0  0  0  0  0  0  0  0  0
   -4.2280    2.4422    0.3738 C   0  0  0  0  0  0  0  0  0  0  0  0
   -4.6818    3.5243    0.4776 N   0  0  0  0  0  0  0  0  0  0  0  0
    5.2521    0.0263   -0.0744 H   0  0  0  0  0  0  0  0  0  0  0  0
    4.1587   -1.2807    0.5229 H   0  0  0  0  0  0  0  0  0  0  0  0
    4.0876   -0.8410   -1.2423 H   0  0  0  0  0  0  0  0  0  0  0  0
    3.0012    0.6147   -1.9132 H   0  0  0  0  0  0  0  0  0  0  0  0
    2.8620    2.1590   -1.1041 H   0  0  0  0  0  0  0  0  0  0  0  0
    0.7011    0.5704   -2.0145 H   0  0  0  0  0  0  0  0  0  0  0  0
    0.6883    1.9025   -0.7380 H   0  0  0  0  0  0  0  0  0  0  0  0
    1.5390   -0.9525   -0.1483 H   0  0  0  0  0  0  0  0  0  0  0  0
    0.8169   -0.4595    2.1149 H   0  0  0  0  0  0  0  0  0  0  0  0
    0.6588    1.2806    1.7577 H   0  0  0  0  0  0  0  0  0  0  0  0
    2.9256    1.3820    1.9900 H   0  0  0  0  0  0  0  0  0  0  0  0
    3.0238   -0.3722    1.9773 H   0  0  0  0  0  0  0  0  0  0  0  0
    0.1346   -2.8918   -0.6602 H   0  0  0  0  0  0  0  0  0  0  0  0
   -2.3267   -3.4556   -0.6907 H   0  0  0  0  0  0  0  0  0  0  0  0
   -4.7399   -2.0207   -0.3310 H   0  0  0  0  0  0  0  0  0  0  0  0
   -5.6295    0.2439    0.0125 H   0  0  0  0  0  0  0  0  0  0  0  0
   -1.6628    1.6951    0.3595 H   0  0  0  0  0  0  0  0  0  0  0  0
  1  2  1  0
  2  3  1  0
  3  4  1  0
  4  5  1  0
  5  6  1  0
  6  7  1  0
  5  8  1  0
  8  9  2  0
  9 10  1  0
 10 11  1  0
 11 12  2  0
 12 13  1  0
 13 14  2  0
 14 15  1  0
 15 16  2  0
 14 17  1  0
 17 18  3  0
  7  2  1  0
 16  8  1  0
 16 11  1  0
  1 19  1  0
  1 20  1  0
  1 21  1  0
  3 22  1  0
  3 23  1  0
  4 24  1  0
  4 25  1  0
  5 26  1  0
  6 27  1  0
  6 28  1  0
  7 29  1  0
  7 30  1  0
  9 31  1  0
 10 32  1  0
 12 33  1  0
 13 34  1  0
 15 35  1  0
M  END
$$$$
[H]c1c([H])c(S(=O)(=O)C([H])([H])[H])c([H])c([H])c1N([H])c1nn(C([H])([H])C2([H])C([H])([H])OC([H])([H])C2([H])[H])c2c1C([H])([H])N(C(=O)C([H])([H])[H])C([H])([H])C2([H])[H]
     RDKit          3D

 55 58  0  0  0  0  0  0  0  0999 V2000
   -1.7925    6.1200    0.6819 C   0  0  0  0  0  0  0  0  0  0  0  0
   -0.9550    5.1938   -0.0997 C   0  0  0  0  0  0  0  0  0  0  0  0
    0.2210    5.5147   -0.3816 O   0  0  0  0  0  0  0  0  0  0  0  0
   -1.4756    3.9633   -0.5224 N   0  0  0  0  0  0  0  0  0  0  0  0
   -2.8261    3.5798   -0.2048 C   0  0  0  0  0  0  0  0  0  0  0  0
   -3.1168    2.1280   -0.4397 C   0  0  0  0  0  0  0  0  0  0  0  0
   -1.9096    1.2710   -0.2118 C   0  0  0  0  0  0  0  0  0  0  0  0
   -0.7121    1.7488   -0.6363 C   0  0  0  0  0  0  0  0  0  0  0  0
   -0.6476    3.0629   -1.2899 C   0  0  0  0  0  0  0  0  0  0  0  0
    0.2711    0.8030   -0.3296 C   0  0  0  0  0  0  0  0  0  0  0  0
    1.6488    0.9358   -0.6316 N   0  0  0  0  0  0  0  0  0  0  0  0
    2.6331   -0.0195   -0.2993 C   0  0  0  0  0  0  0  0  0  0  0  0
    2.4997   -1.0461    0.5917 C   0  0  0  0  0  0  0  0  0  0  0  0
    3.5484   -1.9553    0.8313 C   0  0  0  0  0  0  0  0  0  0  0  0
    4.7591   -1.8666    0.1905 C   0  0  0  0  0  0  0  0  0  0  0  0
    4.8963   -0.8315   -0.7081 C   0  0  0  0  0  0  0  0  0  0  0  0
    3.8857    0.0595   -0.9513 C   0  0  0  0  0  0  0  0  0  0  0  0
    6.0618   -2.9910    0.4842 S   0  0  0  0  0  0  0  0  0  0  0  0
    5.8814   -4.3321   -0.6617 C   0  0  0  0  0  0  0  0  0  0  0  0
    5.9884   -3.5778    1.8683 O   0  0  0  0  0  0  0  0  0  0  0  0
    7.3824   -2.3000    0.3518 O   0  0  0  0  0  0  0  0  0  0  0  0
   -0.3858   -0.2040    0.2681 N   0  0  0  0  0  0  0  0  0  0  0  0
   -1.6596    0.0792    0.3321 N   0  0  0  0  0  0  0  0  0  0  0  0
   -2.6724   -0.7786    0.9129 C   0  0  0  0  0  0  0  0  0  0  0  0
   -3.1975   -1.6809   -0.1951 C   0  0  0  0  0  0  0  0  0  0  0  0
   -4.2573   -2.5695    0.4392 C   0  0  0  0  0  0  0  0  0  0  0  0
   -3.5360   -3.8892    0.5527 C   0  0  0  0  0  0  0  0  0  0  0  0
   -2.7865   -3.9147   -0.6403 O   0  0  0  0  0  0  0  0  0  0  0  0
   -2.1661   -2.6660   -0.6462 C   0  0  0  0  0  0  0  0  0  0  0  0
   -2.8627    5.8359    0.6362 H   0  0  0  0  0  0  0  0  0  0  0  0
   -1.7082    7.1311    0.1985 H   0  0  0  0  0  0  0  0  0  0  0  0
   -1.4195    6.2343    1.7260 H   0  0  0  0  0  0  0  0  0  0  0  0
   -3.5183    4.2279   -0.8093 H   0  0  0  0  0  0  0  0  0  0  0  0
   -3.0612    3.8210    0.8704 H   0  0  0  0  0  0  0  0  0  0  0  0
   -3.9218    1.7432    0.2070 H   0  0  0  0  0  0  0  0  0  0  0  0
   -3.3635    2.0078   -1.5318 H   0  0  0  0  0  0  0  0  0  0  0  0
   -1.0979    2.9362   -2.3114 H   0  0  0  0  0  0  0  0  0  0  0  0
    0.3936    3.4347   -1.3921 H   0  0  0  0  0  0  0  0  0  0  0  0
    1.9241    1.8272   -1.1418 H   0  0  0  0  0  0  0  0  0  0  0  0
    1.5996   -1.1811    1.1429 H   0  0  0  0  0  0  0  0  0  0  0  0
    3.4133   -2.7641    1.5464 H   0  0  0  0  0  0  0  0  0  0  0  0
    5.8668   -0.7568   -1.2237 H   0  0  0  0  0  0  0  0  0  0  0  0
    4.0034    0.8687   -1.6586 H   0  0  0  0  0  0  0  0  0  0  0  0
    6.1106   -5.3200   -0.1926 H   0  0  0  0  0  0  0  0  0  0  0  0
    6.5281   -4.1621   -1.5382 H   0  0  0  0  0  0  0  0  0  0  0  0
    4.8181   -4.4310   -1.0299 H   0  0  0  0  0  0  0  0  0  0  0  0
   -3.4969   -0.1566    1.3080 H   0  0  0  0  0  0  0  0  0  0  0  0
   -2.2694   -1.3941    1.7205 H   0  0  0  0  0  0  0  0  0  0  0  0
   -3.6253   -1.0853   -1.0170 H   0  0  0  0  0  0  0  0  0  0  0  0
   -4.5852   -2.1810    1.4207 H   0  0  0  0  0  0  0  0  0  0  0  0
   -5.1077   -2.7241   -0.2516 H   0  0  0  0  0  0  0  0  0  0  0  0
   -4.2597   -4.7304    0.5663 H   0  0  0  0  0  0  0  0  0  0  0  0
   -2.8500   -3.9131    1.4124 H   0  0  0  0  0  0  0  0  0  0  0  0
   -1.7772   -2.4795   -1.6533 H   0  0  0  0  0  0  0  0  0  0  0  0
   -1.3139   -2.6257    0.0734 H   0  0  0  0  0  0  0  0  0  0  0  0
  1  2  1  0
  2  3  2  0
  2  4  1  0
  4  5  1  0
  5  6  1  0
  6  7  1  0
  7  8  2  0
  8  9  1  0
  8 10  1  0
 10 11  1  0
 11 12  1  0
 12 13  2  0
 13 14  1  0
 14 15  2  0
 15 16  1  0
 16 17  2  0
 15 18  1  0
 18 19  1  0
 18 20  2  0
 18 21  2  0
 10 22  2  0
 22 23  1  0
 23 24  1  0
 24 25  1  0
 25 26  1  0
 26 27  1  0
 27 28  1  0
 28 29  1  0
  9  4  1  0
 17 12  1  0
 29 25  1  0
 23  7  1  0
  1 30  1  0
  1 31  1  0
  1 32  1  0
  5 33  1  0
  5 34  1  0
  6 35  1  0
  6 36  1  0
  9 37  1  0
  9 38  1  0
 11 39  1  0
 13 40  1  0
 14 41  1  0
 16 42  1  0
 17 43  1  0
 19 44  1  0
 19 45  1  0
 19 46  1  0
 24 47  1  0
 24 48  1  0
 25 49  1  0
 26 50  1  0
 26 51  1  0
 27 52  1  0
 27 53  1  0
 29 54  1  0
 29 55  1  0
M  END
$$$$
[H]N=C(N([H])[H])N([H])C([H])([H])C([H])([H])C([H])([H])[C@@]([H])(C(=O)c1nc2c([H])c([H])c([H])c([H])c2s1)N([H])C(=O)[C@@]1([H])N(C(=O)[C@@]([H])(N([H])C(=O)OC(C([H])([H])[H])(C([H])([H])[H])C([H])([H])[H])C([H])([H])c2c([H])c([H])c([H])c([H])c2[H])C([H])([H])C([H])([H])C1([H])[H]
     RDKit          3D

 86 89  0  0  0  0  0  0  0  0999 V2000
   -7.7993   -0.9112    1.9750 C   0  0  0  0  0  0  0  0  0  0  0  0
   -6.7530   -1.0388    3.0643 C   0  0  0  0  0  0  0  0  0  0  0  0
   -6.8326    0.2264    3.8961 C   0  0  0  0  0  0  0  0  0  0  0  0
   -7.0450   -2.2386    3.9322 C   0  0  0  0  0  0  0  0  0  0  0  0
   -5.4935   -1.2335    2.4671 O   0  0  0  0  0  0  0  0  0  0  0  0
   -4.9274   -0.2868    1.5993 C   0  0  0  0  0  0  0  0  0  0  0  0
   -5.6144    0.7407    1.3997 O   0  0  0  0  0  0  0  0  0  0  0  0
   -3.6732   -0.5601    1.0407 N   0  0  0  0  0  0  0  0  0  0  0  0
   -3.0001    0.3311    0.1453 C   0  0  1  0  0  0  0  0  0  0  0  0
   -3.8269    0.6750   -1.0867 C   0  0  0  0  0  0  0  0  0  0  0  0
   -4.1263   -0.5348   -1.8880 C   0  0  0  0  0  0  0  0  0  0  0  0
   -5.2798   -1.2729   -1.7959 C   0  0  0  0  0  0  0  0  0  0  0  0
   -5.5172   -2.4122   -2.5603 C   0  0  0  0  0  0  0  0  0  0  0  0
   -4.5699   -2.8463   -3.4621 C   0  0  0  0  0  0  0  0  0  0  0  0
   -3.3962   -2.1263   -3.5812 C   0  0  0  0  0  0  0  0  0  0  0  0
   -3.1916   -1.0154   -2.8197 C   0  0  0  0  0  0  0  0  0  0  0  0
   -2.5509    1.5997    0.7553 C   0  0  0  0  0  0  0  0  0  0  0  0
   -3.1276    2.0335    1.8017 O   0  0  0  0  0  0  0  0  0  0  0  0
   -1.4802    2.3178    0.1680 N   0  0  0  0  0  0  0  0  0  0  0  0
   -1.0065    3.6137    0.6415 C   0  0  0  0  0  0  0  0  0  0  0  0
   -0.1423    4.1176   -0.4734 C   0  0  0  0  0  0  0  0  0  0  0  0
   -0.4667    3.2182   -1.6764 C   0  0  0  0  0  0  0  0  0  0  0  0
   -0.6616    1.8922   -0.9314 C   0  0  1  0  0  0  0  0  0  0  0  0
    0.6619    1.4488   -0.3633 C   0  0  0  0  0  0  0  0  0  0  0  0
    0.9304    1.6654    0.8357 O   0  0  0  0  0  0  0  0  0  0  0  0
    1.5641    0.7975   -1.1969 N   0  0  0  0  0  0  0  0  0  0  0  0
    2.8958    0.3344   -0.6775 C   0  0  1  0  0  0  0  0  0  0  0  0
    2.7123   -1.1240   -0.5727 C   0  0  0  0  0  0  0  0  0  0  0  0
    3.7339   -2.0463   -0.1023 C   0  0  0  0  0  0  0  0  0  0  0  0
    4.9821   -2.1902   -0.9116 C   0  0  0  0  0  0  0  0  0  0  0  0
    5.8102   -3.2021   -0.2324 N   0  0  0  0  0  0  0  0  0  0  0  0
    5.3365   -4.5318   -0.2340 C   0  0  0  0  0  0  0  0  0  0  0  0
    5.2609   -5.3106    0.9732 N   0  0  0  0  0  0  0  0  0  0  0  0
    4.9468   -5.1184   -1.3110 N   0  0  0  0  0  0  0  0  0  0  0  0
    3.8678    0.9026   -1.5784 C   0  0  0  0  0  0  0  0  0  0  0  0
    3.6572    0.8974   -2.8430 O   0  0  0  0  0  0  0  0  0  0  0  0
    5.1517    1.5349   -1.1863 C   0  0  0  0  0  0  0  0  0  0  0  0
    5.6538    1.6987    0.0185 N   0  0  0  0  0  0  0  0  0  0  0  0
    6.8180    2.2795    0.1692 C   0  0  0  0  0  0  0  0  0  0  0  0
    7.4760    2.5194    1.3928 C   0  0  0  0  0  0  0  0  0  0  0  0
    8.6824    3.1315    1.3964 C   0  0  0  0  0  0  0  0  0  0  0  0
    9.3669    3.5655    0.2671 C   0  0  0  0  0  0  0  0  0  0  0  0
    8.7125    3.3256   -0.9284 C   0  0  0  0  0  0  0  0  0  0  0  0
    7.4630    2.6942   -0.9644 C   0  0  0  0  0  0  0  0  0  0  0  0
    6.3578    2.2247   -2.1786 S   0  0  0  0  0  0  0  0  0  0  0  0
   -7.9651    0.1600    1.7629 H   0  0  0  0  0  0  0  0  0  0  0  0
   -7.3793   -1.3685    1.0486 H   0  0  0  0  0  0  0  0  0  0  0  0
   -8.7476   -1.4145    2.2771 H   0  0  0  0  0  0  0  0  0  0  0  0
   -5.8202    0.5707    4.1882 H   0  0  0  0  0  0  0  0  0  0  0  0
   -7.3730    0.0082    4.8406 H   0  0  0  0  0  0  0  0  0  0  0  0
   -7.4036    1.0315    3.3810 H   0  0  0  0  0  0  0  0  0  0  0  0
   -7.3688   -1.9255    4.9606 H   0  0  0  0  0  0  0  0  0  0  0  0
   -6.1354   -2.8725    4.0662 H   0  0  0  0  0  0  0  0  0  0  0  0
   -7.8380   -2.9011    3.4775 H   0  0  0  0  0  0  0  0  0  0  0  0
   -3.1944   -1.4692    1.2902 H   0  0  0  0  0  0  0  0  0  0  0  0
   -2.0825   -0.2136   -0.2717 H   0  0  0  0  0  0  0  0  0  0  0  0
   -4.7946    1.1757   -0.7995 H   0  0  0  0  0  0  0  0  0  0  0  0
   -3.3110    1.4103   -1.7250 H   0  0  0  0  0  0  0  0  0  0  0  0
   -6.0674   -0.9896   -1.1281 H   0  0  0  0  0  0  0  0  0  0  0  0
   -6.4294   -2.9754   -2.4714 H   0  0  0  0  0  0  0  0  0  0  0  0
   -4.6947   -3.7218   -4.0846 H   0  0  0  0  0  0  0  0  0  0  0  0
   -2.6252   -2.4342   -4.2800 H   0  0  0  0  0  0  0  0  0  0  0  0
   -2.2614   -0.4570   -2.9254 H   0  0  0  0  0  0  0  0  0  0  0  0
   -0.4876    3.5010    1.5929 H   0  0  0  0  0  0  0  0  0  0  0  0
   -1.9166    4.2478    0.7699 H   0  0  0  0  0  0  0  0  0  0  0  0
   -0.3152    5.1737   -0.6971 H   0  0  0  0  0  0  0  0  0  0  0  0
    0.9314    3.9125   -0.2356 H   0  0  0  0  0  0  0  0  0  0  0  0
    0.3606    3.1874   -2.3889 H   0  0  0  0  0  0  0  0  0  0  0  0
   -1.4382    3.5041   -2.0795 H   0  0  0  0  0  0  0  0  0  0  0  0
   -1.0790    1.1036   -1.5492 H   0  0  0  0  0  0  0  0  0  0  0  0
    1.3723    0.6051   -2.1800 H   0  0  0  0  0  0  0  0  0  0  0  0
    2.9945    0.7883    0.3522 H   0  0  0  0  0  0  0  0  0  0  0  0
    1.7579   -1.2883    0.0570 H   0  0  0  0  0  0  0  0  0  0  0  0
    2.3177   -1.5084   -1.5888 H   0  0  0  0  0  0  0  0  0  0  0  0
    3.2722   -3.0955   -0.1016 H   0  0  0  0  0  0  0  0  0  0  0  0
    3.9800   -1.9270    0.9971 H   0  0  0  0  0  0  0  0  0  0  0  0
    4.6973   -2.6743   -1.8804 H   0  0  0  0  0  0  0  0  0  0  0  0
    5.6179   -1.3321   -1.0235 H   0  0  0  0  0  0  0  0  0  0  0  0
    6.7033   -2.9589    0.2298 H   0  0  0  0  0  0  0  0  0  0  0  0
    5.5922   -6.2843    0.9969 H   0  0  0  0  0  0  0  0  0  0  0  0
    4.8691   -4.9123    1.8569 H   0  0  0  0  0  0  0  0  0  0  0  0
    4.9458   -4.6771   -2.2510 H   0  0  0  0  0  0  0  0  0  0  0  0
    7.0438    2.2280    2.3367 H   0  0  0  0  0  0  0  0  0  0  0  0
    9.2199    3.3317    2.3384 H   0  0  0  0  0  0  0  0  0  0  0  0
   10.3171    4.0444    0.3056 H   0  0  0  0  0  0  0  0  0  0  0  0
    9.1751    3.6311   -1.8479 H   0  0  0  0  0  0  0  0  0  0  0  0
  1  2  1  0
  2  3  1  0
  2  4  1  0
  2  5  1  0
  5  6  1  0
  6  7  2  0
  6  8  1  0
  8  9  1  0
  9 10  1  0
 10 11  1  0
 11 12  2  0
 12 13  1  0
 13 14  2  0
 14 15  1  0
 15 16  2  0
  9 17  1  0
 17 18  2  0
 17 19  1  0
 19 20  1  0
 20 21  1  0
 21 22  1  0
 22 23  1  0
 23 24  1  0
 24 25  2  0
 24 26  1  0
 26 27  1  0
 27 28  1  0
 28 29  1  0
 29 30  1  0
 30 31  1  0
 31 32  1  0
 32 33  1  0
 32 34  2  3
 27 35  1  0
 35 36  2  0
 35 37  1  0
 37 38  2  0
 38 39  1  0
 39 40  2  0
 40 41  1  0
 41 42  2  0
 42 43  1  0
 43 44  2  0
 44 45  1  0
 16 11  1  0
 23 19  1  0
 45 37  1  0
 44 39  1  0
  1 46  1  0
  1 47  1  0
  1 48  1  0
  3 49  1  0
  3 50  1  0
  3 51  1  0
  4 52  1  0
  4 53  1  0
  4 54  1  0
  8 55  1  0
  9 56  1  6
 10 57  1  0
 10 58  1  0
 12 59  1  0
 13 60  1  0
 14 61  1  0
 15 62  1  0
 16 63  1  0
 20 64  1  0
 20 65  1  0
 21 66  1  0
 21 67  1  0
 22 68  1  0
 22 69  1  0
 23 70  1  6
 26 71  1  0
 27 72  1  1
 28 73  1  0
 28 74  1  0
 29 75  1  0
 29 76  1  0
 30 77  1  0
 30 78  1  0
 31 79  1  0
 33 80  1  0
 33 81  1  0
 34 82  1  0
 40 83  1  0
 41 84  1  0
 42 85  1  0
 43 86  1  0
M  END
$$$$
[H]c1c([H])c(-c2c([H])c([H])c3c(c2[H])C([H])([H])C([H])([H])N(c2c([H])c(Cl)c(OC([H])([H])[H])c(OC([H])([H])[H])c2[H])C3=O)c([H])c([H])c1C(=O)N([H])[H]
     RDKit          3D

 52 55  0  0  0  0  0  0  0  0999 V2000
    4.4813   -0.0532   -0.0850 C   0  0  0  0  0  0  0  0  0  0  0  0
    3.0397   -0.3247   -0.1186 C   0  0  0  0  0  0  0  0  0  0  0  0
    2.1248    0.6657    0.2003 C   0  0  0  0  0  0  0  0  0  0  0  0
    0.7586    0.3902    0.1634 C   0  0  0  0  0  0  0  0  0  0  0  0
    0.3074   -0.8570   -0.1866 C   0  0  0  0  0  0  0  0  0  0  0  0
    1.2169   -1.8341   -0.5013 C   0  0  0  0  0  0  0  0  0  0  0  0
    2.5433   -1.5610   -0.4640 C   0  0  0  0  0  0  0  0  0  0  0  0
   -1.1066   -1.1819   -0.2294 C   0  0  0  0  0  0  0  0  0  0  0  0
   -1.5215   -2.3224   -0.5498 O   0  0  0  0  0  0  0  0  0  0  0  0
   -2.0141   -0.1426    0.1110 N   0  0  0  0  0  0  0  0  0  0  0  0
   -3.3237   -0.1297   -0.4315 C   0  0  0  0  0  0  0  0  0  0  0  0
   -3.5679   -0.5244   -1.7402 C   0  0  0  0  0  0  0  0  0  0  0  0
   -4.8275   -0.5079   -2.2552 C   0  0  0  0  0  0  0  0  0  0  0  0
   -5.0553   -1.0196   -3.9132 Cl  0  0  0  0  0  0  0  0  0  0  0  0
   -5.9042   -0.0966   -1.4891 C   0  0  0  0  0  0  0  0  0  0  0  0
   -7.1587   -0.0947   -2.0472 O   0  0  0  0  0  0  0  0  0  0  0  0
   -8.0284   -1.1883   -2.0021 C   0  0  0  0  0  0  0  0  0  0  0  0
   -5.6969    0.3039   -0.1797 C   0  0  0  0  0  0  0  0  0  0  0  0
   -6.7776    0.7127    0.5764 O   0  0  0  0  0  0  0  0  0  0  0  0
   -6.5609    1.1184    1.9027 C   0  0  0  0  0  0  0  0  0  0  0  0
   -4.4217    0.2839    0.3321 C   0  0  0  0  0  0  0  0  0  0  0  0
   -1.5112    0.8657    1.0273 C   0  0  0  0  0  0  0  0  0  0  0  0
   -0.2371    1.4611    0.5013 C   0  0  0  0  0  0  0  0  0  0  0  0
    5.0102    0.8510    0.8164 C   0  0  0  0  0  0  0  0  0  0  0  0
    6.3755    1.0946    0.8300 C   0  0  0  0  0  0  0  0  0  0  0  0
    7.2432    0.4615   -0.0334 C   0  0  0  0  0  0  0  0  0  0  0  0
    8.6776    0.7510    0.0188 C   0  0  0  0  0  0  0  0  0  0  0  0
    9.6064    0.1503   -0.8560 N   0  0  0  0  0  0  0  0  0  0  0  0
    9.0989    1.5765    0.8873 O   0  0  0  0  0  0  0  0  0  0  0  0
    6.7138   -0.4401   -0.9318 C   0  0  0  0  0  0  0  0  0  0  0  0
    5.3410   -0.6779   -0.9377 C   0  0  0  0  0  0  0  0  0  0  0  0
    2.4577    1.6550    0.4785 H   0  0  0  0  0  0  0  0  0  0  0  0
    0.9226   -2.8432   -0.7868 H   0  0  0  0  0  0  0  0  0  0  0  0
    3.2669   -2.3500   -0.7181 H   0  0  0  0  0  0  0  0  0  0  0  0
   -2.6896   -0.8411   -2.3100 H   0  0  0  0  0  0  0  0  0  0  0  0
   -8.1887   -1.6727   -2.9926 H   0  0  0  0  0  0  0  0  0  0  0  0
   -7.5749   -1.9588   -1.3554 H   0  0  0  0  0  0  0  0  0  0  0  0
   -8.9982   -0.8728   -1.5656 H   0  0  0  0  0  0  0  0  0  0  0  0
   -5.9728    0.3207    2.3971 H   0  0  0  0  0  0  0  0  0  0  0  0
   -7.4900    1.2860    2.4729 H   0  0  0  0  0  0  0  0  0  0  0  0
   -5.9018    2.0230    1.9114 H   0  0  0  0  0  0  0  0  0  0  0  0
   -4.2437    0.5943    1.3533 H   0  0  0  0  0  0  0  0  0  0  0  0
   -1.3201    0.3546    2.0139 H   0  0  0  0  0  0  0  0  0  0  0  0
   -2.2248    1.6701    1.2304 H   0  0  0  0  0  0  0  0  0  0  0  0
    0.2345    2.1126    1.2467 H   0  0  0  0  0  0  0  0  0  0  0  0
   -0.5005    2.0279   -0.4319 H   0  0  0  0  0  0  0  0  0  0  0  0
    4.3576    1.3664    1.5097 H   0  0  0  0  0  0  0  0  0  0  0  0
    6.8105    1.8079    1.5371 H   0  0  0  0  0  0  0  0  0  0  0  0
    9.6790   -0.8878   -0.9192 H   0  0  0  0  0  0  0  0  0  0  0  0
   10.2060    0.7988   -1.4260 H   0  0  0  0  0  0  0  0  0  0  0  0
    7.4008   -0.9318   -1.6056 H   0  0  0  0  0  0  0  0  0  0  0  0
    4.9442   -1.3896   -1.6507 H   0  0  0  0  0  0  0  0  0  0  0  0
  1  2  1  0
  2  3  2  0
  3  4  1  0
  4  5  2  0
  5  6  1  0
  6  7  2  0
  5  8  1  0
  8  9  2  0
  8 10  1  0
 10 11  1  0
 11 12  2  0
 12 13  1  0
 13 14  1  0
 13 15  2  0
 15 16  1  0
 16 17  1  0
 15 18  1  0
 18 19  1  0
 19 20  1  0
 18 21  2  0
 10 22  1  0
 22 23  1  0
  1 24  2  0
 24 25  1  0
 25 26  2  0
 26 27  1  0
 27 28  1  0
 27 29  2  0
 26 30  1  0
 30 31  2  0
 31  1  1  0
  7  2  1  0
 21 11  1  0
 23  4  1  0
  3 32  1  0
  6 33  1  0
  7 34  1  0
 12 35  1  0
 17 36  1  0
 17 37  1  0
 17 38  1  0
 20 39  1  0
 20 40  1  0
 20 41  1  0
 21 42  1  0
 22 43  1  0
 22 44  1  0
 23 45  1  0
 23 46  1  0
 24 47  1  0
 25 48  1  0
 28 49  1  0
 28 50  1  0
 30 51  1  0
 31 52  1  0
M  END
$$$$
[H]c1c([H])c(S(=O)(=O)N([H])[C@]([H])(C(=O)N2C([H])([H])C([H])([H])N(c3c([H])c([H])c(Cl)c([H])c3N3C(=O)OC(C([H])([H])[H])(C([H])([H])C([H])([H])[H])C3=O)C([H])([H])C2([H])[H])C([H])([H])[H])c([H])c([H])c1F
     RDKit          3D

 66 69  0  0  0  0  0  0  0  0999 V2000
   -6.6610    2.1882   -1.6052 C   0  0  0  0  0  0  0  0  0  0  0  0
   -6.2470    2.2379   -0.1726 C   0  0  0  0  0  0  0  0  0  0  0  0
   -4.7572    2.4557    0.0002 C   0  0  0  0  0  0  0  0  0  0  0  0
   -4.3210    3.7391   -0.6174 C   0  0  0  0  0  0  0  0  0  0  0  0
   -4.4063    2.4047    1.3686 O   0  0  0  0  0  0  0  0  0  0  0  0
   -4.0501    1.0949    1.7202 C   0  0  0  0  0  0  0  0  0  0  0  0
   -3.9895    0.6895    2.9140 O   0  0  0  0  0  0  0  0  0  0  0  0
   -3.7850    0.3516    0.5423 N   0  0  0  0  0  0  0  0  0  0  0  0
   -3.9963    1.2639   -0.5246 C   0  0  0  0  0  0  0  0  0  0  0  0
   -3.6002    1.0762   -1.7028 O   0  0  0  0  0  0  0  0  0  0  0  0
   -3.4065   -1.0080    0.4355 C   0  0  0  0  0  0  0  0  0  0  0  0
   -4.3925   -2.0128    0.4744 C   0  0  0  0  0  0  0  0  0  0  0  0
   -4.1130   -3.3357    0.3691 C   0  0  0  0  0  0  0  0  0  0  0  0
   -5.4283   -4.4795    0.4323 Cl  0  0  0  0  0  0  0  0  0  0  0  0
   -2.8065   -3.7322    0.2162 C   0  0  0  0  0  0  0  0  0  0  0  0
   -1.7936   -2.8022    0.1705 C   0  0  0  0  0  0  0  0  0  0  0  0
   -2.1151   -1.4399    0.2825 C   0  0  0  0  0  0  0  0  0  0  0  0
   -1.0571   -0.4795    0.2463 N   0  0  0  0  0  0  0  0  0  0  0  0
   -0.7040    0.3681    1.3645 C   0  0  0  0  0  0  0  0  0  0  0  0
    0.7823    0.3113    1.6344 C   0  0  0  0  0  0  0  0  0  0  0  0
    1.5139   -0.2624    0.5302 N   0  0  0  0  0  0  0  0  0  0  0  0
    1.1164    0.0943   -0.7973 C   0  0  0  0  0  0  0  0  0  0  0  0
   -0.3121   -0.3719   -0.9876 C   0  0  0  0  0  0  0  0  0  0  0  0
    2.5997   -1.1212    0.7681 C   0  0  0  0  0  0  0  0  0  0  0  0
    2.9108   -1.3380    2.0060 O   0  0  0  0  0  0  0  0  0  0  0  0
    3.4019   -1.7830   -0.2943 C   0  0  2  0  0  0  0  0  0  0  0  0
    2.5262   -2.8056   -1.0022 C   0  0  0  0  0  0  0  0  0  0  0  0
    4.5121   -2.4620    0.3611 N   0  0  0  0  0  0  0  0  0  0  0  0
    6.0380   -1.9336   -0.1803 S   0  0  0  0  0  0  0  0  0  0  0  0
    6.0741   -2.1065   -1.6889 O   0  0  0  0  0  0  0  0  0  0  0  0
    7.1306   -2.6914    0.4743 O   0  0  0  0  0  0  0  0  0  0  0  0
    6.2813   -0.2378    0.1489 C   0  0  0  0  0  0  0  0  0  0  0  0
    5.9439    0.7649   -0.7338 C   0  0  0  0  0  0  0  0  0  0  0  0
    6.1486    2.1129   -0.4444 C   0  0  0  0  0  0  0  0  0  0  0  0
    6.7046    2.4694    0.7569 C   0  0  0  0  0  0  0  0  0  0  0  0
    6.9077    3.7859    1.0471 F   0  0  0  0  0  0  0  0  0  0  0  0
    7.0510    1.4904    1.6560 C   0  0  0  0  0  0  0  0  0  0  0  0
    6.8438    0.1681    1.3580 C   0  0  0  0  0  0  0  0  0  0  0  0
   -7.5614    2.8154   -1.8178 H   0  0  0  0  0  0  0  0  0  0  0  0
   -6.9713    1.1473   -1.9163 H   0  0  0  0  0  0  0  0  0  0  0  0
   -5.8907    2.4962   -2.3242 H   0  0  0  0  0  0  0  0  0  0  0  0
   -6.5495    1.2742    0.3034 H   0  0  0  0  0  0  0  0  0  0  0  0
   -6.8212    3.0356    0.3367 H   0  0  0  0  0  0  0  0  0  0  0  0
   -5.1930    4.4328   -0.6106 H   0  0  0  0  0  0  0  0  0  0  0  0
   -3.4962    4.2267   -0.0899 H   0  0  0  0  0  0  0  0  0  0  0  0
   -4.0968    3.5397   -1.6911 H   0  0  0  0  0  0  0  0  0  0  0  0
   -5.4071   -1.6594    0.5950 H   0  0  0  0  0  0  0  0  0  0  0  0
   -2.5998   -4.8067    0.1331 H   0  0  0  0  0  0  0  0  0  0  0  0
   -0.7698   -3.0634    0.0538 H   0  0  0  0  0  0  0  0  0  0  0  0
   -0.9765    1.4246    1.1613 H   0  0  0  0  0  0  0  0  0  0  0  0
   -1.2280   -0.0508    2.2535 H   0  0  0  0  0  0  0  0  0  0  0  0
    0.9344   -0.2399    2.5791 H   0  0  0  0  0  0  0  0  0  0  0  0
    1.1540    1.3409    1.8334 H   0  0  0  0  0  0  0  0  0  0  0  0
    1.1710    1.2166   -0.9484 H   0  0  0  0  0  0  0  0  0  0  0  0
    1.7246   -0.3792   -1.6048 H   0  0  0  0  0  0  0  0  0  0  0  0
   -0.2340   -1.3997   -1.4536 H   0  0  0  0  0  0  0  0  0  0  0  0
   -0.8317    0.3108   -1.6986 H   0  0  0  0  0  0  0  0  0  0  0  0
    3.8111   -1.0654   -1.0228 H   0  0  0  0  0  0  0  0  0  0  0  0
    2.9545   -3.8335   -0.9003 H   0  0  0  0  0  0  0  0  0  0  0  0
    2.4203   -2.6039   -2.0720 H   0  0  0  0  0  0  0  0  0  0  0  0
    1.5441   -2.8441   -0.5325 H   0  0  0  0  0  0  0  0  0  0  0  0
    4.3795   -2.5364    1.3698 H   0  0  0  0  0  0  0  0  0  0  0  0
    5.5094    0.4917   -1.6769 H   0  0  0  0  0  0  0  0  0  0  0  0
    5.8789    2.8859   -1.1473 H   0  0  0  0  0  0  0  0  0  0  0  0
    7.4860    1.7899    2.5912 H   0  0  0  0  0  0  0  0  0  0  0  0
    7.1149   -0.6096    2.0645 H   0  0  0  0  0  0  0  0  0  0  0  0
  1  2  1  0
  2  3  1  0
  3  4  1  0
  3  5  1  0
  5  6  1  0
  6  7  2  0
  6  8  1  0
  8  9  1  0
  9 10  2  0
  8 11  1  0
 11 12  2  0
 12 13  1  0
 13 14  1  0
 13 15  2  0
 15 16  1  0
 16 17  2  0
 17 18  1  0
 18 19  1  0
 19 20  1  0
 20 21  1  0
 21 22  1  0
 22 23  1  0
 21 24  1  0
 24 25  2  0
 24 26  1  0
 26 27  1  0
 26 28  1  0
 28 29  1  0
 29 30  2  0
 29 31  2  0
 29 32  1  0
 32 33  2  0
 33 34  1  0
 34 35  2  0
 35 36  1  0
 35 37  1  0
 37 38  2  0
  9  3  1  0
 17 11  1  0
 23 18  1  0
 38 32  1  0
  1 39  1  0
  1 40  1  0
  1 41  1  0
  2 42  1  0
  2 43  1  0
  4 44  1  0
  4 45  1  0
  4 46  1  0
 12 47  1  0
 15 48  1  0
 16 49  1  0
 19 50  1  0
 19 51  1  0
 20 52  1  0
 20 53  1  0
 22 54  1  0
 22 55  1  0
 23 56  1  0
 23 57  1  0
 26 58  1  6
 27 59  1  0
 27 60  1  0
 27 61  1  0
 28 62  1  0
 33 63  1  0
 34 64  1  0
 37 65  1  0
 38 66  1  0
M  END
$$$$
[H]c1c([H])c([H])c(-c2c([H])c([H])c(-c3c([H])c([H])c([H])c([H])c3[C@]([H])(c3c([H])c([H])c(S(=O)(=O)N([H])C(=O)c4c([H])c([H])c5c(c4[H])OC([H])([H])O5)c([H])c3[H])N(C([H])([H])[H])C([H])([H])[H])c([H])c2[H])c([H])c1[H]
     RDKit          3D

 73 78  0  0  0  0  0  0  0  0999 V2000
   -0.0601    1.7334    2.8452 C   0  0  0  0  0  0  0  0  0  0  0  0
   -1.1756    1.5322    2.0351 N   0  0  0  0  0  0  0  0  0  0  0  0
   -1.7494    2.7393    1.5554 C   0  0  0  0  0  0  0  0  0  0  0  0
   -1.2613    0.4307    1.1593 C   0  0  1  0  0  0  0  0  0  0  0  0
   -0.1042    0.2694    0.2205 C   0  0  0  0  0  0  0  0  0  0  0  0
    0.5423    1.3785   -0.2597 C   0  0  0  0  0  0  0  0  0  0  0  0
    1.6107    1.2778   -1.1463 C   0  0  0  0  0  0  0  0  0  0  0  0
    2.0330    0.0408   -1.5544 C   0  0  0  0  0  0  0  0  0  0  0  0
    1.3846   -1.0692   -1.0731 C   0  0  0  0  0  0  0  0  0  0  0  0
    0.3267   -0.9672   -0.1954 C   0  0  0  0  0  0  0  0  0  0  0  0
    3.3815   -0.0645   -2.6642 S   0  0  0  0  0  0  0  0  0  0  0  0
    3.4342    1.2180   -3.4591 O   0  0  0  0  0  0  0  0  0  0  0  0
    3.1285   -1.1696   -3.6330 O   0  0  0  0  0  0  0  0  0  0  0  0
    4.8731   -0.2063   -1.8382 N   0  0  0  0  0  0  0  0  0  0  0  0
    6.0788   -0.2671   -2.5770 C   0  0  0  0  0  0  0  0  0  0  0  0
    6.0220   -0.2125   -3.8490 O   0  0  0  0  0  0  0  0  0  0  0  0
    7.3870   -0.3878   -1.9857 C   0  0  0  0  0  0  0  0  0  0  0  0
    8.5252   -0.2741   -2.7435 C   0  0  0  0  0  0  0  0  0  0  0  0
    9.7542   -0.3958   -2.1634 C   0  0  0  0  0  0  0  0  0  0  0  0
    9.8889   -0.6335   -0.8170 C   0  0  0  0  0  0  0  0  0  0  0  0
   11.0189   -0.7957    0.0038 O   0  0  0  0  0  0  0  0  0  0  0  0
   10.5619   -0.7299    1.3425 C   0  0  0  0  0  0  0  0  0  0  0  0
    9.1734   -0.9860    1.2644 O   0  0  0  0  0  0  0  0  0  0  0  0
    8.7569   -0.7507   -0.0405 C   0  0  0  0  0  0  0  0  0  0  0  0
    7.5021   -0.6253   -0.6383 C   0  0  0  0  0  0  0  0  0  0  0  0
   -1.4695   -0.8669    1.9153 C   0  0  0  0  0  0  0  0  0  0  0  0
   -0.4573   -1.3764    2.6940 C   0  0  0  0  0  0  0  0  0  0  0  0
   -0.6065   -2.5593    3.3718 C   0  0  0  0  0  0  0  0  0  0  0  0
   -1.8055   -3.2718    3.2781 C   0  0  0  0  0  0  0  0  0  0  0  0
   -2.8208   -2.7836    2.5118 C   0  0  0  0  0  0  0  0  0  0  0  0
   -2.6434   -1.5674    1.8268 C   0  0  0  0  0  0  0  0  0  0  0  0
   -3.8211   -1.1244    1.0652 C   0  0  0  0  0  0  0  0  0  0  0  0
   -4.3563   -1.9043    0.0501 C   0  0  0  0  0  0  0  0  0  0  0  0
   -5.4887   -1.5210   -0.6329 C   0  0  0  0  0  0  0  0  0  0  0  0
   -6.1385   -0.3460   -0.3366 C   0  0  0  0  0  0  0  0  0  0  0  0
   -5.6091    0.4381    0.6767 C   0  0  0  0  0  0  0  0  0  0  0  0
   -4.4603    0.0441    1.3658 C   0  0  0  0  0  0  0  0  0  0  0  0
   -7.3497    0.0683   -1.0617 C   0  0  0  0  0  0  0  0  0  0  0  0
   -8.3087    0.8240   -0.3782 C   0  0  0  0  0  0  0  0  0  0  0  0
   -9.4565    1.2293   -1.0249 C   0  0  0  0  0  0  0  0  0  0  0  0
   -9.6811    0.9018   -2.3453 C   0  0  0  0  0  0  0  0  0  0  0  0
   -8.7132    0.1502   -3.0026 C   0  0  0  0  0  0  0  0  0  0  0  0
   -7.5598   -0.2657   -2.3780 C   0  0  0  0  0  0  0  0  0  0  0  0
    0.9203    1.4510    2.4096 H   0  0  0  0  0  0  0  0  0  0  0  0
   -0.1856    1.1853    3.8231 H   0  0  0  0  0  0  0  0  0  0  0  0
    0.0474    2.8099    3.1839 H   0  0  0  0  0  0  0  0  0  0  0  0
   -1.0703    3.6184    1.6209 H   0  0  0  0  0  0  0  0  0  0  0  0
   -2.1106    2.6699    0.5082 H   0  0  0  0  0  0  0  0  0  0  0  0
   -2.6609    3.0416    2.1496 H   0  0  0  0  0  0  0  0  0  0  0  0
   -2.1240    0.5796    0.4805 H   0  0  0  0  0  0  0  0  0  0  0  0
    0.2731    2.4110    0.0133 H   0  0  0  0  0  0  0  0  0  0  0  0
    2.0975    2.1990   -1.5036 H   0  0  0  0  0  0  0  0  0  0  0  0
    1.7368   -2.0525   -1.4109 H   0  0  0  0  0  0  0  0  0  0  0  0
   -0.1749   -1.8586    0.1604 H   0  0  0  0  0  0  0  0  0  0  0  0
    4.8625   -0.2433   -0.8180 H   0  0  0  0  0  0  0  0  0  0  0  0
    8.5067   -0.0865   -3.8116 H   0  0  0  0  0  0  0  0  0  0  0  0
   10.6876   -0.3140   -2.7189 H   0  0  0  0  0  0  0  0  0  0  0  0
   11.0972   -1.5099    1.9270 H   0  0  0  0  0  0  0  0  0  0  0  0
   10.7613    0.2992    1.7256 H   0  0  0  0  0  0  0  0  0  0  0  0
    6.6345   -0.7234   -0.0026 H   0  0  0  0  0  0  0  0  0  0  0  0
    0.4756   -0.8559    2.7783 H   0  0  0  0  0  0  0  0  0  0  0  0
    0.1763   -2.9763    3.9889 H   0  0  0  0  0  0  0  0  0  0  0  0
   -1.9449   -4.2154    3.8088 H   0  0  0  0  0  0  0  0  0  0  0  0
   -3.7528   -3.3216    2.4287 H   0  0  0  0  0  0  0  0  0  0  0  0
   -3.8313   -2.8272   -0.1702 H   0  0  0  0  0  0  0  0  0  0  0  0
   -5.8822   -2.1457   -1.4163 H   0  0  0  0  0  0  0  0  0  0  0  0
   -6.1001    1.3761    0.9365 H   0  0  0  0  0  0  0  0  0  0  0  0
   -4.1131    0.7251    2.1507 H   0  0  0  0  0  0  0  0  0  0  0  0
   -8.1134    1.0716    0.6607 H   0  0  0  0  0  0  0  0  0  0  0  0
  -10.2127    1.8135   -0.5209 H   0  0  0  0  0  0  0  0  0  0  0  0
  -10.5908    1.2348   -2.8230 H   0  0  0  0  0  0  0  0  0  0  0  0
   -8.8809   -0.1081   -4.0295 H   0  0  0  0  0  0  0  0  0  0  0  0
   -6.8155   -0.8535   -2.9129 H   0  0  0  0  0  0  0  0  0  0  0  0
  1  2  1  0
  2  3  1  0
  2  4  1  0
  4  5  1  0
  5  6  2  0
  6  7  1  0
  7  8  2  0
  8  9  1  0
  9 10  2  0
  8 11  1  0
 11 12  2  0
 11 13  2  0
 11 14  1  0
 14 15  1  0
 15 16  2  0
 15 17  1  0
 17 18  2  0
 18 19  1  0
 19 20  2  0
 20 21  1  0
 21 22  1  0
 22 23  1  0
 23 24  1  0
 24 25  2  0
  4 26  1  0
 26 27  2  0
 27 28  1  0
 28 29  2  0
 29 30  1  0
 30 31  2  0
 31 32  1  0
 32 33  2  0
 33 34  1  0
 34 35  2  0
 35 36  1  0
 36 37  2  0
 35 38  1  0
 38 39  2  0
 39 40  1  0
 40 41  2  0
 41 42  1  0
 42 43  2  0
 10  5  1  0
 25 17  1  0
 31 26  1  0
 37 32  1  0
 43 38  1  0
 24 20  1  0
  1 44  1  0
  1 45  1  0
  1 46  1  0
  3 47  1  0
  3 48  1  0
  3 49  1  0
  4 50  1  6
  6 51  1  0
  7 52  1  0
  9 53  1  0
 10 54  1  0
 14 55  1  0
 18 56  1  0
 19 57  1  0
 22 58  1  0
 22 59  1  0
 25 60  1  0
 27 61  1  0
 28 62  1  0
 29 63  1  0
 30 64  1  0
 33 65  1  0
 34 66  1  0
 36 67  1  0
 37 68  1  0
 39 69  1  0
 40 70  1  0
 41 71  1  0
 42 72  1  0
 43 73  1  0
M  END
$$$$
[H]Oc1c([H])c(-c2c([H])c(O[H])c3c(-c4c(C5([H])C([H])([H])C5([H])[H])noc4C([H])([H])[H])nc([H])c([H])c3c2[H])c([H])c(C([H])([H])N([H])C([H])([H])[H])c1[H]
     RDKit          3D

 53 57  0  0  0  0  0  0  0  0999 V2000
   -6.6832    2.3564   -0.4672 C   0  0  0  0  0  0  0  0  0  0  0  0
   -5.5124    1.5509   -0.2590 N   0  0  0  0  0  0  0  0  0  0  0  0
   -5.7746    0.3975    0.5772 C   0  0  0  0  0  0  0  0  0  0  0  0
   -4.5951   -0.4343    0.7999 C   0  0  0  0  0  0  0  0  0  0  0  0
   -4.7824   -1.5704    1.6003 C   0  0  0  0  0  0  0  0  0  0  0  0
   -3.7418   -2.4300    1.8798 C   0  0  0  0  0  0  0  0  0  0  0  0
   -3.9278   -3.5461    2.6665 O   0  0  0  0  0  0  0  0  0  0  0  0
   -2.4861   -2.1729    1.3642 C   0  0  0  0  0  0  0  0  0  0  0  0
   -2.3190   -1.0533    0.5803 C   0  0  0  0  0  0  0  0  0  0  0  0
   -3.3404   -0.1867    0.2907 C   0  0  0  0  0  0  0  0  0  0  0  0
   -0.9901   -0.7628    0.0230 C   0  0  0  0  0  0  0  0  0  0  0  0
    0.1613   -1.1042    0.6897 C   0  0  0  0  0  0  0  0  0  0  0  0
    1.4425   -0.8471    0.1966 C   0  0  0  0  0  0  0  0  0  0  0  0
    2.5501   -1.2172    0.9181 O   0  0  0  0  0  0  0  0  0  0  0  0
    1.5937   -0.2153   -1.0271 C   0  0  0  0  0  0  0  0  0  0  0  0
    2.8069    0.0728   -1.5826 C   0  0  0  0  0  0  0  0  0  0  0  0
    2.8916    0.6989   -2.7987 N   0  0  0  0  0  0  0  0  0  0  0  0
    1.7667    1.0171   -3.4206 C   0  0  0  0  0  0  0  0  0  0  0  0
    0.5217    0.7599   -2.9249 C   0  0  0  0  0  0  0  0  0  0  0  0
    0.4221    0.1266   -1.6949 C   0  0  0  0  0  0  0  0  0  0  0  0
   -0.8508   -0.1387   -1.1861 C   0  0  0  0  0  0  0  0  0  0  0  0
    4.0514   -0.2736   -0.9052 C   0  0  0  0  0  0  0  0  0  0  0  0
    4.7612    0.5248   -0.0365 C   0  0  0  0  0  0  0  0  0  0  0  0
    5.8583   -0.2231    0.2800 N   0  0  0  0  0  0  0  0  0  0  0  0
    5.8045   -1.3639   -0.3450 O   0  0  0  0  0  0  0  0  0  0  0  0
    4.7270   -1.4615   -1.0865 C   0  0  0  0  0  0  0  0  0  0  0  0
    4.3179   -2.6170   -1.9468 C   0  0  0  0  0  0  0  0  0  0  0  0
    4.3913    1.8852    0.4283 C   0  0  0  0  0  0  0  0  0  0  0  0
    5.2944    2.5806    1.3784 C   0  0  0  0  0  0  0  0  0  0  0  0
    5.1862    3.0204   -0.0493 C   0  0  0  0  0  0  0  0  0  0  0  0
   -6.4319    3.4013   -0.7211 H   0  0  0  0  0  0  0  0  0  0  0  0
   -7.3390    2.3127    0.4208 H   0  0  0  0  0  0  0  0  0  0  0  0
   -7.3201    1.9844   -1.3208 H   0  0  0  0  0  0  0  0  0  0  0  0
   -5.2183    1.1736   -1.1951 H   0  0  0  0  0  0  0  0  0  0  0  0
   -6.2398    0.6517    1.5424 H   0  0  0  0  0  0  0  0  0  0  0  0
   -6.5208   -0.2273    0.0087 H   0  0  0  0  0  0  0  0  0  0  0  0
   -5.7513   -1.7987    2.0179 H   0  0  0  0  0  0  0  0  0  0  0  0
   -3.7939   -3.4656    3.6750 H   0  0  0  0  0  0  0  0  0  0  0  0
   -1.6478   -2.8258    1.5633 H   0  0  0  0  0  0  0  0  0  0  0  0
   -3.1994    0.6832   -0.3214 H   0  0  0  0  0  0  0  0  0  0  0  0
    0.0808   -1.6006    1.6518 H   0  0  0  0  0  0  0  0  0  0  0  0
    2.4696   -1.6763    1.8080 H   0  0  0  0  0  0  0  0  0  0  0  0
    1.8147    1.5157   -4.3886 H   0  0  0  0  0  0  0  0  0  0  0  0
   -0.3978    1.0232   -3.4397 H   0  0  0  0  0  0  0  0  0  0  0  0
   -1.7193    0.1552   -1.7592 H   0  0  0  0  0  0  0  0  0  0  0  0
    3.6290   -2.2150   -2.7309 H   0  0  0  0  0  0  0  0  0  0  0  0
    3.7744   -3.3907   -1.3713 H   0  0  0  0  0  0  0  0  0  0  0  0
    5.2151   -3.0834   -2.3657 H   0  0  0  0  0  0  0  0  0  0  0  0
    3.3018    2.0469    0.5135 H   0  0  0  0  0  0  0  0  0  0  0  0
    6.1702    1.9795    1.7141 H   0  0  0  0  0  0  0  0  0  0  0  0
    4.7900    3.1544    2.1725 H   0  0  0  0  0  0  0  0  0  0  0  0
    4.7375    4.0157   -0.2299 H   0  0  0  0  0  0  0  0  0  0  0  0
    6.0514    2.8125   -0.7164 H   0  0  0  0  0  0  0  0  0  0  0  0
  1  2  1  0
  2  3  1  0
  3  4  1  0
  4  5  2  0
  5  6  1  0
  6  7  1  0
  6  8  2  0
  8  9  1  0
  9 10  2  0
  9 11  1  0
 11 12  2  0
 12 13  1  0
 13 14  1  0
 13 15  2  0
 15 16  1  0
 16 17  2  0
 17 18  1  0
 18 19  2  0
 19 20  1  0
 20 21  2  0
 16 22  1  0
 22 23  1  0
 23 24  2  0
 24 25  1  0
 25 26  1  0
 26 27  1  0
 23 28  1  0
 28 29  1  0
 29 30  1  0
 10  4  1  0
 21 11  1  0
 26 22  2  0
 30 28  1  0
 20 15  1  0
  1 31  1  0
  1 32  1  0
  1 33  1  0
  2 34  1  0
  3 35  1  0
  3 36  1  0
  5 37  1  0
  7 38  1  0
  8 39  1  0
 10 40  1  0
 12 41  1  0
 14 42  1  0
 18 43  1  0
 19 44  1  0
 21 45  1  0
 27 46  1  0
 27 47  1  0
 27 48  1  0
 28 49  1  0
 29 50  1  0
 29 51  1  0
 30 52  1  0
 30 53  1  0
M  END
$$$$
[H]c1nc2c(nc1N([H])c1c([H])c([H])c(S(=O)(=O)N([H])[H])c([H])c1[H])c(C(=O)N([H])[H])nn2C([H])(C([H])([H])[H])C([H])([H])[H]
     RDKit          3D

 43 45  0  0  0  0  0  0  0  0999 V2000
   -5.6046   -1.3721    0.3854 C   0  0  0  0  0  0  0  0  0  0  0  0
   -4.6634   -1.1292   -0.7831 C   0  0  0  0  0  0  0  0  0  0  0  0
   -3.8614   -2.3481   -1.0985 C   0  0  0  0  0  0  0  0  0  0  0  0
   -3.8207    0.0259   -0.5509 N   0  0  0  0  0  0  0  0  0  0  0  0
   -4.2820    1.2535   -0.4703 N   0  0  0  0  0  0  0  0  0  0  0  0
   -3.2700    2.1340   -0.2481 C   0  0  0  0  0  0  0  0  0  0  0  0
   -3.3778    3.5734   -0.1005 C   0  0  0  0  0  0  0  0  0  0  0  0
   -4.6348    4.2151   -0.1826 N   0  0  0  0  0  0  0  0  0  0  0  0
   -2.3570    4.2563    0.1006 O   0  0  0  0  0  0  0  0  0  0  0  0
   -2.1306    1.3411   -0.1971 C   0  0  0  0  0  0  0  0  0  0  0  0
   -0.8605    1.6455   -0.0081 N   0  0  0  0  0  0  0  0  0  0  0  0
    0.1540    0.7283    0.0135 C   0  0  0  0  0  0  0  0  0  0  0  0
    1.4442    1.2026    0.2563 N   0  0  0  0  0  0  0  0  0  0  0  0
    2.6668    0.4879    0.2212 C   0  0  0  0  0  0  0  0  0  0  0  0
    2.9979   -0.5163   -0.6495 C   0  0  0  0  0  0  0  0  0  0  0  0
    4.2220   -1.1930   -0.5880 C   0  0  0  0  0  0  0  0  0  0  0  0
    5.1587   -0.8702    0.3658 C   0  0  0  0  0  0  0  0  0  0  0  0
    4.8437    0.1342    1.2453 C   0  0  0  0  0  0  0  0  0  0  0  0
    3.6417    0.7992    1.1863 C   0  0  0  0  0  0  0  0  0  0  0  0
    6.6606   -1.7444    0.3940 S   0  0  0  0  0  0  0  0  0  0  0  0
    7.8695   -1.0250   -0.5733 N   0  0  0  0  0  0  0  0  0  0  0  0
    6.4796   -3.1700   -0.0866 O   0  0  0  0  0  0  0  0  0  0  0  0
    7.1485   -1.8318    1.8088 O   0  0  0  0  0  0  0  0  0  0  0  0
   -0.2248   -0.5777   -0.1773 C   0  0  0  0  0  0  0  0  0  0  0  0
   -1.5385   -0.8970   -0.3740 N   0  0  0  0  0  0  0  0  0  0  0  0
   -2.4945    0.0332   -0.3877 C   0  0  0  0  0  0  0  0  0  0  0  0
   -5.2324   -2.1458    1.0599 H   0  0  0  0  0  0  0  0  0  0  0  0
   -6.6164   -1.6259    0.0300 H   0  0  0  0  0  0  0  0  0  0  0  0
   -5.6956   -0.4023    0.9337 H   0  0  0  0  0  0  0  0  0  0  0  0
   -5.2872   -0.8954   -1.6845 H   0  0  0  0  0  0  0  0  0  0  0  0
   -3.3345   -2.7602   -0.2160 H   0  0  0  0  0  0  0  0  0  0  0  0
   -3.2295   -2.1719   -1.9687 H   0  0  0  0  0  0  0  0  0  0  0  0
   -4.5943   -3.1517   -1.4015 H   0  0  0  0  0  0  0  0  0  0  0  0
   -4.7649    4.9712   -0.8916 H   0  0  0  0  0  0  0  0  0  0  0  0
   -5.4524    3.9632    0.4437 H   0  0  0  0  0  0  0  0  0  0  0  0
    1.5451    2.2472    0.5061 H   0  0  0  0  0  0  0  0  0  0  0  0
    2.2985   -0.7804   -1.4275 H   0  0  0  0  0  0  0  0  0  0  0  0
    4.4479   -1.9833   -1.2943 H   0  0  0  0  0  0  0  0  0  0  0  0
    5.5891    0.3807    1.9923 H   0  0  0  0  0  0  0  0  0  0  0  0
    3.4071    1.5966    1.8945 H   0  0  0  0  0  0  0  0  0  0  0  0
    7.5165   -0.3334   -1.2593 H   0  0  0  0  0  0  0  0  0  0  0  0
    8.7079   -0.7164   -0.0425 H   0  0  0  0  0  0  0  0  0  0  0  0
    0.5282   -1.3474   -0.1484 H   0  0  0  0  0  0  0  0  0  0  0  0
  1  2  1  0
  2  3  1  0
  2  4  1  0
  4  5  1  0
  5  6  2  0
  6  7  1  0
  7  8  1  0
  7  9  2  0
  6 10  1  0
 10 11  2  0
 11 12  1  0
 12 13  1  0
 13 14  1  0
 14 15  2  0
 15 16  1  0
 16 17  2  0
 17 18  1  0
 18 19  2  0
 17 20  1  0
 20 21  1  0
 20 22  2  0
 20 23  2  0
 12 24  2  0
 24 25  1  0
 25 26  2  0
 26  4  1  0
 26 10  1  0
 19 14  1  0
  1 27  1  0
  1 28  1  0
  1 29  1  0
  2 30  1  0
  3 31  1  0
  3 32  1  0
  3 33  1  0
  8 34  1  0
  8 35  1  0
 13 36  1  0
 15 37  1  0
 16 38  1  0
 18 39  1  0
 19 40  1  0
 21 41  1  0
 21 42  1  0
 24 43  1  0
M  END
$$$$
[H]OC(=O)[C@]1([H])O[C@@]([H])(n2c3c([H])c([H])c([H])c([H])c3c3c([H])c([H])c([H])c([H])c32)[C@]([H])(O[H])[C@]1([H])O[H]
     RDKit          3D

 38 41  0  0  0  0  0  0  0  0999 V2000
    5.3146   -0.7158   -0.3686 O   0  0  0  0  0  0  0  0  0  0  0  0
    3.9699   -0.7170   -0.6932 C   0  0  0  0  0  0  0  0  0  0  0  0
    3.6328   -0.2967   -1.8266 O   0  0  0  0  0  0  0  0  0  0  0  0
    2.8954   -1.1850    0.2155 C   0  0  2  0  0  0  0  0  0  0  0  0
    1.6580   -1.0775   -0.3548 O   0  0  0  0  0  0  0  0  0  0  0  0
    1.0128   -0.0039    0.2140 C   0  0  2  0  0  0  0  0  0  0  0  0
    1.3874   -0.1671    1.6876 C   0  0  2  0  0  0  0  0  0  0  0  0
    1.1578    0.9836    2.4112 O   0  0  0  0  0  0  0  0  0  0  0  0
    2.8893   -0.4419    1.5223 C   0  0  2  0  0  0  0  0  0  0  0  0
    3.4947    0.8062    1.4275 O   0  0  0  0  0  0  0  0  0  0  0  0
   -0.3953    0.0122    0.0004 N   0  0  0  0  0  0  0  0  0  0  0  0
   -1.2450   -1.0026   -0.1593 C   0  0  0  0  0  0  0  0  0  0  0  0
   -1.0560   -2.3497   -0.1709 C   0  0  0  0  0  0  0  0  0  0  0  0
   -2.1474   -3.2024   -0.3624 C   0  0  0  0  0  0  0  0  0  0  0  0
   -3.4039   -2.7047   -0.5386 C   0  0  0  0  0  0  0  0  0  0  0  0
   -3.6174   -1.3517   -0.5306 C   0  0  0  0  0  0  0  0  0  0  0  0
   -2.5344   -0.5293   -0.3412 C   0  0  0  0  0  0  0  0  0  0  0  0
   -2.4595    0.8466   -0.2886 C   0  0  0  0  0  0  0  0  0  0  0  0
   -3.4102    1.8323   -0.4037 C   0  0  0  0  0  0  0  0  0  0  0  0
   -3.0739    3.1605   -0.3128 C   0  0  0  0  0  0  0  0  0  0  0  0
   -1.7425    3.4784   -0.1008 C   0  0  0  0  0  0  0  0  0  0  0  0
   -0.7885    2.4916    0.0148 C   0  0  0  0  0  0  0  0  0  0  0  0
   -1.1304    1.1467   -0.0775 C   0  0  0  0  0  0  0  0  0  0  0  0
    5.8399    0.1411   -0.4887 H   0  0  0  0  0  0  0  0  0  0  0  0
    3.1159   -2.2611    0.4657 H   0  0  0  0  0  0  0  0  0  0  0  0
    1.4902    0.9219   -0.1437 H   0  0  0  0  0  0  0  0  0  0  0  0
    0.8908   -1.0662    2.1210 H   0  0  0  0  0  0  0  0  0  0  0  0
    1.9727    1.5243    2.5630 H   0  0  0  0  0  0  0  0  0  0  0  0
    3.3016   -0.9969    2.3644 H   0  0  0  0  0  0  0  0  0  0  0  0
    3.3949    1.2122    0.5320 H   0  0  0  0  0  0  0  0  0  0  0  0
   -0.0925   -2.7835   -0.0373 H   0  0  0  0  0  0  0  0  0  0  0  0
   -2.0042   -4.2890   -0.3732 H   0  0  0  0  0  0  0  0  0  0  0  0
   -4.2859   -3.3400   -0.6918 H   0  0  0  0  0  0  0  0  0  0  0  0
   -4.6010   -0.9280   -0.6675 H   0  0  0  0  0  0  0  0  0  0  0  0
   -4.4390    1.5675   -0.5682 H   0  0  0  0  0  0  0  0  0  0  0  0
   -3.7757    3.9672   -0.3954 H   0  0  0  0  0  0  0  0  0  0  0  0
   -1.4686    4.5210   -0.0279 H   0  0  0  0  0  0  0  0  0  0  0  0
    0.2524    2.7969    0.1823 H   0  0  0  0  0  0  0  0  0  0  0  0
  1  2  1  0
  2  3  2  0
  2  4  1  0
  4  5  1  0
  5  6  1  0
  6  7  1  0
  7  8  1  0
  7  9  1  0
  9 10  1  0
  6 11  1  0
 11 12  1  0
 12 13  2  0
 13 14  1  0
 14 15  2  0
 15 16  1  0
 16 17  2  0
 17 18  1  0
 18 19  2  0
 19 20  1  0
 20 21  2  0
 21 22  1  0
 22 23  2  0
  9  4  1  0
 23 11  1  0
 17 12  1  0
 23 18  1  0
  1 24  1  0
  4 25  1  1
  6 26  1  6
  7 27  1  1
  8 28  1  0
  9 29  1  1
 10 30  1  0
 13 31  1  0
 14 32  1  0
 15 33  1  0
 16 34  1  0
 19 35  1  0
 20 36  1  0
 21 37  1  0
 22 38  1  0
M  END
$$$$
[H]c1c([H])c(-c2c([H])c(C(F)(F)F)c([H])c(C(F)(F)F)c2[H])c([H])c([H])c1C(=O)N([H])c1c([H])c([H])c(C(F)(F)F)c(C(F)(F)F)c1[H]
     RDKit          3D

 48 50  0  0  0  0  0  0  0  0999 V2000
   -2.5561    0.5957   -0.4105 C   0  0  0  0  0  0  0  0  0  0  0  0
   -3.9797    0.2755   -0.3327 C   0  0  0  0  0  0  0  0  0  0  0  0
   -4.3506   -0.9784    0.1777 C   0  0  0  0  0  0  0  0  0  0  0  0
   -5.6636   -1.3552    0.3237 C   0  0  0  0  0  0  0  0  0  0  0  0
   -5.9769   -2.7148    0.8906 C   0  0  0  0  0  0  0  0  0  0  0  0
   -4.7937   -3.4706    0.8527 F   0  0  0  0  0  0  0  0  0  0  0  0
   -6.3106   -2.5379    2.2125 F   0  0  0  0  0  0  0  0  0  0  0  0
   -6.9504   -3.3458    0.1759 F   0  0  0  0  0  0  0  0  0  0  0  0
   -6.6785   -0.5014   -0.0277 C   0  0  0  0  0  0  0  0  0  0  0  0
   -6.3325    0.7430   -0.5343 C   0  0  0  0  0  0  0  0  0  0  0  0
   -7.4261    1.6744   -0.9210 C   0  0  0  0  0  0  0  0  0  0  0  0
   -6.9258    2.8808   -1.3927 F   0  0  0  0  0  0  0  0  0  0  0  0
   -8.2599    1.0689   -1.8207 F   0  0  0  0  0  0  0  0  0  0  0  0
   -8.1317    1.9108    0.2755 F   0  0  0  0  0  0  0  0  0  0  0  0
   -4.9885    1.1100   -0.6781 C   0  0  0  0  0  0  0  0  0  0  0  0
   -1.7021    0.0689    0.5575 C   0  0  0  0  0  0  0  0  0  0  0  0
   -0.3599    0.2579    0.5922 C   0  0  0  0  0  0  0  0  0  0  0  0
    0.2056    1.0423   -0.4257 C   0  0  0  0  0  0  0  0  0  0  0  0
    1.6947    1.1563   -0.3729 C   0  0  0  0  0  0  0  0  0  0  0  0
    2.1670    2.2742   -0.5302 O   0  0  0  0  0  0  0  0  0  0  0  0
    2.3818   -0.0402   -0.1387 N   0  0  0  0  0  0  0  0  0  0  0  0
    3.7412   -0.2877   -0.0101 C   0  0  0  0  0  0  0  0  0  0  0  0
    4.7010    0.6586   -0.1483 C   0  0  0  0  0  0  0  0  0  0  0  0
    6.0916    0.4090    0.0098 C   0  0  0  0  0  0  0  0  0  0  0  0
    7.0143    1.5217   -0.1531 C   0  0  0  0  0  0  0  0  0  0  0  0
    7.7505    1.8612    0.9801 F   0  0  0  0  0  0  0  0  0  0  0  0
    6.2749    2.7068   -0.3712 F   0  0  0  0  0  0  0  0  0  0  0  0
    7.8152    1.4739   -1.2787 F   0  0  0  0  0  0  0  0  0  0  0  0
    6.5219   -0.8455    0.3203 C   0  0  0  0  0  0  0  0  0  0  0  0
    7.9078   -1.1989    0.5218 C   0  0  0  0  0  0  0  0  0  0  0  0
    7.9532   -2.6114    0.7878 F   0  0  0  0  0  0  0  0  0  0  0  0
    8.5310   -0.7143    1.6561 F   0  0  0  0  0  0  0  0  0  0  0  0
    8.7185   -1.1440   -0.6127 F   0  0  0  0  0  0  0  0  0  0  0  0
    5.5163   -1.8285    0.4641 C   0  0  0  0  0  0  0  0  0  0  0  0
    4.1967   -1.5650    0.3084 C   0  0  0  0  0  0  0  0  0  0  0  0
   -0.5796    1.5718   -1.3780 C   0  0  0  0  0  0  0  0  0  0  0  0
   -1.9882    1.3645   -1.4006 C   0  0  0  0  0  0  0  0  0  0  0  0
   -3.5960   -1.6820    0.4682 H   0  0  0  0  0  0  0  0  0  0  0  0
   -7.7132   -0.7914    0.0848 H   0  0  0  0  0  0  0  0  0  0  0  0
   -4.7648    2.0855   -1.0723 H   0  0  0  0  0  0  0  0  0  0  0  0
   -2.1634   -0.5327    1.3401 H   0  0  0  0  0  0  0  0  0  0  0  0
    0.3010   -0.1388    1.3397 H   0  0  0  0  0  0  0  0  0  0  0  0
    1.7483   -0.9079   -0.0473 H   0  0  0  0  0  0  0  0  0  0  0  0
    4.4422    1.6785   -0.3887 H   0  0  0  0  0  0  0  0  0  0  0  0
    5.8113   -2.8369    0.7125 H   0  0  0  0  0  0  0  0  0  0  0  0
    3.4602   -2.3384    0.4292 H   0  0  0  0  0  0  0  0  0  0  0  0
   -0.1441    2.1903   -2.1789 H   0  0  0  0  0  0  0  0  0  0  0  0
   -2.6101    1.7872   -2.1757 H   0  0  0  0  0  0  0  0  0  0  0  0
  1  2  1  0
  2  3  2  0
  3  4  1  0
  4  5  1  0
  5  6  1  0
  5  7  1  0
  5  8  1  0
  4  9  2  0
  9 10  1  0
 10 11  1  0
 11 12  1  0
 11 13  1  0
 11 14  1  0
 10 15  2  0
  1 16  2  0
 16 17  1  0
 17 18  2  0
 18 19  1  0
 19 20  2  0
 19 21  1  0
 21 22  1  0
 22 23  2  0
 23 24  1  0
 24 25  1  0
 25 26  1  0
 25 27  1  0
 25 28  1  0
 24 29  2  0
 29 30  1  0
 30 31  1  0
 30 32  1  0
 30 33  1  0
 29 34  1  0
 34 35  2  0
 18 36  1  0
 36 37  2  0
 37  1  1  0
 15  2  1  0
 35 22  1  0
  3 38  1  0
  9 39  1  0
 15 40  1  0
 16 41  1  0
 17 42  1  0
 21 43  1  0
 23 44  1  0
 34 45  1  0
 35 46  1  0
 36 47  1  0
 37 48  1  0
M  END
$$$$
[H]OC([H])([H])C(C#Cc1nc(N([H])C([H])([H])c2c([H])c([H])c(S(=O)(=O)C([H])([H])[H])c([H])c2[H])c2nc([H])c(-c3c([H])nn([H])c3[H])n2c1[H])(C([H])([H])[H])C([H])([H])[H]
     RDKit          3D

 57 60  0  0  0  0  0  0  0  0999 V2000
   -5.9752   -1.1734    1.7156 C   0  0  0  0  0  0  0  0  0  0  0  0
   -5.0987   -1.9155    0.7058 C   0  0  0  0  0  0  0  0  0  0  0  0
   -5.9267   -2.1203   -0.5257 C   0  0  0  0  0  0  0  0  0  0  0  0
   -4.6992   -3.2508    1.2777 C   0  0  0  0  0  0  0  0  0  0  0  0
   -5.8839   -3.9588    1.5239 O   0  0  0  0  0  0  0  0  0  0  0  0
   -3.9420   -1.0653    0.4314 C   0  0  0  0  0  0  0  0  0  0  0  0
   -2.9955   -0.3463    0.1968 C   0  0  0  0  0  0  0  0  0  0  0  0
   -1.8893    0.5195   -0.0932 C   0  0  0  0  0  0  0  0  0  0  0  0
   -2.1054    1.8510   -0.4526 C   0  0  0  0  0  0  0  0  0  0  0  0
   -1.0759    2.6674   -0.7255 N   0  0  0  0  0  0  0  0  0  0  0  0
   -0.9517    3.9585   -1.0891 C   0  0  0  0  0  0  0  0  0  0  0  0
    0.4336    4.2045   -1.2198 C   0  0  0  0  0  0  0  0  0  0  0  0
    1.0697    3.0921   -0.9400 N   0  0  0  0  0  0  0  0  0  0  0  0
    0.1608    2.1529   -0.6386 C   0  0  0  0  0  0  0  0  0  0  0  0
    0.4069    0.8474   -0.2877 C   0  0  0  0  0  0  0  0  0  0  0  0
    1.7191    0.3149   -0.1992 N   0  0  0  0  0  0  0  0  0  0  0  0
    1.9829   -1.0568    0.1693 C   0  0  0  0  0  0  0  0  0  0  0  0
    3.4544   -1.2904    0.1677 C   0  0  0  0  0  0  0  0  0  0  0  0
    4.1307   -1.7163   -0.9518 C   0  0  0  0  0  0  0  0  0  0  0  0
    5.4918   -1.9292   -0.9425 C   0  0  0  0  0  0  0  0  0  0  0  0
    6.1687   -1.7006    0.2366 C   0  0  0  0  0  0  0  0  0  0  0  0
    5.5176   -1.2760    1.3654 C   0  0  0  0  0  0  0  0  0  0  0  0
    4.1596   -1.0637    1.3558 C   0  0  0  0  0  0  0  0  0  0  0  0
    7.8823   -1.9582    0.2849 S   0  0  0  0  0  0  0  0  0  0  0  0
    8.2205   -3.6308    0.7529 C   0  0  0  0  0  0  0  0  0  0  0  0
    8.5645   -1.0431    1.2838 O   0  0  0  0  0  0  0  0  0  0  0  0
    8.4911   -1.6350   -1.0622 O   0  0  0  0  0  0  0  0  0  0  0  0
   -0.6356    0.0525   -0.0202 N   0  0  0  0  0  0  0  0  0  0  0  0
   -1.9911    4.9339   -1.3127 C   0  0  0  0  0  0  0  0  0  0  0  0
   -1.7247    6.2571   -1.6917 C   0  0  0  0  0  0  0  0  0  0  0  0
   -2.8686    6.9451   -1.8308 N   0  0  0  0  0  0  0  0  0  0  0  0
   -3.8587    6.1218   -1.5579 N   0  0  0  0  0  0  0  0  0  0  0  0
   -3.3344    4.8802   -1.2372 C   0  0  0  0  0  0  0  0  0  0  0  0
   -6.1735   -0.1708    1.2392 H   0  0  0  0  0  0  0  0  0  0  0  0
   -6.8924   -1.7175    1.9475 H   0  0  0  0  0  0  0  0  0  0  0  0
   -5.4091   -0.9693    2.6274 H   0  0  0  0  0  0  0  0  0  0  0  0
   -6.1589   -1.1065   -0.9364 H   0  0  0  0  0  0  0  0  0  0  0  0
   -5.4127   -2.7686   -1.2405 H   0  0  0  0  0  0  0  0  0  0  0  0
   -6.8782   -2.6256   -0.1948 H   0  0  0  0  0  0  0  0  0  0  0  0
   -4.1082   -3.7876    0.5210 H   0  0  0  0  0  0  0  0  0  0  0  0
   -4.1970   -3.1317    2.2425 H   0  0  0  0  0  0  0  0  0  0  0  0
   -5.6849   -4.8281    1.9271 H   0  0  0  0  0  0  0  0  0  0  0  0
   -3.0944    2.2103   -0.5077 H   0  0  0  0  0  0  0  0  0  0  0  0
    0.8299    5.1756   -1.5070 H   0  0  0  0  0  0  0  0  0  0  0  0
    2.5192    0.9431   -0.4094 H   0  0  0  0  0  0  0  0  0  0  0  0
    1.5541   -1.3349    1.1483 H   0  0  0  0  0  0  0  0  0  0  0  0
    1.5688   -1.7434   -0.6205 H   0  0  0  0  0  0  0  0  0  0  0  0
    3.5755   -1.8872   -1.8604 H   0  0  0  0  0  0  0  0  0  0  0  0
    6.0241   -2.2708   -1.8459 H   0  0  0  0  0  0  0  0  0  0  0  0
    6.0932   -1.1123    2.2603 H   0  0  0  0  0  0  0  0  0  0  0  0
    3.6159   -0.7286    2.2299 H   0  0  0  0  0  0  0  0  0  0  0  0
    9.2898   -3.8788    0.5524 H   0  0  0  0  0  0  0  0  0  0  0  0
    8.0888   -3.6900    1.8576 H   0  0  0  0  0  0  0  0  0  0  0  0
    7.5454   -4.3629    0.2972 H   0  0  0  0  0  0  0  0  0  0  0  0
   -0.7601    6.6879   -1.8546 H   0  0  0  0  0  0  0  0  0  0  0  0
   -4.8548    6.3650   -1.5804 H   0  0  0  0  0  0  0  0  0  0  0  0
   -3.9777    4.0642   -0.9819 H   0  0  0  0  0  0  0  0  0  0  0  0
  1  2  1  0
  2  3  1  0
  2  4  1  0
  4  5  1  0
  2  6  1  0
  6  7  3  0
  7  8  1  0
  8  9  2  0
  9 10  1  0
 10 11  1  0
 11 12  2  0
 12 13  1  0
 13 14  2  0
 14 15  1  0
 15 16  1  0
 16 17  1  0
 17 18  1  0
 18 19  2  0
 19 20  1  0
 20 21  2  0
 21 22  1  0
 22 23  2  0
 21 24  1  0
 24 25  1  0
 24 26  2  0
 24 27  2  0
 15 28  2  0
 11 29  1  0
 29 30  1  0
 30 31  2  0
 31 32  1  0
 32 33  1  0
 28  8  1  0
 33 29  2  0
 14 10  1  0
 23 18  1  0
  1 34  1  0
  1 35  1  0
  1 36  1  0
  3 37  1  0
  3 38  1  0
  3 39  1  0
  4 40  1  0
  4 41  1  0
  5 42  1  0
  9 43  1  0
 12 44  1  0
 16 45  1  0
 17 46  1  0
 17 47  1  0
 19 48  1  0
 20 49  1  0
 22 50  1  0
 23 51  1  0
 25 52  1  0
 25 53  1  0
 25 54  1  0
 30 55  1  0
 32 56  1  0
 33 57  1  0
M  END
$$$$
[H]C(=O)[C@@]([H])(N([H])C(=O)[C@@]([H])(N([H])C(=O)[C@@]([H])(N([H])C(=O)OC([H])([H])c1c([H])c([H])c([H])c([H])c1[H])C([H])([H])C([H])(C([H])([H])[H])C([H])([H])[H])C([H])([H])C([H])(C([H])([H])[H])C([H])([H])[H])C([H])([H])C([H])(C([H])([H])[H])C([H])([H])[H]
     RDKit          3D

 75 75  0  0  0  0  0  0  0  0999 V2000
   -0.7784   -2.7112    2.0484 C   0  0  0  0  0  0  0  0  0  0  0  0
   -2.0436   -2.8050    1.2648 C   0  0  0  0  0  0  0  0  0  0  0  0
   -2.3365   -4.3094    1.0931 C   0  0  0  0  0  0  0  0  0  0  0  0
   -2.0463   -2.2304   -0.0929 C   0  0  0  0  0  0  0  0  0  0  0  0
   -1.7826   -0.7835   -0.2688 C   0  0  2  0  0  0  0  0  0  0  0  0
   -0.5028   -0.3537    0.2114 N   0  0  0  0  0  0  0  0  0  0  0  0
    0.5278   -0.0447   -0.7232 C   0  0  0  0  0  0  0  0  0  0  0  0
    0.3548   -0.1333   -1.9541 O   0  0  0  0  0  0  0  0  0  0  0  0
    1.8577    0.3991   -0.2178 C   0  0  2  0  0  0  0  0  0  0  0  0
    1.7589    1.6483    0.6000 C   0  0  0  0  0  0  0  0  0  0  0  0
    3.1341    2.0350    1.0807 C   0  0  0  0  0  0  0  0  0  0  0  0
    3.7959    1.0016    1.9387 C   0  0  0  0  0  0  0  0  0  0  0  0
    3.0962    3.3507    1.8284 C   0  0  0  0  0  0  0  0  0  0  0  0
    2.7234    0.6579   -1.3502 N   0  0  0  0  0  0  0  0  0  0  0  0
    3.8005   -0.2642   -1.6050 C   0  0  0  0  0  0  0  0  0  0  0  0
    3.9857   -1.2678   -0.8722 O   0  0  0  0  0  0  0  0  0  0  0  0
    4.6681   -0.0781   -2.6650 O   0  0  0  0  0  0  0  0  0  0  0  0
    5.7468   -0.9214   -2.9946 C   0  0  0  0  0  0  0  0  0  0  0  0
    6.7009   -0.9643   -1.8740 C   0  0  0  0  0  0  0  0  0  0  0  0
    7.5981   -2.0340   -1.7657 C   0  0  0  0  0  0  0  0  0  0  0  0
    8.5096   -2.1002   -0.7333 C   0  0  0  0  0  0  0  0  0  0  0  0
    8.5575   -1.1055    0.2228 C   0  0  0  0  0  0  0  0  0  0  0  0
    7.6892   -0.0534    0.1331 C   0  0  0  0  0  0  0  0  0  0  0  0
    6.7907   -0.0018   -0.8970 C   0  0  0  0  0  0  0  0  0  0  0  0
   -2.8901    0.0849    0.1835 C   0  0  0  0  0  0  0  0  0  0  0  0
   -2.6355    1.0761    0.8981 O   0  0  0  0  0  0  0  0  0  0  0  0
   -4.2374   -0.1619   -0.1618 N   0  0  0  0  0  0  0  0  0  0  0  0
   -5.3636    0.6544    0.2505 C   0  0  1  0  0  0  0  0  0  0  0  0
   -6.1903    1.0992   -0.9259 C   0  0  0  0  0  0  0  0  0  0  0  0
   -7.3338    1.9418   -0.4357 C   0  0  0  0  0  0  0  0  0  0  0  0
   -8.1956    2.4151   -1.5958 C   0  0  0  0  0  0  0  0  0  0  0  0
   -6.7719    3.1917    0.2386 C   0  0  0  0  0  0  0  0  0  0  0  0
   -6.2554   -0.1408    1.1651 C   0  0  0  0  0  0  0  0  0  0  0  0
   -5.9505   -1.3041    1.4249 O   0  0  0  0  0  0  0  0  0  0  0  0
    0.1235   -2.5784    1.4343 H   0  0  0  0  0  0  0  0  0  0  0  0
   -0.7857   -1.9440    2.8495 H   0  0  0  0  0  0  0  0  0  0  0  0
   -0.5807   -3.6753    2.6151 H   0  0  0  0  0  0  0  0  0  0  0  0
   -2.9017   -2.4428    1.8830 H   0  0  0  0  0  0  0  0  0  0  0  0
   -2.4755   -4.8093    2.0546 H   0  0  0  0  0  0  0  0  0  0  0  0
   -3.1391   -4.4634    0.3632 H   0  0  0  0  0  0  0  0  0  0  0  0
   -1.4061   -4.7205    0.6347 H   0  0  0  0  0  0  0  0  0  0  0  0
   -3.0300   -2.4896   -0.5682 H   0  0  0  0  0  0  0  0  0  0  0  0
   -1.2988   -2.7801   -0.7149 H   0  0  0  0  0  0  0  0  0  0  0  0
   -1.7603   -0.6341   -1.4045 H   0  0  0  0  0  0  0  0  0  0  0  0
   -0.3361   -0.2542    1.2431 H   0  0  0  0  0  0  0  0  0  0  0  0
    2.2580   -0.4227    0.4160 H   0  0  0  0  0  0  0  0  0  0  0  0
    1.4222    2.4922   -0.0620 H   0  0  0  0  0  0  0  0  0  0  0  0
    1.0660    1.5324    1.4644 H   0  0  0  0  0  0  0  0  0  0  0  0
    3.7745    2.2047    0.1689 H   0  0  0  0  0  0  0  0  0  0  0  0
    3.0402    0.2641    2.2441 H   0  0  0  0  0  0  0  0  0  0  0  0
    4.5961    0.4286    1.3995 H   0  0  0  0  0  0  0  0  0  0  0  0
    4.2871    1.4440    2.8298 H   0  0  0  0  0  0  0  0  0  0  0  0
    4.0827    3.8620    1.8446 H   0  0  0  0  0  0  0  0  0  0  0  0
    2.8202    3.1281    2.8743 H   0  0  0  0  0  0  0  0  0  0  0  0
    2.3721    4.0280    1.3713 H   0  0  0  0  0  0  0  0  0  0  0  0
    2.5542    1.4813   -1.9403 H   0  0  0  0  0  0  0  0  0  0  0  0
    5.3953   -1.9414   -3.2875 H   0  0  0  0  0  0  0  0  0  0  0  0
    6.2292   -0.5272   -3.9279 H   0  0  0  0  0  0  0  0  0  0  0  0
    7.5401   -2.7937   -2.5211 H   0  0  0  0  0  0  0  0  0  0  0  0
    9.1988   -2.9166   -0.6452 H   0  0  0  0  0  0  0  0  0  0  0  0
    9.2703   -1.1580    1.0282 H   0  0  0  0  0  0  0  0  0  0  0  0
    7.7128    0.7243    0.8640 H   0  0  0  0  0  0  0  0  0  0  0  0
    6.1254    0.8471   -0.9300 H   0  0  0  0  0  0  0  0  0  0  0  0
   -4.4561   -0.9889   -0.7570 H   0  0  0  0  0  0  0  0  0  0  0  0
   -5.0684    1.5399    0.8404 H   0  0  0  0  0  0  0  0  0  0  0  0
   -6.6140    0.1891   -1.4438 H   0  0  0  0  0  0  0  0  0  0  0  0
   -5.5961    1.7135   -1.6304 H   0  0  0  0  0  0  0  0  0  0  0  0
   -8.0024    1.4272    0.2588 H   0  0  0  0  0  0  0  0  0  0  0  0
   -7.6079    2.5690   -2.5177 H   0  0  0  0  0  0  0  0  0  0  0  0
   -8.6333    3.3869   -1.2941 H   0  0  0  0  0  0  0  0  0  0  0  0
   -9.0547    1.7209   -1.7618 H   0  0  0  0  0  0  0  0  0  0  0  0
   -6.4422    3.0122    1.2626 H   0  0  0  0  0  0  0  0  0  0  0  0
   -5.9222    3.5643   -0.3691 H   0  0  0  0  0  0  0  0  0  0  0  0
   -7.5874    3.9607    0.2268 H   0  0  0  0  0  0  0  0  0  0  0  0
   -7.1514    0.2328    1.6171 H   0  0  0  0  0  0  0  0  0  0  0  0
  1  2  1  0
  2  3  1  0
  2  4  1  0
  4  5  1  0
  5  6  1  0
  6  7  1  0
  7  8  2  0
  7  9  1  0
  9 10  1  0
 10 11  1  0
 11 12  1  0
 11 13  1  0
  9 14  1  0
 14 15  1  0
 15 16  2  0
 15 17  1  0
 17 18  1  0
 18 19  1  0
 19 20  2  0
 20 21  1  0
 21 22  2  0
 22 23  1  0
 23 24  2  0
  5 25  1  0
 25 26  2  0
 25 27  1  0
 27 28  1  0
 28 29  1  0
 29 30  1  0
 30 31  1  0
 30 32  1  0
 28 33  1  0
 33 34  2  0
 24 19  1  0
  1 35  1  0
  1 36  1  0
  1 37  1  0
  2 38  1  0
  3 39  1  0
  3 40  1  0
  3 41  1  0
  4 42  1  0
  4 43  1  0
  5 44  1  6
  6 45  1  0
  9 46  1  1
 10 47  1  0
 10 48  1  0
 11 49  1  0
 12 50  1  0
 12 51  1  0
 12 52  1  0
 13 53  1  0
 13 54  1  0
 13 55  1  0
 14 56  1  0
 18 57  1  0
 18 58  1  0
 20 59  1  0
 21 60  1  0
 22 61  1  0
 23 62  1  0
 24 63  1  0
 27 64  1  0
 28 65  1  1
 29 66  1  0
 29 67  1  0
 30 68  1  0
 31 69  1  0
 31 70  1  0
 31 71  1  0
 32 72  1  0
 32 73  1  0
 32 74  1  0
 33 75  1  0
M  END
$$$$
[H]OC(=O)[C@]1([H])N(S(=O)(=O)c2c([H])c([H])c(OC([H])([H])[H])c([H])c2[H])[C@]([H])(C([H])([H])[H])C([H])(C([H])([H])[H])C1([H])[H]
     RDKit          3D

 40 41  0  0  0  0  0  0  0  0999 V2000
   -1.1872    0.9541    0.5276 N   0  0  0  0  0  0  0  0  0  0  0  0
    0.0733    0.6268    1.6810 S   0  0  0  0  0  0  0  0  0  0  0  0
   -0.4274   -0.4597    2.6231 O   0  0  0  0  0  0  0  0  0  0  0  0
    1.5198    0.0528    0.9090 C   0  0  0  0  0  0  0  0  0  0  0  0
    1.7064   -1.2948    0.7103 C   0  0  0  0  0  0  0  0  0  0  0  0
    2.8388   -1.8040    0.1012 C   0  0  0  0  0  0  0  0  0  0  0  0
    3.8252   -0.9644   -0.3297 C   0  0  0  0  0  0  0  0  0  0  0  0
    4.9476   -1.5082   -0.9365 O   0  0  0  0  0  0  0  0  0  0  0  0
    5.9811   -0.6523   -1.3898 C   0  0  0  0  0  0  0  0  0  0  0  0
    3.6665    0.3948   -0.1442 C   0  0  0  0  0  0  0  0  0  0  0  0
    2.5150    0.8973    0.4741 C   0  0  0  0  0  0  0  0  0  0  0  0
    0.3336    1.8286    2.5322 O   0  0  0  0  0  0  0  0  0  0  0  0
   -1.5245   -0.2726   -0.1622 C   0  0  2  0  0  0  0  0  0  0  0  0
   -0.9192   -0.3450   -1.5367 C   0  0  0  0  0  0  0  0  0  0  0  0
   -3.0364   -0.3470   -0.1842 C   0  0  0  0  0  0  0  0  0  0  0  0
   -3.4218   -1.8153   -0.2033 C   0  0  0  0  0  0  0  0  0  0  0  0
   -3.3752    0.2727    1.1677 C   0  0  0  0  0  0  0  0  0  0  0  0
   -2.3568    1.3890    1.2364 C   0  0  2  0  0  0  0  0  0  0  0  0
   -2.9822    2.5912    0.6215 C   0  0  0  0  0  0  0  0  0  0  0  0
   -2.5303    3.1568   -0.4041 O   0  0  0  0  0  0  0  0  0  0  0  0
   -4.1170    3.1129    1.2066 O   0  0  0  0  0  0  0  0  0  0  0  0
    0.9700   -2.0366    1.0232 H   0  0  0  0  0  0  0  0  0  0  0  0
    2.9523   -2.8750   -0.0392 H   0  0  0  0  0  0  0  0  0  0  0  0
    5.5080    0.1520   -1.9932 H   0  0  0  0  0  0  0  0  0  0  0  0
    6.6905   -1.1972   -2.0445 H   0  0  0  0  0  0  0  0  0  0  0  0
    6.5367   -0.2271   -0.5383 H   0  0  0  0  0  0  0  0  0  0  0  0
    4.4498    1.0670   -0.4859 H   0  0  0  0  0  0  0  0  0  0  0  0
    2.4509    1.9527    0.5884 H   0  0  0  0  0  0  0  0  0  0  0  0
   -1.1776   -1.1474    0.4281 H   0  0  0  0  0  0  0  0  0  0  0  0
   -1.6304   -0.1502   -2.3429 H   0  0  0  0  0  0  0  0  0  0  0  0
   -0.4581   -1.3374   -1.7224 H   0  0  0  0  0  0  0  0  0  0  0  0
   -0.0574    0.3813   -1.5476 H   0  0  0  0  0  0  0  0  0  0  0  0
   -3.4822    0.1863   -1.0226 H   0  0  0  0  0  0  0  0  0  0  0  0
   -3.2181   -2.1966   -1.2125 H   0  0  0  0  0  0  0  0  0  0  0  0
   -2.7180   -2.3429    0.4917 H   0  0  0  0  0  0  0  0  0  0  0  0
   -4.4758   -1.9464    0.1234 H   0  0  0  0  0  0  0  0  0  0  0  0
   -4.4096    0.6682    1.1949 H   0  0  0  0  0  0  0  0  0  0  0  0
   -3.1627   -0.4638    1.9474 H   0  0  0  0  0  0  0  0  0  0  0  0
   -2.1610    1.6310    2.3071 H   0  0  0  0  0  0  0  0  0  0  0  0
   -4.1367    4.0682    1.5672 H   0  0  0  0  0  0  0  0  0  0  0  0
  1  2  1  0
  2  3  2  0
  2  4  1  0
  4  5  2  0
  5  6  1  0
  6  7  2  0
  7  8  1  0
  8  9  1  0
  7 10  1  0
 10 11  2  0
  2 12  2  0
  1 13  1  0
 13 14  1  0
 13 15  1  0
 15 16  1  0
 15 17  1  0
 17 18  1  0
 18 19  1  0
 19 20  2  0
 19 21  1  0
 18  1  1  0
 11  4  1  0
  5 22  1  0
  6 23  1  0
  9 24  1  0
  9 25  1  0
  9 26  1  0
 10 27  1  0
 11 28  1  0
 13 29  1  1
 14 30  1  0
 14 31  1  0
 14 32  1  0
 15 33  1  0
 16 34  1  0
 16 35  1  0
 16 36  1  0
 17 37  1  0
 17 38  1  0
 18 39  1  1
 21 40  1  0
M  END
$$$$
[H]c1nc(N([H])C2([H])C([H])([H])C2([H])[H])c2c([H])c([H])n(C(=O)N3C([H])([H])C([H])([H])C([H])(C([H])([H])C([H])([H])N=S(=O)(N([H])[H])C([H])([H])[H])C([H])([H])C3([H])[H])c2n1
     RDKit          3D

 55 58  0  0  0  0  0  0  0  0999 V2000
   -5.5436   -1.4076    2.1158 C   0  0  0  0  0  0  0  0  0  0  0  0
   -6.4120   -0.2754    1.0544 S   0  0  0  0  0  0  0  0  0  0  0  0
   -7.3853    0.7898    1.9998 N   0  0  0  0  0  0  0  0  0  0  0  0
   -7.3111   -0.9812    0.0975 O   0  0  0  0  0  0  0  0  0  0  0  0
   -5.3582    0.4884    0.2211 N   0  0  0  0  0  0  0  0  0  0  0  0
   -5.2769    0.3448   -1.1730 C   0  0  0  0  0  0  0  0  0  0  0  0
   -4.2289   -0.5458   -1.7105 C   0  0  0  0  0  0  0  0  0  0  0  0
   -2.8166   -0.2154   -1.4034 C   0  0  0  0  0  0  0  0  0  0  0  0
   -2.4279    1.1607   -1.9315 C   0  0  0  0  0  0  0  0  0  0  0  0
   -1.7185    1.9530   -0.8376 C   0  0  0  0  0  0  0  0  0  0  0  0
   -0.4897    1.1631   -0.4884 N   0  0  0  0  0  0  0  0  0  0  0  0
   -0.8279   -0.1300    0.0066 C   0  0  0  0  0  0  0  0  0  0  0  0
   -2.3762   -0.3528    0.0066 C   0  0  0  0  0  0  0  0  0  0  0  0
    0.7191    1.7743   -0.6883 C   0  0  0  0  0  0  0  0  0  0  0  0
    0.5550    3.0112   -1.1801 O   0  0  0  0  0  0  0  0  0  0  0  0
    2.0678    1.4497   -0.5156 N   0  0  0  0  0  0  0  0  0  0  0  0
    3.0967    2.3140   -0.8226 C   0  0  0  0  0  0  0  0  0  0  0  0
    4.3002    1.7384   -0.5540 C   0  0  0  0  0  0  0  0  0  0  0  0
    4.0386    0.4843   -0.0667 C   0  0  0  0  0  0  0  0  0  0  0  0
    4.8607   -0.5219    0.3598 C   0  0  0  0  0  0  0  0  0  0  0  0
    6.2811   -0.3160    0.3265 N   0  0  0  0  0  0  0  0  0  0  0  0
    7.1941   -1.3358    0.7615 C   0  0  0  0  0  0  0  0  0  0  0  0
    8.6545   -1.0326    0.6909 C   0  0  0  0  0  0  0  0  0  0  0  0
    8.0335   -2.0173   -0.2530 C   0  0  0  0  0  0  0  0  0  0  0  0
    4.3478   -1.6771    0.7998 N   0  0  0  0  0  0  0  0  0  0  0  0
    2.9952   -1.8310    0.8148 C   0  0  0  0  0  0  0  0  0  0  0  0
    2.2150   -0.8401    0.3958 N   0  0  0  0  0  0  0  0  0  0  0  0
    2.6435    0.3258   -0.0514 C   0  0  0  0  0  0  0  0  0  0  0  0
   -5.1294   -0.7941    2.9537 H   0  0  0  0  0  0  0  0  0  0  0  0
   -4.6858   -1.8210    1.5661 H   0  0  0  0  0  0  0  0  0  0  0  0
   -6.2102   -2.2208    2.4790 H   0  0  0  0  0  0  0  0  0  0  0  0
   -8.3448    0.9017    1.6230 H   0  0  0  0  0  0  0  0  0  0  0  0
   -6.8943    1.6851    2.1550 H   0  0  0  0  0  0  0  0  0  0  0  0
   -5.1920    1.3549   -1.6230 H   0  0  0  0  0  0  0  0  0  0  0  0
   -6.2739   -0.0392   -1.5303 H   0  0  0  0  0  0  0  0  0  0  0  0
   -4.3210   -0.5026   -2.8382 H   0  0  0  0  0  0  0  0  0  0  0  0
   -4.4569   -1.6277   -1.4876 H   0  0  0  0  0  0  0  0  0  0  0  0
   -2.1912   -0.9457   -2.0014 H   0  0  0  0  0  0  0  0  0  0  0  0
   -3.3065    1.7275   -2.2977 H   0  0  0  0  0  0  0  0  0  0  0  0
   -1.7157    1.1057   -2.7798 H   0  0  0  0  0  0  0  0  0  0  0  0
   -2.3054    2.1156    0.0571 H   0  0  0  0  0  0  0  0  0  0  0  0
   -1.4088    2.9177   -1.2374 H   0  0  0  0  0  0  0  0  0  0  0  0
   -0.4435   -0.9233   -0.6603 H   0  0  0  0  0  0  0  0  0  0  0  0
   -0.5265   -0.3493    1.0402 H   0  0  0  0  0  0  0  0  0  0  0  0
   -2.8384    0.3079    0.7254 H   0  0  0  0  0  0  0  0  0  0  0  0
   -2.4559   -1.4422    0.2960 H   0  0  0  0  0  0  0  0  0  0  0  0
    2.9810    3.2943   -1.2144 H   0  0  0  0  0  0  0  0  0  0  0  0
    5.2942    2.1349   -0.6771 H   0  0  0  0  0  0  0  0  0  0  0  0
    6.6449    0.5847   -0.0178 H   0  0  0  0  0  0  0  0  0  0  0  0
    6.7991   -1.9736    1.5772 H   0  0  0  0  0  0  0  0  0  0  0  0
    9.2574   -1.4294    1.5451 H   0  0  0  0  0  0  0  0  0  0  0  0
    9.0183   -0.0564    0.3311 H   0  0  0  0  0  0  0  0  0  0  0  0
    8.3169   -3.0683   -0.0781 H   0  0  0  0  0  0  0  0  0  0  0  0
    8.0036   -1.7001   -1.3132 H   0  0  0  0  0  0  0  0  0  0  0  0
    2.5548   -2.7535    1.1652 H   0  0  0  0  0  0  0  0  0  0  0  0
  1  2  1  0
  2  3  1  0
  2  4  2  0
  2  5  2  3
  5  6  1  0
  6  7  1  0
  7  8  1  0
  8  9  1  0
  9 10  1  0
 10 11  1  0
 11 12  1  0
 12 13  1  0
 11 14  1  0
 14 15  2  0
 14 16  1  0
 16 17  1  0
 17 18  2  0
 18 19  1  0
 19 20  2  0
 20 21  1  0
 21 22  1  0
 22 23  1  0
 23 24  1  0
 20 25  1  0
 25 26  2  0
 26 27  1  0
 27 28  2  0
 13  8  1  0
 28 16  1  0
 28 19  1  0
 24 22  1  0
  1 29  1  0
  1 30  1  0
  1 31  1  0
  3 32  1  0
  3 33  1  0
  6 34  1  0
  6 35  1  0
  7 36  1  0
  7 37  1  0
  8 38  1  0
  9 39  1  0
  9 40  1  0
 10 41  1  0
 10 42  1  0
 12 43  1  0
 12 44  1  0
 13 45  1  0
 13 46  1  0
 17 47  1  0
 18 48  1  0
 21 49  1  0
 22 50  1  0
 23 51  1  0
 23 52  1  0
 24 53  1  0
 24 54  1  0
 26 55  1  0
M  END
$$$$
[H]OC(=O)C([H])([H])[C@@]([H])(C(=O)O[H])N([H])S(=O)(=O)c1c([H])c([H])c(OC([H])([H])[H])c([H])c1[H]
     RDKit          3D

 33 33  0  0  0  0  0  0  0  0999 V2000
    5.3746    0.9753   -0.5280 C   0  0  0  0  0  0  0  0  0  0  0  0
    4.3368    0.6564   -1.4034 O   0  0  0  0  0  0  0  0  0  0  0  0
    3.1774    0.0338   -0.9083 C   0  0  0  0  0  0  0  0  0  0  0  0
    2.1883   -0.2568   -1.8167 C   0  0  0  0  0  0  0  0  0  0  0  0
    1.0375   -0.8722   -1.3388 C   0  0  0  0  0  0  0  0  0  0  0  0
    0.8469   -1.1988   -0.0163 C   0  0  0  0  0  0  0  0  0  0  0  0
    1.8832   -0.8790    0.8506 C   0  0  0  0  0  0  0  0  0  0  0  0
    3.0425   -0.2688    0.4230 C   0  0  0  0  0  0  0  0  0  0  0  0
   -0.6017   -1.9661    0.5664 S   0  0  0  0  0  0  0  0  0  0  0  0
   -0.3292   -2.8755    1.7363 O   0  0  0  0  0  0  0  0  0  0  0  0
   -1.1669   -2.8141   -0.5507 O   0  0  0  0  0  0  0  0  0  0  0  0
   -1.7178   -0.7748    1.0776 N   0  0  0  0  0  0  0  0  0  0  0  0
   -2.1330    0.1093    0.0332 C   0  0  1  0  0  0  0  0  0  0  0  0
   -3.6244    0.0287   -0.2351 C   0  0  0  0  0  0  0  0  0  0  0  0
   -4.4111    0.3866    0.9747 C   0  0  0  0  0  0  0  0  0  0  0  0
   -5.7920    0.3512    0.8585 O   0  0  0  0  0  0  0  0  0  0  0  0
   -3.9239    0.7102    2.0660 O   0  0  0  0  0  0  0  0  0  0  0  0
   -1.7168    1.4884    0.3644 C   0  0  0  0  0  0  0  0  0  0  0  0
   -2.0018    2.5352   -0.4915 O   0  0  0  0  0  0  0  0  0  0  0  0
   -1.0996    1.7009    1.4348 O   0  0  0  0  0  0  0  0  0  0  0  0
    6.2488    1.3204   -1.1371 H   0  0  0  0  0  0  0  0  0  0  0  0
    5.0969    1.7228    0.2402 H   0  0  0  0  0  0  0  0  0  0  0  0
    5.6801    0.0605    0.0259 H   0  0  0  0  0  0  0  0  0  0  0  0
    2.2635   -0.0307   -2.8761 H   0  0  0  0  0  0  0  0  0  0  0  0
    0.2312   -1.1197   -2.0360 H   0  0  0  0  0  0  0  0  0  0  0  0
    1.7958   -1.1086    1.8985 H   0  0  0  0  0  0  0  0  0  0  0  0
    3.8442   -0.0240    1.1080 H   0  0  0  0  0  0  0  0  0  0  0  0
   -1.3576   -0.3190    1.9271 H   0  0  0  0  0  0  0  0  0  0  0  0
   -1.6544   -0.1271   -0.9628 H   0  0  0  0  0  0  0  0  0  0  0  0
   -3.8584   -1.0147   -0.5277 H   0  0  0  0  0  0  0  0  0  0  0  0
   -3.8690    0.6793   -1.0827 H   0  0  0  0  0  0  0  0  0  0  0  0
   -6.2473   -0.5446    1.0857 H   0  0  0  0  0  0  0  0  0  0  0  0
   -1.5428    3.4358   -0.4325 H   0  0  0  0  0  0  0  0  0  0  0  0
  1  2  1  0
  2  3  1  0
  3  4  2  0
  4  5  1  0
  5  6  2  0
  6  7  1  0
  7  8  2  0
  6  9  1  0
  9 10  2  0
  9 11  2  0
  9 12  1  0
 12 13  1  0
 13 14  1  0
 14 15  1  0
 15 16  1  0
 15 17  2  0
 13 18  1  0
 18 19  1  0
 18 20  2  0
  8  3  1  0
  1 21  1  0
  1 22  1  0
  1 23  1  0
  4 24  1  0
  5 25  1  0
  7 26  1  0
  8 27  1  0
 12 28  1  0
 13 29  1  6
 14 30  1  0
 14 31  1  0
 16 32  1  0
 19 33  1  0
M  END
$$$$
[H]O[C@]1([H])[C@]([H])(O[H])[C@@]([H])(O[H])[C@]1([H])C([H])([H])OP(=O)(O[H])OP(=O)(O[H])OC([H])([H])[C@@]1([H])OC(=O)[C@]1([H])O[H]
     RDKit          3D

 40 41  0  0  0  0  0  0  0  0999 V2000
    6.5558   -1.6160   -1.7587 O   0  0  0  0  0  0  0  0  0  0  0  0
    6.1149   -1.1818   -0.5121 C   0  0  2  0  0  0  0  0  0  0  0  0
    5.5316    0.2269   -0.5841 C   0  0  1  0  0  0  0  0  0  0  0  0
    4.2889    0.3164    0.2768 C   0  0  0  0  0  0  0  0  0  0  0  0
    3.1509   -0.0736   -0.4258 O   0  0  0  0  0  0  0  0  0  0  0  0
    1.8377    0.0690    0.6358 P   0  0  0  0  0  0  0  0  0  0  0  0
    1.9252   -1.1448    1.8027 O   0  0  0  0  0  0  0  0  0  0  0  0
    1.9372    1.4573    1.2742 O   0  0  0  0  0  0  0  0  0  0  0  0
    0.3707   -0.0689   -0.1554 O   0  0  0  0  0  0  0  0  0  0  0  0
   -0.7486    0.9610    0.6081 P   0  0  0  0  0  0  0  0  0  0  0  0
   -0.2627    2.5523    0.2918 O   0  0  0  0  0  0  0  0  0  0  0  0
   -0.6892    0.7636    2.1224 O   0  0  0  0  0  0  0  0  0  0  0  0
   -2.3131    0.6572    0.1239 O   0  0  0  0  0  0  0  0  0  0  0  0
   -2.4200   -0.1145   -1.0037 C   0  0  0  0  0  0  0  0  0  0  0  0
   -3.8755   -0.3194   -1.3408 C   0  0  1  0  0  0  0  0  0  0  0  0
   -4.6824   -1.0096   -0.2620 C   0  0  2  0  0  0  0  0  0  0  0  0
   -4.9353   -2.3437   -0.4727 O   0  0  0  0  0  0  0  0  0  0  0  0
   -5.8439   -0.0887   -0.6616 C   0  0  1  0  0  0  0  0  0  0  0  0
   -6.5942    0.3814    0.3866 O   0  0  0  0  0  0  0  0  0  0  0  0
   -4.7636    0.8853   -1.1521 C   0  0  1  0  0  0  0  0  0  0  0  0
   -4.3802    1.7909   -0.1969 O   0  0  0  0  0  0  0  0  0  0  0  0
    6.6933    0.6200    0.1167 O   0  0  0  0  0  0  0  0  0  0  0  0
    7.2135   -0.6397    0.3251 C   0  0  0  0  0  0  0  0  0  0  0  0
    8.1664   -1.1937    0.9242 O   0  0  0  0  0  0  0  0  0  0  0  0
    6.1404   -1.0550   -2.4621 H   0  0  0  0  0  0  0  0  0  0  0  0
    5.4675   -1.9040    0.0179 H   0  0  0  0  0  0  0  0  0  0  0  0
    5.4440    0.6510   -1.5837 H   0  0  0  0  0  0  0  0  0  0  0  0
    4.2103    1.3601    0.6617 H   0  0  0  0  0  0  0  0  0  0  0  0
    4.3806   -0.3357    1.1565 H   0  0  0  0  0  0  0  0  0  0  0  0
    1.9478   -0.7247    2.6829 H   0  0  0  0  0  0  0  0  0  0  0  0
   -0.2216    2.6726   -0.6900 H   0  0  0  0  0  0  0  0  0  0  0  0
   -2.0028   -1.1277   -0.7502 H   0  0  0  0  0  0  0  0  0  0  0  0
   -1.8731    0.2451   -1.8794 H   0  0  0  0  0  0  0  0  0  0  0  0
   -4.0107   -0.8040   -2.3100 H   0  0  0  0  0  0  0  0  0  0  0  0
   -4.3391   -0.7457    0.7640 H   0  0  0  0  0  0  0  0  0  0  0  0
   -4.2983   -2.8608    0.0854 H   0  0  0  0  0  0  0  0  0  0  0  0
   -6.3882   -0.5267   -1.5117 H   0  0  0  0  0  0  0  0  0  0  0  0
   -6.8575    1.3337    0.1760 H   0  0  0  0  0  0  0  0  0  0  0  0
   -5.1167    1.3594   -2.0883 H   0  0  0  0  0  0  0  0  0  0  0  0
   -4.7599    1.5756    0.6904 H   0  0  0  0  0  0  0  0  0  0  0  0
  1  2  1  0
  2  3  1  0
  3  4  1  0
  4  5  1  0
  5  6  1  0
  6  7  1  0
  6  8  2  0
  6  9  1  0
  9 10  1  0
 10 11  1  0
 10 12  2  0
 10 13  1  0
 13 14  1  0
 14 15  1  0
 15 16  1  0
 16 17  1  0
 16 18  1  0
 18 19  1  0
 18 20  1  0
 20 21  1  0
  3 22  1  0
 22 23  1  0
 23 24  2  0
 23  2  1  0
 20 15  1  0
  1 25  1  0
  2 26  1  1
  3 27  1  6
  4 28  1  0
  4 29  1  0
  7 30  1  0
 11 31  1  0
 14 32  1  0
 14 33  1  0
 15 34  1  6
 16 35  1  1
 17 36  1  0
 18 37  1  6
 19 38  1  0
 20 39  1  6
 21 40  1  0
M  END
$$$$
[H]c1nc(N([H])C([H])([H])[H])nc(-c2c([H])c([H])c(N([H])c3nn(C([H])([H])[H])c(C([H])([H])[H])c3C(=O)N3C([H])([H])C4([H])C([H])([H])N(C(C([H])([H])[H])(C([H])([H])[H])C([H])([H])[H])C([H])([H])C4(C([H])([H])[H])C3([H])[H])c([H])c2Cl)c1[H]
     RDKit          3D

 75 79  0  0  0  0  0  0  0  0999 V2000
    9.9533    1.0629   -1.6014 C   0  0  0  0  0  0  0  0  0  0  0  0
   10.6010    0.1011   -0.7222 N   0  0  0  0  0  0  0  0  0  0  0  0
    9.8434   -0.8041    0.0681 C   0  0  0  0  0  0  0  0  0  0  0  0
   10.4907   -1.6814    0.8718 N   0  0  0  0  0  0  0  0  0  0  0  0
    9.7828   -2.5184    1.6030 C   0  0  0  0  0  0  0  0  0  0  0  0
    8.3798   -2.4733    1.5249 C   0  0  0  0  0  0  0  0  0  0  0  0
    7.7235   -1.6030    0.7252 C   0  0  0  0  0  0  0  0  0  0  0  0
    8.5285   -0.7581   -0.0093 N   0  0  0  0  0  0  0  0  0  0  0  0
    6.2856   -1.4388    0.6141 C   0  0  0  0  0  0  0  0  0  0  0  0
    5.8016   -0.1966    0.1495 C   0  0  0  0  0  0  0  0  0  0  0  0
    4.4549    0.0439   -0.0253 C   0  0  0  0  0  0  0  0  0  0  0  0
    3.5145   -0.9028    0.2415 C   0  0  0  0  0  0  0  0  0  0  0  0
    2.1057   -0.6998    0.1218 N   0  0  0  0  0  0  0  0  0  0  0  0
    1.4466    0.5305    0.3420 C   0  0  0  0  0  0  0  0  0  0  0  0
    2.1214    1.6485    0.6979 N   0  0  0  0  0  0  0  0  0  0  0  0
    1.3434    2.6560    0.8448 N   0  0  0  0  0  0  0  0  0  0  0  0
    1.7495    4.0146    1.2208 C   0  0  0  0  0  0  0  0  0  0  0  0
    0.0751    2.2208    0.5817 C   0  0  0  0  0  0  0  0  0  0  0  0
   -1.0768    3.1154    0.7145 C   0  0  0  0  0  0  0  0  0  0  0  0
    0.0792    0.8738    0.2540 C   0  0  0  0  0  0  0  0  0  0  0  0
   -0.9591   -0.0659   -0.0147 C   0  0  0  0  0  0  0  0  0  0  0  0
   -0.5173   -1.3328    0.0537 O   0  0  0  0  0  0  0  0  0  0  0  0
   -2.3227   -0.0067   -0.3375 N   0  0  0  0  0  0  0  0  0  0  0  0
   -3.0629   -1.3169   -0.4715 C   0  0  0  0  0  0  0  0  0  0  0  0
   -4.1448   -1.0763   -1.4601 C   0  0  0  0  0  0  0  0  0  0  0  0
   -5.4934   -1.6287   -0.9460 C   0  0  0  0  0  0  0  0  0  0  0  0
   -5.9764   -0.5518   -0.1537 N   0  0  0  0  0  0  0  0  0  0  0  0
   -5.7007    0.6261   -0.8914 C   0  0  0  0  0  0  0  0  0  0  0  0
   -4.3328    0.3943   -1.4846 C   0  0  0  0  0  0  0  0  0  0  0  0
   -4.3313    0.9341   -2.9108 C   0  0  0  0  0  0  0  0  0  0  0  0
   -3.2404    1.0248   -0.6439 C   0  0  0  0  0  0  0  0  0  0  0  0
   -7.2456   -0.6895    0.4446 C   0  0  0  0  0  0  0  0  0  0  0  0
   -8.3128   -0.8378   -0.6112 C   0  0  0  0  0  0  0  0  0  0  0  0
   -7.3555   -1.8835    1.3713 C   0  0  0  0  0  0  0  0  0  0  0  0
   -7.6039    0.5957    1.2086 C   0  0  0  0  0  0  0  0  0  0  0  0
    3.9832   -2.1236    0.6956 C   0  0  0  0  0  0  0  0  0  0  0  0
    5.3509   -2.3812    0.8761 C   0  0  0  0  0  0  0  0  0  0  0  0
    5.8028   -4.0087    1.3922 Cl  0  0  0  0  0  0  0  0  0  0  0  0
   10.1447    2.0693   -1.1531 H   0  0  0  0  0  0  0  0  0  0  0  0
   10.4046    0.9535   -2.5962 H   0  0  0  0  0  0  0  0  0  0  0  0
    8.8646    0.8429   -1.5965 H   0  0  0  0  0  0  0  0  0  0  0  0
   11.6298    0.0795   -0.6748 H   0  0  0  0  0  0  0  0  0  0  0  0
   10.2817   -3.2267    2.2513 H   0  0  0  0  0  0  0  0  0  0  0  0
    7.8568   -3.1581    2.1721 H   0  0  0  0  0  0  0  0  0  0  0  0
    6.5258    0.5549   -0.0627 H   0  0  0  0  0  0  0  0  0  0  0  0
    4.1566    1.0290   -0.4133 H   0  0  0  0  0  0  0  0  0  0  0  0
    1.5844   -1.5418   -0.1609 H   0  0  0  0  0  0  0  0  0  0  0  0
    2.8351    4.1083    1.1361 H   0  0  0  0  0  0  0  0  0  0  0  0
    1.3325    4.3191    2.1790 H   0  0  0  0  0  0  0  0  0  0  0  0
    1.3004    4.6755    0.4240 H   0  0  0  0  0  0  0  0  0  0  0  0
   -1.8837    2.7153    1.3674 H   0  0  0  0  0  0  0  0  0  0  0  0
   -0.7121    4.0890    1.1825 H   0  0  0  0  0  0  0  0  0  0  0  0
   -1.5074    3.4518   -0.2441 H   0  0  0  0  0  0  0  0  0  0  0  0
   -3.3897   -1.5910    0.5308 H   0  0  0  0  0  0  0  0  0  0  0  0
   -2.3374   -2.0439   -0.8829 H   0  0  0  0  0  0  0  0  0  0  0  0
   -3.9400   -1.4494   -2.4747 H   0  0  0  0  0  0  0  0  0  0  0  0
   -6.1636   -1.7827   -1.8090 H   0  0  0  0  0  0  0  0  0  0  0  0
   -5.2908   -2.5590   -0.4191 H   0  0  0  0  0  0  0  0  0  0  0  0
   -5.6941    1.5543   -0.2471 H   0  0  0  0  0  0  0  0  0  0  0  0
   -6.4495    0.8605   -1.6877 H   0  0  0  0  0  0  0  0  0  0  0  0
   -4.0408    1.9976   -2.8920 H   0  0  0  0  0  0  0  0  0  0  0  0
   -3.6267    0.3764   -3.5633 H   0  0  0  0  0  0  0  0  0  0  0  0
   -5.3739    0.8767   -3.2747 H   0  0  0  0  0  0  0  0  0  0  0  0
   -2.7434    1.7419   -1.3409 H   0  0  0  0  0  0  0  0  0  0  0  0
   -3.6743    1.5618    0.2296 H   0  0  0  0  0  0  0  0  0  0  0  0
   -9.2195   -0.2310   -0.3873 H   0  0  0  0  0  0  0  0  0  0  0  0
   -8.5952   -1.9224   -0.6796 H   0  0  0  0  0  0  0  0  0  0  0  0
   -7.8698   -0.5663   -1.5879 H   0  0  0  0  0  0  0  0  0  0  0  0
   -8.2425   -1.6990    2.0119 H   0  0  0  0  0  0  0  0  0  0  0  0
   -7.5346   -2.7754    0.7564 H   0  0  0  0  0  0  0  0  0  0  0  0
   -6.4851   -1.9737    2.0448 H   0  0  0  0  0  0  0  0  0  0  0  0
   -8.5541    0.4453    1.7637 H   0  0  0  0  0  0  0  0  0  0  0  0
   -7.7919    1.3590    0.4292 H   0  0  0  0  0  0  0  0  0  0  0  0
   -6.7933    0.8874    1.8909 H   0  0  0  0  0  0  0  0  0  0  0  0
    3.2555   -2.8914    0.9133 H   0  0  0  0  0  0  0  0  0  0  0  0
  1  2  1  0
  2  3  1  0
  3  4  2  0
  4  5  1  0
  5  6  2  0
  6  7  1  0
  7  8  2  0
  7  9  1  0
  9 10  2  0
 10 11  1  0
 11 12  2  0
 12 13  1  0
 13 14  1  0
 14 15  2  0
 15 16  1  0
 16 17  1  0
 16 18  1  0
 18 19  1  0
 18 20  2  0
 20 21  1  0
 21 22  2  0
 21 23  1  0
 23 24  1  0
 24 25  1  0
 25 26  1  0
 26 27  1  0
 27 28  1  0
 28 29  1  0
 29 30  1  0
 29 31  1  0
 27 32  1  0
 32 33  1  0
 32 34  1  0
 32 35  1  0
 12 36  1  0
 36 37  2  0
 37 38  1  0
  8  3  1  0
 37  9  1  0
 20 14  1  0
 31 23  1  0
 29 25  1  0
  1 39  1  0
  1 40  1  0
  1 41  1  0
  2 42  1  0
  5 43  1  0
  6 44  1  0
 10 45  1  0
 11 46  1  0
 13 47  1  0
 17 48  1  0
 17 49  1  0
 17 50  1  0
 19 51  1  0
 19 52  1  0
 19 53  1  0
 24 54  1  0
 24 55  1  0
 25 56  1  0
 26 57  1  0
 26 58  1  0
 28 59  1  0
 28 60  1  0
 30 61  1  0
 30 62  1  0
 30 63  1  0
 31 64  1  0
 31 65  1  0
 33 66  1  0
 33 67  1  0
 33 68  1  0
 34 69  1  0
 34 70  1  0
 34 71  1  0
 35 72  1  0
 35 73  1  0
 35 74  1  0
 36 75  1  0
M  END
$$$$
[H]c1nn([H])c(-c2c([H])c([H])c(Oc3c([H])c([H])c(N4C([H])([H])C([H])([H])OC([H])([H])C4([H])[H])c([H])c3Cl)c([H])c2[H])c1C#N
     RDKit          3D

 44 47  0  0  0  0  0  0  0  0999 V2000
   -0.0032    0.0694   -2.4777 Cl  0  0  0  0  0  0  0  0  0  0  0  0
   -0.9162   -0.4543   -1.0905 C   0  0  0  0  0  0  0  0  0  0  0  0
   -2.2227    0.0387   -0.9799 C   0  0  0  0  0  0  0  0  0  0  0  0
   -3.0219   -0.3149    0.0822 C   0  0  0  0  0  0  0  0  0  0  0  0
   -2.4487   -1.1833    1.0231 C   0  0  0  0  0  0  0  0  0  0  0  0
   -1.1746   -1.6719    0.9268 C   0  0  0  0  0  0  0  0  0  0  0  0
   -0.3655   -1.2997   -0.1700 C   0  0  0  0  0  0  0  0  0  0  0  0
    0.8974   -1.8142   -0.2191 O   0  0  0  0  0  0  0  0  0  0  0  0
    2.1022   -1.1874   -0.2368 C   0  0  0  0  0  0  0  0  0  0  0  0
    2.5575   -0.6299    0.9428 C   0  0  0  0  0  0  0  0  0  0  0  0
    3.7887    0.0264    0.9925 C   0  0  0  0  0  0  0  0  0  0  0  0
    4.5897    0.1510   -0.0854 C   0  0  0  0  0  0  0  0  0  0  0  0
    4.1319   -0.4102   -1.2740 C   0  0  0  0  0  0  0  0  0  0  0  0
    2.9264   -1.0523   -1.3220 C   0  0  0  0  0  0  0  0  0  0  0  0
    5.9034    0.7672   -0.1281 C   0  0  0  0  0  0  0  0  0  0  0  0
    6.5959    1.0855   -1.2685 N   0  0  0  0  0  0  0  0  0  0  0  0
    7.7429    1.5784   -0.9254 N   0  0  0  0  0  0  0  0  0  0  0  0
    7.8958    1.6245    0.3939 C   0  0  0  0  0  0  0  0  0  0  0  0
    6.7053    1.0986    0.9132 C   0  0  0  0  0  0  0  0  0  0  0  0
    6.5156    0.9609    2.3354 C   0  0  0  0  0  0  0  0  0  0  0  0
    6.3928    0.8432    3.4762 N   0  0  0  0  0  0  0  0  0  0  0  0
   -4.3459    0.1494    0.2511 N   0  0  0  0  0  0  0  0  0  0  0  0
   -5.1306   -0.3135    1.3815 C   0  0  0  0  0  0  0  0  0  0  0  0
   -6.5832    0.0156    1.0412 C   0  0  0  0  0  0  0  0  0  0  0  0
   -6.8950   -0.3230   -0.2516 O   0  0  0  0  0  0  0  0  0  0  0  0
   -6.1776    0.3106   -1.2321 C   0  0  0  0  0  0  0  0  0  0  0  0
   -4.9803    1.0726   -0.6436 C   0  0  0  0  0  0  0  0  0  0  0  0
   -2.5879    0.7012   -1.7471 H   0  0  0  0  0  0  0  0  0  0  0  0
   -3.1011   -1.4571    1.8679 H   0  0  0  0  0  0  0  0  0  0  0  0
   -0.7808   -2.3432    1.6867 H   0  0  0  0  0  0  0  0  0  0  0  0
    1.9506   -0.7068    1.8277 H   0  0  0  0  0  0  0  0  0  0  0  0
    4.0521    0.4448    1.9223 H   0  0  0  0  0  0  0  0  0  0  0  0
    4.7173   -0.3592   -2.1951 H   0  0  0  0  0  0  0  0  0  0  0  0
    2.6367   -1.4832   -2.2749 H   0  0  0  0  0  0  0  0  0  0  0  0
    6.1873    0.9279   -2.2155 H   0  0  0  0  0  0  0  0  0  0  0  0
    8.7497    1.9871    0.9764 H   0  0  0  0  0  0  0  0  0  0  0  0
   -5.0993   -1.4239    1.4706 H   0  0  0  0  0  0  0  0  0  0  0  0
   -4.8914    0.1923    2.3156 H   0  0  0  0  0  0  0  0  0  0  0  0
   -6.8120    1.0779    1.2906 H   0  0  0  0  0  0  0  0  0  0  0  0
   -7.1975   -0.6156    1.7118 H   0  0  0  0  0  0  0  0  0  0  0  0
   -5.7326   -0.4868   -1.8843 H   0  0  0  0  0  0  0  0  0  0  0  0
   -6.7837    0.9700   -1.8910 H   0  0  0  0  0  0  0  0  0  0  0  0
   -5.4058    1.9596   -0.0999 H   0  0  0  0  0  0  0  0  0  0  0  0
   -4.3819    1.4776   -1.4476 H   0  0  0  0  0  0  0  0  0  0  0  0
  1  2  1  0
  2  3  2  0
  3  4  1  0
  4  5  2  0
  5  6  1  0
  6  7  2  0
  7  8  1  0
  8  9  1  0
  9 10  2  0
 10 11  1  0
 11 12  2  0
 12 13  1  0
 13 14  2  0
 12 15  1  0
 15 16  1  0
 16 17  1  0
 17 18  2  0
 18 19  1  0
 19 20  1  0
 20 21  3  0
  4 22  1  0
 22 23  1  0
 23 24  1  0
 24 25  1  0
 25 26  1  0
 26 27  1  0
  7  2  1  0
 14  9  1  0
 19 15  2  0
 27 22  1  0
  3 28  1  0
  5 29  1  0
  6 30  1  0
 10 31  1  0
 11 32  1  0
 13 33  1  0
 14 34  1  0
 16 35  1  0
 18 36  1  0
 23 37  1  0
 23 38  1  0
 24 39  1  0
 24 40  1  0
 26 41  1  0
 26 42  1  0
 27 43  1  0
 27 44  1  0
M  END
$$$$
[H]c1c([H])c([H])c(C([H])([H])[C@@]([H])(C(=O)N([H])[H])N([H])C(=O)[C@@]([H])(N([H])C(=O)[C@@]([H])(N([H])C(=O)c2c([H])c([H])c(C#N)c([H])c2[H])C([H])([H])[H])C([H])([H])C([H])(C([H])([H])[H])C([H])([H])[H])c([H])c1[H]
     RDKit          3D

 66 67  0  0  0  0  0  0  0  0999 V2000
   -0.2245   -4.3285   -1.3283 C   0  0  0  0  0  0  0  0  0  0  0  0
    0.2719   -3.5429   -0.1310 C   0  0  0  0  0  0  0  0  0  0  0  0
    0.2175   -4.4154    1.1042 C   0  0  0  0  0  0  0  0  0  0  0  0
   -0.4682   -2.2758    0.0830 C   0  0  0  0  0  0  0  0  0  0  0  0
   -0.4047   -1.2780   -1.0508 C   0  0  2  0  0  0  0  0  0  0  0  0
    0.8985   -0.7969   -1.3678 N   0  0  0  0  0  0  0  0  0  0  0  0
    1.9946   -0.6105   -0.5248 C   0  0  0  0  0  0  0  0  0  0  0  0
    1.9347   -0.8542    0.6975 O   0  0  0  0  0  0  0  0  0  0  0  0
    3.3232   -0.1038   -1.0273 C   0  0  2  0  0  0  0  0  0  0  0  0
    3.7851   -1.0762   -2.0827 C   0  0  0  0  0  0  0  0  0  0  0  0
    4.2767    0.0206    0.0470 N   0  0  0  0  0  0  0  0  0  0  0  0
    4.8439    1.2376    0.4553 C   0  0  0  0  0  0  0  0  0  0  0  0
    4.4840    2.2761   -0.1708 O   0  0  0  0  0  0  0  0  0  0  0  0
    5.8023    1.4056    1.5295 C   0  0  0  0  0  0  0  0  0  0  0  0
    6.2536    2.6500    1.9230 C   0  0  0  0  0  0  0  0  0  0  0  0
    7.1597    2.8499    2.9376 C   0  0  0  0  0  0  0  0  0  0  0  0
    7.6580    1.7479    3.6137 C   0  0  0  0  0  0  0  0  0  0  0  0
    7.2380    0.4838    3.2576 C   0  0  0  0  0  0  0  0  0  0  0  0
    6.3257    0.3282    2.2315 C   0  0  0  0  0  0  0  0  0  0  0  0
    8.6055    1.9494    4.6777 C   0  0  0  0  0  0  0  0  0  0  0  0
    9.3873    2.0959    5.5460 N   0  0  0  0  0  0  0  0  0  0  0  0
   -1.4014   -0.2313   -0.8117 C   0  0  0  0  0  0  0  0  0  0  0  0
   -0.9997    0.9787   -0.8758 O   0  0  0  0  0  0  0  0  0  0  0  0
   -2.7600   -0.4669   -0.5192 N   0  0  0  0  0  0  0  0  0  0  0  0
   -3.7052    0.6358   -0.2863 C   0  0  1  0  0  0  0  0  0  0  0  0
   -4.6855    0.5948   -1.3997 C   0  0  0  0  0  0  0  0  0  0  0  0
   -5.7458    1.6262   -1.3691 C   0  0  0  0  0  0  0  0  0  0  0  0
   -6.9858    1.3438   -0.8270 C   0  0  0  0  0  0  0  0  0  0  0  0
   -7.9844    2.2779   -0.7815 C   0  0  0  0  0  0  0  0  0  0  0  0
   -7.7401    3.5309   -1.2916 C   0  0  0  0  0  0  0  0  0  0  0  0
   -6.5099    3.8411   -1.8396 C   0  0  0  0  0  0  0  0  0  0  0  0
   -5.5160    2.8979   -1.8802 C   0  0  0  0  0  0  0  0  0  0  0  0
   -4.2465    0.5667    1.0788 C   0  0  0  0  0  0  0  0  0  0  0  0
   -5.1182    1.5289    1.6489 N   0  0  0  0  0  0  0  0  0  0  0  0
   -3.9309   -0.4196    1.8493 O   0  0  0  0  0  0  0  0  0  0  0  0
    0.1721   -3.9168   -2.2730 H   0  0  0  0  0  0  0  0  0  0  0  0
   -1.3018   -4.4659   -1.3364 H   0  0  0  0  0  0  0  0  0  0  0  0
    0.2300   -5.3570   -1.2265 H   0  0  0  0  0  0  0  0  0  0  0  0
    1.3381   -3.3460   -0.3304 H   0  0  0  0  0  0  0  0  0  0  0  0
   -0.8150   -4.6098    1.4120 H   0  0  0  0  0  0  0  0  0  0  0  0
    0.7738   -5.3632    0.9202 H   0  0  0  0  0  0  0  0  0  0  0  0
    0.7232   -3.8256    1.9216 H   0  0  0  0  0  0  0  0  0  0  0  0
   -1.5647   -2.5596    0.1493 H   0  0  0  0  0  0  0  0  0  0  0  0
   -0.2675   -1.7506    1.0251 H   0  0  0  0  0  0  0  0  0  0  0  0
   -0.7615   -1.8828   -1.9438 H   0  0  0  0  0  0  0  0  0  0  0  0
    1.0850   -0.5329   -2.4000 H   0  0  0  0  0  0  0  0  0  0  0  0
    3.1382    0.8907   -1.4486 H   0  0  0  0  0  0  0  0  0  0  0  0
    4.2997   -1.9405   -1.5862 H   0  0  0  0  0  0  0  0  0  0  0  0
    4.5195   -0.6422   -2.7840 H   0  0  0  0  0  0  0  0  0  0  0  0
    2.9017   -1.4186   -2.6593 H   0  0  0  0  0  0  0  0  0  0  0  0
    4.5433   -0.8537    0.5326 H   0  0  0  0  0  0  0  0  0  0  0  0
    5.8586    3.5107    1.3879 H   0  0  0  0  0  0  0  0  0  0  0  0
    7.4947    3.8559    3.2211 H   0  0  0  0  0  0  0  0  0  0  0  0
    7.6226   -0.4011    3.7830 H   0  0  0  0  0  0  0  0  0  0  0  0
    5.9865   -0.6745    1.9403 H   0  0  0  0  0  0  0  0  0  0  0  0
   -3.0991   -1.4459   -0.4716 H   0  0  0  0  0  0  0  0  0  0  0  0
   -3.1228    1.5848   -0.3904 H   0  0  0  0  0  0  0  0  0  0  0  0
   -5.1830   -0.3951   -1.5167 H   0  0  0  0  0  0  0  0  0  0  0  0
   -4.1420    0.7511   -2.3593 H   0  0  0  0  0  0  0  0  0  0  0  0
   -7.1480    0.3269   -0.4264 H   0  0  0  0  0  0  0  0  0  0  0  0
   -8.9580    2.0185   -0.3431 H   0  0  0  0  0  0  0  0  0  0  0  0
   -8.5587    4.2552   -1.2396 H   0  0  0  0  0  0  0  0  0  0  0  0
   -6.3417    4.8373   -2.2346 H   0  0  0  0  0  0  0  0  0  0  0  0
   -4.5271    3.1093   -2.3085 H   0  0  0  0  0  0  0  0  0  0  0  0
   -5.9549    1.2171    2.1972 H   0  0  0  0  0  0  0  0  0  0  0  0
   -4.9747    2.5565    1.5540 H   0  0  0  0  0  0  0  0  0  0  0  0
  1  2  1  0
  2  3  1  0
  2  4  1  0
  4  5  1  0
  5  6  1  0
  6  7  1  0
  7  8  2  0
  7  9  1  0
  9 10  1  0
  9 11  1  0
 11 12  1  0
 12 13  2  0
 12 14  1  0
 14 15  2  0
 15 16  1  0
 16 17  2  0
 17 18  1  0
 18 19  2  0
 17 20  1  0
 20 21  3  0
  5 22  1  0
 22 23  2  0
 22 24  1  0
 24 25  1  0
 25 26  1  0
 26 27  1  0
 27 28  2  0
 28 29  1  0
 29 30  2  0
 30 31  1  0
 31 32  2  0
 25 33  1  0
 33 34  1  0
 33 35  2  0
 19 14  1  0
 32 27  1  0
  1 36  1  0
  1 37  1  0
  1 38  1  0
  2 39  1  0
  3 40  1  0
  3 41  1  0
  3 42  1  0
  4 43  1  0
  4 44  1  0
  5 45  1  6
  6 46  1  0
  9 47  1  6
 10 48  1  0
 10 49  1  0
 10 50  1  0
 11 51  1  0
 15 52  1  0
 16 53  1  0
 18 54  1  0
 19 55  1  0
 24 56  1  0
 25 57  1  1
 26 58  1  0
 26 59  1  0
 28 60  1  0
 29 61  1  0
 30 62  1  0
 31 63  1  0
 32 64  1  0
 34 65  1  0
 34 66  1  0
M  END
$$$$
[H]OC(=O)[C@@]1([H])N(C(=O)[C@@]2([H])N(C(=O)[C@@]3([H])N(C(=O)[C@@]([H])(N([H])[H])C([H])([H])c4c([H])n([H])c5c([H])c([H])c([H])c([H])c45)C([H])([H])C([H])([H])C3([H])[H])C([H])([H])C([H])([H])C2([H])[H])C([H])([H])C([H])([H])C1([H])[H]
     RDKit          3D

 69 73  0  0  0  0  0  0  0  0999 V2000
    3.9036   -0.2046   -1.4152 N   0  0  0  0  0  0  0  0  0  0  0  0
    3.2336    0.2311   -0.2450 C   0  0  1  0  0  0  0  0  0  0  0  0
    3.7011    1.5891    0.2424 C   0  0  0  0  0  0  0  0  0  0  0  0
    5.1460    1.5133    0.5458 C   0  0  0  0  0  0  0  0  0  0  0  0
    6.1865    2.0012   -0.2018 C   0  0  0  0  0  0  0  0  0  0  0  0
    7.3620    1.7449    0.3904 N   0  0  0  0  0  0  0  0  0  0  0  0
    7.0836    1.0772    1.5460 C   0  0  0  0  0  0  0  0  0  0  0  0
    7.9485    0.5974    2.4998 C   0  0  0  0  0  0  0  0  0  0  0  0
    7.4143   -0.0501    3.5901 C   0  0  0  0  0  0  0  0  0  0  0  0
    6.0497   -0.2235    3.7407 C   0  0  0  0  0  0  0  0  0  0  0  0
    5.2052    0.2683    2.7677 C   0  0  0  0  0  0  0  0  0  0  0  0
    5.6972    0.9228    1.6601 C   0  0  0  0  0  0  0  0  0  0  0  0
    1.7645    0.1566   -0.3543 C   0  0  0  0  0  0  0  0  0  0  0  0
    1.1628    0.3978    0.7662 O   0  0  0  0  0  0  0  0  0  0  0  0
    1.0136   -0.1409   -1.5157 N   0  0  0  0  0  0  0  0  0  0  0  0
    1.4354   -0.3963   -2.8447 C   0  0  0  0  0  0  0  0  0  0  0  0
    0.2422   -0.0850   -3.7142 C   0  0  0  0  0  0  0  0  0  0  0  0
   -0.7875    0.5308   -2.7504 C   0  0  0  0  0  0  0  0  0  0  0  0
   -0.4297   -0.2663   -1.4816 C   0  0  1  0  0  0  0  0  0  0  0  0
   -0.8859   -1.6468   -1.5787 C   0  0  0  0  0  0  0  0  0  0  0  0
   -0.0981   -2.5657   -1.8887 O   0  0  0  0  0  0  0  0  0  0  0  0
   -2.2422   -1.9642   -1.3185 N   0  0  0  0  0  0  0  0  0  0  0  0
   -2.8427   -3.3040   -1.4071 C   0  0  0  0  0  0  0  0  0  0  0  0
   -4.3246   -3.1243   -1.3668 C   0  0  0  0  0  0  0  0  0  0  0  0
   -4.5282   -1.6414   -1.6394 C   0  0  0  0  0  0  0  0  0  0  0  0
   -3.3094   -1.0771   -0.9016 C   0  0  1  0  0  0  0  0  0  0  0  0
   -3.6362   -1.2056    0.5400 C   0  0  0  0  0  0  0  0  0  0  0  0
   -3.1781   -2.2102    1.1500 O   0  0  0  0  0  0  0  0  0  0  0  0
   -4.4280   -0.2230    1.1630 N   0  0  0  0  0  0  0  0  0  0  0  0
   -4.8843   -0.2016    2.5622 C   0  0  0  0  0  0  0  0  0  0  0  0
   -5.9660    0.8351    2.6528 C   0  0  0  0  0  0  0  0  0  0  0  0
   -6.2364    1.2581    1.2534 C   0  0  0  0  0  0  0  0  0  0  0  0
   -4.9236    0.9820    0.5313 C   0  0  1  0  0  0  0  0  0  0  0  0
   -3.9823    2.0898    0.8641 C   0  0  0  0  0  0  0  0  0  0  0  0
   -4.2721    3.3423    0.3579 O   0  0  0  0  0  0  0  0  0  0  0  0
   -2.9863    1.8441    1.5756 O   0  0  0  0  0  0  0  0  0  0  0  0
    4.1707   -1.2207   -1.4002 H   0  0  0  0  0  0  0  0  0  0  0  0
    4.6843    0.3811   -1.7450 H   0  0  0  0  0  0  0  0  0  0  0  0
    3.5566   -0.4726    0.5854 H   0  0  0  0  0  0  0  0  0  0  0  0
    3.1123    1.8131    1.1651 H   0  0  0  0  0  0  0  0  0  0  0  0
    3.5315    2.3924   -0.4763 H   0  0  0  0  0  0  0  0  0  0  0  0
    6.0781    2.5190   -1.1355 H   0  0  0  0  0  0  0  0  0  0  0  0
    8.3325    1.9952    0.0575 H   0  0  0  0  0  0  0  0  0  0  0  0
    9.0322    0.7286    2.3917 H   0  0  0  0  0  0  0  0  0  0  0  0
    8.1147   -0.4253    4.3384 H   0  0  0  0  0  0  0  0  0  0  0  0
    5.6592   -0.7469    4.6266 H   0  0  0  0  0  0  0  0  0  0  0  0
    4.1203    0.1434    2.8645 H   0  0  0  0  0  0  0  0  0  0  0  0
    1.7643   -1.4398   -3.0297 H   0  0  0  0  0  0  0  0  0  0  0  0
    2.2450    0.3301   -3.1621 H   0  0  0  0  0  0  0  0  0  0  0  0
   -0.1885   -1.0380   -4.1404 H   0  0  0  0  0  0  0  0  0  0  0  0
    0.5171    0.6091   -4.5196 H   0  0  0  0  0  0  0  0  0  0  0  0
   -1.7918    0.2600   -3.0782 H   0  0  0  0  0  0  0  0  0  0  0  0
   -0.5852    1.5916   -2.6361 H   0  0  0  0  0  0  0  0  0  0  0  0
   -0.8678    0.2756   -0.5968 H   0  0  0  0  0  0  0  0  0  0  0  0
   -2.5182   -3.8531   -0.5092 H   0  0  0  0  0  0  0  0  0  0  0  0
   -2.4931   -3.8036   -2.3404 H   0  0  0  0  0  0  0  0  0  0  0  0
   -4.8174   -3.7335   -2.1527 H   0  0  0  0  0  0  0  0  0  0  0  0
   -4.7860   -3.3565   -0.4056 H   0  0  0  0  0  0  0  0  0  0  0  0
   -4.4585   -1.4525   -2.7099 H   0  0  0  0  0  0  0  0  0  0  0  0
   -5.4766   -1.2784   -1.2542 H   0  0  0  0  0  0  0  0  0  0  0  0
   -3.1559   -0.0203   -1.1942 H   0  0  0  0  0  0  0  0  0  0  0  0
   -4.0237    0.0239    3.2372 H   0  0  0  0  0  0  0  0  0  0  0  0
   -5.2871   -1.1647    2.8759 H   0  0  0  0  0  0  0  0  0  0  0  0
   -6.9199    0.3977    3.0677 H   0  0  0  0  0  0  0  0  0  0  0  0
   -5.6686    1.6676    3.3235 H   0  0  0  0  0  0  0  0  0  0  0  0
   -6.5025    2.3210    1.1360 H   0  0  0  0  0  0  0  0  0  0  0  0
   -7.0582    0.6404    0.8310 H   0  0  0  0  0  0  0  0  0  0  0  0
   -5.1158    0.9069   -0.5337 H   0  0  0  0  0  0  0  0  0  0  0  0
   -3.8123    4.1578    0.7435 H   0  0  0  0  0  0  0  0  0  0  0  0
  1  2  1  0
  2  3  1  0
  3  4  1  0
  4  5  2  0
  5  6  1  0
  6  7  1  0
  7  8  2  0
  8  9  1  0
  9 10  2  0
 10 11  1  0
 11 12  2  0
  2 13  1  0
 13 14  2  0
 13 15  1  0
 15 16  1  0
 16 17  1  0
 17 18  1  0
 18 19  1  0
 19 20  1  0
 20 21  2  0
 20 22  1  0
 22 23  1  0
 23 24  1  0
 24 25  1  0
 25 26  1  0
 26 27  1  0
 27 28  2  0
 27 29  1  0
 29 30  1  0
 30 31  1  0
 31 32  1  0
 32 33  1  0
 33 34  1  0
 34 35  1  0
 34 36  2  0
 12  4  1  0
 19 15  1  0
 26 22  1  0
 33 29  1  0
 12  7  1  0
  1 37  1  0
  1 38  1  0
  2 39  1  1
  3 40  1  0
  3 41  1  0
  5 42  1  0
  6 43  1  0
  8 44  1  0
  9 45  1  0
 10 46  1  0
 11 47  1  0
 16 48  1  0
 16 49  1  0
 17 50  1  0
 17 51  1  0
 18 52  1  0
 18 53  1  0
 19 54  1  1
 23 55  1  0
 23 56  1  0
 24 57  1  0
 24 58  1  0
 25 59  1  0
 25 60  1  0
 26 61  1  6
 30 62  1  0
 30 63  1  0
 31 64  1  0
 31 65  1  0
 32 66  1  0
 32 67  1  0
 33 68  1  6
 35 69  1  0
M  END
$$$$
[H]c1nc(Cl)c([H])c([H])c1C(=O)N1C([H])([H])C2([H])C([H])([H])N([H])C([H])([H])C([H])(C1([H])[H])C2([H])[H]
     RDKit          3D

 34 36  0  0  0  0  0  0  0  0999 V2000
    6.7408    1.1101    0.3521 Cl  0  0  0  0  0  0  0  0  0  0  0  0
    5.1097    0.4954    0.2304 C   0  0  0  0  0  0  0  0  0  0  0  0
    4.8966   -0.7492   -0.2997 C   0  0  0  0  0  0  0  0  0  0  0  0
    3.6151   -1.2423   -0.3992 C   0  0  0  0  0  0  0  0  0  0  0  0
    2.4855   -0.5222    0.0231 C   0  0  0  0  0  0  0  0  0  0  0  0
    2.7593    0.7108    0.5411 C   0  0  0  0  0  0  0  0  0  0  0  0
    4.0399    1.1918    0.6360 N   0  0  0  0  0  0  0  0  0  0  0  0
    1.1856   -1.1289   -0.1711 C   0  0  0  0  0  0  0  0  0  0  0  0
    1.1740   -2.2336   -0.8918 O   0  0  0  0  0  0  0  0  0  0  0  0
   -0.0689   -0.7529    0.2704 N   0  0  0  0  0  0  0  0  0  0  0  0
   -1.2182   -1.6000   -0.1868 C   0  0  0  0  0  0  0  0  0  0  0  0
   -2.2560   -0.6523   -0.7672 C   0  0  0  0  0  0  0  0  0  0  0  0
   -3.4165   -0.4076    0.1366 C   0  0  0  0  0  0  0  0  0  0  0  0
   -3.6576    0.9506    0.4982 N   0  0  0  0  0  0  0  0  0  0  0  0
   -2.5307    1.7113    0.9314 C   0  0  0  0  0  0  0  0  0  0  0  0
   -1.2473    1.3283    0.2425 C   0  0  0  0  0  0  0  0  0  0  0  0
   -1.5620    0.6579   -1.0860 C   0  0  0  0  0  0  0  0  0  0  0  0
   -0.5233    0.3002    1.1263 C   0  0  0  0  0  0  0  0  0  0  0  0
    5.7481   -1.3302   -0.6349 H   0  0  0  0  0  0  0  0  0  0  0  0
    3.5236   -2.2261   -0.8244 H   0  0  0  0  0  0  0  0  0  0  0  0
    1.9561    1.3510    0.8678 H   0  0  0  0  0  0  0  0  0  0  0  0
   -1.6412   -2.0016    0.7525 H   0  0  0  0  0  0  0  0  0  0  0  0
   -0.9006   -2.3942   -0.8467 H   0  0  0  0  0  0  0  0  0  0  0  0
   -2.5688   -1.1068   -1.7394 H   0  0  0  0  0  0  0  0  0  0  0  0
   -3.3998   -1.1075    1.0244 H   0  0  0  0  0  0  0  0  0  0  0  0
   -4.3453   -0.7438   -0.4178 H   0  0  0  0  0  0  0  0  0  0  0  0
   -4.2995    1.4584   -0.1436 H   0  0  0  0  0  0  0  0  0  0  0  0
   -2.7227    2.7836    0.6919 H   0  0  0  0  0  0  0  0  0  0  0  0
   -2.3982    1.6901    2.0492 H   0  0  0  0  0  0  0  0  0  0  0  0
   -0.5669    2.1708    0.0306 H   0  0  0  0  0  0  0  0  0  0  0  0
   -2.1526    1.3220   -1.7199 H   0  0  0  0  0  0  0  0  0  0  0  0
   -0.5869    0.4347   -1.5576 H   0  0  0  0  0  0  0  0  0  0  0  0
    0.1580    0.7245    1.8401 H   0  0  0  0  0  0  0  0  0  0  0  0
   -1.3293   -0.1922    1.7911 H   0  0  0  0  0  0  0  0  0  0  0  0
  1  2  1  0
  2  3  2  0
  3  4  1  0
  4  5  2  0
  5  6  1  0
  6  7  2  0
  5  8  1  0
  8  9  2  0
  8 10  1  0
 10 11  1  0
 11 12  1  0
 12 13  1  0
 13 14  1  0
 14 15  1  0
 15 16  1  0
 16 17  1  0
 16 18  1  0
  7  2  1  0
 18 10  1  0
 17 12  1  0
  3 19  1  0
  4 20  1  0
  6 21  1  0
 11 22  1  0
 11 23  1  0
 12 24  1  0
 13 25  1  0
 13 26  1  0
 14 27  1  0
 15 28  1  0
 15 29  1  0
 16 30  1  0
 17 31  1  0
 17 32  1  0
 18 33  1  0
 18 34  1  0
M  END
$$$$
[H]c1c([H])c(C(=O)N2C([H])([H])C([H])([H])N(C3([H])C([H])([H])C([H])([H])N(S(=O)(=O)c4c([H])c([H])c(OC([H])([H])[H])c([H])c4[H])C([H])([H])C3([H])[H])C([H])([H])C2([H])[H])c([H])c([H])c1Cl
     RDKit          3D

 60 63  0  0  0  0  0  0  0  0999 V2000
   -8.6461    0.7511    1.4546 C   0  0  0  0  0  0  0  0  0  0  0  0
   -7.8035    1.7683    0.9562 O   0  0  0  0  0  0  0  0  0  0  0  0
   -6.7247    1.4106    0.1666 C   0  0  0  0  0  0  0  0  0  0  0  0
   -5.8754    2.3676   -0.3422 C   0  0  0  0  0  0  0  0  0  0  0  0
   -4.7972    2.0385   -1.1284 C   0  0  0  0  0  0  0  0  0  0  0  0
   -4.5275    0.7336   -1.4366 C   0  0  0  0  0  0  0  0  0  0  0  0
   -5.3550   -0.2524   -0.9459 C   0  0  0  0  0  0  0  0  0  0  0  0
   -6.4312    0.0965   -0.1590 C   0  0  0  0  0  0  0  0  0  0  0  0
   -3.1563    0.3000   -2.4356 S   0  0  0  0  0  0  0  0  0  0  0  0
   -3.4829   -0.8640   -3.2943 O   0  0  0  0  0  0  0  0  0  0  0  0
   -2.8952    1.4811   -3.3477 O   0  0  0  0  0  0  0  0  0  0  0  0
   -1.8105    0.0199   -1.4180 N   0  0  0  0  0  0  0  0  0  0  0  0
   -1.4023    1.1468   -0.6547 C   0  0  0  0  0  0  0  0  0  0  0  0
   -0.7888    0.7388    0.6701 C   0  0  0  0  0  0  0  0  0  0  0  0
    0.1863   -0.3699    0.4266 C   0  0  0  0  0  0  0  0  0  0  0  0
   -0.6525   -1.5903    0.0267 C   0  0  0  0  0  0  0  0  0  0  0  0
   -1.9173   -1.2011   -0.6673 C   0  0  0  0  0  0  0  0  0  0  0  0
    1.0359   -0.6982    1.5381 N   0  0  0  0  0  0  0  0  0  0  0  0
    1.8878    0.3660    1.8952 C   0  0  0  0  0  0  0  0  0  0  0  0
    3.2392    0.3794    1.1739 C   0  0  0  0  0  0  0  0  0  0  0  0
    3.8502   -0.9014    1.1673 N   0  0  0  0  0  0  0  0  0  0  0  0
    3.1028   -1.9596    1.8829 C   0  0  0  0  0  0  0  0  0  0  0  0
    1.7283   -1.9348    1.2308 C   0  0  0  0  0  0  0  0  0  0  0  0
    5.0417   -1.2539    0.5746 C   0  0  0  0  0  0  0  0  0  0  0  0
    5.3355   -2.5349    0.7555 O   0  0  0  0  0  0  0  0  0  0  0  0
    6.0179   -0.5258   -0.1892 C   0  0  0  0  0  0  0  0  0  0  0  0
    5.9580    0.7886   -0.5248 C   0  0  0  0  0  0  0  0  0  0  0  0
    6.9584    1.4420   -1.2790 C   0  0  0  0  0  0  0  0  0  0  0  0
    8.0443    0.7460   -1.7025 C   0  0  0  0  0  0  0  0  0  0  0  0
    9.2909    1.5349   -2.6369 Cl  0  0  0  0  0  0  0  0  0  0  0  0
    8.1477   -0.5842   -1.3874 C   0  0  0  0  0  0  0  0  0  0  0  0
    7.1605   -1.2057   -0.6496 C   0  0  0  0  0  0  0  0  0  0  0  0
   -9.5455    1.1704    1.9568 H   0  0  0  0  0  0  0  0  0  0  0  0
   -8.0558    0.1278    2.1563 H   0  0  0  0  0  0  0  0  0  0  0  0
   -8.9794    0.0665    0.6320 H   0  0  0  0  0  0  0  0  0  0  0  0
   -6.0674    3.4219   -0.1110 H   0  0  0  0  0  0  0  0  0  0  0  0
   -4.1554    2.8026   -1.5091 H   0  0  0  0  0  0  0  0  0  0  0  0
   -5.1910   -1.2947   -1.1556 H   0  0  0  0  0  0  0  0  0  0  0  0
   -7.1123   -0.6638    0.2497 H   0  0  0  0  0  0  0  0  0  0  0  0
   -2.2334    1.8413   -0.4073 H   0  0  0  0  0  0  0  0  0  0  0  0
   -0.6741    1.7498   -1.2324 H   0  0  0  0  0  0  0  0  0  0  0  0
   -1.6060    0.3014    1.2975 H   0  0  0  0  0  0  0  0  0  0  0  0
   -0.3989    1.6471    1.1171 H   0  0  0  0  0  0  0  0  0  0  0  0
    0.8235   -0.1132   -0.4644 H   0  0  0  0  0  0  0  0  0  0  0  0
   -0.9230   -2.1175    0.9657 H   0  0  0  0  0  0  0  0  0  0  0  0
   -0.0498   -2.3176   -0.5625 H   0  0  0  0  0  0  0  0  0  0  0  0
   -2.7786   -1.1812    0.0296 H   0  0  0  0  0  0  0  0  0  0  0  0
   -2.1670   -2.0135   -1.4056 H   0  0  0  0  0  0  0  0  0  0  0  0
    2.1681    0.2145    2.9815 H   0  0  0  0  0  0  0  0  0  0  0  0
    1.4063    1.3476    1.8598 H   0  0  0  0  0  0  0  0  0  0  0  0
    3.8981    1.1257    1.6332 H   0  0  0  0  0  0  0  0  0  0  0  0
    3.0119    0.6863    0.1373 H   0  0  0  0  0  0  0  0  0  0  0  0
    3.5546   -2.9250    1.6777 H   0  0  0  0  0  0  0  0  0  0  0  0
    3.0433   -1.7602    2.9525 H   0  0  0  0  0  0  0  0  0  0  0  0
    1.1422   -2.7607    1.6734 H   0  0  0  0  0  0  0  0  0  0  0  0
    1.8375   -2.1253    0.1544 H   0  0  0  0  0  0  0  0  0  0  0  0
    5.1507    1.4053   -0.2403 H   0  0  0  0  0  0  0  0  0  0  0  0
    6.8714    2.4945   -1.5253 H   0  0  0  0  0  0  0  0  0  0  0  0
    9.0269   -1.1088   -1.7412 H   0  0  0  0  0  0  0  0  0  0  0  0
    7.2836   -2.2548   -0.4250 H   0  0  0  0  0  0  0  0  0  0  0  0
  1  2  1  0
  2  3  1  0
  3  4  2  0
  4  5  1  0
  5  6  2  0
  6  7  1  0
  7  8  2  0
  6  9  1  0
  9 10  2  0
  9 11  2  0
  9 12  1  0
 12 13  1  0
 13 14  1  0
 14 15  1  0
 15 16  1  0
 16 17  1  0
 15 18  1  0
 18 19  1  0
 19 20  1  0
 20 21  1  0
 21 22  1  0
 22 23  1  0
 21 24  1  0
 24 25  2  0
 24 26  1  0
 26 27  2  0
 27 28  1  0
 28 29  2  0
 29 30  1  0
 29 31  1  0
 31 32  2  0
  8  3  1  0
 17 12  1  0
 23 18  1  0
 32 26  1  0
  1 33  1  0
  1 34  1  0
  1 35  1  0
  4 36  1  0
  5 37  1  0
  7 38  1  0
  8 39  1  0
 13 40  1  0
 13 41  1  0
 14 42  1  0
 14 43  1  0
 15 44  1  0
 16 45  1  0
 16 46  1  0
 17 47  1  0
 17 48  1  0
 19 49  1  0
 19 50  1  0
 20 51  1  0
 20 52  1  0
 22 53  1  0
 22 54  1  0
 23 55  1  0
 23 56  1  0
 27 57  1  0
 28 58  1  0
 31 59  1  0
 32 60  1  0
M  END
$$$$
[H]C([H])=C([H])C(=O)N([H])c1c([H])c([H])c([H])c(-c2c([H])n([H])c3nc([H])c(-c4nc([H])c(C([H])([H])[H])n4[H])c([H])c23)c1Cl
     RDKit          3D

 43 46  0  0  0  0  0  0  0  0999 V2000
   -4.9440   -0.2643   -3.5512 C   0  0  0  0  0  0  0  0  0  0  0  0
   -4.8207   -0.4122   -2.0831 C   0  0  0  0  0  0  0  0  0  0  0  0
   -5.9158   -0.4501   -1.2074 C   0  0  0  0  0  0  0  0  0  0  0  0
   -5.3881   -0.5621    0.0381 N   0  0  0  0  0  0  0  0  0  0  0  0
   -4.0390   -0.5949   -0.0327 C   0  0  0  0  0  0  0  0  0  0  0  0
   -3.7201   -0.5033   -1.3312 N   0  0  0  0  0  0  0  0  0  0  0  0
   -3.1413   -0.6891    1.1081 C   0  0  0  0  0  0  0  0  0  0  0  0
   -3.5530   -0.7620    2.4123 C   0  0  0  0  0  0  0  0  0  0  0  0
   -2.6929   -0.8229    3.4731 N   0  0  0  0  0  0  0  0  0  0  0  0
   -1.3536   -0.8122    3.2557 C   0  0  0  0  0  0  0  0  0  0  0  0
   -0.2626   -0.8370    4.0479 N   0  0  0  0  0  0  0  0  0  0  0  0
    0.8433   -0.7838    3.2739 C   0  0  0  0  0  0  0  0  0  0  0  0
    0.4901   -0.7226    1.9508 C   0  0  0  0  0  0  0  0  0  0  0  0
    1.3153   -0.6771    0.7563 C   0  0  0  0  0  0  0  0  0  0  0  0
    1.0881   -1.6022   -0.2656 C   0  0  0  0  0  0  0  0  0  0  0  0
    1.8721   -1.5819   -1.3939 C   0  0  0  0  0  0  0  0  0  0  0  0
    2.9001   -0.6408   -1.5344 C   0  0  0  0  0  0  0  0  0  0  0  0
    3.1474    0.2680   -0.5663 C   0  0  0  0  0  0  0  0  0  0  0  0
    4.1489    1.2931   -0.6163 N   0  0  0  0  0  0  0  0  0  0  0  0
    5.0988    1.5133   -1.6019 C   0  0  0  0  0  0  0  0  0  0  0  0
    5.1833    0.7826   -2.6070 O   0  0  0  0  0  0  0  0  0  0  0  0
    6.0334    2.6316   -1.4753 C   0  0  0  0  0  0  0  0  0  0  0  0
    6.0762    3.4927   -0.5023 C   0  0  0  0  0  0  0  0  0  0  0  0
    2.3340    0.2209    0.5680 C   0  0  0  0  0  0  0  0  0  0  0  0
    2.5607    1.3641    1.9077 Cl  0  0  0  0  0  0  0  0  0  0  0  0
   -0.8906   -0.7408    1.9517 C   0  0  0  0  0  0  0  0  0  0  0  0
   -1.7623   -0.6796    0.8846 C   0  0  0  0  0  0  0  0  0  0  0  0
   -4.1388   -0.7033   -4.1371 H   0  0  0  0  0  0  0  0  0  0  0  0
   -5.9278   -0.7292   -3.8433 H   0  0  0  0  0  0  0  0  0  0  0  0
   -5.0405    0.8360   -3.7485 H   0  0  0  0  0  0  0  0  0  0  0  0
   -6.9499   -0.3969   -1.5216 H   0  0  0  0  0  0  0  0  0  0  0  0
   -2.7303   -0.5067   -1.6925 H   0  0  0  0  0  0  0  0  0  0  0  0
   -4.6107   -0.7681    2.6162 H   0  0  0  0  0  0  0  0  0  0  0  0
   -0.3048   -0.8875    5.0855 H   0  0  0  0  0  0  0  0  0  0  0  0
    1.8810   -0.7880    3.6435 H   0  0  0  0  0  0  0  0  0  0  0  0
    0.2890   -2.3371   -0.1600 H   0  0  0  0  0  0  0  0  0  0  0  0
    1.7129   -2.2942   -2.2025 H   0  0  0  0  0  0  0  0  0  0  0  0
    3.4596   -0.6912   -2.4384 H   0  0  0  0  0  0  0  0  0  0  0  0
    4.1474    1.9671    0.2048 H   0  0  0  0  0  0  0  0  0  0  0  0
    6.7660    2.7206   -2.3140 H   0  0  0  0  0  0  0  0  0  0  0  0
    5.4192    3.4852    0.3404 H   0  0  0  0  0  0  0  0  0  0  0  0
    6.8323    4.2919   -0.5318 H   0  0  0  0  0  0  0  0  0  0  0  0
   -1.4121   -0.6260   -0.1331 H   0  0  0  0  0  0  0  0  0  0  0  0
  1  2  1  0
  2  3  2  0
  3  4  1  0
  4  5  2  0
  5  6  1  0
  5  7  1  0
  7  8  2  0
  8  9  1  0
  9 10  2  0
 10 11  1  0
 11 12  1  0
 12 13  2  0
 13 14  1  0
 14 15  2  0
 15 16  1  0
 16 17  2  0
 17 18  1  0
 18 19  1  0
 19 20  1  0
 20 21  2  0
 20 22  1  0
 22 23  2  3
 18 24  2  0
 24 25  1  0
 13 26  1  0
 26 27  2  0
  6  2  1  0
 27  7  1  0
 26 10  1  0
 24 14  1  0
  1 28  1  0
  1 29  1  0
  1 30  1  0
  3 31  1  0
  6 32  1  0
  8 33  1  0
 11 34  1  0
 12 35  1  0
 15 36  1  0
 16 37  1  0
 17 38  1  0
 19 39  1  0
 22 40  1  0
 23 41  1  0
 23 42  1  0
 27 43  1  0
M  END
$$$$
[H]Oc1c([H])c([H])c(/C([H])=C2\C(=O)N(c3c([H])c([H])c(N(C([H])([H])[H])C([H])([H])[H])c([H])c3[H])C(=O)c3c([H])c([H])c([H])c([H])c32)c([H])c1[H]
     RDKit          3D

 49 52  0  0  0  0  0  0  0  0999 V2000
    6.1369    1.7629   -0.8692 C   0  0  0  0  0  0  0  0  0  0  0  0
    5.3893    1.1707    0.2037 N   0  0  0  0  0  0  0  0  0  0  0  0
    5.9855    1.0445    1.5145 C   0  0  0  0  0  0  0  0  0  0  0  0
    4.0739    0.7093    0.0101 C   0  0  0  0  0  0  0  0  0  0  0  0
    3.7626   -0.5744    0.4772 C   0  0  0  0  0  0  0  0  0  0  0  0
    2.4975   -1.0615    0.3113 C   0  0  0  0  0  0  0  0  0  0  0  0
    1.4757   -0.3371   -0.3120 C   0  0  0  0  0  0  0  0  0  0  0  0
    1.7928    0.9138   -0.7609 C   0  0  0  0  0  0  0  0  0  0  0  0
    3.0852    1.4373   -0.6023 C   0  0  0  0  0  0  0  0  0  0  0  0
    0.2039   -0.9684   -0.4472 N   0  0  0  0  0  0  0  0  0  0  0  0
   -1.0029   -0.3260   -0.0499 C   0  0  0  0  0  0  0  0  0  0  0  0
   -0.9594    0.8417    0.4305 O   0  0  0  0  0  0  0  0  0  0  0  0
   -2.3095   -0.9937   -0.1836 C   0  0  0  0  0  0  0  0  0  0  0  0
   -3.3997   -0.3714    0.1379 C   0  0  0  0  0  0  0  0  0  0  0  0
   -3.5064    0.9891    0.6316 C   0  0  0  0  0  0  0  0  0  0  0  0
   -3.8593    1.2812    1.9324 C   0  0  0  0  0  0  0  0  0  0  0  0
   -4.0553    2.5667    2.3912 C   0  0  0  0  0  0  0  0  0  0  0  0
   -3.8982    3.6395    1.5371 C   0  0  0  0  0  0  0  0  0  0  0  0
   -4.0934    4.9196    1.9994 O   0  0  0  0  0  0  0  0  0  0  0  0
   -3.5493    3.3987    0.2446 C   0  0  0  0  0  0  0  0  0  0  0  0
   -3.3617    2.0978   -0.1852 C   0  0  0  0  0  0  0  0  0  0  0  0
   -2.3417   -2.3655   -0.7433 C   0  0  0  0  0  0  0  0  0  0  0  0
   -3.5328   -3.0255   -0.8743 C   0  0  0  0  0  0  0  0  0  0  0  0
   -3.5343   -4.3348   -1.4040 C   0  0  0  0  0  0  0  0  0  0  0  0
   -2.3865   -4.9679   -1.7916 C   0  0  0  0  0  0  0  0  0  0  0  0
   -1.2139   -4.2669   -1.6407 C   0  0  0  0  0  0  0  0  0  0  0  0
   -1.1564   -2.9897   -1.1286 C   0  0  0  0  0  0  0  0  0  0  0  0
    0.0873   -2.2771   -0.9732 C   0  0  0  0  0  0  0  0  0  0  0  0
    1.1384   -2.8660   -1.3321 O   0  0  0  0  0  0  0  0  0  0  0  0
    7.2147    1.4567   -0.8554 H   0  0  0  0  0  0  0  0  0  0  0  0
    6.1240    2.8678   -0.8921 H   0  0  0  0  0  0  0  0  0  0  0  0
    5.7354    1.4361   -1.8739 H   0  0  0  0  0  0  0  0  0  0  0  0
    5.2493    1.5205    2.2291 H   0  0  0  0  0  0  0  0  0  0  0  0
    6.9730    1.5372    1.6106 H   0  0  0  0  0  0  0  0  0  0  0  0
    6.0152   -0.0228    1.7952 H   0  0  0  0  0  0  0  0  0  0  0  0
    4.5146   -1.1935    0.9674 H   0  0  0  0  0  0  0  0  0  0  0  0
    2.2430   -2.0699    0.6836 H   0  0  0  0  0  0  0  0  0  0  0  0
    1.0165    1.5177   -1.2502 H   0  0  0  0  0  0  0  0  0  0  0  0
    3.3115    2.4373   -0.9662 H   0  0  0  0  0  0  0  0  0  0  0  0
   -4.3458   -0.9546    0.0188 H   0  0  0  0  0  0  0  0  0  0  0  0
   -3.9842    0.4386    2.6099 H   0  0  0  0  0  0  0  0  0  0  0  0
   -4.3353    2.8049    3.4175 H   0  0  0  0  0  0  0  0  0  0  0  0
   -5.0236    5.3028    1.9352 H   0  0  0  0  0  0  0  0  0  0  0  0
   -3.4080    4.1805   -0.4857 H   0  0  0  0  0  0  0  0  0  0  0  0
   -3.0875    1.9034   -1.2176 H   0  0  0  0  0  0  0  0  0  0  0  0
   -4.4836   -2.6065   -0.5941 H   0  0  0  0  0  0  0  0  0  0  0  0
   -4.4731   -4.8593   -1.5080 H   0  0  0  0  0  0  0  0  0  0  0  0
   -2.4266   -5.9871   -2.2022 H   0  0  0  0  0  0  0  0  0  0  0  0
   -0.2979   -4.7566   -1.9451 H   0  0  0  0  0  0  0  0  0  0  0  0
  1  2  1  0
  2  3  1  0
  2  4  1  0
  4  5  2  0
  5  6  1  0
  6  7  2  0
  7  8  1  0
  8  9  2  0
  7 10  1  0
 10 11  1  0
 11 12  2  0
 11 13  1  0
 13 14  2  0
 14 15  1  0
 15 16  2  0
 16 17  1  0
 17 18  2  0
 18 19  1  0
 18 20  1  0
 20 21  2  0
 13 22  1  0
 22 23  2  0
 23 24  1  0
 24 25  2  0
 25 26  1  0
 26 27  2  0
 27 28  1  0
 28 29  2  0
  9  4  1  0
 28 10  1  0
 21 15  1  0
 27 22  1  0
  1 30  1  0
  1 31  1  0
  1 32  1  0
  3 33  1  0
  3 34  1  0
  3 35  1  0
  5 36  1  0
  6 37  1  0
  8 38  1  0
  9 39  1  0
 14 40  1  0
 16 41  1  0
 17 42  1  0
 19 43  1  0
 20 44  1  0
 21 45  1  0
 23 46  1  0
 24 47  1  0
 25 48  1  0
 26 49  1  0
M  END
$$$$
[H]O[C@]1([H])[C@@]([H])(C([H])([H])OS(=O)(=O)N([H])C(=O)[C@@]([H])(N([H])[H])C([H])([H])C([H])(C([H])([H])[H])C([H])([H])[H])O[C@@]([H])(n2c([H])c([H])c3c([H])c([H])c([H])c([H])c32)[C@]1([H])O[H]
     RDKit          3D

 57 59  0  0  0  0  0  0  0  0999 V2000
    7.9885   -1.0164   -0.4067 C   0  0  0  0  0  0  0  0  0  0  0  0
    6.5436   -0.5937   -0.7095 C   0  0  0  0  0  0  0  0  0  0  0  0
    6.4710    0.8583   -0.2715 C   0  0  0  0  0  0  0  0  0  0  0  0
    5.5743   -1.4344    0.0373 C   0  0  0  0  0  0  0  0  0  0  0  0
    4.1290   -1.1669   -0.1633 C   0  0  2  0  0  0  0  0  0  0  0  0
    3.7016   -1.3007   -1.5371 N   0  0  0  0  0  0  0  0  0  0  0  0
    3.5767    0.0197    0.5139 C   0  0  0  0  0  0  0  0  0  0  0  0
    3.8529    0.2967    1.7203 O   0  0  0  0  0  0  0  0  0  0  0  0
    2.6845    0.9474   -0.1427 N   0  0  0  0  0  0  0  0  0  0  0  0
    2.0456    2.3219    0.6452 S   0  0  0  0  0  0  0  0  0  0  0  0
    2.6081    2.3723    2.0448 O   0  0  0  0  0  0  0  0  0  0  0  0
    2.5126    3.5510   -0.1040 O   0  0  0  0  0  0  0  0  0  0  0  0
    0.3649    2.2930    0.7569 O   0  0  0  0  0  0  0  0  0  0  0  0
   -0.0350    1.0184    1.0740 C   0  0  0  0  0  0  0  0  0  0  0  0
   -1.5014    0.8325    1.2172 C   0  0  1  0  0  0  0  0  0  0  0  0
   -2.2320    1.1407    0.0439 O   0  0  0  0  0  0  0  0  0  0  0  0
   -3.5093    0.6463    0.2992 C   0  0  2  0  0  0  0  0  0  0  0  0
   -3.3428   -0.6067    1.1231 C   0  0  2  0  0  0  0  0  0  0  0  0
   -3.9310   -0.4531    2.3759 O   0  0  0  0  0  0  0  0  0  0  0  0
   -1.8220   -0.6666    1.2840 C   0  0  2  0  0  0  0  0  0  0  0  0
   -1.4325   -1.2164    2.4860 O   0  0  0  0  0  0  0  0  0  0  0  0
   -4.2490    0.3166   -0.8952 N   0  0  0  0  0  0  0  0  0  0  0  0
   -3.8161   -0.0843   -2.1038 C   0  0  0  0  0  0  0  0  0  0  0  0
   -4.8982   -0.2819   -2.9320 C   0  0  0  0  0  0  0  0  0  0  0  0
   -6.0431    0.0047   -2.2187 C   0  0  0  0  0  0  0  0  0  0  0  0
   -7.3790   -0.0289   -2.5672 C   0  0  0  0  0  0  0  0  0  0  0  0
   -8.3428    0.3173   -1.6302 C   0  0  0  0  0  0  0  0  0  0  0  0
   -7.9126    0.6844   -0.3750 C   0  0  0  0  0  0  0  0  0  0  0  0
   -6.5804    0.7151   -0.0373 C   0  0  0  0  0  0  0  0  0  0  0  0
   -5.5936    0.3691   -0.9686 C   0  0  0  0  0  0  0  0  0  0  0  0
    8.6571   -0.1427   -0.5365 H   0  0  0  0  0  0  0  0  0  0  0  0
    8.1029   -1.3863    0.6136 H   0  0  0  0  0  0  0  0  0  0  0  0
    8.3273   -1.8072   -1.1305 H   0  0  0  0  0  0  0  0  0  0  0  0
    6.4289   -0.6207   -1.7970 H   0  0  0  0  0  0  0  0  0  0  0  0
    6.4817    0.9170    0.8329 H   0  0  0  0  0  0  0  0  0  0  0  0
    5.5801    1.3024   -0.7237 H   0  0  0  0  0  0  0  0  0  0  0  0
    7.3674    1.3943   -0.7000 H   0  0  0  0  0  0  0  0  0  0  0  0
    5.8458   -2.5099   -0.1743 H   0  0  0  0  0  0  0  0  0  0  0  0
    5.7541   -1.3577    1.1561 H   0  0  0  0  0  0  0  0  0  0  0  0
    3.6033   -2.0628    0.3533 H   0  0  0  0  0  0  0  0  0  0  0  0
    4.3527   -1.9852   -1.9964 H   0  0  0  0  0  0  0  0  0  0  0  0
    2.7549   -1.6882   -1.5707 H   0  0  0  0  0  0  0  0  0  0  0  0
    2.4535    0.7262   -1.1309 H   0  0  0  0  0  0  0  0  0  0  0  0
    0.4247    0.2671    0.3902 H   0  0  0  0  0  0  0  0  0  0  0  0
    0.4155    0.7918    2.0798 H   0  0  0  0  0  0  0  0  0  0  0  0
   -1.9470    1.2812    2.0995 H   0  0  0  0  0  0  0  0  0  0  0  0
   -4.1171    1.3645    0.8883 H   0  0  0  0  0  0  0  0  0  0  0  0
   -3.7163   -1.5239    0.5975 H   0  0  0  0  0  0  0  0  0  0  0  0
   -3.2839   -0.6525    3.0858 H   0  0  0  0  0  0  0  0  0  0  0  0
   -1.3395   -1.1631    0.4190 H   0  0  0  0  0  0  0  0  0  0  0  0
   -1.8527   -2.1125    2.5487 H   0  0  0  0  0  0  0  0  0  0  0  0
   -2.7775   -0.2232   -2.3655 H   0  0  0  0  0  0  0  0  0  0  0  0
   -4.8862   -0.6084   -3.9778 H   0  0  0  0  0  0  0  0  0  0  0  0
   -7.7379   -0.3141   -3.5459 H   0  0  0  0  0  0  0  0  0  0  0  0
   -9.4037    0.2970   -1.8887 H   0  0  0  0  0  0  0  0  0  0  0  0
   -8.6842    0.9563    0.3586 H   0  0  0  0  0  0  0  0  0  0  0  0
   -6.2361    1.0054    0.9557 H   0  0  0  0  0  0  0  0  0  0  0  0
  1  2  1  0
  2  3  1  0
  2  4  1  0
  4  5  1  0
  5  6  1  0
  5  7  1  0
  7  8  2  0
  7  9  1  0
  9 10  1  0
 10 11  2  0
 10 12  2  0
 10 13  1  0
 13 14  1  0
 14 15  1  0
 15 16  1  0
 16 17  1  0
 17 18  1  0
 18 19  1  0
 18 20  1  0
 20 21  1  0
 17 22  1  0
 22 23  1  0
 23 24  2  0
 24 25  1  0
 25 26  2  0
 26 27  1  0
 27 28  2  0
 28 29  1  0
 29 30  2  0
 20 15  1  0
 30 22  1  0
 30 25  1  0
  1 31  1  0
  1 32  1  0
  1 33  1  0
  2 34  1  0
  3 35  1  0
  3 36  1  0
  3 37  1  0
  4 38  1  0
  4 39  1  0
  5 40  1  1
  6 41  1  0
  6 42  1  0
  9 43  1  0
 14 44  1  0
 14 45  1  0
 15 46  1  1
 17 47  1  1
 18 48  1  6
 19 49  1  0
 20 50  1  6
 21 51  1  0
 23 52  1  0
 24 53  1  0
 26 54  1  0
 27 55  1  0
 28 56  1  0
 29 57  1  0
M  END
$$$$
[H]c1nc(C(=O)[C@@]([H])(N([H])C(=O)c2c([H])c([H])c(N([H])S(=O)(=O)c3c([H])c([H])c([H])c(Br)c3[H])c(-c3sc([H])c(C(=O)OC([H])([H])[H])c3[H])c2[H])C([H])([H])C([H])(C([H])([H])[H])C([H])([H])[H])sc1[H]
     RDKit          3D

 67 70  0  0  0  0  0  0  0  0999 V2000
   -2.9049    6.7795    3.0982 C   0  0  0  0  0  0  0  0  0  0  0  0
   -2.9290    5.4786    2.5485 O   0  0  0  0  0  0  0  0  0  0  0  0
   -4.1330    4.9137    2.1655 C   0  0  0  0  0  0  0  0  0  0  0  0
   -5.1596    5.6055    2.3330 O   0  0  0  0  0  0  0  0  0  0  0  0
   -4.2173    3.5451    1.5780 C   0  0  0  0  0  0  0  0  0  0  0  0
   -5.4344    3.0303    1.2169 C   0  0  0  0  0  0  0  0  0  0  0  0
   -5.0275    1.4927    0.6123 S   0  0  0  0  0  0  0  0  0  0  0  0
   -3.3459    1.5281    0.8240 C   0  0  0  0  0  0  0  0  0  0  0  0
   -3.1427    2.7724    1.3758 C   0  0  0  0  0  0  0  0  0  0  0  0
   -2.2859    0.5246    0.5244 C   0  0  0  0  0  0  0  0  0  0  0  0
   -0.9700    0.8530    0.7022 C   0  0  0  0  0  0  0  0  0  0  0  0
    0.0802   -0.0128    0.4187 C   0  0  0  0  0  0  0  0  0  0  0  0
   -0.2914   -1.2440   -0.0608 C   0  0  0  0  0  0  0  0  0  0  0  0
   -1.6060   -1.6027   -0.2482 C   0  0  0  0  0  0  0  0  0  0  0  0
   -2.6555   -0.7042    0.0488 C   0  0  0  0  0  0  0  0  0  0  0  0
   -3.9961   -1.1542   -0.1196 N   0  0  0  0  0  0  0  0  0  0  0  0
   -4.4742   -2.0620   -1.5220 S   0  0  0  0  0  0  0  0  0  0  0  0
   -3.3659   -2.1069   -2.5140 O   0  0  0  0  0  0  0  0  0  0  0  0
   -5.6488   -1.3847   -2.1876 O   0  0  0  0  0  0  0  0  0  0  0  0
   -4.9753   -3.6667   -1.1205 C   0  0  0  0  0  0  0  0  0  0  0  0
   -4.0858   -4.6986   -1.0908 C   0  0  0  0  0  0  0  0  0  0  0  0
   -4.4892   -5.9704   -0.7710 C   0  0  0  0  0  0  0  0  0  0  0  0
   -5.7944   -6.2453   -0.4717 C   0  0  0  0  0  0  0  0  0  0  0  0
   -6.7052   -5.2136   -0.4975 C   0  0  0  0  0  0  0  0  0  0  0  0
   -8.5571   -5.5060   -0.0948 Br  0  0  0  0  0  0  0  0  0  0  0  0
   -6.2971   -3.9440   -0.8177 C   0  0  0  0  0  0  0  0  0  0  0  0
    1.4620    0.3665    0.6314 C   0  0  0  0  0  0  0  0  0  0  0  0
    1.7080    1.1249    1.6292 O   0  0  0  0  0  0  0  0  0  0  0  0
    2.5112   -0.0443   -0.1799 N   0  0  0  0  0  0  0  0  0  0  0  0
    3.8643    0.3713    0.0978 C   0  0  1  0  0  0  0  0  0  0  0  0
    4.8364   -0.7215    0.1682 C   0  0  0  0  0  0  0  0  0  0  0  0
    5.0627   -1.6088   -0.9828 C   0  0  0  0  0  0  0  0  0  0  0  0
    5.5601   -0.9683   -2.2511 C   0  0  0  0  0  0  0  0  0  0  0  0
    6.1957   -2.5709   -0.5573 C   0  0  0  0  0  0  0  0  0  0  0  0
    4.2281    1.5281   -0.7467 C   0  0  0  0  0  0  0  0  0  0  0  0
    3.3990    1.9888   -1.6117 O   0  0  0  0  0  0  0  0  0  0  0  0
    5.5144    2.2376   -0.6827 C   0  0  0  0  0  0  0  0  0  0  0  0
    6.5635    2.0358    0.0842 N   0  0  0  0  0  0  0  0  0  0  0  0
    7.6138    2.7771   -0.0074 C   0  0  0  0  0  0  0  0  0  0  0  0
    7.5960    3.7901   -0.9390 C   0  0  0  0  0  0  0  0  0  0  0  0
    6.0403    3.5927   -1.6247 S   0  0  0  0  0  0  0  0  0  0  0  0
   -3.2320    6.7710    4.1710 H   0  0  0  0  0  0  0  0  0  0  0  0
   -3.5302    7.4873    2.4920 H   0  0  0  0  0  0  0  0  0  0  0  0
   -1.8672    7.2101    3.0655 H   0  0  0  0  0  0  0  0  0  0  0  0
   -6.4250    3.5200    1.3074 H   0  0  0  0  0  0  0  0  0  0  0  0
   -2.1111    3.0926    1.6362 H   0  0  0  0  0  0  0  0  0  0  0  0
   -0.6961    1.8286    1.0814 H   0  0  0  0  0  0  0  0  0  0  0  0
    0.4610   -1.9892   -0.3117 H   0  0  0  0  0  0  0  0  0  0  0  0
   -1.8788   -2.5836   -0.6257 H   0  0  0  0  0  0  0  0  0  0  0  0
   -4.7601   -1.0080    0.5773 H   0  0  0  0  0  0  0  0  0  0  0  0
   -3.0377   -4.5607   -1.3155 H   0  0  0  0  0  0  0  0  0  0  0  0
   -3.7486   -6.7793   -0.7564 H   0  0  0  0  0  0  0  0  0  0  0  0
   -6.1606   -7.2267   -0.2155 H   0  0  0  0  0  0  0  0  0  0  0  0
   -7.0175   -3.1608   -0.8333 H   0  0  0  0  0  0  0  0  0  0  0  0
    2.3349   -0.6573   -0.9952 H   0  0  0  0  0  0  0  0  0  0  0  0
    3.8189    0.8246    1.1511 H   0  0  0  0  0  0  0  0  0  0  0  0
    4.5896   -1.4171    1.0485 H   0  0  0  0  0  0  0  0  0  0  0  0
    5.8453   -0.3268    0.4854 H   0  0  0  0  0  0  0  0  0  0  0  0
    4.2161   -2.3034   -1.2048 H   0  0  0  0  0  0  0  0  0  0  0  0
    6.4971   -0.3898   -2.0421 H   0  0  0  0  0  0  0  0  0  0  0  0
    4.8169   -0.2535   -2.6305 H   0  0  0  0  0  0  0  0  0  0  0  0
    5.8235   -1.7434   -3.0148 H   0  0  0  0  0  0  0  0  0  0  0  0
    6.2257   -3.3875   -1.2980 H   0  0  0  0  0  0  0  0  0  0  0  0
    6.0158   -2.9559    0.4564 H   0  0  0  0  0  0  0  0  0  0  0  0
    7.1668   -2.0356   -0.6618 H   0  0  0  0  0  0  0  0  0  0  0  0
    8.5113    2.6215    0.6283 H   0  0  0  0  0  0  0  0  0  0  0  0
    8.3988    4.5160   -1.1528 H   0  0  0  0  0  0  0  0  0  0  0  0
  1  2  1  0
  2  3  1  0
  3  4  2  0
  3  5  1  0
  5  6  2  0
  6  7  1  0
  7  8  1  0
  8  9  2  0
  8 10  1  0
 10 11  2  0
 11 12  1  0
 12 13  2  0
 13 14  1  0
 14 15  2  0
 15 16  1  0
 16 17  1  0
 17 18  2  0
 17 19  2  0
 17 20  1  0
 20 21  2  0
 21 22  1  0
 22 23  2  0
 23 24  1  0
 24 25  1  0
 24 26  2  0
 12 27  1  0
 27 28  2  0
 27 29  1  0
 29 30  1  0
 30 31  1  0
 31 32  1  0
 32 33  1  0
 32 34  1  0
 30 35  1  0
 35 36  2  0
 35 37  1  0
 37 38  2  0
 38 39  1  0
 39 40  2  0
 40 41  1  0
  9  5  1  0
 15 10  1  0
 26 20  1  0
 41 37  1  0
  1 42  1  0
  1 43  1  0
  1 44  1  0
  6 45  1  0
  9 46  1  0
 11 47  1  0
 13 48  1  0
 14 49  1  0
 16 50  1  0
 21 51  1  0
 22 52  1  0
 23 53  1  0
 26 54  1  0
 29 55  1  0
 30 56  1  1
 31 57  1  0
 31 58  1  0
 32 59  1  0
 33 60  1  0
 33 61  1  0
 33 62  1  0
 34 63  1  0
 34 64  1  0
 34 65  1  0
 39 66  1  0
 40 67  1  0
M  END
$$$$
[H]O[C@]1([H])[C@@]([H])(C([H])([H])OP(=O)(O[H])OP(=O)(O[H])O[H])O[C@@]([H])(n2c([H])nc3c(N([H])[H])nc([H])nc32)[C@]1([H])O[H]
     RDKit          3D

 42 44  0  0  0  0  0  0  0  0999 V2000
   -5.5858    2.7066   -0.5194 N   0  0  0  0  0  0  0  0  0  0  0  0
   -5.1159    1.4760    0.0108 C   0  0  0  0  0  0  0  0  0  0  0  0
   -5.9272    0.4247    0.2437 N   0  0  0  0  0  0  0  0  0  0  0  0
   -5.4161   -0.7101    0.7468 C   0  0  0  0  0  0  0  0  0  0  0  0
   -4.1184   -0.8534    1.0342 N   0  0  0  0  0  0  0  0  0  0  0  0
   -3.2751    0.1579    0.8216 C   0  0  0  0  0  0  0  0  0  0  0  0
   -1.9283    0.3121    1.0108 N   0  0  0  0  0  0  0  0  0  0  0  0
   -1.6612    1.5620    0.6077 C   0  0  0  0  0  0  0  0  0  0  0  0
   -2.7578    2.1980    0.1783 N   0  0  0  0  0  0  0  0  0  0  0  0
   -3.7743    1.3333    0.3060 C   0  0  0  0  0  0  0  0  0  0  0  0
   -1.0158   -0.6848    1.5386 C   0  0  2  0  0  0  0  0  0  0  0  0
    0.2860   -0.2664    1.3491 O   0  0  0  0  0  0  0  0  0  0  0  0
    0.8174   -0.8342    0.2246 C   0  0  2  0  0  0  0  0  0  0  0  0
    1.6152    0.0755   -0.6428 C   0  0  0  0  0  0  0  0  0  0  0  0
    2.6843    0.5569    0.1452 O   0  0  0  0  0  0  0  0  0  0  0  0
    3.6621    1.6040   -0.7381 P   0  0  0  0  0  0  0  0  0  0  0  0
    2.8393    2.0329   -2.1655 O   0  0  0  0  0  0  0  0  0  0  0  0
    4.0290    2.8425    0.0398 O   0  0  0  0  0  0  0  0  0  0  0  0
    5.0668    0.8034   -1.1797 O   0  0  0  0  0  0  0  0  0  0  0  0
    5.7546   -0.0719    0.0759 P   0  0  0  0  0  0  0  0  0  0  0  0
    6.1093   -1.6329   -0.5025 O   0  0  0  0  0  0  0  0  0  0  0  0
    7.1822    0.6553    0.6227 O   0  0  0  0  0  0  0  0  0  0  0  0
    4.8417   -0.2329    1.2544 O   0  0  0  0  0  0  0  0  0  0  0  0
   -0.3642   -1.4766   -0.5192 C   0  0  1  0  0  0  0  0  0  0  0  0
    0.0318   -2.5060   -1.3242 O   0  0  0  0  0  0  0  0  0  0  0  0
   -1.0814   -1.9720    0.7467 C   0  0  1  0  0  0  0  0  0  0  0  0
   -0.2123   -2.8760    1.3444 O   0  0  0  0  0  0  0  0  0  0  0  0
   -5.9591    3.4149    0.1432 H   0  0  0  0  0  0  0  0  0  0  0  0
   -5.5492    2.8757   -1.5432 H   0  0  0  0  0  0  0  0  0  0  0  0
   -6.1422   -1.5102    0.9043 H   0  0  0  0  0  0  0  0  0  0  0  0
   -0.6671    2.0177    0.6238 H   0  0  0  0  0  0  0  0  0  0  0  0
   -1.2008   -0.8631    2.6232 H   0  0  0  0  0  0  0  0  0  0  0  0
    1.4363   -1.7120    0.5620 H   0  0  0  0  0  0  0  0  0  0  0  0
    1.9710   -0.3780   -1.5697 H   0  0  0  0  0  0  0  0  0  0  0  0
    1.0254    0.9763   -0.9057 H   0  0  0  0  0  0  0  0  0  0  0  0
    2.8340    1.2104   -2.7406 H   0  0  0  0  0  0  0  0  0  0  0  0
    6.1433   -1.6184   -1.5091 H   0  0  0  0  0  0  0  0  0  0  0  0
    7.7498   -0.0424    0.9997 H   0  0  0  0  0  0  0  0  0  0  0  0
   -0.9861   -0.7162   -0.9911 H   0  0  0  0  0  0  0  0  0  0  0  0
   -0.6865   -2.6783   -1.9848 H   0  0  0  0  0  0  0  0  0  0  0  0
   -2.0680   -2.3539    0.5546 H   0  0  0  0  0  0  0  0  0  0  0  0
   -0.5867   -3.2466    2.1815 H   0  0  0  0  0  0  0  0  0  0  0  0
  1  2  1  0
  2  3  2  0
  3  4  1  0
  4  5  2  0
  5  6  1  0
  6  7  1  0
  7  8  1  0
  8  9  2  0
  9 10  1  0
  7 11  1  0
 11 12  1  0
 12 13  1  0
 13 14  1  0
 14 15  1  0
 15 16  1  0
 16 17  1  0
 16 18  2  0
 16 19  1  0
 19 20  1  0
 20 21  1  0
 20 22  1  0
 20 23  2  0
 13 24  1  0
 24 25  1  0
 24 26  1  0
 26 27  1  0
 10  2  1  0
 26 11  1  0
 10  6  2  0
  1 28  1  0
  1 29  1  0
  4 30  1  0
  8 31  1  0
 11 32  1  1
 13 33  1  1
 14 34  1  0
 14 35  1  0
 17 36  1  0
 21 37  1  0
 22 38  1  0
 24 39  1  6
 25 40  1  0
 26 41  1  6
 27 42  1  0
M  END
$$$$
[H]c1c([H])c(N2C([H])([H])C([H])([H])OC([H])([H])C2([H])[H])c([H])c([H])c1N([H])C(=O)N1C([H])([H])C([H])([H])N(c2c([H])c([H])c([N+](=O)[O-])c([H])c2[H])C([H])([H])C1([H])[H]
     RDKit          3D

 55 58  0  0  0  0  0  0  0  0999 V2000
   -9.2956   -2.3200   -2.1723 O   0  0  0  0  0  0  0  0  0  0  0  0
   -9.0296   -1.0114   -1.8754 N   0  0  0  0  0  0  0  0  0  0  0  0
   -9.8759   -0.1413   -2.1296 O   0  0  0  0  0  0  0  0  0  0  0  0
   -7.7997   -0.6332   -1.2807 C   0  0  0  0  0  0  0  0  0  0  0  0
   -6.8274   -1.5652   -0.9793 C   0  0  0  0  0  0  0  0  0  0  0  0
   -5.6460   -1.1767   -0.4045 C   0  0  0  0  0  0  0  0  0  0  0  0
   -5.3602    0.1429   -0.0974 C   0  0  0  0  0  0  0  0  0  0  0  0
   -6.3534    1.0620   -0.4098 C   0  0  0  0  0  0  0  0  0  0  0  0
   -7.5486    0.6921   -0.9882 C   0  0  0  0  0  0  0  0  0  0  0  0
   -4.1240    0.5357    0.5066 N   0  0  0  0  0  0  0  0  0  0  0  0
   -3.9046    1.9418    0.6799 C   0  0  0  0  0  0  0  0  0  0  0  0
   -2.4554    2.3280    0.8855 C   0  0  0  0  0  0  0  0  0  0  0  0
   -1.6192    1.1859    1.1174 N   0  0  0  0  0  0  0  0  0  0  0  0
   -2.1815    0.0798    1.8238 C   0  0  0  0  0  0  0  0  0  0  0  0
   -3.2244   -0.5247    0.8841 C   0  0  0  0  0  0  0  0  0  0  0  0
   -0.2826    1.1776    0.6509 C   0  0  0  0  0  0  0  0  0  0  0  0
    0.1625    2.2150    0.0309 O   0  0  0  0  0  0  0  0  0  0  0  0
    0.5877    0.1034    0.8240 N   0  0  0  0  0  0  0  0  0  0  0  0
    1.9327    0.0544    0.3880 C   0  0  0  0  0  0  0  0  0  0  0  0
    2.5221   -1.1963    0.1710 C   0  0  0  0  0  0  0  0  0  0  0  0
    3.8325   -1.3171   -0.2265 C   0  0  0  0  0  0  0  0  0  0  0  0
    4.6482   -0.2247   -0.4370 C   0  0  0  0  0  0  0  0  0  0  0  0
    4.0770    1.0070   -0.2257 C   0  0  0  0  0  0  0  0  0  0  0  0
    2.7316    1.1335    0.1833 C   0  0  0  0  0  0  0  0  0  0  0  0
    5.9975   -0.3361   -0.8639 N   0  0  0  0  0  0  0  0  0  0  0  0
    6.5423   -1.5112   -1.5410 C   0  0  0  0  0  0  0  0  0  0  0  0
    7.6046   -2.0518   -0.5913 C   0  0  0  0  0  0  0  0  0  0  0  0
    8.5759   -1.0383   -0.4968 O   0  0  0  0  0  0  0  0  0  0  0  0
    8.0874    0.0410    0.1937 C   0  0  0  0  0  0  0  0  0  0  0  0
    6.9961    0.7218   -0.6472 C   0  0  0  0  0  0  0  0  0  0  0  0
   -7.0373   -2.5972   -1.2134 H   0  0  0  0  0  0  0  0  0  0  0  0
   -4.8924   -1.9440   -0.1786 H   0  0  0  0  0  0  0  0  0  0  0  0
   -6.2103    2.1142   -0.2008 H   0  0  0  0  0  0  0  0  0  0  0  0
   -8.3310    1.4216   -1.2335 H   0  0  0  0  0  0  0  0  0  0  0  0
   -4.5742    2.3379    1.4486 H   0  0  0  0  0  0  0  0  0  0  0  0
   -4.2115    2.4248   -0.2957 H   0  0  0  0  0  0  0  0  0  0  0  0
   -2.4344    2.9372    1.8354 H   0  0  0  0  0  0  0  0  0  0  0  0
   -2.0777    3.0055    0.0974 H   0  0  0  0  0  0  0  0  0  0  0  0
   -2.8024    0.5099    2.6611 H   0  0  0  0  0  0  0  0  0  0  0  0
   -1.5040   -0.6495    2.2475 H   0  0  0  0  0  0  0  0  0  0  0  0
   -3.7520   -1.3704    1.3948 H   0  0  0  0  0  0  0  0  0  0  0  0
   -2.7660   -0.9253   -0.0423 H   0  0  0  0  0  0  0  0  0  0  0  0
    0.1985   -0.7516    1.3266 H   0  0  0  0  0  0  0  0  0  0  0  0
    1.9013   -2.0629    0.3299 H   0  0  0  0  0  0  0  0  0  0  0  0
    4.2804   -2.3135   -0.3861 H   0  0  0  0  0  0  0  0  0  0  0  0
    4.6636    1.9081   -0.3786 H   0  0  0  0  0  0  0  0  0  0  0  0
    2.3868    2.1523    0.3406 H   0  0  0  0  0  0  0  0  0  0  0  0
    6.9998   -1.1645   -2.4929 H   0  0  0  0  0  0  0  0  0  0  0  0
    5.7399   -2.2347   -1.7102 H   0  0  0  0  0  0  0  0  0  0  0  0
    8.0299   -2.9950   -0.9389 H   0  0  0  0  0  0  0  0  0  0  0  0
    7.1332   -2.1138    0.4030 H   0  0  0  0  0  0  0  0  0  0  0  0
    7.5569   -0.3310    1.1045 H   0  0  0  0  0  0  0  0  0  0  0  0
    8.8708    0.7617    0.4246 H   0  0  0  0  0  0  0  0  0  0  0  0
    7.4578    0.9050   -1.6352 H   0  0  0  0  0  0  0  0  0  0  0  0
    6.6044    1.6013   -0.1475 H   0  0  0  0  0  0  0  0  0  0  0  0
  1  2  1  0
  2  3  2  0
  2  4  1  0
  4  5  2  0
  5  6  1  0
  6  7  2  0
  7  8  1  0
  8  9  2  0
  7 10  1  0
 10 11  1  0
 11 12  1  0
 12 13  1  0
 13 14  1  0
 14 15  1  0
 13 16  1  0
 16 17  2  0
 16 18  1  0
 18 19  1  0
 19 20  2  0
 20 21  1  0
 21 22  2  0
 22 23  1  0
 23 24  2  0
 22 25  1  0
 25 26  1  0
 26 27  1  0
 27 28  1  0
 28 29  1  0
 29 30  1  0
  9  4  1  0
 15 10  1  0
 24 19  1  0
 30 25  1  0
  5 31  1  0
  6 32  1  0
  8 33  1  0
  9 34  1  0
 11 35  1  0
 11 36  1  0
 12 37  1  0
 12 38  1  0
 14 39  1  0
 14 40  1  0
 15 41  1  0
 15 42  1  0
 18 43  1  0
 20 44  1  0
 21 45  1  0
 23 46  1  0
 24 47  1  0
 26 48  1  0
 26 49  1  0
 27 50  1  0
 27 51  1  0
 29 52  1  0
 29 53  1  0
 30 54  1  0
 30 55  1  0
M  CHG  2   1  -1   2   1
M  END
$$$$
[H]OC(=O)[C@@]([H])(N([H])C(=O)[C@@]([H])(N([H])C(=O)[C@@]([H])(N([H])C(=O)[C@@]([H])(N([H])C(=O)[C@@]([H])(N([H])C(=O)C([H])([H])[H])C([H])([H])c1c([H])c([H])c([H])c([H])c1[H])C([H])([H])C([H])(C([H])([H])[H])C([H])([H])[H])C([H])([H])C([H])(C([H])([H])[H])C([H])([H])[H])C([H])([H])C([H])(C([H])([H])[H])C([H])([H])[H])C([H])([H])c1c([H])c([H])c([H])c([H])c1[H]
     RDKit          3D

105106  0  0  0  0  0  0  0  0999 V2000
    4.5314   -2.2922   -2.7212 C   0  0  0  0  0  0  0  0  0  0  0  0
    3.4252   -2.7691   -1.8965 C   0  0  0  0  0  0  0  0  0  0  0  0
    2.3800   -3.3714   -2.8871 C   0  0  0  0  0  0  0  0  0  0  0  0
    2.6860   -1.9666   -0.9454 C   0  0  0  0  0  0  0  0  0  0  0  0
    3.2456   -1.3172    0.2400 C   0  0  2  0  0  0  0  0  0  0  0  0
    2.0611   -0.7987    1.0353 N   0  0  0  0  0  0  0  0  0  0  0  0
    1.1769   -1.6953    1.6554 C   0  0  0  0  0  0  0  0  0  0  0  0
    1.3257   -2.9201    1.5562 O   0  0  0  0  0  0  0  0  0  0  0  0
    0.0041   -1.1683    2.4654 C   0  0  2  0  0  0  0  0  0  0  0  0
    0.3478   -1.2123    3.9153 C   0  0  0  0  0  0  0  0  0  0  0  0
    0.7408   -2.5127    4.5002 C   0  0  0  0  0  0  0  0  0  0  0  0
   -0.2308   -3.6373    4.4862 C   0  0  0  0  0  0  0  0  0  0  0  0
    1.1214   -2.3102    5.9829 C   0  0  0  0  0  0  0  0  0  0  0  0
   -1.2364   -1.7730    2.1389 N   0  0  0  0  0  0  0  0  0  0  0  0
   -2.0428   -1.2643    1.0729 C   0  0  0  0  0  0  0  0  0  0  0  0
   -1.4881   -0.2665    0.4743 O   0  0  0  0  0  0  0  0  0  0  0  0
   -3.3273   -1.6656    0.5754 C   0  0  2  0  0  0  0  0  0  0  0  0
   -3.5989   -3.0751    0.2984 C   0  0  0  0  0  0  0  0  0  0  0  0
   -2.8432   -3.8677   -0.6622 C   0  0  0  0  0  0  0  0  0  0  0  0
   -3.4490   -5.2887   -0.6428 C   0  0  0  0  0  0  0  0  0  0  0  0
   -2.8582   -3.4372   -2.0863 C   0  0  0  0  0  0  0  0  0  0  0  0
   -3.7602   -0.8308   -0.5351 N   0  0  0  0  0  0  0  0  0  0  0  0
   -4.9352   -0.0646   -0.5994 C   0  0  0  0  0  0  0  0  0  0  0  0
   -5.7400   -0.0436    0.3489 O   0  0  0  0  0  0  0  0  0  0  0  0
   -5.2639    0.7538   -1.8223 C   0  0  2  0  0  0  0  0  0  0  0  0
   -4.3099    1.8848   -2.0431 C   0  0  0  0  0  0  0  0  0  0  0  0
   -4.2863    2.9098   -1.0120 C   0  0  0  0  0  0  0  0  0  0  0  0
   -5.0830    4.0352   -1.2009 C   0  0  0  0  0  0  0  0  0  0  0  0
   -5.0738    5.0185   -0.2428 C   0  0  0  0  0  0  0  0  0  0  0  0
   -4.3030    4.9243    0.8973 C   0  0  0  0  0  0  0  0  0  0  0  0
   -3.5297    3.8335    1.0823 C   0  0  0  0  0  0  0  0  0  0  0  0
   -3.5321    2.8256    0.1108 C   0  0  0  0  0  0  0  0  0  0  0  0
   -6.6192    1.2674   -1.6284 N   0  0  0  0  0  0  0  0  0  0  0  0
   -7.6702    0.8075   -2.4601 C   0  0  0  0  0  0  0  0  0  0  0  0
   -9.0422    1.3595   -2.2189 C   0  0  0  0  0  0  0  0  0  0  0  0
   -7.4900   -0.0250   -3.3637 O   0  0  0  0  0  0  0  0  0  0  0  0
    4.1449   -0.1877    0.2173 C   0  0  0  0  0  0  0  0  0  0  0  0
    4.3157    0.3254    1.4238 O   0  0  0  0  0  0  0  0  0  0  0  0
    4.8483    0.4737   -0.7652 N   0  0  0  0  0  0  0  0  0  0  0  0
    5.7634    1.6031   -0.6684 C   0  0  1  0  0  0  0  0  0  0  0  0
    5.0793    2.8775   -1.0008 C   0  0  0  0  0  0  0  0  0  0  0  0
    5.8582    4.1121   -0.9767 C   0  0  0  0  0  0  0  0  0  0  0  0
    5.8824    4.9699    0.0997 C   0  0  0  0  0  0  0  0  0  0  0  0
    6.6274    6.1357    0.1140 C   0  0  0  0  0  0  0  0  0  0  0  0
    7.3695    6.4277   -1.0074 C   0  0  0  0  0  0  0  0  0  0  0  0
    7.3791    5.5953   -2.1157 C   0  0  0  0  0  0  0  0  0  0  0  0
    6.6313    4.4525   -2.0992 C   0  0  0  0  0  0  0  0  0  0  0  0
    6.7364    1.5764    0.4107 C   0  0  0  0  0  0  0  0  0  0  0  0
    7.6577    2.6411    0.5988 O   0  0  0  0  0  0  0  0  0  0  0  0
    6.9073    0.6704    1.2818 O   0  0  0  0  0  0  0  0  0  0  0  0
    4.8453   -3.0737   -3.4967 H   0  0  0  0  0  0  0  0  0  0  0  0
    4.1816   -1.4534   -3.3779 H   0  0  0  0  0  0  0  0  0  0  0  0
    5.4911   -2.0680   -2.2083 H   0  0  0  0  0  0  0  0  0  0  0  0
    3.7604   -3.7715   -1.3735 H   0  0  0  0  0  0  0  0  0  0  0  0
    1.5994   -3.9100   -2.3060 H   0  0  0  0  0  0  0  0  0  0  0  0
    2.9336   -4.1522   -3.4320 H   0  0  0  0  0  0  0  0  0  0  0  0
    2.0067   -2.6122   -3.5637 H   0  0  0  0  0  0  0  0  0  0  0  0
    1.6882   -2.4904   -0.7014 H   0  0  0  0  0  0  0  0  0  0  0  0
    2.2262   -1.0917   -1.5923 H   0  0  0  0  0  0  0  0  0  0  0  0
    3.5569   -2.1794    0.9253 H   0  0  0  0  0  0  0  0  0  0  0  0
    1.9306    0.2101    1.1045 H   0  0  0  0  0  0  0  0  0  0  0  0
   -0.0866   -0.0625    2.1607 H   0  0  0  0  0  0  0  0  0  0  0  0
   -0.6033   -0.9035    4.4722 H   0  0  0  0  0  0  0  0  0  0  0  0
    1.0553   -0.3900    4.2061 H   0  0  0  0  0  0  0  0  0  0  0  0
    1.7433   -2.8594    4.0564 H   0  0  0  0  0  0  0  0  0  0  0  0
   -1.2360   -3.3751    4.8166 H   0  0  0  0  0  0  0  0  0  0  0  0
    0.1084   -4.4771    5.1927 H   0  0  0  0  0  0  0  0  0  0  0  0
   -0.2991   -4.1765    3.5100 H   0  0  0  0  0  0  0  0  0  0  0  0
    0.2401   -1.8583    6.4717 H   0  0  0  0  0  0  0  0  0  0  0  0
    1.2713   -3.3548    6.3640 H   0  0  0  0  0  0  0  0  0  0  0  0
    2.0457   -1.7374    6.0611 H   0  0  0  0  0  0  0  0  0  0  0  0
   -1.6264   -2.5709    2.6260 H   0  0  0  0  0  0  0  0  0  0  0  0
   -4.0938   -1.3839    1.3862 H   0  0  0  0  0  0  0  0  0  0  0  0
   -4.6972   -3.1532    0.0189 H   0  0  0  0  0  0  0  0  0  0  0  0
   -3.5796   -3.6289    1.2869 H   0  0  0  0  0  0  0  0  0  0  0  0
   -1.7833   -4.0405   -0.3027 H   0  0  0  0  0  0  0  0  0  0  0  0
   -3.8293   -5.4520    0.3757 H   0  0  0  0  0  0  0  0  0  0  0  0
   -2.6727   -6.0312   -0.9226 H   0  0  0  0  0  0  0  0  0  0  0  0
   -4.3237   -5.3318   -1.3335 H   0  0  0  0  0  0  0  0  0  0  0  0
   -3.7673   -2.8783   -2.3565 H   0  0  0  0  0  0  0  0  0  0  0  0
   -2.8570   -4.3392   -2.7368 H   0  0  0  0  0  0  0  0  0  0  0  0
   -2.0006   -2.8294   -2.3964 H   0  0  0  0  0  0  0  0  0  0  0  0
   -3.1102   -0.8127   -1.3570 H   0  0  0  0  0  0  0  0  0  0  0  0
   -5.2409    0.0653   -2.6763 H   0  0  0  0  0  0  0  0  0  0  0  0
   -3.2936    1.4079   -2.2049 H   0  0  0  0  0  0  0  0  0  0  0  0
   -4.5639    2.3533   -3.0208 H   0  0  0  0  0  0  0  0  0  0  0  0
   -5.6917    4.1114   -2.0992 H   0  0  0  0  0  0  0  0  0  0  0  0
   -5.6709    5.9140   -0.3494 H   0  0  0  0  0  0  0  0  0  0  0  0
   -4.3166    5.7241    1.6414 H   0  0  0  0  0  0  0  0  0  0  0  0
   -2.9054    3.7112    1.9678 H   0  0  0  0  0  0  0  0  0  0  0  0
   -2.9161    1.9832    0.2907 H   0  0  0  0  0  0  0  0  0  0  0  0
   -6.7549    1.9632   -0.8720 H   0  0  0  0  0  0  0  0  0  0  0  0
   -9.1476    2.3407   -2.7456 H   0  0  0  0  0  0  0  0  0  0  0  0
   -9.1638    1.5343   -1.1243 H   0  0  0  0  0  0  0  0  0  0  0  0
   -9.8195    0.6570   -2.5338 H   0  0  0  0  0  0  0  0  0  0  0  0
    4.6984    0.2087   -1.8057 H   0  0  0  0  0  0  0  0  0  0  0  0
    6.4581    1.4201   -1.6014 H   0  0  0  0  0  0  0  0  0  0  0  0
    4.6243    2.8276   -2.0434 H   0  0  0  0  0  0  0  0  0  0  0  0
    4.1568    3.0028   -0.3581 H   0  0  0  0  0  0  0  0  0  0  0  0
    5.2993    4.7247    0.9664 H   0  0  0  0  0  0  0  0  0  0  0  0
    6.6484    6.8102    0.9560 H   0  0  0  0  0  0  0  0  0  0  0  0
    7.9604    7.3409   -1.0051 H   0  0  0  0  0  0  0  0  0  0  0  0
    7.9848    5.8552   -2.9998 H   0  0  0  0  0  0  0  0  0  0  0  0
    6.6481    3.8160   -2.9632 H   0  0  0  0  0  0  0  0  0  0  0  0
    8.3546    2.7476   -0.1277 H   0  0  0  0  0  0  0  0  0  0  0  0
  1  2  1  0
  2  3  1  0
  2  4  1  0
  4  5  1  0
  5  6  1  0
  6  7  1  0
  7  8  2  0
  7  9  1  0
  9 10  1  0
 10 11  1  0
 11 12  1  0
 11 13  1  0
  9 14  1  0
 14 15  1  0
 15 16  2  0
 15 17  1  0
 17 18  1  0
 18 19  1  0
 19 20  1  0
 19 21  1  0
 17 22  1  0
 22 23  1  0
 23 24  2  0
 23 25  1  0
 25 26  1  0
 26 27  1  0
 27 28  2  0
 28 29  1  0
 29 30  2  0
 30 31  1  0
 31 32  2  0
 25 33  1  0
 33 34  1  0
 34 35  1  0
 34 36  2  0
  5 37  1  0
 37 38  2  0
 37 39  1  0
 39 40  1  0
 40 41  1  0
 41 42  1  0
 42 43  2  0
 43 44  1  0
 44 45  2  0
 45 46  1  0
 46 47  2  0
 40 48  1  0
 48 49  1  0
 48 50  2  0
 32 27  1  0
 47 42  1  0
  1 51  1  0
  1 52  1  0
  1 53  1  0
  2 54  1  0
  3 55  1  0
  3 56  1  0
  3 57  1  0
  4 58  1  0
  4 59  1  0
  5 60  1  1
  6 61  1  0
  9 62  1  6
 10 63  1  0
 10 64  1  0
 11 65  1  0
 12 66  1  0
 12 67  1  0
 12 68  1  0
 13 69  1  0
 13 70  1  0
 13 71  1  0
 14 72  1  0
 17 73  1  1
 18 74  1  0
 18 75  1  0
 19 76  1  0
 20 77  1  0
 20 78  1  0
 20 79  1  0
 21 80  1  0
 21 81  1  0
 21 82  1  0
 22 83  1  0
 25 84  1  6
 26 85  1  0
 26 86  1  0
 28 87  1  0
 29 88  1  0
 30 89  1  0
 31 90  1  0
 32 91  1  0
 33 92  1  0
 35 93  1  0
 35 94  1  0
 35 95  1  0
 39 96  1  0
 40 97  1  6
 41 98  1  0
 41 99  1  0
 43100  1  0
 44101  1  0
 45102  1  0
 46103  1  0
 47104  1  0
 49105  1  0
M  END
$$$$
[H]c1nc(N([H])c2c([H])c([H])c(C([H])(C([H])([H])[H])C([H])([H])[H])c([H])c2OC([H])([H])[H])nc(N([H])c2c([H])c([H])c([H])c([H])c2S(=O)(=O)C([H])(C([H])([H])[H])C([H])([H])[H])c1Cl
     RDKit          3D

 59 61  0  0  0  0  0  0  0  0999 V2000
    3.9884   -2.8987   -1.7199 C   0  0  0  0  0  0  0  0  0  0  0  0
    3.3339   -1.8479   -1.0734 O   0  0  0  0  0  0  0  0  0  0  0  0
    3.9638   -0.8139   -0.4210 C   0  0  0  0  0  0  0  0  0  0  0  0
    5.3369   -0.8220   -0.4084 C   0  0  0  0  0  0  0  0  0  0  0  0
    6.0441    0.1645    0.2155 C   0  0  0  0  0  0  0  0  0  0  0  0
    5.3465    1.1654    0.8304 C   0  0  0  0  0  0  0  0  0  0  0  0
    3.9406    1.1665    0.8131 C   0  0  0  0  0  0  0  0  0  0  0  0
    3.2047    0.1899    0.1949 C   0  0  0  0  0  0  0  0  0  0  0  0
    1.8217    0.1089    0.1262 N   0  0  0  0  0  0  0  0  0  0  0  0
    0.8527    0.9946    0.6679 C   0  0  0  0  0  0  0  0  0  0  0  0
    1.1069    2.1030    1.3653 N   0  0  0  0  0  0  0  0  0  0  0  0
    0.1479    2.8995    1.8512 C   0  0  0  0  0  0  0  0  0  0  0  0
   -1.1611    2.5872    1.6383 C   0  0  0  0  0  0  0  0  0  0  0  0
   -2.4278    3.5836    2.2454 Cl  0  0  0  0  0  0  0  0  0  0  0  0
   -1.4995    1.4344    0.9121 C   0  0  0  0  0  0  0  0  0  0  0  0
   -2.8300    1.0937    0.6812 N   0  0  0  0  0  0  0  0  0  0  0  0
   -3.4349    0.0332    0.0086 C   0  0  0  0  0  0  0  0  0  0  0  0
   -2.7062   -0.9459   -0.5969 C   0  0  0  0  0  0  0  0  0  0  0  0
   -3.2600   -2.0288   -1.2832 C   0  0  0  0  0  0  0  0  0  0  0  0
   -4.6157   -2.1255   -1.3602 C   0  0  0  0  0  0  0  0  0  0  0  0
   -5.3907   -1.1648   -0.7667 C   0  0  0  0  0  0  0  0  0  0  0  0
   -4.8268   -0.0986   -0.0909 C   0  0  0  0  0  0  0  0  0  0  0  0
   -5.8377    1.0821    0.6398 S   0  0  0  0  0  0  0  0  0  0  0  0
   -5.6386    1.2285    2.1252 O   0  0  0  0  0  0  0  0  0  0  0  0
   -5.5800    2.4333    0.0164 O   0  0  0  0  0  0  0  0  0  0  0  0
   -7.5679    0.7640    0.4093 C   0  0  0  0  0  0  0  0  0  0  0  0
   -7.9906    0.8803   -1.0316 C   0  0  0  0  0  0  0  0  0  0  0  0
   -8.0510   -0.4765    1.0990 C   0  0  0  0  0  0  0  0  0  0  0  0
   -0.4728    0.7298    0.4845 N   0  0  0  0  0  0  0  0  0  0  0  0
    7.5302    0.1784    0.2433 C   0  0  0  0  0  0  0  0  0  0  0  0
    8.1130    0.2781   -1.1620 C   0  0  0  0  0  0  0  0  0  0  0  0
    8.0526   -1.1150    0.8545 C   0  0  0  0  0  0  0  0  0  0  0  0
    3.3163   -3.7402   -1.9396 H   0  0  0  0  0  0  0  0  0  0  0  0
    4.4478   -2.5051   -2.6536 H   0  0  0  0  0  0  0  0  0  0  0  0
    4.7775   -3.3209   -1.0343 H   0  0  0  0  0  0  0  0  0  0  0  0
    5.8942   -1.6215   -0.8998 H   0  0  0  0  0  0  0  0  0  0  0  0
    5.8724    1.9642    1.3350 H   0  0  0  0  0  0  0  0  0  0  0  0
    3.4720    1.9911    1.3209 H   0  0  0  0  0  0  0  0  0  0  0  0
    1.4233   -0.7334   -0.4062 H   0  0  0  0  0  0  0  0  0  0  0  0
    0.4710    3.7826    2.4084 H   0  0  0  0  0  0  0  0  0  0  0  0
   -3.5567    1.7911    1.1091 H   0  0  0  0  0  0  0  0  0  0  0  0
   -1.6033   -0.9667   -0.5967 H   0  0  0  0  0  0  0  0  0  0  0  0
   -2.6562   -2.7807   -1.7476 H   0  0  0  0  0  0  0  0  0  0  0  0
   -5.1151   -2.9550   -1.8868 H   0  0  0  0  0  0  0  0  0  0  0  0
   -6.4571   -1.2917   -0.8581 H   0  0  0  0  0  0  0  0  0  0  0  0
   -8.0896    1.6129    0.9470 H   0  0  0  0  0  0  0  0  0  0  0  0
   -7.1481    0.8131   -1.7473 H   0  0  0  0  0  0  0  0  0  0  0  0
   -8.7899    0.1432   -1.2458 H   0  0  0  0  0  0  0  0  0  0  0  0
   -8.4237    1.8865   -1.1864 H   0  0  0  0  0  0  0  0  0  0  0  0
   -8.6955   -0.2893    1.9820 H   0  0  0  0  0  0  0  0  0  0  0  0
   -7.1998   -1.1063    1.4917 H   0  0  0  0  0  0  0  0  0  0  0  0
   -8.6788   -1.0752    0.3824 H   0  0  0  0  0  0  0  0  0  0  0  0
    7.8642    1.0616    0.7956 H   0  0  0  0  0  0  0  0  0  0  0  0
    9.1122    0.7582   -1.0623 H   0  0  0  0  0  0  0  0  0  0  0  0
    7.4455    0.8320   -1.8300 H   0  0  0  0  0  0  0  0  0  0  0  0
    8.3198   -0.7682   -1.5267 H   0  0  0  0  0  0  0  0  0  0  0  0
    8.1234   -1.9158    0.0760 H   0  0  0  0  0  0  0  0  0  0  0  0
    7.3273   -1.4399    1.6149 H   0  0  0  0  0  0  0  0  0  0  0  0
    9.0543   -0.8880    1.2625 H   0  0  0  0  0  0  0  0  0  0  0  0
  1  2  1  0
  2  3  1  0
  3  4  2  0
  4  5  1  0
  5  6  2  0
  6  7  1  0
  7  8  2  0
  8  9  1  0
  9 10  1  0
 10 11  2  0
 11 12  1  0
 12 13  2  0
 13 14  1  0
 13 15  1  0
 15 16  1  0
 16 17  1  0
 17 18  2  0
 18 19  1  0
 19 20  2  0
 20 21  1  0
 21 22  2  0
 22 23  1  0
 23 24  2  0
 23 25  2  0
 23 26  1  0
 26 27  1  0
 26 28  1  0
 15 29  2  0
  5 30  1  0
 30 31  1  0
 30 32  1  0
  8  3  1  0
 29 10  1  0
 22 17  1  0
  1 33  1  0
  1 34  1  0
  1 35  1  0
  4 36  1  0
  6 37  1  0
  7 38  1  0
  9 39  1  0
 12 40  1  0
 16 41  1  0
 18 42  1  0
 19 43  1  0
 20 44  1  0
 21 45  1  0
 26 46  1  0
 27 47  1  0
 27 48  1  0
 27 49  1  0
 28 50  1  0
 28 51  1  0
 28 52  1  0
 30 53  1  0
 31 54  1  0
 31 55  1  0
 31 56  1  0
 32 57  1  0
 32 58  1  0
 32 59  1  0
M  END
$$$$
[H]c1c(C#N)c([H])c2c(-c3c([H])c([H])c4c(c3[H])c([H])c([H])n4C([H])([H])[H])nn([H])c2c1[H]
     RDKit          3D

 33 36  0  0  0  0  0  0  0  0999 V2000
    4.8685    1.6068   -0.4482 C   0  0  0  0  0  0  0  0  0  0  0  0
    4.1023    0.4401   -0.0591 N   0  0  0  0  0  0  0  0  0  0  0  0
    4.6369   -0.6561    0.5489 C   0  0  0  0  0  0  0  0  0  0  0  0
    3.5946   -1.5349    0.7521 C   0  0  0  0  0  0  0  0  0  0  0  0
    2.4209   -0.9923    0.2754 C   0  0  0  0  0  0  0  0  0  0  0  0
    1.1093   -1.4124    0.2154 C   0  0  0  0  0  0  0  0  0  0  0  0
    0.1031   -0.6227   -0.3426 C   0  0  0  0  0  0  0  0  0  0  0  0
    0.4741    0.5990   -0.8335 C   0  0  0  0  0  0  0  0  0  0  0  0
    1.7927    1.0394   -0.7814 C   0  0  0  0  0  0  0  0  0  0  0  0
    2.7812    0.2514   -0.2276 C   0  0  0  0  0  0  0  0  0  0  0  0
   -1.2616   -1.1326   -0.3732 C   0  0  0  0  0  0  0  0  0  0  0  0
   -1.6757   -2.3464   -0.7290 N   0  0  0  0  0  0  0  0  0  0  0  0
   -2.9799   -2.4434   -0.6293 N   0  0  0  0  0  0  0  0  0  0  0  0
   -3.4412   -1.2587   -0.1948 C   0  0  0  0  0  0  0  0  0  0  0  0
   -4.7300   -0.8500    0.0694 C   0  0  0  0  0  0  0  0  0  0  0  0
   -4.9469    0.4477    0.5169 C   0  0  0  0  0  0  0  0  0  0  0  0
   -3.8949    1.3183    0.6961 C   0  0  0  0  0  0  0  0  0  0  0  0
   -2.6215    0.8869    0.4260 C   0  0  0  0  0  0  0  0  0  0  0  0
   -2.3683   -0.4003   -0.0217 C   0  0  0  0  0  0  0  0  0  0  0  0
   -4.0860    2.6597    1.1552 C   0  0  0  0  0  0  0  0  0  0  0  0
   -4.2573    3.7396    1.5364 N   0  0  0  0  0  0  0  0  0  0  0  0
    4.3099    2.5409   -0.2667 H   0  0  0  0  0  0  0  0  0  0  0  0
    5.8605    1.5974    0.0492 H   0  0  0  0  0  0  0  0  0  0  0  0
    5.0581    1.4901   -1.5550 H   0  0  0  0  0  0  0  0  0  0  0  0
    5.6760   -0.8065    0.8189 H   0  0  0  0  0  0  0  0  0  0  0  0
    3.6781   -2.5060    1.2153 H   0  0  0  0  0  0  0  0  0  0  0  0
    0.8540   -2.3853    0.6140 H   0  0  0  0  0  0  0  0  0  0  0  0
   -0.2777    1.2478   -1.2786 H   0  0  0  0  0  0  0  0  0  0  0  0
    2.0834    2.0179   -1.1758 H   0  0  0  0  0  0  0  0  0  0  0  0
   -3.5461   -3.2972   -0.8519 H   0  0  0  0  0  0  0  0  0  0  0  0
   -5.5569   -1.5262   -0.0687 H   0  0  0  0  0  0  0  0  0  0  0  0
   -5.9735    0.7456    0.7182 H   0  0  0  0  0  0  0  0  0  0  0  0
   -1.7863    1.5422    0.5572 H   0  0  0  0  0  0  0  0  0  0  0  0
  1  2  1  0
  2  3  1  0
  3  4  2  0
  4  5  1  0
  5  6  2  0
  6  7  1  0
  7  8  2  0
  8  9  1  0
  9 10  2  0
  7 11  1  0
 11 12  2  0
 12 13  1  0
 13 14  1  0
 14 15  2  0
 15 16  1  0
 16 17  2  0
 17 18  1  0
 18 19  2  0
 17 20  1  0
 20 21  3  0
 10  2  1  0
 19 11  1  0
 10  5  1  0
 19 14  1  0
  1 22  1  0
  1 23  1  0
  1 24  1  0
  3 25  1  0
  4 26  1  0
  6 27  1  0
  8 28  1  0
  9 29  1  0
 13 30  1  0
 15 31  1  0
 16 32  1  0
 18 33  1  0
M  END
$$$$
[H]c1sc(N([H])S(=O)(=O)c2c([H])c([H])c([H])c(Br)c2F)nc1C(=O)c1c([H])c([H])c(C(=O)N([H])C([H])([H])[H])c([H])c1[H]
     RDKit          3D

 42 44  0  0  0  0  0  0  0  0999 V2000
    5.0360    1.5488    2.6024 O   0  0  0  0  0  0  0  0  0  0  0  0
    4.4983    0.1011    2.4461 S   0  0  0  0  0  0  0  0  0  0  0  0
    5.2957   -0.5298    1.0542 C   0  0  0  0  0  0  0  0  0  0  0  0
    5.3010   -1.8550    0.7225 C   0  0  0  0  0  0  0  0  0  0  0  0
    4.5957   -2.7595    1.4632 F   0  0  0  0  0  0  0  0  0  0  0  0
    5.9952   -2.3835   -0.3748 C   0  0  0  0  0  0  0  0  0  0  0  0
    5.9364   -4.2273   -0.7623 Br  0  0  0  0  0  0  0  0  0  0  0  0
    6.7123   -1.4957   -1.1400 C   0  0  0  0  0  0  0  0  0  0  0  0
    6.7285   -0.1584   -0.8503 C   0  0  0  0  0  0  0  0  0  0  0  0
    6.0304    0.3128    0.2283 C   0  0  0  0  0  0  0  0  0  0  0  0
    5.0550   -0.5985    3.7257 O   0  0  0  0  0  0  0  0  0  0  0  0
    2.8272    0.0230    2.4689 N   0  0  0  0  0  0  0  0  0  0  0  0
    2.0454    0.7523    1.4983 C   0  0  0  0  0  0  0  0  0  0  0  0
    2.6414    1.7543    0.2323 S   0  0  0  0  0  0  0  0  0  0  0  0
    1.1699    2.3033   -0.3819 C   0  0  0  0  0  0  0  0  0  0  0  0
    0.2182    1.6379    0.4676 C   0  0  0  0  0  0  0  0  0  0  0  0
   -1.1628    1.9822    0.2399 C   0  0  0  0  0  0  0  0  0  0  0  0
   -2.3392    1.0756    0.2726 C   0  0  0  0  0  0  0  0  0  0  0  0
   -3.6125    1.5662    0.5240 C   0  0  0  0  0  0  0  0  0  0  0  0
   -4.7105    0.7696    0.3529 C   0  0  0  0  0  0  0  0  0  0  0  0
   -4.6215   -0.5099   -0.0647 C   0  0  0  0  0  0  0  0  0  0  0  0
   -5.7227   -1.3602   -0.6022 C   0  0  0  0  0  0  0  0  0  0  0  0
   -6.7403   -0.6773   -1.2735 N   0  0  0  0  0  0  0  0  0  0  0  0
   -7.7501   -0.0098   -1.9383 C   0  0  0  0  0  0  0  0  0  0  0  0
   -5.5901   -2.5646   -0.4244 O   0  0  0  0  0  0  0  0  0  0  0  0
   -3.3315   -1.0401   -0.3139 C   0  0  0  0  0  0  0  0  0  0  0  0
   -2.2179   -0.2290   -0.1397 C   0  0  0  0  0  0  0  0  0  0  0  0
   -1.5013    3.2095   -0.0424 O   0  0  0  0  0  0  0  0  0  0  0  0
    0.7415    0.8865    1.3630 N   0  0  0  0  0  0  0  0  0  0  0  0
    7.2672   -1.8728   -1.9788 H   0  0  0  0  0  0  0  0  0  0  0  0
    7.3038    0.5409   -1.4773 H   0  0  0  0  0  0  0  0  0  0  0  0
    6.0699    1.3489    0.4673 H   0  0  0  0  0  0  0  0  0  0  0  0
    2.3265   -0.5242    3.1450 H   0  0  0  0  0  0  0  0  0  0  0  0
    0.9039    2.9675   -1.1774 H   0  0  0  0  0  0  0  0  0  0  0  0
   -3.7038    2.6082    0.8358 H   0  0  0  0  0  0  0  0  0  0  0  0
   -5.7080    1.1765    0.5767 H   0  0  0  0  0  0  0  0  0  0  0  0
   -7.5116   -1.8015   -1.2082 H   0  0  0  0  0  0  0  0  0  0  0  0
   -8.4348   -0.6643   -2.5513 H   0  0  0  0  0  0  0  0  0  0  0  0
   -8.3457    0.6836   -1.3219 H   0  0  0  0  0  0  0  0  0  0  0  0
   -7.3090    0.6845   -2.7706 H   0  0  0  0  0  0  0  0  0  0  0  0
   -3.1865   -2.0520   -0.6110 H   0  0  0  0  0  0  0  0  0  0  0  0
   -1.1997   -0.6197   -0.3432 H   0  0  0  0  0  0  0  0  0  0  0  0
  1  2  2  0
  2  3  1  0
  3  4  2  0
  4  5  1  0
  4  6  1  0
  6  7  1  0
  6  8  2  0
  8  9  1  0
  9 10  2  0
  2 11  2  0
  2 12  1  0
 12 13  1  0
 13 14  1  0
 14 15  1  0
 15 16  2  0
 16 17  1  0
 17 18  1  0
 18 19  2  0
 19 20  1  0
 20 21  2  0
 21 22  1  0
 22 23  1  0
 23 24  1  0
 22 25  2  0
 21 26  1  0
 26 27  2  0
 17 28  2  0
 16 29  1  0
 10  3  1  0
 29 13  2  0
 27 18  1  0
  8 30  1  0
  9 31  1  0
 10 32  1  0
 12 33  1  0
 15 34  1  0
 19 35  1  0
 20 36  1  0
 23 37  1  0
 24 38  1  0
 24 39  1  0
 24 40  1  0
 26 41  1  0
 27 42  1  0
M  END
$$$$
[H]OC(=O)[C@@]([H])(N([H])C(=O)[C@@]([H])(N([H])C(=O)[C@@]([H])(C([H])([H])C(=O)N([H])O[H])C([H])([H])C([H])(C([H])([H])[H])C([H])([H])[H])C([H])([H])c1c([H])c([H])c([H])c([H])c1[H])C([H])([H])C([H])(C([H])([H])[H])C([H])([H])[H]
     RDKit          3D

 67 67  0  0  0  0  0  0  0  0999 V2000
   -4.2447   -1.6994   -2.5490 C   0  0  0  0  0  0  0  0  0  0  0  0
   -3.3466   -1.9312   -1.3724 C   0  0  0  0  0  0  0  0  0  0  0  0
   -3.4986   -3.4212   -1.0025 C   0  0  0  0  0  0  0  0  0  0  0  0
   -3.6122   -1.1562   -0.1509 C   0  0  0  0  0  0  0  0  0  0  0  0
   -3.5276    0.3177   -0.1617 C   0  0  2  0  0  0  0  0  0  0  0  0
   -4.4307    1.0700   -1.0800 C   0  0  0  0  0  0  0  0  0  0  0  0
   -4.2469    2.5656   -0.9010 C   0  0  0  0  0  0  0  0  0  0  0  0
   -3.5346    2.9598    0.0220 O   0  0  0  0  0  0  0  0  0  0  0  0
   -4.9042    3.4549   -1.8069 N   0  0  0  0  0  0  0  0  0  0  0  0
   -4.7808    4.7741   -1.7035 O   0  0  0  0  0  0  0  0  0  0  0  0
   -2.0957    0.7635   -0.3654 C   0  0  0  0  0  0  0  0  0  0  0  0
   -1.8097    1.3256   -1.4326 O   0  0  0  0  0  0  0  0  0  0  0  0
   -1.1046    0.5523    0.6140 N   0  0  0  0  0  0  0  0  0  0  0  0
    0.2648    0.9498    0.4783 C   0  0  1  0  0  0  0  0  0  0  0  0
    0.7012    1.9349    1.5072 C   0  0  0  0  0  0  0  0  0  0  0  0
    0.5626    1.4769    2.8977 C   0  0  0  0  0  0  0  0  0  0  0  0
   -0.6218    1.6993    3.6037 C   0  0  0  0  0  0  0  0  0  0  0  0
   -0.7783    1.2810    4.9011 C   0  0  0  0  0  0  0  0  0  0  0  0
    0.2361    0.6204    5.5596 C   0  0  0  0  0  0  0  0  0  0  0  0
    1.4098    0.3908    4.8849 C   0  0  0  0  0  0  0  0  0  0  0  0
    1.5610    0.8212    3.5619 C   0  0  0  0  0  0  0  0  0  0  0  0
    1.2055   -0.1584    0.3477 C   0  0  0  0  0  0  0  0  0  0  0  0
    0.7155   -1.3317    0.4313 O   0  0  0  0  0  0  0  0  0  0  0  0
    2.5943   -0.0770    0.1341 N   0  0  0  0  0  0  0  0  0  0  0  0
    3.4341   -1.2569    0.0053 C   0  0  1  0  0  0  0  0  0  0  0  0
    3.7580   -1.4394   -1.4585 C   0  0  0  0  0  0  0  0  0  0  0  0
    4.4611   -0.3224   -2.1231 C   0  0  0  0  0  0  0  0  0  0  0  0
    5.8018    0.0509   -1.5813 C   0  0  0  0  0  0  0  0  0  0  0  0
    4.6964   -0.7475   -3.5822 C   0  0  0  0  0  0  0  0  0  0  0  0
    4.5542   -1.1931    0.9067 C   0  0  0  0  0  0  0  0  0  0  0  0
    5.4798   -2.2504    1.0018 O   0  0  0  0  0  0  0  0  0  0  0  0
    4.7871   -0.2222    1.6582 O   0  0  0  0  0  0  0  0  0  0  0  0
   -3.7700   -1.1133   -3.3672 H   0  0  0  0  0  0  0  0  0  0  0  0
   -5.2373   -1.3046   -2.2311 H   0  0  0  0  0  0  0  0  0  0  0  0
   -4.4776   -2.6904   -3.0563 H   0  0  0  0  0  0  0  0  0  0  0  0
   -2.2766   -1.8683   -1.7146 H   0  0  0  0  0  0  0  0  0  0  0  0
   -4.2832   -3.5513   -0.2309 H   0  0  0  0  0  0  0  0  0  0  0  0
   -2.5273   -3.8239   -0.6452 H   0  0  0  0  0  0  0  0  0  0  0  0
   -3.7747   -3.9885   -1.9200 H   0  0  0  0  0  0  0  0  0  0  0  0
   -2.9064   -1.5396    0.6477 H   0  0  0  0  0  0  0  0  0  0  0  0
   -4.6572   -1.4171    0.1955 H   0  0  0  0  0  0  0  0  0  0  0  0
   -3.7811    0.6625    0.8925 H   0  0  0  0  0  0  0  0  0  0  0  0
   -4.2613    0.8466   -2.1639 H   0  0  0  0  0  0  0  0  0  0  0  0
   -5.5046    0.8984   -0.8878 H   0  0  0  0  0  0  0  0  0  0  0  0
   -5.5027    3.0543   -2.5779 H   0  0  0  0  0  0  0  0  0  0  0  0
   -4.1953    4.9954   -0.9602 H   0  0  0  0  0  0  0  0  0  0  0  0
   -1.3712    0.0686    1.5192 H   0  0  0  0  0  0  0  0  0  0  0  0
    0.3167    1.5089   -0.5153 H   0  0  0  0  0  0  0  0  0  0  0  0
    0.1371    2.8912    1.3203 H   0  0  0  0  0  0  0  0  0  0  0  0
    1.7706    2.2125    1.2683 H   0  0  0  0  0  0  0  0  0  0  0  0
   -1.4241    2.2170    3.0956 H   0  0  0  0  0  0  0  0  0  0  0  0
   -1.6997    1.4550    5.4462 H   0  0  0  0  0  0  0  0  0  0  0  0
    0.1052    0.2848    6.6018 H   0  0  0  0  0  0  0  0  0  0  0  0
    2.2004   -0.1258    5.4018 H   0  0  0  0  0  0  0  0  0  0  0  0
    2.4944    0.6188    3.0915 H   0  0  0  0  0  0  0  0  0  0  0  0
    3.0233    0.8749    0.0686 H   0  0  0  0  0  0  0  0  0  0  0  0
    2.7674   -2.1570    0.2428 H   0  0  0  0  0  0  0  0  0  0  0  0
    4.3609   -2.3812   -1.6213 H   0  0  0  0  0  0  0  0  0  0  0  0
    2.8167   -1.6293   -2.0290 H   0  0  0  0  0  0  0  0  0  0  0  0
    3.7945    0.5831   -2.2283 H   0  0  0  0  0  0  0  0  0  0  0  0
    6.3547   -0.8750   -1.3307 H   0  0  0  0  0  0  0  0  0  0  0  0
    6.4505    0.5180   -2.3994 H   0  0  0  0  0  0  0  0  0  0  0  0
    5.7968    0.8218   -0.7967 H   0  0  0  0  0  0  0  0  0  0  0  0
    5.6484   -0.3250   -3.9629 H   0  0  0  0  0  0  0  0  0  0  0  0
    3.8315   -0.5310   -4.2231 H   0  0  0  0  0  0  0  0  0  0  0  0
    4.8357   -1.8455   -3.5612 H   0  0  0  0  0  0  0  0  0  0  0  0
    5.2595   -3.1465    1.3866 H   0  0  0  0  0  0  0  0  0  0  0  0
  1  2  1  0
  2  3  1  0
  2  4  1  0
  4  5  1  0
  5  6  1  0
  6  7  1  0
  7  8  2  0
  7  9  1  0
  9 10  1  0
  5 11  1  0
 11 12  2  0
 11 13  1  0
 13 14  1  0
 14 15  1  0
 15 16  1  0
 16 17  2  0
 17 18  1  0
 18 19  2  0
 19 20  1  0
 20 21  2  0
 14 22  1  0
 22 23  2  0
 22 24  1  0
 24 25  1  0
 25 26  1  0
 26 27  1  0
 27 28  1  0
 27 29  1  0
 25 30  1  0
 30 31  1  0
 30 32  2  0
 21 16  1  0
  1 33  1  0
  1 34  1  0
  1 35  1  0
  2 36  1  0
  3 37  1  0
  3 38  1  0
  3 39  1  0
  4 40  1  0
  4 41  1  0
  5 42  1  1
  6 43  1  0
  6 44  1  0
  9 45  1  0
 10 46  1  0
 13 47  1  0
 14 48  1  6
 15 49  1  0
 15 50  1  0
 17 51  1  0
 18 52  1  0
 19 53  1  0
 20 54  1  0
 21 55  1  0
 24 56  1  0
 25 57  1  1
 26 58  1  0
 26 59  1  0
 27 60  1  0
 28 61  1  0
 28 62  1  0
 28 63  1  0
 29 64  1  0
 29 65  1  0
 29 66  1  0
 31 67  1  0
M  END
$$$$
[H]OC([H])([H])[C@@]1([H])OC([H])(n2c([H])nc3c(N([H])[H])nc([H])nc32)[C@]([H])(O[H])[C@@]([H])(O[H])[C@]1([H])O[H]
     RDKit          3D

 36 38  0  0  0  0  0  0  0  0999 V2000
    5.7867    0.4327   -0.1262 N   0  0  0  0  0  0  0  0  0  0  0  0
    4.5118   -0.1902   -0.2148 C   0  0  0  0  0  0  0  0  0  0  0  0
    4.3812   -1.5217   -0.4315 N   0  0  0  0  0  0  0  0  0  0  0  0
    3.1560   -2.0791   -0.5098 C   0  0  0  0  0  0  0  0  0  0  0  0
    2.0198   -1.3584   -0.3798 N   0  0  0  0  0  0  0  0  0  0  0  0
    2.0923   -0.0384   -0.1644 C   0  0  0  0  0  0  0  0  0  0  0  0
    1.1482    0.8841   -0.0035 N   0  0  0  0  0  0  0  0  0  0  0  0
    1.7851    2.0548    0.1815 C   0  0  0  0  0  0  0  0  0  0  0  0
    3.1123    1.8478    0.1337 N   0  0  0  0  0  0  0  0  0  0  0  0
    3.3432    0.5385   -0.0832 C   0  0  0  0  0  0  0  0  0  0  0  0
   -0.2836    0.7460   -0.0110 C   0  0  0  0  0  0  0  0  0  0  0  0
   -0.7354    0.3946    1.2376 O   0  0  0  0  0  0  0  0  0  0  0  0
   -2.0892    0.3553    1.3771 C   0  0  2  0  0  0  0  0  0  0  0  0
   -2.5340   -0.9196    2.1041 C   0  0  0  0  0  0  0  0  0  0  0  0
   -3.9134   -0.9545    2.2434 O   0  0  0  0  0  0  0  0  0  0  0  0
   -2.8821    0.5314    0.1360 C   0  0  1  0  0  0  0  0  0  0  0  0
   -3.2204    1.8927   -0.0462 O   0  0  0  0  0  0  0  0  0  0  0  0
   -2.2867   -0.0669   -1.0920 C   0  0  2  0  0  0  0  0  0  0  0  0
   -2.9338   -1.2285   -1.5003 O   0  0  0  0  0  0  0  0  0  0  0  0
   -0.7871   -0.2602   -1.0037 C   0  0  1  0  0  0  0  0  0  0  0  0
   -0.1821   -0.1601   -2.2425 O   0  0  0  0  0  0  0  0  0  0  0  0
    5.9384    1.3514   -0.5989 H   0  0  0  0  0  0  0  0  0  0  0  0
    6.5991    0.0296    0.3879 H   0  0  0  0  0  0  0  0  0  0  0  0
    3.1447   -3.1591   -0.6866 H   0  0  0  0  0  0  0  0  0  0  0  0
    1.3130    3.0198    0.3445 H   0  0  0  0  0  0  0  0  0  0  0  0
   -0.7643    1.7266   -0.2789 H   0  0  0  0  0  0  0  0  0  0  0  0
   -2.3783    1.1897    2.0822 H   0  0  0  0  0  0  0  0  0  0  0  0
   -2.0642   -0.9952    3.0948 H   0  0  0  0  0  0  0  0  0  0  0  0
   -2.2480   -1.8036    1.4929 H   0  0  0  0  0  0  0  0  0  0  0  0
   -4.3260   -1.7973    1.9778 H   0  0  0  0  0  0  0  0  0  0  0  0
   -3.8792    0.0240    0.2971 H   0  0  0  0  0  0  0  0  0  0  0  0
   -3.7593    2.1219    0.7616 H   0  0  0  0  0  0  0  0  0  0  0  0
   -2.4436    0.6758   -1.9286 H   0  0  0  0  0  0  0  0  0  0  0  0
   -3.7941   -0.9302   -1.9357 H   0  0  0  0  0  0  0  0  0  0  0  0
   -0.6345   -1.2801   -0.5627 H   0  0  0  0  0  0  0  0  0  0  0  0
   -0.1925   -1.0736   -2.6523 H   0  0  0  0  0  0  0  0  0  0  0  0
  1  2  1  0
  2  3  2  0
  3  4  1  0
  4  5  2  0
  5  6  1  0
  6  7  1  0
  7  8  1  0
  8  9  2  0
  9 10  1  0
  7 11  1  0
 11 12  1  0
 12 13  1  0
 13 14  1  0
 14 15  1  0
 13 16  1  0
 16 17  1  0
 16 18  1  0
 18 19  1  0
 18 20  1  0
 20 21  1  0
 10  2  1  0
 20 11  1  0
 10  6  2  0
  1 22  1  0
  1 23  1  0
  4 24  1  0
  8 25  1  0
 11 26  1  0
 13 27  1  1
 14 28  1  0
 14 29  1  0
 15 30  1  0
 16 31  1  1
 17 32  1  0
 18 33  1  6
 19 34  1  0
 20 35  1  1
 21 36  1  0
M  END
$$$$
[H]c1c([H])c(N([H])C(=O)N([H])c2c([H])c([H])c(N3C([H])([H])C([H])([H])OC([H])([H])C3([H])[H])c([H])c2[H])c([H])c([H])c1-c1nc(N2C([H])([H])C([H])([H])OC([H])([H])C2([H])[H])nc(N2C([H])([H])C([H])([H])OC([H])([H])[C@@]2([H])C([H])([H])[H])n1
     RDKit          3D

 77 82  0  0  0  0  0  0  0  0999 V2000
   -8.3131    0.8893    0.7185 C   0  0  0  0  0  0  0  0  0  0  0  0
   -7.5933    2.1728    0.9016 C   0  0  2  0  0  0  0  0  0  0  0  0
   -7.8052    3.1183   -0.2820 C   0  0  0  0  0  0  0  0  0  0  0  0
   -6.7928    4.0747   -0.3059 O   0  0  0  0  0  0  0  0  0  0  0  0
   -6.2971    4.4090    0.9480 C   0  0  0  0  0  0  0  0  0  0  0  0
   -5.5225    3.2578    1.6032 C   0  0  0  0  0  0  0  0  0  0  0  0
   -6.1515    2.0611    1.0076 N   0  0  0  0  0  0  0  0  0  0  0  0
   -5.3926    0.9553    0.5487 C   0  0  0  0  0  0  0  0  0  0  0  0
   -5.9369   -0.0182   -0.2076 N   0  0  0  0  0  0  0  0  0  0  0  0
   -5.2547   -1.0693   -0.6912 C   0  0  0  0  0  0  0  0  0  0  0  0
   -3.9522   -1.1110   -0.3760 N   0  0  0  0  0  0  0  0  0  0  0  0
   -3.3365   -0.1783    0.3718 C   0  0  0  0  0  0  0  0  0  0  0  0
   -4.0784    0.8469    0.8250 N   0  0  0  0  0  0  0  0  0  0  0  0
   -1.9173   -0.2888    0.5658 C   0  0  0  0  0  0  0  0  0  0  0  0
   -1.1782   -1.1987   -0.1608 C   0  0  0  0  0  0  0  0  0  0  0  0
    0.1668   -1.3192   -0.0305 C   0  0  0  0  0  0  0  0  0  0  0  0
    0.8588   -0.4736    0.8951 C   0  0  0  0  0  0  0  0  0  0  0  0
    2.1674   -0.4995    0.9481 N   0  0  0  0  0  0  0  0  0  0  0  0
    3.5235   -0.5301    1.0123 C   0  0  0  0  0  0  0  0  0  0  0  0
    4.2328   -0.9273    1.9658 O   0  0  0  0  0  0  0  0  0  0  0  0
    4.2595   -0.0524   -0.1380 N   0  0  0  0  0  0  0  0  0  0  0  0
    5.6617   -0.0250   -0.1327 C   0  0  0  0  0  0  0  0  0  0  0  0
    6.3142   -0.3619   -1.2925 C   0  0  0  0  0  0  0  0  0  0  0  0
    7.6934   -0.2809   -1.3419 C   0  0  0  0  0  0  0  0  0  0  0  0
    8.4465    0.1395   -0.2332 C   0  0  0  0  0  0  0  0  0  0  0  0
    7.7676    0.4645    0.9010 C   0  0  0  0  0  0  0  0  0  0  0  0
    6.3591    0.3832    0.9598 C   0  0  0  0  0  0  0  0  0  0  0  0
    9.8385    0.2220   -0.3682 N   0  0  0  0  0  0  0  0  0  0  0  0
   10.5085   -0.2641   -1.5504 C   0  0  0  0  0  0  0  0  0  0  0  0
   11.8904    0.4050   -1.5838 C   0  0  0  0  0  0  0  0  0  0  0  0
   12.6522    0.1047   -0.4876 O   0  0  0  0  0  0  0  0  0  0  0  0
   12.0161    0.1280    0.7262 C   0  0  0  0  0  0  0  0  0  0  0  0
   10.6622    0.8114    0.6511 C   0  0  0  0  0  0  0  0  0  0  0  0
    0.1087    0.4406    1.6322 C   0  0  0  0  0  0  0  0  0  0  0  0
   -1.2612    0.5124    1.4487 C   0  0  0  0  0  0  0  0  0  0  0  0
   -5.8281   -2.0877   -1.4795 N   0  0  0  0  0  0  0  0  0  0  0  0
   -7.0332   -1.9626   -2.2799 C   0  0  0  0  0  0  0  0  0  0  0  0
   -8.0179   -2.9674   -1.6633 C   0  0  0  0  0  0  0  0  0  0  0  0
   -7.4591   -4.2109   -1.5343 O   0  0  0  0  0  0  0  0  0  0  0  0
   -6.3077   -4.2747   -0.7609 C   0  0  0  0  0  0  0  0  0  0  0  0
   -5.2442   -3.4449   -1.5187 C   0  0  0  0  0  0  0  0  0  0  0  0
   -7.9356    0.1037    1.4094 H   0  0  0  0  0  0  0  0  0  0  0  0
   -9.3736    1.0727    1.0900 H   0  0  0  0  0  0  0  0  0  0  0  0
   -8.4416    0.5695   -0.3212 H   0  0  0  0  0  0  0  0  0  0  0  0
   -7.9656    2.6545    1.8459 H   0  0  0  0  0  0  0  0  0  0  0  0
   -7.6365    2.4624   -1.1899 H   0  0  0  0  0  0  0  0  0  0  0  0
   -8.8153    3.5078   -0.3012 H   0  0  0  0  0  0  0  0  0  0  0  0
   -5.5694    5.2267    0.8116 H   0  0  0  0  0  0  0  0  0  0  0  0
   -7.0911    4.7718    1.6229 H   0  0  0  0  0  0  0  0  0  0  0  0
   -5.7716    3.2578    2.6610 H   0  0  0  0  0  0  0  0  0  0  0  0
   -4.4635    3.3490    1.3336 H   0  0  0  0  0  0  0  0  0  0  0  0
   -1.7166   -1.8302   -0.8620 H   0  0  0  0  0  0  0  0  0  0  0  0
    0.7832   -2.0128   -0.5758 H   0  0  0  0  0  0  0  0  0  0  0  0
    2.1000   -1.1027    2.1987 H   0  0  0  0  0  0  0  0  0  0  0  0
    3.6905    0.2776   -0.9646 H   0  0  0  0  0  0  0  0  0  0  0  0
    5.7420   -0.6854   -2.1409 H   0  0  0  0  0  0  0  0  0  0  0  0
    8.1590   -0.5534   -2.2570 H   0  0  0  0  0  0  0  0  0  0  0  0
    8.2997    0.7838    1.7769 H   0  0  0  0  0  0  0  0  0  0  0  0
    5.9245    0.6740    1.8960 H   0  0  0  0  0  0  0  0  0  0  0  0
   10.5924   -1.3540   -1.5694 H   0  0  0  0  0  0  0  0  0  0  0  0
   10.0215    0.0792   -2.4990 H   0  0  0  0  0  0  0  0  0  0  0  0
   12.4427    0.0299   -2.4758 H   0  0  0  0  0  0  0  0  0  0  0  0
   11.7335    1.4844   -1.6848 H   0  0  0  0  0  0  0  0  0  0  0  0
   12.6278    0.6944    1.4464 H   0  0  0  0  0  0  0  0  0  0  0  0
   11.8472   -0.8857    1.1574 H   0  0  0  0  0  0  0  0  0  0  0  0
   10.2235    0.7193    1.6513 H   0  0  0  0  0  0  0  0  0  0  0  0
   10.8094    1.8865    0.3895 H   0  0  0  0  0  0  0  0  0  0  0  0
    0.6291    1.0642    2.3281 H   0  0  0  0  0  0  0  0  0  0  0  0
   -1.8247    1.2364    2.0330 H   0  0  0  0  0  0  0  0  0  0  0  0
   -7.4643   -0.9684   -2.3224 H   0  0  0  0  0  0  0  0  0  0  0  0
   -6.7712   -2.3741   -3.2910 H   0  0  0  0  0  0  0  0  0  0  0  0
   -8.9258   -3.0669   -2.2754 H   0  0  0  0  0  0  0  0  0  0  0  0
   -8.2759   -2.5735   -0.6586 H   0  0  0  0  0  0  0  0  0  0  0  0
   -6.4694   -3.7500    0.2143 H   0  0  0  0  0  0  0  0  0  0  0  0
   -6.0095   -5.3240   -0.6441 H   0  0  0  0  0  0  0  0  0  0  0  0
   -4.2701   -3.5001   -1.0309 H   0  0  0  0  0  0  0  0  0  0  0  0
   -5.2888   -3.7744   -2.5604 H   0  0  0  0  0  0  0  0  0  0  0  0
  1  2  1  0
  2  3  1  0
  3  4  1  0
  4  5  1  0
  5  6  1  0
  6  7  1  0
  7  8  1  0
  8  9  2  0
  9 10  1  0
 10 11  2  0
 11 12  1  0
 12 13  2  0
 12 14  1  0
 14 15  2  0
 15 16  1  0
 16 17  2  0
 17 18  1  0
 18 19  1  0
 19 20  2  0
 19 21  1  0
 21 22  1  0
 22 23  2  0
 23 24  1  0
 24 25  2  0
 25 26  1  0
 26 27  2  0
 25 28  1  0
 28 29  1  0
 29 30  1  0
 30 31  1  0
 31 32  1  0
 32 33  1  0
 17 34  1  0
 34 35  2  0
 10 36  1  0
 36 37  1  0
 37 38  1  0
 38 39  1  0
 39 40  1  0
 40 41  1  0
  7  2  1  0
 13  8  1  0
 35 14  1  0
 41 36  1  0
 27 22  1  0
 33 28  1  0
  1 42  1  0
  1 43  1  0
  1 44  1  0
  2 45  1  1
  3 46  1  0
  3 47  1  0
  5 48  1  0
  5 49  1  0
  6 50  1  0
  6 51  1  0
 15 52  1  0
 16 53  1  0
 18 54  1  0
 21 55  1  0
 23 56  1  0
 24 57  1  0
 26 58  1  0
 27 59  1  0
 29 60  1  0
 29 61  1  0
 30 62  1  0
 30 63  1  0
 32 64  1  0
 32 65  1  0
 33 66  1  0
 33 67  1  0
 34 68  1  0
 35 69  1  0
 37 70  1  0
 37 71  1  0
 38 72  1  0
 38 73  1  0
 40 74  1  0
 40 75  1  0
 41 76  1  0
 41 77  1  0
M  END
$$$$
[H]c1c([H])c(C(F)(F)F)c([H])c([H])c1-c1nc2c([H])c([H])c(C(F)(F)F)c([H])c2n1[H]
     RDKit          3D

 31 33  0  0  0  0  0  0  0  0999 V2000
   -6.4681    0.2277    0.6013 F   0  0  0  0  0  0  0  0  0  0  0  0
   -5.6951    0.1706   -0.5437 C   0  0  0  0  0  0  0  0  0  0  0  0
   -6.1556   -0.7632   -1.4039 F   0  0  0  0  0  0  0  0  0  0  0  0
   -5.5813    1.4224   -1.1221 F   0  0  0  0  0  0  0  0  0  0  0  0
   -4.3201   -0.2610   -0.1012 C   0  0  0  0  0  0  0  0  0  0  0  0
   -4.1819   -1.1709    0.9358 C   0  0  0  0  0  0  0  0  0  0  0  0
   -2.9258   -1.4864    1.3377 C   0  0  0  0  0  0  0  0  0  0  0  0
   -1.7928   -0.9759    0.7996 C   0  0  0  0  0  0  0  0  0  0  0  0
   -0.4804   -1.1071    1.0241 N   0  0  0  0  0  0  0  0  0  0  0  0
    0.2229   -0.3452    0.1935 C   0  0  0  0  0  0  0  0  0  0  0  0
   -0.6821    0.2878   -0.5843 N   0  0  0  0  0  0  0  0  0  0  0  0
   -1.9535   -0.0606   -0.2542 C   0  0  0  0  0  0  0  0  0  0  0  0
   -3.2181    0.2878   -0.6932 C   0  0  0  0  0  0  0  0  0  0  0  0
    1.6790   -0.1362    0.1399 C   0  0  0  0  0  0  0  0  0  0  0  0
    2.2450    0.7626   -0.7639 C   0  0  0  0  0  0  0  0  0  0  0  0
    3.5849    1.0405   -0.7372 C   0  0  0  0  0  0  0  0  0  0  0  0
    4.4104    0.4530    0.1752 C   0  0  0  0  0  0  0  0  0  0  0  0
    3.8678   -0.4287    1.0609 C   0  0  0  0  0  0  0  0  0  0  0  0
    2.4996   -0.7320    1.0507 C   0  0  0  0  0  0  0  0  0  0  0  0
    5.8342    0.8483    0.1951 C   0  0  0  0  0  0  0  0  0  0  0  0
    5.8087    2.0795    0.9139 F   0  0  0  0  0  0  0  0  0  0  0  0
    6.6682   -0.0354    0.8073 F   0  0  0  0  0  0  0  0  0  0  0  0
    6.1891    1.1891   -1.0990 F   0  0  0  0  0  0  0  0  0  0  0  0
   -5.0856   -1.5794    1.3784 H   0  0  0  0  0  0  0  0  0  0  0  0
   -2.8413   -2.2235    2.1525 H   0  0  0  0  0  0  0  0  0  0  0  0
   -0.4309    0.9292   -1.3635 H   0  0  0  0  0  0  0  0  0  0  0  0
   -3.3236    0.9819   -1.5234 H   0  0  0  0  0  0  0  0  0  0  0  0
    1.5770    1.1982   -1.4846 H   0  0  0  0  0  0  0  0  0  0  0  0
    3.9905    1.7339   -1.4468 H   0  0  0  0  0  0  0  0  0  0  0  0
    4.5070   -0.8956    1.7569 H   0  0  0  0  0  0  0  0  0  0  0  0
    2.0517   -1.4112    1.7330 H   0  0  0  0  0  0  0  0  0  0  0  0
  1  2  1  0
  2  3  1  0
  2  4  1  0
  2  5  1  0
  5  6  2  0
  6  7  1  0
  7  8  2  0
  8  9  1  0
  9 10  2  0
 10 11  1  0
 11 12  1  0
 12 13  2  0
 10 14  1  0
 14 15  2  0
 15 16  1  0
 16 17  2  0
 17 18  1  0
 18 19  2  0
 17 20  1  0
 20 21  1  0
 20 22  1  0
 20 23  1  0
 13  5  1  0
 19 14  1  0
 12  8  1  0
  6 24  1  0
  7 25  1  0
 11 26  1  0
 13 27  1  0
 15 28  1  0
 16 29  1  0
 18 30  1  0
 19 31  1  0
M  END
$$$$
[H]Oc1c([H])c(O[H])c([H])c(C([H])([H])[C@]([H])(O[H])[C@]([H])(N([H])C([H])([H])[C@@]([H])(O[H])[C@]([H])(O[H])c2c([H])c([H])c([H])c(OC([H])([H])[H])c2[H])C([H])([H])O[H])c1[H]
     RDKit          3D

 55 56  0  0  0  0  0  0  0  0999 V2000
   -5.2104   -0.4973    0.7369 C   0  0  0  0  0  0  0  0  0  0  0  0
   -4.5611    0.6762    0.3560 C   0  0  0  0  0  0  0  0  0  0  0  0
   -3.2193    0.9782    0.7809 C   0  0  0  0  0  0  0  0  0  0  0  0
   -2.0444    0.8352   -0.0818 C   0  0  2  0  0  0  0  0  0  0  0  0
   -1.9772    1.5952   -1.2438 O   0  0  0  0  0  0  0  0  0  0  0  0
   -1.4524   -0.5142   -0.2109 C   0  0  2  0  0  0  0  0  0  0  0  0
    0.0199   -0.4617   -0.3869 N   0  0  0  0  0  0  0  0  0  0  0  0
    0.6648    0.0989    0.7592 C   0  0  0  0  0  0  0  0  0  0  0  0
    2.1210   -0.3421    0.7350 C   0  0  2  0  0  0  0  0  0  0  0  0
    2.9392    0.1530   -0.4022 C   0  0  1  0  0  0  0  0  0  0  0  0
    4.3267   -0.3983   -0.1651 C   0  0  0  0  0  0  0  0  0  0  0  0
    4.6446   -1.7061   -0.4221 C   0  0  0  0  0  0  0  0  0  0  0  0
    5.9456   -2.1626   -0.1788 C   0  0  0  0  0  0  0  0  0  0  0  0
    6.9094   -1.3294    0.3117 C   0  0  0  0  0  0  0  0  0  0  0  0
    6.5964   -0.0114    0.5733 C   0  0  0  0  0  0  0  0  0  0  0  0
    7.5237    0.8831    1.0679 O   0  0  0  0  0  0  0  0  0  0  0  0
    7.1513    2.2183    1.3173 C   0  0  0  0  0  0  0  0  0  0  0  0
    5.2942    0.4329    0.3259 C   0  0  0  0  0  0  0  0  0  0  0  0
    2.4898   -0.2911   -1.6482 O   0  0  0  0  0  0  0  0  0  0  0  0
    2.1314   -1.7483    0.7949 O   0  0  0  0  0  0  0  0  0  0  0  0
   -1.8456   -1.1767   -1.5497 C   0  0  0  0  0  0  0  0  0  0  0  0
   -3.1327   -1.4079   -1.7740 O   0  0  0  0  0  0  0  0  0  0  0  0
   -5.2577    1.5609   -0.4672 C   0  0  0  0  0  0  0  0  0  0  0  0
   -6.5406    1.3312   -0.9147 C   0  0  0  0  0  0  0  0  0  0  0  0
   -7.2375    2.2247   -1.7386 O   0  0  0  0  0  0  0  0  0  0  0  0
   -7.1313    0.1549   -0.5078 C   0  0  0  0  0  0  0  0  0  0  0  0
   -6.4789   -0.7429    0.3029 C   0  0  0  0  0  0  0  0  0  0  0  0
   -7.1167   -1.9160    0.6881 O   0  0  0  0  0  0  0  0  0  0  0  0
   -4.6858   -1.1831    1.3670 H   0  0  0  0  0  0  0  0  0  0  0  0
   -3.2746    2.0373    1.2339 H   0  0  0  0  0  0  0  0  0  0  0  0
   -3.0129    0.3818    1.7454 H   0  0  0  0  0  0  0  0  0  0  0  0
   -1.2186    1.4060    0.5555 H   0  0  0  0  0  0  0  0  0  0  0  0
   -2.5168    1.2548   -1.9720 H   0  0  0  0  0  0  0  0  0  0  0  0
   -1.7368   -1.1579    0.6185 H   0  0  0  0  0  0  0  0  0  0  0  0
    0.1937    0.1059   -1.2618 H   0  0  0  0  0  0  0  0  0  0  0  0
    0.6340    1.2214    0.7969 H   0  0  0  0  0  0  0  0  0  0  0  0
    0.2524   -0.2494    1.7243 H   0  0  0  0  0  0  0  0  0  0  0  0
    2.5740    0.0206    1.6799 H   0  0  0  0  0  0  0  0  0  0  0  0
    3.0078    1.2313   -0.4118 H   0  0  0  0  0  0  0  0  0  0  0  0
    3.9064   -2.3733   -0.8048 H   0  0  0  0  0  0  0  0  0  0  0  0
    6.1942   -3.2114   -0.3865 H   0  0  0  0  0  0  0  0  0  0  0  0
    7.9276   -1.6229    0.5190 H   0  0  0  0  0  0  0  0  0  0  0  0
    6.6634    2.7162    0.4436 H   0  0  0  0  0  0  0  0  0  0  0  0
    6.4435    2.2918    2.1772 H   0  0  0  0  0  0  0  0  0  0  0  0
    8.1042    2.7604    1.5339 H   0  0  0  0  0  0  0  0  0  0  0  0
    5.0582    1.4831    0.5399 H   0  0  0  0  0  0  0  0  0  0  0  0
    2.2482   -1.2473   -1.6236 H   0  0  0  0  0  0  0  0  0  0  0  0
    1.2362   -2.1153    0.5598 H   0  0  0  0  0  0  0  0  0  0  0  0
   -1.4473   -0.5034   -2.3773 H   0  0  0  0  0  0  0  0  0  0  0  0
   -1.2428   -2.0972   -1.6699 H   0  0  0  0  0  0  0  0  0  0  0  0
   -3.4793   -2.3097   -1.5333 H   0  0  0  0  0  0  0  0  0  0  0  0
   -4.7537    2.4776   -0.7668 H   0  0  0  0  0  0  0  0  0  0  0  0
   -7.7893    2.9206   -1.2361 H   0  0  0  0  0  0  0  0  0  0  0  0
   -8.1486   -0.0628   -0.8380 H   0  0  0  0  0  0  0  0  0  0  0  0
   -6.6894   -2.6116    1.2802 H   0  0  0  0  0  0  0  0  0  0  0  0
  1  2  2  0
  2  3  1  0
  3  4  1  0
  4  5  1  0
  4  6  1  0
  6  7  1  0
  7  8  1  0
  8  9  1  0
  9 10  1  0
 10 11  1  0
 11 12  2  0
 12 13  1  0
 13 14  2  0
 14 15  1  0
 15 16  1  0
 16 17  1  0
 15 18  2  0
 10 19  1  0
  9 20  1  0
  6 21  1  0
 21 22  1  0
  2 23  1  0
 23 24  2  0
 24 25  1  0
 24 26  1  0
 26 27  2  0
 27 28  1  0
 27  1  1  0
 18 11  1  0
  1 29  1  0
  3 30  1  0
  3 31  1  0
  4 32  1  1
  5 33  1  0
  6 34  1  1
  7 35  1  0
  8 36  1  0
  8 37  1  0
  9 38  1  1
 10 39  1  6
 12 40  1  0
 13 41  1  0
 14 42  1  0
 17 43  1  0
 17 44  1  0
 17 45  1  0
 18 46  1  0
 19 47  1  0
 20 48  1  0
 21 49  1  0
 21 50  1  0
 22 51  1  0
 23 52  1  0
 25 53  1  0
 26 54  1  0
 28 55  1  0
M  END
$$$$
[H]c1nc(N([H])c2c([H])c(N3C([H])([H])C([H])([H])OC([H])([H])C3([H])[H])c([H])c(N3C([H])([H])C([H])([H])OC([H])([H])C3([H])[H])c2[H])nc(N(c2c([H])c([H])c([H])c([H])c2C([H])([H])[H])C([H])([H])[H])c1[H]
     RDKit          3D

 66 70  0  0  0  0  0  0  0  0999 V2000
    6.1608   -2.1997    0.6736 C   0  0  0  0  0  0  0  0  0  0  0  0
    5.1612   -1.2182    0.3883 N   0  0  0  0  0  0  0  0  0  0  0  0
    3.7693   -1.4917    0.5016 C   0  0  0  0  0  0  0  0  0  0  0  0
    3.3615   -2.7475    0.9001 C   0  0  0  0  0  0  0  0  0  0  0  0
    1.9892   -3.0034    1.0071 C   0  0  0  0  0  0  0  0  0  0  0  0
    1.1590   -2.0019    0.7124 N   0  0  0  0  0  0  0  0  0  0  0  0
    1.4947   -0.7761    0.3246 C   0  0  0  0  0  0  0  0  0  0  0  0
    0.6234    0.2880    0.0105 N   0  0  0  0  0  0  0  0  0  0  0  0
   -0.7697    0.2806    0.0267 C   0  0  0  0  0  0  0  0  0  0  0  0
   -1.5189   -0.8622    0.0027 C   0  0  0  0  0  0  0  0  0  0  0  0
   -2.9197   -0.8270    0.0422 C   0  0  0  0  0  0  0  0  0  0  0  0
   -3.5221    0.4014    0.1056 C   0  0  0  0  0  0  0  0  0  0  0  0
   -2.8238    1.5862    0.1320 C   0  0  0  0  0  0  0  0  0  0  0  0
   -1.4560    1.5163    0.0925 C   0  0  0  0  0  0  0  0  0  0  0  0
   -3.4851    2.8647    0.1975 N   0  0  0  0  0  0  0  0  0  0  0  0
   -2.7276    4.0782    0.2334 C   0  0  0  0  0  0  0  0  0  0  0  0
   -3.5907    5.2544    0.5569 C   0  0  0  0  0  0  0  0  0  0  0  0
   -4.7888    5.1575   -0.1822 O   0  0  0  0  0  0  0  0  0  0  0  0
   -5.5462    4.1981    0.4457 C   0  0  0  0  0  0  0  0  0  0  0  0
   -4.9308    2.8582    0.2240 C   0  0  0  0  0  0  0  0  0  0  0  0
   -3.6497   -2.0588    0.0169 N   0  0  0  0  0  0  0  0  0  0  0  0
   -2.9326   -3.3215    0.0094 C   0  0  0  0  0  0  0  0  0  0  0  0
   -3.9296   -4.4588    0.1569 C   0  0  0  0  0  0  0  0  0  0  0  0
   -4.9039   -4.4253   -0.8081 O   0  0  0  0  0  0  0  0  0  0  0  0
   -5.5267   -3.2172   -0.9739 C   0  0  0  0  0  0  0  0  0  0  0  0
   -5.0906   -2.1418   -0.0033 C   0  0  0  0  0  0  0  0  0  0  0  0
    2.8521   -0.5599    0.2302 N   0  0  0  0  0  0  0  0  0  0  0  0
    5.5904    0.0752   -0.0235 C   0  0  0  0  0  0  0  0  0  0  0  0
    5.2141    1.1394    0.7735 C   0  0  0  0  0  0  0  0  0  0  0  0
    5.6086    2.4213    0.4128 C   0  0  0  0  0  0  0  0  0  0  0  0
    6.3598    2.6470   -0.7126 C   0  0  0  0  0  0  0  0  0  0  0  0
    6.7257    1.5552   -1.4987 C   0  0  0  0  0  0  0  0  0  0  0  0
    6.3431    0.2842   -1.1547 C   0  0  0  0  0  0  0  0  0  0  0  0
    6.7158   -0.8924   -1.9681 C   0  0  0  0  0  0  0  0  0  0  0  0
    6.2552   -2.9601   -0.1493 H   0  0  0  0  0  0  0  0  0  0  0  0
    5.9686   -2.7847    1.5960 H   0  0  0  0  0  0  0  0  0  0  0  0
    7.1702   -1.7485    0.8205 H   0  0  0  0  0  0  0  0  0  0  0  0
    4.1145   -3.4733    1.1106 H   0  0  0  0  0  0  0  0  0  0  0  0
    1.6752   -3.9768    1.3162 H   0  0  0  0  0  0  0  0  0  0  0  0
    1.0975    1.1986   -0.2751 H   0  0  0  0  0  0  0  0  0  0  0  0
   -1.0944   -1.8610   -0.0630 H   0  0  0  0  0  0  0  0  0  0  0  0
   -4.5992    0.4571    0.1387 H   0  0  0  0  0  0  0  0  0  0  0  0
   -0.8308    2.4142    0.1107 H   0  0  0  0  0  0  0  0  0  0  0  0
   -1.9124    4.0546    0.9992 H   0  0  0  0  0  0  0  0  0  0  0  0
   -2.2074    4.2854   -0.7293 H   0  0  0  0  0  0  0  0  0  0  0  0
   -3.1228    6.2106    0.2387 H   0  0  0  0  0  0  0  0  0  0  0  0
   -3.8819    5.2590    1.6194 H   0  0  0  0  0  0  0  0  0  0  0  0
   -6.6020    4.1672    0.1229 H   0  0  0  0  0  0  0  0  0  0  0  0
   -5.5472    4.4014    1.5355 H   0  0  0  0  0  0  0  0  0  0  0  0
   -5.3215    2.3239   -0.6657 H   0  0  0  0  0  0  0  0  0  0  0  0
   -5.2128    2.2038    1.1000 H   0  0  0  0  0  0  0  0  0  0  0  0
   -2.3149   -3.4668   -0.8936 H   0  0  0  0  0  0  0  0  0  0  0  0
   -2.3277   -3.3297    0.9427 H   0  0  0  0  0  0  0  0  0  0  0  0
   -3.3506   -5.4059    0.0181 H   0  0  0  0  0  0  0  0  0  0  0  0
   -4.3356   -4.4996    1.1903 H   0  0  0  0  0  0  0  0  0  0  0  0
   -6.6446   -3.3259   -0.8917 H   0  0  0  0  0  0  0  0  0  0  0  0
   -5.3508   -2.8653   -2.0127 H   0  0  0  0  0  0  0  0  0  0  0  0
   -5.5934   -1.2253   -0.3068 H   0  0  0  0  0  0  0  0  0  0  0  0
   -5.4817   -2.4374    1.0116 H   0  0  0  0  0  0  0  0  0  0  0  0
    4.6122    0.9914    1.6814 H   0  0  0  0  0  0  0  0  0  0  0  0
    5.3149    3.2649    1.0376 H   0  0  0  0  0  0  0  0  0  0  0  0
    6.6722    3.6171   -1.0070 H   0  0  0  0  0  0  0  0  0  0  0  0
    7.3157    1.6616   -2.3974 H   0  0  0  0  0  0  0  0  0  0  0  0
    5.8674   -1.5800   -2.1096 H   0  0  0  0  0  0  0  0  0  0  0  0
    7.0511   -0.5611   -2.9768 H   0  0  0  0  0  0  0  0  0  0  0  0
    7.6008   -1.4121   -1.5174 H   0  0  0  0  0  0  0  0  0  0  0  0
  1  2  1  0
  2  3  1  0
  3  4  2  0
  4  5  1  0
  5  6  2  0
  6  7  1  0
  7  8  1  0
  8  9  1  0
  9 10  2  0
 10 11  1  0
 11 12  2  0
 12 13  1  0
 13 14  2  0
 13 15  1  0
 15 16  1  0
 16 17  1  0
 17 18  1  0
 18 19  1  0
 19 20  1  0
 11 21  1  0
 21 22  1  0
 22 23  1  0
 23 24  1  0
 24 25  1  0
 25 26  1  0
  7 27  2  0
  2 28  1  0
 28 29  2  0
 29 30  1  0
 30 31  2  0
 31 32  1  0
 32 33  2  0
 33 34  1  0
 27  3  1  0
 33 28  1  0
 14  9  1  0
 20 15  1  0
 26 21  1  0
  1 35  1  0
  1 36  1  0
  1 37  1  0
  4 38  1  0
  5 39  1  0
  8 40  1  0
 10 41  1  0
 12 42  1  0
 14 43  1  0
 16 44  1  0
 16 45  1  0
 17 46  1  0
 17 47  1  0
 19 48  1  0
 19 49  1  0
 20 50  1  0
 20 51  1  0
 22 52  1  0
 22 53  1  0
 23 54  1  0
 23 55  1  0
 25 56  1  0
 25 57  1  0
 26 58  1  0
 26 59  1  0
 29 60  1  0
 30 61  1  0
 31 62  1  0
 32 63  1  0
 34 64  1  0
 34 65  1  0
 34 66  1  0
M  END
$$$$
[H]c1sc([H])c(N([H])C(=O)c2c([H])c([H])c([H])c([H])c2N2C([H])([H])C([H])([H])N(C([H])([H])[H])C([H])([H])C2([H])[H])c1[H]
     RDKit          3D

 40 42  0  0  0  0  0  0  0  0999 V2000
    4.0982    2.4153    0.2630 C   0  0  0  0  0  0  0  0  0  0  0  0
    3.1738    1.3533   -0.0630 N   0  0  0  0  0  0  0  0  0  0  0  0
    1.9084    1.8246   -0.4968 C   0  0  0  0  0  0  0  0  0  0  0  0
    0.8239    0.7837   -0.5880 C   0  0  0  0  0  0  0  0  0  0  0  0
    1.0118   -0.2778    0.3537 N   0  0  0  0  0  0  0  0  0  0  0  0
    1.8490   -0.0032    1.5015 C   0  0  0  0  0  0  0  0  0  0  0  0
    3.1994    0.3963    0.9867 C   0  0  0  0  0  0  0  0  0  0  0  0
    0.4338   -1.5552    0.2225 C   0  0  0  0  0  0  0  0  0  0  0  0
    1.3509   -2.5859   -0.0555 C   0  0  0  0  0  0  0  0  0  0  0  0
    0.8775   -3.8625   -0.1768 C   0  0  0  0  0  0  0  0  0  0  0  0
   -0.4646   -4.1444   -0.0327 C   0  0  0  0  0  0  0  0  0  0  0  0
   -1.3396   -3.1179    0.2372 C   0  0  0  0  0  0  0  0  0  0  0  0
   -0.8895   -1.7899    0.3713 C   0  0  0  0  0  0  0  0  0  0  0  0
   -1.8442   -0.7382    0.6536 C   0  0  0  0  0  0  0  0  0  0  0  0
   -1.8724   -0.3269    1.8341 O   0  0  0  0  0  0  0  0  0  0  0  0
   -2.6822   -0.2430   -0.3512 N   0  0  0  0  0  0  0  0  0  0  0  0
   -3.6858    0.7753   -0.1661 C   0  0  0  0  0  0  0  0  0  0  0  0
   -4.1641    1.5211   -1.1864 C   0  0  0  0  0  0  0  0  0  0  0  0
   -5.1330    2.4352   -0.8912 C   0  0  0  0  0  0  0  0  0  0  0  0
   -5.3635    2.2482    0.7793 S   0  0  0  0  0  0  0  0  0  0  0  0
   -4.2189    1.0019    1.0744 C   0  0  0  0  0  0  0  0  0  0  0  0
    4.4522    2.9559   -0.6407 H   0  0  0  0  0  0  0  0  0  0  0  0
    5.0022    1.9132    0.6968 H   0  0  0  0  0  0  0  0  0  0  0  0
    3.6818    3.0483    1.0481 H   0  0  0  0  0  0  0  0  0  0  0  0
    1.5455    2.6952    0.1086 H   0  0  0  0  0  0  0  0  0  0  0  0
    2.0535    2.2243   -1.5452 H   0  0  0  0  0  0  0  0  0  0  0  0
    0.7050    0.3906   -1.6214 H   0  0  0  0  0  0  0  0  0  0  0  0
   -0.1452    1.3063   -0.3490 H   0  0  0  0  0  0  0  0  0  0  0  0
    1.4291    0.9316    1.9750 H   0  0  0  0  0  0  0  0  0  0  0  0
    1.9183   -0.8574    2.2035 H   0  0  0  0  0  0  0  0  0  0  0  0
    3.7967   -0.4825    0.6498 H   0  0  0  0  0  0  0  0  0  0  0  0
    3.7437    0.8177    1.8920 H   0  0  0  0  0  0  0  0  0  0  0  0
    2.4052   -2.3860   -0.1661 H   0  0  0  0  0  0  0  0  0  0  0  0
    1.6173   -4.6544   -0.3858 H   0  0  0  0  0  0  0  0  0  0  0  0
   -0.8143   -5.1676   -0.1449 H   0  0  0  0  0  0  0  0  0  0  0  0
   -2.4023   -3.2777    0.3608 H   0  0  0  0  0  0  0  0  0  0  0  0
   -2.6064   -0.6427   -1.3261 H   0  0  0  0  0  0  0  0  0  0  0  0
   -3.8225    1.4294   -2.2489 H   0  0  0  0  0  0  0  0  0  0  0  0
   -5.6268    3.1344   -1.5981 H   0  0  0  0  0  0  0  0  0  0  0  0
   -4.0019    0.5114    2.0443 H   0  0  0  0  0  0  0  0  0  0  0  0
  1  2  1  0
  2  3  1  0
  3  4  1  0
  4  5  1  0
  5  6  1  0
  6  7  1  0
  5  8  1  0
  8  9  2  0
  9 10  1  0
 10 11  2  0
 11 12  1  0
 12 13  2  0
 13 14  1  0
 14 15  2  0
 14 16  1  0
 16 17  1  0
 17 18  1  0
 18 19  2  0
 19 20  1  0
 20 21  1  0
  7  2  1  0
 13  8  1  0
 21 17  2  0
  1 22  1  0
  1 23  1  0
  1 24  1  0
  3 25  1  0
  3 26  1  0
  4 27  1  0
  4 28  1  0
  6 29  1  0
  6 30  1  0
  7 31  1  0
  7 32  1  0
  9 33  1  0
 10 34  1  0
 11 35  1  0
 12 36  1  0
 16 37  1  0
 18 38  1  0
 19 39  1  0
 21 40  1  0
M  END
$$$$
[H]c1c([H])c([H])c(C([H])([H])[C@@]([H])(C(=O)N([H])[C@]([H])(C(=O)N([H])[C@]([H])(C(=O)N([H])[H])C([H])([H])c2c([H])n([H])c3c([H])c([H])c([H])c([H])c23)C([H])([H])C([H])([H])C([H])([H])N=C(N([H])[H])N([H])[H])N([H])C(=O)[C@@]([H])(N([H])[H])C([H])([H])C([H])(C([H])([H])[H])C([H])([H])[H])c([H])c1[H]
     RDKit          3D

 90 92  0  0  0  0  0  0  0  0999 V2000
    7.6130   -3.0673    2.2949 C   0  0  0  0  0  0  0  0  0  0  0  0
    7.9955   -2.4437    0.9729 C   0  0  0  0  0  0  0  0  0  0  0  0
    9.4724   -2.1739    0.9209 C   0  0  0  0  0  0  0  0  0  0  0  0
    7.1943   -1.1587    0.8141 C   0  0  0  0  0  0  0  0  0  0  0  0
    5.7254   -1.4309    0.8317 C   0  0  2  0  0  0  0  0  0  0  0  0
    5.2942   -2.3142   -0.2210 N   0  0  0  0  0  0  0  0  0  0  0  0
    4.9149   -0.1866    0.8431 C   0  0  0  0  0  0  0  0  0  0  0  0
    5.1776    0.7619    1.6208 O   0  0  0  0  0  0  0  0  0  0  0  0
    3.8246   -0.0845   -0.0466 N   0  0  0  0  0  0  0  0  0  0  0  0
    2.9536    1.0908   -0.1260 C   0  0  1  0  0  0  0  0  0  0  0  0
    2.9644    1.7150   -1.4579 C   0  0  0  0  0  0  0  0  0  0  0  0
    2.5462    0.8808   -2.5964 C   0  0  0  0  0  0  0  0  0  0  0  0
    3.4724    0.0223   -3.1749 C   0  0  0  0  0  0  0  0  0  0  0  0
    3.1349   -0.7434   -4.2557 C   0  0  0  0  0  0  0  0  0  0  0  0
    1.8605   -0.6963   -4.8184 C   0  0  0  0  0  0  0  0  0  0  0  0
    0.9769    0.1647   -4.2167 C   0  0  0  0  0  0  0  0  0  0  0  0
    1.2949    0.9422   -3.1313 C   0  0  0  0  0  0  0  0  0  0  0  0
    1.6829    0.7790    0.5182 C   0  0  0  0  0  0  0  0  0  0  0  0
    1.5329   -0.3713    1.0959 O   0  0  0  0  0  0  0  0  0  0  0  0
    0.5917    1.6724    0.5571 N   0  0  0  0  0  0  0  0  0  0  0  0
   -0.6157    1.2998    1.2636 C   0  0  1  0  0  0  0  0  0  0  0  0
   -1.1202    2.4029    2.1482 C   0  0  0  0  0  0  0  0  0  0  0  0
   -1.4411    3.6578    1.3634 C   0  0  0  0  0  0  0  0  0  0  0  0
   -1.9492    4.7066    2.3577 C   0  0  0  0  0  0  0  0  0  0  0  0
   -2.2566    5.9362    1.6401 N   0  0  0  0  0  0  0  0  0  0  0  0
   -3.3937    6.5105    1.6301 C   0  0  0  0  0  0  0  0  0  0  0  0
   -3.6069    7.7001    0.9074 N   0  0  0  0  0  0  0  0  0  0  0  0
   -4.4757    5.9525    2.3553 N   0  0  0  0  0  0  0  0  0  0  0  0
   -1.6263    0.7769    0.3345 C   0  0  0  0  0  0  0  0  0  0  0  0
   -1.5017    0.8206   -0.9224 O   0  0  0  0  0  0  0  0  0  0  0  0
   -2.7863    0.1914    0.8780 N   0  0  0  0  0  0  0  0  0  0  0  0
   -3.8059   -0.3565   -0.0330 C   0  0  1  0  0  0  0  0  0  0  0  0
   -3.5795   -1.8267   -0.0981 C   0  0  0  0  0  0  0  0  0  0  0  0
   -4.4723   -2.6392   -0.8996 C   0  0  0  0  0  0  0  0  0  0  0  0
   -4.3191   -2.8934   -2.2753 C   0  0  0  0  0  0  0  0  0  0  0  0
   -5.3634   -3.6367   -2.6275 N   0  0  0  0  0  0  0  0  0  0  0  0
   -6.1923   -3.8878   -1.5704 C   0  0  0  0  0  0  0  0  0  0  0  0
   -7.3547   -4.6153   -1.4546 C   0  0  0  0  0  0  0  0  0  0  0  0
   -8.0012   -4.7478   -0.2555 C   0  0  0  0  0  0  0  0  0  0  0  0
   -7.4628   -4.1279    0.8707 C   0  0  0  0  0  0  0  0  0  0  0  0
   -6.3009   -3.4035    0.7390 C   0  0  0  0  0  0  0  0  0  0  0  0
   -5.6416   -3.2646   -0.4736 C   0  0  0  0  0  0  0  0  0  0  0  0
   -5.1290    0.1515    0.2792 C   0  0  0  0  0  0  0  0  0  0  0  0
   -6.2742   -0.0289   -0.5515 N   0  0  0  0  0  0  0  0  0  0  0  0
   -5.3818    0.8260    1.3477 O   0  0  0  0  0  0  0  0  0  0  0  0
    7.2642   -2.2790    3.0043 H   0  0  0  0  0  0  0  0  0  0  0  0
    6.7730   -3.8013    2.1109 H   0  0  0  0  0  0  0  0  0  0  0  0
    8.4722   -3.6206    2.7528 H   0  0  0  0  0  0  0  0  0  0  0  0
    7.7598   -3.1703    0.1812 H   0  0  0  0  0  0  0  0  0  0  0  0
    9.6258   -1.1549    0.5399 H   0  0  0  0  0  0  0  0  0  0  0  0
    9.8862   -2.1844    1.9542 H   0  0  0  0  0  0  0  0  0  0  0  0
    9.9974   -2.8802    0.2563 H   0  0  0  0  0  0  0  0  0  0  0  0
    7.4918   -0.7178   -0.1579 H   0  0  0  0  0  0  0  0  0  0  0  0
    7.4872   -0.4439    1.6065 H   0  0  0  0  0  0  0  0  0  0  0  0
    5.5164   -1.9789    1.8019 H   0  0  0  0  0  0  0  0  0  0  0  0
    5.8437   -2.2114   -1.0917 H   0  0  0  0  0  0  0  0  0  0  0  0
    5.1993   -3.2965    0.0947 H   0  0  0  0  0  0  0  0  0  0  0  0
    3.6089   -0.8724   -0.6808 H   0  0  0  0  0  0  0  0  0  0  0  0
    3.4506    1.8481    0.6007 H   0  0  0  0  0  0  0  0  0  0  0  0
    2.3264    2.6443   -1.5157 H   0  0  0  0  0  0  0  0  0  0  0  0
    3.9904    2.0996   -1.6785 H   0  0  0  0  0  0  0  0  0  0  0  0
    4.4788   -0.0230   -2.7438 H   0  0  0  0  0  0  0  0  0  0  0  0
    3.8610   -1.4265   -4.7224 H   0  0  0  0  0  0  0  0  0  0  0  0
    1.6198   -1.3208   -5.6861 H   0  0  0  0  0  0  0  0  0  0  0  0
   -0.0321    0.2295   -4.6294 H   0  0  0  0  0  0  0  0  0  0  0  0
    0.5515    1.6322   -2.6889 H   0  0  0  0  0  0  0  0  0  0  0  0
    0.6482    2.5821    0.0864 H   0  0  0  0  0  0  0  0  0  0  0  0
   -0.3557    0.4256    1.9420 H   0  0  0  0  0  0  0  0  0  0  0  0
   -1.9888    2.0469    2.7118 H   0  0  0  0  0  0  0  0  0  0  0  0
   -0.3051    2.6480    2.8552 H   0  0  0  0  0  0  0  0  0  0  0  0
   -0.4942    4.0359    0.9240 H   0  0  0  0  0  0  0  0  0  0  0  0
   -2.2267    3.4835    0.6256 H   0  0  0  0  0  0  0  0  0  0  0  0
   -2.8564    4.3429    2.8776 H   0  0  0  0  0  0  0  0  0  0  0  0
   -1.1965    4.9646    3.1091 H   0  0  0  0  0  0  0  0  0  0  0  0
   -3.7249    8.6237    1.3398 H   0  0  0  0  0  0  0  0  0  0  0  0
   -3.6515    7.6524   -0.1421 H   0  0  0  0  0  0  0  0  0  0  0  0
   -4.3316    5.6827    3.3714 H   0  0  0  0  0  0  0  0  0  0  0  0
   -5.3874    5.8088    1.9138 H   0  0  0  0  0  0  0  0  0  0  0  0
   -2.9481    0.1317    1.8790 H   0  0  0  0  0  0  0  0  0  0  0  0
   -3.5283    0.1075   -1.0512 H   0  0  0  0  0  0  0  0  0  0  0  0
   -2.4931   -1.9868   -0.3867 H   0  0  0  0  0  0  0  0  0  0  0  0
   -3.5876   -2.2104    0.9739 H   0  0  0  0  0  0  0  0  0  0  0  0
   -3.4868   -2.5218   -2.8578 H   0  0  0  0  0  0  0  0  0  0  0  0
   -5.5186   -3.9856   -3.6142 H   0  0  0  0  0  0  0  0  0  0  0  0
   -7.7613   -5.0863   -2.3258 H   0  0  0  0  0  0  0  0  0  0  0  0
   -8.9325   -5.3303   -0.1562 H   0  0  0  0  0  0  0  0  0  0  0  0
   -7.9950   -4.2520    1.8021 H   0  0  0  0  0  0  0  0  0  0  0  0
   -5.8650   -2.9152    1.5999 H   0  0  0  0  0  0  0  0  0  0  0  0
   -7.1331   -0.4161   -0.1522 H   0  0  0  0  0  0  0  0  0  0  0  0
   -6.2232    0.2337   -1.5455 H   0  0  0  0  0  0  0  0  0  0  0  0
  1  2  1  0
  2  3  1  0
  2  4  1  0
  4  5  1  0
  5  6  1  0
  5  7  1  0
  7  8  2  0
  7  9  1  0
  9 10  1  0
 10 11  1  0
 11 12  1  0
 12 13  2  0
 13 14  1  0
 14 15  2  0
 15 16  1  0
 16 17  2  0
 10 18  1  0
 18 19  2  0
 18 20  1  0
 20 21  1  0
 21 22  1  0
 22 23  1  0
 23 24  1  0
 24 25  1  0
 25 26  2  3
 26 27  1  0
 26 28  1  0
 21 29  1  0
 29 30  2  0
 29 31  1  0
 31 32  1  0
 32 33  1  0
 33 34  1  0
 34 35  2  0
 35 36  1  0
 36 37  1  0
 37 38  2  0
 38 39  1  0
 39 40  2  0
 40 41  1  0
 41 42  2  0
 32 43  1  0
 43 44  1  0
 43 45  2  0
 17 12  1  0
 42 34  1  0
 42 37  1  0
  1 46  1  0
  1 47  1  0
  1 48  1  0
  2 49  1  0
  3 50  1  0
  3 51  1  0
  3 52  1  0
  4 53  1  0
  4 54  1  0
  5 55  1  1
  6 56  1  0
  6 57  1  0
  9 58  1  0
 10 59  1  1
 11 60  1  0
 11 61  1  0
 13 62  1  0
 14 63  1  0
 15 64  1  0
 16 65  1  0
 17 66  1  0
 20 67  1  0
 21 68  1  1
 22 69  1  0
 22 70  1  0
 23 71  1  0
 23 72  1  0
 24 73  1  0
 24 74  1  0
 27 75  1  0
 27 76  1  0
 28 77  1  0
 28 78  1  0
 31 79  1  0
 32 80  1  6
 33 81  1  0
 33 82  1  0
 35 83  1  0
 36 84  1  0
 38 85  1  0
 39 86  1  0
 40 87  1  0
 41 88  1  0
 44 89  1  0
 44 90  1  0
M  END
$$$$
[H]OC(=O)[C@@]1([H])N(C(=O)[C@]2([H])C([H])([H])N(C(=O)[C@@]3([H])N(C(=O)[C@@]([H])(N([H])C(=O)OC(C([H])([H])[H])(C([H])([H])[H])C([H])([H])[H])C([H])([H])c4c([H])c([H])c([H])c([H])c4[H])C([H])([H])C([H])([H])C3([H])[H])C([H])([H])C([H])([H])[C@@]2([H])c2c([H])c([H])c([H])c([H])c2[H])C([H])([H])C([H])([H])C1([H])[H]
     RDKit          3D

 93 97  0  0  0  0  0  0  0  0999 V2000
   -7.0522   -1.5539    2.9725 O   0  0  0  0  0  0  0  0  0  0  0  0
   -6.8470   -1.8147    1.6187 C   0  0  0  0  0  0  0  0  0  0  0  0
   -6.8246   -2.9850    1.1968 O   0  0  0  0  0  0  0  0  0  0  0  0
   -6.6533   -0.6039    0.7369 C   0  0  2  0  0  0  0  0  0  0  0  0
   -8.0496    0.0439    0.6958 C   0  0  0  0  0  0  0  0  0  0  0  0
   -8.7291   -0.6083   -0.4727 C   0  0  0  0  0  0  0  0  0  0  0  0
   -7.6594   -1.3796   -1.2041 C   0  0  0  0  0  0  0  0  0  0  0  0
   -6.4219   -0.9064   -0.6214 N   0  0  0  0  0  0  0  0  0  0  0  0
   -5.2095   -0.8081   -1.3596 C   0  0  0  0  0  0  0  0  0  0  0  0
   -5.3363   -1.1402   -2.6131 O   0  0  0  0  0  0  0  0  0  0  0  0
   -3.8857   -0.3961   -0.9202 C   0  0  2  0  0  0  0  0  0  0  0  0
   -3.1733   -1.4229   -0.0712 C   0  0  0  0  0  0  0  0  0  0  0  0
   -1.7254   -1.1091   -0.0567 N   0  0  0  0  0  0  0  0  0  0  0  0
   -1.3825    0.1005   -0.7638 C   0  0  0  0  0  0  0  0  0  0  0  0
   -2.2218    1.2538   -0.2916 C   0  0  0  0  0  0  0  0  0  0  0  0
   -3.7099    0.9268   -0.2692 C   0  0  1  0  0  0  0  0  0  0  0  0
   -4.4095    2.0528   -0.8665 C   0  0  0  0  0  0  0  0  0  0  0  0
   -5.1135    2.9065   -0.0359 C   0  0  0  0  0  0  0  0  0  0  0  0
   -5.7724    4.0087   -0.5247 C   0  0  0  0  0  0  0  0  0  0  0  0
   -5.7728    4.3337   -1.8668 C   0  0  0  0  0  0  0  0  0  0  0  0
   -5.0779    3.4868   -2.6920 C   0  0  0  0  0  0  0  0  0  0  0  0
   -4.4185    2.3856   -2.2039 C   0  0  0  0  0  0  0  0  0  0  0  0
   -0.8027   -1.9386    0.5748 C   0  0  0  0  0  0  0  0  0  0  0  0
   -1.5315   -3.0320    1.0720 O   0  0  0  0  0  0  0  0  0  0  0  0
    0.5431   -2.1125    0.8981 C   0  0  2  0  0  0  0  0  0  0  0  0
    0.6552   -2.2369    2.4467 C   0  0  0  0  0  0  0  0  0  0  0  0
    0.9873   -0.8565    2.9012 C   0  0  0  0  0  0  0  0  0  0  0  0
    1.5020   -0.1215    1.6387 C   0  0  0  0  0  0  0  0  0  0  0  0
    1.6029   -1.1874    0.6681 N   0  0  0  0  0  0  0  0  0  0  0  0
    2.7217   -1.3759   -0.2160 C   0  0  0  0  0  0  0  0  0  0  0  0
    2.7972   -2.5527   -0.7385 O   0  0  0  0  0  0  0  0  0  0  0  0
    3.7420   -0.4373   -0.5549 C   0  0  2  0  0  0  0  0  0  0  0  0
    4.6174   -0.9614   -1.7413 C   0  0  0  0  0  0  0  0  0  0  0  0
    5.1854   -2.2909   -1.5505 C   0  0  0  0  0  0  0  0  0  0  0  0
    5.8753   -2.7197   -0.4657 C   0  0  0  0  0  0  0  0  0  0  0  0
    6.4366   -3.9974   -0.4359 C   0  0  0  0  0  0  0  0  0  0  0  0
    6.3070   -4.8631   -1.5042 C   0  0  0  0  0  0  0  0  0  0  0  0
    5.5993   -4.4454   -2.6384 C   0  0  0  0  0  0  0  0  0  0  0  0
    5.0675   -3.1884   -2.6305 C   0  0  0  0  0  0  0  0  0  0  0  0
    4.7078   -0.0401    0.4107 N   0  0  0  0  0  0  0  0  0  0  0  0
    5.4346    1.1755    0.1133 C   0  0  0  0  0  0  0  0  0  0  0  0
    5.2078    1.8376   -0.9468 O   0  0  0  0  0  0  0  0  0  0  0  0
    6.4183    1.6978    0.9408 O   0  0  0  0  0  0  0  0  0  0  0  0
    7.1683    2.8581    0.6550 C   0  0  0  0  0  0  0  0  0  0  0  0
    7.9942    2.7354   -0.6189 C   0  0  0  0  0  0  0  0  0  0  0  0
    8.1504    3.0266    1.8082 C   0  0  0  0  0  0  0  0  0  0  0  0
    6.3637    4.1211    0.5662 C   0  0  0  0  0  0  0  0  0  0  0  0
   -7.8923   -1.3405    3.4295 H   0  0  0  0  0  0  0  0  0  0  0  0
   -5.9501    0.0936    1.2247 H   0  0  0  0  0  0  0  0  0  0  0  0
   -8.5278   -0.1315    1.6707 H   0  0  0  0  0  0  0  0  0  0  0  0
   -7.9041    1.1380    0.5550 H   0  0  0  0  0  0  0  0  0  0  0  0
   -9.1033    0.2227   -1.1311 H   0  0  0  0  0  0  0  0  0  0  0  0
   -9.5667   -1.2477   -0.1470 H   0  0  0  0  0  0  0  0  0  0  0  0
   -7.7376   -2.4833   -1.0072 H   0  0  0  0  0  0  0  0  0  0  0  0
   -7.7336   -1.1718   -2.2984 H   0  0  0  0  0  0  0  0  0  0  0  0
   -3.2393   -0.3575   -1.8662 H   0  0  0  0  0  0  0  0  0  0  0  0
   -3.3459   -2.4365   -0.4817 H   0  0  0  0  0  0  0  0  0  0  0  0
   -3.5722   -1.3431    0.9503 H   0  0  0  0  0  0  0  0  0  0  0  0
   -0.3168    0.4332   -0.6081 H   0  0  0  0  0  0  0  0  0  0  0  0
   -1.4002   -0.0383   -1.8923 H   0  0  0  0  0  0  0  0  0  0  0  0
   -1.8315    1.4802    0.7524 H   0  0  0  0  0  0  0  0  0  0  0  0
   -1.9671    2.1355   -0.8739 H   0  0  0  0  0  0  0  0  0  0  0  0
   -3.9220    0.8161    0.8318 H   0  0  0  0  0  0  0  0  0  0  0  0
   -5.1382    2.6825    1.0347 H   0  0  0  0  0  0  0  0  0  0  0  0
   -6.3256    4.6735    0.1704 H   0  0  0  0  0  0  0  0  0  0  0  0
   -6.2983    5.2089   -2.2293 H   0  0  0  0  0  0  0  0  0  0  0  0
   -5.0465    3.6861   -3.7424 H   0  0  0  0  0  0  0  0  0  0  0  0
   -3.8619    1.6950   -2.8503 H   0  0  0  0  0  0  0  0  0  0  0  0
    0.9346   -3.1672    0.5235 H   0  0  0  0  0  0  0  0  0  0  0  0
   -0.3028   -2.6043    2.8305 H   0  0  0  0  0  0  0  0  0  0  0  0
    1.5182   -2.9406    2.6465 H   0  0  0  0  0  0  0  0  0  0  0  0
    0.1398   -0.3096    3.3311 H   0  0  0  0  0  0  0  0  0  0  0  0
    1.7711   -0.9151    3.6712 H   0  0  0  0  0  0  0  0  0  0  0  0
    0.9001    0.7355    1.3903 H   0  0  0  0  0  0  0  0  0  0  0  0
    2.5079    0.2682    1.9323 H   0  0  0  0  0  0  0  0  0  0  0  0
    3.2777    0.5096   -1.0008 H   0  0  0  0  0  0  0  0  0  0  0  0
    5.4651   -0.2679   -1.9281 H   0  0  0  0  0  0  0  0  0  0  0  0
    3.9865   -0.9160   -2.6345 H   0  0  0  0  0  0  0  0  0  0  0  0
    6.0456   -2.1296    0.4101 H   0  0  0  0  0  0  0  0  0  0  0  0
    6.9803   -4.3430    0.4752 H   0  0  0  0  0  0  0  0  0  0  0  0
    6.7426   -5.8688   -1.4867 H   0  0  0  0  0  0  0  0  0  0  0  0
    5.4812   -5.0991   -3.5144 H   0  0  0  0  0  0  0  0  0  0  0  0
    4.5273   -2.8436   -3.5301 H   0  0  0  0  0  0  0  0  0  0  0  0
    4.8833   -0.5321    1.2754 H   0  0  0  0  0  0  0  0  0  0  0  0
    7.4034    2.9389   -1.5108 H   0  0  0  0  0  0  0  0  0  0  0  0
    8.4744    1.7316   -0.6249 H   0  0  0  0  0  0  0  0  0  0  0  0
    8.8020    3.4940   -0.5974 H   0  0  0  0  0  0  0  0  0  0  0  0
    7.5413    3.2708    2.6894 H   0  0  0  0  0  0  0  0  0  0  0  0
    8.6558    2.0723    1.9626 H   0  0  0  0  0  0  0  0  0  0  0  0
    8.8987    3.8390    1.5855 H   0  0  0  0  0  0  0  0  0  0  0  0
    6.0076    4.4616    1.5704 H   0  0  0  0  0  0  0  0  0  0  0  0
    7.1168    4.9147    0.2681 H   0  0  0  0  0  0  0  0  0  0  0  0
    5.6182    4.1200   -0.2191 H   0  0  0  0  0  0  0  0  0  0  0  0
  1  2  1  0
  2  3  2  0
  2  4  1  0
  4  5  1  0
  5  6  1  0
  6  7  1  0
  7  8  1  0
  8  9  1  0
  9 10  2  0
  9 11  1  0
 11 12  1  0
 12 13  1  0
 13 14  1  0
 14 15  1  0
 15 16  1  0
 16 17  1  0
 17 18  2  0
 18 19  1  0
 19 20  2  0
 20 21  1  0
 21 22  2  0
 13 23  1  0
 23 24  2  0
 23 25  1  0
 25 26  1  0
 26 27  1  0
 27 28  1  0
 28 29  1  0
 29 30  1  0
 30 31  2  0
 30 32  1  0
 32 33  1  0
 33 34  1  0
 34 35  2  0
 35 36  1  0
 36 37  2  0
 37 38  1  0
 38 39  2  0
 32 40  1  0
 40 41  1  0
 41 42  2  0
 41 43  1  0
 43 44  1  0
 44 45  1  0
 44 46  1  0
 44 47  1  0
  8  4  1  0
 16 11  1  0
 22 17  1  0
 29 25  1  0
 39 34  1  0
  1 48  1  0
  4 49  1  1
  5 50  1  0
  5 51  1  0
  6 52  1  0
  6 53  1  0
  7 54  1  0
  7 55  1  0
 11 56  1  6
 12 57  1  0
 12 58  1  0
 14 59  1  0
 14 60  1  0
 15 61  1  0
 15 62  1  0
 16 63  1  1
 18 64  1  0
 19 65  1  0
 20 66  1  0
 21 67  1  0
 22 68  1  0
 25 69  1  6
 26 70  1  0
 26 71  1  0
 27 72  1  0
 27 73  1  0
 28 74  1  0
 28 75  1  0
 32 76  1  6
 33 77  1  0
 33 78  1  0
 35 79  1  0
 36 80  1  0
 37 81  1  0
 38 82  1  0
 39 83  1  0
 40 84  1  0
 45 85  1  0
 45 86  1  0
 45 87  1  0
 46 88  1  0
 46 89  1  0
 46 90  1  0
 47 91  1  0
 47 92  1  0
 47 93  1  0
M  END
$$$$
[H]O[C@@]1([H])c2c(nc([H])n(C([H])([H])C(=O)N([H])C([H])([H])C([H])([H])c3c([H])c([H])c(Cl)c([H])c3OC(F)(F)F)c2=O)O[C@@]1([H])[C@@]([H])(c1sc(C#N)c([H])c1F)N([H])[H]
     RDKit          3D

 57 60  0  0  0  0  0  0  0  0999 V2000
   -5.9541    1.5093   -0.0685 C   0  0  0  0  0  0  0  0  0  0  0  0
   -4.8290    2.2415   -0.4219 O   0  0  0  0  0  0  0  0  0  0  0  0
   -4.6794    2.8759   -1.6540 C   0  0  0  0  0  0  0  0  0  0  0  0
   -4.7543    2.0621   -2.7335 F   0  0  0  0  0  0  0  0  0  0  0  0
   -5.6226    3.8986   -1.7946 F   0  0  0  0  0  0  0  0  0  0  0  0
   -3.4338    3.5354   -1.6928 F   0  0  0  0  0  0  0  0  0  0  0  0
   -6.0409    0.1448   -0.1734 C   0  0  0  0  0  0  0  0  0  0  0  0
   -4.8963   -0.6890   -0.5979 C   0  0  0  0  0  0  0  0  0  0  0  0
   -3.9142   -0.8730    0.5523 C   0  0  0  0  0  0  0  0  0  0  0  0
   -2.7818   -1.6769    0.1920 N   0  0  0  0  0  0  0  0  0  0  0  0
   -1.8820   -1.2411   -0.8090 C   0  0  0  0  0  0  0  0  0  0  0  0
   -0.7044   -2.0844   -1.2087 C   0  0  0  0  0  0  0  0  0  0  0  0
    0.4001   -1.8411   -0.3022 N   0  0  0  0  0  0  0  0  0  0  0  0
    0.5200   -2.5910    0.8382 C   0  0  0  0  0  0  0  0  0  0  0  0
    1.5304   -2.4067    1.6955 N   0  0  0  0  0  0  0  0  0  0  0  0
    2.5021   -1.4620    1.4863 C   0  0  0  0  0  0  0  0  0  0  0  0
    2.3871   -0.7135    0.3531 C   0  0  0  0  0  0  0  0  0  0  0  0
    1.3298   -0.9107   -0.5367 C   0  0  0  0  0  0  0  0  0  0  0  0
    1.2703   -0.1796   -1.5833 O   0  0  0  0  0  0  0  0  0  0  0  0
    3.5464    0.2392    0.3039 C   0  0  2  0  0  0  0  0  0  0  0  0
    4.1804    0.0602   -0.9305 O   0  0  0  0  0  0  0  0  0  0  0  0
    4.3840   -0.2143    1.4713 C   0  0  2  0  0  0  0  0  0  0  0  0
    5.6747   -0.8426    0.9778 C   0  0  1  0  0  0  0  0  0  0  0  0
    6.4708    0.2704    0.3401 C   0  0  0  0  0  0  0  0  0  0  0  0
    6.2142    1.9550    0.3879 S   0  0  0  0  0  0  0  0  0  0  0  0
    7.5493    2.4623   -0.5438 C   0  0  0  0  0  0  0  0  0  0  0  0
    7.9605    3.8125   -0.9189 C   0  0  0  0  0  0  0  0  0  0  0  0
    8.2709    4.8840   -1.2212 N   0  0  0  0  0  0  0  0  0  0  0  0
    8.1635    1.2806   -0.8684 C   0  0  0  0  0  0  0  0  0  0  0  0
    7.6054    0.1543   -0.4114 C   0  0  0  0  0  0  0  0  0  0  0  0
    8.1338   -1.0965   -0.6742 F   0  0  0  0  0  0  0  0  0  0  0  0
    6.4696   -1.3309    2.0950 N   0  0  0  0  0  0  0  0  0  0  0  0
    3.6130   -1.0988    2.2122 O   0  0  0  0  0  0  0  0  0  0  0  0
   -2.0231   -0.1510   -1.4002 O   0  0  0  0  0  0  0  0  0  0  0  0
   -7.2364   -0.4960    0.2028 C   0  0  0  0  0  0  0  0  0  0  0  0
   -8.3265    0.1791    0.6743 C   0  0  0  0  0  0  0  0  0  0  0  0
   -8.2401    1.5456    0.7823 C   0  0  0  0  0  0  0  0  0  0  0  0
   -9.6423    2.4034    1.3891 Cl  0  0  0  0  0  0  0  0  0  0  0  0
   -7.0833    2.1837    0.4190 C   0  0  0  0  0  0  0  0  0  0  0  0
   -4.3939   -0.3424   -1.4848 H   0  0  0  0  0  0  0  0  0  0  0  0
   -5.3138   -1.7132   -0.8353 H   0  0  0  0  0  0  0  0  0  0  0  0
   -3.5542    0.1331    0.9093 H   0  0  0  0  0  0  0  0  0  0  0  0
   -4.4478   -1.3628    1.4113 H   0  0  0  0  0  0  0  0  0  0  0  0
   -2.6188   -2.6091    0.6838 H   0  0  0  0  0  0  0  0  0  0  0  0
   -0.3839   -1.8035   -2.2177 H   0  0  0  0  0  0  0  0  0  0  0  0
   -0.9877   -3.1580   -1.1992 H   0  0  0  0  0  0  0  0  0  0  0  0
   -0.2453   -3.3286    0.9971 H   0  0  0  0  0  0  0  0  0  0  0  0
    3.1547    1.2550    0.4524 H   0  0  0  0  0  0  0  0  0  0  0  0
    4.1704   -0.9229   -1.0962 H   0  0  0  0  0  0  0  0  0  0  0  0
    4.6400    0.6493    2.1232 H   0  0  0  0  0  0  0  0  0  0  0  0
    5.5228   -1.6405    0.2430 H   0  0  0  0  0  0  0  0  0  0  0  0
    9.0881    1.3227   -1.4934 H   0  0  0  0  0  0  0  0  0  0  0  0
    6.8428   -2.2896    1.8957 H   0  0  0  0  0  0  0  0  0  0  0  0
    5.8876   -1.3340    2.9658 H   0  0  0  0  0  0  0  0  0  0  0  0
   -7.2666   -1.5721    0.1046 H   0  0  0  0  0  0  0  0  0  0  0  0
   -9.2158   -0.3483    0.9477 H   0  0  0  0  0  0  0  0  0  0  0  0
   -7.0101    3.2660    0.5032 H   0  0  0  0  0  0  0  0  0  0  0  0
  1  2  1  0
  2  3  1  0
  3  4  1  0
  3  5  1  0
  3  6  1  0
  1  7  2  0
  7  8  1  0
  8  9  1  0
  9 10  1  0
 10 11  1  0
 11 12  1  0
 12 13  1  0
 13 14  1  0
 14 15  2  0
 15 16  1  0
 16 17  2  0
 17 18  1  0
 18 19  2  0
 17 20  1  0
 20 21  1  0
 20 22  1  0
 22 23  1  0
 23 24  1  0
 24 25  1  0
 25 26  1  0
 26 27  1  0
 27 28  3  0
 26 29  2  0
 29 30  1  0
 30 31  1  0
 23 32  1  0
 22 33  1  0
 11 34  2  0
  7 35  1  0
 35 36  2  0
 36 37  1  0
 37 38  1  0
 37 39  2  0
 39  1  1  0
 18 13  1  0
 30 24  2  0
 33 16  1  0
  8 40  1  0
  8 41  1  0
  9 42  1  0
  9 43  1  0
 10 44  1  0
 12 45  1  0
 12 46  1  0
 14 47  1  0
 20 48  1  1
 21 49  1  0
 22 50  1  1
 23 51  1  6
 29 52  1  0
 32 53  1  0
 32 54  1  0
 35 55  1  0
 36 56  1  0
 39 57  1  0
M  END
$$$$
[H]c1nc2c([H])c([H])c([H])c([H])c2c(-c2c([H])nn3c([H])c(-c4c([H])c([H])c(N5C([H])([H])C([H])([H])N([H])C([H])([H])C5([H])[H])c([H])c4[H])c([H])nc23)c1[H]
     RDKit          3D

 53 58  0  0  0  0  0  0  0  0999 V2000
   -7.7270   -0.8935    0.6722 C   0  0  0  0  0  0  0  0  0  0  0  0
   -6.4648   -1.3507   -0.0449 C   0  0  0  0  0  0  0  0  0  0  0  0
   -5.6564   -0.2395   -0.4415 N   0  0  0  0  0  0  0  0  0  0  0  0
   -6.2994    0.9239   -0.9787 C   0  0  0  0  0  0  0  0  0  0  0  0
   -7.5810    1.2553   -0.2155 C   0  0  0  0  0  0  0  0  0  0  0  0
   -8.4229    0.0780   -0.1767 N   0  0  0  0  0  0  0  0  0  0  0  0
   -4.2595   -0.2723   -0.2954 C   0  0  0  0  0  0  0  0  0  0  0  0
   -3.6103   -1.1102    0.5661 C   0  0  0  0  0  0  0  0  0  0  0  0
   -2.2225   -1.0960    0.6518 C   0  0  0  0  0  0  0  0  0  0  0  0
   -1.4355   -0.2587   -0.1055 C   0  0  0  0  0  0  0  0  0  0  0  0
   -2.1081    0.5817   -0.9712 C   0  0  0  0  0  0  0  0  0  0  0  0
   -3.4908    0.5723   -1.0619 C   0  0  0  0  0  0  0  0  0  0  0  0
    0.0138   -0.2663    0.0205 C   0  0  0  0  0  0  0  0  0  0  0  0
    0.7335    0.8896   -0.1956 C   0  0  0  0  0  0  0  0  0  0  0  0
    2.0656    0.8827   -0.0739 N   0  0  0  0  0  0  0  0  0  0  0  0
    2.7546   -0.2383    0.2604 C   0  0  0  0  0  0  0  0  0  0  0  0
    4.1024   -0.4749    0.4392 C   0  0  0  0  0  0  0  0  0  0  0  0
    4.1918   -1.7980    0.7696 C   0  0  0  0  0  0  0  0  0  0  0  0
    2.9288   -2.3138    0.7810 N   0  0  0  0  0  0  0  0  0  0  0  0
    2.0602   -1.3801    0.4754 N   0  0  0  0  0  0  0  0  0  0  0  0
    0.7208   -1.4114    0.3624 C   0  0  0  0  0  0  0  0  0  0  0  0
    5.1612    0.4984    0.3399 C   0  0  0  0  0  0  0  0  0  0  0  0
    5.0870    1.7054    1.0577 C   0  0  0  0  0  0  0  0  0  0  0  0
    6.0566    2.6475    1.0348 C   0  0  0  0  0  0  0  0  0  0  0  0
    7.1424    2.4250    0.2938 N   0  0  0  0  0  0  0  0  0  0  0  0
    7.3013    1.3005   -0.4269 C   0  0  0  0  0  0  0  0  0  0  0  0
    8.4563    1.1671   -1.1704 C   0  0  0  0  0  0  0  0  0  0  0  0
    8.6084    0.0180   -1.9153 C   0  0  0  0  0  0  0  0  0  0  0  0
    7.6341   -0.9564   -1.9098 C   0  0  0  0  0  0  0  0  0  0  0  0
    6.4726   -0.8092   -1.1546 C   0  0  0  0  0  0  0  0  0  0  0  0
    6.3004    0.3203   -0.4081 C   0  0  0  0  0  0  0  0  0  0  0  0
   -7.5182   -0.4148    1.6309 H   0  0  0  0  0  0  0  0  0  0  0  0
   -8.3293   -1.7970    0.8509 H   0  0  0  0  0  0  0  0  0  0  0  0
   -6.8289   -1.8406   -0.9892 H   0  0  0  0  0  0  0  0  0  0  0  0
   -5.9922   -2.1136    0.5697 H   0  0  0  0  0  0  0  0  0  0  0  0
   -5.6333    1.8010   -0.7957 H   0  0  0  0  0  0  0  0  0  0  0  0
   -6.5822    0.7748   -2.0227 H   0  0  0  0  0  0  0  0  0  0  0  0
   -7.3578    1.6434    0.8017 H   0  0  0  0  0  0  0  0  0  0  0  0
   -8.0709    2.0759   -0.7879 H   0  0  0  0  0  0  0  0  0  0  0  0
   -8.4994   -0.3001   -1.1340 H   0  0  0  0  0  0  0  0  0  0  0  0
   -4.1484   -1.8080    1.2101 H   0  0  0  0  0  0  0  0  0  0  0  0
   -1.7553   -1.7770    1.3468 H   0  0  0  0  0  0  0  0  0  0  0  0
   -1.5589    1.2627   -1.5929 H   0  0  0  0  0  0  0  0  0  0  0  0
   -3.9837    1.2344   -1.7493 H   0  0  0  0  0  0  0  0  0  0  0  0
    0.1819    1.7762   -0.4609 H   0  0  0  0  0  0  0  0  0  0  0  0
    5.0977   -2.3623    0.9918 H   0  0  0  0  0  0  0  0  0  0  0  0
    0.1428   -2.3110    0.5283 H   0  0  0  0  0  0  0  0  0  0  0  0
    4.1770    1.8281    1.6443 H   0  0  0  0  0  0  0  0  0  0  0  0
    5.9672    3.5572    1.5968 H   0  0  0  0  0  0  0  0  0  0  0  0
    9.2075    1.9412   -1.1625 H   0  0  0  0  0  0  0  0  0  0  0  0
    9.5037   -0.1231   -2.5135 H   0  0  0  0  0  0  0  0  0  0  0  0
    7.7272   -1.8705   -2.4877 H   0  0  0  0  0  0  0  0  0  0  0  0
    5.7399   -1.5730   -1.1834 H   0  0  0  0  0  0  0  0  0  0  0  0
  1  2  1  0
  2  3  1  0
  3  4  1  0
  4  5  1  0
  5  6  1  0
  3  7  1  0
  7  8  2  0
  8  9  1  0
  9 10  2  0
 10 11  1  0
 11 12  2  0
 10 13  1  0
 13 14  1  0
 14 15  2  0
 15 16  1  0
 16 17  2  0
 17 18  1  0
 18 19  2  0
 19 20  1  0
 20 21  1  0
 17 22  1  0
 22 23  2  0
 23 24  1  0
 24 25  2  0
 25 26  1  0
 26 27  2  0
 27 28  1  0
 28 29  2  0
 29 30  1  0
 30 31  2  0
  6  1  1  0
 12  7  1  0
 21 13  2  0
 31 22  1  0
 20 16  1  0
 31 26  1  0
  1 32  1  0
  1 33  1  0
  2 34  1  0
  2 35  1  0
  4 36  1  0
  4 37  1  0
  5 38  1  0
  5 39  1  0
  6 40  1  0
  8 41  1  0
  9 42  1  0
 11 43  1  0
 12 44  1  0
 14 45  1  0
 18 46  1  0
 21 47  1  0
 23 48  1  0
 24 49  1  0
 27 50  1  0
 28 51  1  0
 29 52  1  0
 30 53  1  0
M  END
$$$$
[H]c1c([H])c(OC([H])(F)F)c([H])c([H])c1C#Cc1c([H])c(O[C@@]([H])(C([H])([H])[H])C([H])([H])OC([H])([H])[H])c([H])c(C(=O)N([H])c2nn(C([H])([H])[H])c([H])c2[H])c1[H]
     RDKit          3D

 56 58  0  0  0  0  0  0  0  0999 V2000
   -4.9108    4.9605   -0.3392 C   0  0  0  0  0  0  0  0  0  0  0  0
   -3.7959    5.7269   -0.0736 O   0  0  0  0  0  0  0  0  0  0  0  0
   -2.6217    5.0336   -0.0357 C   0  0  0  0  0  0  0  0  0  0  0  0
   -2.5487    3.9437    1.0093 C   0  0  2  0  0  0  0  0  0  0  0  0
   -2.7252    4.6416    2.3614 C   0  0  0  0  0  0  0  0  0  0  0  0
   -1.2778    3.3613    0.8975 O   0  0  0  0  0  0  0  0  0  0  0  0
   -0.9683    2.0643    0.6161 C   0  0  0  0  0  0  0  0  0  0  0  0
    0.3889    1.7512    0.5614 C   0  0  0  0  0  0  0  0  0  0  0  0
    0.8554    0.4988    0.2915 C   0  0  0  0  0  0  0  0  0  0  0  0
   -0.0997   -0.4997    0.0625 C   0  0  0  0  0  0  0  0  0  0  0  0
   -1.4544   -0.2586    0.1014 C   0  0  0  0  0  0  0  0  0  0  0  0
   -1.8639    1.0494    0.3841 C   0  0  0  0  0  0  0  0  0  0  0  0
   -2.4434   -1.3051   -0.1387 C   0  0  0  0  0  0  0  0  0  0  0  0
   -3.6710   -1.0121   -0.0485 O   0  0  0  0  0  0  0  0  0  0  0  0
   -2.0812   -2.6326   -0.4680 N   0  0  0  0  0  0  0  0  0  0  0  0
   -3.0924   -3.6284   -0.6935 C   0  0  0  0  0  0  0  0  0  0  0  0
   -2.9151   -4.9464   -1.0200 C   0  0  0  0  0  0  0  0  0  0  0  0
   -4.1660   -5.4949   -1.1295 C   0  0  0  0  0  0  0  0  0  0  0  0
   -5.0886   -4.5497   -0.8795 N   0  0  0  0  0  0  0  0  0  0  0  0
   -6.5438   -4.7316   -0.8940 C   0  0  0  0  0  0  0  0  0  0  0  0
   -4.4267   -3.4360   -0.6197 N   0  0  0  0  0  0  0  0  0  0  0  0
    2.2565    0.1663    0.2327 C   0  0  0  0  0  0  0  0  0  0  0  0
    3.4356   -0.0916    0.1843 C   0  0  0  0  0  0  0  0  0  0  0  0
    4.8428   -0.3740    0.1314 C   0  0  0  0  0  0  0  0  0  0  0  0
    5.7255    0.2897    0.9482 C   0  0  0  0  0  0  0  0  0  0  0  0
    7.0736    0.0631    0.9415 C   0  0  0  0  0  0  0  0  0  0  0  0
    7.6312   -0.8894    0.0700 C   0  0  0  0  0  0  0  0  0  0  0  0
    8.9946   -1.0792    0.1027 O   0  0  0  0  0  0  0  0  0  0  0  0
    9.6527   -1.9913   -0.7114 C   0  0  0  0  0  0  0  0  0  0  0  0
   10.3689   -2.9218    0.0470 F   0  0  0  0  0  0  0  0  0  0  0  0
   10.5946   -1.2814   -1.4714 F   0  0  0  0  0  0  0  0  0  0  0  0
    6.7387   -1.5441   -0.7394 C   0  0  0  0  0  0  0  0  0  0  0  0
    5.3667   -1.3057   -0.7246 C   0  0  0  0  0  0  0  0  0  0  0  0
   -4.7651    4.4696   -1.3376 H   0  0  0  0  0  0  0  0  0  0  0  0
   -5.8374    5.6091   -0.3977 H   0  0  0  0  0  0  0  0  0  0  0  0
   -5.0544    4.2413    0.4722 H   0  0  0  0  0  0  0  0  0  0  0  0
   -1.8055    5.7959    0.1370 H   0  0  0  0  0  0  0  0  0  0  0  0
   -2.3869    4.6194   -1.0609 H   0  0  0  0  0  0  0  0  0  0  0  0
   -3.3554    3.2241    0.8300 H   0  0  0  0  0  0  0  0  0  0  0  0
   -3.0956    3.8949    3.0752 H   0  0  0  0  0  0  0  0  0  0  0  0
   -1.7555    5.0203    2.7407 H   0  0  0  0  0  0  0  0  0  0  0  0
   -3.3872    5.5133    2.2494 H   0  0  0  0  0  0  0  0  0  0  0  0
    1.1397    2.5244    0.7389 H   0  0  0  0  0  0  0  0  0  0  0  0
    0.2519   -1.5059   -0.1544 H   0  0  0  0  0  0  0  0  0  0  0  0
   -2.9162    1.2840    0.4249 H   0  0  0  0  0  0  0  0  0  0  0  0
   -1.0931   -2.9438   -0.5592 H   0  0  0  0  0  0  0  0  0  0  0  0
   -1.9685   -5.4503   -1.1625 H   0  0  0  0  0  0  0  0  0  0  0  0
   -4.4109   -6.5361   -1.3800 H   0  0  0  0  0  0  0  0  0  0  0  0
   -6.9951   -4.1699   -0.0309 H   0  0  0  0  0  0  0  0  0  0  0  0
   -6.8039   -5.7976   -0.7585 H   0  0  0  0  0  0  0  0  0  0  0  0
   -6.9650   -4.3155   -1.8308 H   0  0  0  0  0  0  0  0  0  0  0  0
    5.3795    1.0536    1.6639 H   0  0  0  0  0  0  0  0  0  0  0  0
    7.7325    0.6040    1.5972 H   0  0  0  0  0  0  0  0  0  0  0  0
    9.0311   -2.5741   -1.4011 H   0  0  0  0  0  0  0  0  0  0  0  0
    7.1193   -2.2954   -1.4367 H   0  0  0  0  0  0  0  0  0  0  0  0
    4.7109   -1.8425   -1.3754 H   0  0  0  0  0  0  0  0  0  0  0  0
  1  2  1  0
  2  3  1  0
  3  4  1  0
  4  5  1  0
  4  6  1  0
  6  7  1  0
  7  8  2  0
  8  9  1  0
  9 10  2  0
 10 11  1  0
 11 12  2  0
 11 13  1  0
 13 14  2  0
 13 15  1  0
 15 16  1  0
 16 17  1  0
 17 18  2  0
 18 19  1  0
 19 20  1  0
 19 21  1  0
  9 22  1  0
 22 23  3  0
 23 24  1  0
 24 25  2  0
 25 26  1  0
 26 27  2  0
 27 28  1  0
 28 29  1  0
 29 30  1  0
 29 31  1  0
 27 32  1  0
 32 33  2  0
 12  7  1  0
 21 16  2  0
 33 24  1  0
  1 34  1  0
  1 35  1  0
  1 36  1  0
  3 37  1  0
  3 38  1  0
  4 39  1  6
  5 40  1  0
  5 41  1  0
  5 42  1  0
  8 43  1  0
 10 44  1  0
 12 45  1  0
 15 46  1  0
 17 47  1  0
 18 48  1  0
 20 49  1  0
 20 50  1  0
 20 51  1  0
 25 52  1  0
 26 53  1  0
 29 54  1  0
 32 55  1  0
 33 56  1  0
M  END
$$$$
[H]OC(=O)C([H])([H])C([H])([H])[C@@]([H])(C(=O)N([H])[C@]([H])(C(=O)N([H])[C@]([H])(/C([H])=C(/[H])C([H])([H])C([H])([H])C([H])([H])C([H])([H])c1c([H])c([H])c([H])c([H])c1[H])C([H])([H])C(=O)O[H])C([H])(C([H])([H])[H])C([H])([H])[H])N([H])C(=O)[C@@]([H])(N([H])C(=O)OC([H])([H])c1c([H])c([H])c([H])c([H])c1[H])C([H])([H])C(=O)O[H]
     RDKit          3D

100101  0  0  0  0  0  0  0  0999 V2000
    1.0520   -0.9458   -3.5009 C   0  0  0  0  0  0  0  0  0  0  0  0
   -0.3757   -0.9813   -2.9533 C   0  0  0  0  0  0  0  0  0  0  0  0
   -0.5406   -2.3737   -2.3694 C   0  0  0  0  0  0  0  0  0  0  0  0
   -0.5622    0.1240   -1.9413 C   0  0  2  0  0  0  0  0  0  0  0  0
    0.3544   -0.0146   -0.8027 N   0  0  0  0  0  0  0  0  0  0  0  0
    1.5150    0.7825   -0.7386 C   0  0  0  0  0  0  0  0  0  0  0  0
    1.6738    1.5895   -1.7385 O   0  0  0  0  0  0  0  0  0  0  0  0
    2.5663    0.8313    0.2700 C   0  0  2  0  0  0  0  0  0  0  0  0
    2.2295    1.4891    1.5589 C   0  0  0  0  0  0  0  0  0  0  0  0
    1.1447    0.8629    2.3735 C   0  0  0  0  0  0  0  0  0  0  0  0
    1.4467   -0.4969    2.8664 C   0  0  0  0  0  0  0  0  0  0  0  0
    1.5128   -0.7263    4.2559 O   0  0  0  0  0  0  0  0  0  0  0  0
    1.6522   -1.4878    2.1470 O   0  0  0  0  0  0  0  0  0  0  0  0
    3.7930    1.4534   -0.2977 N   0  0  0  0  0  0  0  0  0  0  0  0
    5.0388    0.8670   -0.0696 C   0  0  0  0  0  0  0  0  0  0  0  0
    5.0957   -0.1760    0.6589 O   0  0  0  0  0  0  0  0  0  0  0  0
    6.2896    1.4535   -0.6720 C   0  0  2  0  0  0  0  0  0  0  0  0
    6.5912    0.4665   -1.9054 C   0  0  0  0  0  0  0  0  0  0  0  0
    6.8030   -0.8672   -1.3774 C   0  0  0  0  0  0  0  0  0  0  0  0
    5.8119   -1.8588   -1.8289 O   0  0  0  0  0  0  0  0  0  0  0  0
    7.6392   -1.3305   -0.6321 O   0  0  0  0  0  0  0  0  0  0  0  0
    7.3335    1.4863    0.1875 N   0  0  0  0  0  0  0  0  0  0  0  0
    8.4151    1.5315    1.0520 C   0  0  0  0  0  0  0  0  0  0  0  0
    9.5274    2.0387    0.8230 O   0  0  0  0  0  0  0  0  0  0  0  0
    8.3165    0.9622    2.3584 O   0  0  0  0  0  0  0  0  0  0  0  0
    9.3751    0.9808    3.2600 C   0  0  0  0  0  0  0  0  0  0  0  0
   10.4862    0.1284    2.7198 C   0  0  0  0  0  0  0  0  0  0  0  0
   10.1581   -0.9942    1.9822 C   0  0  0  0  0  0  0  0  0  0  0  0
   11.1246   -1.8323    1.5048 C   0  0  0  0  0  0  0  0  0  0  0  0
   12.4509   -1.5282    1.7789 C   0  0  0  0  0  0  0  0  0  0  0  0
   12.8064   -0.4297    2.5025 C   0  0  0  0  0  0  0  0  0  0  0  0
   11.7863    0.4199    2.9811 C   0  0  0  0  0  0  0  0  0  0  0  0
   -1.9464    0.1691   -1.4488 C   0  0  0  0  0  0  0  0  0  0  0  0
   -2.2127    0.0875   -0.2299 O   0  0  0  0  0  0  0  0  0  0  0  0
   -2.9715    0.3109   -2.4021 N   0  0  0  0  0  0  0  0  0  0  0  0
   -4.3674    0.3691   -2.0612 C   0  0  1  0  0  0  0  0  0  0  0  0
   -5.0919    1.4703   -2.7481 C   0  0  0  0  0  0  0  0  0  0  0  0
   -4.9823    1.3273   -4.2232 C   0  0  0  0  0  0  0  0  0  0  0  0
   -5.9078    0.5761   -4.9402 O   0  0  0  0  0  0  0  0  0  0  0  0
   -4.0518    1.8805   -4.8529 O   0  0  0  0  0  0  0  0  0  0  0  0
   -4.9425   -0.9550   -2.4279 C   0  0  0  0  0  0  0  0  0  0  0  0
   -5.8532   -1.6230   -1.7583 C   0  0  0  0  0  0  0  0  0  0  0  0
   -6.4302   -1.0936   -0.5164 C   0  0  0  0  0  0  0  0  0  0  0  0
   -7.9378   -0.9094   -0.6392 C   0  0  0  0  0  0  0  0  0  0  0  0
   -8.5707   -0.3649    0.6171 C   0  0  0  0  0  0  0  0  0  0  0  0
  -10.0762   -0.2169    0.4757 C   0  0  0  0  0  0  0  0  0  0  0  0
  -10.5472    0.3292    1.7647 C   0  0  0  0  0  0  0  0  0  0  0  0
  -10.6587    1.7133    1.9811 C   0  0  0  0  0  0  0  0  0  0  0  0
  -11.0930    2.2589    3.1739 C   0  0  0  0  0  0  0  0  0  0  0  0
  -11.4451    1.4048    4.2333 C   0  0  0  0  0  0  0  0  0  0  0  0
  -11.3443    0.0506    4.0511 C   0  0  0  0  0  0  0  0  0  0  0  0
  -10.9061   -0.4459    2.8482 C   0  0  0  0  0  0  0  0  0  0  0  0
    1.2377   -0.0102   -4.0583 H   0  0  0  0  0  0  0  0  0  0  0  0
    1.1337   -1.7724   -4.2695 H   0  0  0  0  0  0  0  0  0  0  0  0
    1.7513   -1.1498   -2.6739 H   0  0  0  0  0  0  0  0  0  0  0  0
   -1.0737   -0.8073   -3.7846 H   0  0  0  0  0  0  0  0  0  0  0  0
    0.3976   -2.6277   -1.8330 H   0  0  0  0  0  0  0  0  0  0  0  0
   -1.3713   -2.4475   -1.6730 H   0  0  0  0  0  0  0  0  0  0  0  0
   -0.7530   -3.0522   -3.2194 H   0  0  0  0  0  0  0  0  0  0  0  0
   -0.2615    1.0762   -2.4513 H   0  0  0  0  0  0  0  0  0  0  0  0
    0.1234   -0.6977   -0.0761 H   0  0  0  0  0  0  0  0  0  0  0  0
    2.8894   -0.2235    0.5120 H   0  0  0  0  0  0  0  0  0  0  0  0
    1.9819    2.5811    1.3954 H   0  0  0  0  0  0  0  0  0  0  0  0
    3.1660    1.5118    2.2000 H   0  0  0  0  0  0  0  0  0  0  0  0
    0.8690    1.5035    3.2532 H   0  0  0  0  0  0  0  0  0  0  0  0
    0.1983    0.8198    1.7571 H   0  0  0  0  0  0  0  0  0  0  0  0
    0.6688   -0.9272    4.7606 H   0  0  0  0  0  0  0  0  0  0  0  0
    3.6489    2.3186   -0.8438 H   0  0  0  0  0  0  0  0  0  0  0  0
    6.0243    2.3556   -1.2228 H   0  0  0  0  0  0  0  0  0  0  0  0
    7.4872    0.9013   -2.3460 H   0  0  0  0  0  0  0  0  0  0  0  0
    5.6713    0.5619   -2.5203 H   0  0  0  0  0  0  0  0  0  0  0  0
    5.3428   -1.6769   -2.6856 H   0  0  0  0  0  0  0  0  0  0  0  0
    8.0997    2.0769   -0.7790 H   0  0  0  0  0  0  0  0  0  0  0  0
    9.7501    2.0239    3.5090 H   0  0  0  0  0  0  0  0  0  0  0  0
    9.0692    0.5410    4.2546 H   0  0  0  0  0  0  0  0  0  0  0  0
    9.1141   -1.1952    1.8037 H   0  0  0  0  0  0  0  0  0  0  0  0
   10.9058   -2.7164    0.9313 H   0  0  0  0  0  0  0  0  0  0  0  0
   13.1992   -2.2114    1.3915 H   0  0  0  0  0  0  0  0  0  0  0  0
   13.8300   -0.1839    2.7323 H   0  0  0  0  0  0  0  0  0  0  0  0
   12.1196    1.2760    3.5434 H   0  0  0  0  0  0  0  0  0  0  0  0
   -2.7373    0.3746   -3.4079 H   0  0  0  0  0  0  0  0  0  0  0  0
   -4.3913    0.5167   -0.9524 H   0  0  0  0  0  0  0  0  0  0  0  0
   -6.1647    1.4612   -2.4387 H   0  0  0  0  0  0  0  0  0  0  0  0
   -4.6771    2.4575   -2.4183 H   0  0  0  0  0  0  0  0  0  0  0  0
   -5.6151   -0.1665   -5.5781 H   0  0  0  0  0  0  0  0  0  0  0  0
   -4.5801   -1.4165   -3.3404 H   0  0  0  0  0  0  0  0  0  0  0  0
   -6.1873   -2.6060   -2.1395 H   0  0  0  0  0  0  0  0  0  0  0  0
   -6.3324   -1.9299    0.2489 H   0  0  0  0  0  0  0  0  0  0  0  0
   -5.9256   -0.2444   -0.0534 H   0  0  0  0  0  0  0  0  0  0  0  0
   -8.4017   -1.8506   -0.9611 H   0  0  0  0  0  0  0  0  0  0  0  0
   -8.1654   -0.1716   -1.4681 H   0  0  0  0  0  0  0  0  0  0  0  0
   -8.3360   -1.0377    1.4677 H   0  0  0  0  0  0  0  0  0  0  0  0
   -8.1703    0.6467    0.8875 H   0  0  0  0  0  0  0  0  0  0  0  0
  -10.2690    0.5602   -0.2963 H   0  0  0  0  0  0  0  0  0  0  0  0
  -10.5792   -1.1632    0.2112 H   0  0  0  0  0  0  0  0  0  0  0  0
  -10.3919    2.3924    1.1614 H   0  0  0  0  0  0  0  0  0  0  0  0
  -11.2022    3.3097    3.3731 H   0  0  0  0  0  0  0  0  0  0  0  0
  -11.7879    1.8486    5.1568 H   0  0  0  0  0  0  0  0  0  0  0  0
  -11.6305   -0.5814    4.8802 H   0  0  0  0  0  0  0  0  0  0  0  0
  -10.8492   -1.5231    2.7099 H   0  0  0  0  0  0  0  0  0  0  0  0
  1  2  1  0
  2  3  1  0
  2  4  1  0
  4  5  1  0
  5  6  1  0
  6  7  2  0
  6  8  1  0
  8  9  1  0
  9 10  1  0
 10 11  1  0
 11 12  1  0
 11 13  2  0
  8 14  1  0
 14 15  1  0
 15 16  2  0
 15 17  1  0
 17 18  1  0
 18 19  1  0
 19 20  1  0
 19 21  2  0
 17 22  1  0
 22 23  1  0
 23 24  2  0
 23 25  1  0
 25 26  1  0
 26 27  1  0
 27 28  2  0
 28 29  1  0
 29 30  2  0
 30 31  1  0
 31 32  2  0
  4 33  1  0
 33 34  2  0
 33 35  1  0
 35 36  1  0
 36 37  1  0
 37 38  1  0
 38 39  1  0
 38 40  2  0
 36 41  1  0
 41 42  2  0
 42 43  1  0
 43 44  1  0
 44 45  1  0
 45 46  1  0
 46 47  1  0
 47 48  2  0
 48 49  1  0
 49 50  2  0
 50 51  1  0
 51 52  2  0
 32 27  1  0
 52 47  1  0
  1 53  1  0
  1 54  1  0
  1 55  1  0
  2 56  1  0
  3 57  1  0
  3 58  1  0
  3 59  1  0
  4 60  1  6
  5 61  1  0
  8 62  1  1
  9 63  1  0
  9 64  1  0
 10 65  1  0
 10 66  1  0
 12 67  1  0
 14 68  1  0
 17 69  1  6
 18 70  1  0
 18 71  1  0
 20 72  1  0
 22 73  1  0
 26 74  1  0
 26 75  1  0
 28 76  1  0
 29 77  1  0
 30 78  1  0
 31 79  1  0
 32 80  1  0
 35 81  1  0
 36 82  1  1
 37 83  1  0
 37 84  1  0
 39 85  1  0
 41 86  1  0
 42 87  1  0
 43 88  1  0
 43 89  1  0
 44 90  1  0
 44 91  1  0
 45 92  1  0
 45 93  1  0
 46 94  1  0
 46 95  1  0
 48 96  1  0
 49 97  1  0
 50 98  1  0
 51 99  1  0
 52100  1  0
M  END
$$$$
[H]c1nc(N2C([H])([H])C([H])([H])OC([H])([H])C2([H])[H])c(C(F)(F)F)c([H])c1C(=O)N([H])c1c([H])c(-c2nn([H])c([H])c2[H])c([H])c([H])c1C(F)(F)F
     RDKit          3D

 51 54  0  0  0  0  0  0  0  0999 V2000
    2.9742   -0.7005    0.5855 C   0  0  0  0  0  0  0  0  0  0  0  0
    1.5775   -0.6140    0.4616 N   0  0  0  0  0  0  0  0  0  0  0  0
    0.8507    0.5179    0.1042 C   0  0  0  0  0  0  0  0  0  0  0  0
    1.3432    1.6456   -0.1606 O   0  0  0  0  0  0  0  0  0  0  0  0
   -0.6253    0.4566    0.0109 C   0  0  0  0  0  0  0  0  0  0  0  0
   -1.2407   -0.7372   -0.1998 C   0  0  0  0  0  0  0  0  0  0  0  0
   -2.6506   -0.7971   -0.2794 C   0  0  0  0  0  0  0  0  0  0  0  0
   -3.2712   -2.0972   -0.5202 C   0  0  0  0  0  0  0  0  0  0  0  0
   -2.2532   -3.0764   -0.5104 F   0  0  0  0  0  0  0  0  0  0  0  0
   -3.8226   -2.2376   -1.7923 F   0  0  0  0  0  0  0  0  0  0  0  0
   -4.2194   -2.4765    0.3876 F   0  0  0  0  0  0  0  0  0  0  0  0
   -3.3946    0.3369   -0.1457 C   0  0  0  0  0  0  0  0  0  0  0  0
   -4.7915    0.3560   -0.2015 N   0  0  0  0  0  0  0  0  0  0  0  0
   -5.6546    0.1981   -1.3156 C   0  0  0  0  0  0  0  0  0  0  0  0
   -6.7111    1.2954   -1.3827 C   0  0  0  0  0  0  0  0  0  0  0  0
   -7.3172    1.4926   -0.1511 O   0  0  0  0  0  0  0  0  0  0  0  0
   -6.9490    0.5303    0.7816 C   0  0  0  0  0  0  0  0  0  0  0  0
   -5.4707    0.5839    1.0910 C   0  0  0  0  0  0  0  0  0  0  0  0
   -2.7290    1.5268    0.0664 N   0  0  0  0  0  0  0  0  0  0  0  0
   -1.3915    1.5782    0.1411 C   0  0  0  0  0  0  0  0  0  0  0  0
    3.8443    0.3539    0.3601 C   0  0  0  0  0  0  0  0  0  0  0  0
    5.2250    0.2418    0.4885 C   0  0  0  0  0  0  0  0  0  0  0  0
    6.0985    1.3818    0.2401 C   0  0  0  0  0  0  0  0  0  0  0  0
    5.7611    2.6298   -0.1235 N   0  0  0  0  0  0  0  0  0  0  0  0
    6.8416    3.3957   -0.2554 N   0  0  0  0  0  0  0  0  0  0  0  0
    7.9287    2.6562    0.0228 C   0  0  0  0  0  0  0  0  0  0  0  0
    7.4730    1.3954    0.3337 C   0  0  0  0  0  0  0  0  0  0  0  0
    5.7159   -0.9870    0.8578 C   0  0  0  0  0  0  0  0  0  0  0  0
    4.8636   -2.0461    1.0858 C   0  0  0  0  0  0  0  0  0  0  0  0
    3.4932   -1.9510    0.9628 C   0  0  0  0  0  0  0  0  0  0  0  0
    2.6303   -3.1339    1.2249 C   0  0  0  0  0  0  0  0  0  0  0  0
    3.4904   -4.2077    1.5755 F   0  0  0  0  0  0  0  0  0  0  0  0
    1.8526   -2.9466    2.3381 F   0  0  0  0  0  0  0  0  0  0  0  0
    1.9648   -3.5957    0.1208 F   0  0  0  0  0  0  0  0  0  0  0  0
    0.9928   -1.4798    0.6598 H   0  0  0  0  0  0  0  0  0  0  0  0
   -0.7013   -1.6713   -0.3205 H   0  0  0  0  0  0  0  0  0  0  0  0
   -6.2150   -0.7500   -1.3754 H   0  0  0  0  0  0  0  0  0  0  0  0
   -5.0738    0.3091   -2.2510 H   0  0  0  0  0  0  0  0  0  0  0  0
   -6.3027    2.2490   -1.7425 H   0  0  0  0  0  0  0  0  0  0  0  0
   -7.4872    0.9487   -2.0878 H   0  0  0  0  0  0  0  0  0  0  0  0
   -7.1692   -0.5057    0.4317 H   0  0  0  0  0  0  0  0  0  0  0  0
   -7.5724    0.7145    1.6860 H   0  0  0  0  0  0  0  0  0  0  0  0
   -5.2633    1.6239    1.4435 H   0  0  0  0  0  0  0  0  0  0  0  0
   -5.1962   -0.1438    1.8497 H   0  0  0  0  0  0  0  0  0  0  0  0
   -0.8732    2.5270    0.3096 H   0  0  0  0  0  0  0  0  0  0  0  0
    3.4910    1.3249    0.0705 H   0  0  0  0  0  0  0  0  0  0  0  0
    6.8341    4.4186   -0.5343 H   0  0  0  0  0  0  0  0  0  0  0  0
    8.9334    3.0478   -0.0127 H   0  0  0  0  0  0  0  0  0  0  0  0
    8.1131    0.5678    0.6042 H   0  0  0  0  0  0  0  0  0  0  0  0
    6.7729   -1.1286    0.9712 H   0  0  0  0  0  0  0  0  0  0  0  0
    5.2806   -3.0204    1.3806 H   0  0  0  0  0  0  0  0  0  0  0  0
  1  2  1  0
  2  3  1  0
  3  4  2  0
  3  5  1  0
  5  6  2  0
  6  7  1  0
  7  8  1  0
  8  9  1  0
  8 10  1  0
  8 11  1  0
  7 12  2  0
 12 13  1  0
 13 14  1  0
 14 15  1  0
 15 16  1  0
 16 17  1  0
 17 18  1  0
 12 19  1  0
 19 20  2  0
  1 21  2  0
 21 22  1  0
 22 23  1  0
 23 24  2  0
 24 25  1  0
 25 26  1  0
 26 27  2  0
 22 28  2  0
 28 29  1  0
 29 30  2  0
 30 31  1  0
 31 32  1  0
 31 33  1  0
 31 34  1  0
 30  1  1  0
 20  5  1  0
 27 23  1  0
 18 13  1  0
  2 35  1  0
  6 36  1  0
 14 37  1  0
 14 38  1  0
 15 39  1  0
 15 40  1  0
 17 41  1  0
 17 42  1  0
 18 43  1  0
 18 44  1  0
 20 45  1  0
 21 46  1  0
 25 47  1  0
 26 48  1  0
 27 49  1  0
 28 50  1  0
 29 51  1  0
M  END
$$$$
[H]OC(=O)c1c([H])c([H])c(N2C([H])([H])C([H])([H])N(c3nc([H])nc4c3c([H])c([H])n4[H])C([H])([H])[C@]2([H])C([H])([H])[H])c([H])c1[H]
     RDKit          3D

 44 47  0  0  0  0  0  0  0  0999 V2000
   -0.0057   -0.0766    1.8663 C   0  0  0  0  0  0  0  0  0  0  0  0
    0.5070   -0.9159    0.7351 C   0  0  1  0  0  0  0  0  0  0  0  0
   -0.5883   -1.6874    0.0244 C   0  0  0  0  0  0  0  0  0  0  0  0
   -1.6642   -0.7031   -0.2395 N   0  0  0  0  0  0  0  0  0  0  0  0
   -1.2303    0.5157   -0.8274 C   0  0  0  0  0  0  0  0  0  0  0  0
    0.2196    0.4465   -1.3166 C   0  0  0  0  0  0  0  0  0  0  0  0
    1.0854   -0.0472   -0.2772 N   0  0  0  0  0  0  0  0  0  0  0  0
    2.4447    0.3211   -0.2649 C   0  0  0  0  0  0  0  0  0  0  0  0
    3.0121    1.0434   -1.2943 C   0  0  0  0  0  0  0  0  0  0  0  0
    4.3423    1.4257   -1.3116 C   0  0  0  0  0  0  0  0  0  0  0  0
    5.1767    1.0889   -0.2691 C   0  0  0  0  0  0  0  0  0  0  0  0
    4.6403    0.3675    0.7743 C   0  0  0  0  0  0  0  0  0  0  0  0
    3.3053   -0.0098    0.7803 C   0  0  0  0  0  0  0  0  0  0  0  0
    6.5783    1.4976   -0.2981 C   0  0  0  0  0  0  0  0  0  0  0  0
    7.4132    1.1568    0.7520 O   0  0  0  0  0  0  0  0  0  0  0  0
    7.0646    2.1545   -1.2495 O   0  0  0  0  0  0  0  0  0  0  0  0
   -2.9494   -1.1270    0.1058 C   0  0  0  0  0  0  0  0  0  0  0  0
   -3.1759   -2.4302    0.4616 N   0  0  0  0  0  0  0  0  0  0  0  0
   -4.3617   -2.9335    0.7859 C   0  0  0  0  0  0  0  0  0  0  0  0
   -5.4482   -2.1509    0.7804 N   0  0  0  0  0  0  0  0  0  0  0  0
   -5.2825   -0.8545    0.4372 C   0  0  0  0  0  0  0  0  0  0  0  0
   -6.1896    0.1564    0.3516 N   0  0  0  0  0  0  0  0  0  0  0  0
   -5.6072    1.2894   -0.0187 C   0  0  0  0  0  0  0  0  0  0  0  0
   -4.2525    1.0399   -0.1918 C   0  0  0  0  0  0  0  0  0  0  0  0
   -4.0551   -0.2994    0.0933 C   0  0  0  0  0  0  0  0  0  0  0  0
    0.2299   -0.6026    2.8293 H   0  0  0  0  0  0  0  0  0  0  0  0
   -1.1302   -0.0092    1.8445 H   0  0  0  0  0  0  0  0  0  0  0  0
    0.4683    0.9171    1.8204 H   0  0  0  0  0  0  0  0  0  0  0  0
    1.2623   -1.6527    1.1085 H   0  0  0  0  0  0  0  0  0  0  0  0
   -0.9325   -2.5543    0.5795 H   0  0  0  0  0  0  0  0  0  0  0  0
   -0.2102   -1.9649   -0.9847 H   0  0  0  0  0  0  0  0  0  0  0  0
   -1.2729    1.3892   -0.1594 H   0  0  0  0  0  0  0  0  0  0  0  0
   -1.8507    0.7288   -1.7200 H   0  0  0  0  0  0  0  0  0  0  0  0
    0.4963    1.4930   -1.5400 H   0  0  0  0  0  0  0  0  0  0  0  0
    0.2074   -0.1343   -2.2398 H   0  0  0  0  0  0  0  0  0  0  0  0
    2.4164    1.3397   -2.1448 H   0  0  0  0  0  0  0  0  0  0  0  0
    4.7734    1.9980   -2.1366 H   0  0  0  0  0  0  0  0  0  0  0  0
    5.2777    0.0941    1.6003 H   0  0  0  0  0  0  0  0  0  0  0  0
    2.8945   -0.5733    1.6032 H   0  0  0  0  0  0  0  0  0  0  0  0
    7.5775    0.2115    1.0658 H   0  0  0  0  0  0  0  0  0  0  0  0
   -4.4470   -4.0013    1.0603 H   0  0  0  0  0  0  0  0  0  0  0  0
   -7.2264    0.0430    0.5567 H   0  0  0  0  0  0  0  0  0  0  0  0
   -6.0163    2.2833   -0.1856 H   0  0  0  0  0  0  0  0  0  0  0  0
   -3.4965    1.7266   -0.4803 H   0  0  0  0  0  0  0  0  0  0  0  0
  1  2  1  0
  2  3  1  0
  3  4  1  0
  4  5  1  0
  5  6  1  0
  6  7  1  0
  7  8  1  0
  8  9  2  0
  9 10  1  0
 10 11  2  0
 11 12  1  0
 12 13  2  0
 11 14  1  0
 14 15  1  0
 14 16  2  0
  4 17  1  0
 17 18  2  0
 18 19  1  0
 19 20  2  0
 20 21  1  0
 21 22  1  0
 22 23  1  0
 23 24  2  0
 24 25  1  0
  7  2  1  0
 13  8  1  0
 25 17  1  0
 25 21  2  0
  1 26  1  0
  1 27  1  0
  1 28  1  0
  2 29  1  1
  3 30  1  0
  3 31  1  0
  5 32  1  0
  5 33  1  0
  6 34  1  0
  6 35  1  0
  9 36  1  0
 10 37  1  0
 12 38  1  0
 13 39  1  0
 15 40  1  0
 19 41  1  0
 22 42  1  0
 23 43  1  0
 24 44  1  0
M  END
$$$$
[H]OC([H])([H])C(=O)N1C([H])([H])C([H])([H])N([C@]2([H])C([H])([H])C([H])([H])[C@@]([H])(n3c([H])c(-c4c([H])c([H])c(Oc5c([H])c([H])c([H])c([H])c5[H])c([H])c4[H])c4c(N([H])[H])nc([H])nc43)C([H])([H])C2([H])[H])C([H])([H])C1([H])[H]
     RDKit          3D

 73 78  0  0  0  0  0  0  0  0999 V2000
   -4.0520    2.2954    1.6478 N   0  0  0  0  0  0  0  0  0  0  0  0
   -2.6467    2.3792    1.5816 C   0  0  0  0  0  0  0  0  0  0  0  0
   -1.9666    3.4257    2.0792 N   0  0  0  0  0  0  0  0  0  0  0  0
   -0.6381    3.5459    2.0104 C   0  0  0  0  0  0  0  0  0  0  0  0
    0.0273    2.5546    1.4070 N   0  0  0  0  0  0  0  0  0  0  0  0
   -0.5307    1.4562    0.8695 C   0  0  0  0  0  0  0  0  0  0  0  0
   -0.0323    0.3797    0.2254 N   0  0  0  0  0  0  0  0  0  0  0  0
   -1.0601   -0.4059   -0.1018 C   0  0  0  0  0  0  0  0  0  0  0  0
   -2.2396    0.1905    0.3486 C   0  0  0  0  0  0  0  0  0  0  0  0
   -3.5841   -0.3886    0.2155 C   0  0  0  0  0  0  0  0  0  0  0  0
   -4.3224   -0.7512    1.3103 C   0  0  0  0  0  0  0  0  0  0  0  0
   -5.5840   -1.2786    1.2030 C   0  0  0  0  0  0  0  0  0  0  0  0
   -6.1268   -1.4495   -0.0492 C   0  0  0  0  0  0  0  0  0  0  0  0
   -7.4146   -1.9888   -0.1298 O   0  0  0  0  0  0  0  0  0  0  0  0
   -8.5218   -1.1430   -0.1106 C   0  0  0  0  0  0  0  0  0  0  0  0
   -9.1614   -0.7616    1.0532 C   0  0  0  0  0  0  0  0  0  0  0  0
  -10.2598    0.0808    1.0381 C   0  0  0  0  0  0  0  0  0  0  0  0
  -10.7411    0.5612   -0.1617 C   0  0  0  0  0  0  0  0  0  0  0  0
  -10.0984    0.1766   -1.3172 C   0  0  0  0  0  0  0  0  0  0  0  0
   -9.0024   -0.6643   -1.3011 C   0  0  0  0  0  0  0  0  0  0  0  0
   -5.4253   -1.1006   -1.1955 C   0  0  0  0  0  0  0  0  0  0  0  0
   -4.1544   -0.5718   -1.0358 C   0  0  0  0  0  0  0  0  0  0  0  0
   -1.9299    1.3644    0.9618 C   0  0  0  0  0  0  0  0  0  0  0  0
    1.3623    0.1610   -0.0429 C   0  0  1  0  0  0  0  0  0  0  0  0
    2.2501    0.2148    1.1712 C   0  0  0  0  0  0  0  0  0  0  0  0
    3.6729    0.4021    0.6167 C   0  0  0  0  0  0  0  0  0  0  0  0
    4.0737   -0.7169   -0.2664 C   0  0  1  0  0  0  0  0  0  0  0  0
    2.9678   -1.7454   -0.2994 C   0  0  0  0  0  0  0  0  0  0  0  0
    1.6215   -1.1711   -0.6900 C   0  0  0  0  0  0  0  0  0  0  0  0
    4.5051   -0.4010   -1.5771 N   0  0  0  0  0  0  0  0  0  0  0  0
    5.2781   -1.4670   -2.1660 C   0  0  0  0  0  0  0  0  0  0  0  0
    6.6073   -1.6596   -1.4894 C   0  0  0  0  0  0  0  0  0  0  0  0
    7.1362   -0.4752   -0.8923 N   0  0  0  0  0  0  0  0  0  0  0  0
    6.5782    0.8500   -1.1256 C   0  0  0  0  0  0  0  0  0  0  0  0
    5.2252    0.8110   -1.7659 C   0  0  0  0  0  0  0  0  0  0  0  0
    8.2546   -0.5629   -0.0292 C   0  0  0  0  0  0  0  0  0  0  0  0
    8.7575   -1.6894    0.1924 O   0  0  0  0  0  0  0  0  0  0  0  0
    8.8475    0.6221    0.6178 C   0  0  0  0  0  0  0  0  0  0  0  0
    9.9234    0.2576    1.4096 O   0  0  0  0  0  0  0  0  0  0  0  0
   -4.6947    2.3784    0.8399 H   0  0  0  0  0  0  0  0  0  0  0  0
   -4.4851    2.1369    2.5804 H   0  0  0  0  0  0  0  0  0  0  0  0
   -0.1018    4.4132    2.4264 H   0  0  0  0  0  0  0  0  0  0  0  0
   -1.0829   -1.3527   -0.6210 H   0  0  0  0  0  0  0  0  0  0  0  0
   -3.9380   -0.6431    2.3254 H   0  0  0  0  0  0  0  0  0  0  0  0
   -6.1617   -1.5635    2.1028 H   0  0  0  0  0  0  0  0  0  0  0  0
   -8.7898   -1.1364    2.0100 H   0  0  0  0  0  0  0  0  0  0  0  0
  -10.7669    0.3849    1.9479 H   0  0  0  0  0  0  0  0  0  0  0  0
  -11.6029    1.2253   -0.2086 H   0  0  0  0  0  0  0  0  0  0  0  0
  -10.4623    0.5461   -2.2840 H   0  0  0  0  0  0  0  0  0  0  0  0
   -8.5077   -0.9584   -2.2399 H   0  0  0  0  0  0  0  0  0  0  0  0
   -5.8935   -1.2536   -2.1529 H   0  0  0  0  0  0  0  0  0  0  0  0
   -3.6095   -0.2999   -1.9436 H   0  0  0  0  0  0  0  0  0  0  0  0
    1.7694    0.9297   -0.7654 H   0  0  0  0  0  0  0  0  0  0  0  0
    2.0805    1.0553    1.8420 H   0  0  0  0  0  0  0  0  0  0  0  0
    2.1923   -0.7090    1.7962 H   0  0  0  0  0  0  0  0  0  0  0  0
    4.3130    0.4811    1.5460 H   0  0  0  0  0  0  0  0  0  0  0  0
    3.6580    1.4047    0.1728 H   0  0  0  0  0  0  0  0  0  0  0  0
    4.9368   -1.2438    0.2423 H   0  0  0  0  0  0  0  0  0  0  0  0
    2.9410   -2.2482    0.6992 H   0  0  0  0  0  0  0  0  0  0  0  0
    3.1703   -2.5692   -1.0193 H   0  0  0  0  0  0  0  0  0  0  0  0
    1.6104   -1.1307   -1.7987 H   0  0  0  0  0  0  0  0  0  0  0  0
    0.8717   -1.9504   -0.3967 H   0  0  0  0  0  0  0  0  0  0  0  0
    4.7764   -2.4255   -2.2567 H   0  0  0  0  0  0  0  0  0  0  0  0
    5.5147   -1.1351   -3.2198 H   0  0  0  0  0  0  0  0  0  0  0  0
    7.3405   -2.0268   -2.2496 H   0  0  0  0  0  0  0  0  0  0  0  0
    6.5305   -2.4354   -0.6926 H   0  0  0  0  0  0  0  0  0  0  0  0
    6.5961    1.4122   -0.1704 H   0  0  0  0  0  0  0  0  0  0  0  0
    7.3067    1.3676   -1.7880 H   0  0  0  0  0  0  0  0  0  0  0  0
    5.4100    0.8813   -2.8817 H   0  0  0  0  0  0  0  0  0  0  0  0
    4.6772    1.7442   -1.5377 H   0  0  0  0  0  0  0  0  0  0  0  0
    8.0697    1.0986    1.2809 H   0  0  0  0  0  0  0  0  0  0  0  0
    9.1738    1.3937   -0.1200 H   0  0  0  0  0  0  0  0  0  0  0  0
    9.5618    0.0410    2.3218 H   0  0  0  0  0  0  0  0  0  0  0  0
  1  2  1  0
  2  3  2  0
  3  4  1  0
  4  5  2  0
  5  6  1  0
  6  7  1  0
  7  8  1  0
  8  9  2  0
  9 10  1  0
 10 11  2  0
 11 12  1  0
 12 13  2  0
 13 14  1  0
 14 15  1  0
 15 16  2  0
 16 17  1  0
 17 18  2  0
 18 19  1  0
 19 20  2  0
 13 21  1  0
 21 22  2  0
  9 23  1  0
  7 24  1  0
 24 25  1  0
 25 26  1  0
 26 27  1  0
 27 28  1  0
 28 29  1  0
 27 30  1  0
 30 31  1  0
 31 32  1  0
 32 33  1  0
 33 34  1  0
 34 35  1  0
 33 36  1  0
 36 37  2  0
 36 38  1  0
 38 39  1  0
 23  2  1  0
 29 24  1  0
 35 30  1  0
 23  6  2  0
 22 10  1  0
 20 15  1  0
  1 40  1  0
  1 41  1  0
  4 42  1  0
  8 43  1  0
 11 44  1  0
 12 45  1  0
 16 46  1  0
 17 47  1  0
 18 48  1  0
 19 49  1  0
 20 50  1  0
 21 51  1  0
 22 52  1  0
 24 53  1  6
 25 54  1  0
 25 55  1  0
 26 56  1  0
 26 57  1  0
 27 58  1  1
 28 59  1  0
 28 60  1  0
 29 61  1  0
 29 62  1  0
 31 63  1  0
 31 64  1  0
 32 65  1  0
 32 66  1  0
 34 67  1  0
 34 68  1  0
 35 69  1  0
 35 70  1  0
 38 71  1  0
 38 72  1  0
 39 73  1  0
M  END
$$$$
[H]c1c([H])c([H])c2c(nc(C3([H])C([H])([H])C([H])([H])N([H])C([H])([H])C3([H])[H])c(=O)n2[H])c1[H]
     RDKit          3D

 32 34  0  0  0  0  0  0  0  0999 V2000
   -1.8242   -1.3172   -0.0182 C   0  0  0  0  0  0  0  0  0  0  0  0
   -1.3245   -0.1115    0.8004 C   0  0  0  0  0  0  0  0  0  0  0  0
   -0.0248    0.2886    0.2860 C   0  0  0  0  0  0  0  0  0  0  0  0
    0.4214    1.5808    0.1378 C   0  0  0  0  0  0  0  0  0  0  0  0
   -0.4375    2.4980    0.3060 O   0  0  0  0  0  0  0  0  0  0  0  0
    1.6717    1.8232   -0.1674 N   0  0  0  0  0  0  0  0  0  0  0  0
    2.5510    0.8158   -0.3318 C   0  0  0  0  0  0  0  0  0  0  0  0
    3.8853    1.0603   -0.6136 C   0  0  0  0  0  0  0  0  0  0  0  0
    4.8503    0.1033   -0.7574 C   0  0  0  0  0  0  0  0  0  0  0  0
    4.4321   -1.2307   -0.6082 C   0  0  0  0  0  0  0  0  0  0  0  0
    3.1113   -1.4925   -0.3305 C   0  0  0  0  0  0  0  0  0  0  0  0
    2.1605   -0.5054   -0.1908 C   0  0  0  0  0  0  0  0  0  0  0  0
    0.8702   -0.7409    0.1128 N   0  0  0  0  0  0  0  0  0  0  0  0
   -2.3866    0.8382    1.0293 C   0  0  0  0  0  0  0  0  0  0  0  0
   -3.7117    0.0228    1.0578 C   0  0  0  0  0  0  0  0  0  0  0  0
   -3.9879   -0.2090   -0.3439 N   0  0  0  0  0  0  0  0  0  0  0  0
   -2.8158   -0.6806   -1.0198 C   0  0  0  0  0  0  0  0  0  0  0  0
   -1.0180   -1.7318   -0.6338 H   0  0  0  0  0  0  0  0  0  0  0  0
   -2.3044   -2.0760    0.5803 H   0  0  0  0  0  0  0  0  0  0  0  0
   -1.1002   -0.5921    1.8383 H   0  0  0  0  0  0  0  0  0  0  0  0
    1.9794    2.8076   -0.2859 H   0  0  0  0  0  0  0  0  0  0  0  0
    4.1224    2.1399   -0.7199 H   0  0  0  0  0  0  0  0  0  0  0  0
    5.8703    0.3377   -0.9793 H   0  0  0  0  0  0  0  0  0  0  0  0
    5.1907   -1.9958   -0.7186 H   0  0  0  0  0  0  0  0  0  0  0  0
    2.8377   -2.5428   -0.2041 H   0  0  0  0  0  0  0  0  0  0  0  0
   -2.6096    1.6230    0.2955 H   0  0  0  0  0  0  0  0  0  0  0  0
   -2.2662    1.2709    2.0718 H   0  0  0  0  0  0  0  0  0  0  0  0
   -3.5482   -0.8983    1.6319 H   0  0  0  0  0  0  0  0  0  0  0  0
   -4.4824    0.5985    1.5900 H   0  0  0  0  0  0  0  0  0  0  0  0
   -4.8711   -0.6526   -0.5551 H   0  0  0  0  0  0  0  0  0  0  0  0
   -2.9923   -1.2763   -1.8897 H   0  0  0  0  0  0  0  0  0  0  0  0
   -2.2486    0.2446   -1.3698 H   0  0  0  0  0  0  0  0  0  0  0  0
  1  2  1  0
  2  3  1  0
  3  4  1  0
  4  5  2  0
  4  6  1  0
  6  7  1  0
  7  8  2  0
  8  9  1  0
  9 10  2  0
 10 11  1  0
 11 12  2  0
 12 13  1  0
  2 14  1  0
 14 15  1  0
 15 16  1  0
 16 17  1  0
 17  1  1  0
 13  3  2  0
 12  7  1  0
  1 18  1  0
  1 19  1  0
  2 20  1  0
  6 21  1  0
  8 22  1  0
  9 23  1  0
 10 24  1  0
 11 25  1  0
 14 26  1  0
 14 27  1  0
 15 28  1  0
 15 29  1  0
 16 30  1  0
 17 31  1  0
 17 32  1  0
M  END
$$$$
[H]c1nc2c([H])c(OC([H])([H])C([H])([H])C([H])([H])N3C([H])([H])C([H])([H])C([H])([H])C3([H])[H])c(OC([H])([H])[H])c([H])c2c(Oc2c([H])c([H])c(N([H])C(=O)C3(C(=O)N([H])c4c([H])c([H])c(F)c([H])c4[H])C([H])([H])C3([H])[H])c([H])c2F)c1[H]
     RDKit          3D

 79 84  0  0  0  0  0  0  0  0999 V2000
    3.8302   -0.0691   -3.3168 C   0  0  0  0  0  0  0  0  0  0  0  0
    4.6497   -0.4182   -2.2188 O   0  0  0  0  0  0  0  0  0  0  0  0
    4.0655   -0.7075   -0.9793 C   0  0  0  0  0  0  0  0  0  0  0  0
    2.7038   -0.6652   -0.7796 C   0  0  0  0  0  0  0  0  0  0  0  0
    2.1805   -0.9596    0.4612 C   0  0  0  0  0  0  0  0  0  0  0  0
    0.7874   -0.9181    0.6667 C   0  0  0  0  0  0  0  0  0  0  0  0
    0.0317   -0.5716   -0.4221 O   0  0  0  0  0  0  0  0  0  0  0  0
   -1.3360   -0.4198   -0.3755 C   0  0  0  0  0  0  0  0  0  0  0  0
   -2.1111   -1.2947   -1.1247 C   0  0  0  0  0  0  0  0  0  0  0  0
   -3.5108   -1.1877   -1.1187 C   0  0  0  0  0  0  0  0  0  0  0  0
   -4.1675   -0.2317   -0.3847 C   0  0  0  0  0  0  0  0  0  0  0  0
   -5.5693   -0.0973   -0.3121 N   0  0  0  0  0  0  0  0  0  0  0  0
   -6.4406   -1.1674   -0.4417 C   0  0  0  0  0  0  0  0  0  0  0  0
   -5.9503   -2.3401   -0.6205 O   0  0  0  0  0  0  0  0  0  0  0  0
   -7.9298   -1.1425   -0.3986 C   0  0  0  0  0  0  0  0  0  0  0  0
   -8.5097   -1.9318   -1.5975 C   0  0  0  0  0  0  0  0  0  0  0  0
   -8.6996   -2.3541   -0.1472 C   0  0  0  0  0  0  0  0  0  0  0  0
   -8.6206    0.1857   -0.2605 C   0  0  0  0  0  0  0  0  0  0  0  0
   -8.0996    1.1688   -0.8790 O   0  0  0  0  0  0  0  0  0  0  0  0
   -9.7839    0.3112    0.5201 N   0  0  0  0  0  0  0  0  0  0  0  0
  -10.5689    1.4642    0.7610 C   0  0  0  0  0  0  0  0  0  0  0  0
  -10.3767    2.6451    0.1352 C   0  0  0  0  0  0  0  0  0  0  0  0
  -11.1598    3.7823    0.3923 C   0  0  0  0  0  0  0  0  0  0  0  0
  -12.1603    3.6868    1.3171 C   0  0  0  0  0  0  0  0  0  0  0  0
  -12.9512    4.7463    1.6112 F   0  0  0  0  0  0  0  0  0  0  0  0
  -12.3775    2.4821    1.9738 C   0  0  0  0  0  0  0  0  0  0  0  0
  -11.6028    1.4050    1.7013 C   0  0  0  0  0  0  0  0  0  0  0  0
   -3.3713    0.6452    0.3658 C   0  0  0  0  0  0  0  0  0  0  0  0
   -2.0062    0.5395    0.3574 C   0  0  0  0  0  0  0  0  0  0  0  0
   -1.2644    1.4364    1.0821 F   0  0  0  0  0  0  0  0  0  0  0  0
    0.2549   -1.2099    1.8925 C   0  0  0  0  0  0  0  0  0  0  0  0
    1.1166   -1.5496    2.9406 C   0  0  0  0  0  0  0  0  0  0  0  0
    2.4469   -1.5945    2.7661 N   0  0  0  0  0  0  0  0  0  0  0  0
    2.9636   -1.3020    1.5392 C   0  0  0  0  0  0  0  0  0  0  0  0
    4.3401   -1.3442    1.3348 C   0  0  0  0  0  0  0  0  0  0  0  0
    4.8755   -1.0534    0.1037 C   0  0  0  0  0  0  0  0  0  0  0  0
    6.2469   -1.0998   -0.0841 O   0  0  0  0  0  0  0  0  0  0  0  0
    7.1860   -1.4315    0.8954 C   0  0  0  0  0  0  0  0  0  0  0  0
    8.5618   -1.3523    0.2422 C   0  0  0  0  0  0  0  0  0  0  0  0
    8.8377    0.0237   -0.2786 C   0  0  0  0  0  0  0  0  0  0  0  0
   10.1205    0.1556   -0.9217 N   0  0  0  0  0  0  0  0  0  0  0  0
   10.2436    1.5262   -1.4031 C   0  0  0  0  0  0  0  0  0  0  0  0
   11.0322    2.2660   -0.3700 C   0  0  0  0  0  0  0  0  0  0  0  0
   11.5546    1.2606    0.6014 C   0  0  0  0  0  0  0  0  0  0  0  0
   11.2376   -0.0641   -0.0616 C   0  0  0  0  0  0  0  0  0  0  0  0
    3.3765    0.9286   -3.1970 H   0  0  0  0  0  0  0  0  0  0  0  0
    4.4163   -0.0517   -4.2499 H   0  0  0  0  0  0  0  0  0  0  0  0
    3.0058   -0.8063   -3.4597 H   0  0  0  0  0  0  0  0  0  0  0  0
    2.0351   -0.4042   -1.5819 H   0  0  0  0  0  0  0  0  0  0  0  0
   -1.6280   -2.0600   -1.7140 H   0  0  0  0  0  0  0  0  0  0  0  0
   -4.0345   -1.8999   -1.7520 H   0  0  0  0  0  0  0  0  0  0  0  0
   -5.8979    0.9020   -0.1436 H   0  0  0  0  0  0  0  0  0  0  0  0
   -9.4104   -1.5492   -2.0945 H   0  0  0  0  0  0  0  0  0  0  0  0
   -7.8369   -2.4982   -2.2408 H   0  0  0  0  0  0  0  0  0  0  0  0
   -9.7256   -2.3351    0.2515 H   0  0  0  0  0  0  0  0  0  0  0  0
   -8.2063   -3.3359    0.0651 H   0  0  0  0  0  0  0  0  0  0  0  0
  -10.1051   -0.5933    0.9972 H   0  0  0  0  0  0  0  0  0  0  0  0
   -9.6143    2.8165   -0.6168 H   0  0  0  0  0  0  0  0  0  0  0  0
  -10.9844    4.7155   -0.1228 H   0  0  0  0  0  0  0  0  0  0  0  0
  -13.1976    2.4655    2.7080 H   0  0  0  0  0  0  0  0  0  0  0  0
  -11.7615    0.4726    2.2022 H   0  0  0  0  0  0  0  0  0  0  0  0
   -3.8884    1.3915    0.9384 H   0  0  0  0  0  0  0  0  0  0  0  0
   -0.8110   -1.1887    2.0237 H   0  0  0  0  0  0  0  0  0  0  0  0
    0.6248   -1.7679    3.8853 H   0  0  0  0  0  0  0  0  0  0  0  0
    4.9378   -1.6182    2.2038 H   0  0  0  0  0  0  0  0  0  0  0  0
    7.0153   -2.4584    1.2939 H   0  0  0  0  0  0  0  0  0  0  0  0
    7.0829   -0.7295    1.7455 H   0  0  0  0  0  0  0  0  0  0  0  0
    9.2768   -1.5920    1.0523 H   0  0  0  0  0  0  0  0  0  0  0  0
    8.5627   -2.1087   -0.5653 H   0  0  0  0  0  0  0  0  0  0  0  0
    8.0505    0.3787   -0.9835 H   0  0  0  0  0  0  0  0  0  0  0  0
    8.8188    0.7816    0.5583 H   0  0  0  0  0  0  0  0  0  0  0  0
   10.7510    1.5557   -2.3913 H   0  0  0  0  0  0  0  0  0  0  0  0
    9.2554    2.0054   -1.5336 H   0  0  0  0  0  0  0  0  0  0  0  0
   11.8781    2.8410   -0.8425 H   0  0  0  0  0  0  0  0  0  0  0  0
   10.4182    3.0320    0.1776 H   0  0  0  0  0  0  0  0  0  0  0  0
   12.6504    1.3755    0.7793 H   0  0  0  0  0  0  0  0  0  0  0  0
   11.0431    1.2979    1.5947 H   0  0  0  0  0  0  0  0  0  0  0  0
   12.1173   -0.4278   -0.6539 H   0  0  0  0  0  0  0  0  0  0  0  0
   11.0857   -0.7881    0.7446 H   0  0  0  0  0  0  0  0  0  0  0  0
  1  2  1  0
  2  3  1  0
  3  4  2  0
  4  5  1  0
  5  6  2  0
  6  7  1  0
  7  8  1  0
  8  9  2  0
  9 10  1  0
 10 11  2  0
 11 12  1  0
 12 13  1  0
 13 14  2  0
 13 15  1  0
 15 16  1  0
 16 17  1  0
 15 18  1  0
 18 19  2  0
 18 20  1  0
 20 21  1  0
 21 22  2  0
 22 23  1  0
 23 24  2  0
 24 25  1  0
 24 26  1  0
 26 27  2  0
 11 28  1  0
 28 29  2  0
 29 30  1  0
  6 31  1  0
 31 32  2  0
 32 33  1  0
 33 34  2  0
 34 35  1  0
 35 36  2  0
 36 37  1  0
 37 38  1  0
 38 39  1  0
 39 40  1  0
 40 41  1  0
 41 42  1  0
 42 43  1  0
 43 44  1  0
 44 45  1  0
 36  3  1  0
 45 41  1  0
 34  5  1  0
 29  8  1  0
 17 15  1  0
 27 21  1  0
  1 46  1  0
  1 47  1  0
  1 48  1  0
  4 49  1  0
  9 50  1  0
 10 51  1  0
 12 52  1  0
 16 53  1  0
 16 54  1  0
 17 55  1  0
 17 56  1  0
 20 57  1  0
 22 58  1  0
 23 59  1  0
 26 60  1  0
 27 61  1  0
 28 62  1  0
 31 63  1  0
 32 64  1  0
 35 65  1  0
 38 66  1  0
 38 67  1  0
 39 68  1  0
 39 69  1  0
 40 70  1  0
 40 71  1  0
 42 72  1  0
 42 73  1  0
 43 74  1  0
 43 75  1  0
 44 76  1  0
 44 77  1  0
 45 78  1  0
 45 79  1  0
M  END
$$$$
[H]c1c([H])c([H])c(Sc2c([H])c([H])c([N+](=O)[O-])c3nonc23)c([H])c1[H]
     RDKit          3D

 26 28  0  0  0  0  0  0  0  0999 V2000
    4.3008    1.7976   -2.2302 O   0  0  0  0  0  0  0  0  0  0  0  0
    4.1985    0.6423   -1.5141 N   0  0  0  0  0  0  0  0  0  0  0  0
    5.0419   -0.2465   -1.6622 O   0  0  0  0  0  0  0  0  0  0  0  0
    3.1350    0.4576   -0.6058 C   0  0  0  0  0  0  0  0  0  0  0  0
    2.5539    1.4941    0.0932 C   0  0  0  0  0  0  0  0  0  0  0  0
    1.5183    1.3054    0.9777 C   0  0  0  0  0  0  0  0  0  0  0  0
    1.0149    0.0590    1.2028 C   0  0  0  0  0  0  0  0  0  0  0  0
   -0.3261   -0.2817    2.3291 S   0  0  0  0  0  0  0  0  0  0  0  0
   -1.8911   -0.1755    1.4381 C   0  0  0  0  0  0  0  0  0  0  0  0
   -1.8885    0.1332    0.0950 C   0  0  0  0  0  0  0  0  0  0  0  0
   -3.0754    0.2163   -0.5954 C   0  0  0  0  0  0  0  0  0  0  0  0
   -4.2823   -0.0113    0.0594 C   0  0  0  0  0  0  0  0  0  0  0  0
   -4.3115   -0.3227    1.4061 C   0  0  0  0  0  0  0  0  0  0  0  0
   -3.0902   -0.3916    2.0455 C   0  0  0  0  0  0  0  0  0  0  0  0
    1.5757   -0.9968    0.5182 C   0  0  0  0  0  0  0  0  0  0  0  0
    1.3091   -2.2943    0.5252 N   0  0  0  0  0  0  0  0  0  0  0  0
    2.1209   -2.8759   -0.2968 O   0  0  0  0  0  0  0  0  0  0  0  0
    2.9276   -2.0283   -0.8621 N   0  0  0  0  0  0  0  0  0  0  0  0
    2.6140   -0.8194   -0.3705 C   0  0  0  0  0  0  0  0  0  0  0  0
    2.9667    2.4940   -0.0966 H   0  0  0  0  0  0  0  0  0  0  0  0
    1.0840    2.1375    1.5104 H   0  0  0  0  0  0  0  0  0  0  0  0
   -0.9346    0.3036   -0.3881 H   0  0  0  0  0  0  0  0  0  0  0  0
   -3.0451    0.4627   -1.6560 H   0  0  0  0  0  0  0  0  0  0  0  0
   -5.1703    0.0711   -0.5492 H   0  0  0  0  0  0  0  0  0  0  0  0
   -5.2605   -0.4976    1.9022 H   0  0  0  0  0  0  0  0  0  0  0  0
   -3.0858   -0.6328    3.0996 H   0  0  0  0  0  0  0  0  0  0  0  0
  1  2  1  0
  2  3  2  0
  2  4  1  0
  4  5  2  0
  5  6  1  0
  6  7  2  0
  7  8  1  0
  8  9  1  0
  9 10  2  0
 10 11  1  0
 11 12  2  0
 12 13  1  0
 13 14  2  0
  7 15  1  0
 15 16  2  0
 16 17  1  0
 17 18  1  0
 18 19  2  0
 19  4  1  0
 14  9  1  0
 19 15  1  0
  5 20  1  0
  6 21  1  0
 10 22  1  0
 11 23  1  0
 12 24  1  0
 13 25  1  0
 14 26  1  0
M  CHG  2   1  -1   2   1
M  END
$$$$
[H]ON([H])C(=O)C([H])([H])N(C([H])([H])c1c([H])c([H])c([N+](=O)[O-])c([H])c1[H])S(=O)(=O)c1c([H])c([H])c(Cl)c([H])c1[H]
     RDKit          3D

 40 41  0  0  0  0  0  0  0  0999 V2000
   -2.2689    3.6421   -2.4012 O   0  0  0  0  0  0  0  0  0  0  0  0
   -1.5508    3.3271   -1.3100 N   0  0  0  0  0  0  0  0  0  0  0  0
   -1.1348    2.0100   -1.0599 C   0  0  0  0  0  0  0  0  0  0  0  0
   -1.4423    1.1116   -1.8749 O   0  0  0  0  0  0  0  0  0  0  0  0
   -0.3565    1.6825    0.1273 C   0  0  0  0  0  0  0  0  0  0  0  0
    0.0154    0.3302    0.2964 N   0  0  0  0  0  0  0  0  0  0  0  0
    1.0298   -0.1819   -0.5108 C   0  0  0  0  0  0  0  0  0  0  0  0
    2.3626   -0.3601    0.1164 C   0  0  0  0  0  0  0  0  0  0  0  0
    2.8774   -1.5748    0.5143 C   0  0  0  0  0  0  0  0  0  0  0  0
    4.1188   -1.7054    1.0977 C   0  0  0  0  0  0  0  0  0  0  0  0
    4.9156   -0.6189    1.3147 C   0  0  0  0  0  0  0  0  0  0  0  0
    4.4316    0.6201    0.9274 C   0  0  0  0  0  0  0  0  0  0  0  0
    3.1891    0.7361    0.3455 C   0  0  0  0  0  0  0  0  0  0  0  0
    6.1898   -0.7754    1.9166 N   0  0  0  0  0  0  0  0  0  0  0  0
    6.6055   -2.0270    2.2749 O   0  0  0  0  0  0  0  0  0  0  0  0
    6.9511    0.1809    2.1346 O   0  0  0  0  0  0  0  0  0  0  0  0
   -0.9893   -0.6763    1.1564 S   0  0  0  0  0  0  0  0  0  0  0  0
   -0.3690   -2.0350    1.3120 O   0  0  0  0  0  0  0  0  0  0  0  0
   -1.1928   -0.1453    2.5446 O   0  0  0  0  0  0  0  0  0  0  0  0
   -2.5954   -0.8846    0.4743 C   0  0  0  0  0  0  0  0  0  0  0  0
   -2.8814   -1.8988   -0.4179 C   0  0  0  0  0  0  0  0  0  0  0  0
   -4.1141   -2.0937   -0.9689 C   0  0  0  0  0  0  0  0  0  0  0  0
   -5.1375   -1.2447   -0.6289 C   0  0  0  0  0  0  0  0  0  0  0  0
   -6.7419   -1.4736   -1.3266 Cl  0  0  0  0  0  0  0  0  0  0  0  0
   -4.8941   -0.2263    0.2528 C   0  0  0  0  0  0  0  0  0  0  0  0
   -3.6428   -0.0474    0.7972 C   0  0  0  0  0  0  0  0  0  0  0  0
   -2.8959    2.9257   -2.6733 H   0  0  0  0  0  0  0  0  0  0  0  0
   -1.3020    4.0766   -0.6429 H   0  0  0  0  0  0  0  0  0  0  0  0
   -0.8911    2.0059    1.0637 H   0  0  0  0  0  0  0  0  0  0  0  0
    0.5645    2.3125    0.1113 H   0  0  0  0  0  0  0  0  0  0  0  0
    1.2196    0.3992   -1.4579 H   0  0  0  0  0  0  0  0  0  0  0  0
    0.7165   -1.2014   -0.8862 H   0  0  0  0  0  0  0  0  0  0  0  0
    2.3100   -2.4690    0.3715 H   0  0  0  0  0  0  0  0  0  0  0  0
    4.5040   -2.6909    1.4058 H   0  0  0  0  0  0  0  0  0  0  0  0
    5.0736    1.4851    1.1035 H   0  0  0  0  0  0  0  0  0  0  0  0
    2.8902    1.7526    0.0716 H   0  0  0  0  0  0  0  0  0  0  0  0
   -2.0691   -2.5607   -0.6783 H   0  0  0  0  0  0  0  0  0  0  0  0
   -4.2776   -2.9231   -1.6760 H   0  0  0  0  0  0  0  0  0  0  0  0
   -5.7284    0.4308    0.5024 H   0  0  0  0  0  0  0  0  0  0  0  0
   -3.4896    0.7851    1.5033 H   0  0  0  0  0  0  0  0  0  0  0  0
  1  2  1  0
  2  3  1  0
  3  4  2  0
  3  5  1  0
  5  6  1  0
  6  7  1  0
  7  8  1  0
  8  9  2  0
  9 10  1  0
 10 11  2  0
 11 12  1  0
 12 13  2  0
 11 14  1  0
 14 15  1  0
 14 16  2  0
  6 17  1  0
 17 18  2  0
 17 19  2  0
 17 20  1  0
 20 21  2  0
 21 22  1  0
 22 23  2  0
 23 24  1  0
 23 25  1  0
 25 26  2  0
 13  8  1  0
 26 20  1  0
  1 27  1  0
  2 28  1  0
  5 29  1  0
  5 30  1  0
  7 31  1  0
  7 32  1  0
  9 33  1  0
 10 34  1  0
 12 35  1  0
 13 36  1  0
 21 37  1  0
 22 38  1  0
 25 39  1  0
 26 40  1  0
M  CHG  2  14   1  15  -1
M  END
$$$$
[H]c1nc(N([H])C(=O)N([H])[C@]([H])(C(=O)N([H])c2c([H])c([H])c(Cl)c([H])c2C(F)(F)F)C([H])([H])c2c([H])c([H])c([H])c([H])c2[H])sc1[H]
     RDKit          3D

 47 49  0  0  0  0  0  0  0  0999 V2000
   -3.6947   -0.9162   -2.1293 F   0  0  0  0  0  0  0  0  0  0  0  0
   -4.2441    0.3137   -1.8725 C   0  0  0  0  0  0  0  0  0  0  0  0
   -5.5785    0.2188   -2.3146 F   0  0  0  0  0  0  0  0  0  0  0  0
   -3.6683    1.3336   -2.5970 F   0  0  0  0  0  0  0  0  0  0  0  0
   -4.2758    0.5389   -0.4201 C   0  0  0  0  0  0  0  0  0  0  0  0
   -5.5156    0.7123    0.2116 C   0  0  0  0  0  0  0  0  0  0  0  0
   -5.6376    0.9092    1.5556 C   0  0  0  0  0  0  0  0  0  0  0  0
   -7.2128    1.1250    2.3258 Cl  0  0  0  0  0  0  0  0  0  0  0  0
   -4.4848    0.9334    2.2896 C   0  0  0  0  0  0  0  0  0  0  0  0
   -3.2385    0.7621    1.6741 C   0  0  0  0  0  0  0  0  0  0  0  0
   -3.0928    0.5622    0.3179 C   0  0  0  0  0  0  0  0  0  0  0  0
   -1.8344    0.4110   -0.3187 N   0  0  0  0  0  0  0  0  0  0  0  0
   -0.5657    0.3446    0.2448 C   0  0  0  0  0  0  0  0  0  0  0  0
   -0.3420    0.4111    1.4645 O   0  0  0  0  0  0  0  0  0  0  0  0
    0.6201    0.1858   -0.6586 C   0  0  2  0  0  0  0  0  0  0  0  0
    0.5675   -1.0466   -1.5036 C   0  0  0  0  0  0  0  0  0  0  0  0
    0.5252   -2.3121   -0.7860 C   0  0  0  0  0  0  0  0  0  0  0  0
    1.7147   -2.9151   -0.3965 C   0  0  0  0  0  0  0  0  0  0  0  0
    1.7222   -4.1186    0.2736 C   0  0  0  0  0  0  0  0  0  0  0  0
    0.5228   -4.7357    0.5627 C   0  0  0  0  0  0  0  0  0  0  0  0
   -0.6536   -4.1415    0.1785 C   0  0  0  0  0  0  0  0  0  0  0  0
   -0.6444   -2.9400   -0.4900 C   0  0  0  0  0  0  0  0  0  0  0  0
    1.8522    0.2115    0.1410 N   0  0  0  0  0  0  0  0  0  0  0  0
    2.7982    1.2588   -0.0161 C   0  0  0  0  0  0  0  0  0  0  0  0
    2.5464    2.1752   -0.8709 O   0  0  0  0  0  0  0  0  0  0  0  0
    3.9932    1.3314    0.7237 N   0  0  0  0  0  0  0  0  0  0  0  0
    4.9274    2.4127    0.5349 C   0  0  0  0  0  0  0  0  0  0  0  0
    4.8345    3.4430   -0.2971 N   0  0  0  0  0  0  0  0  0  0  0  0
    5.7755    4.3275   -0.3342 C   0  0  0  0  0  0  0  0  0  0  0  0
    6.8482    4.1573    0.5046 C   0  0  0  0  0  0  0  0  0  0  0  0
    6.4227    2.7083    1.3058 S   0  0  0  0  0  0  0  0  0  0  0  0
   -6.4273    0.6923   -0.3754 H   0  0  0  0  0  0  0  0  0  0  0  0
   -4.5391    1.0867    3.3581 H   0  0  0  0  0  0  0  0  0  0  0  0
   -2.3666    0.7940    2.3070 H   0  0  0  0  0  0  0  0  0  0  0  0
   -1.8606    0.3471   -1.3967 H   0  0  0  0  0  0  0  0  0  0  0  0
    0.6530    1.0713   -1.3165 H   0  0  0  0  0  0  0  0  0  0  0  0
    1.4651   -0.9926   -2.1796 H   0  0  0  0  0  0  0  0  0  0  0  0
   -0.3005   -0.9174   -2.2054 H   0  0  0  0  0  0  0  0  0  0  0  0
    2.6490   -2.4305   -0.6240 H   0  0  0  0  0  0  0  0  0  0  0  0
    2.6557   -4.5567    0.5599 H   0  0  0  0  0  0  0  0  0  0  0  0
    0.5080   -5.6762    1.0856 H   0  0  0  0  0  0  0  0  0  0  0  0
   -1.5863   -4.6538    0.4212 H   0  0  0  0  0  0  0  0  0  0  0  0
   -1.5906   -2.5284   -0.7715 H   0  0  0  0  0  0  0  0  0  0  0  0
    2.0500   -0.5407    0.8370 H   0  0  0  0  0  0  0  0  0  0  0  0
    4.2408    0.6157    1.4240 H   0  0  0  0  0  0  0  0  0  0  0  0
    5.7362    5.2050   -1.0165 H   0  0  0  0  0  0  0  0  0  0  0  0
    7.7259    4.8228    0.5894 H   0  0  0  0  0  0  0  0  0  0  0  0
  1  2  1  0
  2  3  1  0
  2  4  1  0
  2  5  1  0
  5  6  2  0
  6  7  1  0
  7  8  1  0
  7  9  2  0
  9 10  1  0
 10 11  2  0
 11 12  1  0
 12 13  1  0
 13 14  2  0
 13 15  1  0
 15 16  1  0
 16 17  1  0
 17 18  2  0
 18 19  1  0
 19 20  2  0
 20 21  1  0
 21 22  2  0
 15 23  1  0
 23 24  1  0
 24 25  2  0
 24 26  1  0
 26 27  1  0
 27 28  2  0
 28 29  1  0
 29 30  2  0
 30 31  1  0
 11  5  1  0
 22 17  1  0
 31 27  1  0
  6 32  1  0
  9 33  1  0
 10 34  1  0
 12 35  1  0
 15 36  1  6
 16 37  1  0
 16 38  1  0
 18 39  1  0
 19 40  1  0
 20 41  1  0
 21 42  1  0
 22 43  1  0
 23 44  1  0
 26 45  1  0
 29 46  1  0
 30 47  1  0
M  END
$$$$
[H]N=C(N([H])[H])N([H])C([H])([H])C([H])([H])C([H])([H])C([H])(C([H])=O)N([H])C(=O)[C@@]1([H])N(C(=O)[C@@]([H])(c2c([H])c([H])c([H])c([H])c2[H])N([H])C(=O)OC(C([H])([H])[H])(C([H])([H])[H])C([H])([H])[H])C([H])([H])C([H])([H])C1([H])[H]
     RDKit          3D

 71 72  0  0  0  0  0  0  0  0999 V2000
   -7.4489    0.1699   -0.3699 C   0  0  0  0  0  0  0  0  0  0  0  0
   -6.7164    1.0493    0.5925 C   0  0  0  0  0  0  0  0  0  0  0  0
   -6.2008    2.2469   -0.1890 C   0  0  0  0  0  0  0  0  0  0  0  0
   -7.5852    1.5538    1.7022 C   0  0  0  0  0  0  0  0  0  0  0  0
   -5.6434    0.3159    1.1684 O   0  0  0  0  0  0  0  0  0  0  0  0
   -4.6567   -0.1174    0.3231 C   0  0  0  0  0  0  0  0  0  0  0  0
   -4.8063    0.1954   -0.9077 O   0  0  0  0  0  0  0  0  0  0  0  0
   -3.4815   -0.8711    0.6837 N   0  0  0  0  0  0  0  0  0  0  0  0
   -2.6094   -1.1520   -0.4812 C   0  0  1  0  0  0  0  0  0  0  0  0
   -1.1956   -0.9718   -0.1591 C   0  0  0  0  0  0  0  0  0  0  0  0
   -0.4911   -2.0077    0.0863 O   0  0  0  0  0  0  0  0  0  0  0  0
   -0.6116    0.3165   -0.1214 N   0  0  0  0  0  0  0  0  0  0  0  0
   -1.4238    1.5683    0.0351 C   0  0  0  0  0  0  0  0  0  0  0  0
   -0.5588    2.4628    0.9363 C   0  0  0  0  0  0  0  0  0  0  0  0
    0.7663    1.7164    1.0273 C   0  0  0  0  0  0  0  0  0  0  0  0
    0.6944    0.8738   -0.2379 C   0  0  1  0  0  0  0  0  0  0  0  0
    1.8615    0.1284   -0.5963 C   0  0  0  0  0  0  0  0  0  0  0  0
    1.8547   -0.6907   -1.5414 O   0  0  0  0  0  0  0  0  0  0  0  0
    3.0598    0.3144    0.1261 N   0  0  0  0  0  0  0  0  0  0  0  0
    4.3327   -0.3161   -0.1094 C   0  0  0  0  0  0  0  0  0  0  0  0
    5.4439    0.4540    0.5311 C   0  0  0  0  0  0  0  0  0  0  0  0
    6.7705   -0.1812    0.3390 C   0  0  0  0  0  0  0  0  0  0  0  0
    7.8753    0.5637    1.0847 C   0  0  0  0  0  0  0  0  0  0  0  0
    8.0129    1.9112    0.6582 N   0  0  0  0  0  0  0  0  0  0  0  0
    8.5653    2.1751   -0.6434 C   0  0  0  0  0  0  0  0  0  0  0  0
    9.5013    1.2035   -1.1663 N   0  0  0  0  0  0  0  0  0  0  0  0
    8.2986    3.2098   -1.3517 N   0  0  0  0  0  0  0  0  0  0  0  0
    4.3322   -1.7183    0.4058 C   0  0  0  0  0  0  0  0  0  0  0  0
    3.3347   -2.0131    1.0890 O   0  0  0  0  0  0  0  0  0  0  0  0
   -2.9201   -2.6185   -0.7944 C   0  0  0  0  0  0  0  0  0  0  0  0
   -3.1804   -3.0364   -2.0540 C   0  0  0  0  0  0  0  0  0  0  0  0
   -3.5451   -4.3672   -2.2952 C   0  0  0  0  0  0  0  0  0  0  0  0
   -3.6373   -5.2483   -1.2364 C   0  0  0  0  0  0  0  0  0  0  0  0
   -3.3664   -4.8004    0.0243 C   0  0  0  0  0  0  0  0  0  0  0  0
   -3.0118   -3.5005    0.2540 C   0  0  0  0  0  0  0  0  0  0  0  0
   -7.2343   -0.9197   -0.1584 H   0  0  0  0  0  0  0  0  0  0  0  0
   -7.1755    0.3582   -1.4145 H   0  0  0  0  0  0  0  0  0  0  0  0
   -8.5625    0.2603   -0.2162 H   0  0  0  0  0  0  0  0  0  0  0  0
   -6.8026    3.1187    0.1000 H   0  0  0  0  0  0  0  0  0  0  0  0
   -5.1591    2.4688    0.0400 H   0  0  0  0  0  0  0  0  0  0  0  0
   -6.3928    2.1102   -1.2901 H   0  0  0  0  0  0  0  0  0  0  0  0
   -7.2554    2.5802    2.0158 H   0  0  0  0  0  0  0  0  0  0  0  0
   -7.5535    0.9152    2.6118 H   0  0  0  0  0  0  0  0  0  0  0  0
   -8.6642    1.6884    1.3806 H   0  0  0  0  0  0  0  0  0  0  0  0
   -3.2460   -1.2001    1.5983 H   0  0  0  0  0  0  0  0  0  0  0  0
   -2.8878   -0.5941   -1.3658 H   0  0  0  0  0  0  0  0  0  0  0  0
   -1.5729    2.0879   -0.8994 H   0  0  0  0  0  0  0  0  0  0  0  0
   -2.3254    1.3912    0.6208 H   0  0  0  0  0  0  0  0  0  0  0  0
   -1.0110    2.6010    1.9455 H   0  0  0  0  0  0  0  0  0  0  0  0
   -0.3430    3.4170    0.4162 H   0  0  0  0  0  0  0  0  0  0  0  0
    1.6240    2.4390    0.9656 H   0  0  0  0  0  0  0  0  0  0  0  0
    0.7576    1.0972    1.9374 H   0  0  0  0  0  0  0  0  0  0  0  0
    0.5297    1.7156   -1.0637 H   0  0  0  0  0  0  0  0  0  0  0  0
    3.0083    1.0034    0.9570 H   0  0  0  0  0  0  0  0  0  0  0  0
    4.4793   -0.3405   -1.2134 H   0  0  0  0  0  0  0  0  0  0  0  0
    5.2369    0.5334    1.6284 H   0  0  0  0  0  0  0  0  0  0  0  0
    5.4694    1.5200    0.1554 H   0  0  0  0  0  0  0  0  0  0  0  0
    7.0048   -0.2209   -0.7582 H   0  0  0  0  0  0  0  0  0  0  0  0
    6.7762   -1.2418    0.7458 H   0  0  0  0  0  0  0  0  0  0  0  0
    8.8586    0.0082    0.9441 H   0  0  0  0  0  0  0  0  0  0  0  0
    7.6709    0.4765    2.2065 H   0  0  0  0  0  0  0  0  0  0  0  0
    7.7519    2.7284    1.2286 H   0  0  0  0  0  0  0  0  0  0  0  0
    9.4141    0.8416   -2.1459 H   0  0  0  0  0  0  0  0  0  0  0  0
   10.2786    0.8596   -0.5637 H   0  0  0  0  0  0  0  0  0  0  0  0
    7.6568    3.9808   -1.0822 H   0  0  0  0  0  0  0  0  0  0  0  0
    5.1108   -2.3997    0.2064 H   0  0  0  0  0  0  0  0  0  0  0  0
   -3.1348   -2.4231   -2.9210 H   0  0  0  0  0  0  0  0  0  0  0  0
   -3.7632   -4.7404   -3.2945 H   0  0  0  0  0  0  0  0  0  0  0  0
   -3.9231   -6.2843   -1.3969 H   0  0  0  0  0  0  0  0  0  0  0  0
   -3.4372   -5.4926    0.8554 H   0  0  0  0  0  0  0  0  0  0  0  0
   -2.7971   -3.1621    1.2773 H   0  0  0  0  0  0  0  0  0  0  0  0
  1  2  1  0
  2  3  1  0
  2  4  1  0
  2  5  1  0
  5  6  1  0
  6  7  2  0
  6  8  1  0
  8  9  1  0
  9 10  1  0
 10 11  2  0
 10 12  1  0
 12 13  1  0
 13 14  1  0
 14 15  1  0
 15 16  1  0
 16 17  1  0
 17 18  2  0
 17 19  1  0
 19 20  1  0
 20 21  1  0
 21 22  1  0
 22 23  1  0
 23 24  1  0
 24 25  1  0
 25 26  1  0
 25 27  2  3
 20 28  1  0
 28 29  2  0
  9 30  1  0
 30 31  2  0
 31 32  1  0
 32 33  2  0
 33 34  1  0
 34 35  2  0
 16 12  1  0
 35 30  1  0
  1 36  1  0
  1 37  1  0
  1 38  1  0
  3 39  1  0
  3 40  1  0
  3 41  1  0
  4 42  1  0
  4 43  1  0
  4 44  1  0
  8 45  1  0
  9 46  1  6
 13 47  1  0
 13 48  1  0
 14 49  1  0
 14 50  1  0
 15 51  1  0
 15 52  1  0
 16 53  1  6
 19 54  1  0
 20 55  1  0
 21 56  1  0
 21 57  1  0
 22 58  1  0
 22 59  1  0
 23 60  1  0
 23 61  1  0
 24 62  1  0
 26 63  1  0
 26 64  1  0
 27 65  1  0
 28 66  1  0
 31 67  1  0
 32 68  1  0
 33 69  1  0
 34 70  1  0
 35 71  1  0
M  END
$$$$
[H]N([H])[C@@]([H])(C(=O)N1C([H])([H])C([H])([H])C([H])([H])[C@@]1([H])C(=O)N1C([H])([H])C([H])([H])C([H])([H])[C@@]1([H])C(=O)N1C([H])([H])C([H])([H])C([H])([H])[C@@]1([H])C#N)C([H])([H])[H]
     RDKit          3D

 53 55  0  0  0  0  0  0  0  0999 V2000
    4.9101    1.7440    1.9847 C   0  0  0  0  0  0  0  0  0  0  0  0
    4.6351    1.7571    0.4772 C   0  0  1  0  0  0  0  0  0  0  0  0
    5.6417    1.0189   -0.2083 N   0  0  0  0  0  0  0  0  0  0  0  0
    3.2569    1.2956    0.2953 C   0  0  0  0  0  0  0  0  0  0  0  0
    2.3630    1.9860    0.8979 O   0  0  0  0  0  0  0  0  0  0  0  0
    2.8242    0.1922   -0.4603 N   0  0  0  0  0  0  0  0  0  0  0  0
    3.6729   -0.7077   -1.1978 C   0  0  0  0  0  0  0  0  0  0  0  0
    2.7472   -1.6969   -1.8534 C   0  0  0  0  0  0  0  0  0  0  0  0
    1.4439   -0.9564   -1.9431 C   0  0  0  0  0  0  0  0  0  0  0  0
    1.4340   -0.2098   -0.6225 C   0  0  1  0  0  0  0  0  0  0  0  0
    0.9744   -1.0383    0.5122 C   0  0  0  0  0  0  0  0  0  0  0  0
    1.8736   -1.4372    1.3021 O   0  0  0  0  0  0  0  0  0  0  0  0
   -0.3632   -1.4049    0.7706 N   0  0  0  0  0  0  0  0  0  0  0  0
   -0.7303   -2.2534    1.9208 C   0  0  0  0  0  0  0  0  0  0  0  0
   -1.8136   -3.0868    1.2732 C   0  0  0  0  0  0  0  0  0  0  0  0
   -2.6093   -2.0371    0.5364 C   0  0  0  0  0  0  0  0  0  0  0  0
   -1.5840   -1.0624    0.0585 C   0  0  1  0  0  0  0  0  0  0  0  0
   -2.0444    0.3050    0.4161 C   0  0  0  0  0  0  0  0  0  0  0  0
   -1.4359    1.0255    1.2498 O   0  0  0  0  0  0  0  0  0  0  0  0
   -3.2069    0.8403   -0.1894 N   0  0  0  0  0  0  0  0  0  0  0  0
   -4.0096    0.1279   -1.1628 C   0  0  0  0  0  0  0  0  0  0  0  0
   -4.9627    1.1706   -1.7376 C   0  0  0  0  0  0  0  0  0  0  0  0
   -5.2127    1.9948   -0.4654 C   0  0  0  0  0  0  0  0  0  0  0  0
   -3.7977    2.1616    0.0356 C   0  0  1  0  0  0  0  0  0  0  0  0
   -3.7401    2.5589    1.4249 C   0  0  0  0  0  0  0  0  0  0  0  0
   -3.6948    2.8802    2.5361 N   0  0  0  0  0  0  0  0  0  0  0  0
    5.7074    2.4637    2.2447 H   0  0  0  0  0  0  0  0  0  0  0  0
    5.1661    0.7008    2.2706 H   0  0  0  0  0  0  0  0  0  0  0  0
    3.9905    2.0148    2.5530 H   0  0  0  0  0  0  0  0  0  0  0  0
    4.7386    2.8422    0.1769 H   0  0  0  0  0  0  0  0  0  0  0  0
    6.0805    0.2625    0.3630 H   0  0  0  0  0  0  0  0  0  0  0  0
    6.4252    1.6642   -0.4532 H   0  0  0  0  0  0  0  0  0  0  0  0
    4.1783   -0.1209   -2.0181 H   0  0  0  0  0  0  0  0  0  0  0  0
    4.4229   -1.2092   -0.5463 H   0  0  0  0  0  0  0  0  0  0  0  0
    3.1455   -1.9810   -2.8673 H   0  0  0  0  0  0  0  0  0  0  0  0
    2.6893   -2.5812   -1.1864 H   0  0  0  0  0  0  0  0  0  0  0  0
    1.5649   -0.1904   -2.7503 H   0  0  0  0  0  0  0  0  0  0  0  0
    0.5835   -1.5907   -2.1232 H   0  0  0  0  0  0  0  0  0  0  0  0
    0.7437    0.6443   -0.7326 H   0  0  0  0  0  0  0  0  0  0  0  0
   -1.1684   -1.5995    2.6970 H   0  0  0  0  0  0  0  0  0  0  0  0
    0.1202   -2.8341    2.2790 H   0  0  0  0  0  0  0  0  0  0  0  0
   -2.4274   -3.6327    2.0176 H   0  0  0  0  0  0  0  0  0  0  0  0
   -1.3561   -3.7433    0.5161 H   0  0  0  0  0  0  0  0  0  0  0  0
   -3.2139   -2.4746   -0.2867 H   0  0  0  0  0  0  0  0  0  0  0  0
   -3.2715   -1.5588    1.3028 H   0  0  0  0  0  0  0  0  0  0  0  0
   -1.4442   -1.1119   -1.0384 H   0  0  0  0  0  0  0  0  0  0  0  0
   -3.4127   -0.3060   -1.9670 H   0  0  0  0  0  0  0  0  0  0  0  0
   -4.6728   -0.6226   -0.6432 H   0  0  0  0  0  0  0  0  0  0  0  0
   -4.4360    1.8596   -2.4341 H   0  0  0  0  0  0  0  0  0  0  0  0
   -5.8783    0.7383   -2.1377 H   0  0  0  0  0  0  0  0  0  0  0  0
   -5.7203    2.9351   -0.6814 H   0  0  0  0  0  0  0  0  0  0  0  0
   -5.8131    1.3304    0.1944 H   0  0  0  0  0  0  0  0  0  0  0  0
   -3.3138    2.9332   -0.5998 H   0  0  0  0  0  0  0  0  0  0  0  0
  1  2  1  0
  2  3  1  0
  2  4  1  0
  4  5  2  0
  4  6  1  0
  6  7  1  0
  7  8  1  0
  8  9  1  0
  9 10  1  0
 10 11  1  0
 11 12  2  0
 11 13  1  0
 13 14  1  0
 14 15  1  0
 15 16  1  0
 16 17  1  0
 17 18  1  0
 18 19  2  0
 18 20  1  0
 20 21  1  0
 21 22  1  0
 22 23  1  0
 23 24  1  0
 24 25  1  0
 25 26  3  0
 10  6  1  0
 17 13  1  0
 24 20  1  0
  1 27  1  0
  1 28  1  0
  1 29  1  0
  2 30  1  6
  3 31  1  0
  3 32  1  0
  7 33  1  0
  7 34  1  0
  8 35  1  0
  8 36  1  0
  9 37  1  0
  9 38  1  0
 10 39  1  6
 14 40  1  0
 14 41  1  0
 15 42  1  0
 15 43  1  0
 16 44  1  0
 16 45  1  0
 17 46  1  6
 21 47  1  0
 21 48  1  0
 22 49  1  0
 22 50  1  0
 23 51  1  0
 23 52  1  0
 24 53  1  6
M  END
$$$$
[H]OC(=O)[C@@]([H])(N([H])C(=O)[C@@]([H])(N([H])C(=O)[C@@]([H])(N([H])C(=O)[C@@]([H])(N([H])[H])C([H])([H])c1c([H])c([H])c(O[H])c([H])c1[H])C([H])([H])C([H])(C([H])([H])[H])C([H])([H])[H])C([H])([H])c1c([H])c([H])c([H])c([H])c1[H])C([H])([H])c1c([H])c([H])c(O[H])c([H])c1[H]
     RDKit          3D

 84 86  0  0  0  0  0  0  0  0999 V2000
    1.5952   -2.3430   -3.4162 C   0  0  0  0  0  0  0  0  0  0  0  0
    2.2456   -1.0525   -3.8025 C   0  0  0  0  0  0  0  0  0  0  0  0
    2.3131   -1.0520   -5.3456 C   0  0  0  0  0  0  0  0  0  0  0  0
    1.6137    0.1913   -3.3177 C   0  0  0  0  0  0  0  0  0  0  0  0
    1.4780    0.4529   -1.8907 C   0  0  2  0  0  0  0  0  0  0  0  0
    2.7809    0.4388   -1.2107 N   0  0  0  0  0  0  0  0  0  0  0  0
    3.4152    1.6074   -0.7749 C   0  0  0  0  0  0  0  0  0  0  0  0
    2.8626    2.7010   -0.9757 O   0  0  0  0  0  0  0  0  0  0  0  0
    4.7220    1.5235   -0.0868 C   0  0  1  0  0  0  0  0  0  0  0  0
    5.1945    2.8785    0.1348 N   0  0  0  0  0  0  0  0  0  0  0  0
    4.5953    0.7781    1.2329 C   0  0  0  0  0  0  0  0  0  0  0  0
    5.9082    0.7070    1.9157 C   0  0  0  0  0  0  0  0  0  0  0  0
    6.7829   -0.3390    1.7150 C   0  0  0  0  0  0  0  0  0  0  0  0
    8.0225   -0.4077    2.3639 C   0  0  0  0  0  0  0  0  0  0  0  0
    8.3930    0.5930    3.2322 C   0  0  0  0  0  0  0  0  0  0  0  0
    9.6049    0.5752    3.9012 O   0  0  0  0  0  0  0  0  0  0  0  0
    7.5260    1.6391    3.4368 C   0  0  0  0  0  0  0  0  0  0  0  0
    6.2960    1.7125    2.7968 C   0  0  0  0  0  0  0  0  0  0  0  0
    0.5099   -0.2641   -1.0597 C   0  0  0  0  0  0  0  0  0  0  0  0
    0.8528   -0.7877    0.0573 O   0  0  0  0  0  0  0  0  0  0  0  0
   -0.8374   -0.3995   -1.4390 N   0  0  0  0  0  0  0  0  0  0  0  0
   -1.9370   -1.0001   -0.8017 C   0  0  1  0  0  0  0  0  0  0  0  0
   -1.8239   -2.2440   -0.0192 C   0  0  0  0  0  0  0  0  0  0  0  0
   -1.3991   -3.4766   -0.7084 C   0  0  0  0  0  0  0  0  0  0  0  0
   -2.3334   -4.1622   -1.5129 C   0  0  0  0  0  0  0  0  0  0  0  0
   -2.0367   -5.3446   -2.1308 C   0  0  0  0  0  0  0  0  0  0  0  0
   -0.8026   -5.9449   -2.0071 C   0  0  0  0  0  0  0  0  0  0  0  0
    0.1218   -5.2950   -1.2280 C   0  0  0  0  0  0  0  0  0  0  0  0
   -0.1823   -4.0964   -0.6029 C   0  0  0  0  0  0  0  0  0  0  0  0
   -2.6938    0.0110    0.0314 C   0  0  0  0  0  0  0  0  0  0  0  0
   -2.1872    1.1733    0.0933 O   0  0  0  0  0  0  0  0  0  0  0  0
   -3.8836   -0.3126    0.6951 N   0  0  0  0  0  0  0  0  0  0  0  0
   -4.5064    0.7813    1.4854 C   0  0  1  0  0  0  0  0  0  0  0  0
   -5.7960    1.1219    0.8188 C   0  0  0  0  0  0  0  0  0  0  0  0
   -6.5653    2.2067    1.4532 C   0  0  0  0  0  0  0  0  0  0  0  0
   -7.5551    2.0154    2.3893 C   0  0  0  0  0  0  0  0  0  0  0  0
   -8.2436    3.0583    2.9611 C   0  0  0  0  0  0  0  0  0  0  0  0
   -7.9781    4.3695    2.6248 C   0  0  0  0  0  0  0  0  0  0  0  0
   -8.6635    5.4247    3.1927 O   0  0  0  0  0  0  0  0  0  0  0  0
   -6.9887    4.5776    1.6878 C   0  0  0  0  0  0  0  0  0  0  0  0
   -6.2952    3.5442    1.1106 C   0  0  0  0  0  0  0  0  0  0  0  0
   -4.6083    0.3551    2.8907 C   0  0  0  0  0  0  0  0  0  0  0  0
   -5.0774    1.1784    3.8850 O   0  0  0  0  0  0  0  0  0  0  0  0
   -4.2496   -0.8225    3.2292 O   0  0  0  0  0  0  0  0  0  0  0  0
    0.4941   -2.2796   -3.3860 H   0  0  0  0  0  0  0  0  0  0  0  0
    1.9835   -2.7233   -2.4241 H   0  0  0  0  0  0  0  0  0  0  0  0
    1.8286   -3.1667   -4.1401 H   0  0  0  0  0  0  0  0  0  0  0  0
    3.3276   -1.1412   -3.5145 H   0  0  0  0  0  0  0  0  0  0  0  0
    2.8333   -0.1331   -5.7000 H   0  0  0  0  0  0  0  0  0  0  0  0
    1.3309   -1.1960   -5.7928 H   0  0  0  0  0  0  0  0  0  0  0  0
    2.9547   -1.9192   -5.6060 H   0  0  0  0  0  0  0  0  0  0  0  0
    2.1283    1.0393   -3.8733 H   0  0  0  0  0  0  0  0  0  0  0  0
    0.5712    0.2363   -3.7860 H   0  0  0  0  0  0  0  0  0  0  0  0
    1.1667    1.5990   -1.8594 H   0  0  0  0  0  0  0  0  0  0  0  0
    3.1903   -0.5228   -1.0823 H   0  0  0  0  0  0  0  0  0  0  0  0
    5.4941    0.9983   -0.6821 H   0  0  0  0  0  0  0  0  0  0  0  0
    5.8322    3.1572   -0.6533 H   0  0  0  0  0  0  0  0  0  0  0  0
    4.4200    3.5787    0.1921 H   0  0  0  0  0  0  0  0  0  0  0  0
    3.8882    1.2914    1.9109 H   0  0  0  0  0  0  0  0  0  0  0  0
    4.2118   -0.2480    1.0704 H   0  0  0  0  0  0  0  0  0  0  0  0
    6.4959   -1.1242    1.0336 H   0  0  0  0  0  0  0  0  0  0  0  0
    8.7046   -1.2309    2.2017 H   0  0  0  0  0  0  0  0  0  0  0  0
   10.4525    0.9970    3.5178 H   0  0  0  0  0  0  0  0  0  0  0  0
    7.7751    2.4469    4.1089 H   0  0  0  0  0  0  0  0  0  0  0  0
    5.5975    2.5247    2.9367 H   0  0  0  0  0  0  0  0  0  0  0  0
   -1.0531    0.0555   -2.4026 H   0  0  0  0  0  0  0  0  0  0  0  0
   -2.6585   -1.2963   -1.6658 H   0  0  0  0  0  0  0  0  0  0  0  0
   -1.0785   -2.1275    0.8323 H   0  0  0  0  0  0  0  0  0  0  0  0
   -2.7925   -2.4436    0.5328 H   0  0  0  0  0  0  0  0  0  0  0  0
   -3.3160   -3.6812   -1.6114 H   0  0  0  0  0  0  0  0  0  0  0  0
   -2.7859   -5.8349   -2.7389 H   0  0  0  0  0  0  0  0  0  0  0  0
   -0.5907   -6.8839   -2.5091 H   0  0  0  0  0  0  0  0  0  0  0  0
    1.1009   -5.6974   -1.0826 H   0  0  0  0  0  0  0  0  0  0  0  0
    0.5705   -3.5992    0.0223 H   0  0  0  0  0  0  0  0  0  0  0  0
   -4.3223   -1.2342    0.6497 H   0  0  0  0  0  0  0  0  0  0  0  0
   -3.8614    1.6896    1.4576 H   0  0  0  0  0  0  0  0  0  0  0  0
   -6.4698    0.2169    0.7949 H   0  0  0  0  0  0  0  0  0  0  0  0
   -5.6685    1.3953   -0.2458 H   0  0  0  0  0  0  0  0  0  0  0  0
   -7.7886    0.9825    2.6736 H   0  0  0  0  0  0  0  0  0  0  0  0
   -9.0286    2.8877    3.7058 H   0  0  0  0  0  0  0  0  0  0  0  0
   -8.3027    5.8543    4.0553 H   0  0  0  0  0  0  0  0  0  0  0  0
   -6.7431    5.6079    1.3865 H   0  0  0  0  0  0  0  0  0  0  0  0
   -5.5183    3.6974    0.3745 H   0  0  0  0  0  0  0  0  0  0  0  0
   -4.5637    1.9554    4.2938 H   0  0  0  0  0  0  0  0  0  0  0  0
  1  2  1  0
  2  3  1  0
  2  4  1  0
  4  5  1  0
  5  6  1  0
  6  7  1  0
  7  8  2  0
  7  9  1  0
  9 10  1  0
  9 11  1  0
 11 12  1  0
 12 13  2  0
 13 14  1  0
 14 15  2  0
 15 16  1  0
 15 17  1  0
 17 18  2  0
  5 19  1  0
 19 20  2  0
 19 21  1  0
 21 22  1  0
 22 23  1  0
 23 24  1  0
 24 25  2  0
 25 26  1  0
 26 27  2  0
 27 28  1  0
 28 29  2  0
 22 30  1  0
 30 31  2  0
 30 32  1  0
 32 33  1  0
 33 34  1  0
 34 35  1  0
 35 36  2  0
 36 37  1  0
 37 38  2  0
 38 39  1  0
 38 40  1  0
 40 41  2  0
 33 42  1  0
 42 43  1  0
 42 44  2  0
 18 12  1  0
 29 24  1  0
 41 35  1  0
  1 45  1  0
  1 46  1  0
  1 47  1  0
  2 48  1  0
  3 49  1  0
  3 50  1  0
  3 51  1  0
  4 52  1  0
  4 53  1  0
  5 54  1  6
  6 55  1  0
  9 56  1  6
 10 57  1  0
 10 58  1  0
 11 59  1  0
 11 60  1  0
 13 61  1  0
 14 62  1  0
 16 63  1  0
 17 64  1  0
 18 65  1  0
 21 66  1  0
 22 67  1  6
 23 68  1  0
 23 69  1  0
 25 70  1  0
 26 71  1  0
 27 72  1  0
 28 73  1  0
 29 74  1  0
 32 75  1  0
 33 76  1  1
 34 77  1  0
 34 78  1  0
 36 79  1  0
 37 80  1  0
 39 81  1  0
 40 82  1  0
 41 83  1  0
 43 84  1  0
M  END
$$$$
[H]OC([H])([H])C([H])([H])C([H])([H])N([H])C(=O)C1(n2c([H])c(C([H])([H])Oc3c([H])c([H])c(Cl)c(Br)c3[H])c3c([H])c([H])c([H])c([H])c32)C([H])([H])C([H])([H])C([H])(/C([H])=C(/[H])Cl)C1([H])[H]
     RDKit          3D

 61 64  0  0  0  0  0  0  0  0999 V2000
   -3.4005   -4.4673    0.9956 Cl  0  0  0  0  0  0  0  0  0  0  0  0
   -3.6283   -4.3286   -0.7011 C   0  0  0  0  0  0  0  0  0  0  0  0
   -3.6914   -3.1133   -1.1754 C   0  0  0  0  0  0  0  0  0  0  0  0
   -3.6059   -1.8472   -0.5402 C   0  0  0  0  0  0  0  0  0  0  0  0
   -3.5514   -1.4999    0.8318 C   0  0  0  0  0  0  0  0  0  0  0  0
   -2.1390   -1.1300    1.2312 C   0  0  0  0  0  0  0  0  0  0  0  0
   -1.6636   -0.4389    0.0062 C   0  0  0  0  0  0  0  0  0  0  0  0
   -2.3906   -1.1357   -1.1523 C   0  0  0  0  0  0  0  0  0  0  0  0
   -2.1219    0.9786   -0.0562 C   0  0  0  0  0  0  0  0  0  0  0  0
   -2.3481    1.4300   -1.2239 O   0  0  0  0  0  0  0  0  0  0  0  0
   -2.3166    1.8406    1.0436 N   0  0  0  0  0  0  0  0  0  0  0  0
   -2.7579    3.1956    0.8254 C   0  0  0  0  0  0  0  0  0  0  0  0
   -4.0678    3.3518    0.1291 C   0  0  0  0  0  0  0  0  0  0  0  0
   -5.2379    2.7107    0.8359 C   0  0  0  0  0  0  0  0  0  0  0  0
   -6.3703    2.9711    0.0196 O   0  0  0  0  0  0  0  0  0  0  0  0
   -0.2340   -0.4515   -0.2069 N   0  0  0  0  0  0  0  0  0  0  0  0
    0.6049    0.6014   -0.3226 C   0  0  0  0  0  0  0  0  0  0  0  0
    1.8831    0.2019   -0.5500 C   0  0  0  0  0  0  0  0  0  0  0  0
    3.1331    0.9820   -0.8279 C   0  0  0  0  0  0  0  0  0  0  0  0
    4.1534    0.5192    0.0166 O   0  0  0  0  0  0  0  0  0  0  0  0
    5.4322    0.9486    0.1319 C   0  0  0  0  0  0  0  0  0  0  0  0
    6.2720    0.2912    1.0142 C   0  0  0  0  0  0  0  0  0  0  0  0
    7.5962    0.6625    1.1974 C   0  0  0  0  0  0  0  0  0  0  0  0
    8.0988    1.7224    0.4792 C   0  0  0  0  0  0  0  0  0  0  0  0
    9.7796    2.2264    0.6613 Cl  0  0  0  0  0  0  0  0  0  0  0  0
    7.2707    2.3858   -0.4004 C   0  0  0  0  0  0  0  0  0  0  0  0
    7.9914    3.8586   -1.3643 Br  0  0  0  0  0  0  0  0  0  0  0  0
    5.9642    2.0046   -0.5685 C   0  0  0  0  0  0  0  0  0  0  0  0
    1.8428   -1.1872   -0.5763 C   0  0  0  0  0  0  0  0  0  0  0  0
    2.8438   -2.1135   -0.7435 C   0  0  0  0  0  0  0  0  0  0  0  0
    2.5637   -3.4538   -0.7017 C   0  0  0  0  0  0  0  0  0  0  0  0
    1.2572   -3.8117   -0.4893 C   0  0  0  0  0  0  0  0  0  0  0  0
    0.2444   -2.9078   -0.3213 C   0  0  0  0  0  0  0  0  0  0  0  0
    0.5126   -1.5651   -0.3599 C   0  0  0  0  0  0  0  0  0  0  0  0
   -3.7138   -5.2102   -1.3182 H   0  0  0  0  0  0  0  0  0  0  0  0
   -3.8277   -3.0748   -2.2854 H   0  0  0  0  0  0  0  0  0  0  0  0
   -4.4983   -1.2741   -0.9989 H   0  0  0  0  0  0  0  0  0  0  0  0
   -4.0995   -2.0419    1.6162 H   0  0  0  0  0  0  0  0  0  0  0  0
   -4.0644   -0.4723    0.9565 H   0  0  0  0  0  0  0  0  0  0  0  0
   -1.5309   -1.9578    1.5974 H   0  0  0  0  0  0  0  0  0  0  0  0
   -2.1596   -0.4298    2.1287 H   0  0  0  0  0  0  0  0  0  0  0  0
   -2.7036   -0.3869   -1.9369 H   0  0  0  0  0  0  0  0  0  0  0  0
   -1.7443   -1.8228   -1.7165 H   0  0  0  0  0  0  0  0  0  0  0  0
   -2.1629    1.5716    2.0331 H   0  0  0  0  0  0  0  0  0  0  0  0
   -2.0001    3.7446    0.2224 H   0  0  0  0  0  0  0  0  0  0  0  0
   -2.8570    3.7563    1.7995 H   0  0  0  0  0  0  0  0  0  0  0  0
   -4.0857    3.1042   -0.9369 H   0  0  0  0  0  0  0  0  0  0  0  0
   -4.3149    4.4648    0.1540 H   0  0  0  0  0  0  0  0  0  0  0  0
   -5.4661    3.2435    1.8028 H   0  0  0  0  0  0  0  0  0  0  0  0
   -5.1046    1.6404    0.9761 H   0  0  0  0  0  0  0  0  0  0  0  0
   -7.2061    2.9374    0.5744 H   0  0  0  0  0  0  0  0  0  0  0  0
    0.3111    1.6443   -0.2517 H   0  0  0  0  0  0  0  0  0  0  0  0
    3.3718    1.0996   -1.8778 H   0  0  0  0  0  0  0  0  0  0  0  0
    2.8858    2.0216   -0.4309 H   0  0  0  0  0  0  0  0  0  0  0  0
    5.9351   -0.5649    1.6130 H   0  0  0  0  0  0  0  0  0  0  0  0
    8.2625    0.1419    1.8877 H   0  0  0  0  0  0  0  0  0  0  0  0
    5.3606    2.5800   -1.2747 H   0  0  0  0  0  0  0  0  0  0  0  0
    3.8498   -1.7670   -0.9059 H   0  0  0  0  0  0  0  0  0  0  0  0
    3.3240   -4.2148   -0.8283 H   0  0  0  0  0  0  0  0  0  0  0  0
    1.0431   -4.8938   -0.4498 H   0  0  0  0  0  0  0  0  0  0  0  0
   -0.7228   -3.2701   -0.1651 H   0  0  0  0  0  0  0  0  0  0  0  0
  1  2  1  0
  2  3  2  0
  3  4  1  0
  4  5  1  0
  5  6  1  0
  6  7  1  0
  7  8  1  0
  7  9  1  0
  9 10  2  0
  9 11  1  0
 11 12  1  0
 12 13  1  0
 13 14  1  0
 14 15  1  0
  7 16  1  0
 16 17  1  0
 17 18  2  0
 18 19  1  0
 19 20  1  0
 20 21  1  0
 21 22  2  0
 22 23  1  0
 23 24  2  0
 24 25  1  0
 24 26  1  0
 26 27  1  0
 26 28  2  0
 18 29  1  0
 29 30  2  0
 30 31  1  0
 31 32  2  0
 32 33  1  0
 33 34  2  0
  8  4  1  0
 34 16  1  0
 28 21  1  0
 34 29  1  0
  2 35  1  0
  3 36  1  0
  4 37  1  0
  5 38  1  0
  5 39  1  0
  6 40  1  0
  6 41  1  0
  8 42  1  0
  8 43  1  0
 11 44  1  0
 12 45  1  0
 12 46  1  0
 13 47  1  0
 13 48  1  0
 14 49  1  0
 14 50  1  0
 15 51  1  0
 17 52  1  0
 19 53  1  0
 19 54  1  0
 22 55  1  0
 23 56  1  0
 28 57  1  0
 30 58  1  0
 31 59  1  0
 32 60  1  0
 33 61  1  0
M  END
$$$$
[H]c1nc2c([H])c(N([H])C([H])([H])C3([H])C([H])([H])C([H])([H])C([H])([H])C([H])([H])C3([H])[H])nc(N([H])[H])c(=O)n2c1[H]
     RDKit          3D

 39 41  0  0  0  0  0  0  0  0999 V2000
   -3.9568    0.7220    3.0328 N   0  0  0  0  0  0  0  0  0  0  0  0
   -3.4523    0.6528    1.7146 C   0  0  0  0  0  0  0  0  0  0  0  0
   -2.1439    0.9539    1.5045 N   0  0  0  0  0  0  0  0  0  0  0  0
   -1.3688    0.5785    0.4757 C   0  0  0  0  0  0  0  0  0  0  0  0
    0.0193    0.7836    0.6099 N   0  0  0  0  0  0  0  0  0  0  0  0
    0.9025    0.3953   -0.4735 C   0  0  0  0  0  0  0  0  0  0  0  0
    2.3485    0.6970   -0.1355 C   0  0  0  0  0  0  0  0  0  0  0  0
    2.7062   -0.0697    1.0923 C   0  0  0  0  0  0  0  0  0  0  0  0
    4.1580   -0.4174    1.2075 C   0  0  0  0  0  0  0  0  0  0  0  0
    4.7766   -0.9409   -0.0356 C   0  0  0  0  0  0  0  0  0  0  0  0
    3.7191   -1.0799   -1.1056 C   0  0  0  0  0  0  0  0  0  0  0  0
    3.1746    0.3301   -1.3403 C   0  0  0  0  0  0  0  0  0  0  0  0
   -1.7886    0.0096   -0.7067 C   0  0  0  0  0  0  0  0  0  0  0  0
   -3.0679   -0.1342   -1.2023 C   0  0  0  0  0  0  0  0  0  0  0  0
   -3.3543   -0.4300   -2.4933 N   0  0  0  0  0  0  0  0  0  0  0  0
   -4.7029   -0.4985   -2.6438 C   0  0  0  0  0  0  0  0  0  0  0  0
   -5.2449   -0.2338   -1.3967 C   0  0  0  0  0  0  0  0  0  0  0  0
   -4.2446   -0.0147   -0.5316 N   0  0  0  0  0  0  0  0  0  0  0  0
   -4.3921    0.2728    0.7718 C   0  0  0  0  0  0  0  0  0  0  0  0
   -5.5757    0.1860    1.2232 O   0  0  0  0  0  0  0  0  0  0  0  0
   -4.6059    1.4735    3.3102 H   0  0  0  0  0  0  0  0  0  0  0  0
   -3.6643    0.0049    3.7180 H   0  0  0  0  0  0  0  0  0  0  0  0
    0.3737    1.2152    1.4984 H   0  0  0  0  0  0  0  0  0  0  0  0
    0.8339   -0.7263   -0.5448 H   0  0  0  0  0  0  0  0  0  0  0  0
    0.6132    0.8747   -1.4302 H   0  0  0  0  0  0  0  0  0  0  0  0
    2.4173    1.7994   -0.0025 H   0  0  0  0  0  0  0  0  0  0  0  0
    2.0387   -0.9473    1.2199 H   0  0  0  0  0  0  0  0  0  0  0  0
    2.4682    0.5987    1.9729 H   0  0  0  0  0  0  0  0  0  0  0  0
    4.2296   -1.2327    1.9867 H   0  0  0  0  0  0  0  0  0  0  0  0
    4.7711    0.4112    1.6076 H   0  0  0  0  0  0  0  0  0  0  0  0
    5.5503   -0.2388   -0.4627 H   0  0  0  0  0  0  0  0  0  0  0  0
    5.3214   -1.9054    0.0944 H   0  0  0  0  0  0  0  0  0  0  0  0
    4.1422   -1.4041   -2.0778 H   0  0  0  0  0  0  0  0  0  0  0  0
    2.9456   -1.7658   -0.7388 H   0  0  0  0  0  0  0  0  0  0  0  0
    4.0603    0.9923   -1.4334 H   0  0  0  0  0  0  0  0  0  0  0  0
    2.6142    0.3870   -2.2896 H   0  0  0  0  0  0  0  0  0  0  0  0
   -1.0164   -0.3809   -1.3408 H   0  0  0  0  0  0  0  0  0  0  0  0
   -5.2897   -0.7080   -3.5133 H   0  0  0  0  0  0  0  0  0  0  0  0
   -6.3155   -0.2102   -1.1671 H   0  0  0  0  0  0  0  0  0  0  0  0
  1  2  1  0
  2  3  2  0
  3  4  1  0
  4  5  1  0
  5  6  1  0
  6  7  1  0
  7  8  1  0
  8  9  1  0
  9 10  1  0
 10 11  1  0
 11 12  1  0
  4 13  2  0
 13 14  1  0
 14 15  2  0
 15 16  1  0
 16 17  2  0
 17 18  1  0
 18 19  1  0
 19 20  2  0
 19  2  1  0
 12  7  1  0
 18 14  1  0
  1 21  1  0
  1 22  1  0
  5 23  1  0
  6 24  1  0
  6 25  1  0
  7 26  1  0
  8 27  1  0
  8 28  1  0
  9 29  1  0
  9 30  1  0
 10 31  1  0
 10 32  1  0
 11 33  1  0
 11 34  1  0
 12 35  1  0
 12 36  1  0
 13 37  1  0
 16 38  1  0
 17 39  1  0
M  END
$$$$
[H]c1c([H])c([H])c2c(c1[H])c1c3c(c4c5c([H])c([H])c([H])c([H])c5n5c4c1n2[C@@]1([H])O[C@]5(C([H])([H])[H])[C@]([H])(OC([H])([H])[H])[C@]([H])(N([H])C([H])([H])[H])C1([H])[H])C([H])([H])N([H])C3=O
     RDKit          3D

 61 68  0  0  0  0  0  0  0  0999 V2000
   -4.3076   -2.7064   -1.0127 C   0  0  0  0  0  0  0  0  0  0  0  0
   -3.8413   -1.4965   -0.4024 N   0  0  0  0  0  0  0  0  0  0  0  0
   -2.8068   -0.8179   -1.1200 C   0  0  2  0  0  0  0  0  0  0  0  0
   -1.5321   -1.5571   -1.2793 C   0  0  0  0  0  0  0  0  0  0  0  0
   -0.9506   -1.8190    0.0799 C   0  0  2  0  0  0  0  0  0  0  0  0
   -1.3671   -1.0159    1.0665 O   0  0  0  0  0  0  0  0  0  0  0  0
   -1.6263    0.3282    0.7847 C   0  0  2  0  0  0  0  0  0  0  0  0
   -2.4526    0.7344    2.0200 C   0  0  0  0  0  0  0  0  0  0  0  0
   -2.4608    0.5220   -0.4360 C   0  0  2  0  0  0  0  0  0  0  0  0
   -3.7392    1.0476   -0.1862 O   0  0  0  0  0  0  0  0  0  0  0  0
   -3.9090    2.1550   -1.0110 C   0  0  0  0  0  0  0  0  0  0  0  0
   -0.3558    1.0286    0.7685 N   0  0  0  0  0  0  0  0  0  0  0  0
   -0.1473    2.3243    1.0623 C   0  0  0  0  0  0  0  0  0  0  0  0
   -1.0041    3.3431    1.4011 C   0  0  0  0  0  0  0  0  0  0  0  0
   -0.5448    4.6334    1.6529 C   0  0  0  0  0  0  0  0  0  0  0  0
    0.8011    4.9401    1.5697 C   0  0  0  0  0  0  0  0  0  0  0  0
    1.6591    3.9324    1.2321 C   0  0  0  0  0  0  0  0  0  0  0  0
    1.1909    2.6634    0.9865 C   0  0  0  0  0  0  0  0  0  0  0  0
    1.8420    1.5282    0.6254 C   0  0  0  0  0  0  0  0  0  0  0  0
    3.1761    1.2314    0.3831 C   0  0  0  0  0  0  0  0  0  0  0  0
    4.3461    2.1315    0.4687 C   0  0  0  0  0  0  0  0  0  0  0  0
    5.4561    1.3051    0.1169 N   0  0  0  0  0  0  0  0  0  0  0  0
    5.0112   -0.0319   -0.1687 C   0  0  0  0  0  0  0  0  0  0  0  0
    5.8125   -0.9140   -0.4933 O   0  0  0  0  0  0  0  0  0  0  0  0
    3.5755   -0.0398    0.0083 C   0  0  0  0  0  0  0  0  0  0  0  0
    2.6044   -1.0059   -0.1182 C   0  0  0  0  0  0  0  0  0  0  0  0
    2.6369   -2.3451   -0.4820 C   0  0  0  0  0  0  0  0  0  0  0  0
    3.6347   -3.2140   -0.8364 C   0  0  0  0  0  0  0  0  0  0  0  0
    3.2673   -4.5274   -1.1453 C   0  0  0  0  0  0  0  0  0  0  0  0
    1.9686   -4.9612   -1.1050 C   0  0  0  0  0  0  0  0  0  0  0  0
    0.9788   -4.0774   -0.7474 C   0  0  0  0  0  0  0  0  0  0  0  0
    1.3219   -2.7626   -0.4352 C   0  0  0  0  0  0  0  0  0  0  0  0
    0.5132   -1.7826   -0.0732 N   0  0  0  0  0  0  0  0  0  0  0  0
    1.2701   -0.7014    0.1270 C   0  0  0  0  0  0  0  0  0  0  0  0
    0.9045    0.5628    0.4982 C   0  0  0  0  0  0  0  0  0  0  0  0
   -4.7764   -3.3247   -0.1923 H   0  0  0  0  0  0  0  0  0  0  0  0
   -3.5111   -3.3078   -1.4542 H   0  0  0  0  0  0  0  0  0  0  0  0
   -5.1383   -2.5088   -1.7489 H   0  0  0  0  0  0  0  0  0  0  0  0
   -4.6542   -0.8478   -0.3131 H   0  0  0  0  0  0  0  0  0  0  0  0
   -3.2277   -0.5268   -2.1174 H   0  0  0  0  0  0  0  0  0  0  0  0
   -1.7139   -2.4796   -1.8617 H   0  0  0  0  0  0  0  0  0  0  0  0
   -0.8639   -0.9327   -1.9263 H   0  0  0  0  0  0  0  0  0  0  0  0
   -1.1932   -2.8648    0.3524 H   0  0  0  0  0  0  0  0  0  0  0  0
   -3.3606    1.2871    1.7713 H   0  0  0  0  0  0  0  0  0  0  0  0
   -2.8493   -0.1854    2.5577 H   0  0  0  0  0  0  0  0  0  0  0  0
   -1.8393    1.2346    2.7844 H   0  0  0  0  0  0  0  0  0  0  0  0
   -1.9325    1.1245   -1.2048 H   0  0  0  0  0  0  0  0  0  0  0  0
   -3.8257    1.8893   -2.0936 H   0  0  0  0  0  0  0  0  0  0  0  0
   -4.9094    2.6080   -0.8052 H   0  0  0  0  0  0  0  0  0  0  0  0
   -3.1669    2.9606   -0.8414 H   0  0  0  0  0  0  0  0  0  0  0  0
   -2.0659    3.1986    1.4706 H   0  0  0  0  0  0  0  0  0  0  0  0
   -1.2295    5.4138    1.9161 H   0  0  0  0  0  0  0  0  0  0  0  0
    1.2019    5.9275    1.7574 H   0  0  0  0  0  0  0  0  0  0  0  0
    2.7144    4.1379    1.1588 H   0  0  0  0  0  0  0  0  0  0  0  0
    4.2537    2.9810   -0.2452 H   0  0  0  0  0  0  0  0  0  0  0  0
    4.3986    2.4903    1.5256 H   0  0  0  0  0  0  0  0  0  0  0  0
    6.4429    1.6442    0.0780 H   0  0  0  0  0  0  0  0  0  0  0  0
    4.6662   -2.9639   -0.8926 H   0  0  0  0  0  0  0  0  0  0  0  0
    4.0400   -5.2302   -1.4274 H   0  0  0  0  0  0  0  0  0  0  0  0
    1.6739   -5.9808   -1.3442 H   0  0  0  0  0  0  0  0  0  0  0  0
   -0.0595   -4.3794   -0.7035 H   0  0  0  0  0  0  0  0  0  0  0  0
  1  2  1  0
  2  3  1  0
  3  4  1  0
  4  5  1  0
  5  6  1  0
  6  7  1  0
  7  8  1  1
  7  9  1  0
  9 10  1  0
 10 11  1  0
  7 12  1  0
 12 13  1  0
 13 14  2  0
 14 15  1  0
 15 16  2  0
 16 17  1  0
 17 18  2  0
 18 19  1  0
 19 20  2  0
 20 21  1  0
 21 22  1  0
 22 23  1  0
 23 24  2  0
 23 25  1  0
 25 26  2  0
 26 27  1  0
 27 28  2  0
 28 29  1  0
 29 30  2  0
 30 31  1  0
 31 32  2  0
 32 33  1  0
 33 34  1  0
 34 35  2  0
  9  3  1  0
 35 12  1  0
 33  5  1  0
 18 13  1  0
 35 19  1  0
 25 20  1  0
 34 26  1  0
 32 27  1  0
  1 36  1  0
  1 37  1  0
  1 38  1  0
  2 39  1  0
  3 40  1  6
  4 41  1  0
  4 42  1  0
  5 43  1  1
  8 44  1  0
  8 45  1  0
  8 46  1  0
  9 47  1  6
 11 48  1  0
 11 49  1  0
 11 50  1  0
 14 51  1  0
 15 52  1  0
 16 53  1  0
 17 54  1  0
 21 55  1  0
 21 56  1  0
 22 57  1  0
 28 58  1  0
 29 59  1  0
 30 60  1  0
 31 61  1  0
M  END
$$$$
[H]OC(=O)C([H])([H])[C@@]([H])(C(=O)c1c([H])c([H])c([H])c([H])c1[H])N([H])C(=O)[C@@]([H])(N([H])C(=O)[C@@]([H])(N([H])C(=O)[C@@]([H])(N([H])C(=O)C([H])([H])[H])C([H])([H])C(=O)O[H])C([H])(C([H])([H])[H])C([H])([H])[H])C([H])([H])C(=O)O[H]
     RDKit          3D

 72 72  0  0  0  0  0  0  0  0999 V2000
   -0.9810   -3.0885   -1.3776 C   0  0  0  0  0  0  0  0  0  0  0  0
   -2.3525   -2.4573   -1.2621 C   0  0  0  0  0  0  0  0  0  0  0  0
   -2.5517   -1.4830   -2.4096 C   0  0  0  0  0  0  0  0  0  0  0  0
   -2.5844   -1.9020    0.0898 C   0  0  2  0  0  0  0  0  0  0  0  0
   -3.8818   -1.3428    0.2859 N   0  0  0  0  0  0  0  0  0  0  0  0
   -4.4930   -0.1450   -0.0343 C   0  0  0  0  0  0  0  0  0  0  0  0
   -3.9304    0.7863   -0.6696 O   0  0  0  0  0  0  0  0  0  0  0  0
   -5.9054    0.1691    0.3606 C   0  0  2  0  0  0  0  0  0  0  0  0
   -6.9228   -0.7454   -0.2354 C   0  0  0  0  0  0  0  0  0  0  0  0
   -6.9888   -0.7535   -1.7068 C   0  0  0  0  0  0  0  0  0  0  0  0
   -7.7489    0.2241   -2.3776 O   0  0  0  0  0  0  0  0  0  0  0  0
   -6.3916   -1.6006   -2.3977 O   0  0  0  0  0  0  0  0  0  0  0  0
   -6.2802    1.5234    0.0001 N   0  0  0  0  0  0  0  0  0  0  0  0
   -6.6454    2.4952    0.9573 C   0  0  0  0  0  0  0  0  0  0  0  0
   -7.0170    3.8600    0.5470 C   0  0  0  0  0  0  0  0  0  0  0  0
   -6.6498    2.1837    2.1669 O   0  0  0  0  0  0  0  0  0  0  0  0
   -1.5380   -0.9601    0.5969 C   0  0  0  0  0  0  0  0  0  0  0  0
   -1.8348    0.2692    0.8365 O   0  0  0  0  0  0  0  0  0  0  0  0
   -0.1896   -1.2661    0.8684 N   0  0  0  0  0  0  0  0  0  0  0  0
    0.7438   -0.2480    1.3438 C   0  0  1  0  0  0  0  0  0  0  0  0
    0.9907   -0.3876    2.8310 C   0  0  0  0  0  0  0  0  0  0  0  0
    1.5622   -1.6686    3.2255 C   0  0  0  0  0  0  0  0  0  0  0  0
    1.9328   -2.6975    2.4113 O   0  0  0  0  0  0  0  0  0  0  0  0
    1.7328   -1.8432    4.4771 O   0  0  0  0  0  0  0  0  0  0  0  0
    1.9721   -0.2702    0.5545 C   0  0  0  0  0  0  0  0  0  0  0  0
    2.1300   -1.1607   -0.3204 O   0  0  0  0  0  0  0  0  0  0  0  0
    3.0288    0.6768    0.7150 N   0  0  0  0  0  0  0  0  0  0  0  0
    4.2407    0.5880   -0.1135 C   0  0  1  0  0  0  0  0  0  0  0  0
    4.1276    1.6021   -1.2434 C   0  0  0  0  0  0  0  0  0  0  0  0
    4.0010    2.9888   -0.7887 C   0  0  0  0  0  0  0  0  0  0  0  0
    4.0308    3.4362    0.5119 O   0  0  0  0  0  0  0  0  0  0  0  0
    3.8485    3.8693   -1.7038 O   0  0  0  0  0  0  0  0  0  0  0  0
    5.4447    0.7695    0.6851 C   0  0  0  0  0  0  0  0  0  0  0  0
    5.3144    1.1729    1.9047 O   0  0  0  0  0  0  0  0  0  0  0  0
    6.8226    0.5476    0.2753 C   0  0  0  0  0  0  0  0  0  0  0  0
    7.0871   -0.0087   -0.9513 C   0  0  0  0  0  0  0  0  0  0  0  0
    8.4135   -0.1953   -1.3546 C   0  0  0  0  0  0  0  0  0  0  0  0
    9.4332    0.1729   -0.5325 C   0  0  0  0  0  0  0  0  0  0  0  0
    9.1830    0.7294    0.6973 C   0  0  0  0  0  0  0  0  0  0  0  0
    7.8832    0.9059    1.0772 C   0  0  0  0  0  0  0  0  0  0  0  0
   -1.0200   -3.6937   -2.3365 H   0  0  0  0  0  0  0  0  0  0  0  0
   -0.1718   -2.3667   -1.5407 H   0  0  0  0  0  0  0  0  0  0  0  0
   -0.8537   -3.8227   -0.5837 H   0  0  0  0  0  0  0  0  0  0  0  0
   -3.0829   -3.2800   -1.4162 H   0  0  0  0  0  0  0  0  0  0  0  0
   -2.2227   -1.9898   -3.3734 H   0  0  0  0  0  0  0  0  0  0  0  0
   -3.6038   -1.2499   -2.5839 H   0  0  0  0  0  0  0  0  0  0  0  0
   -1.9829   -0.5762   -2.2262 H   0  0  0  0  0  0  0  0  0  0  0  0
   -2.4933   -2.7947    0.8020 H   0  0  0  0  0  0  0  0  0  0  0  0
   -4.5643   -2.0294    0.8182 H   0  0  0  0  0  0  0  0  0  0  0  0
   -5.9623    0.1049    1.4707 H   0  0  0  0  0  0  0  0  0  0  0  0
   -6.6981   -1.7966    0.1026 H   0  0  0  0  0  0  0  0  0  0  0  0
   -7.9467   -0.5462    0.1916 H   0  0  0  0  0  0  0  0  0  0  0  0
   -7.6737    0.3945   -3.3694 H   0  0  0  0  0  0  0  0  0  0  0  0
   -6.2749    1.7722   -1.0068 H   0  0  0  0  0  0  0  0  0  0  0  0
   -8.0880    4.0746    0.7963 H   0  0  0  0  0  0  0  0  0  0  0  0
   -6.8868    4.0295   -0.5420 H   0  0  0  0  0  0  0  0  0  0  0  0
   -6.4435    4.6363    1.1126 H   0  0  0  0  0  0  0  0  0  0  0  0
    0.1669   -2.2225    0.7625 H   0  0  0  0  0  0  0  0  0  0  0  0
    0.2449    0.7314    1.2303 H   0  0  0  0  0  0  0  0  0  0  0  0
   -0.0141   -0.2658    3.3244 H   0  0  0  0  0  0  0  0  0  0  0  0
    1.6039    0.4626    3.1360 H   0  0  0  0  0  0  0  0  0  0  0  0
    1.5169   -3.5919    2.3032 H   0  0  0  0  0  0  0  0  0  0  0  0
    2.9881    1.4453    1.4085 H   0  0  0  0  0  0  0  0  0  0  0  0
    4.2280   -0.3942   -0.5974 H   0  0  0  0  0  0  0  0  0  0  0  0
    5.0342    1.5364   -1.8496 H   0  0  0  0  0  0  0  0  0  0  0  0
    3.2821    1.2771   -1.8879 H   0  0  0  0  0  0  0  0  0  0  0  0
    4.8188    4.0099    0.8026 H   0  0  0  0  0  0  0  0  0  0  0  0
    6.3152   -0.3376   -1.6402 H   0  0  0  0  0  0  0  0  0  0  0  0
    8.5776   -0.6415   -2.3395 H   0  0  0  0  0  0  0  0  0  0  0  0
   10.4508    0.0302   -0.8414 H   0  0  0  0  0  0  0  0  0  0  0  0
   10.0335    1.0037    1.3102 H   0  0  0  0  0  0  0  0  0  0  0  0
    7.6862    1.3443    2.0422 H   0  0  0  0  0  0  0  0  0  0  0  0
  1  2  1  0
  2  3  1  0
  2  4  1  0
  4  5  1  0
  5  6  1  0
  6  7  2  0
  6  8  1  0
  8  9  1  0
  9 10  1  0
 10 11  1  0
 10 12  2  0
  8 13  1  0
 13 14  1  0
 14 15  1  0
 14 16  2  0
  4 17  1  0
 17 18  2  0
 17 19  1  0
 19 20  1  0
 20 21  1  0
 21 22  1  0
 22 23  1  0
 22 24  2  0
 20 25  1  0
 25 26  2  0
 25 27  1  0
 27 28  1  0
 28 29  1  0
 29 30  1  0
 30 31  1  0
 30 32  2  0
 28 33  1  0
 33 34  2  0
 33 35  1  0
 35 36  2  0
 36 37  1  0
 37 38  2  0
 38 39  1  0
 39 40  2  0
 40 35  1  0
  1 41  1  0
  1 42  1  0
  1 43  1  0
  2 44  1  0
  3 45  1  0
  3 46  1  0
  3 47  1  0
  4 48  1  1
  5 49  1  0
  8 50  1  1
  9 51  1  0
  9 52  1  0
 11 53  1  0
 13 54  1  0
 15 55  1  0
 15 56  1  0
 15 57  1  0
 19 58  1  0
 20 59  1  1
 21 60  1  0
 21 61  1  0
 23 62  1  0
 27 63  1  0
 28 64  1  6
 29 65  1  0
 29 66  1  0
 31 67  1  0
 36 68  1  0
 37 69  1  0
 38 70  1  0
 39 71  1  0
 40 72  1  0
M  END
$$$$
[H]O[C@]1([H])C([H])([H])C([H])([H])[C@@]([H])(N([H])c2nc(N([H])c3c([H])c([H])c(S(=O)(=O)N(C([H])([H])[H])C([H])([H])[H])c([H])c3[H])nc([H])c2[H])C([H])([H])C1([H])[H]
     RDKit          3D

 52 54  0  0  0  0  0  0  0  0999 V2000
   -0.3172    0.9406   -0.5659 C   0  0  0  0  0  0  0  0  0  0  0  0
    0.5286   -0.0536   -1.0784 N   0  0  0  0  0  0  0  0  0  0  0  0
    1.9185   -0.0157   -1.0571 C   0  0  0  0  0  0  0  0  0  0  0  0
    2.5726   -1.2459   -1.1461 C   0  0  0  0  0  0  0  0  0  0  0  0
    3.9377   -1.3560   -1.1596 C   0  0  0  0  0  0  0  0  0  0  0  0
    4.7563   -0.2506   -1.0856 C   0  0  0  0  0  0  0  0  0  0  0  0
    6.4679   -0.4957   -1.1094 S   0  0  0  0  0  0  0  0  0  0  0  0
    7.1135    0.7072   -1.7412 O   0  0  0  0  0  0  0  0  0  0  0  0
    7.1450   -0.7007    0.4517 N   0  0  0  0  0  0  0  0  0  0  0  0
    6.6449   -1.8412    1.1557 C   0  0  0  0  0  0  0  0  0  0  0  0
    8.5836   -0.8933    0.2760 C   0  0  0  0  0  0  0  0  0  0  0  0
    6.7548   -1.6737   -2.0032 O   0  0  0  0  0  0  0  0  0  0  0  0
    4.1303    0.9686   -0.9978 C   0  0  0  0  0  0  0  0  0  0  0  0
    2.7342    1.0803   -0.9845 C   0  0  0  0  0  0  0  0  0  0  0  0
   -1.6705    0.8224   -0.6475 N   0  0  0  0  0  0  0  0  0  0  0  0
   -2.5367    1.7118   -0.1675 C   0  0  0  0  0  0  0  0  0  0  0  0
   -3.9343    1.5345   -0.2822 N   0  0  0  0  0  0  0  0  0  0  0  0
   -4.5633    0.4030   -0.8955 C   0  0  1  0  0  0  0  0  0  0  0  0
   -4.3461   -0.9028   -0.2198 C   0  0  0  0  0  0  0  0  0  0  0  0
   -5.2108   -1.1238    1.0012 C   0  0  0  0  0  0  0  0  0  0  0  0
   -6.6223   -0.6722    0.8380 C   0  0  2  0  0  0  0  0  0  0  0  0
   -7.3534   -1.6243    0.1406 O   0  0  0  0  0  0  0  0  0  0  0  0
   -6.7391    0.6788    0.1721 C   0  0  0  0  0  0  0  0  0  0  0  0
   -6.0434    0.6498   -1.1482 C   0  0  0  0  0  0  0  0  0  0  0  0
   -2.0567    2.8579    0.4704 C   0  0  0  0  0  0  0  0  0  0  0  0
   -0.7020    2.9790    0.5536 C   0  0  0  0  0  0  0  0  0  0  0  0
    0.1125    2.0447    0.0482 N   0  0  0  0  0  0  0  0  0  0  0  0
    0.0459   -0.8923   -1.5185 H   0  0  0  0  0  0  0  0  0  0  0  0
    1.9772   -2.1385   -1.2051 H   0  0  0  0  0  0  0  0  0  0  0  0
    4.3574   -2.3626   -1.2320 H   0  0  0  0  0  0  0  0  0  0  0  0
    6.2474   -1.4808    2.1456 H   0  0  0  0  0  0  0  0  0  0  0  0
    5.8478   -2.3917    0.6487 H   0  0  0  0  0  0  0  0  0  0  0  0
    7.4443   -2.5722    1.4236 H   0  0  0  0  0  0  0  0  0  0  0  0
    8.8017   -1.9385   -0.0566 H   0  0  0  0  0  0  0  0  0  0  0  0
    9.1338   -0.7415    1.2165 H   0  0  0  0  0  0  0  0  0  0  0  0
    8.9008   -0.2314   -0.5442 H   0  0  0  0  0  0  0  0  0  0  0  0
    4.7329    1.8479   -0.9388 H   0  0  0  0  0  0  0  0  0  0  0  0
    2.2966    2.0723   -0.9309 H   0  0  0  0  0  0  0  0  0  0  0  0
   -4.5762    2.2779    0.1058 H   0  0  0  0  0  0  0  0  0  0  0  0
   -4.1250    0.2981   -1.9352 H   0  0  0  0  0  0  0  0  0  0  0  0
   -4.4935   -1.7286   -0.9524 H   0  0  0  0  0  0  0  0  0  0  0  0
   -3.2981   -0.9795    0.1170 H   0  0  0  0  0  0  0  0  0  0  0  0
   -5.2402   -2.2422    1.1531 H   0  0  0  0  0  0  0  0  0  0  0  0
   -4.7217   -0.7305    1.9303 H   0  0  0  0  0  0  0  0  0  0  0  0
   -7.0774   -0.5853    1.8457 H   0  0  0  0  0  0  0  0  0  0  0  0
   -7.9090   -1.2431   -0.5813 H   0  0  0  0  0  0  0  0  0  0  0  0
   -7.8196    0.8618    0.0069 H   0  0  0  0  0  0  0  0  0  0  0  0
   -6.2982    1.4470    0.8230 H   0  0  0  0  0  0  0  0  0  0  0  0
   -6.1414    1.6190   -1.6663 H   0  0  0  0  0  0  0  0  0  0  0  0
   -6.3932   -0.1683   -1.7920 H   0  0  0  0  0  0  0  0  0  0  0  0
   -2.7056    3.6128    0.8788 H   0  0  0  0  0  0  0  0  0  0  0  0
   -0.2911    3.8612    1.0452 H   0  0  0  0  0  0  0  0  0  0  0  0
  1  2  1  0
  2  3  1  0
  3  4  2  0
  4  5  1  0
  5  6  2  0
  6  7  1  0
  7  8  2  0
  7  9  1  0
  9 10  1  0
  9 11  1  0
  7 12  2  0
  6 13  1  0
 13 14  2  0
  1 15  2  0
 15 16  1  0
 16 17  1  0
 17 18  1  0
 18 19  1  0
 19 20  1  0
 20 21  1  0
 21 22  1  0
 21 23  1  0
 23 24  1  0
 16 25  2  0
 25 26  1  0
 26 27  2  0
 27  1  1  0
 14  3  1  0
 24 18  1  0
  2 28  1  0
  4 29  1  0
  5 30  1  0
 10 31  1  0
 10 32  1  0
 10 33  1  0
 11 34  1  0
 11 35  1  0
 11 36  1  0
 13 37  1  0
 14 38  1  0
 17 39  1  0
 18 40  1  6
 19 41  1  0
 19 42  1  0
 20 43  1  0
 20 44  1  0
 21 45  1  1
 22 46  1  0
 23 47  1  0
 23 48  1  0
 24 49  1  0
 24 50  1  0
 25 51  1  0
 26 52  1  0
M  END
$$$$
[H]c1c([H])c([H])c(C([H])([H])[C@@]([H])(C(=O)N([H])[C@]([H])(C(=O)N([H])[C@]([H])(C(=O)N([H])[H])C([H])([H])c2c([H])c([H])c([H])c([H])c2[H])C([H])([H])C([H])(C([H])([H])[H])C([H])([H])[H])N([H])[H])c([H])c1[H]
     RDKit          3D

 63 64  0  0  0  0  0  0  0  0999 V2000
   -0.7974    4.6989   -0.4117 C   0  0  0  0  0  0  0  0  0  0  0  0
   -0.8849    3.1888   -0.6389 C   0  0  0  0  0  0  0  0  0  0  0  0
   -0.7288    2.9795   -2.1310 C   0  0  0  0  0  0  0  0  0  0  0  0
    0.2440    2.5860    0.1416 C   0  0  0  0  0  0  0  0  0  0  0  0
    0.3498    1.1046    0.0624 C   0  0  2  0  0  0  0  0  0  0  0  0
   -0.7777    0.3750    0.5277 N   0  0  0  0  0  0  0  0  0  0  0  0
   -1.3881   -0.5709   -0.3380 C   0  0  0  0  0  0  0  0  0  0  0  0
   -0.9437   -0.7750   -1.5199 O   0  0  0  0  0  0  0  0  0  0  0  0
   -2.5679   -1.3919    0.0333 C   0  0  1  0  0  0  0  0  0  0  0  0
   -3.0035   -1.1248    1.3911 N   0  0  0  0  0  0  0  0  0  0  0  0
   -3.6394   -1.1080   -0.9724 C   0  0  0  0  0  0  0  0  0  0  0  0
   -4.8375   -1.9054   -0.6428 C   0  0  0  0  0  0  0  0  0  0  0  0
   -5.7937   -1.3709    0.1897 C   0  0  0  0  0  0  0  0  0  0  0  0
   -6.9091   -2.1268    0.4900 C   0  0  0  0  0  0  0  0  0  0  0  0
   -7.0597   -3.3898   -0.0340 C   0  0  0  0  0  0  0  0  0  0  0  0
   -6.0875   -3.9130   -0.8706 C   0  0  0  0  0  0  0  0  0  0  0  0
   -4.9598   -3.1623   -1.1808 C   0  0  0  0  0  0  0  0  0  0  0  0
    1.5208    0.7005    0.8933 C   0  0  0  0  0  0  0  0  0  0  0  0
    1.3928   -0.1525    1.8238 O   0  0  0  0  0  0  0  0  0  0  0  0
    2.8083    1.2513    0.6739 N   0  0  0  0  0  0  0  0  0  0  0  0
    3.9497    0.8637    1.4769 C   0  0  1  0  0  0  0  0  0  0  0  0
    4.9931    0.3094    0.5296 C   0  0  0  0  0  0  0  0  0  0  0  0
    4.4982   -0.8633   -0.2169 C   0  0  0  0  0  0  0  0  0  0  0  0
    4.6883   -2.1126    0.3366 C   0  0  0  0  0  0  0  0  0  0  0  0
    4.2483   -3.2324   -0.3149 C   0  0  0  0  0  0  0  0  0  0  0  0
    3.6154   -3.1175   -1.5231 C   0  0  0  0  0  0  0  0  0  0  0  0
    3.4143   -1.8718   -2.0968 C   0  0  0  0  0  0  0  0  0  0  0  0
    3.8560   -0.7480   -1.4425 C   0  0  0  0  0  0  0  0  0  0  0  0
    4.4633    2.0361    2.2249 C   0  0  0  0  0  0  0  0  0  0  0  0
    5.5779    1.9355    3.0891 N   0  0  0  0  0  0  0  0  0  0  0  0
    3.9254    3.1767    2.1213 O   0  0  0  0  0  0  0  0  0  0  0  0
   -1.6459    5.2288   -0.8711 H   0  0  0  0  0  0  0  0  0  0  0  0
   -0.6617    4.9283    0.6676 H   0  0  0  0  0  0  0  0  0  0  0  0
    0.1207    5.0325   -0.9503 H   0  0  0  0  0  0  0  0  0  0  0  0
   -1.8832    2.8937   -0.3001 H   0  0  0  0  0  0  0  0  0  0  0  0
   -1.3652    2.1550   -2.5047 H   0  0  0  0  0  0  0  0  0  0  0  0
   -1.0753    3.8948   -2.6772 H   0  0  0  0  0  0  0  0  0  0  0  0
    0.3369    2.8613   -2.3785 H   0  0  0  0  0  0  0  0  0  0  0  0
    0.1588    2.9239    1.1946 H   0  0  0  0  0  0  0  0  0  0  0  0
    1.1855    3.0222   -0.2520 H   0  0  0  0  0  0  0  0  0  0  0  0
    0.5925    0.7979   -0.9764 H   0  0  0  0  0  0  0  0  0  0  0  0
   -1.2037    0.4809    1.4754 H   0  0  0  0  0  0  0  0  0  0  0  0
   -2.3137   -2.4606   -0.0206 H   0  0  0  0  0  0  0  0  0  0  0  0
   -2.2091   -1.1774    2.0709 H   0  0  0  0  0  0  0  0  0  0  0  0
   -3.6628   -1.8968    1.7126 H   0  0  0  0  0  0  0  0  0  0  0  0
   -3.2383   -1.4116   -1.9716 H   0  0  0  0  0  0  0  0  0  0  0  0
   -3.8421   -0.0134   -0.9403 H   0  0  0  0  0  0  0  0  0  0  0  0
   -5.6827   -0.3707    0.6097 H   0  0  0  0  0  0  0  0  0  0  0  0
   -7.6524   -1.6898    1.1477 H   0  0  0  0  0  0  0  0  0  0  0  0
   -7.9387   -3.9745    0.2081 H   0  0  0  0  0  0  0  0  0  0  0  0
   -6.1961   -4.8995   -1.2854 H   0  0  0  0  0  0  0  0  0  0  0  0
   -4.2243   -3.6051   -1.8366 H   0  0  0  0  0  0  0  0  0  0  0  0
    2.9075    1.9502   -0.0916 H   0  0  0  0  0  0  0  0  0  0  0  0
    3.6129    0.1269    2.2108 H   0  0  0  0  0  0  0  0  0  0  0  0
    5.3478    1.1094   -0.1518 H   0  0  0  0  0  0  0  0  0  0  0  0
    5.8662   -0.0087    1.1324 H   0  0  0  0  0  0  0  0  0  0  0  0
    5.1936   -2.2165    1.3031 H   0  0  0  0  0  0  0  0  0  0  0  0
    4.4217   -4.2063    0.1640 H   0  0  0  0  0  0  0  0  0  0  0  0
    3.2614   -3.9863   -2.0523 H   0  0  0  0  0  0  0  0  0  0  0  0
    2.9032   -1.8022   -3.0686 H   0  0  0  0  0  0  0  0  0  0  0  0
    3.7101    0.2300   -1.8705 H   0  0  0  0  0  0  0  0  0  0  0  0
    5.7518    1.0938    3.6943 H   0  0  0  0  0  0  0  0  0  0  0  0
    6.2577    2.7205    3.1341 H   0  0  0  0  0  0  0  0  0  0  0  0
  1  2  1  0
  2  3  1  0
  2  4  1  0
  4  5  1  0
  5  6  1  0
  6  7  1  0
  7  8  2  0
  7  9  1  0
  9 10  1  0
  9 11  1  0
 11 12  1  0
 12 13  2  0
 13 14  1  0
 14 15  2  0
 15 16  1  0
 16 17  2  0
  5 18  1  0
 18 19  2  0
 18 20  1  0
 20 21  1  0
 21 22  1  0
 22 23  1  0
 23 24  2  0
 24 25  1  0
 25 26  2  0
 26 27  1  0
 27 28  2  0
 21 29  1  0
 29 30  1  0
 29 31  2  0
 17 12  1  0
 28 23  1  0
  1 32  1  0
  1 33  1  0
  1 34  1  0
  2 35  1  0
  3 36  1  0
  3 37  1  0
  3 38  1  0
  4 39  1  0
  4 40  1  0
  5 41  1  6
  6 42  1  0
  9 43  1  1
 10 44  1  0
 10 45  1  0
 11 46  1  0
 11 47  1  0
 13 48  1  0
 14 49  1  0
 15 50  1  0
 16 51  1  0
 17 52  1  0
 20 53  1  0
 21 54  1  1
 22 55  1  0
 22 56  1  0
 24 57  1  0
 25 58  1  0
 26 59  1  0
 27 60  1  0
 28 61  1  0
 30 62  1  0
 30 63  1  0
M  END
$$$$
[H]N=C(c1c([H])c([H])c(N2C([H])([H])C([H])([H])N(C([H])([H])C([H])([H])C(=O)N([H])c3c([H])c([H])c([H])c(Oc4c(C([H])([H])C(=O)N([H])[H])c([H])nc5c([H])c(Cl)c(OC([H])([H])[H])c([H])c45)c3[H])C([H])([H])C2([H])[H])c([H])c1[H])N([H])[H]
     RDKit          3D

 78 82  0  0  0  0  0  0  0  0999 V2000
   -6.3106    4.3462   -1.0526 C   0  0  0  0  0  0  0  0  0  0  0  0
   -7.6529    4.2338   -0.6039 O   0  0  0  0  0  0  0  0  0  0  0  0
   -8.1182    2.9675   -0.2823 C   0  0  0  0  0  0  0  0  0  0  0  0
   -7.3186    1.8349   -0.3880 C   0  0  0  0  0  0  0  0  0  0  0  0
   -7.7976    0.5651   -0.0614 C   0  0  0  0  0  0  0  0  0  0  0  0
   -6.9828   -0.5411   -0.1724 C   0  0  0  0  0  0  0  0  0  0  0  0
   -5.6652   -0.4207   -0.6140 O   0  0  0  0  0  0  0  0  0  0  0  0
   -4.6518   -0.1546    0.3145 C   0  0  0  0  0  0  0  0  0  0  0  0
   -5.0105    0.0797    1.6350 C   0  0  0  0  0  0  0  0  0  0  0  0
   -4.0049    0.3378    2.5317 C   0  0  0  0  0  0  0  0  0  0  0  0
   -2.6539    0.3701    2.1566 C   0  0  0  0  0  0  0  0  0  0  0  0
   -2.2922    0.1404    0.8626 C   0  0  0  0  0  0  0  0  0  0  0  0
   -0.9533    0.1270    0.4163 N   0  0  0  0  0  0  0  0  0  0  0  0
    0.2024    0.1096    1.1851 C   0  0  0  0  0  0  0  0  0  0  0  0
    0.2042    0.1041    2.4222 O   0  0  0  0  0  0  0  0  0  0  0  0
    1.5398    0.0939    0.5148 C   0  0  0  0  0  0  0  0  0  0  0  0
    2.6352    0.0013    1.5315 C   0  0  0  0  0  0  0  0  0  0  0  0
    3.9132   -0.0489    0.9103 N   0  0  0  0  0  0  0  0  0  0  0  0
    4.2932    1.1773    0.3151 C   0  0  0  0  0  0  0  0  0  0  0  0
    5.5348    1.0782   -0.5335 C   0  0  0  0  0  0  0  0  0  0  0  0
    6.2229   -0.1771   -0.4871 N   0  0  0  0  0  0  0  0  0  0  0  0
    5.5183   -1.4142   -0.3144 C   0  0  0  0  0  0  0  0  0  0  0  0
    4.0850   -1.1725    0.0061 C   0  0  0  0  0  0  0  0  0  0  0  0
    7.6595   -0.1685   -0.6379 C   0  0  0  0  0  0  0  0  0  0  0  0
    8.3982    0.9343   -0.9503 C   0  0  0  0  0  0  0  0  0  0  0  0
    9.7940    0.8740   -1.0742 C   0  0  0  0  0  0  0  0  0  0  0  0
   10.4682   -0.3105   -0.8829 C   0  0  0  0  0  0  0  0  0  0  0  0
    9.7256   -1.4224   -0.5686 C   0  0  0  0  0  0  0  0  0  0  0  0
    8.3309   -1.3547   -0.4465 C   0  0  0  0  0  0  0  0  0  0  0  0
   11.9277   -0.3536   -1.0136 C   0  0  0  0  0  0  0  0  0  0  0  0
   12.6787    0.8133   -1.3290 N   0  0  0  0  0  0  0  0  0  0  0  0
   12.5825   -1.4308   -0.8506 N   0  0  0  0  0  0  0  0  0  0  0  0
   -3.3220   -0.1200   -0.0392 C   0  0  0  0  0  0  0  0  0  0  0  0
   -7.4588   -1.8054    0.1553 C   0  0  0  0  0  0  0  0  0  0  0  0
   -6.5603   -2.9516    0.0072 C   0  0  0  0  0  0  0  0  0  0  0  0
   -6.4879   -3.3064   -1.4556 C   0  0  0  0  0  0  0  0  0  0  0  0
   -5.6519   -4.3908   -1.8239 N   0  0  0  0  0  0  0  0  0  0  0  0
   -7.1396   -2.6716   -2.3292 O   0  0  0  0  0  0  0  0  0  0  0  0
   -8.7674   -1.8720    0.5874 C   0  0  0  0  0  0  0  0  0  0  0  0
   -9.5465   -0.7798    0.6890 N   0  0  0  0  0  0  0  0  0  0  0  0
   -9.1069    0.4701    0.3749 C   0  0  0  0  0  0  0  0  0  0  0  0
   -9.9271    1.5705    0.4913 C   0  0  0  0  0  0  0  0  0  0  0  0
   -9.4154    2.8124    0.1581 C   0  0  0  0  0  0  0  0  0  0  0  0
  -10.4790    4.1947    0.3150 Cl  0  0  0  0  0  0  0  0  0  0  0  0
   -6.2132    3.8747   -2.0527 H   0  0  0  0  0  0  0  0  0  0  0  0
   -5.6033    3.7892   -0.3895 H   0  0  0  0  0  0  0  0  0  0  0  0
   -5.9644    5.4048   -1.0284 H   0  0  0  0  0  0  0  0  0  0  0  0
   -6.3077    1.9035   -0.7241 H   0  0  0  0  0  0  0  0  0  0  0  0
   -6.0583    0.0486    1.8976 H   0  0  0  0  0  0  0  0  0  0  0  0
   -4.2399    0.5255    3.5675 H   0  0  0  0  0  0  0  0  0  0  0  0
   -1.9585    0.5889    2.9310 H   0  0  0  0  0  0  0  0  0  0  0  0
   -0.7979    0.1337   -0.6613 H   0  0  0  0  0  0  0  0  0  0  0  0
    1.5991   -0.7823   -0.1852 H   0  0  0  0  0  0  0  0  0  0  0  0
    1.6540    0.9915   -0.1135 H   0  0  0  0  0  0  0  0  0  0  0  0
    2.4668   -0.8311    2.2579 H   0  0  0  0  0  0  0  0  0  0  0  0
    2.5214    0.9367    2.1694 H   0  0  0  0  0  0  0  0  0  0  0  0
    3.4952    1.5403   -0.3598 H   0  0  0  0  0  0  0  0  0  0  0  0
    4.4169    1.9881    1.0961 H   0  0  0  0  0  0  0  0  0  0  0  0
    5.3736    1.4319   -1.5771 H   0  0  0  0  0  0  0  0  0  0  0  0
    6.2395    1.8529   -0.1002 H   0  0  0  0  0  0  0  0  0  0  0  0
    5.5736   -1.9705   -1.2601 H   0  0  0  0  0  0  0  0  0  0  0  0
    5.9351   -2.0559    0.4962 H   0  0  0  0  0  0  0  0  0  0  0  0
    3.5181   -0.9149   -0.9358 H   0  0  0  0  0  0  0  0  0  0  0  0
    3.5941   -2.0537    0.4408 H   0  0  0  0  0  0  0  0  0  0  0  0
    7.9081    1.8824   -1.1158 H   0  0  0  0  0  0  0  0  0  0  0  0
   10.3642    1.7551   -1.3221 H   0  0  0  0  0  0  0  0  0  0  0  0
   10.2345   -2.3590   -0.4150 H   0  0  0  0  0  0  0  0  0  0  0  0
    7.7890   -2.2632   -0.1989 H   0  0  0  0  0  0  0  0  0  0  0  0
   12.5287    1.7039   -0.8144 H   0  0  0  0  0  0  0  0  0  0  0  0
   13.3996    0.7738   -2.0965 H   0  0  0  0  0  0  0  0  0  0  0  0
   12.2407   -2.3669   -0.6215 H   0  0  0  0  0  0  0  0  0  0  0  0
   -3.0203   -0.3013   -1.0681 H   0  0  0  0  0  0  0  0  0  0  0  0
   -5.4922   -2.7001    0.2694 H   0  0  0  0  0  0  0  0  0  0  0  0
   -6.8865   -3.8432    0.5746 H   0  0  0  0  0  0  0  0  0  0  0  0
   -4.6196   -4.3736   -1.6725 H   0  0  0  0  0  0  0  0  0  0  0  0
   -6.0448   -5.2418   -2.2590 H   0  0  0  0  0  0  0  0  0  0  0  0
   -9.1480   -2.8505    0.8443 H   0  0  0  0  0  0  0  0  0  0  0  0
  -10.9364    1.4136    0.8387 H   0  0  0  0  0  0  0  0  0  0  0  0
  1  2  1  0
  2  3  1  0
  3  4  2  0
  4  5  1  0
  5  6  2  0
  6  7  1  0
  7  8  1  0
  8  9  2  0
  9 10  1  0
 10 11  2  0
 11 12  1  0
 12 13  1  0
 13 14  1  0
 14 15  2  0
 14 16  1  0
 16 17  1  0
 17 18  1  0
 18 19  1  0
 19 20  1  0
 20 21  1  0
 21 22  1  0
 22 23  1  0
 21 24  1  0
 24 25  2  0
 25 26  1  0
 26 27  2  0
 27 28  1  0
 28 29  2  0
 27 30  1  0
 30 31  1  0
 30 32  2  3
 12 33  2  0
  6 34  1  0
 34 35  1  0
 35 36  1  0
 36 37  1  0
 36 38  2  0
 34 39  2  0
 39 40  1  0
 40 41  2  0
 41 42  1  0
 42 43  2  0
 43 44  1  0
 43  3  1  0
 41  5  1  0
 33  8  1  0
 23 18  1  0
 29 24  1  0
  1 45  1  0
  1 46  1  0
  1 47  1  0
  4 48  1  0
  9 49  1  0
 10 50  1  0
 11 51  1  0
 13 52  1  0
 16 53  1  0
 16 54  1  0
 17 55  1  0
 17 56  1  0
 19 57  1  0
 19 58  1  0
 20 59  1  0
 20 60  1  0
 22 61  1  0
 22 62  1  0
 23 63  1  0
 23 64  1  0
 25 65  1  0
 26 66  1  0
 28 67  1  0
 29 68  1  0
 31 69  1  0
 31 70  1  0
 32 71  1  0
 33 72  1  0
 35 73  1  0
 35 74  1  0
 37 75  1  0
 37 76  1  0
 39 77  1  0
 42 78  1  0
M  END
$$$$
[H]OC(=O)[C@@]([H])(N([H])C(=O)n1c([H])nc2c(=O)n([H])c(-c3c([H])c([H])c(O[H])c([H])c3[H])nc21)C([H])([H])C([H])([H])C([H])([H])C([H])([H])N([H])[H]
     RDKit          3D

 49 51  0  0  0  0  0  0  0  0999 V2000
    7.7749    2.6127    0.6450 O   0  0  0  0  0  0  0  0  0  0  0  0
    6.7559    1.7889    0.1883 C   0  0  0  0  0  0  0  0  0  0  0  0
    6.9831    0.9380   -0.8549 C   0  0  0  0  0  0  0  0  0  0  0  0
    5.9677    0.1272   -1.2988 C   0  0  0  0  0  0  0  0  0  0  0  0
    4.7201    0.1337   -0.7345 C   0  0  0  0  0  0  0  0  0  0  0  0
    4.4858    1.0046    0.3342 C   0  0  0  0  0  0  0  0  0  0  0  0
    5.4969    1.8116    0.7758 C   0  0  0  0  0  0  0  0  0  0  0  0
    3.6088   -0.7187   -1.1816 C   0  0  0  0  0  0  0  0  0  0  0  0
    2.4043   -0.6558   -0.5740 N   0  0  0  0  0  0  0  0  0  0  0  0
    1.3651   -1.4155   -0.9509 C   0  0  0  0  0  0  0  0  0  0  0  0
    0.0909   -1.5408   -0.5205 N   0  0  0  0  0  0  0  0  0  0  0  0
   -0.5354   -2.4673   -1.2663 C   0  0  0  0  0  0  0  0  0  0  0  0
    0.3470   -2.9206   -2.1620 N   0  0  0  0  0  0  0  0  0  0  0  0
    1.5289   -2.3028   -2.0061 C   0  0  0  0  0  0  0  0  0  0  0  0
    2.7440   -2.3699   -2.6230 C   0  0  0  0  0  0  0  0  0  0  0  0
    2.9197   -3.1658   -3.5824 O   0  0  0  0  0  0  0  0  0  0  0  0
    3.7682   -1.5658   -2.1904 N   0  0  0  0  0  0  0  0  0  0  0  0
   -0.5093   -0.8185    0.5471 C   0  0  0  0  0  0  0  0  0  0  0  0
    0.1512    0.0351    1.1969 O   0  0  0  0  0  0  0  0  0  0  0  0
   -1.8502   -1.0268    0.9153 N   0  0  0  0  0  0  0  0  0  0  0  0
   -2.5117   -0.3231    1.9897 C   0  0  1  0  0  0  0  0  0  0  0  0
   -3.6180    0.5665    1.4911 C   0  0  0  0  0  0  0  0  0  0  0  0
   -4.6922   -0.2009    0.7589 C   0  0  0  0  0  0  0  0  0  0  0  0
   -5.7812    0.7239    0.2755 C   0  0  0  0  0  0  0  0  0  0  0  0
   -5.2532    1.7775   -0.6729 C   0  0  0  0  0  0  0  0  0  0  0  0
   -4.6499    1.2017   -1.8472 N   0  0  0  0  0  0  0  0  0  0  0  0
   -2.9585   -1.3026    2.9879 C   0  0  0  0  0  0  0  0  0  0  0  0
   -3.6191   -0.8666    4.1107 O   0  0  0  0  0  0  0  0  0  0  0  0
   -2.7486   -2.5142    2.8323 O   0  0  0  0  0  0  0  0  0  0  0  0
    7.9360    3.5475    0.2789 H   0  0  0  0  0  0  0  0  0  0  0  0
    7.9733    0.9108   -1.3273 H   0  0  0  0  0  0  0  0  0  0  0  0
    6.1756   -0.5374   -2.1273 H   0  0  0  0  0  0  0  0  0  0  0  0
    3.4911    1.0047    0.7784 H   0  0  0  0  0  0  0  0  0  0  0  0
    5.3003    2.4798    1.6031 H   0  0  0  0  0  0  0  0  0  0  0  0
   -1.5805   -2.7804   -1.1460 H   0  0  0  0  0  0  0  0  0  0  0  0
    4.6656   -1.6673   -2.7035 H   0  0  0  0  0  0  0  0  0  0  0  0
   -2.4497   -1.7360    0.3981 H   0  0  0  0  0  0  0  0  0  0  0  0
   -1.7314    0.3756    2.4146 H   0  0  0  0  0  0  0  0  0  0  0  0
   -4.0968    1.1110    2.3240 H   0  0  0  0  0  0  0  0  0  0  0  0
   -3.1869    1.3211    0.8054 H   0  0  0  0  0  0  0  0  0  0  0  0
   -4.2400   -0.6678   -0.1557 H   0  0  0  0  0  0  0  0  0  0  0  0
   -5.1577   -0.9791    1.3738 H   0  0  0  0  0  0  0  0  0  0  0  0
   -6.5526    0.1440   -0.2512 H   0  0  0  0  0  0  0  0  0  0  0  0
   -6.2135    1.2537    1.1509 H   0  0  0  0  0  0  0  0  0  0  0  0
   -6.1547    2.3479   -1.0273 H   0  0  0  0  0  0  0  0  0  0  0  0
   -4.5512    2.4730   -0.1851 H   0  0  0  0  0  0  0  0  0  0  0  0
   -3.7281    0.7922   -1.5797 H   0  0  0  0  0  0  0  0  0  0  0  0
   -5.2511    0.3784   -2.1412 H   0  0  0  0  0  0  0  0  0  0  0  0
   -3.0326   -0.6593    4.9338 H   0  0  0  0  0  0  0  0  0  0  0  0
  1  2  1  0
  2  3  2  0
  3  4  1  0
  4  5  2  0
  5  6  1  0
  6  7  2  0
  5  8  1  0
  8  9  2  0
  9 10  1  0
 10 11  1  0
 11 12  1  0
 12 13  2  0
 13 14  1  0
 14 15  1  0
 15 16  2  0
 15 17  1  0
 11 18  1  0
 18 19  2  0
 18 20  1  0
 20 21  1  0
 21 22  1  0
 22 23  1  0
 23 24  1  0
 24 25  1  0
 25 26  1  0
 21 27  1  0
 27 28  1  0
 27 29  2  0
  7  2  1  0
 17  8  1  0
 14 10  2  0
  1 30  1  0
  3 31  1  0
  4 32  1  0
  6 33  1  0
  7 34  1  0
 12 35  1  0
 17 36  1  0
 20 37  1  0
 21 38  1  1
 22 39  1  0
 22 40  1  0
 23 41  1  0
 23 42  1  0
 24 43  1  0
 24 44  1  0
 25 45  1  0
 25 46  1  0
 26 47  1  0
 26 48  1  0
 28 49  1  0
M  END
$$$$
[H]Oc1c([H])c([H])c(C([H])([H])[C@@]([H])(C(=O)N2C([H])([H])C([H])([H])C([H])([H])[C@@]2([H])C(=O)N([H])[C@]([H])(C(=O)N([H])[C@]([H])(C([H])([H])[H])C(F)(F)F)C([H])([H])c2c([H])c([H])c(O[H])c([H])c2[H])N([H])C(=O)c2c([H])c([H])c(F)c([H])c2[H])c([H])c1[H]
     RDKit          3D

 81 84  0  0  0  0  0  0  0  0999 V2000
    8.3335    1.6742    2.1411 C   0  0  0  0  0  0  0  0  0  0  0  0
    6.9536    2.1271    2.4860 C   0  0  1  0  0  0  0  0  0  0  0  0
    5.9682    1.0829    2.3386 N   0  0  0  0  0  0  0  0  0  0  0  0
    4.8387    1.2425    1.4964 C   0  0  0  0  0  0  0  0  0  0  0  0
    4.7230    2.3478    0.8711 O   0  0  0  0  0  0  0  0  0  0  0  0
    3.8271    0.1919    1.3367 C   0  0  2  0  0  0  0  0  0  0  0  0
    4.4492   -1.0431    0.7579 C   0  0  0  0  0  0  0  0  0  0  0  0
    5.0586   -0.8840   -0.5687 C   0  0  0  0  0  0  0  0  0  0  0  0
    4.2248   -1.0578   -1.6666 C   0  0  0  0  0  0  0  0  0  0  0  0
    4.7388   -0.9402   -2.9313 C   0  0  0  0  0  0  0  0  0  0  0  0
    6.0762   -0.6504   -3.1805 C   0  0  0  0  0  0  0  0  0  0  0  0
    6.4909   -0.5536   -4.4811 O   0  0  0  0  0  0  0  0  0  0  0  0
    6.8812   -0.4829   -2.0741 C   0  0  0  0  0  0  0  0  0  0  0  0
    6.3742   -0.5989   -0.8054 C   0  0  0  0  0  0  0  0  0  0  0  0
    2.7252    0.6524    0.4868 N   0  0  0  0  0  0  0  0  0  0  0  0
    1.3802    0.4661    0.8809 C   0  0  0  0  0  0  0  0  0  0  0  0
    1.1427   -0.1082    1.9618 O   0  0  0  0  0  0  0  0  0  0  0  0
    0.3166    0.9482    0.0175 C   0  0  2  0  0  0  0  0  0  0  0  0
    0.2247    2.4729    0.2475 C   0  0  0  0  0  0  0  0  0  0  0  0
   -0.6881    2.5997    1.4530 C   0  0  0  0  0  0  0  0  0  0  0  0
   -1.3431    1.2482    1.6084 C   0  0  0  0  0  0  0  0  0  0  0  0
   -1.0264    0.5821    0.3781 N   0  0  0  0  0  0  0  0  0  0  0  0
   -1.8776   -0.2495   -0.3709 C   0  0  0  0  0  0  0  0  0  0  0  0
   -1.4339   -0.7103   -1.4702 O   0  0  0  0  0  0  0  0  0  0  0  0
   -3.2617   -0.6086    0.0545 C   0  0  2  0  0  0  0  0  0  0  0  0
   -3.1835   -2.0010    0.6375 C   0  0  0  0  0  0  0  0  0  0  0  0
   -4.5024   -2.4943    1.1029 C   0  0  0  0  0  0  0  0  0  0  0  0
   -4.9301   -2.2788    2.3938 C   0  0  0  0  0  0  0  0  0  0  0  0
   -6.1553   -2.7295    2.8524 C   0  0  0  0  0  0  0  0  0  0  0  0
   -7.0220   -3.4315    2.0164 C   0  0  0  0  0  0  0  0  0  0  0  0
   -8.2507   -3.8835    2.4778 O   0  0  0  0  0  0  0  0  0  0  0  0
   -6.5968   -3.6486    0.7253 C   0  0  0  0  0  0  0  0  0  0  0  0
   -5.3666   -3.1929    0.2738 C   0  0  0  0  0  0  0  0  0  0  0  0
   -4.0736   -0.5928   -1.1563 N   0  0  0  0  0  0  0  0  0  0  0  0
   -5.2022    0.2405   -1.2930 C   0  0  0  0  0  0  0  0  0  0  0  0
   -5.4889    0.9792   -0.2912 O   0  0  0  0  0  0  0  0  0  0  0  0
   -6.0615    0.3438   -2.4452 C   0  0  0  0  0  0  0  0  0  0  0  0
   -7.3853    0.7113   -2.2496 C   0  0  0  0  0  0  0  0  0  0  0  0
   -8.2445    0.8572   -3.2907 C   0  0  0  0  0  0  0  0  0  0  0  0
   -7.8322    0.6447   -4.5870 C   0  0  0  0  0  0  0  0  0  0  0  0
   -8.6995    0.7966   -5.6396 F   0  0  0  0  0  0  0  0  0  0  0  0
   -6.5152    0.2779   -4.7927 C   0  0  0  0  0  0  0  0  0  0  0  0
   -5.6435    0.1298   -3.7355 C   0  0  0  0  0  0  0  0  0  0  0  0
    6.9956    2.6578    3.9126 C   0  0  0  0  0  0  0  0  0  0  0  0
    5.7527    3.0937    4.3011 F   0  0  0  0  0  0  0  0  0  0  0  0
    7.8271    3.7822    3.9762 F   0  0  0  0  0  0  0  0  0  0  0  0
    7.4487    1.6630    4.7408 F   0  0  0  0  0  0  0  0  0  0  0  0
    9.0207    2.5225    2.0181 H   0  0  0  0  0  0  0  0  0  0  0  0
    8.4022    1.0424    1.2576 H   0  0  0  0  0  0  0  0  0  0  0  0
    8.7169    1.1163    3.0377 H   0  0  0  0  0  0  0  0  0  0  0  0
    6.6808    2.9734    1.7975 H   0  0  0  0  0  0  0  0  0  0  0  0
    6.1321    0.2011    2.8869 H   0  0  0  0  0  0  0  0  0  0  0  0
    3.4065   -0.0837    2.3285 H   0  0  0  0  0  0  0  0  0  0  0  0
    5.2661   -1.3557    1.4612 H   0  0  0  0  0  0  0  0  0  0  0  0
    3.7365   -1.9126    0.7793 H   0  0  0  0  0  0  0  0  0  0  0  0
    3.1697   -1.2860   -1.4861 H   0  0  0  0  0  0  0  0  0  0  0  0
    4.0536   -1.0854   -3.7758 H   0  0  0  0  0  0  0  0  0  0  0  0
    7.4798   -0.3392   -4.6421 H   0  0  0  0  0  0  0  0  0  0  0  0
    7.9262   -0.2578   -2.2805 H   0  0  0  0  0  0  0  0  0  0  0  0
    7.0515   -0.4676    0.0205 H   0  0  0  0  0  0  0  0  0  0  0  0
    3.0141    1.1163   -0.4106 H   0  0  0  0  0  0  0  0  0  0  0  0
    0.5382    0.8251   -1.0663 H   0  0  0  0  0  0  0  0  0  0  0  0
   -0.1751    2.9429   -0.6552 H   0  0  0  0  0  0  0  0  0  0  0  0
    1.1981    2.9077    0.4861 H   0  0  0  0  0  0  0  0  0  0  0  0
   -1.4572    3.3662    1.1897 H   0  0  0  0  0  0  0  0  0  0  0  0
   -0.1183    2.9270    2.3564 H   0  0  0  0  0  0  0  0  0  0  0  0
   -2.4359    1.4523    1.7157 H   0  0  0  0  0  0  0  0  0  0  0  0
   -1.0318    0.7067    2.5263 H   0  0  0  0  0  0  0  0  0  0  0  0
   -3.6010    0.0910    0.8230 H   0  0  0  0  0  0  0  0  0  0  0  0
   -2.5156   -1.9629    1.5230 H   0  0  0  0  0  0  0  0  0  0  0  0
   -2.6795   -2.7008   -0.0772 H   0  0  0  0  0  0  0  0  0  0  0  0
   -4.2532   -1.7327    3.0424 H   0  0  0  0  0  0  0  0  0  0  0  0
   -6.4748   -2.5483    3.8776 H   0  0  0  0  0  0  0  0  0  0  0  0
   -9.1136   -3.3413    2.4279 H   0  0  0  0  0  0  0  0  0  0  0  0
   -7.2564   -4.1950    0.0546 H   0  0  0  0  0  0  0  0  0  0  0  0
   -5.0204   -3.3606   -0.7580 H   0  0  0  0  0  0  0  0  0  0  0  0
   -3.7984   -1.2219   -1.9242 H   0  0  0  0  0  0  0  0  0  0  0  0
   -7.7195    0.8829   -1.2404 H   0  0  0  0  0  0  0  0  0  0  0  0
   -9.2730    1.1462   -3.0894 H   0  0  0  0  0  0  0  0  0  0  0  0
   -6.2059    0.1139   -5.8261 H   0  0  0  0  0  0  0  0  0  0  0  0
   -4.6303   -0.1562   -3.9511 H   0  0  0  0  0  0  0  0  0  0  0  0
  1  2  1  0
  2  3  1  0
  3  4  1  0
  4  5  2  0
  4  6  1  0
  6  7  1  0
  7  8  1  0
  8  9  2  0
  9 10  1  0
 10 11  2  0
 11 12  1  0
 11 13  1  0
 13 14  2  0
  6 15  1  0
 15 16  1  0
 16 17  2  0
 16 18  1  0
 18 19  1  0
 19 20  1  0
 20 21  1  0
 21 22  1  0
 22 23  1  0
 23 24  2  0
 23 25  1  0
 25 26  1  0
 26 27  1  0
 27 28  2  0
 28 29  1  0
 29 30  2  0
 30 31  1  0
 30 32  1  0
 32 33  2  0
 25 34  1  0
 34 35  1  0
 35 36  2  0
 35 37  1  0
 37 38  2  0
 38 39  1  0
 39 40  2  0
 40 41  1  0
 40 42  1  0
 42 43  2  0
  2 44  1  0
 44 45  1  0
 44 46  1  0
 44 47  1  0
 14  8  1  0
 22 18  1  0
 33 27  1  0
 43 37  1  0
  1 48  1  0
  1 49  1  0
  1 50  1  0
  2 51  1  6
  3 52  1  0
  6 53  1  1
  7 54  1  0
  7 55  1  0
  9 56  1  0
 10 57  1  0
 12 58  1  0
 13 59  1  0
 14 60  1  0
 15 61  1  0
 18 62  1  6
 19 63  1  0
 19 64  1  0
 20 65  1  0
 20 66  1  0
 21 67  1  0
 21 68  1  0
 25 69  1  1
 26 70  1  0
 26 71  1  0
 28 72  1  0
 29 73  1  0
 31 74  1  0
 32 75  1  0
 33 76  1  0
 34 77  1  0
 38 78  1  0
 39 79  1  0
 42 80  1  0
 43 81  1  0
M  END
$$$$
[H]c1nc(N([H])[H])nc(-c2c([H])n([H])c3c(Br)c([H])c([H])c([H])c23)c1I
     RDKit          3D

 26 28  0  0  0  0  0  0  0  0999 V2000
   -3.6648    0.5560    2.1178 N   0  0  0  0  0  0  0  0  0  0  0  0
   -3.1507    0.0644    0.8738 C   0  0  0  0  0  0  0  0  0  0  0  0
   -3.8927   -0.6706    0.0075 N   0  0  0  0  0  0  0  0  0  0  0  0
   -3.3353   -1.0810   -1.1428 C   0  0  0  0  0  0  0  0  0  0  0  0
   -2.0230   -0.7791   -1.4774 C   0  0  0  0  0  0  0  0  0  0  0  0
   -1.1563   -1.4214   -3.2807 I   0  0  0  0  0  0  0  0  0  0  0  0
   -1.2846   -0.0440   -0.6076 C   0  0  0  0  0  0  0  0  0  0  0  0
   -1.9027    0.3452    0.5440 N   0  0  0  0  0  0  0  0  0  0  0  0
    0.1093    0.3371   -0.8310 C   0  0  0  0  0  0  0  0  0  0  0  0
    0.6257    1.0794   -1.8640 C   0  0  0  0  0  0  0  0  0  0  0  0
    1.9658    1.2312   -1.6894 N   0  0  0  0  0  0  0  0  0  0  0  0
    2.3386    0.6009   -0.5638 C   0  0  0  0  0  0  0  0  0  0  0  0
    3.5445    0.4329    0.0713 C   0  0  0  0  0  0  0  0  0  0  0  0
    5.1678    1.1822   -0.6043 Br  0  0  0  0  0  0  0  0  0  0  0  0
    3.5343   -0.3027    1.2376 C   0  0  0  0  0  0  0  0  0  0  0  0
    2.4110   -0.8690    1.7946 C   0  0  0  0  0  0  0  0  0  0  0  0
    1.2041   -0.6984    1.1556 C   0  0  0  0  0  0  0  0  0  0  0  0
    1.1828    0.0308   -0.0087 C   0  0  0  0  0  0  0  0  0  0  0  0
   -4.1915    1.4426    2.1184 H   0  0  0  0  0  0  0  0  0  0  0  0
   -3.4990    0.0139    2.9952 H   0  0  0  0  0  0  0  0  0  0  0  0
   -3.9129   -1.6729   -1.8431 H   0  0  0  0  0  0  0  0  0  0  0  0
    0.0580    1.4838   -2.7035 H   0  0  0  0  0  0  0  0  0  0  0  0
    2.6416    1.7499   -2.3107 H   0  0  0  0  0  0  0  0  0  0  0  0
    4.4968   -0.4330    1.7331 H   0  0  0  0  0  0  0  0  0  0  0  0
    2.4481   -1.4497    2.7179 H   0  0  0  0  0  0  0  0  0  0  0  0
    0.2849   -1.1284    1.5602 H   0  0  0  0  0  0  0  0  0  0  0  0
  1  2  1  0
  2  3  2  0
  3  4  1  0
  4  5  2  0
  5  6  1  0
  5  7  1  0
  7  8  2  0
  7  9  1  0
  9 10  2  0
 10 11  1  0
 11 12  1  0
 12 13  2  0
 13 14  1  0
 13 15  1  0
 15 16  2  0
 16 17  1  0
 17 18  2  0
  8  2  1  0
 18  9  1  0
 18 12  1  0
  1 19  1  0
  1 20  1  0
  4 21  1  0
 10 22  1  0
 11 23  1  0
 15 24  1  0
 16 25  1  0
 17 26  1  0
M  END
$$$$
[H]c1nc(Oc2c([H])c([H])c([H])c([H])c2[H])c(C([H])([H])N([H])c2nnc(-c3c([H])nc(OC4([H])C([H])([H])C([H])([H])N([H])C([H])([H])C4([H])[H])c([H])c3[H])s2)c([H])c1[H]
     RDKit          3D

 57 61  0  0  0  0  0  0  0  0999 V2000
    8.7998    0.7739   -1.1045 C   0  0  0  0  0  0  0  0  0  0  0  0
    7.3526    0.4363   -1.2260 C   0  0  0  0  0  0  0  0  0  0  0  0
    6.5100    1.0182   -0.1118 C   0  0  0  0  0  0  0  0  0  0  0  0
    6.9028    2.4456    0.2016 C   0  0  0  0  0  0  0  0  0  0  0  0
    8.3687    2.7052    0.1263 C   0  0  0  0  0  0  0  0  0  0  0  0
    8.9023    2.2374   -1.1404 N   0  0  0  0  0  0  0  0  0  0  0  0
    5.1904    1.0565   -0.5817 O   0  0  0  0  0  0  0  0  0  0  0  0
    4.0861    0.4310   -0.0771 C   0  0  0  0  0  0  0  0  0  0  0  0
    4.0569   -0.3821    1.0220 C   0  0  0  0  0  0  0  0  0  0  0  0
    2.8761   -0.9809    1.4663 C   0  0  0  0  0  0  0  0  0  0  0  0
    1.7579   -0.7213    0.7601 C   0  0  0  0  0  0  0  0  0  0  0  0
    1.7939    0.0951   -0.3414 C   0  0  0  0  0  0  0  0  0  0  0  0
    2.9249    0.6709   -0.7699 N   0  0  0  0  0  0  0  0  0  0  0  0
    0.4879   -1.3079    1.1594 C   0  0  0  0  0  0  0  0  0  0  0  0
    0.1973   -2.1178    2.1734 N   0  0  0  0  0  0  0  0  0  0  0  0
   -0.9819   -2.5210    2.3510 N   0  0  0  0  0  0  0  0  0  0  0  0
   -1.9441   -2.1359    1.5208 C   0  0  0  0  0  0  0  0  0  0  0  0
   -3.3403   -2.4817    1.5505 N   0  0  0  0  0  0  0  0  0  0  0  0
   -4.1668   -1.9248    0.5281 C   0  0  0  0  0  0  0  0  0  0  0  0
   -5.5844   -2.2816    0.5575 C   0  0  0  0  0  0  0  0  0  0  0  0
   -6.1228   -3.1037    1.5011 C   0  0  0  0  0  0  0  0  0  0  0  0
   -7.4876   -3.3773    1.4333 C   0  0  0  0  0  0  0  0  0  0  0  0
   -8.2593   -2.8391    0.4533 C   0  0  0  0  0  0  0  0  0  0  0  0
   -7.6860   -2.0351   -0.4545 N   0  0  0  0  0  0  0  0  0  0  0  0
   -6.3851   -1.7262   -0.4551 C   0  0  0  0  0  0  0  0  0  0  0  0
   -5.8335   -0.9007   -1.3990 O   0  0  0  0  0  0  0  0  0  0  0  0
   -5.8329    0.4820   -1.3170 C   0  0  0  0  0  0  0  0  0  0  0  0
   -6.4002    1.1700   -0.2712 C   0  0  0  0  0  0  0  0  0  0  0  0
   -6.3734    2.5478   -0.2358 C   0  0  0  0  0  0  0  0  0  0  0  0
   -5.7718    3.2391   -1.2594 C   0  0  0  0  0  0  0  0  0  0  0  0
   -5.1942    2.5781   -2.3218 C   0  0  0  0  0  0  0  0  0  0  0  0
   -5.2377    1.1997   -2.3276 C   0  0  0  0  0  0  0  0  0  0  0  0
   -1.0725   -1.1419    0.4392 S   0  0  0  0  0  0  0  0  0  0  0  0
    9.3247    0.3509   -1.9785 H   0  0  0  0  0  0  0  0  0  0  0  0
    9.2373    0.4189   -0.1452 H   0  0  0  0  0  0  0  0  0  0  0  0
    6.9813    0.6987   -2.2199 H   0  0  0  0  0  0  0  0  0  0  0  0
    7.2419   -0.6816   -1.1363 H   0  0  0  0  0  0  0  0  0  0  0  0
    6.5559    0.3823    0.7828 H   0  0  0  0  0  0  0  0  0  0  0  0
    6.5839    2.6249    1.2609 H   0  0  0  0  0  0  0  0  0  0  0  0
    6.3578    3.1790   -0.4153 H   0  0  0  0  0  0  0  0  0  0  0  0
    8.9581    2.2580    0.9425 H   0  0  0  0  0  0  0  0  0  0  0  0
    8.4911    3.8271    0.0989 H   0  0  0  0  0  0  0  0  0  0  0  0
    8.2183    2.5380   -1.8808 H   0  0  0  0  0  0  0  0  0  0  0  0
    4.9849   -0.5641    1.5625 H   0  0  0  0  0  0  0  0  0  0  0  0
    2.9332   -1.6104    2.3423 H   0  0  0  0  0  0  0  0  0  0  0  0
    0.8876    0.3098   -0.9191 H   0  0  0  0  0  0  0  0  0  0  0  0
   -3.6813   -3.0996    2.2864 H   0  0  0  0  0  0  0  0  0  0  0  0
   -3.7949   -2.1866   -0.5052 H   0  0  0  0  0  0  0  0  0  0  0  0
   -4.0365   -0.8169    0.5859 H   0  0  0  0  0  0  0  0  0  0  0  0
   -5.5635   -3.5684    2.3128 H   0  0  0  0  0  0  0  0  0  0  0  0
   -7.9736   -4.0283    2.1613 H   0  0  0  0  0  0  0  0  0  0  0  0
   -9.3382   -3.0284    0.3627 H   0  0  0  0  0  0  0  0  0  0  0  0
   -6.8754    0.6021    0.5358 H   0  0  0  0  0  0  0  0  0  0  0  0
   -6.8101    3.1177    0.5715 H   0  0  0  0  0  0  0  0  0  0  0  0
   -5.7285    4.3265   -1.2707 H   0  0  0  0  0  0  0  0  0  0  0  0
   -4.7164    3.1407   -3.1337 H   0  0  0  0  0  0  0  0  0  0  0  0
   -4.7708    0.7019   -3.1845 H   0  0  0  0  0  0  0  0  0  0  0  0
  1  2  1  0
  2  3  1  0
  3  4  1  0
  4  5  1  0
  5  6  1  0
  3  7  1  0
  7  8  1  0
  8  9  2  0
  9 10  1  0
 10 11  2  0
 11 12  1  0
 12 13  2  0
 11 14  1  0
 14 15  2  0
 15 16  1  0
 16 17  2  0
 17 18  1  0
 18 19  1  0
 19 20  1  0
 20 21  2  0
 21 22  1  0
 22 23  2  0
 23 24  1  0
 24 25  2  0
 25 26  1  0
 26 27  1  0
 27 28  2  0
 28 29  1  0
 29 30  2  0
 30 31  1  0
 31 32  2  0
 17 33  1  0
  6  1  1  0
 13  8  1  0
 33 14  1  0
 25 20  1  0
 32 27  1  0
  1 34  1  0
  1 35  1  0
  2 36  1  0
  2 37  1  0
  3 38  1  0
  4 39  1  0
  4 40  1  0
  5 41  1  0
  5 42  1  0
  6 43  1  0
  9 44  1  0
 10 45  1  0
 12 46  1  0
 18 47  1  0
 19 48  1  0
 19 49  1  0
 21 50  1  0
 22 51  1  0
 23 52  1  0
 28 53  1  0
 29 54  1  0
 30 55  1  0
 31 56  1  0
 32 57  1  0
M  END
$$$$
[H]c1c(F)c([H])c(Cl)c(C(=O)N([H])C([H])([H])C([H])(C(=O)C([H])([H])F)N(C([H])([H])c2nnn([H])c2[H])C([H])(C([H])([H])[H])C([H])([H])[H])c1F
     RDKit          3D

 47 48  0  0  0  0  0  0  0  0999 V2000
   -2.8512    1.9711   -0.0334 C   0  0  0  0  0  0  0  0  0  0  0  0
   -2.9547    0.5759   -0.5417 C   0  0  0  0  0  0  0  0  0  0  0  0
   -4.4031    0.1793   -0.5410 C   0  0  0  0  0  0  0  0  0  0  0  0
   -2.0335   -0.3308   -0.0758 N   0  0  0  0  0  0  0  0  0  0  0  0
   -0.6611   -0.1659   -0.4720 C   0  0  0  0  0  0  0  0  0  0  0  0
    0.1174    0.9447    0.0353 C   0  0  0  0  0  0  0  0  0  0  0  0
    1.5109    1.0014   -0.3331 N   0  0  0  0  0  0  0  0  0  0  0  0
    2.5401    0.1653    0.1123 C   0  0  0  0  0  0  0  0  0  0  0  0
    2.2714   -0.7506    0.9489 O   0  0  0  0  0  0  0  0  0  0  0  0
    3.9209    0.2467   -0.3106 C   0  0  0  0  0  0  0  0  0  0  0  0
    4.5200    1.2940   -0.9502 C   0  0  0  0  0  0  0  0  0  0  0  0
    3.8552    2.4449   -1.1877 F   0  0  0  0  0  0  0  0  0  0  0  0
    5.8621    1.2371   -1.3622 C   0  0  0  0  0  0  0  0  0  0  0  0
    6.6375    0.1368   -1.1448 C   0  0  0  0  0  0  0  0  0  0  0  0
    7.9375    0.0665   -1.5376 F   0  0  0  0  0  0  0  0  0  0  0  0
    6.0575   -0.9303   -0.5008 C   0  0  0  0  0  0  0  0  0  0  0  0
    4.7667   -0.8732   -0.1059 C   0  0  0  0  0  0  0  0  0  0  0  0
    4.0972   -2.2820    0.7116 Cl  0  0  0  0  0  0  0  0  0  0  0  0
   -0.0288   -1.3896   -0.9710 C   0  0  0  0  0  0  0  0  0  0  0  0
   -0.0880   -2.4793   -0.4016 O   0  0  0  0  0  0  0  0  0  0  0  0
    0.7714   -1.4902   -2.2566 C   0  0  0  0  0  0  0  0  0  0  0  0
    0.6889   -0.2863   -2.9052 F   0  0  0  0  0  0  0  0  0  0  0  0
   -2.3561   -1.2120    0.9495 C   0  0  0  0  0  0  0  0  0  0  0  0
   -2.8117   -0.5484    2.2185 C   0  0  0  0  0  0  0  0  0  0  0  0
   -4.0770   -0.4648    2.7452 C   0  0  0  0  0  0  0  0  0  0  0  0
   -4.0222    0.1940    3.8981 N   0  0  0  0  0  0  0  0  0  0  0  0
   -2.7678    0.5304    4.1194 N   0  0  0  0  0  0  0  0  0  0  0  0
   -2.0221    0.0928    3.1210 N   0  0  0  0  0  0  0  0  0  0  0  0
   -2.2606    2.0770    0.8933 H   0  0  0  0  0  0  0  0  0  0  0  0
   -3.9055    2.3862    0.1995 H   0  0  0  0  0  0  0  0  0  0  0  0
   -2.4021    2.6948   -0.7786 H   0  0  0  0  0  0  0  0  0  0  0  0
   -2.7117    0.6882   -1.6836 H   0  0  0  0  0  0  0  0  0  0  0  0
   -5.0033    0.8955    0.0963 H   0  0  0  0  0  0  0  0  0  0  0  0
   -4.6080   -0.8627   -0.3070 H   0  0  0  0  0  0  0  0  0  0  0  0
   -4.8179    0.3495   -1.5542 H   0  0  0  0  0  0  0  0  0  0  0  0
   -0.9316    0.3145   -1.5925 H   0  0  0  0  0  0  0  0  0  0  0  0
   -0.2707    1.9818   -0.2570 H   0  0  0  0  0  0  0  0  0  0  0  0
    0.1280    1.0408    1.1635 H   0  0  0  0  0  0  0  0  0  0  0  0
    1.7657    1.7638   -1.0504 H   0  0  0  0  0  0  0  0  0  0  0  0
    6.2961    2.0879   -1.8703 H   0  0  0  0  0  0  0  0  0  0  0  0
    6.6697   -1.8237   -0.3154 H   0  0  0  0  0  0  0  0  0  0  0  0
    1.7952   -1.7983   -2.1164 H   0  0  0  0  0  0  0  0  0  0  0  0
    0.2585   -2.2269   -2.9384 H   0  0  0  0  0  0  0  0  0  0  0  0
   -1.4937   -1.8639    1.2758 H   0  0  0  0  0  0  0  0  0  0  0  0
   -3.1600   -1.9801    0.7314 H   0  0  0  0  0  0  0  0  0  0  0  0
   -4.9923   -0.8612    2.3262 H   0  0  0  0  0  0  0  0  0  0  0  0
   -4.8333    0.4211    4.5489 H   0  0  0  0  0  0  0  0  0  0  0  0
  1  2  1  0
  2  3  1  0
  2  4  1  0
  4  5  1  0
  5  6  1  0
  6  7  1  0
  7  8  1  0
  8  9  2  0
  8 10  1  0
 10 11  2  0
 11 12  1  0
 11 13  1  0
 13 14  2  0
 14 15  1  0
 14 16  1  0
 16 17  2  0
 17 18  1  0
  5 19  1  0
 19 20  2  0
 19 21  1  0
 21 22  1  0
  4 23  1  0
 23 24  1  0
 24 25  2  0
 25 26  1  0
 26 27  1  0
 27 28  2  0
 17 10  1  0
 28 24  1  0
  1 29  1  0
  1 30  1  0
  1 31  1  0
  2 32  1  0
  3 33  1  0
  3 34  1  0
  3 35  1  0
  5 36  1  0
  6 37  1  0
  6 38  1  0
  7 39  1  0
 13 40  1  0
 16 41  1  0
 21 42  1  0
 21 43  1  0
 23 44  1  0
 23 45  1  0
 25 46  1  0
 26 47  1  0
M  END
$$$$
[H]Oc1c([H])c([H])c([H])c(-c2c([H])nc(C([H])([H])[H])c([H])c2[H])c1[H]
     RDKit          3D

 25 26  0  0  0  0  0  0  0  0999 V2000
   -4.5633    0.7360    0.1200 C   0  0  0  0  0  0  0  0  0  0  0  0
   -3.0853    0.4669    0.0537 C   0  0  0  0  0  0  0  0  0  0  0  0
   -2.1973    0.9779    0.9636 C   0  0  0  0  0  0  0  0  0  0  0  0
   -0.8453    0.7139    0.8812 C   0  0  0  0  0  0  0  0  0  0  0  0
   -0.3687   -0.0707   -0.1220 C   0  0  0  0  0  0  0  0  0  0  0  0
   -1.2709   -0.5796   -1.0324 C   0  0  0  0  0  0  0  0  0  0  0  0
   -2.5820   -0.3025   -0.9228 N   0  0  0  0  0  0  0  0  0  0  0  0
    1.0568   -0.3635   -0.2252 C   0  0  0  0  0  0  0  0  0  0  0  0
    1.4879   -1.5770   -0.7564 C   0  0  0  0  0  0  0  0  0  0  0  0
    2.8240   -1.8979   -0.8729 C   0  0  0  0  0  0  0  0  0  0  0  0
    3.7567   -0.9756   -0.4446 C   0  0  0  0  0  0  0  0  0  0  0  0
    3.3930    0.2445    0.0908 C   0  0  0  0  0  0  0  0  0  0  0  0
    4.3273    1.1749    0.5231 O   0  0  0  0  0  0  0  0  0  0  0  0
    2.0338    0.5142    0.1843 C   0  0  0  0  0  0  0  0  0  0  0  0
   -4.8621    1.1501   -0.8440 H   0  0  0  0  0  0  0  0  0  0  0  0
   -4.8083    1.3367    0.9950 H   0  0  0  0  0  0  0  0  0  0  0  0
   -5.0357   -0.2794    0.2651 H   0  0  0  0  0  0  0  0  0  0  0  0
   -2.6084    1.6072    1.7624 H   0  0  0  0  0  0  0  0  0  0  0  0
   -0.1793    1.1364    1.6191 H   0  0  0  0  0  0  0  0  0  0  0  0
   -0.9151   -1.2158   -1.8539 H   0  0  0  0  0  0  0  0  0  0  0  0
    0.7362   -2.2658   -1.0774 H   0  0  0  0  0  0  0  0  0  0  0  0
    3.1871   -2.8307   -1.2808 H   0  0  0  0  0  0  0  0  0  0  0  0
    4.7971   -1.2082   -0.5280 H   0  0  0  0  0  0  0  0  0  0  0  0
    4.0034    2.0511    0.9063 H   0  0  0  0  0  0  0  0  0  0  0  0
    1.7183    1.4569    0.5970 H   0  0  0  0  0  0  0  0  0  0  0  0
  1  2  1  0
  2  3  2  0
  3  4  1  0
  4  5  2  0
  5  6  1  0
  6  7  2  0
  5  8  1  0
  8  9  2  0
  9 10  1  0
 10 11  2  0
 11 12  1  0
 12 13  1  0
 12 14  2  0
  7  2  1  0
 14  8  1  0
  1 15  1  0
  1 16  1  0
  1 17  1  0
  3 18  1  0
  4 19  1  0
  6 20  1  0
  9 21  1  0
 10 22  1  0
 11 23  1  0
 13 24  1  0
 14 25  1  0
M  END
$$$$
[H]c1nc(N2C([H])([H])C([H])([H])N(c3c([H])c([H])c([H])c([H])c3OC([H])([H])[H])C([H])([H])C([H])([H])C2([H])[H])c2c([H])nn(-c3c([H])c([H])c([H])c([H])c3[H])c2n1
     RDKit          3D

 54 58  0  0  0  0  0  0  0  0999 V2000
   -6.5598    2.1429    0.4602 C   0  0  0  0  0  0  0  0  0  0  0  0
   -5.3052    1.4884    0.4952 O   0  0  0  0  0  0  0  0  0  0  0  0
   -5.2898    0.1227    0.2590 C   0  0  0  0  0  0  0  0  0  0  0  0
   -6.4583   -0.5921   -0.0036 C   0  0  0  0  0  0  0  0  0  0  0  0
   -6.4623   -1.9509   -0.2398 C   0  0  0  0  0  0  0  0  0  0  0  0
   -5.2576   -2.6099   -0.2113 C   0  0  0  0  0  0  0  0  0  0  0  0
   -4.0798   -1.9161    0.0486 C   0  0  0  0  0  0  0  0  0  0  0  0
   -4.0952   -0.5493    0.2838 C   0  0  0  0  0  0  0  0  0  0  0  0
   -2.8876    0.1483    0.5408 N   0  0  0  0  0  0  0  0  0  0  0  0
   -2.4546    1.1575   -0.4076 C   0  0  0  0  0  0  0  0  0  0  0  0
   -1.4587    0.6528   -1.4106 C   0  0  0  0  0  0  0  0  0  0  0  0
   -0.5200   -0.3888   -0.9047 C   0  0  0  0  0  0  0  0  0  0  0  0
   -0.0916   -0.2493    0.4348 N   0  0  0  0  0  0  0  0  0  0  0  0
   -0.7089    0.2289    1.6594 C   0  0  0  0  0  0  0  0  0  0  0  0
   -2.1580   -0.1946    1.7532 C   0  0  0  0  0  0  0  0  0  0  0  0
    1.2507   -0.6674    0.6586 C   0  0  0  0  0  0  0  0  0  0  0  0
    1.5293   -1.7350    1.4515 N   0  0  0  0  0  0  0  0  0  0  0  0
    2.8154   -2.0779    1.6128 C   0  0  0  0  0  0  0  0  0  0  0  0
    3.8339   -1.4044    1.0195 N   0  0  0  0  0  0  0  0  0  0  0  0
    3.6048   -0.3431    0.2278 C   0  0  0  0  0  0  0  0  0  0  0  0
    4.4127    0.4780   -0.4574 N   0  0  0  0  0  0  0  0  0  0  0  0
    3.6386    1.3742   -1.0777 N   0  0  0  0  0  0  0  0  0  0  0  0
    2.3487    1.1329   -0.7954 C   0  0  0  0  0  0  0  0  0  0  0  0
    2.2935    0.0344    0.0420 C   0  0  0  0  0  0  0  0  0  0  0  0
    5.8327    0.4582   -0.5519 C   0  0  0  0  0  0  0  0  0  0  0  0
    6.4446    0.5569   -1.7817 C   0  0  0  0  0  0  0  0  0  0  0  0
    7.8395    0.5371   -1.8701 C   0  0  0  0  0  0  0  0  0  0  0  0
    8.5986    0.4197   -0.7367 C   0  0  0  0  0  0  0  0  0  0  0  0
    8.0042    0.3200    0.5002 C   0  0  0  0  0  0  0  0  0  0  0  0
    6.6206    0.3415    0.5669 C   0  0  0  0  0  0  0  0  0  0  0  0
   -6.4317    3.2365    0.7001 H   0  0  0  0  0  0  0  0  0  0  0  0
   -7.0000    2.0722   -0.5616 H   0  0  0  0  0  0  0  0  0  0  0  0
   -7.2448    1.6894    1.2158 H   0  0  0  0  0  0  0  0  0  0  0  0
   -7.4111   -0.0836   -0.0283 H   0  0  0  0  0  0  0  0  0  0  0  0
   -7.3831   -2.4822   -0.4412 H   0  0  0  0  0  0  0  0  0  0  0  0
   -5.2445   -3.6671   -0.3931 H   0  0  0  0  0  0  0  0  0  0  0  0
   -3.1405   -2.4474    0.0678 H   0  0  0  0  0  0  0  0  0  0  0  0
   -2.0390    2.0522    0.1336 H   0  0  0  0  0  0  0  0  0  0  0  0
   -3.3532    1.4994   -0.9603 H   0  0  0  0  0  0  0  0  0  0  0  0
   -2.0343    0.2081   -2.2548 H   0  0  0  0  0  0  0  0  0  0  0  0
   -0.9155    1.5219   -1.8314 H   0  0  0  0  0  0  0  0  0  0  0  0
   -0.9912   -1.4109   -1.0322 H   0  0  0  0  0  0  0  0  0  0  0  0
    0.3535   -0.4173   -1.5809 H   0  0  0  0  0  0  0  0  0  0  0  0
   -0.6060    1.3285    1.6833 H   0  0  0  0  0  0  0  0  0  0  0  0
   -0.2042   -0.1589    2.5561 H   0  0  0  0  0  0  0  0  0  0  0  0
   -2.2831   -1.2259    2.0661 H   0  0  0  0  0  0  0  0  0  0  0  0
   -2.6096    0.4472    2.5651 H   0  0  0  0  0  0  0  0  0  0  0  0
    3.0949   -2.9179    2.2319 H   0  0  0  0  0  0  0  0  0  0  0  0
    1.4960    1.6814   -1.1451 H   0  0  0  0  0  0  0  0  0  0  0  0
    5.8948    0.6503   -2.6952 H   0  0  0  0  0  0  0  0  0  0  0  0
    8.3154    0.6146   -2.8336 H   0  0  0  0  0  0  0  0  0  0  0  0
    9.6852    0.4007   -0.7666 H   0  0  0  0  0  0  0  0  0  0  0  0
    8.6230    0.2283    1.3798 H   0  0  0  0  0  0  0  0  0  0  0  0
    6.1485    0.2650    1.5201 H   0  0  0  0  0  0  0  0  0  0  0  0
  1  2  1  0
  2  3  1  0
  3  4  2  0
  4  5  1  0
  5  6  2  0
  6  7  1  0
  7  8  2  0
  8  9  1  0
  9 10  1  0
 10 11  1  0
 11 12  1  0
 12 13  1  0
 13 14  1  0
 14 15  1  0
 13 16  1  0
 16 17  2  0
 17 18  1  0
 18 19  2  0
 19 20  1  0
 20 21  1  0
 21 22  1  0
 22 23  2  0
 23 24  1  0
 21 25  1  0
 25 26  2  0
 26 27  1  0
 27 28  2  0
 28 29  1  0
 29 30  2  0
  8  3  1  0
 15  9  1  0
 24 16  1  0
 30 25  1  0
 24 20  2  0
  1 31  1  0
  1 32  1  0
  1 33  1  0
  4 34  1  0
  5 35  1  0
  6 36  1  0
  7 37  1  0
 10 38  1  0
 10 39  1  0
 11 40  1  0
 11 41  1  0
 12 42  1  0
 12 43  1  0
 14 44  1  0
 14 45  1  0
 15 46  1  0
 15 47  1  0
 18 48  1  0
 23 49  1  0
 26 50  1  0
 27 51  1  0
 28 52  1  0
 29 53  1  0
 30 54  1  0
M  END
$$$$
[H]O[C@]1([H])C([H])([H])C([H])([H])[C@]([H])(N([H])c2nc(-c3c([H])c(OC([H])([H])[H])c(OC([H])([H])[H])c(OC([H])([H])[H])c3[H])nc(N3C([H])([H])C([H])([H])OC([H])([H])C3([H])[H])n2)C([H])([H])C1([H])[H]
     RDKit          3D

 63 66  0  0  0  0  0  0  0  0999 V2000
   -1.1518   -0.1962    0.2606 C   0  0  0  0  0  0  0  0  0  0  0  0
   -2.5413   -0.6737    0.3648 C   0  0  0  0  0  0  0  0  0  0  0  0
   -2.7992   -2.0314    0.3727 C   0  0  0  0  0  0  0  0  0  0  0  0
   -4.1107   -2.4620    0.4713 C   0  0  0  0  0  0  0  0  0  0  0  0
   -4.3713   -3.8216    0.4794 O   0  0  0  0  0  0  0  0  0  0  0  0
   -3.3966   -4.8212    0.3941 C   0  0  0  0  0  0  0  0  0  0  0  0
   -5.1685   -1.5938    0.5618 C   0  0  0  0  0  0  0  0  0  0  0  0
   -6.4427   -2.0641    0.6572 O   0  0  0  0  0  0  0  0  0  0  0  0
   -7.3110   -2.3420   -0.4077 C   0  0  0  0  0  0  0  0  0  0  0  0
   -4.9202   -0.2449    0.5546 C   0  0  0  0  0  0  0  0  0  0  0  0
   -5.9305    0.7005    0.6422 O   0  0  0  0  0  0  0  0  0  0  0  0
   -5.7098    2.0797    0.6374 C   0  0  0  0  0  0  0  0  0  0  0  0
   -3.5980    0.2081    0.4554 C   0  0  0  0  0  0  0  0  0  0  0  0
   -0.1550   -1.0761    0.1752 N   0  0  0  0  0  0  0  0  0  0  0  0
    1.1313   -0.6653    0.0785 C   0  0  0  0  0  0  0  0  0  0  0  0
    2.1786   -1.6087   -0.0194 N   0  0  0  0  0  0  0  0  0  0  0  0
    3.5540   -1.2523   -0.1181 C   0  0  1  0  0  0  0  0  0  0  0  0
    4.1355   -0.5420    1.0615 C   0  0  0  0  0  0  0  0  0  0  0  0
    5.4993   -0.0055    0.6944 C   0  0  0  0  0  0  0  0  0  0  0  0
    6.4140   -1.0252    0.1131 C   0  0  1  0  0  0  0  0  0  0  0  0
    7.0549   -1.8047    1.0639 O   0  0  0  0  0  0  0  0  0  0  0  0
    5.7571   -1.9307   -0.8915 C   0  0  0  0  0  0  0  0  0  0  0  0
    4.4399   -2.4811   -0.3676 C   0  0  0  0  0  0  0  0  0  0  0  0
    1.3538    0.6478    0.0726 N   0  0  0  0  0  0  0  0  0  0  0  0
    0.3503    1.5470    0.1587 C   0  0  0  0  0  0  0  0  0  0  0  0
    0.6461    2.9297    0.1477 N   0  0  0  0  0  0  0  0  0  0  0  0
    2.0029    3.4234    0.0465 C   0  0  0  0  0  0  0  0  0  0  0  0
    2.1003    4.5835   -0.9176 C   0  0  0  0  0  0  0  0  0  0  0  0
    1.0761    5.4921   -0.7632 O   0  0  0  0  0  0  0  0  0  0  0  0
   -0.1796    4.9267   -0.8626 C   0  0  0  0  0  0  0  0  0  0  0  0
   -0.4136    3.9021    0.2384 C   0  0  0  0  0  0  0  0  0  0  0  0
   -0.9163    1.1273    0.2538 N   0  0  0  0  0  0  0  0  0  0  0  0
   -1.9940   -2.7387    0.3033 H   0  0  0  0  0  0  0  0  0  0  0  0
   -3.9260   -5.8030    0.5274 H   0  0  0  0  0  0  0  0  0  0  0  0
   -2.8888   -4.8044   -0.5742 H   0  0  0  0  0  0  0  0  0  0  0  0
   -2.6347   -4.7588    1.1985 H   0  0  0  0  0  0  0  0  0  0  0  0
   -8.1625   -1.6258   -0.3869 H   0  0  0  0  0  0  0  0  0  0  0  0
   -6.8155   -2.3478   -1.3988 H   0  0  0  0  0  0  0  0  0  0  0  0
   -7.7582   -3.3508   -0.2174 H   0  0  0  0  0  0  0  0  0  0  0  0
   -6.6983    2.5749    0.4850 H   0  0  0  0  0  0  0  0  0  0  0  0
   -5.3823    2.3822    1.6567 H   0  0  0  0  0  0  0  0  0  0  0  0
   -4.9891    2.3648   -0.1516 H   0  0  0  0  0  0  0  0  0  0  0  0
   -3.3648    1.2711    0.4468 H   0  0  0  0  0  0  0  0  0  0  0  0
    1.9199   -2.6330   -0.0188 H   0  0  0  0  0  0  0  0  0  0  0  0
    3.7018   -0.6130   -1.0299 H   0  0  0  0  0  0  0  0  0  0  0  0
    3.5209    0.2987    1.3654 H   0  0  0  0  0  0  0  0  0  0  0  0
    4.2014   -1.2788    1.9021 H   0  0  0  0  0  0  0  0  0  0  0  0
    5.3554    0.8756    0.0705 H   0  0  0  0  0  0  0  0  0  0  0  0
    5.9617    0.3370    1.6664 H   0  0  0  0  0  0  0  0  0  0  0  0
    7.2254   -0.4749   -0.4401 H   0  0  0  0  0  0  0  0  0  0  0  0
    6.3806   -2.1182    1.7191 H   0  0  0  0  0  0  0  0  0  0  0  0
    6.4379   -2.7869   -1.0724 H   0  0  0  0  0  0  0  0  0  0  0  0
    5.5264   -1.4057   -1.8304 H   0  0  0  0  0  0  0  0  0  0  0  0
    4.0105   -3.1550   -1.1070 H   0  0  0  0  0  0  0  0  0  0  0  0
    4.6007   -2.9553    0.6317 H   0  0  0  0  0  0  0  0  0  0  0  0
    2.6690    2.6195   -0.2783 H   0  0  0  0  0  0  0  0  0  0  0  0
    2.3486    3.7672    1.0383 H   0  0  0  0  0  0  0  0  0  0  0  0
    2.1722    4.1594   -1.9335 H   0  0  0  0  0  0  0  0  0  0  0  0
    3.0572    5.1110   -0.7007 H   0  0  0  0  0  0  0  0  0  0  0  0
   -0.4147    4.5269   -1.8617 H   0  0  0  0  0  0  0  0  0  0  0  0
   -0.9176    5.7470   -0.6694 H   0  0  0  0  0  0  0  0  0  0  0  0
   -1.4101    3.4564    0.1067 H   0  0  0  0  0  0  0  0  0  0  0  0
   -0.3107    4.4328    1.2060 H   0  0  0  0  0  0  0  0  0  0  0  0
  1  2  1  0
  2  3  2  0
  3  4  1  0
  4  5  1  0
  5  6  1  0
  4  7  2  0
  7  8  1  0
  8  9  1  0
  7 10  1  0
 10 11  1  0
 11 12  1  0
 10 13  2  0
  1 14  2  0
 14 15  1  0
 15 16  1  0
 16 17  1  0
 17 18  1  0
 18 19  1  0
 19 20  1  0
 20 21  1  0
 20 22  1  0
 22 23  1  0
 15 24  2  0
 24 25  1  0
 25 26  1  0
 26 27  1  0
 27 28  1  0
 28 29  1  0
 29 30  1  0
 30 31  1  0
 25 32  2  0
 32  1  1  0
 13  2  1  0
 23 17  1  0
 31 26  1  0
  3 33  1  0
  6 34  1  0
  6 35  1  0
  6 36  1  0
  9 37  1  0
  9 38  1  0
  9 39  1  0
 12 40  1  0
 12 41  1  0
 12 42  1  0
 13 43  1  0
 16 44  1  0
 17 45  1  6
 18 46  1  0
 18 47  1  0
 19 48  1  0
 19 49  1  0
 20 50  1  6
 21 51  1  0
 22 52  1  0
 22 53  1  0
 23 54  1  0
 23 55  1  0
 27 56  1  0
 27 57  1  0
 28 58  1  0
 28 59  1  0
 30 60  1  0
 30 61  1  0
 31 62  1  0
 31 63  1  0
M  END
$$$$
[H]c1c([H])c(C#N)c([H])c(OC([H])([H])C([H])([H])C2([H])C([H])([H])C([H])([H])N(C([H])([H])c3c([H])c(OC([H])([H])C([H])([H])C([H])([H])c4c([H])c([H])c(S(=O)(=O)C([H])([H])[H])c([H])c4[H])c([H])c([H])c3Cl)C([H])([H])C2([H])[H])c1[H]
     RDKit          3D

 74 77  0  0  0  0  0  0  0  0999 V2000
   -2.0434   -4.0338   -3.4183 Cl  0  0  0  0  0  0  0  0  0  0  0  0
   -0.5461   -3.3603   -2.7892 C   0  0  0  0  0  0  0  0  0  0  0  0
    0.6285   -3.4609   -3.5050 C   0  0  0  0  0  0  0  0  0  0  0  0
    1.7928   -2.9367   -3.0161 C   0  0  0  0  0  0  0  0  0  0  0  0
    1.7642   -2.3102   -1.7988 C   0  0  0  0  0  0  0  0  0  0  0  0
    2.9032   -1.7538   -1.2357 O   0  0  0  0  0  0  0  0  0  0  0  0
    2.8944   -1.1050    0.0142 C   0  0  0  0  0  0  0  0  0  0  0  0
    4.2886   -0.6075    0.3588 C   0  0  0  0  0  0  0  0  0  0  0  0
    4.7239    0.3622   -0.7203 C   0  0  0  0  0  0  0  0  0  0  0  0
    6.0863    0.8913   -0.4519 C   0  0  0  0  0  0  0  0  0  0  0  0
    6.3466    2.0286    0.2734 C   0  0  0  0  0  0  0  0  0  0  0  0
    7.6353    2.4735    0.4946 C   0  0  0  0  0  0  0  0  0  0  0  0
    8.7237    1.7826   -0.0116 C   0  0  0  0  0  0  0  0  0  0  0  0
    8.4735    0.6390   -0.7417 C   0  0  0  0  0  0  0  0  0  0  0  0
    7.1747    0.1977   -0.9601 C   0  0  0  0  0  0  0  0  0  0  0  0
   10.3738    2.3336    0.2617 S   0  0  0  0  0  0  0  0  0  0  0  0
   10.9647    1.6469    1.7717 C   0  0  0  0  0  0  0  0  0  0  0  0
   11.2400    1.8903   -0.9056 O   0  0  0  0  0  0  0  0  0  0  0  0
   10.4599    3.8239    0.3340 O   0  0  0  0  0  0  0  0  0  0  0  0
    0.5796   -2.1993   -1.0581 C   0  0  0  0  0  0  0  0  0  0  0  0
   -0.5844   -2.7205   -1.5430 C   0  0  0  0  0  0  0  0  0  0  0  0
   -1.8388   -2.7036   -0.8262 C   0  0  0  0  0  0  0  0  0  0  0  0
   -1.8494   -1.9667    0.3981 N   0  0  0  0  0  0  0  0  0  0  0  0
   -2.9995   -2.3602    1.1905 C   0  0  0  0  0  0  0  0  0  0  0  0
   -3.8828   -1.2931    1.6829 C   0  0  0  0  0  0  0  0  0  0  0  0
   -4.2693   -0.2870    0.6312 C   0  0  0  0  0  0  0  0  0  0  0  0
   -5.5208   -0.6801   -0.1402 C   0  0  0  0  0  0  0  0  0  0  0  0
   -5.8516    0.3678   -1.1742 C   0  0  0  0  0  0  0  0  0  0  0  0
   -6.0854    1.5834   -0.5952 O   0  0  0  0  0  0  0  0  0  0  0  0
   -6.9981    2.0836    0.2507 C   0  0  0  0  0  0  0  0  0  0  0  0
   -6.8642    3.4318    0.6322 C   0  0  0  0  0  0  0  0  0  0  0  0
   -7.7470    4.0399    1.4915 C   0  0  0  0  0  0  0  0  0  0  0  0
   -8.8109    3.3288    2.0140 C   0  0  0  0  0  0  0  0  0  0  0  0
   -8.9644    2.0172    1.6592 C   0  0  0  0  0  0  0  0  0  0  0  0
  -10.0812    1.2921    2.2149 C   0  0  0  0  0  0  0  0  0  0  0  0
  -10.9813    0.6965    2.6503 N   0  0  0  0  0  0  0  0  0  0  0  0
   -8.0673    1.4208    0.7934 C   0  0  0  0  0  0  0  0  0  0  0  0
   -3.1489   -0.0811   -0.3592 C   0  0  0  0  0  0  0  0  0  0  0  0
   -1.8284   -0.5306    0.1902 C   0  0  0  0  0  0  0  0  0  0  0  0
    0.6314   -3.9664   -4.4779 H   0  0  0  0  0  0  0  0  0  0  0  0
    2.7418   -2.9962   -3.5532 H   0  0  0  0  0  0  0  0  0  0  0  0
    2.1589   -0.2785    0.0238 H   0  0  0  0  0  0  0  0  0  0  0  0
    2.5453   -1.8304    0.7795 H   0  0  0  0  0  0  0  0  0  0  0  0
    4.9741   -1.4454    0.4843 H   0  0  0  0  0  0  0  0  0  0  0  0
    4.1812   -0.0097    1.2893 H   0  0  0  0  0  0  0  0  0  0  0  0
    4.7374   -0.0997   -1.7182 H   0  0  0  0  0  0  0  0  0  0  0  0
    3.9789    1.1931   -0.7457 H   0  0  0  0  0  0  0  0  0  0  0  0
    5.4784    2.5663    0.6687 H   0  0  0  0  0  0  0  0  0  0  0  0
    7.8152    3.3751    1.0709 H   0  0  0  0  0  0  0  0  0  0  0  0
    9.3416    0.1068   -1.1327 H   0  0  0  0  0  0  0  0  0  0  0  0
    7.0270   -0.7089   -1.5414 H   0  0  0  0  0  0  0  0  0  0  0  0
   10.1464    1.7678    2.5258 H   0  0  0  0  0  0  0  0  0  0  0  0
   11.8137    2.2427    2.1594 H   0  0  0  0  0  0  0  0  0  0  0  0
   11.2859    0.5986    1.6680 H   0  0  0  0  0  0  0  0  0  0  0  0
    0.6298   -1.7006   -0.0773 H   0  0  0  0  0  0  0  0  0  0  0  0
   -2.0690   -3.7789   -0.5283 H   0  0  0  0  0  0  0  0  0  0  0  0
   -2.6940   -2.4463   -1.4952 H   0  0  0  0  0  0  0  0  0  0  0  0
   -2.5637   -2.8967    2.0852 H   0  0  0  0  0  0  0  0  0  0  0  0
   -3.5436   -3.1419    0.6310 H   0  0  0  0  0  0  0  0  0  0  0  0
   -4.8213   -1.7612    2.0448 H   0  0  0  0  0  0  0  0  0  0  0  0
   -3.4307   -0.7699    2.5516 H   0  0  0  0  0  0  0  0  0  0  0  0
   -4.4712    0.6727    1.1233 H   0  0  0  0  0  0  0  0  0  0  0  0
   -6.3250   -0.8101    0.5605 H   0  0  0  0  0  0  0  0  0  0  0  0
   -5.2860   -1.6651   -0.6297 H   0  0  0  0  0  0  0  0  0  0  0  0
   -6.7793    0.0028   -1.7023 H   0  0  0  0  0  0  0  0  0  0  0  0
   -5.0904    0.3972   -1.9891 H   0  0  0  0  0  0  0  0  0  0  0  0
   -6.0465    4.0058    0.2402 H   0  0  0  0  0  0  0  0  0  0  0  0
   -7.6428    5.0792    1.7844 H   0  0  0  0  0  0  0  0  0  0  0  0
   -9.4898    3.8384    2.6893 H   0  0  0  0  0  0  0  0  0  0  0  0
   -8.2521    0.4001    0.5436 H   0  0  0  0  0  0  0  0  0  0  0  0
   -3.0310    1.0199   -0.5875 H   0  0  0  0  0  0  0  0  0  0  0  0
   -3.3742   -0.5618   -1.3050 H   0  0  0  0  0  0  0  0  0  0  0  0
   -1.5825   -0.0476    1.1486 H   0  0  0  0  0  0  0  0  0  0  0  0
   -1.0838   -0.2923   -0.5827 H   0  0  0  0  0  0  0  0  0  0  0  0
  1  2  1  0
  2  3  2  0
  3  4  1  0
  4  5  2  0
  5  6  1  0
  6  7  1  0
  7  8  1  0
  8  9  1  0
  9 10  1  0
 10 11  2  0
 11 12  1  0
 12 13  2  0
 13 14  1  0
 14 15  2  0
 13 16  1  0
 16 17  1  0
 16 18  2  0
 16 19  2  0
  5 20  1  0
 20 21  2  0
 21 22  1  0
 22 23  1  0
 23 24  1  0
 24 25  1  0
 25 26  1  0
 26 27  1  0
 27 28  1  0
 28 29  1  0
 29 30  1  0
 30 31  2  0
 31 32  1  0
 32 33  2  0
 33 34  1  0
 34 35  1  0
 35 36  3  0
 34 37  2  0
 26 38  1  0
 38 39  1  0
 21  2  1  0
 39 23  1  0
 15 10  1  0
 37 30  1  0
  3 40  1  0
  4 41  1  0
  7 42  1  0
  7 43  1  0
  8 44  1  0
  8 45  1  0
  9 46  1  0
  9 47  1  0
 11 48  1  0
 12 49  1  0
 14 50  1  0
 15 51  1  0
 17 52  1  0
 17 53  1  0
 17 54  1  0
 20 55  1  0
 22 56  1  0
 22 57  1  0
 24 58  1  0
 24 59  1  0
 25 60  1  0
 25 61  1  0
 26 62  1  0
 27 63  1  0
 27 64  1  0
 28 65  1  0
 28 66  1  0
 31 67  1  0
 32 68  1  0
 33 69  1  0
 37 70  1  0
 38 71  1  0
 38 72  1  0
 39 73  1  0
 39 74  1  0
M  END
$$$$
