[H]c1nc(N([H])c2c([H])c([H])c(N3C([H])([H])C([H])([H])N(C([H])([H])[H])C([H])([H])C3([H])[H])c([H])c2OC([H])([H])[H])nc(N([H])c2c([H])c([H])c([H])c([H])c2C(F)(F)F)c1Cl
     RDKit          3D

 58 61  0  0  0  0  0  0  0  0999 V2000
   -0.9607   -3.1800   -1.9125 C   0  0  0  0  0  0  0  0  0  0  0  0
   -0.3408   -2.0854   -1.3199 O   0  0  0  0  0  0  0  0  0  0  0  0
   -1.0434   -1.1163   -0.6305 C   0  0  0  0  0  0  0  0  0  0  0  0
   -2.4037   -1.2545   -0.5367 C   0  0  0  0  0  0  0  0  0  0  0  0
   -3.2024   -0.3506    0.1250 C   0  0  0  0  0  0  0  0  0  0  0  0
   -2.5592    0.7195    0.6995 C   0  0  0  0  0  0  0  0  0  0  0  0
   -1.1673    0.8939    0.6240 C   0  0  0  0  0  0  0  0  0  0  0  0
   -0.3813   -0.0103   -0.0363 C   0  0  0  0  0  0  0  0  0  0  0  0
    0.9899    0.0769   -0.1636 N   0  0  0  0  0  0  0  0  0  0  0  0
    1.8597    1.0654    0.3352 C   0  0  0  0  0  0  0  0  0  0  0  0
    1.5062    2.1364    1.0476 N   0  0  0  0  0  0  0  0  0  0  0  0
    2.3733    3.0516    1.5007 C   0  0  0  0  0  0  0  0  0  0  0  0
    3.7180    2.9123    1.2350 C   0  0  0  0  0  0  0  0  0  0  0  0
    4.8258    4.1242    1.8404 Cl  0  0  0  0  0  0  0  0  0  0  0  0
    4.1403    1.8039    0.4901 C   0  0  0  0  0  0  0  0  0  0  0  0
    5.5207    1.6841    0.2351 N   0  0  0  0  0  0  0  0  0  0  0  0
    6.2332    0.7104   -0.4677 C   0  0  0  0  0  0  0  0  0  0  0  0
    5.6376   -0.3511   -1.1132 C   0  0  0  0  0  0  0  0  0  0  0  0
    6.3780   -1.3094   -1.8225 C   0  0  0  0  0  0  0  0  0  0  0  0
    7.7403   -1.2259   -1.9024 C   0  0  0  0  0  0  0  0  0  0  0  0
    8.3391   -0.1764   -1.2651 C   0  0  0  0  0  0  0  0  0  0  0  0
    7.6290    0.7941   -0.5504 C   0  0  0  0  0  0  0  0  0  0  0  0
    8.3837    1.8830    0.1095 C   0  0  0  0  0  0  0  0  0  0  0  0
    8.2320    1.9254    1.4757 F   0  0  0  0  0  0  0  0  0  0  0  0
    8.1169    3.1218   -0.4269 F   0  0  0  0  0  0  0  0  0  0  0  0
    9.7597    1.6611   -0.1686 F   0  0  0  0  0  0  0  0  0  0  0  0
    3.1949    0.9685    0.0970 N   0  0  0  0  0  0  0  0  0  0  0  0
   -4.6155   -0.5030    0.2106 N   0  0  0  0  0  0  0  0  0  0  0  0
   -5.3076   -1.5451   -0.5195 C   0  0  0  0  0  0  0  0  0  0  0  0
   -6.7776   -1.2579   -0.7007 C   0  0  0  0  0  0  0  0  0  0  0  0
   -7.4528   -0.9022    0.4892 N   0  0  0  0  0  0  0  0  0  0  0  0
   -8.6795   -0.1772    0.2886 C   0  0  0  0  0  0  0  0  0  0  0  0
   -6.6340   -0.3757    1.5348 C   0  0  0  0  0  0  0  0  0  0  0  0
   -5.4219    0.3707    1.0334 C   0  0  0  0  0  0  0  0  0  0  0  0
   -1.5656   -3.7173   -1.1611 H   0  0  0  0  0  0  0  0  0  0  0  0
   -1.6409   -2.9248   -2.7441 H   0  0  0  0  0  0  0  0  0  0  0  0
   -0.1764   -3.9110   -2.2545 H   0  0  0  0  0  0  0  0  0  0  0  0
   -2.8929   -2.1222   -1.0046 H   0  0  0  0  0  0  0  0  0  0  0  0
   -3.1379    1.4808    1.2419 H   0  0  0  0  0  0  0  0  0  0  0  0
   -0.7782    1.7663    1.1100 H   0  0  0  0  0  0  0  0  0  0  0  0
    1.4667   -0.7235   -0.7236 H   0  0  0  0  0  0  0  0  0  0  0  0
    2.0675    3.9163    2.0787 H   0  0  0  0  0  0  0  0  0  0  0  0
    6.1063    2.4790    0.6499 H   0  0  0  0  0  0  0  0  0  0  0  0
    4.5672   -0.4785   -1.0937 H   0  0  0  0  0  0  0  0  0  0  0  0
    5.8778   -2.1319   -2.3186 H   0  0  0  0  0  0  0  0  0  0  0  0
    8.2736   -1.9828   -2.4577 H   0  0  0  0  0  0  0  0  0  0  0  0
    9.4253   -0.1198   -1.3355 H   0  0  0  0  0  0  0  0  0  0  0  0
   -5.1899   -2.4849    0.0510 H   0  0  0  0  0  0  0  0  0  0  0  0
   -4.7859   -1.6241   -1.5003 H   0  0  0  0  0  0  0  0  0  0  0  0
   -6.8526   -0.4008   -1.4249 H   0  0  0  0  0  0  0  0  0  0  0  0
   -7.2670   -2.1088   -1.1699 H   0  0  0  0  0  0  0  0  0  0  0  0
   -8.7373    0.3568   -0.6607 H   0  0  0  0  0  0  0  0  0  0  0  0
   -8.8777    0.4923    1.1469 H   0  0  0  0  0  0  0  0  0  0  0  0
   -9.5062   -0.9455    0.3239 H   0  0  0  0  0  0  0  0  0  0  0  0
   -7.2450    0.3571    2.1061 H   0  0  0  0  0  0  0  0  0  0  0  0
   -6.2820   -1.1289    2.2667 H   0  0  0  0  0  0  0  0  0  0  0  0
   -5.6663    1.2645    0.4492 H   0  0  0  0  0  0  0  0  0  0  0  0
   -4.8131    0.6101    1.9485 H   0  0  0  0  0  0  0  0  0  0  0  0
  1  2  1  0
  2  3  1  0
  3  4  2  0
  4  5  1  0
  5  6  2  0
  6  7  1  0
  7  8  2  0
  8  9  1  0
  9 10  1  0
 10 11  2  0
 11 12  1  0
 12 13  2  0
 13 14  1  0
 13 15  1  0
 15 16  1  0
 16 17  1  0
 17 18  2  0
 18 19  1  0
 19 20  2  0
 20 21  1  0
 21 22  2  0
 22 23  1  0
 23 24  1  0
 23 25  1  0
 23 26  1  0
 15 27  2  0
  5 28  1  0
 28 29  1  0
 29 30  1  0
 30 31  1  0
 31 32  1  0
 31 33  1  0
 33 34  1  0
  8  3  1  0
 27 10  1  0
 34 28  1  0
 22 17  1  0
  1 35  1  0
  1 36  1  0
  1 37  1  0
  4 38  1  0
  6 39  1  0
  7 40  1  0
  9 41  1  0
 12 42  1  0
 16 43  1  0
 18 44  1  0
 19 45  1  0
 20 46  1  0
 21 47  1  0
 29 48  1  0
 29 49  1  0
 30 50  1  0
 30 51  1  0
 32 52  1  0
 32 53  1  0
 32 54  1  0
 33 55  1  0
 33 56  1  0
 34 57  1  0
 34 58  1  0
M  END
$$$$
[H]c1nc(N([H])c2c([H])c([H])c(-c3c([H])nn(C([H])([H])[H])c3[H])c([H])c2OC([H])([H])[H])nc(N([H])c2c([H])c([H])c([H])c([H])c2P(=O)(C([H])([H])[H])C([H])([H])[H])c1Cl
     RDKit          3D

 57 60  0  0  0  0  0  0  0  0999 V2000
    3.3129    1.6996    3.0419 C   0  0  0  0  0  0  0  0  0  0  0  0
    2.4429    1.1674    2.0635 O   0  0  0  0  0  0  0  0  0  0  0  0
    2.9955    0.5197    0.9390 C   0  0  0  0  0  0  0  0  0  0  0  0
    4.3494    0.4134    0.8066 C   0  0  0  0  0  0  0  0  0  0  0  0
    4.9535   -0.2051   -0.2640 C   0  0  0  0  0  0  0  0  0  0  0  0
    4.0991   -0.7204   -1.2120 C   0  0  0  0  0  0  0  0  0  0  0  0
    2.7069   -0.6242   -1.0990 C   0  0  0  0  0  0  0  0  0  0  0  0
    2.1346   -0.0070   -0.0293 C   0  0  0  0  0  0  0  0  0  0  0  0
    0.7593    0.1259    0.1497 N   0  0  0  0  0  0  0  0  0  0  0  0
   -0.3026   -0.3041   -0.6565 C   0  0  0  0  0  0  0  0  0  0  0  0
   -0.1203   -0.9543   -1.8021 N   0  0  0  0  0  0  0  0  0  0  0  0
   -1.1006   -1.3821   -2.6008 C   0  0  0  0  0  0  0  0  0  0  0  0
   -2.3893   -1.1218   -2.1920 C   0  0  0  0  0  0  0  0  0  0  0  0
   -3.7162   -1.6633   -3.2114 Cl  0  0  0  0  0  0  0  0  0  0  0  0
   -2.6512   -0.4409   -0.9950 C   0  0  0  0  0  0  0  0  0  0  0  0
   -3.9900   -0.2147   -0.6452 N   0  0  0  0  0  0  0  0  0  0  0  0
   -4.5381    0.4309    0.4711 C   0  0  0  0  0  0  0  0  0  0  0  0
   -3.7822    0.9856    1.4895 C   0  0  0  0  0  0  0  0  0  0  0  0
   -4.3634    1.6256    2.5955 C   0  0  0  0  0  0  0  0  0  0  0  0
   -5.7292    1.7103    2.6808 C   0  0  0  0  0  0  0  0  0  0  0  0
   -6.5089    1.1690    1.6851 C   0  0  0  0  0  0  0  0  0  0  0  0
   -5.9112    0.5320    0.5851 C   0  0  0  0  0  0  0  0  0  0  0  0
   -6.9669   -0.1418   -0.6588 P   0  0  0  0  0  0  0  0  0  0  0  0
   -6.8634   -1.9482   -0.7683 C   0  0  0  0  0  0  0  0  0  0  0  0
   -6.7793    0.6429   -2.2801 C   0  0  0  0  0  0  0  0  0  0  0  0
   -8.4319    0.1548   -0.2620 O   0  0  0  0  0  0  0  0  0  0  0  0
   -1.5941   -0.0756   -0.3040 N   0  0  0  0  0  0  0  0  0  0  0  0
    6.3897   -0.3207   -0.4092 C   0  0  0  0  0  0  0  0  0  0  0  0
    7.1040   -0.3492   -1.5829 C   0  0  0  0  0  0  0  0  0  0  0  0
    8.4282   -0.4676   -1.2746 N   0  0  0  0  0  0  0  0  0  0  0  0
    8.5618   -0.5134    0.0386 N   0  0  0  0  0  0  0  0  0  0  0  0
    9.8253   -0.6368    0.7270 C   0  0  0  0  0  0  0  0  0  0  0  0
    7.3203   -0.4248    0.5971 C   0  0  0  0  0  0  0  0  0  0  0  0
    3.7411    0.8879    3.6448 H   0  0  0  0  0  0  0  0  0  0  0  0
    4.0998    2.3532    2.5809 H   0  0  0  0  0  0  0  0  0  0  0  0
    2.7214    2.3857    3.7007 H   0  0  0  0  0  0  0  0  0  0  0  0
    5.0200    0.8293    1.5710 H   0  0  0  0  0  0  0  0  0  0  0  0
    4.5394   -1.2163   -2.0721 H   0  0  0  0  0  0  0  0  0  0  0  0
    2.1788   -1.0738   -1.9171 H   0  0  0  0  0  0  0  0  0  0  0  0
    0.4291    0.6392    1.0461 H   0  0  0  0  0  0  0  0  0  0  0  0
   -0.9511   -1.9096   -3.5301 H   0  0  0  0  0  0  0  0  0  0  0  0
   -4.7057   -0.5964   -1.3372 H   0  0  0  0  0  0  0  0  0  0  0  0
   -2.7145    0.9506    1.4785 H   0  0  0  0  0  0  0  0  0  0  0  0
   -3.7596    2.0544    3.3837 H   0  0  0  0  0  0  0  0  0  0  0  0
   -6.1942    2.2081    3.5405 H   0  0  0  0  0  0  0  0  0  0  0  0
   -7.5950    1.2391    1.7580 H   0  0  0  0  0  0  0  0  0  0  0  0
   -6.2216   -2.3183    0.0566 H   0  0  0  0  0  0  0  0  0  0  0  0
   -6.4401   -2.2810   -1.7370 H   0  0  0  0  0  0  0  0  0  0  0  0
   -7.8740   -2.3828   -0.7043 H   0  0  0  0  0  0  0  0  0  0  0  0
   -6.0224    1.4243   -2.2964 H   0  0  0  0  0  0  0  0  0  0  0  0
   -7.7213    1.0641   -2.6819 H   0  0  0  0  0  0  0  0  0  0  0  0
   -6.5105   -0.1855   -2.9997 H   0  0  0  0  0  0  0  0  0  0  0  0
    6.6689   -0.2866   -2.5808 H   0  0  0  0  0  0  0  0  0  0  0  0
    9.8075   -0.1716    1.7395 H   0  0  0  0  0  0  0  0  0  0  0  0
   10.6496   -0.1170    0.1606 H   0  0  0  0  0  0  0  0  0  0  0  0
   10.0762   -1.7205    0.7780 H   0  0  0  0  0  0  0  0  0  0  0  0
    7.1335   -0.4373    1.6612 H   0  0  0  0  0  0  0  0  0  0  0  0
  1  2  1  0
  2  3  1  0
  3  4  2  0
  4  5  1  0
  5  6  2  0
  6  7  1  0
  7  8  2  0
  8  9  1  0
  9 10  1  0
 10 11  2  0
 11 12  1  0
 12 13  2  0
 13 14  1  0
 13 15  1  0
 15 16  1  0
 16 17  1  0
 17 18  2  0
 18 19  1  0
 19 20  2  0
 20 21  1  0
 21 22  2  0
 22 23  1  0
 23 24  1  0
 23 25  1  0
 23 26  2  0
 15 27  2  0
  5 28  1  0
 28 29  1  0
 29 30  2  0
 30 31  1  0
 31 32  1  0
 31 33  1  0
  8  3  1  0
 27 10  1  0
 33 28  2  0
 22 17  1  0
  1 34  1  0
  1 35  1  0
  1 36  1  0
  4 37  1  0
  6 38  1  0
  7 39  1  0
  9 40  1  0
 12 41  1  0
 16 42  1  0
 18 43  1  0
 19 44  1  0
 20 45  1  0
 21 46  1  0
 24 47  1  0
 24 48  1  0
 24 49  1  0
 25 50  1  0
 25 51  1  0
 25 52  1  0
 29 53  1  0
 32 54  1  0
 32 55  1  0
 32 56  1  0
 33 57  1  0
M  END
$$$$
[H]Oc1c([H])c([H])c(C([H])([H])[C@@]([H])(C(=O)N([H])[C@]([H])(C(=O)N([H])[C@]([H])(C(=O)N([H])[C@]([H])(C(=O)N([H])[H])C([H])([H])c2c([H])c([H])c([H])c([H])c2[H])C([H])([H])c2c([H])c([H])c(O[H])c([H])c2[H])C([H])([H])C([H])(C([H])([H])[H])C([H])([H])[H])N([H])[H])c([H])c1[H]
     RDKit          3D

 85 87  0  0  0  0  0  0  0  0999 V2000
    3.1581   -4.8998   -1.0521 C   0  0  0  0  0  0  0  0  0  0  0  0
    2.7884   -3.5211   -1.6171 C   0  0  0  0  0  0  0  0  0  0  0  0
    2.0328   -3.8572   -2.9360 C   0  0  0  0  0  0  0  0  0  0  0  0
    1.8060   -2.8622   -0.7113 C   0  0  0  0  0  0  0  0  0  0  0  0
    1.3707   -1.4797   -1.1465 C   0  0  2  0  0  0  0  0  0  0  0  0
    2.4117   -0.4995   -1.1896 N   0  0  0  0  0  0  0  0  0  0  0  0
    3.6149   -0.5370   -0.5081 C   0  0  0  0  0  0  0  0  0  0  0  0
    4.0276   -1.4286    0.2910 O   0  0  0  0  0  0  0  0  0  0  0  0
    4.6094    0.5868   -0.6870 C   0  0  1  0  0  0  0  0  0  0  0  0
    4.0376    1.5605   -1.5647 N   0  0  0  0  0  0  0  0  0  0  0  0
    4.9402    1.1742    0.6750 C   0  0  0  0  0  0  0  0  0  0  0  0
    5.9024    2.2815    0.5200 C   0  0  0  0  0  0  0  0  0  0  0  0
    5.4532    3.5747    0.3349 C   0  0  0  0  0  0  0  0  0  0  0  0
    6.3578    4.6058    0.1939 C   0  0  0  0  0  0  0  0  0  0  0  0
    7.7133    4.3241    0.2411 C   0  0  0  0  0  0  0  0  0  0  0  0
    8.6225    5.3542    0.0993 O   0  0  0  0  0  0  0  0  0  0  0  0
    8.1566    3.0346    0.4256 C   0  0  0  0  0  0  0  0  0  0  0  0
    7.2468    2.0039    0.5660 C   0  0  0  0  0  0  0  0  0  0  0  0
    0.2243   -1.0293   -0.3768 C   0  0  0  0  0  0  0  0  0  0  0  0
    0.3054    0.1163    0.1670 O   0  0  0  0  0  0  0  0  0  0  0  0
   -0.9768   -1.7865   -0.1972 N   0  0  0  0  0  0  0  0  0  0  0  0
   -2.0963   -1.3261    0.5531 C   0  0  1  0  0  0  0  0  0  0  0  0
   -1.9218   -1.2633    2.0316 C   0  0  0  0  0  0  0  0  0  0  0  0
   -1.6174   -2.6142    2.5921 C   0  0  0  0  0  0  0  0  0  0  0  0
   -2.6720   -3.4449    2.9825 C   0  0  0  0  0  0  0  0  0  0  0  0
   -2.3756   -4.6685    3.4953 C   0  0  0  0  0  0  0  0  0  0  0  0
   -1.0630   -5.0833    3.6288 C   0  0  0  0  0  0  0  0  0  0  0  0
   -0.8354   -6.3449    4.1605 O   0  0  0  0  0  0  0  0  0  0  0  0
   -0.0203   -4.2673    3.2452 C   0  0  0  0  0  0  0  0  0  0  0  0
   -0.3050   -3.0111    2.7181 C   0  0  0  0  0  0  0  0  0  0  0  0
   -2.7049   -0.0772   -0.0079 C   0  0  0  0  0  0  0  0  0  0  0  0
   -2.2379    0.4810   -1.0302 O   0  0  0  0  0  0  0  0  0  0  0  0
   -3.8360    0.5176    0.6030 N   0  0  0  0  0  0  0  0  0  0  0  0
   -4.4239    1.7605    0.0290 C   0  0  1  0  0  0  0  0  0  0  0  0
   -5.7069    1.3615   -0.6466 C   0  0  0  0  0  0  0  0  0  0  0  0
   -6.3937    2.4874   -1.2698 C   0  0  0  0  0  0  0  0  0  0  0  0
   -7.4063    3.2082   -0.6942 C   0  0  0  0  0  0  0  0  0  0  0  0
   -7.9896    4.2587   -1.3574 C   0  0  0  0  0  0  0  0  0  0  0  0
   -7.6114    4.6599   -2.6216 C   0  0  0  0  0  0  0  0  0  0  0  0
   -6.5802    3.9122   -3.1862 C   0  0  0  0  0  0  0  0  0  0  0  0
   -5.9786    2.8588   -2.5497 C   0  0  0  0  0  0  0  0  0  0  0  0
   -4.5021    2.7205    1.0985 C   0  0  0  0  0  0  0  0  0  0  0  0
   -4.9118    4.0481    0.9384 N   0  0  0  0  0  0  0  0  0  0  0  0
   -4.1804    2.3776    2.2882 O   0  0  0  0  0  0  0  0  0  0  0  0
    2.2519   -5.2425   -0.4921 H   0  0  0  0  0  0  0  0  0  0  0  0
    4.0407   -4.7767   -0.4111 H   0  0  0  0  0  0  0  0  0  0  0  0
    3.3451   -5.5972   -1.8924 H   0  0  0  0  0  0  0  0  0  0  0  0
    3.6593   -2.9610   -1.9143 H   0  0  0  0  0  0  0  0  0  0  0  0
    0.9537   -3.9242   -2.6996 H   0  0  0  0  0  0  0  0  0  0  0  0
    2.1558   -3.0084   -3.6237 H   0  0  0  0  0  0  0  0  0  0  0  0
    2.3518   -4.8240   -3.3395 H   0  0  0  0  0  0  0  0  0  0  0  0
    2.1532   -2.9192    0.3330 H   0  0  0  0  0  0  0  0  0  0  0  0
    0.8735   -3.5035   -0.7301 H   0  0  0  0  0  0  0  0  0  0  0  0
    1.0554   -1.6645   -2.2591 H   0  0  0  0  0  0  0  0  0  0  0  0
    2.1830    0.3336   -1.8366 H   0  0  0  0  0  0  0  0  0  0  0  0
    5.5044    0.0934   -1.1158 H   0  0  0  0  0  0  0  0  0  0  0  0
    3.8952    1.1445   -2.5008 H   0  0  0  0  0  0  0  0  0  0  0  0
    3.1538    1.9711   -1.2270 H   0  0  0  0  0  0  0  0  0  0  0  0
    5.3322    0.3618    1.3274 H   0  0  0  0  0  0  0  0  0  0  0  0
    3.9977    1.5725    1.1307 H   0  0  0  0  0  0  0  0  0  0  0  0
    4.4045    3.8346    0.2934 H   0  0  0  0  0  0  0  0  0  0  0  0
    6.0293    5.6388    0.0465 H   0  0  0  0  0  0  0  0  0  0  0  0
    8.3240    6.3117   -0.0376 H   0  0  0  0  0  0  0  0  0  0  0  0
    9.2111    2.7916    0.4647 H   0  0  0  0  0  0  0  0  0  0  0  0
    7.6334    1.0076    0.7088 H   0  0  0  0  0  0  0  0  0  0  0  0
   -0.9763   -2.7373   -0.6755 H   0  0  0  0  0  0  0  0  0  0  0  0
   -2.9227   -2.0945    0.3834 H   0  0  0  0  0  0  0  0  0  0  0  0
   -1.0817   -0.6154    2.3555 H   0  0  0  0  0  0  0  0  0  0  0  0
   -2.8224   -0.8460    2.5254 H   0  0  0  0  0  0  0  0  0  0  0  0
   -3.6701   -3.0437    2.8453 H   0  0  0  0  0  0  0  0  0  0  0  0
   -3.2169   -5.3064    3.7971 H   0  0  0  0  0  0  0  0  0  0  0  0
    0.1132   -6.6491    4.2586 H   0  0  0  0  0  0  0  0  0  0  0  0
    1.0197   -4.6058    3.3545 H   0  0  0  0  0  0  0  0  0  0  0  0
    0.5432   -2.3983    2.4289 H   0  0  0  0  0  0  0  0  0  0  0  0
   -4.2492    0.0911    1.4371 H   0  0  0  0  0  0  0  0  0  0  0  0
   -3.7255    2.0579   -0.7917 H   0  0  0  0  0  0  0  0  0  0  0  0
   -6.3688    0.7854    0.0583 H   0  0  0  0  0  0  0  0  0  0  0  0
   -5.4914    0.6171   -1.4711 H   0  0  0  0  0  0  0  0  0  0  0  0
   -7.7313    2.9127    0.3107 H   0  0  0  0  0  0  0  0  0  0  0  0
   -8.7844    4.8104   -0.8847 H   0  0  0  0  0  0  0  0  0  0  0  0
   -8.0576    5.4823   -3.1624 H   0  0  0  0  0  0  0  0  0  0  0  0
   -6.2491    4.2017   -4.1984 H   0  0  0  0  0  0  0  0  0  0  0  0
   -5.1642    2.2943   -3.0324 H   0  0  0  0  0  0  0  0  0  0  0  0
   -5.6456    4.5234    1.5470 H   0  0  0  0  0  0  0  0  0  0  0  0
   -4.4603    4.6135    0.1614 H   0  0  0  0  0  0  0  0  0  0  0  0
  1  2  1  0
  2  3  1  0
  2  4  1  0
  4  5  1  0
  5  6  1  0
  6  7  1  0
  7  8  2  0
  7  9  1  0
  9 10  1  0
  9 11  1  0
 11 12  1  0
 12 13  2  0
 13 14  1  0
 14 15  2  0
 15 16  1  0
 15 17  1  0
 17 18  2  0
  5 19  1  0
 19 20  2  0
 19 21  1  0
 21 22  1  0
 22 23  1  0
 23 24  1  0
 24 25  2  0
 25 26  1  0
 26 27  2  0
 27 28  1  0
 27 29  1  0
 29 30  2  0
 22 31  1  0
 31 32  2  0
 31 33  1  0
 33 34  1  0
 34 35  1  0
 35 36  1  0
 36 37  2  0
 37 38  1  0
 38 39  2  0
 39 40  1  0
 40 41  2  0
 34 42  1  0
 42 43  1  0
 42 44  2  0
 18 12  1  0
 30 24  1  0
 41 36  1  0
  1 45  1  0
  1 46  1  0
  1 47  1  0
  2 48  1  0
  3 49  1  0
  3 50  1  0
  3 51  1  0
  4 52  1  0
  4 53  1  0
  5 54  1  6
  6 55  1  0
  9 56  1  6
 10 57  1  0
 10 58  1  0
 11 59  1  0
 11 60  1  0
 13 61  1  0
 14 62  1  0
 16 63  1  0
 17 64  1  0
 18 65  1  0
 21 66  1  0
 22 67  1  1
 23 68  1  0
 23 69  1  0
 25 70  1  0
 26 71  1  0
 28 72  1  0
 29 73  1  0
 30 74  1  0
 33 75  1  0
 34 76  1  6
 35 77  1  0
 35 78  1  0
 37 79  1  0
 38 80  1  0
 39 81  1  0
 40 82  1  0
 41 83  1  0
 43 84  1  0
 43 85  1  0
M  END
$$$$
[H]OC(=O)C([H])([H])C([H])([H])[C@@]([H])(C(=O)N([H])[C@]([H])(C(=O)N([H])[C@]([H])(C(=O)O[H])C([H])([H])c1c([H])c([H])c([H])c([H])c1[H])C([H])([H])C(=O)O[H])N([H])C(=O)[C@@]([H])(N([H])C(=O)[C@@]([H])(N([H])C(=O)[C@@]([H])(N([H])C(=O)[C@@]([H])(N([H])[H])C([H])([H])C([H])(C([H])([H])[H])C([H])([H])[H])C([H])([H])c1c([H])c([H])c([H])c([H])c1[H])C([H])([H])C(=O)O[H])C([H])([H])C([H])(C([H])([H])[H])C([H])([H])[H]
     RDKit          3D

123124  0  0  0  0  0  0  0  0999 V2000
  -12.0111   -1.1257   -0.3814 C   0  0  0  0  0  0  0  0  0  0  0  0
  -11.9607    0.2629   -0.9568 C   0  0  0  0  0  0  0  0  0  0  0  0
  -13.4189    0.6883   -1.1950 C   0  0  0  0  0  0  0  0  0  0  0  0
  -11.2594    0.3443   -2.2613 C   0  0  0  0  0  0  0  0  0  0  0  0
   -9.8397   -0.0764   -2.2950 C   0  0  2  0  0  0  0  0  0  0  0  0
   -9.5643   -1.4323   -1.9273 N   0  0  0  0  0  0  0  0  0  0  0  0
   -8.9162    0.8303   -1.5704 C   0  0  0  0  0  0  0  0  0  0  0  0
   -9.0838    2.0913   -1.6809 O   0  0  0  0  0  0  0  0  0  0  0  0
   -7.8737    0.3594   -0.7781 N   0  0  0  0  0  0  0  0  0  0  0  0
   -6.9870    1.2871   -0.0890 C   0  0  1  0  0  0  0  0  0  0  0  0
   -6.8877    1.0250    1.3600 C   0  0  0  0  0  0  0  0  0  0  0  0
   -6.3789   -0.3121    1.7441 C   0  0  0  0  0  0  0  0  0  0  0  0
   -7.2533   -1.4007    1.8364 C   0  0  0  0  0  0  0  0  0  0  0  0
   -6.8258   -2.6585    2.2105 C   0  0  0  0  0  0  0  0  0  0  0  0
   -5.5173   -2.8892    2.5077 C   0  0  0  0  0  0  0  0  0  0  0  0
   -4.6317   -1.8377    2.4263 C   0  0  0  0  0  0  0  0  0  0  0  0
   -5.0629   -0.5851    2.0531 C   0  0  0  0  0  0  0  0  0  0  0  0
   -5.6738    1.3314   -0.7385 C   0  0  0  0  0  0  0  0  0  0  0  0
   -5.4608    0.5663   -1.7622 O   0  0  0  0  0  0  0  0  0  0  0  0
   -4.6512    2.1849   -0.2769 N   0  0  0  0  0  0  0  0  0  0  0  0
   -3.4013    2.1656   -1.0037 C   0  0  1  0  0  0  0  0  0  0  0  0
   -2.9632    3.5609   -1.4003 C   0  0  0  0  0  0  0  0  0  0  0  0
   -3.8910    4.2828   -2.2551 C   0  0  0  0  0  0  0  0  0  0  0  0
   -5.1019    3.7938   -2.6608 O   0  0  0  0  0  0  0  0  0  0  0  0
   -3.5816    5.4380   -2.6610 O   0  0  0  0  0  0  0  0  0  0  0  0
   -2.3332    1.5991   -0.1246 C   0  0  0  0  0  0  0  0  0  0  0  0
   -2.2526    1.9132    1.0742 O   0  0  0  0  0  0  0  0  0  0  0  0
   -1.4085    0.6845   -0.6960 N   0  0  0  0  0  0  0  0  0  0  0  0
   -0.3432    0.1117    0.1475 C   0  0  1  0  0  0  0  0  0  0  0  0
   -0.8812   -1.2889    0.4661 C   0  0  0  0  0  0  0  0  0  0  0  0
    0.0230   -2.0989    1.3223 C   0  0  0  0  0  0  0  0  0  0  0  0
   -0.6816   -3.4512    1.5214 C   0  0  0  0  0  0  0  0  0  0  0  0
    0.2516   -1.5353    2.6986 C   0  0  0  0  0  0  0  0  0  0  0  0
    0.8763    0.0333   -0.6554 C   0  0  0  0  0  0  0  0  0  0  0  0
    0.7299   -0.1470   -1.9060 O   0  0  0  0  0  0  0  0  0  0  0  0
    2.2046    0.1364   -0.1808 N   0  0  0  0  0  0  0  0  0  0  0  0
    3.3391    0.0239   -1.0386 C   0  0  1  0  0  0  0  0  0  0  0  0
    3.8856    1.3825   -1.4710 C   0  0  0  0  0  0  0  0  0  0  0  0
    4.3247    2.2390   -0.3226 C   0  0  0  0  0  0  0  0  0  0  0  0
    4.8463    3.5084   -0.8784 C   0  0  0  0  0  0  0  0  0  0  0  0
    4.1805    4.7066   -0.7575 O   0  0  0  0  0  0  0  0  0  0  0  0
    5.9562    3.5491   -1.5050 O   0  0  0  0  0  0  0  0  0  0  0  0
    4.3930   -0.7770   -0.3826 C   0  0  0  0  0  0  0  0  0  0  0  0
    4.1953   -1.1966    0.7824 O   0  0  0  0  0  0  0  0  0  0  0  0
    5.5975   -1.0673   -1.0349 N   0  0  0  0  0  0  0  0  0  0  0  0
    6.6886   -1.8326   -0.4570 C   0  0  1  0  0  0  0  0  0  0  0  0
    7.0593   -2.9518   -1.3650 C   0  0  0  0  0  0  0  0  0  0  0  0
    5.9789   -3.9115   -1.6406 C   0  0  0  0  0  0  0  0  0  0  0  0
    6.2370   -5.0040   -2.4599 O   0  0  0  0  0  0  0  0  0  0  0  0
    4.8176   -3.8274   -1.1888 O   0  0  0  0  0  0  0  0  0  0  0  0
    7.8881   -0.9594   -0.2909 C   0  0  0  0  0  0  0  0  0  0  0  0
    7.9105    0.2463   -0.6665 O   0  0  0  0  0  0  0  0  0  0  0  0
    9.0477   -1.4820    0.3038 N   0  0  0  0  0  0  0  0  0  0  0  0
   10.2621   -0.6728    0.4852 C   0  0  1  0  0  0  0  0  0  0  0  0
   10.4083   -0.2775    1.9274 C   0  0  0  0  0  0  0  0  0  0  0  0
   11.6104    0.5389    2.1286 C   0  0  0  0  0  0  0  0  0  0  0  0
   11.5432    1.9141    1.8890 C   0  0  0  0  0  0  0  0  0  0  0  0
   12.6170    2.7540    2.0853 C   0  0  0  0  0  0  0  0  0  0  0  0
   13.8142    2.2421    2.5343 C   0  0  0  0  0  0  0  0  0  0  0  0
   13.9108    0.8917    2.7798 C   0  0  0  0  0  0  0  0  0  0  0  0
   12.8298    0.0732    2.5784 C   0  0  0  0  0  0  0  0  0  0  0  0
   11.4136   -1.3064   -0.1412 C   0  0  0  0  0  0  0  0  0  0  0  0
   12.6870   -0.7863   -0.2486 O   0  0  0  0  0  0  0  0  0  0  0  0
   11.2994   -2.4822   -0.6797 O   0  0  0  0  0  0  0  0  0  0  0  0
  -12.3541   -1.8524   -1.1513 H   0  0  0  0  0  0  0  0  0  0  0  0
  -12.8174   -1.1003    0.4070 H   0  0  0  0  0  0  0  0  0  0  0  0
  -11.0978   -1.4317    0.1404 H   0  0  0  0  0  0  0  0  0  0  0  0
  -11.5717    0.9652   -0.1894 H   0  0  0  0  0  0  0  0  0  0  0  0
  -13.5158    1.7735   -0.9868 H   0  0  0  0  0  0  0  0  0  0  0  0
  -13.6801    0.4966   -2.2578 H   0  0  0  0  0  0  0  0  0  0  0  0
  -14.0980    0.1819   -0.4849 H   0  0  0  0  0  0  0  0  0  0  0  0
  -11.8870   -0.2152   -3.0166 H   0  0  0  0  0  0  0  0  0  0  0  0
  -11.2977    1.4015   -2.6455 H   0  0  0  0  0  0  0  0  0  0  0  0
   -9.5152    0.0063   -3.3816 H   0  0  0  0  0  0  0  0  0  0  0  0
   -8.5863   -1.7277   -2.1495 H   0  0  0  0  0  0  0  0  0  0  0  0
  -10.2701   -2.1107   -2.2996 H   0  0  0  0  0  0  0  0  0  0  0  0
   -7.7176   -0.6660   -0.6735 H   0  0  0  0  0  0  0  0  0  0  0  0
   -7.4246    2.3161   -0.2258 H   0  0  0  0  0  0  0  0  0  0  0  0
   -7.8079    1.2840    1.9330 H   0  0  0  0  0  0  0  0  0  0  0  0
   -6.1201    1.7528    1.7680 H   0  0  0  0  0  0  0  0  0  0  0  0
   -8.2953   -1.2849    1.6147 H   0  0  0  0  0  0  0  0  0  0  0  0
   -7.5189   -3.5027    2.2786 H   0  0  0  0  0  0  0  0  0  0  0  0
   -5.2033   -3.8895    2.7970 H   0  0  0  0  0  0  0  0  0  0  0  0
   -3.6003   -2.0368    2.6687 H   0  0  0  0  0  0  0  0  0  0  0  0
   -4.3494    0.2180    2.0067 H   0  0  0  0  0  0  0  0  0  0  0  0
   -4.7938    2.7884    0.5352 H   0  0  0  0  0  0  0  0  0  0  0  0
   -3.5021    1.5554   -1.9201 H   0  0  0  0  0  0  0  0  0  0  0  0
   -2.7561    4.0970   -0.4502 H   0  0  0  0  0  0  0  0  0  0  0  0
   -2.0079    3.4372   -1.9768 H   0  0  0  0  0  0  0  0  0  0  0  0
   -5.8402    4.3528   -3.0245 H   0  0  0  0  0  0  0  0  0  0  0  0
   -1.4641    0.4058   -1.7042 H   0  0  0  0  0  0  0  0  0  0  0  0
   -0.2835    0.7209    1.0495 H   0  0  0  0  0  0  0  0  0  0  0  0
   -1.0132   -1.7827   -0.4944 H   0  0  0  0  0  0  0  0  0  0  0  0
   -1.8375   -1.1410    0.9703 H   0  0  0  0  0  0  0  0  0  0  0  0
    0.9659   -2.3050    0.7820 H   0  0  0  0  0  0  0  0  0  0  0  0
   -0.9716   -3.8875    0.5418 H   0  0  0  0  0  0  0  0  0  0  0  0
   -0.1271   -4.1295    2.1682 H   0  0  0  0  0  0  0  0  0  0  0  0
   -1.6400   -3.2008    2.0192 H   0  0  0  0  0  0  0  0  0  0  0  0
    0.1801   -2.3169    3.4863 H   0  0  0  0  0  0  0  0  0  0  0  0
   -0.4974   -0.7602    2.9703 H   0  0  0  0  0  0  0  0  0  0  0  0
    1.2922   -1.1462    2.7472 H   0  0  0  0  0  0  0  0  0  0  0  0
    2.3192    0.3021    0.8620 H   0  0  0  0  0  0  0  0  0  0  0  0
    2.9952   -0.4720   -1.9897 H   0  0  0  0  0  0  0  0  0  0  0  0
    3.0491    1.9047   -1.9843 H   0  0  0  0  0  0  0  0  0  0  0  0
    4.6716    1.2258   -2.2263 H   0  0  0  0  0  0  0  0  0  0  0  0
    5.0680    1.7480    0.3355 H   0  0  0  0  0  0  0  0  0  0  0  0
    3.4101    2.5034    0.2625 H   0  0  0  0  0  0  0  0  0  0  0  0
    3.2871    4.9333   -1.1492 H   0  0  0  0  0  0  0  0  0  0  0  0
    5.7512   -0.7258   -2.0048 H   0  0  0  0  0  0  0  0  0  0  0  0
    6.3904   -2.2307    0.5265 H   0  0  0  0  0  0  0  0  0  0  0  0
    7.9655   -3.5050   -1.0294 H   0  0  0  0  0  0  0  0  0  0  0  0
    7.3871   -2.4863   -2.3459 H   0  0  0  0  0  0  0  0  0  0  0  0
    6.2067   -5.9541   -2.1675 H   0  0  0  0  0  0  0  0  0  0  0  0
    9.0785   -2.4562    0.6338 H   0  0  0  0  0  0  0  0  0  0  0  0
   10.0458    0.2979   -0.0605 H   0  0  0  0  0  0  0  0  0  0  0  0
    9.5345    0.3802    2.1901 H   0  0  0  0  0  0  0  0  0  0  0  0
   10.4466   -1.1592    2.6069 H   0  0  0  0  0  0  0  0  0  0  0  0
   10.6133    2.3680    1.5288 H   0  0  0  0  0  0  0  0  0  0  0  0
   12.5646    3.8216    1.8968 H   0  0  0  0  0  0  0  0  0  0  0  0
   14.6733    2.9144    2.6918 H   0  0  0  0  0  0  0  0  0  0  0  0
   14.8670    0.5296    3.1283 H   0  0  0  0  0  0  0  0  0  0  0  0
   12.9300   -0.9755    2.7788 H   0  0  0  0  0  0  0  0  0  0  0  0
   13.0402   -0.6764   -1.2129 H   0  0  0  0  0  0  0  0  0  0  0  0
  1  2  1  0
  2  3  1  0
  2  4  1  0
  4  5  1  0
  5  6  1  0
  5  7  1  0
  7  8  2  0
  7  9  1  0
  9 10  1  0
 10 11  1  0
 11 12  1  0
 12 13  2  0
 13 14  1  0
 14 15  2  0
 15 16  1  0
 16 17  2  0
 10 18  1  0
 18 19  2  0
 18 20  1  0
 20 21  1  0
 21 22  1  0
 22 23  1  0
 23 24  1  0
 23 25  2  0
 21 26  1  0
 26 27  2  0
 26 28  1  0
 28 29  1  0
 29 30  1  0
 30 31  1  0
 31 32  1  0
 31 33  1  0
 29 34  1  0
 34 35  2  0
 34 36  1  0
 36 37  1  0
 37 38  1  0
 38 39  1  0
 39 40  1  0
 40 41  1  0
 40 42  2  0
 37 43  1  0
 43 44  2  0
 43 45  1  0
 45 46  1  0
 46 47  1  0
 47 48  1  0
 48 49  1  0
 48 50  2  0
 46 51  1  0
 51 52  2  0
 51 53  1  0
 53 54  1  0
 54 55  1  0
 55 56  1  0
 56 57  2  0
 57 58  1  0
 58 59  2  0
 59 60  1  0
 60 61  2  0
 54 62  1  0
 62 63  1  0
 62 64  2  0
 17 12  1  0
 61 56  1  0
  1 65  1  0
  1 66  1  0
  1 67  1  0
  2 68  1  0
  3 69  1  0
  3 70  1  0
  3 71  1  0
  4 72  1  0
  4 73  1  0
  5 74  1  6
  6 75  1  0
  6 76  1  0
  9 77  1  0
 10 78  1  1
 11 79  1  0
 11 80  1  0
 13 81  1  0
 14 82  1  0
 15 83  1  0
 16 84  1  0
 17 85  1  0
 20 86  1  0
 21 87  1  6
 22 88  1  0
 22 89  1  0
 24 90  1  0
 28 91  1  0
 29 92  1  1
 30 93  1  0
 30 94  1  0
 31 95  1  0
 32 96  1  0
 32 97  1  0
 32 98  1  0
 33 99  1  0
 33100  1  0
 33101  1  0
 36102  1  0
 37103  1  6
 38104  1  0
 38105  1  0
 39106  1  0
 39107  1  0
 41108  1  0
 45109  1  0
 46110  1  1
 47111  1  0
 47112  1  0
 49113  1  0
 53114  1  0
 54115  1  6
 55116  1  0
 55117  1  0
 57118  1  0
 58119  1  0
 59120  1  0
 60121  1  0
 61122  1  0
 63123  1  0
M  END
$$$$
[H]OC([H])([H])[C@@]1([H])O[C@@]([H])(n2c([H])nc3c(N([H])[H])nc([H])nc32)[C@]([H])(O[H])[C@@]([H])(O[H])[C@@]([H])(O[H])[C@]1([H])O[H]
     RDKit          3D

 40 42  0  0  0  0  0  0  0  0999 V2000
    6.0151    0.2618    0.3605 N   0  0  0  0  0  0  0  0  0  0  0  0
    4.8073   -0.4752    0.2147 C   0  0  0  0  0  0  0  0  0  0  0  0
    4.8068   -1.8193    0.2542 N   0  0  0  0  0  0  0  0  0  0  0  0
    3.6966   -2.5457    0.1217 C   0  0  0  0  0  0  0  0  0  0  0  0
    2.5287   -1.9192   -0.0587 N   0  0  0  0  0  0  0  0  0  0  0  0
    2.4058   -0.5711   -0.1155 C   0  0  0  0  0  0  0  0  0  0  0  0
    1.3783    0.2754   -0.2829 N   0  0  0  0  0  0  0  0  0  0  0  0
    1.9026    1.5097   -0.2465 C   0  0  0  0  0  0  0  0  0  0  0  0
    3.2307    1.4244   -0.0598 N   0  0  0  0  0  0  0  0  0  0  0  0
    3.5723    0.1474    0.0251 C   0  0  0  0  0  0  0  0  0  0  0  0
   -0.0096   -0.1138   -0.4638 C   0  0  2  0  0  0  0  0  0  0  0  0
   -0.7632    1.0480   -0.4900 O   0  0  0  0  0  0  0  0  0  0  0  0
   -1.8277    0.9848   -1.3715 C   0  0  2  0  0  0  0  0  0  0  0  0
   -2.1950    2.4114   -1.7294 C   0  0  0  0  0  0  0  0  0  0  0  0
   -2.5642    3.1663   -0.6384 O   0  0  0  0  0  0  0  0  0  0  0  0
   -3.0008    0.2269   -0.9024 C   0  0  1  0  0  0  0  0  0  0  0  0
   -3.5964   -0.3919   -2.0294 O   0  0  0  0  0  0  0  0  0  0  0  0
   -2.7585   -0.8481    0.0941 C   0  0  2  0  0  0  0  0  0  0  0  0
   -3.9849   -1.2061    0.6769 O   0  0  0  0  0  0  0  0  0  0  0  0
   -1.8110   -0.5258    1.1891 C   0  0  2  0  0  0  0  0  0  0  0  0
   -1.9158    0.7667    1.6810 O   0  0  0  0  0  0  0  0  0  0  0  0
   -0.4223   -0.8888    0.7646 C   0  0  1  0  0  0  0  0  0  0  0  0
   -0.4457   -2.2542    0.4153 O   0  0  0  0  0  0  0  0  0  0  0  0
    6.6721    0.0086    1.1065 H   0  0  0  0  0  0  0  0  0  0  0  0
    6.1690    1.0452   -0.3238 H   0  0  0  0  0  0  0  0  0  0  0  0
    3.6881   -3.6339    0.1525 H   0  0  0  0  0  0  0  0  0  0  0  0
    1.3003    2.4255   -0.3570 H   0  0  0  0  0  0  0  0  0  0  0  0
   -0.0979   -0.7112   -1.3909 H   0  0  0  0  0  0  0  0  0  0  0  0
   -1.4075    0.5369   -2.3198 H   0  0  0  0  0  0  0  0  0  0  0  0
   -1.3538    2.9411   -2.2281 H   0  0  0  0  0  0  0  0  0  0  0  0
   -3.0392    2.4426   -2.4531 H   0  0  0  0  0  0  0  0  0  0  0  0
   -1.8454    3.3153    0.0199 H   0  0  0  0  0  0  0  0  0  0  0  0
   -3.7963    0.9028   -0.5016 H   0  0  0  0  0  0  0  0  0  0  0  0
   -4.0688   -1.2288   -1.7450 H   0  0  0  0  0  0  0  0  0  0  0  0
   -2.3933   -1.7581   -0.4288 H   0  0  0  0  0  0  0  0  0  0  0  0
   -3.8091   -1.5992    1.5629 H   0  0  0  0  0  0  0  0  0  0  0  0
   -2.0640   -1.2019    2.0597 H   0  0  0  0  0  0  0  0  0  0  0  0
   -2.8560    1.0016    1.7169 H   0  0  0  0  0  0  0  0  0  0  0  0
    0.2999   -0.7616    1.5968 H   0  0  0  0  0  0  0  0  0  0  0  0
   -0.4474   -2.3888   -0.5543 H   0  0  0  0  0  0  0  0  0  0  0  0
  1  2  1  0
  2  3  2  0
  3  4  1  0
  4  5  2  0
  5  6  1  0
  6  7  1  0
  7  8  1  0
  8  9  2  0
  9 10  1  0
  7 11  1  0
 11 12  1  0
 12 13  1  0
 13 14  1  0
 14 15  1  0
 13 16  1  0
 16 17  1  0
 16 18  1  0
 18 19  1  0
 18 20  1  0
 20 21  1  0
 20 22  1  0
 22 23  1  0
 10  2  1  0
 22 11  1  0
 10  6  2  0
  1 24  1  0
  1 25  1  0
  4 26  1  0
  8 27  1  0
 11 28  1  6
 13 29  1  6
 14 30  1  0
 14 31  1  0
 15 32  1  0
 16 33  1  1
 17 34  1  0
 18 35  1  6
 19 36  1  0
 20 37  1  1
 21 38  1  0
 22 39  1  1
 23 40  1  0
M  END
$$$$
[H]c1nc(N([H])c2c([H])c([H])c(N3C([H])([H])C([H])([H])C([H])(N4C([H])([H])C([H])([H])C([H])([H])C4([H])[H])C([H])([H])C3([H])[H])c([H])c2OC([H])([H])[H])nc(N([H])c2c([H])c([H])c([H])c([H])c2S(=O)(=O)C([H])(C([H])([H])[H])C([H])([H])[H])c1Cl
     RDKit          3D

 77 81  0  0  0  0  0  0  0  0999 V2000
    0.8444    1.1735   -3.4882 C   0  0  0  0  0  0  0  0  0  0  0  0
    0.1439    0.9247   -2.3025 O   0  0  0  0  0  0  0  0  0  0  0  0
    0.7822    0.3868   -1.2119 C   0  0  0  0  0  0  0  0  0  0  0  0
    2.1247    0.0964   -1.3057 C   0  0  0  0  0  0  0  0  0  0  0  0
    2.8153   -0.4444   -0.2422 C   0  0  0  0  0  0  0  0  0  0  0  0
    2.1684   -0.7054    0.9431 C   0  0  0  0  0  0  0  0  0  0  0  0
    0.8041   -0.4045    1.0222 C   0  0  0  0  0  0  0  0  0  0  0  0
    0.0946    0.1289   -0.0087 C   0  0  0  0  0  0  0  0  0  0  0  0
   -1.2782    0.4436    0.0285 N   0  0  0  0  0  0  0  0  0  0  0  0
   -2.2158    0.2947    1.0523 C   0  0  0  0  0  0  0  0  0  0  0  0
   -1.9079   -0.2100    2.2386 N   0  0  0  0  0  0  0  0  0  0  0  0
   -2.7961   -0.3635    3.2240 C   0  0  0  0  0  0  0  0  0  0  0  0
   -4.0813    0.0263    2.9742 C   0  0  0  0  0  0  0  0  0  0  0  0
   -5.2951   -0.1412    4.2182 Cl  0  0  0  0  0  0  0  0  0  0  0  0
   -4.4529    0.5671    1.7291 C   0  0  0  0  0  0  0  0  0  0  0  0
   -5.7836    0.9344    1.4634 N   0  0  0  0  0  0  0  0  0  0  0  0
   -6.3139    1.5195    0.2955 C   0  0  0  0  0  0  0  0  0  0  0  0
   -5.5606    2.1541   -0.6571 C   0  0  0  0  0  0  0  0  0  0  0  0
   -6.0806    2.8280   -1.7613 C   0  0  0  0  0  0  0  0  0  0  0  0
   -7.4338    2.8623   -1.9097 C   0  0  0  0  0  0  0  0  0  0  0  0
   -8.2187    2.2364   -0.9751 C   0  0  0  0  0  0  0  0  0  0  0  0
   -7.6979    1.5567    0.1348 C   0  0  0  0  0  0  0  0  0  0  0  0
   -8.8110    0.7276    1.1504 S   0  0  0  0  0  0  0  0  0  0  0  0
   -8.7176    1.1212    2.6121 O   0  0  0  0  0  0  0  0  0  0  0  0
  -10.2307    1.2112    0.7746 O   0  0  0  0  0  0  0  0  0  0  0  0
   -8.8787   -1.0165    0.9527 C   0  0  0  0  0  0  0  0  0  0  0  0
   -7.6434   -1.7952    1.1622 C   0  0  0  0  0  0  0  0  0  0  0  0
   -9.4496   -1.2951   -0.4370 C   0  0  0  0  0  0  0  0  0  0  0  0
   -3.4913    0.6665    0.8456 N   0  0  0  0  0  0  0  0  0  0  0  0
    4.1960   -0.7607   -0.3178 N   0  0  0  0  0  0  0  0  0  0  0  0
    4.9336   -1.1733    0.8819 C   0  0  0  0  0  0  0  0  0  0  0  0
    6.4199   -1.1596    0.6163 C   0  0  0  0  0  0  0  0  0  0  0  0
    6.8115    0.1552   -0.0512 C   0  0  0  0  0  0  0  0  0  0  0  0
    6.0206    0.3973   -1.2880 C   0  0  0  0  0  0  0  0  0  0  0  0
    4.9953   -0.7223   -1.5248 C   0  0  0  0  0  0  0  0  0  0  0  0
    8.2232    0.2736   -0.2312 N   0  0  0  0  0  0  0  0  0  0  0  0
    8.8279   -0.6885   -1.0738 C   0  0  0  0  0  0  0  0  0  0  0  0
    9.5633   -1.6898   -0.2068 C   0  0  0  0  0  0  0  0  0  0  0  0
    9.6882   -0.9817    1.1154 C   0  0  0  0  0  0  0  0  0  0  0  0
    8.9705    0.3394    0.9746 C   0  0  0  0  0  0  0  0  0  0  0  0
    1.2786    0.2534   -3.9436 H   0  0  0  0  0  0  0  0  0  0  0  0
    0.2521    1.7597   -4.2252 H   0  0  0  0  0  0  0  0  0  0  0  0
    1.7405    1.8297   -3.2721 H   0  0  0  0  0  0  0  0  0  0  0  0
    2.6405    0.3088   -2.2572 H   0  0  0  0  0  0  0  0  0  0  0  0
    2.7020   -1.1359    1.8005 H   0  0  0  0  0  0  0  0  0  0  0  0
    0.3661   -0.6318    1.9705 H   0  0  0  0  0  0  0  0  0  0  0  0
   -1.7003    0.8770   -0.8818 H   0  0  0  0  0  0  0  0  0  0  0  0
   -2.5090   -0.7756    4.1686 H   0  0  0  0  0  0  0  0  0  0  0  0
   -6.4448    0.7483    2.2946 H   0  0  0  0  0  0  0  0  0  0  0  0
   -4.4875    2.1799   -0.5950 H   0  0  0  0  0  0  0  0  0  0  0  0
   -5.4582    3.3165   -2.4921 H   0  0  0  0  0  0  0  0  0  0  0  0
   -7.9369    3.3599   -2.7309 H   0  0  0  0  0  0  0  0  0  0  0  0
   -9.3145    2.2697   -1.1049 H   0  0  0  0  0  0  0  0  0  0  0  0
   -9.6419   -1.3897    1.6818 H   0  0  0  0  0  0  0  0  0  0  0  0
   -6.8736   -1.6188    0.3769 H   0  0  0  0  0  0  0  0  0  0  0  0
   -7.8590   -2.9107    1.0478 H   0  0  0  0  0  0  0  0  0  0  0  0
   -7.1554   -1.6284    2.1419 H   0  0  0  0  0  0  0  0  0  0  0  0
   -8.6222   -1.3689   -1.1571 H   0  0  0  0  0  0  0  0  0  0  0  0
  -10.1824   -0.5193   -0.6655 H   0  0  0  0  0  0  0  0  0  0  0  0
   -9.9573   -2.2694   -0.3724 H   0  0  0  0  0  0  0  0  0  0  0  0
    4.6355   -2.2205    1.0843 H   0  0  0  0  0  0  0  0  0  0  0  0
    4.6564   -0.5745    1.7660 H   0  0  0  0  0  0  0  0  0  0  0  0
    6.9138   -1.2598    1.6106 H   0  0  0  0  0  0  0  0  0  0  0  0
    6.7068   -2.0371    0.0389 H   0  0  0  0  0  0  0  0  0  0  0  0
    6.5190    0.9496    0.6967 H   0  0  0  0  0  0  0  0  0  0  0  0
    5.4138    1.3290   -1.2316 H   0  0  0  0  0  0  0  0  0  0  0  0
    6.6594    0.5251   -2.2015 H   0  0  0  0  0  0  0  0  0  0  0  0
    5.5071   -1.7091   -1.5693 H   0  0  0  0  0  0  0  0  0  0  0  0
    4.4546   -0.5000   -2.4387 H   0  0  0  0  0  0  0  0  0  0  0  0
    9.5960   -0.1824   -1.6990 H   0  0  0  0  0  0  0  0  0  0  0  0
    8.1431   -1.1934   -1.7799 H   0  0  0  0  0  0  0  0  0  0  0  0
    9.0162   -2.6556   -0.1333 H   0  0  0  0  0  0  0  0  0  0  0  0
   10.5501   -1.9363   -0.6537 H   0  0  0  0  0  0  0  0  0  0  0  0
    9.3099   -1.5809    1.9603 H   0  0  0  0  0  0  0  0  0  0  0  0
   10.7892   -0.8438    1.3002 H   0  0  0  0  0  0  0  0  0  0  0  0
    9.7787    1.1139    0.8224 H   0  0  0  0  0  0  0  0  0  0  0  0
    8.4248    0.6477    1.8661 H   0  0  0  0  0  0  0  0  0  0  0  0
  1  2  1  0
  2  3  1  0
  3  4  2  0
  4  5  1  0
  5  6  2  0
  6  7  1  0
  7  8  2  0
  8  9  1  0
  9 10  1  0
 10 11  2  0
 11 12  1  0
 12 13  2  0
 13 14  1  0
 13 15  1  0
 15 16  1  0
 16 17  1  0
 17 18  2  0
 18 19  1  0
 19 20  2  0
 20 21  1  0
 21 22  2  0
 22 23  1  0
 23 24  2  0
 23 25  2  0
 23 26  1  0
 26 27  1  0
 26 28  1  0
 15 29  2  0
  5 30  1  0
 30 31  1  0
 31 32  1  0
 32 33  1  0
 33 34  1  0
 34 35  1  0
 33 36  1  0
 36 37  1  0
 37 38  1  0
 38 39  1  0
 39 40  1  0
  8  3  1  0
 29 10  1  0
 35 30  1  0
 40 36  1  0
 22 17  1  0
  1 41  1  0
  1 42  1  0
  1 43  1  0
  4 44  1  0
  6 45  1  0
  7 46  1  0
  9 47  1  0
 12 48  1  0
 16 49  1  0
 18 50  1  0
 19 51  1  0
 20 52  1  0
 21 53  1  0
 26 54  1  0
 27 55  1  0
 27 56  1  0
 27 57  1  0
 28 58  1  0
 28 59  1  0
 28 60  1  0
 31 61  1  0
 31 62  1  0
 32 63  1  0
 32 64  1  0
 33 65  1  0
 34 66  1  0
 34 67  1  0
 35 68  1  0
 35 69  1  0
 37 70  1  0
 37 71  1  0
 38 72  1  0
 38 73  1  0
 39 74  1  0
 39 75  1  0
 40 76  1  0
 40 77  1  0
M  END
$$$$
[H]c1nc(N2C([H])([H])C([H])([H])[C@]([H])(Oc3c([H])c([H])c(C#N)c([H])c3[H])[C@]([H])(C([H])([H])[H])C2([H])[H])c2c([H])c([H])n([H])c2n1
     RDKit          3D

 44 47  0  0  0  0  0  0  0  0999 V2000
    0.0349   -1.1323   -1.2050 C   0  0  0  0  0  0  0  0  0  0  0  0
    0.3929   -1.3024    0.2543 C   0  0  2  0  0  0  0  0  0  0  0  0
   -0.8906   -1.4607    1.0354 C   0  0  0  0  0  0  0  0  0  0  0  0
   -1.7889   -0.3417    0.6573 N   0  0  0  0  0  0  0  0  0  0  0  0
   -1.1728    0.9324    0.6022 C   0  0  0  0  0  0  0  0  0  0  0  0
    0.1744    0.9508    1.3241 C   0  0  0  0  0  0  0  0  0  0  0  0
    1.1264   -0.0989    0.8050 C   0  0  2  0  0  0  0  0  0  0  0  0
    1.9939    0.3755   -0.1601 O   0  0  0  0  0  0  0  0  0  0  0  0
    3.3735    0.4364   -0.1228 C   0  0  0  0  0  0  0  0  0  0  0  0
    4.0709    0.9596   -1.2202 C   0  0  0  0  0  0  0  0  0  0  0  0
    5.4440    1.0455   -1.2405 C   0  0  0  0  0  0  0  0  0  0  0  0
    6.2129    0.6196   -0.1775 C   0  0  0  0  0  0  0  0  0  0  0  0
    5.5434    0.1023    0.9101 C   0  0  0  0  0  0  0  0  0  0  0  0
    4.1483    0.0147    0.9315 C   0  0  0  0  0  0  0  0  0  0  0  0
    7.6477    0.7118   -0.2040 C   0  0  0  0  0  0  0  0  0  0  0  0
    8.8000    0.8023   -0.2370 N   0  0  0  0  0  0  0  0  0  0  0  0
   -3.1386   -0.7036    0.4308 C   0  0  0  0  0  0  0  0  0  0  0  0
   -3.5829   -1.9366    0.8074 N   0  0  0  0  0  0  0  0  0  0  0  0
   -4.8295   -2.3590    0.6614 C   0  0  0  0  0  0  0  0  0  0  0  0
   -5.7490   -1.5536    0.1114 N   0  0  0  0  0  0  0  0  0  0  0  0
   -5.3668   -0.3244   -0.2798 C   0  0  0  0  0  0  0  0  0  0  0  0
   -6.0656    0.6841   -0.8631 N   0  0  0  0  0  0  0  0  0  0  0  0
   -5.2892    1.7383   -1.0915 C   0  0  0  0  0  0  0  0  0  0  0  0
   -4.0081    1.4268   -0.6418 C   0  0  0  0  0  0  0  0  0  0  0  0
   -4.0784    0.1483   -0.1435 C   0  0  0  0  0  0  0  0  0  0  0  0
    0.5187   -0.1932   -1.5460 H   0  0  0  0  0  0  0  0  0  0  0  0
   -1.0552   -1.1520   -1.3677 H   0  0  0  0  0  0  0  0  0  0  0  0
    0.5488   -1.9507   -1.7697 H   0  0  0  0  0  0  0  0  0  0  0  0
    1.0315   -2.1858    0.4275 H   0  0  0  0  0  0  0  0  0  0  0  0
   -1.3649   -2.4379    0.8347 H   0  0  0  0  0  0  0  0  0  0  0  0
   -0.6479   -1.3600    2.1103 H   0  0  0  0  0  0  0  0  0  0  0  0
   -0.9589    1.3146   -0.4031 H   0  0  0  0  0  0  0  0  0  0  0  0
   -1.7665    1.7131    1.1442 H   0  0  0  0  0  0  0  0  0  0  0  0
   -0.0034    0.8918    2.4108 H   0  0  0  0  0  0  0  0  0  0  0  0
    0.6246    1.9419    1.1128 H   0  0  0  0  0  0  0  0  0  0  0  0
    1.6989   -0.4537    1.6821 H   0  0  0  0  0  0  0  0  0  0  0  0
    3.4768    1.2934   -2.0522 H   0  0  0  0  0  0  0  0  0  0  0  0
    5.9880    1.4531   -2.0953 H   0  0  0  0  0  0  0  0  0  0  0  0
    6.1491   -0.2307    1.7418 H   0  0  0  0  0  0  0  0  0  0  0  0
    3.6848   -0.3994    1.8111 H   0  0  0  0  0  0  0  0  0  0  0  0
   -5.1476   -3.3629    0.9791 H   0  0  0  0  0  0  0  0  0  0  0  0
   -7.0923    0.6404   -1.1051 H   0  0  0  0  0  0  0  0  0  0  0  0
   -5.5511    2.6830   -1.5386 H   0  0  0  0  0  0  0  0  0  0  0  0
   -3.1362    2.0598   -0.6835 H   0  0  0  0  0  0  0  0  0  0  0  0
  1  2  1  0
  2  3  1  0
  3  4  1  0
  4  5  1  0
  5  6  1  0
  6  7  1  0
  7  8  1  0
  8  9  1  0
  9 10  2  0
 10 11  1  0
 11 12  2  0
 12 13  1  0
 13 14  2  0
 12 15  1  0
 15 16  3  0
  4 17  1  0
 17 18  2  0
 18 19  1  0
 19 20  2  0
 20 21  1  0
 21 22  1  0
 22 23  1  0
 23 24  2  0
 24 25  1  0
  7  2  1  0
 14  9  1  0
 25 17  1  0
 25 21  2  0
  1 26  1  0
  1 27  1  0
  1 28  1  0
  2 29  1  6
  3 30  1  0
  3 31  1  0
  5 32  1  0
  5 33  1  0
  6 34  1  0
  6 35  1  0
  7 36  1  1
 10 37  1  0
 11 38  1  0
 13 39  1  0
 14 40  1  0
 19 41  1  0
 22 42  1  0
 23 43  1  0
 24 44  1  0
M  END
$$$$
[H]c1c([H])c(S(=O)(=O)N2C([H])([H])[C@@]3([H])[C@]([H])(c4c([H])n([H])c5c([H])c([H])c(C(F)(F)F)c([H])c45)C([H])([H])[C@@]23[H])c([H])c([H])c1OC([H])([H])[H]
     RDKit          3D

 49 53  0  0  0  0  0  0  0  0999 V2000
    8.7270   -1.0306    0.5449 C   0  0  0  0  0  0  0  0  0  0  0  0
    7.8425   -0.0548    0.0501 O   0  0  0  0  0  0  0  0  0  0  0  0
    6.4629   -0.2433   -0.0295 C   0  0  0  0  0  0  0  0  0  0  0  0
    5.7100    0.7772   -0.5588 C   0  0  0  0  0  0  0  0  0  0  0  0
    4.3413    0.6171   -0.6494 C   0  0  0  0  0  0  0  0  0  0  0  0
    3.6829   -0.5173   -0.2334 C   0  0  0  0  0  0  0  0  0  0  0  0
    4.4714   -1.5534    0.3087 C   0  0  0  0  0  0  0  0  0  0  0  0
    5.8201   -1.3883    0.3911 C   0  0  0  0  0  0  0  0  0  0  0  0
    2.0070   -0.8621   -0.4582 S   0  0  0  0  0  0  0  0  0  0  0  0
    1.6251   -1.9168    0.6048 O   0  0  0  0  0  0  0  0  0  0  0  0
    1.7821   -1.5817   -1.8217 O   0  0  0  0  0  0  0  0  0  0  0  0
    0.9139    0.3947   -0.3518 N   0  0  0  0  0  0  0  0  0  0  0  0
    0.6651    1.2023    0.7675 C   0  0  0  0  0  0  0  0  0  0  0  0
   -0.7874    0.8278    0.8765 C   0  0  1  0  0  0  0  0  0  0  0  0
   -1.7513    1.5079    0.0755 C   0  0  1  0  0  0  0  0  0  0  0  0
   -1.3551    0.7980   -1.1448 C   0  0  0  0  0  0  0  0  0  0  0  0
   -0.4668   -0.0643   -0.2866 C   0  0  1  0  0  0  0  0  0  0  0  0
   -3.1450    1.6504    0.3727 C   0  0  0  0  0  0  0  0  0  0  0  0
   -3.7692    2.8261    0.7747 C   0  0  0  0  0  0  0  0  0  0  0  0
   -5.1237    2.6508    0.7686 N   0  0  0  0  0  0  0  0  0  0  0  0
   -5.4344    1.4269    0.3889 C   0  0  0  0  0  0  0  0  0  0  0  0
   -6.6296    0.7230    0.2582 C   0  0  0  0  0  0  0  0  0  0  0  0
   -6.6414   -0.6228   -0.1159 C   0  0  0  0  0  0  0  0  0  0  0  0
   -5.4281   -1.2306   -0.3485 C   0  0  0  0  0  0  0  0  0  0  0  0
   -4.2182   -0.5296   -0.2178 C   0  0  0  0  0  0  0  0  0  0  0  0
   -4.2159    0.7931    0.1417 C   0  0  0  0  0  0  0  0  0  0  0  0
   -5.2786   -2.6674   -0.6862 C   0  0  0  0  0  0  0  0  0  0  0  0
   -5.1830   -3.3286    0.5674 F   0  0  0  0  0  0  0  0  0  0  0  0
   -6.4183   -3.1583   -1.2737 F   0  0  0  0  0  0  0  0  0  0  0  0
   -4.1475   -2.9446   -1.4286 F   0  0  0  0  0  0  0  0  0  0  0  0
    8.9952   -1.6871   -0.3252 H   0  0  0  0  0  0  0  0  0  0  0  0
    8.2850   -1.6634    1.3346 H   0  0  0  0  0  0  0  0  0  0  0  0
    9.6903   -0.6269    0.9143 H   0  0  0  0  0  0  0  0  0  0  0  0
    6.1650    1.6952   -0.8980 H   0  0  0  0  0  0  0  0  0  0  0  0
    3.7208    1.4234   -1.0624 H   0  0  0  0  0  0  0  0  0  0  0  0
    4.0210   -2.4786    0.6517 H   0  0  0  0  0  0  0  0  0  0  0  0
    6.4354   -2.1787    0.8063 H   0  0  0  0  0  0  0  0  0  0  0  0
    0.8158    2.2929    0.4894 H   0  0  0  0  0  0  0  0  0  0  0  0
    1.2986    1.0011    1.6660 H   0  0  0  0  0  0  0  0  0  0  0  0
   -0.9886    0.3619    1.8339 H   0  0  0  0  0  0  0  0  0  0  0  0
   -1.3230    2.6071   -0.0496 H   0  0  0  0  0  0  0  0  0  0  0  0
   -0.7272    1.3739   -1.8800 H   0  0  0  0  0  0  0  0  0  0  0  0
   -2.1032    0.2474   -1.7515 H   0  0  0  0  0  0  0  0  0  0  0  0
   -0.6859   -1.1124   -0.2371 H   0  0  0  0  0  0  0  0  0  0  0  0
   -3.3372    3.7732    1.0766 H   0  0  0  0  0  0  0  0  0  0  0  0
   -5.8299    3.4091    1.0268 H   0  0  0  0  0  0  0  0  0  0  0  0
   -7.5743    1.2373    0.4348 H   0  0  0  0  0  0  0  0  0  0  0  0
   -7.5941   -1.1348   -0.2114 H   0  0  0  0  0  0  0  0  0  0  0  0
   -3.3214   -1.0414   -0.3902 H   0  0  0  0  0  0  0  0  0  0  0  0
  1  2  1  0
  2  3  1  0
  3  4  2  0
  4  5  1  0
  5  6  2  0
  6  7  1  0
  7  8  2  0
  6  9  1  0
  9 10  2  0
  9 11  2  0
  9 12  1  0
 12 13  1  0
 13 14  1  0
 14 15  1  0
 15 16  1  0
 16 17  1  0
 15 18  1  0
 18 19  2  0
 19 20  1  0
 20 21  1  0
 21 22  2  0
 22 23  1  0
 23 24  2  0
 24 25  1  0
 25 26  2  0
 24 27  1  0
 27 28  1  0
 27 29  1  0
 27 30  1  0
  8  3  1  0
 17 12  1  0
 26 18  1  0
 17 14  1  0
 26 21  1  0
  1 31  1  0
  1 32  1  0
  1 33  1  0
  4 34  1  0
  5 35  1  0
  7 36  1  0
  8 37  1  0
 13 38  1  0
 13 39  1  0
 14 40  1  1
 15 41  1  6
 16 42  1  0
 16 43  1  0
 17 44  1  1
 19 45  1  0
 20 46  1  0
 22 47  1  0
 23 48  1  0
 25 49  1  0
M  END
$$$$
[H]c1c([H])c(N([H])C(=O)N([H])C2([H])C([H])([H])C([H])([H])N(C(=O)N([H])C3([H])C([H])([H])C([H])([H])N(S(=O)(=O)C([H])([H])[H])C([H])([H])C3([H])[H])C([H])([H])C2([H])[H])c([H])c([H])c1OC(F)(F)F
     RDKit          3D

 62 64  0  0  0  0  0  0  0  0999 V2000
    9.7022    1.2887   -0.0757 C   0  0  0  0  0  0  0  0  0  0  0  0
    8.6261    0.2011   -0.9737 S   0  0  0  0  0  0  0  0  0  0  0  0
    8.9568   -1.2094   -0.5589 O   0  0  0  0  0  0  0  0  0  0  0  0
    8.9648    0.3296   -2.4158 O   0  0  0  0  0  0  0  0  0  0  0  0
    6.9825    0.4740   -0.6399 N   0  0  0  0  0  0  0  0  0  0  0  0
    6.6425    0.2575    0.7538 C   0  0  0  0  0  0  0  0  0  0  0  0
    5.1947    0.7086    0.9506 C   0  0  0  0  0  0  0  0  0  0  0  0
    4.4419    0.5536   -0.3680 C   0  0  0  0  0  0  0  0  0  0  0  0
    4.9337    1.6568   -1.2813 C   0  0  0  0  0  0  0  0  0  0  0  0
    6.4490    1.7048   -1.1461 C   0  0  0  0  0  0  0  0  0  0  0  0
    3.0259    0.5446   -0.1788 N   0  0  0  0  0  0  0  0  0  0  0  0
    2.2009   -0.5526   -0.5101 C   0  0  0  0  0  0  0  0  0  0  0  0
    2.7606   -1.5646   -0.9966 O   0  0  0  0  0  0  0  0  0  0  0  0
    0.8116   -0.5507   -0.3185 N   0  0  0  0  0  0  0  0  0  0  0  0
    0.0466   -1.7425   -0.6962 C   0  0  0  0  0  0  0  0  0  0  0  0
   -0.6730   -2.2867    0.5338 C   0  0  0  0  0  0  0  0  0  0  0  0
   -1.5111   -1.1570    1.0717 C   0  0  0  0  0  0  0  0  0  0  0  0
   -0.6317   -0.0044    1.4938 C   0  0  0  0  0  0  0  0  0  0  0  0
    0.0374    0.5443    0.2331 C   0  0  0  0  0  0  0  0  0  0  0  0
   -2.5639   -0.7979    0.1833 N   0  0  0  0  0  0  0  0  0  0  0  0
   -3.9512   -0.8873    0.5840 C   0  0  0  0  0  0  0  0  0  0  0  0
   -4.1286   -1.2961    1.7495 O   0  0  0  0  0  0  0  0  0  0  0  0
   -4.9794   -0.5384   -0.2818 N   0  0  0  0  0  0  0  0  0  0  0  0
   -6.3606   -0.5582   -0.0509 C   0  0  0  0  0  0  0  0  0  0  0  0
   -6.9513   -0.7855    1.1611 C   0  0  0  0  0  0  0  0  0  0  0  0
   -8.3426   -0.7958    1.2892 C   0  0  0  0  0  0  0  0  0  0  0  0
   -9.1777   -0.5816    0.2221 C   0  0  0  0  0  0  0  0  0  0  0  0
  -10.5708   -0.5977    0.3774 O   0  0  0  0  0  0  0  0  0  0  0  0
  -11.1549    0.6731    0.6897 C   0  0  0  0  0  0  0  0  0  0  0  0
  -12.5241    0.5256    0.8190 F   0  0  0  0  0  0  0  0  0  0  0  0
  -10.8878    1.5653   -0.3442 F   0  0  0  0  0  0  0  0  0  0  0  0
  -10.6735    1.1893    1.8710 F   0  0  0  0  0  0  0  0  0  0  0  0
   -8.5983   -0.3522   -0.9977 C   0  0  0  0  0  0  0  0  0  0  0  0
   -7.2344   -0.3418   -1.1251 C   0  0  0  0  0  0  0  0  0  0  0  0
    9.3083    1.4511    0.9477 H   0  0  0  0  0  0  0  0  0  0  0  0
    9.7550    2.3083   -0.5383 H   0  0  0  0  0  0  0  0  0  0  0  0
   10.7426    0.9031   -0.0819 H   0  0  0  0  0  0  0  0  0  0  0  0
    7.3103    0.7609    1.4578 H   0  0  0  0  0  0  0  0  0  0  0  0
    6.6569   -0.8313    0.9323 H   0  0  0  0  0  0  0  0  0  0  0  0
    5.1984    1.7796    1.2372 H   0  0  0  0  0  0  0  0  0  0  0  0
    4.6584    0.1160    1.7007 H   0  0  0  0  0  0  0  0  0  0  0  0
    4.8096   -0.4210   -0.8054 H   0  0  0  0  0  0  0  0  0  0  0  0
    4.6342    1.4198   -2.3141 H   0  0  0  0  0  0  0  0  0  0  0  0
    4.4692    2.6010   -0.9015 H   0  0  0  0  0  0  0  0  0  0  0  0
    6.8513    1.8663   -2.1685 H   0  0  0  0  0  0  0  0  0  0  0  0
    6.7530    2.5879   -0.5451 H   0  0  0  0  0  0  0  0  0  0  0  0
    2.5879    1.3947    0.2264 H   0  0  0  0  0  0  0  0  0  0  0  0
    0.7267   -2.5393   -1.0529 H   0  0  0  0  0  0  0  0  0  0  0  0
   -0.6846   -1.5263   -1.4771 H   0  0  0  0  0  0  0  0  0  0  0  0
   -1.2665   -3.1381    0.2022 H   0  0  0  0  0  0  0  0  0  0  0  0
    0.0898   -2.6136    1.2468 H   0  0  0  0  0  0  0  0  0  0  0  0
   -1.9734   -1.5311    2.0339 H   0  0  0  0  0  0  0  0  0  0  0  0
   -1.2292    0.8444    1.8933 H   0  0  0  0  0  0  0  0  0  0  0  0
    0.0938   -0.3657    2.2189 H   0  0  0  0  0  0  0  0  0  0  0  0
   -0.7856    0.8342   -0.4810 H   0  0  0  0  0  0  0  0  0  0  0  0
    0.6083    1.4281    0.4954 H   0  0  0  0  0  0  0  0  0  0  0  0
   -2.3209   -0.4606   -0.7841 H   0  0  0  0  0  0  0  0  0  0  0  0
   -4.6694   -0.2083   -1.2526 H   0  0  0  0  0  0  0  0  0  0  0  0
   -6.3836   -0.9571    2.0498 H   0  0  0  0  0  0  0  0  0  0  0  0
   -8.7722   -0.9798    2.2654 H   0  0  0  0  0  0  0  0  0  0  0  0
   -9.2166   -0.1803   -1.8533 H   0  0  0  0  0  0  0  0  0  0  0  0
   -6.8143   -0.1597   -2.0962 H   0  0  0  0  0  0  0  0  0  0  0  0
  1  2  1  0
  2  3  2  0
  2  4  2  0
  2  5  1  0
  5  6  1  0
  6  7  1  0
  7  8  1  0
  8  9  1  0
  9 10  1  0
  8 11  1  0
 11 12  1  0
 12 13  2  0
 12 14  1  0
 14 15  1  0
 15 16  1  0
 16 17  1  0
 17 18  1  0
 18 19  1  0
 17 20  1  0
 20 21  1  0
 21 22  2  0
 21 23  1  0
 23 24  1  0
 24 25  2  0
 25 26  1  0
 26 27  2  0
 27 28  1  0
 28 29  1  0
 29 30  1  0
 29 31  1  0
 29 32  1  0
 27 33  1  0
 33 34  2  0
 10  5  1  0
 19 14  1  0
 34 24  1  0
  1 35  1  0
  1 36  1  0
  1 37  1  0
  6 38  1  0
  6 39  1  0
  7 40  1  0
  7 41  1  0
  8 42  1  0
  9 43  1  0
  9 44  1  0
 10 45  1  0
 10 46  1  0
 11 47  1  0
 15 48  1  0
 15 49  1  0
 16 50  1  0
 16 51  1  0
 17 52  1  0
 18 53  1  0
 18 54  1  0
 19 55  1  0
 19 56  1  0
 20 57  1  0
 23 58  1  0
 25 59  1  0
 26 60  1  0
 33 61  1  0
 34 62  1  0
M  END
$$$$
[H]N=C(N([H])[H])N([H])C([H])([H])C([H])([H])C([H])([H])[C@]([H])(C(=O)N([H])[C@]([H])(C(=O)N([H])[C@]([H])(C(=O)N([H])[C@]([H])(C(=O)N([H])[H])C([H])([H])C([H])(C([H])([H])[H])C([H])([H])[H])C([H])([H])c1c([H])c([H])c([H])c([H])c1[H])C([H])([H])c1c([H])c([H])c([H])c([H])c1[H])N([H])C(=O)[C@@]([H])(N([H])C(=O)[C@]([H])(N([H])C(=O)OC([H])([H])c1c([H])c([H])c([H])c([H])c1[H])C([H])([H])c1c([H])c([H])c([H])c([H])c1[H])C([H])([H])c1c([H])n([H])c2c([H])c([H])c([H])c([H])c12
     RDKit          2D

146151  0  0  0  0  0  0  0  0999 V2000
   -1.3590   15.7100    0.0000 C   0  0  0  0  0  0  0  0  0  0  0  0
   -2.4737   14.7063    0.0000 C   0  0  0  0  0  0  0  0  0  0  0  0
   -3.5884   13.7026    0.0000 C   0  0  0  0  0  0  0  0  0  0  0  0
   -1.4700   13.5916    0.0000 C   0  0  0  0  0  0  0  0  0  0  0  0
   -0.4663   12.4769    0.0000 C   0  0  0  0  0  0  0  0  0  0  0  0
   -1.5810   11.4732    0.0000 N   0  0  0  0  0  0  0  0  0  0  0  0
   -1.2691   10.0060    0.0000 C   0  0  0  0  0  0  0  0  0  0  0  0
   -0.3332    9.7018    0.0000 O   0  0  0  0  0  0  0  0  0  0  0  0
   -2.3839    9.0023    0.0000 C   0  0  0  0  0  0  0  0  0  0  0  0
   -3.4986    7.9986    0.0000 C   0  0  0  0  0  0  0  0  0  0  0  0
   -4.6133    6.9949    0.0000 C   0  0  0  0  0  0  0  0  0  0  0  0
   -4.3014    5.5277    0.0000 C   0  0  0  0  0  0  0  0  0  0  0  0
   -5.4161    4.5240    0.0000 C   0  0  0  0  0  0  0  0  0  0  0  0
   -6.8427    4.9875    0.0000 C   0  0  0  0  0  0  0  0  0  0  0  0
   -7.1546    6.4547    0.0000 C   0  0  0  0  0  0  0  0  0  0  0  0
   -6.0399    7.4584    0.0000 C   0  0  0  0  0  0  0  0  0  0  0  0
   -1.3802    7.8876    0.0000 N   0  0  0  0  0  0  0  0  0  0  0  0
    0.0871    8.1994    0.0000 C   0  0  0  0  0  0  0  0  0  0  0  0
    0.5490    7.3304    0.0000 O   0  0  0  0  0  0  0  0  0  0  0  0
    0.5506    9.6260    0.0000 C   0  0  0  0  0  0  0  0  0  0  0  0
    1.0141   11.0526    0.0000 C   0  0  0  0  0  0  0  0  0  0  0  0
    1.4776   12.4792    0.0000 C   0  0  0  0  0  0  0  0  0  0  0  0
    2.9449   12.7910    0.0000 C   0  0  0  0  0  0  0  0  0  0  0  0
    3.4084   14.2176    0.0000 C   0  0  0  0  0  0  0  0  0  0  0  0
    2.4047   15.3323    0.0000 C   0  0  0  0  0  0  0  0  0  0  0  0
    0.9375   15.0205    0.0000 C   0  0  0  0  0  0  0  0  0  0  0  0
    0.4739   13.5939    0.0000 C   0  0  0  0  0  0  0  0  0  0  0  0
    1.9772    9.1625    0.0000 N   0  0  0  0  0  0  0  0  0  0  0  0
    2.2890    7.6953    0.0000 C   0  0  0  0  0  0  0  0  0  0  0  0
    1.4764    6.9636    0.0000 O   0  0  0  0  0  0  0  0  0  0  0  0
    3.7156    7.2317    0.0000 C   0  0  0  0  0  0  0  0  0  0  0  0
    5.1422    6.7682    0.0000 C   0  0  0  0  0  0  0  0  0  0  0  0
    6.5688    6.3047    0.0000 C   0  0  0  0  0  0  0  0  0  0  0  0
    7.9954    5.8412    0.0000 C   0  0  0  0  0  0  0  0  0  0  0  0
    9.4220    5.3776    0.0000 N   0  0  0  0  0  0  0  0  0  0  0  0
   10.5367    6.3813    0.0000 C   0  0  0  0  0  0  0  0  0  0  0  0
   10.2248    7.8485    0.0000 N   0  0  0  0  0  0  0  0  0  0  0  0
   11.9633    5.9178    0.0000 N   0  0  0  0  0  0  0  0  0  0  0  0
    3.2521    5.8051    0.0000 N   0  0  0  0  0  0  0  0  0  0  0  0
    1.7849    5.4933    0.0000 C   0  0  0  0  0  0  0  0  0  0  0  0
    0.6656    6.2481    0.0000 O   0  0  0  0  0  0  0  0  0  0  0  0
    1.3213    4.0667    0.0000 C   0  0  0  0  0  0  0  0  0  0  0  0
    0.8578    2.6401    0.0000 C   0  0  0  0  0  0  0  0  0  0  0  0
    0.3943    1.2135    0.0000 C   0  0  0  0  0  0  0  0  0  0  0  0
    1.2760    0.0000    0.0000 C   0  0  0  0  0  0  0  0  0  0  0  0
    0.3943   -1.2135    0.0000 N   0  0  0  0  0  0  0  0  0  0  0  0
   -1.0323   -0.7500    0.0000 C   0  0  0  0  0  0  0  0  0  0  0  0
   -2.3313   -1.5000    0.0000 C   0  0  0  0  0  0  0  0  0  0  0  0
   -3.6304   -0.7500    0.0000 C   0  0  0  0  0  0  0  0  0  0  0  0
   -3.6304    0.7500    0.0000 C   0  0  0  0  0  0  0  0  0  0  0  0
   -2.3313    1.5000    0.0000 C   0  0  0  0  0  0  0  0  0  0  0  0
   -1.0323    0.7500    0.0000 C   0  0  0  0  0  0  0  0  0  0  0  0
    2.7479    3.6032    0.0000 N   0  0  0  0  0  0  0  0  0  0  0  0
    3.8627    4.6069    0.0000 C   0  0  0  0  0  0  0  0  0  0  0  0
    3.8905    5.4035    0.0000 O   0  0  0  0  0  0  0  0  0  0  0  0
    5.2892    4.1433    0.0000 C   0  0  0  0  0  0  0  0  0  0  0  0
    6.7158    3.6798    0.0000 C   0  0  0  0  0  0  0  0  0  0  0  0
    8.1424    3.2163    0.0000 C   0  0  0  0  0  0  0  0  0  0  0  0
    8.4543    1.7491    0.0000 C   0  0  0  0  0  0  0  0  0  0  0  0
    9.8809    1.2855    0.0000 C   0  0  0  0  0  0  0  0  0  0  0  0
   10.9956    2.2892    0.0000 C   0  0  0  0  0  0  0  0  0  0  0  0
   10.6837    3.7565    0.0000 C   0  0  0  0  0  0  0  0  0  0  0  0
    9.2571    4.2200    0.0000 C   0  0  0  0  0  0  0  0  0  0  0  0
    5.7528    5.5699    0.0000 N   0  0  0  0  0  0  0  0  0  0  0  0
    7.2200    5.8818    0.0000 C   0  0  0  0  0  0  0  0  0  0  0  0
    7.6835    7.3084    0.0000 O   0  0  0  0  0  0  0  0  0  0  0  0
    8.2237    4.7671    0.0000 O   0  0  0  0  0  0  0  0  0  0  0  0
    9.6909    5.0789    0.0000 C   0  0  0  0  0  0  0  0  0  0  0  0
   11.1581    5.3908    0.0000 C   0  0  0  0  0  0  0  0  0  0  0  0
   12.1618    4.2761    0.0000 C   0  0  0  0  0  0  0  0  0  0  0  0
   13.6290    4.5880    0.0000 C   0  0  0  0  0  0  0  0  0  0  0  0
   14.0926    6.0145    0.0000 C   0  0  0  0  0  0  0  0  0  0  0  0
   13.0889    7.1293    0.0000 C   0  0  0  0  0  0  0  0  0  0  0  0
   11.6216    6.8174    0.0000 C   0  0  0  0  0  0  0  0  0  0  0  0
    0.5374   11.3622    0.0000 C   0  0  0  0  0  0  0  0  0  0  0  0
    0.0739    9.9356    0.0000 N   0  0  0  0  0  0  0  0  0  0  0  0
    2.0046   11.6740    0.0000 O   0  0  0  0  0  0  0  0  0  0  0  0
   -0.3749   16.8421    0.0000 H   0  0  0  0  0  0  0  0  0  0  0  0
   -2.3627   16.8247    0.0000 H   0  0  0  0  0  0  0  0  0  0  0  0
   -0.2269   14.7260    0.0000 H   0  0  0  0  0  0  0  0  0  0  0  0
   -3.4774   15.8210    0.0000 H   0  0  0  0  0  0  0  0  0  0  0  0
   -4.7031   12.6989    0.0000 H   0  0  0  0  0  0  0  0  0  0  0  0
   -4.5921   14.8173    0.0000 H   0  0  0  0  0  0  0  0  0  0  0  0
   -2.8843   12.3782    0.0000 H   0  0  0  0  0  0  0  0  0  0  0  0
   -2.5847   12.5879    0.0000 H   0  0  0  0  0  0  0  0  0  0  0  0
   -0.2412   14.4519    0.0000 H   0  0  0  0  0  0  0  0  0  0  0  0
    0.3724   13.7205    0.0000 H   0  0  0  0  0  0  0  0  0  0  0  0
   -3.0774   11.5777    0.0000 H   0  0  0  0  0  0  0  0  0  0  0  0
   -3.3876   10.1170    0.0000 H   0  0  0  0  0  0  0  0  0  0  0  0
   -2.6382    6.7698    0.0000 H   0  0  0  0  0  0  0  0  0  0  0  0
   -4.5023    9.1133    0.0000 H   0  0  0  0  0  0  0  0  0  0  0  0
   -2.8748    5.0641    0.0000 H   0  0  0  0  0  0  0  0  0  0  0  0
   -5.1043    3.0567    0.0000 H   0  0  0  0  0  0  0  0  0  0  0  0
   -7.9574    3.9838    0.0000 H   0  0  0  0  0  0  0  0  0  0  0  0
   -8.5812    6.9182    0.0000 H   0  0  0  0  0  0  0  0  0  0  0  0
   -6.3517    8.9256    0.0000 H   0  0  0  0  0  0  0  0  0  0  0  0
   -1.6663    6.4151    0.0000 H   0  0  0  0  0  0  0  0  0  0  0  0
   -0.8089   10.2600    0.0000 H   0  0  0  0  0  0  0  0  0  0  0  0
    2.4866   10.7664    0.0000 H   0  0  0  0  0  0  0  0  0  0  0  0
   -0.4125   11.5161    0.0000 H   0  0  0  0  0  0  0  0  0  0  0  0
    3.9486   11.6763    0.0000 H   0  0  0  0  0  0  0  0  0  0  0  0
    4.8756   14.5295    0.0000 H   0  0  0  0  0  0  0  0  0  0  0  0
    2.8682   16.7589    0.0000 H   0  0  0  0  0  0  0  0  0  0  0  0
    0.0771   16.2492    0.0000 H   0  0  0  0  0  0  0  0  0  0  0  0
   -1.0251   13.6463    0.0000 H   0  0  0  0  0  0  0  0  0  0  0  0
    3.2059   10.0228    0.0000 H   0  0  0  0  0  0  0  0  0  0  0  0
    4.1791    8.6583    0.0000 H   0  0  0  0  0  0  0  0  0  0  0  0
    5.6057    8.1948    0.0000 H   0  0  0  0  0  0  0  0  0  0  0  0
    4.8560    5.2958    0.0000 H   0  0  0  0  0  0  0  0  0  0  0  0
    6.8550    7.7771    0.0000 H   0  0  0  0  0  0  0  0  0  0  0  0
    6.4642    4.8083    0.0000 H   0  0  0  0  0  0  0  0  0  0  0  0
    8.6293    7.2006    0.0000 H   0  0  0  0  0  0  0  0  0  0  0  0
    8.0740    4.3432    0.0000 H   0  0  0  0  0  0  0  0  0  0  0  0
    9.9104    3.9594    0.0000 H   0  0  0  0  0  0  0  0  0  0  0  0
   11.3395    8.8522    0.0000 H   0  0  0  0  0  0  0  0  0  0  0  0
    8.7982    8.3121    0.0000 H   0  0  0  0  0  0  0  0  0  0  0  0
   13.2877    6.6219    0.0000 H   0  0  0  0  0  0  0  0  0  0  0  0
    4.3842    4.8211    0.0000 H   0  0  0  0  0  0  0  0  0  0  0  0
   -0.1052    4.5302    0.0000 H   0  0  0  0  0  0  0  0  0  0  0  0
    2.2173    2.0061    0.0000 H   0  0  0  0  0  0  0  0  0  0  0  0
   -0.5688    3.1036    0.0000 H   0  0  0  0  0  0  0  0  0  0  0  0
    2.7760    0.0000    0.0000 H   0  0  0  0  0  0  0  0  0  0  0  0
    0.8578   -2.6401    0.0000 H   0  0  0  0  0  0  0  0  0  0  0  0
   -2.3313   -3.0000    0.0000 H   0  0  0  0  0  0  0  0  0  0  0  0
   -4.9294   -1.5000    0.0000 H   0  0  0  0  0  0  0  0  0  0  0  0
   -4.9294    1.5000    0.0000 H   0  0  0  0  0  0  0  0  0  0  0  0
   -2.3313    3.0000    0.0000 H   0  0  0  0  0  0  0  0  0  0  0  0
    3.2363    2.1849    0.0000 H   0  0  0  0  0  0  0  0  0  0  0  0
    4.8257    2.7168    0.0000 H   0  0  0  0  0  0  0  0  0  0  0  0
    7.6599    4.8455    0.0000 H   0  0  0  0  0  0  0  0  0  0  0  0
    6.2523    2.2532    0.0000 H   0  0  0  0  0  0  0  0  0  0  0  0
    7.3396    0.7454    0.0000 H   0  0  0  0  0  0  0  0  0  0  0  0
   10.1927   -0.1817    0.0000 H   0  0  0  0  0  0  0  0  0  0  0  0
   12.4222    1.8257    0.0000 H   0  0  0  0  0  0  0  0  0  0  0  0
   12.0082    4.4606    0.0000 H   0  0  0  0  0  0  0  0  0  0  0  0
    9.3096    5.7191    0.0000 H   0  0  0  0  0  0  0  0  0  0  0  0
    5.0486    6.8944    0.0000 H   0  0  0  0  0  0  0  0  0  0  0  0
    9.3790    6.5462    0.0000 H   0  0  0  0  0  0  0  0  0  0  0  0
   10.5080    3.8210    0.0000 H   0  0  0  0  0  0  0  0  0  0  0  0
   11.6983    2.8495    0.0000 H   0  0  0  0  0  0  0  0  0  0  0  0
   14.6327    3.4732    0.0000 H   0  0  0  0  0  0  0  0  0  0  0  0
   15.5598    6.3264    0.0000 H   0  0  0  0  0  0  0  0  0  0  0  0
   13.5524    8.5558    0.0000 H   0  0  0  0  0  0  0  0  0  0  0  0
   10.9175    8.1419    0.0000 H   0  0  0  0  0  0  0  0  0  0  0  0
    1.0776    8.8209    0.0000 H   0  0  0  0  0  0  0  0  0  0  0  0
   -1.3444    9.4472    0.0000 H   0  0  0  0  0  0  0  0  0  0  0  0
  1  2  1  0
  2  3  1  0
  2  4  1  0
  4  5  1  0
  5  6  1  0
  6  7  1  0
  7  8  2  0
  7  9  1  0
  9 10  1  0
 10 11  1  0
 11 12  2  0
 12 13  1  0
 13 14  2  0
 14 15  1  0
 15 16  2  0
  9 17  1  0
 17 18  1  0
 18 19  2  0
 18 20  1  0
 20 21  1  0
 21 22  1  0
 22 23  2  0
 23 24  1  0
 24 25  2  0
 25 26  1  0
 26 27  2  0
 20 28  1  0
 28 29  1  0
 29 30  2  0
 29 31  1  0
 31 32  1  0
 32 33  1  0
 33 34  1  0
 34 35  1  0
 35 36  1  0
 36 37  1  0
 36 38  2  3
 31 39  1  0
 39 40  1  0
 40 41  2  0
 40 42  1  0
 42 43  1  0
 43 44  1  0
 44 45  2  0
 45 46  1  0
 46 47  1  0
 47 48  2  0
 48 49  1  0
 49 50  2  0
 50 51  1  0
 51 52  2  0
 42 53  1  0
 53 54  1  0
 54 55  2  0
 54 56  1  0
 56 57  1  0
 57 58  1  0
 58 59  2  0
 59 60  1  0
 60 61  2  0
 61 62  1  0
 62 63  2  0
 56 64  1  0
 64 65  1  0
 65 66  2  0
 65 67  1  0
 67 68  1  0
 68 69  1  0
 69 70  2  0
 70 71  1  0
 71 72  2  0
 72 73  1  0
 73 74  2  0
  5 75  1  0
 75 76  1  0
 75 77  2  0
 16 11  1  0
 27 22  1  0
 52 44  1  0
 63 58  1  0
 74 69  1  0
 52 47  1  0
  1 78  1  0
  1 79  1  0
  1 80  1  0
  2 81  1  0
  3 82  1  0
  3 83  1  0
  3 84  1  0
  4 85  1  0
  4 86  1  0
  5 87  1  6
  6 88  1  0
  9 89  1  6
 10 90  1  0
 10 91  1  0
 12 92  1  0
 13 93  1  0
 14 94  1  0
 15 95  1  0
 16 96  1  0
 17 97  1  0
 20 98  1  1
 21 99  1  0
 21100  1  0
 23101  1  0
 24102  1  0
 25103  1  0
 26104  1  0
 27105  1  0
 28106  1  0
 31107  1  6
 32108  1  0
 32109  1  0
 33110  1  0
 33111  1  0
 34112  1  0
 34113  1  0
 35114  1  0
 37115  1  0
 37116  1  0
 38117  1  0
 39118  1  0
 42119  1  6
 43120  1  0
 43121  1  0
 45122  1  0
 46123  1  0
 48124  1  0
 49125  1  0
 50126  1  0
 51127  1  0
 53128  1  0
 56129  1  1
 57130  1  0
 57131  1  0
 59132  1  0
 60133  1  0
 61134  1  0
 62135  1  0
 63136  1  0
 64137  1  0
 68138  1  0
 68139  1  0
 70140  1  0
 71141  1  0
 72142  1  0
 73143  1  0
 74144  1  0
 76145  1  0
 76146  1  0
M  END
$$$$
[H]OC(=O)[C@]1([H])O[C@@]([H])(n2c([H])nc3c(N([H])[H])nc([H])nc32)[C@@]([H])(O[H])[C@@]1([H])O[H]
     RDKit          3D

 31 33  0  0  0  0  0  0  0  0999 V2000
    5.1107    1.0733    0.5592 N   0  0  0  0  0  0  0  0  0  0  0  0
    4.0281    0.1512    0.5749 C   0  0  0  0  0  0  0  0  0  0  0  0
    4.1169   -1.0866    1.0893 N   0  0  0  0  0  0  0  0  0  0  0  0
    3.0498   -1.9052    1.0693 C   0  0  0  0  0  0  0  0  0  0  0  0
    1.8560   -1.5291    0.5398 N   0  0  0  0  0  0  0  0  0  0  0  0
    1.7144   -0.3129    0.0170 C   0  0  0  0  0  0  0  0  0  0  0  0
    0.6772    0.2902   -0.5515 N   0  0  0  0  0  0  0  0  0  0  0  0
    1.0992    1.5371   -0.9060 C   0  0  0  0  0  0  0  0  0  0  0  0
    2.3855    1.6779   -0.5499 N   0  0  0  0  0  0  0  0  0  0  0  0
    2.8013    0.5384    0.0305 C   0  0  0  0  0  0  0  0  0  0  0  0
   -0.6632   -0.1683   -0.8002 C   0  0  2  0  0  0  0  0  0  0  0  0
   -1.5905    0.8361   -0.8671 O   0  0  0  0  0  0  0  0  0  0  0  0
   -2.6956    0.4914   -0.1366 C   0  0  2  0  0  0  0  0  0  0  0  0
   -2.6509   -1.0373   -0.0125 C   0  0  2  0  0  0  0  0  0  0  0  0
   -3.3924   -1.5018    1.0359 O   0  0  0  0  0  0  0  0  0  0  0  0
   -1.1393   -1.1743    0.2284 C   0  0  2  0  0  0  0  0  0  0  0  0
   -0.8761   -0.6861    1.5066 O   0  0  0  0  0  0  0  0  0  0  0  0
   -3.9652    0.9566   -0.6913 C   0  0  0  0  0  0  0  0  0  0  0  0
   -3.9812    1.6807   -1.8611 O   0  0  0  0  0  0  0  0  0  0  0  0
   -5.0352    0.6884   -0.0901 O   0  0  0  0  0  0  0  0  0  0  0  0
    5.7137    1.1641   -0.2871 H   0  0  0  0  0  0  0  0  0  0  0  0
    5.2921    1.6549    1.4027 H   0  0  0  0  0  0  0  0  0  0  0  0
    3.1962   -2.8889    1.5023 H   0  0  0  0  0  0  0  0  0  0  0  0
    0.5151    2.3027   -1.3934 H   0  0  0  0  0  0  0  0  0  0  0  0
   -0.6998   -0.7132   -1.7890 H   0  0  0  0  0  0  0  0  0  0  0  0
   -2.5231    0.8663    0.9150 H   0  0  0  0  0  0  0  0  0  0  0  0
   -2.9141   -1.4278   -0.9980 H   0  0  0  0  0  0  0  0  0  0  0  0
   -3.9977   -2.2239    0.6738 H   0  0  0  0  0  0  0  0  0  0  0  0
   -0.7877   -2.1853    0.0527 H   0  0  0  0  0  0  0  0  0  0  0  0
   -0.5307    0.2339    1.5010 H   0  0  0  0  0  0  0  0  0  0  0  0
   -4.1135    2.6974   -1.7645 H   0  0  0  0  0  0  0  0  0  0  0  0
  1  2  1  0
  2  3  2  0
  3  4  1  0
  4  5  2  0
  5  6  1  0
  6  7  1  0
  7  8  1  0
  8  9  2  0
  9 10  1  0
  7 11  1  0
 11 12  1  0
 12 13  1  0
 13 14  1  0
 14 15  1  0
 14 16  1  0
 16 17  1  0
 13 18  1  0
 18 19  1  0
 18 20  2  0
 10  2  1  0
 16 11  1  0
 10  6  2  0
  1 21  1  0
  1 22  1  0
  4 23  1  0
  8 24  1  0
 11 25  1  6
 13 26  1  1
 14 27  1  6
 15 28  1  0
 16 29  1  6
 17 30  1  0
 19 31  1  0
M  END
$$$$
[H]c1c([H])c([C@@]2([H])C([H])([H])N(c3nc4c([H])c(Cl)c([H])c([H])c4n3[H])C([H])([H])[C@]2([H])C(=O)N2C([H])([H])C([H])([H])N(C([H])([H])[H])C([H])([H])C2([H])[H])c([H])c(Cl)c1Cl
     RDKit          3D

 56 60  0  0  0  0  0  0  0  0999 V2000
   -5.2051   -3.4147    0.7161 C   0  0  0  0  0  0  0  0  0  0  0  0
   -4.5284   -2.3637    0.0070 N   0  0  0  0  0  0  0  0  0  0  0  0
   -4.3549   -1.1695    0.7470 C   0  0  0  0  0  0  0  0  0  0  0  0
   -2.9353   -0.6384    0.8058 C   0  0  0  0  0  0  0  0  0  0  0  0
   -2.2674   -0.7039   -0.4575 N   0  0  0  0  0  0  0  0  0  0  0  0
   -2.8395   -1.5674   -1.4847 C   0  0  0  0  0  0  0  0  0  0  0  0
   -3.3890   -2.7899   -0.7562 C   0  0  0  0  0  0  0  0  0  0  0  0
   -1.0935    0.0324   -0.7123 C   0  0  0  0  0  0  0  0  0  0  0  0
   -0.5718   -0.0353   -1.8472 O   0  0  0  0  0  0  0  0  0  0  0  0
   -0.4915    0.8637    0.3433 C   0  0  1  0  0  0  0  0  0  0  0  0
    0.4257   -0.0386    1.1889 C   0  0  0  0  0  0  0  0  0  0  0  0
    1.7604    0.3566    0.8000 N   0  0  0  0  0  0  0  0  0  0  0  0
    1.6475    1.8240    0.6877 C   0  0  0  0  0  0  0  0  0  0  0  0
    0.3941    1.9289   -0.1600 C   0  0  2  0  0  0  0  0  0  0  0  0
   -0.1817    3.2847   -0.1448 C   0  0  0  0  0  0  0  0  0  0  0  0
   -0.9519    3.7730    0.8924 C   0  0  0  0  0  0  0  0  0  0  0  0
   -1.4757    5.0605    0.8488 C   0  0  0  0  0  0  0  0  0  0  0  0
   -1.2355    5.8717   -0.2272 C   0  0  0  0  0  0  0  0  0  0  0  0
   -1.9113    7.4783   -0.2222 Cl  0  0  0  0  0  0  0  0  0  0  0  0
   -0.4598    5.4011   -1.2847 C   0  0  0  0  0  0  0  0  0  0  0  0
   -0.1927    6.4873   -2.6274 Cl  0  0  0  0  0  0  0  0  0  0  0  0
    0.0475    4.1191   -1.2175 C   0  0  0  0  0  0  0  0  0  0  0  0
    2.8783   -0.4462    0.5518 C   0  0  0  0  0  0  0  0  0  0  0  0
    3.4375   -0.7156   -0.6705 N   0  0  0  0  0  0  0  0  0  0  0  0
    4.4858   -1.5295   -0.5031 C   0  0  0  0  0  0  0  0  0  0  0  0
    5.3961   -2.1120   -1.3695 C   0  0  0  0  0  0  0  0  0  0  0  0
    6.3966   -2.9311   -0.8904 C   0  0  0  0  0  0  0  0  0  0  0  0
    7.5481   -3.6551   -2.0032 Cl  0  0  0  0  0  0  0  0  0  0  0  0
    6.4695   -3.1552    0.4617 C   0  0  0  0  0  0  0  0  0  0  0  0
    5.5841   -2.5920    1.3370 C   0  0  0  0  0  0  0  0  0  0  0  0
    4.5922   -1.7771    0.8342 C   0  0  0  0  0  0  0  0  0  0  0  0
    3.5967   -1.1064    1.4743 N   0  0  0  0  0  0  0  0  0  0  0  0
   -6.1158   -3.6842    0.1085 H   0  0  0  0  0  0  0  0  0  0  0  0
   -5.6046   -3.0762    1.6970 H   0  0  0  0  0  0  0  0  0  0  0  0
   -4.5913   -4.3414    0.8046 H   0  0  0  0  0  0  0  0  0  0  0  0
   -4.9796   -0.3619    0.2607 H   0  0  0  0  0  0  0  0  0  0  0  0
   -4.7298   -1.2035    1.7947 H   0  0  0  0  0  0  0  0  0  0  0  0
   -3.0783    0.4536    1.0866 H   0  0  0  0  0  0  0  0  0  0  0  0
   -2.3772   -1.0739    1.6573 H   0  0  0  0  0  0  0  0  0  0  0  0
   -3.7146   -1.0125   -1.8867 H   0  0  0  0  0  0  0  0  0  0  0  0
   -2.1096   -1.8389   -2.2680 H   0  0  0  0  0  0  0  0  0  0  0  0
   -2.6334   -3.3215   -0.1645 H   0  0  0  0  0  0  0  0  0  0  0  0
   -3.7356   -3.4833   -1.5488 H   0  0  0  0  0  0  0  0  0  0  0  0
   -1.2564    1.2123    1.0708 H   0  0  0  0  0  0  0  0  0  0  0  0
    0.3298    0.2121    2.2589 H   0  0  0  0  0  0  0  0  0  0  0  0
    0.1985   -1.0911    1.0687 H   0  0  0  0  0  0  0  0  0  0  0  0
    2.5105    2.2181    0.1375 H   0  0  0  0  0  0  0  0  0  0  0  0
    1.5304    2.2487    1.6809 H   0  0  0  0  0  0  0  0  0  0  0  0
    0.7114    1.6975   -1.1992 H   0  0  0  0  0  0  0  0  0  0  0  0
   -1.1252    3.1146    1.7231 H   0  0  0  0  0  0  0  0  0  0  0  0
   -2.0721    5.3615    1.7047 H   0  0  0  0  0  0  0  0  0  0  0  0
    0.6522    3.8145   -2.0787 H   0  0  0  0  0  0  0  0  0  0  0  0
    5.2969   -1.9081   -2.4235 H   0  0  0  0  0  0  0  0  0  0  0  0
    7.2706   -3.8073    0.8094 H   0  0  0  0  0  0  0  0  0  0  0  0
    5.6303   -2.7642    2.4074 H   0  0  0  0  0  0  0  0  0  0  0  0
    3.4178   -1.1047    2.5080 H   0  0  0  0  0  0  0  0  0  0  0  0
  1  2  1  0
  2  3  1  0
  3  4  1  0
  4  5  1  0
  5  6  1  0
  6  7  1  0
  5  8  1  0
  8  9  2  0
  8 10  1  0
 10 11  1  0
 11 12  1  0
 12 13  1  0
 13 14  1  0
 14 15  1  0
 15 16  2  0
 16 17  1  0
 17 18  2  0
 18 19  1  0
 18 20  1  0
 20 21  1  0
 20 22  2  0
 12 23  1  0
 23 24  2  0
 24 25  1  0
 25 26  2  0
 26 27  1  0
 27 28  1  0
 27 29  2  0
 29 30  1  0
 30 31  2  0
 31 32  1  0
  7  2  1  0
 14 10  1  0
 22 15  1  0
 32 23  1  0
 31 25  1  0
  1 33  1  0
  1 34  1  0
  1 35  1  0
  3 36  1  0
  3 37  1  0
  4 38  1  0
  4 39  1  0
  6 40  1  0
  6 41  1  0
  7 42  1  0
  7 43  1  0
 10 44  1  1
 11 45  1  0
 11 46  1  0
 13 47  1  0
 13 48  1  0
 14 49  1  6
 16 50  1  0
 17 51  1  0
 22 52  1  0
 26 53  1  0
 29 54  1  0
 30 55  1  0
 32 56  1  0
M  END
$$$$
[H]c1c([H])c([H])c([C@@]([H])(N([H])S(=O)(=O)c2c([H])c([H])c(OC([H])([H])[H])c([H])c2[H])C([H])([H])c2c([H])n([H])c3c([H])c([H])c([H])c([H])c23)c([H])c1[H]
     RDKit          3D

 51 54  0  0  0  0  0  0  0  0999 V2000
    6.2638   -1.0798    1.7857 C   0  0  0  0  0  0  0  0  0  0  0  0
    5.2036   -0.3301    2.3831 O   0  0  0  0  0  0  0  0  0  0  0  0
    4.3492    0.3485    1.5210 C   0  0  0  0  0  0  0  0  0  0  0  0
    4.5244    0.2923    0.1398 C   0  0  0  0  0  0  0  0  0  0  0  0
    3.6898    0.9567   -0.7281 C   0  0  0  0  0  0  0  0  0  0  0  0
    2.6163    1.7269   -0.2567 C   0  0  0  0  0  0  0  0  0  0  0  0
    2.4593    1.7705    1.1116 C   0  0  0  0  0  0  0  0  0  0  0  0
    3.2959    1.1042    1.9827 C   0  0  0  0  0  0  0  0  0  0  0  0
    1.5736    2.5717   -1.3779 S   0  0  0  0  0  0  0  0  0  0  0  0
    2.4339    3.0791   -2.4983 O   0  0  0  0  0  0  0  0  0  0  0  0
    0.9044    3.7278   -0.6547 O   0  0  0  0  0  0  0  0  0  0  0  0
    0.3446    1.5301   -1.9119 N   0  0  0  0  0  0  0  0  0  0  0  0
   -0.5194    1.0548   -0.8332 C   0  0  1  0  0  0  0  0  0  0  0  0
   -1.8867    1.5812   -1.0206 C   0  0  0  0  0  0  0  0  0  0  0  0
   -2.8605    1.1840    0.0055 C   0  0  0  0  0  0  0  0  0  0  0  0
   -3.1307    1.9311    1.1737 C   0  0  0  0  0  0  0  0  0  0  0  0
   -4.0253    1.2642    1.8963 N   0  0  0  0  0  0  0  0  0  0  0  0
   -4.3427    0.1422    1.2642 C   0  0  0  0  0  0  0  0  0  0  0  0
   -5.2218   -0.8914    1.5612 C   0  0  0  0  0  0  0  0  0  0  0  0
   -5.3801   -1.9486    0.7124 C   0  0  0  0  0  0  0  0  0  0  0  0
   -4.6869   -2.0594   -0.4810 C   0  0  0  0  0  0  0  0  0  0  0  0
   -3.8172   -1.0384   -0.7749 C   0  0  0  0  0  0  0  0  0  0  0  0
   -3.6399    0.0500    0.0784 C   0  0  0  0  0  0  0  0  0  0  0  0
   -0.3046   -0.3734   -0.7194 C   0  0  0  0  0  0  0  0  0  0  0  0
   -0.2217   -0.9723    0.5178 C   0  0  0  0  0  0  0  0  0  0  0  0
    0.0173   -2.3391    0.6624 C   0  0  0  0  0  0  0  0  0  0  0  0
    0.1729   -3.1029   -0.4570 C   0  0  0  0  0  0  0  0  0  0  0  0
    0.0960   -2.5380   -1.6956 C   0  0  0  0  0  0  0  0  0  0  0  0
   -0.1413   -1.1810   -1.8318 C   0  0  0  0  0  0  0  0  0  0  0  0
    5.8476   -1.7682    1.0447 H   0  0  0  0  0  0  0  0  0  0  0  0
    6.8982   -0.3405    1.2131 H   0  0  0  0  0  0  0  0  0  0  0  0
    6.8675   -1.5575    2.5829 H   0  0  0  0  0  0  0  0  0  0  0  0
    5.3386   -0.2904   -0.2604 H   0  0  0  0  0  0  0  0  0  0  0  0
    3.8020    0.9302   -1.8039 H   0  0  0  0  0  0  0  0  0  0  0  0
    1.6258    2.3716    1.5111 H   0  0  0  0  0  0  0  0  0  0  0  0
    3.1491    1.1561    3.0521 H   0  0  0  0  0  0  0  0  0  0  0  0
   -0.1668    1.8230   -2.7516 H   0  0  0  0  0  0  0  0  0  0  0  0
   -0.0942    1.5307    0.0982 H   0  0  0  0  0  0  0  0  0  0  0  0
   -2.3243    1.3301   -2.0191 H   0  0  0  0  0  0  0  0  0  0  0  0
   -1.8702    2.7116   -1.0291 H   0  0  0  0  0  0  0  0  0  0  0  0
   -2.6480    2.8924    1.3865 H   0  0  0  0  0  0  0  0  0  0  0  0
   -4.3993    1.5997    2.8136 H   0  0  0  0  0  0  0  0  0  0  0  0
   -5.7626   -0.7995    2.4994 H   0  0  0  0  0  0  0  0  0  0  0  0
   -6.0719   -2.7376    0.9715 H   0  0  0  0  0  0  0  0  0  0  0  0
   -4.8396   -2.9047   -1.1215 H   0  0  0  0  0  0  0  0  0  0  0  0
   -3.2542   -1.0711   -1.6953 H   0  0  0  0  0  0  0  0  0  0  0  0
   -0.3384   -0.4100    1.4460 H   0  0  0  0  0  0  0  0  0  0  0  0
    0.0762   -2.7716    1.6470 H   0  0  0  0  0  0  0  0  0  0  0  0
    0.3620   -4.1735   -0.3759 H   0  0  0  0  0  0  0  0  0  0  0  0
    0.2273   -3.1916   -2.5625 H   0  0  0  0  0  0  0  0  0  0  0  0
   -0.1912   -0.7900   -2.8416 H   0  0  0  0  0  0  0  0  0  0  0  0
  1  2  1  0
  2  3  1  0
  3  4  2  0
  4  5  1  0
  5  6  2  0
  6  7  1  0
  7  8  2  0
  6  9  1  0
  9 10  2  0
  9 11  2  0
  9 12  1  0
 12 13  1  0
 13 14  1  0
 14 15  1  0
 15 16  2  0
 16 17  1  0
 17 18  1  0
 18 19  2  0
 19 20  1  0
 20 21  2  0
 21 22  1  0
 22 23  2  0
 13 24  1  0
 24 25  2  0
 25 26  1  0
 26 27  2  0
 27 28  1  0
 28 29  2  0
  8  3  1  0
 23 15  1  0
 29 24  1  0
 23 18  1  0
  1 30  1  0
  1 31  1  0
  1 32  1  0
  4 33  1  0
  5 34  1  0
  7 35  1  0
  8 36  1  0
 12 37  1  0
 13 38  1  1
 14 39  1  0
 14 40  1  0
 16 41  1  0
 17 42  1  0
 19 43  1  0
 20 44  1  0
 21 45  1  0
 22 46  1  0
 25 47  1  0
 26 48  1  0
 27 49  1  0
 28 50  1  0
 29 51  1  0
M  END
$$$$
[H]OC(=O)C([H])([H])[C@]([H])(C(=O)N1C([H])([H])C([H])([H])C([H])([H])[C@@]1([H])C(=O)N([H])[C@]([H])(C(F)(F)F)C([H])(C([H])([H])[H])C([H])([H])[H])N([H])C(=O)[C@@]1([H])N(C(=O)OC(C([H])([H])[H])(C([H])([H])[H])C([H])([H])[H])C([H])([H])C([H])([H])C1([H])[H]
     RDKit          3D

 75 76  0  0  0  0  0  0  0  0999 V2000
    8.0885    1.1698    0.8165 C   0  0  0  0  0  0  0  0  0  0  0  0
    7.4273    2.3523    0.1257 C   0  0  0  0  0  0  0  0  0  0  0  0
    6.9138    3.2833    1.1882 C   0  0  0  0  0  0  0  0  0  0  0  0
    6.3483    1.9166   -0.8214 C   0  0  2  0  0  0  0  0  0  0  0  0
    5.3892    1.1656   -0.1275 N   0  0  0  0  0  0  0  0  0  0  0  0
    4.0283    0.8733   -0.4614 C   0  0  0  0  0  0  0  0  0  0  0  0
    3.6121    1.3398   -1.5123 O   0  0  0  0  0  0  0  0  0  0  0  0
    3.3135    0.0489    0.4782 C   0  0  2  0  0  0  0  0  0  0  0  0
    4.1803   -1.1597    0.8903 C   0  0  0  0  0  0  0  0  0  0  0  0
    3.1980   -1.9822    1.6750 C   0  0  0  0  0  0  0  0  0  0  0  0
    1.8536   -1.3651    1.4252 C   0  0  0  0  0  0  0  0  0  0  0  0
    2.0792   -0.5723    0.1759 N   0  0  0  0  0  0  0  0  0  0  0  0
    1.0986   -0.5003   -0.7823 C   0  0  0  0  0  0  0  0  0  0  0  0
    1.1434    0.5650   -1.5754 O   0  0  0  0  0  0  0  0  0  0  0  0
   -0.0343   -1.3561   -1.1224 C   0  0  1  0  0  0  0  0  0  0  0  0
    0.3248   -2.7693   -1.4310 C   0  0  0  0  0  0  0  0  0  0  0  0
   -0.7489   -3.6364   -1.9130 C   0  0  0  0  0  0  0  0  0  0  0  0
   -2.0700   -3.4376   -1.7480 O   0  0  0  0  0  0  0  0  0  0  0  0
   -0.4462   -4.7282   -2.5562 O   0  0  0  0  0  0  0  0  0  0  0  0
   -1.0962   -1.1373   -0.1977 N   0  0  0  0  0  0  0  0  0  0  0  0
   -2.3589   -0.6920   -0.3070 C   0  0  0  0  0  0  0  0  0  0  0  0
   -2.9345   -0.3285   -1.3551 O   0  0  0  0  0  0  0  0  0  0  0  0
   -3.2162   -0.6162    0.9732 C   0  0  2  0  0  0  0  0  0  0  0  0
   -3.0777   -1.8479    1.7757 C   0  0  0  0  0  0  0  0  0  0  0  0
   -4.0940   -2.7914    1.1951 C   0  0  0  0  0  0  0  0  0  0  0  0
   -5.0012   -1.9524    0.3356 C   0  0  0  0  0  0  0  0  0  0  0  0
   -4.5826   -0.6053    0.5300 N   0  0  0  0  0  0  0  0  0  0  0  0
   -5.3493    0.5959    0.3641 C   0  0  0  0  0  0  0  0  0  0  0  0
   -4.8924    1.7032    0.7741 O   0  0  0  0  0  0  0  0  0  0  0  0
   -6.5692    0.5713   -0.2387 O   0  0  0  0  0  0  0  0  0  0  0  0
   -7.3108    1.7888   -0.4110 C   0  0  0  0  0  0  0  0  0  0  0  0
   -6.4318    2.7715   -1.1539 C   0  0  0  0  0  0  0  0  0  0  0  0
   -8.4003    1.3879   -1.4300 C   0  0  0  0  0  0  0  0  0  0  0  0
   -7.8718    2.2806    0.8664 C   0  0  0  0  0  0  0  0  0  0  0  0
    6.9550    1.3532   -2.0630 C   0  0  0  0  0  0  0  0  0  0  0  0
    7.7318    2.3694   -2.6622 F   0  0  0  0  0  0  0  0  0  0  0  0
    7.8475    0.3532   -1.7948 F   0  0  0  0  0  0  0  0  0  0  0  0
    6.0958    0.9545   -3.0311 F   0  0  0  0  0  0  0  0  0  0  0  0
    9.1640    1.1080    0.6046 H   0  0  0  0  0  0  0  0  0  0  0  0
    7.5547    0.2165    0.5811 H   0  0  0  0  0  0  0  0  0  0  0  0
    7.9901    1.2411    1.9429 H   0  0  0  0  0  0  0  0  0  0  0  0
    8.2567    2.8561   -0.4580 H   0  0  0  0  0  0  0  0  0  0  0  0
    6.2209    2.7352    1.8533 H   0  0  0  0  0  0  0  0  0  0  0  0
    7.7875    3.5965    1.8389 H   0  0  0  0  0  0  0  0  0  0  0  0
    6.4789    4.2072    0.7415 H   0  0  0  0  0  0  0  0  0  0  0  0
    5.8103    2.8533   -1.1836 H   0  0  0  0  0  0  0  0  0  0  0  0
    5.7121    0.7680    0.7965 H   0  0  0  0  0  0  0  0  0  0  0  0
    3.1555    0.6209    1.4570 H   0  0  0  0  0  0  0  0  0  0  0  0
    5.0235   -0.8304    1.5059 H   0  0  0  0  0  0  0  0  0  0  0  0
    4.5237   -1.6847   -0.0182 H   0  0  0  0  0  0  0  0  0  0  0  0
    3.4205   -1.9674    2.7707 H   0  0  0  0  0  0  0  0  0  0  0  0
    3.2143   -3.0241    1.2475 H   0  0  0  0  0  0  0  0  0  0  0  0
    1.6333   -0.5543    2.1835 H   0  0  0  0  0  0  0  0  0  0  0  0
    1.1419   -2.1409    1.3578 H   0  0  0  0  0  0  0  0  0  0  0  0
   -0.4641   -0.9752   -2.1231 H   0  0  0  0  0  0  0  0  0  0  0  0
    0.6639   -3.3155   -0.4729 H   0  0  0  0  0  0  0  0  0  0  0  0
    1.2423   -2.8439   -2.0688 H   0  0  0  0  0  0  0  0  0  0  0  0
   -2.8314   -4.0984   -1.7673 H   0  0  0  0  0  0  0  0  0  0  0  0
   -0.7908   -1.3587    0.8338 H   0  0  0  0  0  0  0  0  0  0  0  0
   -2.9159    0.2689    1.5343 H   0  0  0  0  0  0  0  0  0  0  0  0
   -2.0737   -2.3343    1.7719 H   0  0  0  0  0  0  0  0  0  0  0  0
   -3.3415   -1.6228    2.8499 H   0  0  0  0  0  0  0  0  0  0  0  0
   -4.6259   -3.3234    2.0285 H   0  0  0  0  0  0  0  0  0  0  0  0
   -3.5922   -3.6164    0.6317 H   0  0  0  0  0  0  0  0  0  0  0  0
   -6.0366   -2.1658    0.6948 H   0  0  0  0  0  0  0  0  0  0  0  0
   -4.8659   -2.2069   -0.7382 H   0  0  0  0  0  0  0  0  0  0  0  0
   -6.2110    3.6186   -0.4554 H   0  0  0  0  0  0  0  0  0  0  0  0
   -6.9300    3.1953   -2.0479 H   0  0  0  0  0  0  0  0  0  0  0  0
   -5.4945    2.2991   -1.5065 H   0  0  0  0  0  0  0  0  0  0  0  0
   -9.1643    0.7481   -1.0036 H   0  0  0  0  0  0  0  0  0  0  0  0
   -8.7650    2.2970   -1.8999 H   0  0  0  0  0  0  0  0  0  0  0  0
   -7.8053    0.8287   -2.2166 H   0  0  0  0  0  0  0  0  0  0  0  0
   -7.9375    1.4799    1.6560 H   0  0  0  0  0  0  0  0  0  0  0  0
   -8.9422    2.6347    0.7519 H   0  0  0  0  0  0  0  0  0  0  0  0
   -7.3491    3.1245    1.3453 H   0  0  0  0  0  0  0  0  0  0  0  0
  1  2  1  0
  2  3  1  0
  2  4  1  0
  4  5  1  0
  5  6  1  0
  6  7  2  0
  6  8  1  0
  8  9  1  0
  9 10  1  0
 10 11  1  0
 11 12  1  0
 12 13  1  0
 13 14  2  0
 13 15  1  0
 15 16  1  0
 16 17  1  0
 17 18  1  0
 17 19  2  0
 15 20  1  0
 20 21  1  0
 21 22  2  0
 21 23  1  0
 23 24  1  0
 24 25  1  0
 25 26  1  0
 26 27  1  0
 27 28  1  0
 28 29  2  0
 28 30  1  0
 30 31  1  0
 31 32  1  0
 31 33  1  0
 31 34  1  0
  4 35  1  0
 35 36  1  0
 35 37  1  0
 35 38  1  0
 12  8  1  0
 27 23  1  0
  1 39  1  0
  1 40  1  0
  1 41  1  0
  2 42  1  0
  3 43  1  0
  3 44  1  0
  3 45  1  0
  4 46  1  6
  5 47  1  0
  8 48  1  1
  9 49  1  0
  9 50  1  0
 10 51  1  0
 10 52  1  0
 11 53  1  0
 11 54  1  0
 15 55  1  6
 16 56  1  0
 16 57  1  0
 18 58  1  0
 20 59  1  0
 23 60  1  1
 24 61  1  0
 24 62  1  0
 25 63  1  0
 25 64  1  0
 26 65  1  0
 26 66  1  0
 32 67  1  0
 32 68  1  0
 32 69  1  0
 33 70  1  0
 33 71  1  0
 33 72  1  0
 34 73  1  0
 34 74  1  0
 34 75  1  0
M  END
$$$$
[H]c1c([H])c(Cl)c([H])c(C(=O)N2C([H])([H])C([H])([H])N(C(=O)[C@]3([H])C([H])([H])N(C(F)(F)F)C([H])([H])[C@]3([H])c3c([H])c([H])c(Cl)c(Cl)c3[H])[C@]([H])(C([H])([H])[H])C2([H])[H])c1[H]
     RDKit          3D

 58 61  0  0  0  0  0  0  0  0999 V2000
   -1.3533   -0.5387   -2.0650 C   0  0  0  0  0  0  0  0  0  0  0  0
   -0.7733   -1.4563   -1.0118 C   0  0  2  0  0  0  0  0  0  0  0  0
   -1.8197   -2.1575   -0.1899 C   0  0  0  0  0  0  0  0  0  0  0  0
   -2.7639   -1.0735    0.2234 N   0  0  0  0  0  0  0  0  0  0  0  0
   -2.1483   -0.0371    0.9694 C   0  0  0  0  0  0  0  0  0  0  0  0
   -0.6481   -0.1541    1.0814 C   0  0  0  0  0  0  0  0  0  0  0  0
   -0.0024   -0.5877   -0.1022 N   0  0  0  0  0  0  0  0  0  0  0  0
    1.3296   -0.2135   -0.3903 C   0  0  0  0  0  0  0  0  0  0  0  0
    1.8283   -0.6694   -1.4458 O   0  0  0  0  0  0  0  0  0  0  0  0
    2.1579    0.6550    0.4345 C   0  0  2  0  0  0  0  0  0  0  0  0
    1.7139    2.0991    0.2207 C   0  0  0  0  0  0  0  0  0  0  0  0
    2.7192    2.7193   -0.6056 N   0  0  0  0  0  0  0  0  0  0  0  0
    3.8320    1.8045   -0.7504 C   0  0  0  0  0  0  0  0  0  0  0  0
    3.6143    0.6964    0.2317 C   0  0  2  0  0  0  0  0  0  0  0  0
    4.3633   -0.5225    0.0427 C   0  0  0  0  0  0  0  0  0  0  0  0
    4.8109   -1.0101   -1.1709 C   0  0  0  0  0  0  0  0  0  0  0  0
    5.5201   -2.1859   -1.3004 C   0  0  0  0  0  0  0  0  0  0  0  0
    5.8192   -2.9423   -0.1935 C   0  0  0  0  0  0  0  0  0  0  0  0
    6.7152   -4.4366   -0.3165 Cl  0  0  0  0  0  0  0  0  0  0  0  0
    5.3961   -2.5001    1.0391 C   0  0  0  0  0  0  0  0  0  0  0  0
    5.7852   -3.4802    2.4631 Cl  0  0  0  0  0  0  0  0  0  0  0  0
    4.6988   -1.3375    1.1362 C   0  0  0  0  0  0  0  0  0  0  0  0
    3.1573    3.9910   -0.0611 C   0  0  0  0  0  0  0  0  0  0  0  0
    2.1053    4.8476    0.0330 F   0  0  0  0  0  0  0  0  0  0  0  0
    3.8097    3.8062    1.1558 F   0  0  0  0  0  0  0  0  0  0  0  0
    4.0789    4.5177   -0.9402 F   0  0  0  0  0  0  0  0  0  0  0  0
   -4.0777   -1.2506   -0.1894 C   0  0  0  0  0  0  0  0  0  0  0  0
   -4.2944   -2.3381   -0.8908 O   0  0  0  0  0  0  0  0  0  0  0  0
   -5.2614   -0.4502    0.0130 C   0  0  0  0  0  0  0  0  0  0  0  0
   -6.4893   -0.8385   -0.5500 C   0  0  0  0  0  0  0  0  0  0  0  0
   -7.6501   -0.1235   -0.3858 C   0  0  0  0  0  0  0  0  0  0  0  0
   -7.6743    1.0323    0.3520 C   0  0  0  0  0  0  0  0  0  0  0  0
   -6.5007    1.4462    0.9177 C   0  0  0  0  0  0  0  0  0  0  0  0
   -6.5095    2.9191    1.8633 Cl  0  0  0  0  0  0  0  0  0  0  0  0
   -5.3174    0.7058    0.7429 C   0  0  0  0  0  0  0  0  0  0  0  0
   -0.6576   -0.5085   -2.9214 H   0  0  0  0  0  0  0  0  0  0  0  0
   -2.3203   -0.9080   -2.4605 H   0  0  0  0  0  0  0  0  0  0  0  0
   -1.4293    0.5198   -1.7100 H   0  0  0  0  0  0  0  0  0  0  0  0
   -0.1069   -2.1726   -1.5205 H   0  0  0  0  0  0  0  0  0  0  0  0
   -1.3549   -2.5094    0.7319 H   0  0  0  0  0  0  0  0  0  0  0  0
   -2.3179   -2.9254   -0.7758 H   0  0  0  0  0  0  0  0  0  0  0  0
   -2.5966    0.0084    1.9777 H   0  0  0  0  0  0  0  0  0  0  0  0
   -2.3361    0.9328    0.4692 H   0  0  0  0  0  0  0  0  0  0  0  0
   -0.2229    0.8023    1.4214 H   0  0  0  0  0  0  0  0  0  0  0  0
   -0.4600   -0.9368    1.8746 H   0  0  0  0  0  0  0  0  0  0  0  0
    1.9011    0.4716    1.5293 H   0  0  0  0  0  0  0  0  0  0  0  0
    1.6080    2.6682    1.1425 H   0  0  0  0  0  0  0  0  0  0  0  0
    0.7474    2.1275   -0.3219 H   0  0  0  0  0  0  0  0  0  0  0  0
    4.7608    2.3745   -0.5396 H   0  0  0  0  0  0  0  0  0  0  0  0
    3.8721    1.4920   -1.7963 H   0  0  0  0  0  0  0  0  0  0  0  0
    4.0098    1.1286    1.2308 H   0  0  0  0  0  0  0  0  0  0  0  0
    4.6142   -0.4585   -2.0852 H   0  0  0  0  0  0  0  0  0  0  0  0
    5.8607   -2.5495   -2.2599 H   0  0  0  0  0  0  0  0  0  0  0  0
    4.3794   -1.0151    2.1182 H   0  0  0  0  0  0  0  0  0  0  0  0
   -6.4813   -1.7581   -1.1405 H   0  0  0  0  0  0  0  0  0  0  0  0
   -8.5843   -0.4411   -0.8284 H   0  0  0  0  0  0  0  0  0  0  0  0
   -8.5913    1.6073    0.4882 H   0  0  0  0  0  0  0  0  0  0  0  0
   -4.4656    1.1139    1.2290 H   0  0  0  0  0  0  0  0  0  0  0  0
  1  2  1  0
  2  3  1  0
  3  4  1  0
  4  5  1  0
  5  6  1  0
  6  7  1  0
  7  8  1  0
  8  9  2  0
  8 10  1  0
 10 11  1  0
 11 12  1  0
 12 13  1  0
 13 14  1  0
 14 15  1  0
 15 16  2  0
 16 17  1  0
 17 18  2  0
 18 19  1  0
 18 20  1  0
 20 21  1  0
 20 22  2  0
 12 23  1  0
 23 24  1  0
 23 25  1  0
 23 26  1  0
  4 27  1  0
 27 28  2  0
 27 29  1  0
 29 30  2  0
 30 31  1  0
 31 32  2  0
 32 33  1  0
 33 34  1  0
 33 35  2  0
  7  2  1  0
 14 10  1  0
 22 15  1  0
 35 29  1  0
  1 36  1  0
  1 37  1  0
  1 38  1  0
  2 39  1  6
  3 40  1  0
  3 41  1  0
  5 42  1  0
  5 43  1  0
  6 44  1  0
  6 45  1  0
 10 46  1  1
 11 47  1  0
 11 48  1  0
 13 49  1  0
 13 50  1  0
 14 51  1  1
 16 52  1  0
 17 53  1  0
 22 54  1  0
 30 55  1  0
 31 56  1  0
 32 57  1  0
 35 58  1  0
M  END
$$$$
[H]c1nc(N([H])c2c([H])c([H])c(N3C([H])([H])C(C([H])([H])[H])(C([H])([H])[H])C3([H])[H])c([H])c2OC([H])([H])[H])nc(N([H])c2c([H])c([H])c([H])c([H])c2S(=O)(=O)C([H])(C([H])([H])[H])C([H])([H])[H])c1Cl
     RDKit          3D

 65 68  0  0  0  0  0  0  0  0999 V2000
    2.4609    0.9921    3.3217 C   0  0  0  0  0  0  0  0  0  0  0  0
    1.7750    0.5765    2.1670 O   0  0  0  0  0  0  0  0  0  0  0  0
    2.4172    0.5619    0.9294 C   0  0  0  0  0  0  0  0  0  0  0  0
    3.7278    0.9572    0.8439 C   0  0  0  0  0  0  0  0  0  0  0  0
    4.3160    0.9242   -0.4024 C   0  0  0  0  0  0  0  0  0  0  0  0
    3.6283    0.5147   -1.5193 C   0  0  0  0  0  0  0  0  0  0  0  0
    2.3039    0.1165   -1.4262 C   0  0  0  0  0  0  0  0  0  0  0  0
    1.6914    0.1379   -0.2016 C   0  0  0  0  0  0  0  0  0  0  0  0
    0.3605   -0.2557   -0.0386 N   0  0  0  0  0  0  0  0  0  0  0  0
   -0.5735   -0.6907   -0.9938 C   0  0  0  0  0  0  0  0  0  0  0  0
   -0.4110   -0.8301   -2.2981 N   0  0  0  0  0  0  0  0  0  0  0  0
   -1.3487   -1.2516   -3.1503 C   0  0  0  0  0  0  0  0  0  0  0  0
   -2.5863   -1.5738   -2.6724 C   0  0  0  0  0  0  0  0  0  0  0  0
   -3.8965   -2.1341   -3.6518 Cl  0  0  0  0  0  0  0  0  0  0  0  0
   -2.8113   -1.4435   -1.2944 C   0  0  0  0  0  0  0  0  0  0  0  0
   -4.0717   -1.7107   -0.7340 N   0  0  0  0  0  0  0  0  0  0  0  0
   -4.4059   -1.6719    0.6245 C   0  0  0  0  0  0  0  0  0  0  0  0
   -3.4851   -1.8075    1.6529 C   0  0  0  0  0  0  0  0  0  0  0  0
   -3.8258   -1.8900    3.0054 C   0  0  0  0  0  0  0  0  0  0  0  0
   -5.1542   -1.8329    3.3123 C   0  0  0  0  0  0  0  0  0  0  0  0
   -6.1265   -1.6996    2.3593 C   0  0  0  0  0  0  0  0  0  0  0  0
   -5.7431   -1.6173    1.0045 C   0  0  0  0  0  0  0  0  0  0  0  0
   -7.0146   -1.3352   -0.1047 S   0  0  0  0  0  0  0  0  0  0  0  0
   -7.0160   -2.2352   -1.3203 O   0  0  0  0  0  0  0  0  0  0  0  0
   -8.3541   -1.6249    0.6336 O   0  0  0  0  0  0  0  0  0  0  0  0
   -7.2035    0.3097   -0.6962 C   0  0  0  0  0  0  0  0  0  0  0  0
   -5.9749    0.8555   -1.3275 C   0  0  0  0  0  0  0  0  0  0  0  0
   -7.5966    1.2649    0.4299 C   0  0  0  0  0  0  0  0  0  0  0  0
   -1.8107   -1.0150   -0.5316 N   0  0  0  0  0  0  0  0  0  0  0  0
    5.6606    1.3203   -0.5445 N   0  0  0  0  0  0  0  0  0  0  0  0
    6.6208    1.4004   -1.6261 C   0  0  0  0  0  0  0  0  0  0  0  0
    7.6845    1.0496   -0.5784 C   0  0  0  0  0  0  0  0  0  0  0  0
    9.0185    1.6790   -0.7986 C   0  0  0  0  0  0  0  0  0  0  0  0
    7.6710   -0.4075   -0.2256 C   0  0  0  0  0  0  0  0  0  0  0  0
    6.7311    1.8397    0.3203 C   0  0  0  0  0  0  0  0  0  0  0  0
    1.7729    0.8060    4.1868 H   0  0  0  0  0  0  0  0  0  0  0  0
    3.3813    0.3951    3.5202 H   0  0  0  0  0  0  0  0  0  0  0  0
    2.6870    2.0605    3.2191 H   0  0  0  0  0  0  0  0  0  0  0  0
    4.2569    1.2779    1.7339 H   0  0  0  0  0  0  0  0  0  0  0  0
    4.0866    0.4887   -2.4955 H   0  0  0  0  0  0  0  0  0  0  0  0
    1.8243   -0.1955   -2.3465 H   0  0  0  0  0  0  0  0  0  0  0  0
   -0.0022   -0.2184    0.9851 H   0  0  0  0  0  0  0  0  0  0  0  0
   -1.1624   -1.3495   -4.2225 H   0  0  0  0  0  0  0  0  0  0  0  0
   -4.7920   -1.9809   -1.4727 H   0  0  0  0  0  0  0  0  0  0  0  0
   -2.4198   -1.8835    1.4230 H   0  0  0  0  0  0  0  0  0  0  0  0
   -3.0480   -1.9926    3.7323 H   0  0  0  0  0  0  0  0  0  0  0  0
   -5.4794   -1.8942    4.3552 H   0  0  0  0  0  0  0  0  0  0  0  0
   -7.1671   -1.6582    2.6608 H   0  0  0  0  0  0  0  0  0  0  0  0
   -8.0708    0.3586   -1.4143 H   0  0  0  0  0  0  0  0  0  0  0  0
   -6.2789    1.8487   -1.7991 H   0  0  0  0  0  0  0  0  0  0  0  0
   -5.6722    0.2558   -2.2073 H   0  0  0  0  0  0  0  0  0  0  0  0
   -5.1397    1.0122   -0.6410 H   0  0  0  0  0  0  0  0  0  0  0  0
   -7.9618    2.1837   -0.0732 H   0  0  0  0  0  0  0  0  0  0  0  0
   -8.4265    0.8274    0.9821 H   0  0  0  0  0  0  0  0  0  0  0  0
   -6.7218    1.5427    1.0286 H   0  0  0  0  0  0  0  0  0  0  0  0
    6.5052    0.6109   -2.4006 H   0  0  0  0  0  0  0  0  0  0  0  0
    6.7641    2.4276   -1.9965 H   0  0  0  0  0  0  0  0  0  0  0  0
    9.0066    2.6946   -0.3397 H   0  0  0  0  0  0  0  0  0  0  0  0
    9.7878    1.0260   -0.3368 H   0  0  0  0  0  0  0  0  0  0  0  0
    9.2272    1.8349   -1.8883 H   0  0  0  0  0  0  0  0  0  0  0  0
    7.1847   -0.5524    0.7837 H   0  0  0  0  0  0  0  0  0  0  0  0
    6.9988   -0.9568   -0.9310 H   0  0  0  0  0  0  0  0  0  0  0  0
    8.6802   -0.8480   -0.1765 H   0  0  0  0  0  0  0  0  0  0  0  0
    6.6610    1.4909    1.3515 H   0  0  0  0  0  0  0  0  0  0  0  0
    6.8605    2.9156    0.1454 H   0  0  0  0  0  0  0  0  0  0  0  0
  1  2  1  0
  2  3  1  0
  3  4  2  0
  4  5  1  0
  5  6  2  0
  6  7  1  0
  7  8  2  0
  8  9  1  0
  9 10  1  0
 10 11  2  0
 11 12  1  0
 12 13  2  0
 13 14  1  0
 13 15  1  0
 15 16  1  0
 16 17  1  0
 17 18  2  0
 18 19  1  0
 19 20  2  0
 20 21  1  0
 21 22  2  0
 22 23  1  0
 23 24  2  0
 23 25  2  0
 23 26  1  0
 26 27  1  0
 26 28  1  0
 15 29  2  0
  5 30  1  0
 30 31  1  0
 31 32  1  0
 32 33  1  0
 32 34  1  0
 32 35  1  0
  8  3  1  0
 29 10  1  0
 35 30  1  0
 22 17  1  0
  1 36  1  0
  1 37  1  0
  1 38  1  0
  4 39  1  0
  6 40  1  0
  7 41  1  0
  9 42  1  0
 12 43  1  0
 16 44  1  0
 18 45  1  0
 19 46  1  0
 20 47  1  0
 21 48  1  0
 26 49  1  0
 27 50  1  0
 27 51  1  0
 27 52  1  0
 28 53  1  0
 28 54  1  0
 28 55  1  0
 31 56  1  0
 31 57  1  0
 33 58  1  0
 33 59  1  0
 33 60  1  0
 34 61  1  0
 34 62  1  0
 34 63  1  0
 35 64  1  0
 35 65  1  0
M  END
$$$$
[H]c1c([H])c([H])c(C([H])([H])[C@]2([H])C(=O)N([H])[C@]([H])(C([H])([H])C([H])([H])C([H])([H])N=C(N([H])[H])N([H])[H])C(=O)N([H])[C@@]([H])(C([H])([H])c3c([H])n([H])c4c([H])c([H])c([H])c([H])c34)C(=O)N([H])[C@@]([H])(C([H])(C([H])([H])[H])C([H])([H])[H])C(=O)N2[H])c([H])c1[H]
     RDKit          3D

 83 86  0  0  0  0  0  0  0  0999 V2000
    1.0344   -4.4291    1.7051 C   0  0  0  0  0  0  0  0  0  0  0  0
   -0.1822   -4.4263    0.7877 C   0  0  0  0  0  0  0  0  0  0  0  0
   -0.1478   -5.6785   -0.0171 C   0  0  0  0  0  0  0  0  0  0  0  0
   -0.1871   -3.1451   -0.0604 C   0  0  2  0  0  0  0  0  0  0  0  0
   -0.2358   -2.0843    0.8626 N   0  0  0  0  0  0  0  0  0  0  0  0
    0.7782   -1.1664    1.2183 C   0  0  0  0  0  0  0  0  0  0  0  0
    0.5960   -0.4211    2.2695 O   0  0  0  0  0  0  0  0  0  0  0  0
    2.0281   -0.9835    0.4992 C   0  0  2  0  0  0  0  0  0  0  0  0
    3.1587   -0.7887    1.4989 C   0  0  0  0  0  0  0  0  0  0  0  0
    4.4782   -0.5858    0.8817 C   0  0  0  0  0  0  0  0  0  0  0  0
    5.3792   -1.6168    0.6441 C   0  0  0  0  0  0  0  0  0  0  0  0
    6.4633   -1.1173    0.0357 N   0  0  0  0  0  0  0  0  0  0  0  0
    6.3056    0.2055   -0.1332 C   0  0  0  0  0  0  0  0  0  0  0  0
    7.1380    1.1445   -0.6900 C   0  0  0  0  0  0  0  0  0  0  0  0
    6.7165    2.4660   -0.7192 C   0  0  0  0  0  0  0  0  0  0  0  0
    5.4971    2.8074   -0.2010 C   0  0  0  0  0  0  0  0  0  0  0  0
    4.6783    1.8569    0.3508 C   0  0  0  0  0  0  0  0  0  0  0  0
    5.0837    0.5542    0.3838 C   0  0  0  0  0  0  0  0  0  0  0  0
    2.0558   -0.1110   -0.6267 N   0  0  0  0  0  0  0  0  0  0  0  0
    1.2339    0.9148   -1.0544 C   0  0  0  0  0  0  0  0  0  0  0  0
    1.7878    1.8383   -1.8040 O   0  0  0  0  0  0  0  0  0  0  0  0
   -0.1944    1.1818   -0.8262 C   0  0  1  0  0  0  0  0  0  0  0  0
   -0.2974    2.7040   -0.6061 C   0  0  0  0  0  0  0  0  0  0  0  0
   -1.6973    3.1482   -0.3515 C   0  0  0  0  0  0  0  0  0  0  0  0
   -1.7656    4.6547   -0.1649 C   0  0  0  0  0  0  0  0  0  0  0  0
   -0.9543    5.1122    0.9376 N   0  0  0  0  0  0  0  0  0  0  0  0
   -0.8170    6.3868    1.0751 C   0  0  0  0  0  0  0  0  0  0  0  0
   -0.0216    6.8548    2.1536 N   0  0  0  0  0  0  0  0  0  0  0  0
   -1.4260    7.3257    0.2046 N   0  0  0  0  0  0  0  0  0  0  0  0
   -0.9810    0.8740   -2.0403 N   0  0  0  0  0  0  0  0  0  0  0  0
   -1.7050   -0.2922   -2.2476 C   0  0  0  0  0  0  0  0  0  0  0  0
   -1.7159   -0.8258   -3.3888 O   0  0  0  0  0  0  0  0  0  0  0  0
   -2.5167   -1.0274   -1.2156 C   0  0  1  0  0  0  0  0  0  0  0  0
   -3.9555   -0.6351   -1.4849 C   0  0  0  0  0  0  0  0  0  0  0  0
   -4.9216   -1.2672   -0.5598 C   0  0  0  0  0  0  0  0  0  0  0  0
   -5.5924   -2.4325   -0.8290 C   0  0  0  0  0  0  0  0  0  0  0  0
   -6.4810   -2.9971    0.0871 C   0  0  0  0  0  0  0  0  0  0  0  0
   -6.7188   -2.4009    1.3017 C   0  0  0  0  0  0  0  0  0  0  0  0
   -6.0578   -1.2315    1.5931 C   0  0  0  0  0  0  0  0  0  0  0  0
   -5.1828   -0.6806    0.6845 C   0  0  0  0  0  0  0  0  0  0  0  0
   -2.2903   -2.4018   -1.4106 N   0  0  0  0  0  0  0  0  0  0  0  0
   -1.1768   -3.1921   -1.1216 C   0  0  0  0  0  0  0  0  0  0  0  0
   -0.9556   -4.1649   -1.9393 O   0  0  0  0  0  0  0  0  0  0  0  0
    1.1769   -5.3857    2.2032 H   0  0  0  0  0  0  0  0  0  0  0  0
    1.9266   -4.2079    1.0523 H   0  0  0  0  0  0  0  0  0  0  0  0
    1.0082   -3.5946    2.4367 H   0  0  0  0  0  0  0  0  0  0  0  0
   -1.0674   -4.4778    1.4578 H   0  0  0  0  0  0  0  0  0  0  0  0
    0.1969   -6.4897    0.6932 H   0  0  0  0  0  0  0  0  0  0  0  0
   -1.1486   -6.0323   -0.3496 H   0  0  0  0  0  0  0  0  0  0  0  0
    0.6128   -5.6903   -0.8246 H   0  0  0  0  0  0  0  0  0  0  0  0
    0.8105   -3.1592   -0.5598 H   0  0  0  0  0  0  0  0  0  0  0  0
   -1.1632   -1.9492    1.3745 H   0  0  0  0  0  0  0  0  0  0  0  0
    2.2742   -2.0440    0.0915 H   0  0  0  0  0  0  0  0  0  0  0  0
    3.2047   -1.6988    2.1322 H   0  0  0  0  0  0  0  0  0  0  0  0
    2.9251    0.0380    2.2097 H   0  0  0  0  0  0  0  0  0  0  0  0
    5.2823   -2.6681    0.8865 H   0  0  0  0  0  0  0  0  0  0  0  0
    7.3146   -1.6477   -0.2713 H   0  0  0  0  0  0  0  0  0  0  0  0
    8.1091    0.8634   -1.1019 H   0  0  0  0  0  0  0  0  0  0  0  0
    7.3684    3.2044   -1.1549 H   0  0  0  0  0  0  0  0  0  0  0  0
    5.1600    3.8278   -0.2144 H   0  0  0  0  0  0  0  0  0  0  0  0
    3.7003    2.0987    0.7748 H   0  0  0  0  0  0  0  0  0  0  0  0
    2.9036   -0.2807   -1.3141 H   0  0  0  0  0  0  0  0  0  0  0  0
   -0.6697    0.7347    0.0228 H   0  0  0  0  0  0  0  0  0  0  0  0
    0.4346    2.9717    0.1529 H   0  0  0  0  0  0  0  0  0  0  0  0
    0.0558    3.1469   -1.5770 H   0  0  0  0  0  0  0  0  0  0  0  0
   -2.3122    2.8449   -1.2144 H   0  0  0  0  0  0  0  0  0  0  0  0
   -2.0344    2.6833    0.5978 H   0  0  0  0  0  0  0  0  0  0  0  0
   -2.8175    4.9352    0.0461 H   0  0  0  0  0  0  0  0  0  0  0  0
   -1.3678    5.1830   -1.0732 H   0  0  0  0  0  0  0  0  0  0  0  0
   -0.4460    7.2586    3.0080 H   0  0  0  0  0  0  0  0  0  0  0  0
    1.0110    6.7778    2.0563 H   0  0  0  0  0  0  0  0  0  0  0  0
   -2.4040    7.6136    0.3570 H   0  0  0  0  0  0  0  0  0  0  0  0
   -0.9019    7.7277   -0.5873 H   0  0  0  0  0  0  0  0  0  0  0  0
   -0.9728    1.6148   -2.7918 H   0  0  0  0  0  0  0  0  0  0  0  0
   -2.3279   -0.6299   -0.2070 H   0  0  0  0  0  0  0  0  0  0  0  0
   -4.1821   -0.8725   -2.5489 H   0  0  0  0  0  0  0  0  0  0  0  0
   -4.0636    0.4847   -1.4159 H   0  0  0  0  0  0  0  0  0  0  0  0
   -5.4471   -2.9301   -1.7691 H   0  0  0  0  0  0  0  0  0  0  0  0
   -6.9999   -3.9139   -0.1394 H   0  0  0  0  0  0  0  0  0  0  0  0
   -7.4166   -2.8629    1.9988 H   0  0  0  0  0  0  0  0  0  0  0  0
   -6.2091   -0.7278    2.5271 H   0  0  0  0  0  0  0  0  0  0  0  0
   -4.6518    0.2489    0.9029 H   0  0  0  0  0  0  0  0  0  0  0  0
   -3.1071   -2.9219   -1.8572 H   0  0  0  0  0  0  0  0  0  0  0  0
  1  2  1  0
  2  3  1  0
  2  4  1  0
  4  5  1  0
  5  6  1  0
  6  7  2  0
  6  8  1  0
  8  9  1  0
  9 10  1  0
 10 11  2  0
 11 12  1  0
 12 13  1  0
 13 14  2  0
 14 15  1  0
 15 16  2  0
 16 17  1  0
 17 18  2  0
  8 19  1  0
 19 20  1  0
 20 21  2  0
 20 22  1  0
 22 23  1  0
 23 24  1  0
 24 25  1  0
 25 26  1  0
 26 27  2  3
 27 28  1  0
 27 29  1  0
 22 30  1  0
 30 31  1  0
 31 32  2  0
 31 33  1  0
 33 34  1  0
 34 35  1  0
 35 36  2  0
 36 37  1  0
 37 38  2  0
 38 39  1  0
 39 40  2  0
 33 41  1  0
 41 42  1  0
 42 43  2  0
 42  4  1  0
 18 10  1  0
 40 35  1  0
 18 13  1  0
  1 44  1  0
  1 45  1  0
  1 46  1  0
  2 47  1  0
  3 48  1  0
  3 49  1  0
  3 50  1  0
  4 51  1  6
  5 52  1  0
  8 53  1  6
  9 54  1  0
  9 55  1  0
 11 56  1  0
 12 57  1  0
 14 58  1  0
 15 59  1  0
 16 60  1  0
 17 61  1  0
 19 62  1  0
 22 63  1  1
 23 64  1  0
 23 65  1  0
 24 66  1  0
 24 67  1  0
 25 68  1  0
 25 69  1  0
 28 70  1  0
 28 71  1  0
 29 72  1  0
 29 73  1  0
 30 74  1  0
 33 75  1  1
 34 76  1  0
 34 77  1  0
 36 78  1  0
 37 79  1  0
 38 80  1  0
 39 81  1  0
 40 82  1  0
 41 83  1  0
M  END
$$$$
[H]c1c(F)c([H])c2onc(C3([H])C([H])([H])C([H])([H])N(C([H])([H])C([H])([H])C([H])([H])c4c([H])n([H])c5c([H])c([H])c(F)c([H])c45)C([H])([H])C3([H])[H])c2c1[H]
     RDKit          3D

 52 56  0  0  0  0  0  0  0  0999 V2000
    9.0410    1.6605   -0.8003 F   0  0  0  0  0  0  0  0  0  0  0  0
    7.7823    1.2502   -0.5714 C   0  0  0  0  0  0  0  0  0  0  0  0
    6.7103    1.7138   -1.2813 C   0  0  0  0  0  0  0  0  0  0  0  0
    5.4376    1.2576   -1.0244 C   0  0  0  0  0  0  0  0  0  0  0  0
    5.2737    0.3049   -0.0299 C   0  0  0  0  0  0  0  0  0  0  0  0
    4.1373   -0.3573    0.4271 C   0  0  0  0  0  0  0  0  0  0  0  0
    4.5407   -1.1994    1.3824 N   0  0  0  0  0  0  0  0  0  0  0  0
    5.8478   -1.1050    1.5549 O   0  0  0  0  0  0  0  0  0  0  0  0
    6.3190   -0.1942    0.7010 C   0  0  0  0  0  0  0  0  0  0  0  0
    7.5988    0.2888    0.4310 C   0  0  0  0  0  0  0  0  0  0  0  0
    2.7863    0.0043   -0.0035 C   0  0  0  0  0  0  0  0  0  0  0  0
    2.1422   -1.0472   -0.9194 C   0  0  0  0  0  0  0  0  0  0  0  0
    0.9773   -0.2447   -1.5519 C   0  0  0  0  0  0  0  0  0  0  0  0
    0.0967    0.0489   -0.4897 N   0  0  0  0  0  0  0  0  0  0  0  0
   -1.3013    0.0968   -0.8135 C   0  0  0  0  0  0  0  0  0  0  0  0
   -1.8448   -1.1962   -1.2529 C   0  0  0  0  0  0  0  0  0  0  0  0
   -3.2477   -1.3481   -1.6273 C   0  0  0  0  0  0  0  0  0  0  0  0
   -4.2830   -1.0484   -0.6113 C   0  0  0  0  0  0  0  0  0  0  0  0
   -4.7335   -1.9813    0.3396 C   0  0  0  0  0  0  0  0  0  0  0  0
   -5.6305   -1.4055    1.1291 N   0  0  0  0  0  0  0  0  0  0  0  0
   -5.8365   -0.1313    0.7979 C   0  0  0  0  0  0  0  0  0  0  0  0
   -6.6833    0.8536    1.2831 C   0  0  0  0  0  0  0  0  0  0  0  0
   -6.6923    2.0955    0.6772 C   0  0  0  0  0  0  0  0  0  0  0  0
   -5.8580    2.3124   -0.4008 C   0  0  0  0  0  0  0  0  0  0  0  0
   -5.8933    3.5208   -0.9718 F   0  0  0  0  0  0  0  0  0  0  0  0
   -5.0150    1.3502   -0.8999 C   0  0  0  0  0  0  0  0  0  0  0  0
   -4.9933    0.1146   -0.3018 C   0  0  0  0  0  0  0  0  0  0  0  0
    0.4601   -0.4815    0.7508 C   0  0  0  0  0  0  0  0  0  0  0  0
    1.8242   -0.0352    1.2395 C   0  0  0  0  0  0  0  0  0  0  0  0
    6.8860    2.4415   -2.0861 H   0  0  0  0  0  0  0  0  0  0  0  0
    4.5772    1.6368   -1.5927 H   0  0  0  0  0  0  0  0  0  0  0  0
    8.4353   -0.0778    0.9746 H   0  0  0  0  0  0  0  0  0  0  0  0
    2.7127    0.9778   -0.4513 H   0  0  0  0  0  0  0  0  0  0  0  0
    2.8389   -1.3190   -1.7382 H   0  0  0  0  0  0  0  0  0  0  0  0
    1.8833   -1.9178   -0.3706 H   0  0  0  0  0  0  0  0  0  0  0  0
    0.6179   -0.8351   -2.3762 H   0  0  0  0  0  0  0  0  0  0  0  0
    1.4799    0.7013   -1.9080 H   0  0  0  0  0  0  0  0  0  0  0  0
   -1.8094    0.3636    0.1585 H   0  0  0  0  0  0  0  0  0  0  0  0
   -1.4629    0.9526   -1.4654 H   0  0  0  0  0  0  0  0  0  0  0  0
   -1.5576   -2.0093   -0.5069 H   0  0  0  0  0  0  0  0  0  0  0  0
   -1.2392   -1.5179   -2.1943 H   0  0  0  0  0  0  0  0  0  0  0  0
   -3.4896   -0.7085   -2.5258 H   0  0  0  0  0  0  0  0  0  0  0  0
   -3.4303   -2.4168   -1.9706 H   0  0  0  0  0  0  0  0  0  0  0  0
   -4.3561   -3.0026    0.3879 H   0  0  0  0  0  0  0  0  0  0  0  0
   -6.1190   -1.8744    1.9251 H   0  0  0  0  0  0  0  0  0  0  0  0
   -7.3383    0.6960    2.1271 H   0  0  0  0  0  0  0  0  0  0  0  0
   -7.3722    2.8952    1.0660 H   0  0  0  0  0  0  0  0  0  0  0  0
   -4.3564    1.5032   -1.7307 H   0  0  0  0  0  0  0  0  0  0  0  0
   -0.3015   -0.2186    1.5776 H   0  0  0  0  0  0  0  0  0  0  0  0
    0.4127   -1.6174    0.7494 H   0  0  0  0  0  0  0  0  0  0  0  0
    1.7598    0.9929    1.5944 H   0  0  0  0  0  0  0  0  0  0  0  0
    2.2659   -0.7432    1.9981 H   0  0  0  0  0  0  0  0  0  0  0  0
  1  2  1  0
  2  3  2  0
  3  4  1  0
  4  5  2  0
  5  6  1  0
  6  7  2  0
  7  8  1  0
  8  9  1  0
  9 10  2  0
  6 11  1  0
 11 12  1  0
 12 13  1  0
 13 14  1  0
 14 15  1  0
 15 16  1  0
 16 17  1  0
 17 18  1  0
 18 19  2  0
 19 20  1  0
 20 21  1  0
 21 22  2  0
 22 23  1  0
 23 24  2  0
 24 25  1  0
 24 26  1  0
 26 27  2  0
 14 28  1  0
 28 29  1  0
 10  2  1  0
 29 11  1  0
  9  5  1  0
 27 18  1  0
 27 21  1  0
  3 30  1  0
  4 31  1  0
 10 32  1  0
 11 33  1  0
 12 34  1  0
 12 35  1  0
 13 36  1  0
 13 37  1  0
 15 38  1  0
 15 39  1  0
 16 40  1  0
 16 41  1  0
 17 42  1  0
 17 43  1  0
 19 44  1  0
 20 45  1  0
 22 46  1  0
 23 47  1  0
 26 48  1  0
 28 49  1  0
 28 50  1  0
 29 51  1  0
 29 52  1  0
M  END
$$$$
[H]c1c([H])c([H])c(C([H])([H])[C@@]([H])(C(=O)N([H])[C@]([H])(C(=O)N([H])[C@@]([H])(C(=O)N([H])[H])C([H])([H])c2c([H])c([H])c([H])c([H])c2[H])C([H])([H])C([H])(C([H])([H])[H])C([H])([H])[H])N([H])[H])c([H])c1[H]
     RDKit          3D

 63 64  0  0  0  0  0  0  0  0999 V2000
    0.1316   -1.2742    3.9397 C   0  0  0  0  0  0  0  0  0  0  0  0
    0.2100   -0.4960    2.6045 C   0  0  0  0  0  0  0  0  0  0  0  0
   -1.0605    0.3197    2.5877 C   0  0  0  0  0  0  0  0  0  0  0  0
    0.3347   -1.5131    1.5462 C   0  0  0  0  0  0  0  0  0  0  0  0
    0.4467   -1.0881    0.1421 C   0  0  2  0  0  0  0  0  0  0  0  0
    1.5614   -0.2373   -0.1557 N   0  0  0  0  0  0  0  0  0  0  0  0
    2.6787   -0.6018   -0.9633 C   0  0  0  0  0  0  0  0  0  0  0  0
    2.6544   -1.7681   -1.4338 O   0  0  0  0  0  0  0  0  0  0  0  0
    3.8020    0.2988   -1.2481 C   0  0  1  0  0  0  0  0  0  0  0  0
    3.6290    1.6164   -0.6778 N   0  0  0  0  0  0  0  0  0  0  0  0
    5.0294   -0.2832   -0.5398 C   0  0  0  0  0  0  0  0  0  0  0  0
    6.2331    0.5165   -0.7413 C   0  0  0  0  0  0  0  0  0  0  0  0
    6.4893    1.5489    0.1571 C   0  0  0  0  0  0  0  0  0  0  0  0
    7.6000    2.3360    0.0281 C   0  0  0  0  0  0  0  0  0  0  0  0
    8.5064    2.1553   -0.9746 C   0  0  0  0  0  0  0  0  0  0  0  0
    8.2765    1.1286   -1.8898 C   0  0  0  0  0  0  0  0  0  0  0  0
    7.1514    0.3426   -1.7473 C   0  0  0  0  0  0  0  0  0  0  0  0
   -0.7951   -0.5481   -0.4002 C   0  0  0  0  0  0  0  0  0  0  0  0
   -0.7784    0.5467   -1.0160 O   0  0  0  0  0  0  0  0  0  0  0  0
   -2.0307   -1.2215   -0.2582 N   0  0  0  0  0  0  0  0  0  0  0  0
   -3.2803   -0.6477   -0.8249 C   0  0  2  0  0  0  0  0  0  0  0  0
   -4.2990   -0.5255    0.2470 C   0  0  0  0  0  0  0  0  0  0  0  0
   -5.5942    0.0192   -0.0951 C   0  0  0  0  0  0  0  0  0  0  0  0
   -5.7721    1.4074   -0.1138 C   0  0  0  0  0  0  0  0  0  0  0  0
   -6.9985    1.9711   -0.3988 C   0  0  0  0  0  0  0  0  0  0  0  0
   -8.0982    1.1730   -0.6768 C   0  0  0  0  0  0  0  0  0  0  0  0
   -7.9458   -0.1868   -0.6638 C   0  0  0  0  0  0  0  0  0  0  0  0
   -6.6978   -0.7249   -0.3731 C   0  0  0  0  0  0  0  0  0  0  0  0
   -3.7143   -1.5364   -1.8992 C   0  0  0  0  0  0  0  0  0  0  0  0
   -4.8035   -1.2625   -2.7588 N   0  0  0  0  0  0  0  0  0  0  0  0
   -3.0828   -2.6307   -2.0941 O   0  0  0  0  0  0  0  0  0  0  0  0
   -0.6156   -2.1036    3.7885 H   0  0  0  0  0  0  0  0  0  0  0  0
    1.0869   -1.7338    4.1919 H   0  0  0  0  0  0  0  0  0  0  0  0
   -0.2782   -0.6382    4.7433 H   0  0  0  0  0  0  0  0  0  0  0  0
    1.0444    0.2279    2.6447 H   0  0  0  0  0  0  0  0  0  0  0  0
   -1.1037    0.9489    3.5360 H   0  0  0  0  0  0  0  0  0  0  0  0
   -1.0481    1.0646    1.7807 H   0  0  0  0  0  0  0  0  0  0  0  0
   -1.9850   -0.3106    2.6109 H   0  0  0  0  0  0  0  0  0  0  0  0
    1.1729   -2.2481    1.7506 H   0  0  0  0  0  0  0  0  0  0  0  0
   -0.5800   -2.1803    1.6299 H   0  0  0  0  0  0  0  0  0  0  0  0
    0.6483   -2.0331   -0.4753 H   0  0  0  0  0  0  0  0  0  0  0  0
    1.5837    0.7260    0.2337 H   0  0  0  0  0  0  0  0  0  0  0  0
    3.9368    0.3516   -2.3428 H   0  0  0  0  0  0  0  0  0  0  0  0
    4.1846    2.3512   -1.1153 H   0  0  0  0  0  0  0  0  0  0  0  0
    3.5110    1.6243    0.3334 H   0  0  0  0  0  0  0  0  0  0  0  0
    5.1561   -1.3521   -0.7947 H   0  0  0  0  0  0  0  0  0  0  0  0
    4.7544   -0.2714    0.5435 H   0  0  0  0  0  0  0  0  0  0  0  0
    5.8146    1.7578    0.9835 H   0  0  0  0  0  0  0  0  0  0  0  0
    7.7869    3.1452    0.7429 H   0  0  0  0  0  0  0  0  0  0  0  0
    9.4012    2.7546   -1.1162 H   0  0  0  0  0  0  0  0  0  0  0  0
    8.9804    0.9583   -2.6985 H   0  0  0  0  0  0  0  0  0  0  0  0
    6.9878   -0.4407   -2.4587 H   0  0  0  0  0  0  0  0  0  0  0  0
   -2.1239   -2.1303    0.2374 H   0  0  0  0  0  0  0  0  0  0  0  0
   -3.0529    0.3599   -1.2519 H   0  0  0  0  0  0  0  0  0  0  0  0
   -3.8011    0.0714    1.0795 H   0  0  0  0  0  0  0  0  0  0  0  0
   -4.3788   -1.5537    0.7323 H   0  0  0  0  0  0  0  0  0  0  0  0
   -4.9018    2.0296    0.1063 H   0  0  0  0  0  0  0  0  0  0  0  0
   -7.0949    3.0373   -0.4044 H   0  0  0  0  0  0  0  0  0  0  0  0
   -9.0459    1.6384   -0.8966 H   0  0  0  0  0  0  0  0  0  0  0  0
   -8.7903   -0.7984   -0.8789 H   0  0  0  0  0  0  0  0  0  0  0  0
   -6.6033   -1.8228   -0.3686 H   0  0  0  0  0  0  0  0  0  0  0  0
   -4.9841   -0.2726   -3.0749 H   0  0  0  0  0  0  0  0  0  0  0  0
   -5.4456   -1.9915   -3.1005 H   0  0  0  0  0  0  0  0  0  0  0  0
  1  2  1  0
  2  3  1  0
  2  4  1  0
  4  5  1  0
  5  6  1  0
  6  7  1  0
  7  8  2  0
  7  9  1  0
  9 10  1  0
  9 11  1  0
 11 12  1  0
 12 13  2  0
 13 14  1  0
 14 15  2  0
 15 16  1  0
 16 17  2  0
  5 18  1  0
 18 19  2  0
 18 20  1  0
 20 21  1  0
 21 22  1  0
 22 23  1  0
 23 24  2  0
 24 25  1  0
 25 26  2  0
 26 27  1  0
 27 28  2  0
 21 29  1  0
 29 30  1  0
 29 31  2  0
 17 12  1  0
 28 23  1  0
  1 32  1  0
  1 33  1  0
  1 34  1  0
  2 35  1  0
  3 36  1  0
  3 37  1  0
  3 38  1  0
  4 39  1  0
  4 40  1  0
  5 41  1  6
  6 42  1  0
  9 43  1  6
 10 44  1  0
 10 45  1  0
 11 46  1  0
 11 47  1  0
 13 48  1  0
 14 49  1  0
 15 50  1  0
 16 51  1  0
 17 52  1  0
 20 53  1  0
 21 54  1  6
 22 55  1  0
 22 56  1  0
 24 57  1  0
 25 58  1  0
 26 59  1  0
 27 60  1  0
 28 61  1  0
 30 62  1  0
 30 63  1  0
M  END
$$$$
[H]c1nc(N([H])c2c([H])c([H])c(F)c(C(=O)N([H])c3c([H])c([H])c(OC([H])([H])[H])c(OC([H])([H])[H])c3[H])c2[H])c2c([H])c(OC([H])([H])[H])c(OC([H])([H])[H])c([H])c2n1
     RDKit          3D

 58 61  0  0  0  0  0  0  0  0999 V2000
    8.0021   -3.8096    0.2750 C   0  0  0  0  0  0  0  0  0  0  0  0
    7.8311   -2.4071    0.3624 O   0  0  0  0  0  0  0  0  0  0  0  0
    6.5981   -1.8283    0.1824 C   0  0  0  0  0  0  0  0  0  0  0  0
    5.5075   -2.6211   -0.0878 C   0  0  0  0  0  0  0  0  0  0  0  0
    4.2356   -2.0977   -0.2797 C   0  0  0  0  0  0  0  0  0  0  0  0
    3.1908   -2.8825   -0.5391 N   0  0  0  0  0  0  0  0  0  0  0  0
    1.9766   -2.3368   -0.7169 C   0  0  0  0  0  0  0  0  0  0  0  0
    1.8000   -1.0091   -0.6368 N   0  0  0  0  0  0  0  0  0  0  0  0
    2.8007   -0.1548   -0.3797 C   0  0  0  0  0  0  0  0  0  0  0  0
    2.6077    1.2312   -0.3300 N   0  0  0  0  0  0  0  0  0  0  0  0
    1.3852    1.9434   -0.4653 C   0  0  0  0  0  0  0  0  0  0  0  0
    1.4005    3.2738   -0.9104 C   0  0  0  0  0  0  0  0  0  0  0  0
    0.2567    4.0077   -1.0304 C   0  0  0  0  0  0  0  0  0  0  0  0
   -0.9924    3.4672   -0.7141 C   0  0  0  0  0  0  0  0  0  0  0  0
   -2.1004    4.2490   -0.8277 F   0  0  0  0  0  0  0  0  0  0  0  0
   -1.0357    2.1729   -0.2785 C   0  0  0  0  0  0  0  0  0  0  0  0
    0.1638    1.4304   -0.1608 C   0  0  0  0  0  0  0  0  0  0  0  0
   -2.2927    1.4878    0.0435 C   0  0  0  0  0  0  0  0  0  0  0  0
   -2.1620    0.4988    0.8427 O   0  0  0  0  0  0  0  0  0  0  0  0
   -3.5649    1.7974   -0.4222 N   0  0  0  0  0  0  0  0  0  0  0  0
   -4.7274    1.0697   -0.0571 C   0  0  0  0  0  0  0  0  0  0  0  0
   -5.9714    1.7377   -0.1255 C   0  0  0  0  0  0  0  0  0  0  0  0
   -7.1625    1.1469    0.1695 C   0  0  0  0  0  0  0  0  0  0  0  0
   -7.1601   -0.1732    0.5561 C   0  0  0  0  0  0  0  0  0  0  0  0
   -8.3694   -0.7736    0.8561 O   0  0  0  0  0  0  0  0  0  0  0  0
   -9.5778   -0.0637    0.7721 C   0  0  0  0  0  0  0  0  0  0  0  0
   -5.9849   -0.8765    0.6414 C   0  0  0  0  0  0  0  0  0  0  0  0
   -6.0388   -2.1899    1.0318 O   0  0  0  0  0  0  0  0  0  0  0  0
   -4.9555   -3.0589    1.1751 C   0  0  0  0  0  0  0  0  0  0  0  0
   -4.7947   -0.2360    0.3315 C   0  0  0  0  0  0  0  0  0  0  0  0
    4.0472   -0.7088   -0.1966 C   0  0  0  0  0  0  0  0  0  0  0  0
    5.1556    0.0497    0.0741 C   0  0  0  0  0  0  0  0  0  0  0  0
    6.4221   -0.4739    0.2649 C   0  0  0  0  0  0  0  0  0  0  0  0
    7.4758    0.3665    0.5323 O   0  0  0  0  0  0  0  0  0  0  0  0
    7.3917    1.7545    0.6350 C   0  0  0  0  0  0  0  0  0  0  0  0
    7.5528   -4.2170   -0.6591 H   0  0  0  0  0  0  0  0  0  0  0  0
    9.0844   -4.0329    0.2933 H   0  0  0  0  0  0  0  0  0  0  0  0
    7.4688   -4.3225    1.1150 H   0  0  0  0  0  0  0  0  0  0  0  0
    5.5769   -3.7051   -0.1671 H   0  0  0  0  0  0  0  0  0  0  0  0
    1.1048   -2.9399   -0.9291 H   0  0  0  0  0  0  0  0  0  0  0  0
    3.4611    1.8622   -0.1726 H   0  0  0  0  0  0  0  0  0  0  0  0
    2.3766    3.6724   -1.1505 H   0  0  0  0  0  0  0  0  0  0  0  0
    0.2559    5.0320   -1.3716 H   0  0  0  0  0  0  0  0  0  0  0  0
    0.0644    0.4024    0.2116 H   0  0  0  0  0  0  0  0  0  0  0  0
   -3.6785    2.6160   -1.1078 H   0  0  0  0  0  0  0  0  0  0  0  0
   -5.9678    2.7700   -0.4286 H   0  0  0  0  0  0  0  0  0  0  0  0
   -8.1161    1.6647    0.1155 H   0  0  0  0  0  0  0  0  0  0  0  0
  -10.4564   -0.7082    0.9401 H   0  0  0  0  0  0  0  0  0  0  0  0
   -9.7035    0.4329   -0.2324 H   0  0  0  0  0  0  0  0  0  0  0  0
   -9.6206    0.7810    1.5141 H   0  0  0  0  0  0  0  0  0  0  0  0
   -4.1132   -2.8649    0.4907 H   0  0  0  0  0  0  0  0  0  0  0  0
   -4.6490   -3.0812    2.2390 H   0  0  0  0  0  0  0  0  0  0  0  0
   -5.3364   -4.0895    0.9216 H   0  0  0  0  0  0  0  0  0  0  0  0
   -3.9098   -0.8391    0.3955 H   0  0  0  0  0  0  0  0  0  0  0  0
    5.0859    1.1169    0.1542 H   0  0  0  0  0  0  0  0  0  0  0  0
    6.7993    2.2281   -0.1923 H   0  0  0  0  0  0  0  0  0  0  0  0
    8.4243    2.1716    0.5249 H   0  0  0  0  0  0  0  0  0  0  0  0
    6.9380    2.0672    1.6000 H   0  0  0  0  0  0  0  0  0  0  0  0
  1  2  1  0
  2  3  1  0
  3  4  2  0
  4  5  1  0
  5  6  2  0
  6  7  1  0
  7  8  2  0
  8  9  1  0
  9 10  1  0
 10 11  1  0
 11 12  2  0
 12 13  1  0
 13 14  2  0
 14 15  1  0
 14 16  1  0
 16 17  2  0
 16 18  1  0
 18 19  2  0
 18 20  1  0
 20 21  1  0
 21 22  2  0
 22 23  1  0
 23 24  2  0
 24 25  1  0
 25 26  1  0
 24 27  1  0
 27 28  1  0
 28 29  1  0
 27 30  2  0
  9 31  2  0
 31 32  1  0
 32 33  2  0
 33 34  1  0
 34 35  1  0
 33  3  1  0
 31  5  1  0
 17 11  1  0
 30 21  1  0
  1 36  1  0
  1 37  1  0
  1 38  1  0
  4 39  1  0
  7 40  1  0
 10 41  1  0
 12 42  1  0
 13 43  1  0
 17 44  1  0
 20 45  1  0
 22 46  1  0
 23 47  1  0
 26 48  1  0
 26 49  1  0
 26 50  1  0
 29 51  1  0
 29 52  1  0
 29 53  1  0
 30 54  1  0
 32 55  1  0
 35 56  1  0
 35 57  1  0
 35 58  1  0
M  END
$$$$
[H]c1c([H])c(C(=O)N2C([H])([H])C([H])([H])N(S(=O)(=O)c3c([H])c([H])c(C#N)c([H])c3[H])C([H])([H])[C@@]2([H])C([H])([H])[H])c([H])c(C(F)(F)F)c1[H]
     RDKit          3D

 48 50  0  0  0  0  0  0  0  0999 V2000
    0.7971    1.6042   -0.9564 C   0  0  0  0  0  0  0  0  0  0  0  0
    0.4849    0.1836   -0.5641 C   0  0  2  0  0  0  0  0  0  0  0  0
   -1.0311    0.2084   -0.3178 C   0  0  0  0  0  0  0  0  0  0  0  0
   -1.5545   -0.9093    0.2624 N   0  0  0  0  0  0  0  0  0  0  0  0
   -0.7121   -1.5652    1.2333 C   0  0  0  0  0  0  0  0  0  0  0  0
    0.6154   -1.8613    0.7253 C   0  0  0  0  0  0  0  0  0  0  0  0
    1.2818   -0.5432    0.2897 N   0  0  0  0  0  0  0  0  0  0  0  0
    2.5811   -0.4335    0.7612 C   0  0  0  0  0  0  0  0  0  0  0  0
    2.9729   -1.3923    1.6178 O   0  0  0  0  0  0  0  0  0  0  0  0
    3.6437    0.4821    0.5358 C   0  0  0  0  0  0  0  0  0  0  0  0
    3.7385    1.8118    0.4903 C   0  0  0  0  0  0  0  0  0  0  0  0
    4.8311    2.5307    0.0677 C   0  0  0  0  0  0  0  0  0  0  0  0
    5.9456    1.8318   -0.3522 C   0  0  0  0  0  0  0  0  0  0  0  0
    5.9352    0.4497   -0.3381 C   0  0  0  0  0  0  0  0  0  0  0  0
    4.8365   -0.2043    0.0873 C   0  0  0  0  0  0  0  0  0  0  0  0
    7.1432   -0.3238   -0.8391 C   0  0  0  0  0  0  0  0  0  0  0  0
    7.0632   -0.3588   -2.1984 F   0  0  0  0  0  0  0  0  0  0  0  0
    8.3064    0.2150   -0.3765 F   0  0  0  0  0  0  0  0  0  0  0  0
    7.0189   -1.6155   -0.3842 F   0  0  0  0  0  0  0  0  0  0  0  0
   -2.9559   -1.6460   -0.2016 S   0  0  0  0  0  0  0  0  0  0  0  0
   -3.1319   -2.9113    0.6458 O   0  0  0  0  0  0  0  0  0  0  0  0
   -2.8441   -2.1940   -1.6183 O   0  0  0  0  0  0  0  0  0  0  0  0
   -4.4332   -0.7855   -0.0801 C   0  0  0  0  0  0  0  0  0  0  0  0
   -4.5519    0.5612    0.1902 C   0  0  0  0  0  0  0  0  0  0  0  0
   -5.7812    1.1572    0.2864 C   0  0  0  0  0  0  0  0  0  0  0  0
   -6.9625    0.4244    0.1112 C   0  0  0  0  0  0  0  0  0  0  0  0
   -6.8407   -0.9027   -0.1568 C   0  0  0  0  0  0  0  0  0  0  0  0
   -5.6129   -1.5118   -0.2534 C   0  0  0  0  0  0  0  0  0  0  0  0
   -8.2283    1.1003    0.2325 C   0  0  0  0  0  0  0  0  0  0  0  0
   -9.2413    1.6445    0.3535 N   0  0  0  0  0  0  0  0  0  0  0  0
   -0.1202    1.9724   -1.5617 H   0  0  0  0  0  0  0  0  0  0  0  0
    0.7584    2.2351   -0.0554 H   0  0  0  0  0  0  0  0  0  0  0  0
    1.6801    1.6986   -1.5919 H   0  0  0  0  0  0  0  0  0  0  0  0
    0.5632   -0.3910   -1.5889 H   0  0  0  0  0  0  0  0  0  0  0  0
   -1.1852    1.1284    0.3054 H   0  0  0  0  0  0  0  0  0  0  0  0
   -1.4543    0.3846   -1.3381 H   0  0  0  0  0  0  0  0  0  0  0  0
   -0.6779   -1.0600    2.2152 H   0  0  0  0  0  0  0  0  0  0  0  0
   -1.2298   -2.5454    1.4387 H   0  0  0  0  0  0  0  0  0  0  0  0
    1.2311   -2.3387    1.4903 H   0  0  0  0  0  0  0  0  0  0  0  0
    0.6216   -2.4027   -0.2539 H   0  0  0  0  0  0  0  0  0  0  0  0
    2.8821    2.4041    0.8755 H   0  0  0  0  0  0  0  0  0  0  0  0
    4.7762    3.6062    0.0816 H   0  0  0  0  0  0  0  0  0  0  0  0
    6.8298    2.3439   -0.6890 H   0  0  0  0  0  0  0  0  0  0  0  0
    4.8292   -1.2939    0.1048 H   0  0  0  0  0  0  0  0  0  0  0  0
   -3.6198    1.0889    0.3193 H   0  0  0  0  0  0  0  0  0  0  0  0
   -5.8780    2.2093    0.5152 H   0  0  0  0  0  0  0  0  0  0  0  0
   -7.7404   -1.5089   -0.2943 H   0  0  0  0  0  0  0  0  0  0  0  0
   -5.5799   -2.5774   -0.4629 H   0  0  0  0  0  0  0  0  0  0  0  0
  1  2  1  0
  2  3  1  0
  3  4  1  0
  4  5  1  0
  5  6  1  0
  6  7  1  0
  7  8  1  0
  8  9  2  0
  8 10  1  0
 10 11  2  0
 11 12  1  0
 12 13  2  0
 13 14  1  0
 14 15  2  0
 14 16  1  0
 16 17  1  0
 16 18  1  0
 16 19  1  0
  4 20  1  0
 20 21  2  0
 20 22  2  0
 20 23  1  0
 23 24  2  0
 24 25  1  0
 25 26  2  0
 26 27  1  0
 27 28  2  0
 26 29  1  0
 29 30  3  0
  7  2  1  0
 15 10  1  0
 28 23  1  0
  1 31  1  0
  1 32  1  0
  1 33  1  0
  2 34  1  6
  3 35  1  0
  3 36  1  0
  5 37  1  0
  5 38  1  0
  6 39  1  0
  6 40  1  0
 11 41  1  0
 12 42  1  0
 13 43  1  0
 15 44  1  0
 24 45  1  0
 25 46  1  0
 27 47  1  0
 28 48  1  0
M  END
$$$$
[H]OC(=O)c1c([H])c(Cl)c([H])c(C(=O)N([H])[C@]([H])(c2c([H])c([H])c(OC([H])([H])[H])c(OC([H])([H])[H])c2[H])C([H])([H])c2c([H])n([H])c3c([H])c([H])c([H])c([H])c23)c1[H]
     RDKit          3D

 57 60  0  0  0  0  0  0  0  0999 V2000
   -3.1516   -5.0629   -3.6769 C   0  0  0  0  0  0  0  0  0  0  0  0
   -3.1270   -4.7490   -2.3103 O   0  0  0  0  0  0  0  0  0  0  0  0
   -2.5994   -3.6263   -1.7521 C   0  0  0  0  0  0  0  0  0  0  0  0
   -2.0117   -2.6552   -2.5551 C   0  0  0  0  0  0  0  0  0  0  0  0
   -1.4720   -1.5126   -2.0090 C   0  0  0  0  0  0  0  0  0  0  0  0
   -1.5224   -1.3401   -0.6349 C   0  0  0  0  0  0  0  0  0  0  0  0
   -2.1112   -2.3122    0.1817 C   0  0  0  0  0  0  0  0  0  0  0  0
   -2.6481   -3.4548   -0.3883 C   0  0  0  0  0  0  0  0  0  0  0  0
   -3.2473   -4.4616    0.3540 O   0  0  0  0  0  0  0  0  0  0  0  0
   -3.3381   -4.3636    1.7739 C   0  0  0  0  0  0  0  0  0  0  0  0
   -0.9699   -0.1522   -0.0133 C   0  0  2  0  0  0  0  0  0  0  0  0
   -1.8213    1.0821   -0.1855 C   0  0  0  0  0  0  0  0  0  0  0  0
   -1.2277    2.2719    0.4696 C   0  0  0  0  0  0  0  0  0  0  0  0
   -0.5676    3.3420   -0.0937 C   0  0  0  0  0  0  0  0  0  0  0  0
   -0.1931    4.1983    0.8728 N   0  0  0  0  0  0  0  0  0  0  0  0
   -0.5813    3.7388    2.0841 C   0  0  0  0  0  0  0  0  0  0  0  0
   -0.4664    4.1894    3.3751 C   0  0  0  0  0  0  0  0  0  0  0  0
   -0.9803    3.4705    4.4300 C   0  0  0  0  0  0  0  0  0  0  0  0
   -1.6311    2.2639    4.2082 C   0  0  0  0  0  0  0  0  0  0  0  0
   -1.7303    1.8377    2.8988 C   0  0  0  0  0  0  0  0  0  0  0  0
   -1.2175    2.5543    1.8410 C   0  0  0  0  0  0  0  0  0  0  0  0
    0.3843    0.0861   -0.5388 N   0  0  0  0  0  0  0  0  0  0  0  0
    1.5210    0.2206    0.2808 C   0  0  0  0  0  0  0  0  0  0  0  0
    1.5054    0.1584    1.5337 O   0  0  0  0  0  0  0  0  0  0  0  0
    2.8197    0.4502   -0.3397 C   0  0  0  0  0  0  0  0  0  0  0  0
    3.1230   -0.0414   -1.5916 C   0  0  0  0  0  0  0  0  0  0  0  0
    4.3247    0.1575   -2.2293 C   0  0  0  0  0  0  0  0  0  0  0  0
    4.6365   -0.5048   -3.8322 Cl  0  0  0  0  0  0  0  0  0  0  0  0
    5.2732    0.8990   -1.5559 C   0  0  0  0  0  0  0  0  0  0  0  0
    5.0358    1.4181   -0.3044 C   0  0  0  0  0  0  0  0  0  0  0  0
    3.8089    1.1929    0.3028 C   0  0  0  0  0  0  0  0  0  0  0  0
    6.0780    2.1998    0.3655 C   0  0  0  0  0  0  0  0  0  0  0  0
    7.2898    2.4069   -0.2693 O   0  0  0  0  0  0  0  0  0  0  0  0
    5.8770    2.6741    1.4972 O   0  0  0  0  0  0  0  0  0  0  0  0
   -2.2913   -4.6648   -4.2278 H   0  0  0  0  0  0  0  0  0  0  0  0
   -4.0634   -4.5763   -4.1173 H   0  0  0  0  0  0  0  0  0  0  0  0
   -3.2511   -6.1411   -3.8789 H   0  0  0  0  0  0  0  0  0  0  0  0
   -1.9594   -2.7585   -3.6201 H   0  0  0  0  0  0  0  0  0  0  0  0
   -1.0045   -0.7233   -2.5737 H   0  0  0  0  0  0  0  0  0  0  0  0
   -2.1627   -2.2046    1.2574 H   0  0  0  0  0  0  0  0  0  0  0  0
   -2.2937   -4.2257    2.1873 H   0  0  0  0  0  0  0  0  0  0  0  0
   -3.6531   -5.3655    2.1658 H   0  0  0  0  0  0  0  0  0  0  0  0
   -4.0286   -3.5909    2.1109 H   0  0  0  0  0  0  0  0  0  0  0  0
   -0.8543   -0.3095    1.0709 H   0  0  0  0  0  0  0  0  0  0  0  0
   -2.8397    0.9677    0.1691 H   0  0  0  0  0  0  0  0  0  0  0  0
   -1.8658    1.3205   -1.2830 H   0  0  0  0  0  0  0  0  0  0  0  0
   -0.3626    3.5067   -1.1401 H   0  0  0  0  0  0  0  0  0  0  0  0
    0.3271    5.1085    0.7832 H   0  0  0  0  0  0  0  0  0  0  0  0
    0.0308    5.1202    3.5704 H   0  0  0  0  0  0  0  0  0  0  0  0
   -0.9100    3.7934    5.4512 H   0  0  0  0  0  0  0  0  0  0  0  0
   -2.0286    1.7103    5.0411 H   0  0  0  0  0  0  0  0  0  0  0  0
   -2.2370    0.9009    2.7232 H   0  0  0  0  0  0  0  0  0  0  0  0
    0.5282    0.1626   -1.5863 H   0  0  0  0  0  0  0  0  0  0  0  0
    2.3345   -0.6178   -2.0691 H   0  0  0  0  0  0  0  0  0  0  0  0
    6.2335    1.0588   -2.0632 H   0  0  0  0  0  0  0  0  0  0  0  0
    3.6238    1.5937    1.2787 H   0  0  0  0  0  0  0  0  0  0  0  0
    7.6658    3.3587   -0.3048 H   0  0  0  0  0  0  0  0  0  0  0  0
  1  2  1  0
  2  3  1  0
  3  4  2  0
  4  5  1  0
  5  6  2  0
  6  7  1  0
  7  8  2  0
  8  9  1  0
  9 10  1  0
  6 11  1  0
 11 12  1  0
 12 13  1  0
 13 14  2  0
 14 15  1  0
 15 16  1  0
 16 17  2  0
 17 18  1  0
 18 19  2  0
 19 20  1  0
 20 21  2  0
 11 22  1  0
 22 23  1  0
 23 24  2  0
 23 25  1  0
 25 26  2  0
 26 27  1  0
 27 28  1  0
 27 29  2  0
 29 30  1  0
 30 31  2  0
 30 32  1  0
 32 33  1  0
 32 34  2  0
  8  3  1  0
 21 13  1  0
 31 25  1  0
 21 16  1  0
  1 35  1  0
  1 36  1  0
  1 37  1  0
  4 38  1  0
  5 39  1  0
  7 40  1  0
 10 41  1  0
 10 42  1  0
 10 43  1  0
 11 44  1  1
 12 45  1  0
 12 46  1  0
 14 47  1  0
 15 48  1  0
 17 49  1  0
 18 50  1  0
 19 51  1  0
 20 52  1  0
 22 53  1  0
 26 54  1  0
 29 55  1  0
 31 56  1  0
 33 57  1  0
M  END
$$$$
[H]N=C(N([H])[H])N([H])C([H])([H])C([H])([H])C([H])([H])[C@@]([H])(C(=O)N([H])[C@]([H])(C(=O)N([H])[H])C([H])([H])c1c([H])c([H])c([H])c([H])c1[H])N([H])C(=O)[C@@]([H])(N([H])C(=O)[C@@]([H])(N([H])C(=O)[C@@]([H])(N([H])[H])C([H])([H])c1c([H])c([H])c([H])c([H])c1[H])C([H])([H])c1c([H])c([H])c([H])c([H])c1[H])C([H])([H])[H]
     RDKit          3D

 97 99  0  0  0  0  0  0  0  0999 V2000
    0.4188    2.7400   -2.7390 C   0  0  0  0  0  0  0  0  0  0  0  0
    0.8512    2.1396   -1.4173 C   0  0  2  0  0  0  0  0  0  0  0  0
    1.9087    1.1692   -1.5800 N   0  0  0  0  0  0  0  0  0  0  0  0
    3.1635    1.2496   -0.9663 C   0  0  0  0  0  0  0  0  0  0  0  0
    3.3077    2.2910   -0.2040 O   0  0  0  0  0  0  0  0  0  0  0  0
    4.2980    0.3545   -1.0740 C   0  0  2  0  0  0  0  0  0  0  0  0
    4.1366   -1.0223   -0.5830 C   0  0  0  0  0  0  0  0  0  0  0  0
    3.1119   -1.8855   -1.1794 C   0  0  0  0  0  0  0  0  0  0  0  0
    1.9109   -2.0586   -0.5279 C   0  0  0  0  0  0  0  0  0  0  0  0
    0.9558   -2.8689   -1.0872 C   0  0  0  0  0  0  0  0  0  0  0  0
    1.1705   -3.5225   -2.3007 C   0  0  0  0  0  0  0  0  0  0  0  0
    2.3900   -3.3188   -2.9179 C   0  0  0  0  0  0  0  0  0  0  0  0
    3.3743   -2.5192   -2.3979 C   0  0  0  0  0  0  0  0  0  0  0  0
    5.4892    0.9133   -0.4191 N   0  0  0  0  0  0  0  0  0  0  0  0
    5.6352    1.1100    0.9582 C   0  0  0  0  0  0  0  0  0  0  0  0
    4.7111    0.8038    1.7532 O   0  0  0  0  0  0  0  0  0  0  0  0
    6.8773    1.6855    1.5340 C   0  0  1  0  0  0  0  0  0  0  0  0
    6.7692    1.7808    2.9917 N   0  0  0  0  0  0  0  0  0  0  0  0
    8.1400    0.9905    1.1327 C   0  0  0  0  0  0  0  0  0  0  0  0
    8.2205   -0.4289    1.5156 C   0  0  0  0  0  0  0  0  0  0  0  0
    8.7132   -0.7257    2.7960 C   0  0  0  0  0  0  0  0  0  0  0  0
    8.8381   -2.0239    3.2433 C   0  0  0  0  0  0  0  0  0  0  0  0
    8.4697   -3.0783    2.4148 C   0  0  0  0  0  0  0  0  0  0  0  0
    7.9831   -2.8053    1.1536 C   0  0  0  0  0  0  0  0  0  0  0  0
    7.8694   -1.4985    0.7331 C   0  0  0  0  0  0  0  0  0  0  0  0
   -0.2905    1.5316   -0.7238 C   0  0  0  0  0  0  0  0  0  0  0  0
   -0.1372    0.7532    0.2218 O   0  0  0  0  0  0  0  0  0  0  0  0
   -1.6071    1.8467   -1.1575 N   0  0  0  0  0  0  0  0  0  0  0  0
   -2.7977    1.2864   -0.5280 C   0  0  1  0  0  0  0  0  0  0  0  0
   -3.7598    2.3719   -0.2014 C   0  0  0  0  0  0  0  0  0  0  0  0
   -3.1439    3.3775    0.7468 C   0  0  0  0  0  0  0  0  0  0  0  0
   -4.1475    4.4746    1.0609 C   0  0  0  0  0  0  0  0  0  0  0  0
   -5.3109    3.9103    1.6844 N   0  0  0  0  0  0  0  0  0  0  0  0
   -5.2321    3.3669    2.9883 C   0  0  0  0  0  0  0  0  0  0  0  0
   -5.0709    4.2618    4.0718 N   0  0  0  0  0  0  0  0  0  0  0  0
   -5.3046    2.1078    3.1939 N   0  0  0  0  0  0  0  0  0  0  0  0
   -3.3655    0.2521   -1.4237 C   0  0  0  0  0  0  0  0  0  0  0  0
   -2.7780   -0.0006   -2.4972 O   0  0  0  0  0  0  0  0  0  0  0  0
   -4.5338   -0.4370   -1.0899 N   0  0  0  0  0  0  0  0  0  0  0  0
   -5.1240   -1.4705   -1.9399 C   0  0  1  0  0  0  0  0  0  0  0  0
   -5.0999   -2.7867   -1.2333 C   0  0  0  0  0  0  0  0  0  0  0  0
   -5.8360   -2.8253    0.0389 C   0  0  0  0  0  0  0  0  0  0  0  0
   -5.1689   -2.4983    1.1970 C   0  0  0  0  0  0  0  0  0  0  0  0
   -5.7562   -2.5014    2.4399 C   0  0  0  0  0  0  0  0  0  0  0  0
   -7.0909   -2.8592    2.4776 C   0  0  0  0  0  0  0  0  0  0  0  0
   -7.7801   -3.1901    1.3344 C   0  0  0  0  0  0  0  0  0  0  0  0
   -7.1622   -3.1778    0.1008 C   0  0  0  0  0  0  0  0  0  0  0  0
   -6.4199   -1.0673   -2.4834 C   0  0  0  0  0  0  0  0  0  0  0  0
   -7.1825   -1.8854   -3.3424 N   0  0  0  0  0  0  0  0  0  0  0  0
   -6.9075    0.0686   -2.1858 O   0  0  0  0  0  0  0  0  0  0  0  0
   -0.2517    2.0148   -3.2372 H   0  0  0  0  0  0  0  0  0  0  0  0
    1.3067    2.8618   -3.4003 H   0  0  0  0  0  0  0  0  0  0  0  0
   -0.0679    3.7069   -2.6109 H   0  0  0  0  0  0  0  0  0  0  0  0
    1.1979    3.0058   -0.7918 H   0  0  0  0  0  0  0  0  0  0  0  0
    1.6880    0.3766   -2.2357 H   0  0  0  0  0  0  0  0  0  0  0  0
    4.5713    0.3553   -2.1914 H   0  0  0  0  0  0  0  0  0  0  0  0
    5.1212   -1.5865   -0.7611 H   0  0  0  0  0  0  0  0  0  0  0  0
    4.0434   -1.0838    0.5437 H   0  0  0  0  0  0  0  0  0  0  0  0
    1.7307   -1.5460    0.4323 H   0  0  0  0  0  0  0  0  0  0  0  0
    0.0106   -3.0225   -0.6028 H   0  0  0  0  0  0  0  0  0  0  0  0
    0.4067   -4.1538   -2.7203 H   0  0  0  0  0  0  0  0  0  0  0  0
    2.6042   -3.8112   -3.8769 H   0  0  0  0  0  0  0  0  0  0  0  0
    4.3397   -2.3405   -2.8594 H   0  0  0  0  0  0  0  0  0  0  0  0
    6.3252    1.2007   -1.0179 H   0  0  0  0  0  0  0  0  0  0  0  0
    6.8898    2.7584    1.1884 H   0  0  0  0  0  0  0  0  0  0  0  0
    6.6116    0.8197    3.3985 H   0  0  0  0  0  0  0  0  0  0  0  0
    7.6399    2.1836    3.3893 H   0  0  0  0  0  0  0  0  0  0  0  0
    8.9783    1.5587    1.6390 H   0  0  0  0  0  0  0  0  0  0  0  0
    8.3624    1.1157    0.0495 H   0  0  0  0  0  0  0  0  0  0  0  0
    9.0025    0.0755    3.4537 H   0  0  0  0  0  0  0  0  0  0  0  0
    9.2200   -2.2430    4.2352 H   0  0  0  0  0  0  0  0  0  0  0  0
    8.5504   -4.1191    2.7174 H   0  0  0  0  0  0  0  0  0  0  0  0
    7.6849   -3.6285    0.4881 H   0  0  0  0  0  0  0  0  0  0  0  0
    7.4920   -1.3187   -0.2584 H   0  0  0  0  0  0  0  0  0  0  0  0
   -1.7701    2.5055   -1.9585 H   0  0  0  0  0  0  0  0  0  0  0  0
   -2.4227    0.7949    0.4115 H   0  0  0  0  0  0  0  0  0  0  0  0
   -4.0213    2.9578   -1.1291 H   0  0  0  0  0  0  0  0  0  0  0  0
   -4.6741    1.9205    0.2221 H   0  0  0  0  0  0  0  0  0  0  0  0
   -2.8698    2.8175    1.6708 H   0  0  0  0  0  0  0  0  0  0  0  0
   -2.2299    3.8008    0.2894 H   0  0  0  0  0  0  0  0  0  0  0  0
   -4.4302    4.9675    0.0888 H   0  0  0  0  0  0  0  0  0  0  0  0
   -3.6751    5.2609    1.6787 H   0  0  0  0  0  0  0  0  0  0  0  0
   -6.2330    3.9046    1.1561 H   0  0  0  0  0  0  0  0  0  0  0  0
   -5.3133    3.9545    5.0372 H   0  0  0  0  0  0  0  0  0  0  0  0
   -4.7134    5.2324    3.9325 H   0  0  0  0  0  0  0  0  0  0  0  0
   -5.4237    1.4112    2.4391 H   0  0  0  0  0  0  0  0  0  0  0  0
   -5.0239   -0.2266   -0.2079 H   0  0  0  0  0  0  0  0  0  0  0  0
   -4.4050   -1.5758   -2.8093 H   0  0  0  0  0  0  0  0  0  0  0  0
   -4.0278   -3.0469   -1.0439 H   0  0  0  0  0  0  0  0  0  0  0  0
   -5.4854   -3.6210   -1.8559 H   0  0  0  0  0  0  0  0  0  0  0  0
   -4.1066   -2.2176    1.1472 H   0  0  0  0  0  0  0  0  0  0  0  0
   -5.2270   -2.2422    3.3502 H   0  0  0  0  0  0  0  0  0  0  0  0
   -7.6004   -2.8753    3.4476 H   0  0  0  0  0  0  0  0  0  0  0  0
   -8.8472   -3.4744    1.3693 H   0  0  0  0  0  0  0  0  0  0  0  0
   -7.7335   -3.4468   -0.7940 H   0  0  0  0  0  0  0  0  0  0  0  0
   -7.2963   -2.8920   -3.1528 H   0  0  0  0  0  0  0  0  0  0  0  0
   -7.6342   -1.4707   -4.1761 H   0  0  0  0  0  0  0  0  0  0  0  0
  1  2  1  0
  2  3  1  0
  3  4  1  0
  4  5  2  0
  4  6  1  0
  6  7  1  0
  7  8  1  0
  8  9  2  0
  9 10  1  0
 10 11  2  0
 11 12  1  0
 12 13  2  0
  6 14  1  0
 14 15  1  0
 15 16  2  0
 15 17  1  0
 17 18  1  0
 17 19  1  0
 19 20  1  0
 20 21  2  0
 21 22  1  0
 22 23  2  0
 23 24  1  0
 24 25  2  0
  2 26  1  0
 26 27  2  0
 26 28  1  0
 28 29  1  0
 29 30  1  0
 30 31  1  0
 31 32  1  0
 32 33  1  0
 33 34  1  0
 34 35  1  0
 34 36  2  3
 29 37  1  0
 37 38  2  0
 37 39  1  0
 39 40  1  0
 40 41  1  0
 41 42  1  0
 42 43  2  0
 43 44  1  0
 44 45  2  0
 45 46  1  0
 46 47  2  0
 40 48  1  0
 48 49  1  0
 48 50  2  0
 13  8  1  0
 25 20  1  0
 47 42  1  0
  1 51  1  0
  1 52  1  0
  1 53  1  0
  2 54  1  1
  3 55  1  0
  6 56  1  6
  7 57  1  0
  7 58  1  0
  9 59  1  0
 10 60  1  0
 11 61  1  0
 12 62  1  0
 13 63  1  0
 14 64  1  0
 17 65  1  6
 18 66  1  0
 18 67  1  0
 19 68  1  0
 19 69  1  0
 21 70  1  0
 22 71  1  0
 23 72  1  0
 24 73  1  0
 25 74  1  0
 28 75  1  0
 29 76  1  1
 30 77  1  0
 30 78  1  0
 31 79  1  0
 31 80  1  0
 32 81  1  0
 32 82  1  0
 33 83  1  0
 35 84  1  0
 35 85  1  0
 36 86  1  0
 39 87  1  0
 40 88  1  6
 41 89  1  0
 41 90  1  0
 43 91  1  0
 44 92  1  0
 45 93  1  0
 46 94  1  0
 47 95  1  0
 49 96  1  0
 49 97  1  0
M  END
$$$$
[H]c1c([H])c(N2C([H])([H])C([H])([H])N(c3nc4c([H])c(C(=O)N([H])[H])c([H])c([H])c4n3[H])C([H])([H])[C@@]2([H])C([H])([H])[H])c([H])c([H])c1F
     RDKit          3D

 46 49  0  0  0  0  0  0  0  0999 V2000
   -2.5647   -1.9284   -0.6813 C   0  0  0  0  0  0  0  0  0  0  0  0
   -1.7675   -0.7036   -0.3127 C   0  0  2  0  0  0  0  0  0  0  0  0
   -0.6537   -1.0099    0.6481 C   0  0  0  0  0  0  0  0  0  0  0  0
    0.0609    0.2287    0.8006 N   0  0  0  0  0  0  0  0  0  0  0  0
   -0.6140    1.3622    1.3755 C   0  0  0  0  0  0  0  0  0  0  0  0
   -1.9962    1.5270    0.7778 C   0  0  0  0  0  0  0  0  0  0  0  0
   -2.5821    0.3459    0.2424 N   0  0  0  0  0  0  0  0  0  0  0  0
   -4.0193    0.1662    0.2219 C   0  0  0  0  0  0  0  0  0  0  0  0
   -4.6723    0.8540   -0.7793 C   0  0  0  0  0  0  0  0  0  0  0  0
   -6.0259    0.7620   -0.9117 C   0  0  0  0  0  0  0  0  0  0  0  0
   -6.6985   -0.0460   -0.0013 C   0  0  0  0  0  0  0  0  0  0  0  0
   -8.0370   -0.1549   -0.1173 F   0  0  0  0  0  0  0  0  0  0  0  0
   -6.0469   -0.7372    1.0044 C   0  0  0  0  0  0  0  0  0  0  0  0
   -4.6659   -0.6337    1.1272 C   0  0  0  0  0  0  0  0  0  0  0  0
    1.3835    0.3186    0.3550 C   0  0  0  0  0  0  0  0  0  0  0  0
    2.4387   -0.2615    0.9338 N   0  0  0  0  0  0  0  0  0  0  0  0
    3.5479    0.0316    0.2580 C   0  0  0  0  0  0  0  0  0  0  0  0
    4.8872   -0.2906    0.3971 C   0  0  0  0  0  0  0  0  0  0  0  0
    5.8464    0.1678   -0.4818 C   0  0  0  0  0  0  0  0  0  0  0  0
    5.4302    0.9834   -1.5398 C   0  0  0  0  0  0  0  0  0  0  0  0
    4.1030    1.3278   -1.7143 C   0  0  0  0  0  0  0  0  0  0  0  0
    3.1735    0.8417   -0.8051 C   0  0  0  0  0  0  0  0  0  0  0  0
    1.8487    1.0036   -0.7264 N   0  0  0  0  0  0  0  0  0  0  0  0
    7.2533   -0.1741   -0.3498 C   0  0  0  0  0  0  0  0  0  0  0  0
    7.6516   -1.1439    0.5887 N   0  0  0  0  0  0  0  0  0  0  0  0
    8.1006    0.4029   -1.0797 O   0  0  0  0  0  0  0  0  0  0  0  0
   -3.0090   -2.4579    0.1645 H   0  0  0  0  0  0  0  0  0  0  0  0
   -3.3644   -1.6105   -1.3738 H   0  0  0  0  0  0  0  0  0  0  0  0
   -1.8682   -2.5871   -1.2714 H   0  0  0  0  0  0  0  0  0  0  0  0
   -1.3049   -0.3328   -1.2636 H   0  0  0  0  0  0  0  0  0  0  0  0
    0.0177   -1.8136    0.2749 H   0  0  0  0  0  0  0  0  0  0  0  0
   -1.0544   -1.3241    1.6437 H   0  0  0  0  0  0  0  0  0  0  0  0
   -0.7136    1.2435    2.4951 H   0  0  0  0  0  0  0  0  0  0  0  0
   -0.0876    2.3281    1.2333 H   0  0  0  0  0  0  0  0  0  0  0  0
   -2.6630    1.9743    1.5699 H   0  0  0  0  0  0  0  0  0  0  0  0
   -1.9978    2.2926   -0.0549 H   0  0  0  0  0  0  0  0  0  0  0  0
   -4.1308    1.4806   -1.4852 H   0  0  0  0  0  0  0  0  0  0  0  0
   -6.5321    1.3043   -1.7006 H   0  0  0  0  0  0  0  0  0  0  0  0
   -6.5838   -1.3658    1.7118 H   0  0  0  0  0  0  0  0  0  0  0  0
   -4.1189   -1.1566    1.9002 H   0  0  0  0  0  0  0  0  0  0  0  0
    5.2176   -0.9185    1.2111 H   0  0  0  0  0  0  0  0  0  0  0  0
    6.1599    1.3612   -2.2481 H   0  0  0  0  0  0  0  0  0  0  0  0
    3.7923    1.9490   -2.5186 H   0  0  0  0  0  0  0  0  0  0  0  0
    1.2626    1.5618   -1.3806 H   0  0  0  0  0  0  0  0  0  0  0  0
    7.7969   -0.8804    1.5734 H   0  0  0  0  0  0  0  0  0  0  0  0
    7.8001   -2.1189    0.2891 H   0  0  0  0  0  0  0  0  0  0  0  0
  1  2  1  0
  2  3  1  0
  3  4  1  0
  4  5  1  0
  5  6  1  0
  6  7  1  0
  7  8  1  0
  8  9  2  0
  9 10  1  0
 10 11  2  0
 11 12  1  0
 11 13  1  0
 13 14  2  0
  4 15  1  0
 15 16  2  0
 16 17  1  0
 17 18  2  0
 18 19  1  0
 19 20  2  0
 20 21  1  0
 21 22  2  0
 22 23  1  0
 19 24  1  0
 24 25  1  0
 24 26  2  0
  7  2  1  0
 14  8  1  0
 23 15  1  0
 22 17  1  0
  1 27  1  0
  1 28  1  0
  1 29  1  0
  2 30  1  6
  3 31  1  0
  3 32  1  0
  5 33  1  0
  5 34  1  0
  6 35  1  0
  6 36  1  0
  9 37  1  0
 10 38  1  0
 13 39  1  0
 14 40  1  0
 18 41  1  0
 20 42  1  0
 21 43  1  0
 23 44  1  0
 25 45  1  0
 25 46  1  0
M  END
$$$$
[H]c1nc(C(=O)N([H])c2c([H])c([H])c(N3C([H])([H])C([H])([H])N(C([H])([H])[H])C([H])([H])C3([H])[H])c([H])c2S(=O)(=O)c2c([H])c([H])c(F)c([H])c2[H])n([H])c1C#N
     RDKit          3D

 54 57  0  0  0  0  0  0  0  0999 V2000
    6.8115    0.2487    0.2001 C   0  0  0  0  0  0  0  0  0  0  0  0
    6.0721    0.0842   -1.0129 N   0  0  0  0  0  0  0  0  0  0  0  0
    5.3186    1.2675   -1.3945 C   0  0  0  0  0  0  0  0  0  0  0  0
    4.3308    1.6519   -0.3129 C   0  0  0  0  0  0  0  0  0  0  0  0
    3.4196    0.5654   -0.0799 N   0  0  0  0  0  0  0  0  0  0  0  0
    3.9808   -0.7670    0.0052 C   0  0  0  0  0  0  0  0  0  0  0  0
    5.1548   -1.0045   -0.9032 C   0  0  0  0  0  0  0  0  0  0  0  0
    2.0067    0.7643    0.0598 C   0  0  0  0  0  0  0  0  0  0  0  0
    1.3754    1.9016   -0.3166 C   0  0  0  0  0  0  0  0  0  0  0  0
    0.0049    2.1042   -0.1693 C   0  0  0  0  0  0  0  0  0  0  0  0
   -0.7392    1.0881    0.3892 C   0  0  0  0  0  0  0  0  0  0  0  0
   -2.0886    1.2445    0.6371 N   0  0  0  0  0  0  0  0  0  0  0  0
   -2.9372    2.2282    0.1272 C   0  0  0  0  0  0  0  0  0  0  0  0
   -2.5671    3.1187   -0.6571 O   0  0  0  0  0  0  0  0  0  0  0  0
   -4.3705    2.2906    0.4864 C   0  0  0  0  0  0  0  0  0  0  0  0
   -5.2742    3.1718    0.0371 N   0  0  0  0  0  0  0  0  0  0  0  0
   -6.4700    2.9178    0.5882 C   0  0  0  0  0  0  0  0  0  0  0  0
   -6.2632    1.8148    1.4183 C   0  0  0  0  0  0  0  0  0  0  0  0
   -4.9787    1.4573    1.3350 N   0  0  0  0  0  0  0  0  0  0  0  0
   -7.2939    1.2028    2.2104 C   0  0  0  0  0  0  0  0  0  0  0  0
   -8.1255    0.7072    2.8271 N   0  0  0  0  0  0  0  0  0  0  0  0
   -0.1503   -0.1070    0.7955 C   0  0  0  0  0  0  0  0  0  0  0  0
    1.2217   -0.2248    0.6136 C   0  0  0  0  0  0  0  0  0  0  0  0
   -0.9636   -1.4810    1.4318 S   0  0  0  0  0  0  0  0  0  0  0  0
    0.0920   -2.4749    1.9368 O   0  0  0  0  0  0  0  0  0  0  0  0
   -1.6394   -1.0462    2.7393 O   0  0  0  0  0  0  0  0  0  0  0  0
   -2.0288   -2.3128    0.3878 C   0  0  0  0  0  0  0  0  0  0  0  0
   -3.3813   -2.1604    0.4244 C   0  0  0  0  0  0  0  0  0  0  0  0
   -4.2343   -2.8475   -0.4379 C   0  0  0  0  0  0  0  0  0  0  0  0
   -3.7098   -3.7194   -1.3710 C   0  0  0  0  0  0  0  0  0  0  0  0
   -4.5509   -4.4005   -2.2254 F   0  0  0  0  0  0  0  0  0  0  0  0
   -2.3547   -3.8807   -1.4172 C   0  0  0  0  0  0  0  0  0  0  0  0
   -1.5386   -3.1899   -0.5543 C   0  0  0  0  0  0  0  0  0  0  0  0
    6.3959   -0.3428    1.0426 H   0  0  0  0  0  0  0  0  0  0  0  0
    7.8394   -0.1699    0.0149 H   0  0  0  0  0  0  0  0  0  0  0  0
    6.9448    1.3199    0.4446 H   0  0  0  0  0  0  0  0  0  0  0  0
    6.0353    2.0624   -1.6124 H   0  0  0  0  0  0  0  0  0  0  0  0
    4.7534    0.9947   -2.3124 H   0  0  0  0  0  0  0  0  0  0  0  0
    3.9013    2.6003   -0.6062 H   0  0  0  0  0  0  0  0  0  0  0  0
    4.9222    1.8122    0.6306 H   0  0  0  0  0  0  0  0  0  0  0  0
    4.2404   -0.9238    1.0809 H   0  0  0  0  0  0  0  0  0  0  0  0
    3.2514   -1.5701   -0.2420 H   0  0  0  0  0  0  0  0  0  0  0  0
    5.6754   -1.9147   -0.5116 H   0  0  0  0  0  0  0  0  0  0  0  0
    4.7357   -1.2984   -1.9074 H   0  0  0  0  0  0  0  0  0  0  0  0
    1.9154    2.7161   -0.7573 H   0  0  0  0  0  0  0  0  0  0  0  0
   -0.4072    3.0668   -0.4944 H   0  0  0  0  0  0  0  0  0  0  0  0
   -2.5679    0.5692    1.3122 H   0  0  0  0  0  0  0  0  0  0  0  0
   -7.3818    3.4651    0.4106 H   0  0  0  0  0  0  0  0  0  0  0  0
   -4.5363    0.6778    1.8379 H   0  0  0  0  0  0  0  0  0  0  0  0
    1.7260   -1.1511    0.9300 H   0  0  0  0  0  0  0  0  0  0  0  0
   -3.8640   -1.4974    1.1276 H   0  0  0  0  0  0  0  0  0  0  0  0
   -5.3090   -2.7280   -0.4108 H   0  0  0  0  0  0  0  0  0  0  0  0
   -1.9249   -4.5544   -2.1356 H   0  0  0  0  0  0  0  0  0  0  0  0
   -0.4744   -3.3471   -0.6252 H   0  0  0  0  0  0  0  0  0  0  0  0
  1  2  1  0
  2  3  1  0
  3  4  1  0
  4  5  1  0
  5  6  1  0
  6  7  1  0
  5  8  1  0
  8  9  2  0
  9 10  1  0
 10 11  2  0
 11 12  1  0
 12 13  1  0
 13 14  2  0
 13 15  1  0
 15 16  2  0
 16 17  1  0
 17 18  2  0
 18 19  1  0
 18 20  1  0
 20 21  3  0
 11 22  1  0
 22 23  2  0
 22 24  1  0
 24 25  2  0
 24 26  2  0
 24 27  1  0
 27 28  2  0
 28 29  1  0
 29 30  2  0
 30 31  1  0
 30 32  1  0
 32 33  2  0
  7  2  1  0
 23  8  1  0
 33 27  1  0
 19 15  1  0
  1 34  1  0
  1 35  1  0
  1 36  1  0
  3 37  1  0
  3 38  1  0
  4 39  1  0
  4 40  1  0
  6 41  1  0
  6 42  1  0
  7 43  1  0
  7 44  1  0
  9 45  1  0
 10 46  1  0
 12 47  1  0
 17 48  1  0
 19 49  1  0
 23 50  1  0
 28 51  1  0
 29 52  1  0
 32 53  1  0
 33 54  1  0
M  END
$$$$
[H]OC(=O)[C@@]([H])(N([H])C(=O)[C@@]([H])(N([H])C(=O)[C@@]([H])(N([H])C(=O)C1([H])C([H])([H])C1([H])[H])C([H])([H])C([H])(C([H])([H])[H])C([H])([H])[H])C([H])([H])c1c([H])n([H])c2c([H])c([H])c([H])c([H])c12)C([H])([H])c1c([H])c([H])c([H])c([H])c1[H]
     RDKit          3D

 75 78  0  0  0  0  0  0  0  0999 V2000
   -4.0738   -2.6440    3.4847 C   0  0  0  0  0  0  0  0  0  0  0  0
   -4.4208   -1.4228    2.5927 C   0  0  0  0  0  0  0  0  0  0  0  0
   -5.6613   -1.7077    1.8129 C   0  0  0  0  0  0  0  0  0  0  0  0
   -3.2167   -1.0911    1.7746 C   0  0  0  0  0  0  0  0  0  0  0  0
   -3.1938    0.0085    0.8135 C   0  0  2  0  0  0  0  0  0  0  0  0
   -4.0241    0.0094   -0.3465 N   0  0  0  0  0  0  0  0  0  0  0  0
   -4.7796    0.0136   -1.4050 C   0  0  0  0  0  0  0  0  0  0  0  0
   -4.6233    0.9892   -2.3110 O   0  0  0  0  0  0  0  0  0  0  0  0
   -5.8665   -0.9088   -1.8997 C   0  0  0  0  0  0  0  0  0  0  0  0
   -6.7522   -0.3661   -2.9723 C   0  0  0  0  0  0  0  0  0  0  0  0
   -5.6537   -1.2821   -3.3642 C   0  0  0  0  0  0  0  0  0  0  0  0
   -1.7684   -0.0620    0.2273 C   0  0  0  0  0  0  0  0  0  0  0  0
   -1.5257   -0.9122   -0.6459 O   0  0  0  0  0  0  0  0  0  0  0  0
   -0.7561    0.8361    0.6839 N   0  0  0  0  0  0  0  0  0  0  0  0
    0.5337    0.6551    0.0567 C   0  0  1  0  0  0  0  0  0  0  0  0
    1.4430    1.7544   -0.0846 C   0  0  0  0  0  0  0  0  0  0  0  0
    0.9821    2.9534   -0.7895 C   0  0  0  0  0  0  0  0  0  0  0  0
    0.6297    3.1238   -2.1292 C   0  0  0  0  0  0  0  0  0  0  0  0
    0.1886    4.3581   -2.3000 N   0  0  0  0  0  0  0  0  0  0  0  0
    0.2267    5.0328   -1.1575 C   0  0  0  0  0  0  0  0  0  0  0  0
   -0.1067    6.3693   -0.8486 C   0  0  0  0  0  0  0  0  0  0  0  0
    0.0883    6.7910    0.4490 C   0  0  0  0  0  0  0  0  0  0  0  0
    0.5820    6.0021    1.4521 C   0  0  0  0  0  0  0  0  0  0  0  0
    0.8860    4.6911    1.0982 C   0  0  0  0  0  0  0  0  0  0  0  0
    0.6983    4.2285   -0.2041 C   0  0  0  0  0  0  0  0  0  0  0  0
    1.1877   -0.5313    0.7659 C   0  0  0  0  0  0  0  0  0  0  0  0
    0.5565   -0.9821    1.7384 O   0  0  0  0  0  0  0  0  0  0  0  0
    2.3913   -0.9645    0.2490 N   0  0  0  0  0  0  0  0  0  0  0  0
    3.5719   -1.4942   -0.1586 C   0  0  1  0  0  0  0  0  0  0  0  0
    4.7558   -1.3538    0.7764 C   0  0  0  0  0  0  0  0  0  0  0  0
    5.9553   -2.0750    0.3259 C   0  0  0  0  0  0  0  0  0  0  0  0
    6.8187   -1.5736   -0.5864 C   0  0  0  0  0  0  0  0  0  0  0  0
    7.9592   -2.2662   -1.0097 C   0  0  0  0  0  0  0  0  0  0  0  0
    8.2171   -3.4920   -0.4946 C   0  0  0  0  0  0  0  0  0  0  0  0
    7.3685   -4.0777    0.4526 C   0  0  0  0  0  0  0  0  0  0  0  0
    6.2567   -3.3490    0.8364 C   0  0  0  0  0  0  0  0  0  0  0  0
    3.3761   -2.9046   -0.6648 C   0  0  0  0  0  0  0  0  0  0  0  0
    4.0775   -3.2803   -1.8088 O   0  0  0  0  0  0  0  0  0  0  0  0
    2.6301   -3.6644   -0.0965 O   0  0  0  0  0  0  0  0  0  0  0  0
   -5.0040   -3.2005    3.8025 H   0  0  0  0  0  0  0  0  0  0  0  0
   -3.5106   -2.2320    4.3393 H   0  0  0  0  0  0  0  0  0  0  0  0
   -3.3222   -3.2661    2.8878 H   0  0  0  0  0  0  0  0  0  0  0  0
   -4.6240   -0.5200    3.2473 H   0  0  0  0  0  0  0  0  0  0  0  0
   -6.0995   -0.7105    1.5478 H   0  0  0  0  0  0  0  0  0  0  0  0
   -6.3613   -2.2282    2.5131 H   0  0  0  0  0  0  0  0  0  0  0  0
   -5.5193   -2.3500    0.9455 H   0  0  0  0  0  0  0  0  0  0  0  0
   -2.2846   -0.9959    2.4829 H   0  0  0  0  0  0  0  0  0  0  0  0
   -2.9570   -2.0985    1.2517 H   0  0  0  0  0  0  0  0  0  0  0  0
   -3.1397    0.9662    1.3713 H   0  0  0  0  0  0  0  0  0  0  0  0
   -3.7213    1.3522   -0.4849 H   0  0  0  0  0  0  0  0  0  0  0  0
   -6.2063   -1.7124   -1.2622 H   0  0  0  0  0  0  0  0  0  0  0  0
   -6.6216    0.7178   -3.2193 H   0  0  0  0  0  0  0  0  0  0  0  0
   -7.7615   -0.7312   -3.1062 H   0  0  0  0  0  0  0  0  0  0  0  0
   -5.9229   -2.3286   -3.6558 H   0  0  0  0  0  0  0  0  0  0  0  0
   -4.7984   -0.8266   -3.8929 H   0  0  0  0  0  0  0  0  0  0  0  0
   -0.9161    1.5489    1.3576 H   0  0  0  0  0  0  0  0  0  0  0  0
    0.3080    0.1841   -0.9726 H   0  0  0  0  0  0  0  0  0  0  0  0
    1.7484    2.1036    0.9661 H   0  0  0  0  0  0  0  0  0  0  0  0
    2.4289    1.4635   -0.5752 H   0  0  0  0  0  0  0  0  0  0  0  0
    0.6927    2.3784   -2.8899 H   0  0  0  0  0  0  0  0  0  0  0  0
   -0.1513    4.7478   -3.2105 H   0  0  0  0  0  0  0  0  0  0  0  0
   -0.4964    6.9636   -1.6355 H   0  0  0  0  0  0  0  0  0  0  0  0
   -0.1408    7.8458    0.6927 H   0  0  0  0  0  0  0  0  0  0  0  0
    0.7729    6.3292    2.4573 H   0  0  0  0  0  0  0  0  0  0  0  0
    1.2648    4.0413    1.8510 H   0  0  0  0  0  0  0  0  0  0  0  0
    2.3891   -1.9638    1.2304 H   0  0  0  0  0  0  0  0  0  0  0  0
    3.9379   -0.9106   -1.0892 H   0  0  0  0  0  0  0  0  0  0  0  0
    5.0209   -0.2617    0.8318 H   0  0  0  0  0  0  0  0  0  0  0  0
    4.4789   -1.6762    1.7886 H   0  0  0  0  0  0  0  0  0  0  0  0
    6.6831   -0.5611   -1.0563 H   0  0  0  0  0  0  0  0  0  0  0  0
    8.6546   -1.8530   -1.7668 H   0  0  0  0  0  0  0  0  0  0  0  0
    9.0726   -4.1167   -0.7917 H   0  0  0  0  0  0  0  0  0  0  0  0
    7.5977   -5.0443    0.8345 H   0  0  0  0  0  0  0  0  0  0  0  0
    5.6170   -3.7750    1.5641 H   0  0  0  0  0  0  0  0  0  0  0  0
    3.9338   -2.6905   -2.6669 H   0  0  0  0  0  0  0  0  0  0  0  0
  1  2  1  0
  2  3  1  0
  2  4  1  0
  4  5  1  0
  5  6  1  0
  6  7  1  0
  7  8  2  0
  7  9  1  0
  9 10  1  0
 10 11  1  0
  5 12  1  0
 12 13  2  0
 12 14  1  0
 14 15  1  0
 15 16  1  0
 16 17  1  0
 17 18  2  0
 18 19  1  0
 19 20  1  0
 20 21  2  0
 21 22  1  0
 22 23  2  0
 23 24  1  0
 24 25  2  0
 15 26  1  0
 26 27  2  0
 26 28  1  0
 28 29  1  0
 29 30  1  0
 30 31  1  0
 31 32  2  0
 32 33  1  0
 33 34  2  0
 34 35  1  0
 35 36  2  0
 29 37  1  0
 37 38  1  0
 37 39  2  0
 11  9  1  0
 25 17  1  0
 36 31  1  0
 25 20  1  0
  1 40  1  0
  1 41  1  0
  1 42  1  0
  2 43  1  0
  3 44  1  0
  3 45  1  0
  3 46  1  0
  4 47  1  0
  4 48  1  0
  5 49  1  1
  6 50  1  0
  9 51  1  0
 10 52  1  0
 10 53  1  0
 11 54  1  0
 11 55  1  0
 14 56  1  0
 15 57  1  6
 16 58  1  0
 16 59  1  0
 18 60  1  0
 19 61  1  0
 21 62  1  0
 22 63  1  0
 23 64  1  0
 24 65  1  0
 28 66  1  0
 29 67  1  6
 30 68  1  0
 30 69  1  0
 32 70  1  0
 33 71  1  0
 34 72  1  0
 35 73  1  0
 36 74  1  0
 38 75  1  0
M  END
$$$$
[H]N=C(N([H])[H])N([H])C([H])([H])C([H])([H])C([H])([H])[C@@]([H])(C(=O)N([H])[C@]([H])(C(=O)N([H])[C@]([H])(C(=O)N([H])[H])C([H])([H])c1c([H])c([H])c(O[H])c([H])c1[H])C([H])([H])c1c([H])c([H])c([H])c([H])c1[H])N([H])C(=O)[C@@]([H])(N([H])C(=O)[C@@]([H])(N([H])[H])C([H])([H])C([H])(C([H])([H])[H])C([H])([H])[H])C([H])([H])c1c([H])c([H])c([H])c([H])c1[H]
     RDKit          3D

107109  0  0  0  0  0  0  0  0999 V2000
   -9.6517   -3.4994    1.2780 C   0  0  0  0  0  0  0  0  0  0  0  0
   -8.5298   -2.9992    0.3487 C   0  0  0  0  0  0  0  0  0  0  0  0
   -8.8774   -3.4867   -1.0167 C   0  0  0  0  0  0  0  0  0  0  0  0
   -8.5159   -1.5184    0.5022 C   0  0  0  0  0  0  0  0  0  0  0  0
   -7.4941   -0.7835   -0.3074 C   0  0  2  0  0  0  0  0  0  0  0  0
   -7.5920   -0.9440   -1.7236 N   0  0  0  0  0  0  0  0  0  0  0  0
   -6.1269   -0.9035    0.2404 C   0  0  0  0  0  0  0  0  0  0  0  0
   -5.9743   -0.9712    1.4820 O   0  0  0  0  0  0  0  0  0  0  0  0
   -4.9652   -0.9453   -0.5719 N   0  0  0  0  0  0  0  0  0  0  0  0
   -3.6365   -1.0661   -0.0077 C   0  0  1  0  0  0  0  0  0  0  0  0
   -2.8912   -2.2576   -0.5652 C   0  0  0  0  0  0  0  0  0  0  0  0
   -2.7232   -2.2172   -2.0298 C   0  0  0  0  0  0  0  0  0  0  0  0
   -1.6423   -1.6451   -2.6523 C   0  0  0  0  0  0  0  0  0  0  0  0
   -1.5116   -1.6236   -4.0365 C   0  0  0  0  0  0  0  0  0  0  0  0
   -2.4732   -2.1817   -4.8434 C   0  0  0  0  0  0  0  0  0  0  0  0
   -3.5567   -2.7564   -4.2526 C   0  0  0  0  0  0  0  0  0  0  0  0
   -3.6947   -2.7823   -2.8670 C   0  0  0  0  0  0  0  0  0  0  0  0
   -2.8155    0.1545   -0.1380 C   0  0  0  0  0  0  0  0  0  0  0  0
   -3.2430    1.1177   -0.7911 O   0  0  0  0  0  0  0  0  0  0  0  0
   -1.5593    0.2094    0.4847 N   0  0  0  0  0  0  0  0  0  0  0  0
   -0.6625    1.3916    0.4092 C   0  0  1  0  0  0  0  0  0  0  0  0
   -0.7966    2.0230    1.7923 C   0  0  0  0  0  0  0  0  0  0  0  0
    0.0279    3.2536    1.9069 C   0  0  0  0  0  0  0  0  0  0  0  0
   -0.1890    3.8543    3.3087 C   0  0  0  0  0  0  0  0  0  0  0  0
    0.6189    5.0685    3.4350 N   0  0  0  0  0  0  0  0  0  0  0  0
    0.5648    5.7953    4.6571 C   0  0  0  0  0  0  0  0  0  0  0  0
    1.5062    6.8117    4.9306 N   0  0  0  0  0  0  0  0  0  0  0  0
   -0.3400    5.5586    5.5649 N   0  0  0  0  0  0  0  0  0  0  0  0
    0.6801    0.9194    0.0812 C   0  0  0  0  0  0  0  0  0  0  0  0
    0.8133   -0.3786    0.0958 O   0  0  0  0  0  0  0  0  0  0  0  0
    1.8132    1.6880   -0.2448 N   0  0  0  0  0  0  0  0  0  0  0  0
    3.0777    0.9930   -0.5491 C   0  0  1  0  0  0  0  0  0  0  0  0
    3.9253    1.7659   -1.4735 C   0  0  0  0  0  0  0  0  0  0  0  0
    3.4164    2.1014   -2.7854 C   0  0  0  0  0  0  0  0  0  0  0  0
    3.6095    1.2988   -3.8763 C   0  0  0  0  0  0  0  0  0  0  0  0
    3.1369    1.6021   -5.1373 C   0  0  0  0  0  0  0  0  0  0  0  0
    2.4360    2.7608   -5.3301 C   0  0  0  0  0  0  0  0  0  0  0  0
    2.2185    3.5998   -4.2540 C   0  0  0  0  0  0  0  0  0  0  0  0
    2.7102    3.2666   -2.9822 C   0  0  0  0  0  0  0  0  0  0  0  0
    3.7987    0.8620    0.7398 C   0  0  0  0  0  0  0  0  0  0  0  0
    3.2901    1.3071    1.7828 O   0  0  0  0  0  0  0  0  0  0  0  0
    5.0670    0.2364    0.8348 N   0  0  0  0  0  0  0  0  0  0  0  0
    5.7339    0.1235    2.1446 C   0  0  1  0  0  0  0  0  0  0  0  0
    5.7914   -1.3141    2.5806 C   0  0  0  0  0  0  0  0  0  0  0  0
    6.5424   -2.1976    1.6582 C   0  0  0  0  0  0  0  0  0  0  0  0
    7.8762   -2.5137    1.8152 C   0  0  0  0  0  0  0  0  0  0  0  0
    8.5779   -3.3271    0.9359 C   0  0  0  0  0  0  0  0  0  0  0  0
    7.9237   -3.8562   -0.1576 C   0  0  0  0  0  0  0  0  0  0  0  0
    8.5851   -4.6794   -1.0721 O   0  0  0  0  0  0  0  0  0  0  0  0
    6.5844   -3.5468   -0.3259 C   0  0  0  0  0  0  0  0  0  0  0  0
    5.8990   -2.7403    0.5505 C   0  0  0  0  0  0  0  0  0  0  0  0
    7.0729    0.7075    2.1409 C   0  0  0  0  0  0  0  0  0  0  0  0
    7.8173    0.7321    3.3410 N   0  0  0  0  0  0  0  0  0  0  0  0
    7.5725    1.1850    1.1085 O   0  0  0  0  0  0  0  0  0  0  0  0
  -10.5940   -3.3569    0.7049 H   0  0  0  0  0  0  0  0  0  0  0  0
   -9.5062   -4.5790    1.4267 H   0  0  0  0  0  0  0  0  0  0  0  0
   -9.6593   -2.9297    2.2338 H   0  0  0  0  0  0  0  0  0  0  0  0
   -7.6047   -3.4783    0.7050 H   0  0  0  0  0  0  0  0  0  0  0  0
   -9.4321   -4.4667   -0.9134 H   0  0  0  0  0  0  0  0  0  0  0  0
   -8.0065   -3.7480   -1.6519 H   0  0  0  0  0  0  0  0  0  0  0  0
   -9.6034   -2.8191   -1.5427 H   0  0  0  0  0  0  0  0  0  0  0  0
   -9.5121   -1.1105    0.2199 H   0  0  0  0  0  0  0  0  0  0  0  0
   -8.3185   -1.2788    1.5654 H   0  0  0  0  0  0  0  0  0  0  0  0
   -7.7521    0.3223   -0.1357 H   0  0  0  0  0  0  0  0  0  0  0  0
   -6.9162   -1.6650   -2.0371 H   0  0  0  0  0  0  0  0  0  0  0  0
   -7.3858   -0.0738   -2.2729 H   0  0  0  0  0  0  0  0  0  0  0  0
   -5.0947   -0.8836   -1.6041 H   0  0  0  0  0  0  0  0  0  0  0  0
   -3.7604   -1.2360    1.0842 H   0  0  0  0  0  0  0  0  0  0  0  0
   -3.3310   -3.1890   -0.1882 H   0  0  0  0  0  0  0  0  0  0  0  0
   -1.8746   -2.2070   -0.0664 H   0  0  0  0  0  0  0  0  0  0  0  0
   -0.8439   -1.1893   -2.0922 H   0  0  0  0  0  0  0  0  0  0  0  0
   -0.6503   -1.1668   -4.5342 H   0  0  0  0  0  0  0  0  0  0  0  0
   -2.3636   -2.1609   -5.9383 H   0  0  0  0  0  0  0  0  0  0  0  0
   -4.3114   -3.1940   -4.9055 H   0  0  0  0  0  0  0  0  0  0  0  0
   -4.5607   -3.2442   -2.4638 H   0  0  0  0  0  0  0  0  0  0  0  0
   -1.2202   -0.6063    1.0305 H   0  0  0  0  0  0  0  0  0  0  0  0
   -1.0741    2.0792   -0.3347 H   0  0  0  0  0  0  0  0  0  0  0  0
   -0.4344    1.2780    2.5565 H   0  0  0  0  0  0  0  0  0  0  0  0
   -1.8811    2.2414    1.9843 H   0  0  0  0  0  0  0  0  0  0  0  0
    1.0965    3.0737    1.8096 H   0  0  0  0  0  0  0  0  0  0  0  0
   -0.2787    4.0172    1.1656 H   0  0  0  0  0  0  0  0  0  0  0  0
    0.1983    3.1238    4.0455 H   0  0  0  0  0  0  0  0  0  0  0  0
   -1.2564    4.0717    3.4155 H   0  0  0  0  0  0  0  0  0  0  0  0
    1.2245    5.4113    2.6661 H   0  0  0  0  0  0  0  0  0  0  0  0
    2.0537    6.7125    5.8059 H   0  0  0  0  0  0  0  0  0  0  0  0
    1.6131    7.6061    4.2568 H   0  0  0  0  0  0  0  0  0  0  0  0
   -1.0446    4.8082    5.3793 H   0  0  0  0  0  0  0  0  0  0  0  0
    1.7779    2.7142   -0.2980 H   0  0  0  0  0  0  0  0  0  0  0  0
    2.8305   -0.0510   -0.8287 H   0  0  0  0  0  0  0  0  0  0  0  0
    4.1575    2.7468   -0.9476 H   0  0  0  0  0  0  0  0  0  0  0  0
    4.9556    1.3041   -1.5610 H   0  0  0  0  0  0  0  0  0  0  0  0
    4.1546    0.3867   -3.7494 H   0  0  0  0  0  0  0  0  0  0  0  0
    3.3042    0.9458   -5.9884 H   0  0  0  0  0  0  0  0  0  0  0  0
    2.0563    3.0123   -6.3275 H   0  0  0  0  0  0  0  0  0  0  0  0
    1.6612    4.5040   -4.4385 H   0  0  0  0  0  0  0  0  0  0  0  0
    2.4897    3.9829   -2.2019 H   0  0  0  0  0  0  0  0  0  0  0  0
    5.5932   -0.1627    0.0289 H   0  0  0  0  0  0  0  0  0  0  0  0
    5.0595    0.6554    2.8673 H   0  0  0  0  0  0  0  0  0  0  0  0
    6.3122   -1.3446    3.5730 H   0  0  0  0  0  0  0  0  0  0  0  0
    4.7786   -1.7387    2.7692 H   0  0  0  0  0  0  0  0  0  0  0  0
    8.4204   -2.1243    2.6704 H   0  0  0  0  0  0  0  0  0  0  0  0
    9.6243   -3.5677    1.0702 H   0  0  0  0  0  0  0  0  0  0  0  0
    8.6054   -5.6945   -0.9321 H   0  0  0  0  0  0  0  0  0  0  0  0
    6.0601   -3.9593   -1.1878 H   0  0  0  0  0  0  0  0  0  0  0  0
    4.8517   -2.5131    0.3963 H   0  0  0  0  0  0  0  0  0  0  0  0
    8.6423    0.1202    3.4482 H   0  0  0  0  0  0  0  0  0  0  0  0
    7.5251    1.3687    4.1036 H   0  0  0  0  0  0  0  0  0  0  0  0
  1  2  1  0
  2  3  1  0
  2  4  1  0
  4  5  1  0
  5  6  1  0
  5  7  1  0
  7  8  2  0
  7  9  1  0
  9 10  1  0
 10 11  1  0
 11 12  1  0
 12 13  2  0
 13 14  1  0
 14 15  2  0
 15 16  1  0
 16 17  2  0
 10 18  1  0
 18 19  2  0
 18 20  1  0
 20 21  1  0
 21 22  1  0
 22 23  1  0
 23 24  1  0
 24 25  1  0
 25 26  1  0
 26 27  1  0
 26 28  2  3
 21 29  1  0
 29 30  2  0
 29 31  1  0
 31 32  1  0
 32 33  1  0
 33 34  1  0
 34 35  2  0
 35 36  1  0
 36 37  2  0
 37 38  1  0
 38 39  2  0
 32 40  1  0
 40 41  2  0
 40 42  1  0
 42 43  1  0
 43 44  1  0
 44 45  1  0
 45 46  2  0
 46 47  1  0
 47 48  2  0
 48 49  1  0
 48 50  1  0
 50 51  2  0
 43 52  1  0
 52 53  1  0
 52 54  2  0
 17 12  1  0
 39 34  1  0
 51 45  1  0
  1 55  1  0
  1 56  1  0
  1 57  1  0
  2 58  1  0
  3 59  1  0
  3 60  1  0
  3 61  1  0
  4 62  1  0
  4 63  1  0
  5 64  1  6
  6 65  1  0
  6 66  1  0
  9 67  1  0
 10 68  1  1
 11 69  1  0
 11 70  1  0
 13 71  1  0
 14 72  1  0
 15 73  1  0
 16 74  1  0
 17 75  1  0
 20 76  1  0
 21 77  1  6
 22 78  1  0
 22 79  1  0
 23 80  1  0
 23 81  1  0
 24 82  1  0
 24 83  1  0
 25 84  1  0
 27 85  1  0
 27 86  1  0
 28 87  1  0
 31 88  1  0
 32 89  1  6
 33 90  1  0
 33 91  1  0
 35 92  1  0
 36 93  1  0
 37 94  1  0
 38 95  1  0
 39 96  1  0
 42 97  1  0
 43 98  1  1
 44 99  1  0
 44100  1  0
 46101  1  0
 47102  1  0
 49103  1  0
 50104  1  0
 51105  1  0
 53106  1  0
 53107  1  0
M  END
$$$$
[H]OC(=O)C([H])([H])[C@@]([H])(C(=O)N([H])C([H])(C([H])(C([H])([H])[H])C([H])([H])[H])C([H])(C([H])([H])[H])C([H])([H])[H])N([H])C(=O)[C@@]([H])(N([H])C(=O)[C@@]([H])(N([H])C(=O)OC([H])([H])c1c([H])c([H])c([H])c([H])c1[H])C([H])([H])C([H])(C([H])([H])[H])C([H])([H])[H])C([H])([H])C([H])(C([H])([H])[H])C([H])([H])[H]
     RDKit          3D

 92 92  0  0  0  0  0  0  0  0999 V2000
   -7.3391    2.1122   -0.0647 C   0  0  0  0  0  0  0  0  0  0  0  0
   -7.2358    1.1915    1.1336 C   0  0  0  0  0  0  0  0  0  0  0  0
   -8.6146    0.7991    1.5405 C   0  0  0  0  0  0  0  0  0  0  0  0
   -6.2365    0.1572    0.9519 C   0  0  0  0  0  0  0  0  0  0  0  0
   -4.9076    0.7051    0.7467 N   0  0  0  0  0  0  0  0  0  0  0  0
   -3.9865    0.2386   -0.2444 C   0  0  0  0  0  0  0  0  0  0  0  0
   -4.3663   -0.6893   -0.9752 O   0  0  0  0  0  0  0  0  0  0  0  0
   -2.6581    0.8508   -0.3534 C   0  0  2  0  0  0  0  0  0  0  0  0
   -2.8505    2.2935   -0.8710 C   0  0  0  0  0  0  0  0  0  0  0  0
   -3.4833    2.2954   -2.2155 C   0  0  0  0  0  0  0  0  0  0  0  0
   -2.8544    2.8825   -3.3121 O   0  0  0  0  0  0  0  0  0  0  0  0
   -4.5930    1.7638   -2.3761 O   0  0  0  0  0  0  0  0  0  0  0  0
   -1.7300    0.1835   -1.2638 N   0  0  0  0  0  0  0  0  0  0  0  0
   -0.5242   -0.3738   -0.8143 C   0  0  0  0  0  0  0  0  0  0  0  0
   -0.2969   -0.2983    0.4444 O   0  0  0  0  0  0  0  0  0  0  0  0
    0.4718   -1.0070   -1.6571 C   0  0  2  0  0  0  0  0  0  0  0  0
    0.1113   -1.8799   -2.7542 C   0  0  0  0  0  0  0  0  0  0  0  0
   -0.6579   -3.1090   -2.6126 C   0  0  0  0  0  0  0  0  0  0  0  0
   -0.0419   -4.1486   -1.7103 C   0  0  0  0  0  0  0  0  0  0  0  0
   -2.1058   -3.0332   -2.3133 C   0  0  0  0  0  0  0  0  0  0  0  0
    1.6460   -1.4378   -0.8537 N   0  0  0  0  0  0  0  0  0  0  0  0
    2.6690   -0.5655   -0.5047 C   0  0  0  0  0  0  0  0  0  0  0  0
    2.5223    0.6433   -0.9328 O   0  0  0  0  0  0  0  0  0  0  0  0
    3.8845   -0.8150    0.2728 C   0  0  2  0  0  0  0  0  0  0  0  0
    3.7379   -1.2333    1.6909 C   0  0  0  0  0  0  0  0  0  0  0  0
    3.0159   -2.5140    1.9247 C   0  0  0  0  0  0  0  0  0  0  0  0
    2.9674   -2.8003    3.4432 C   0  0  0  0  0  0  0  0  0  0  0  0
    3.6739   -3.7017    1.2686 C   0  0  0  0  0  0  0  0  0  0  0  0
    4.6713    0.4496    0.2497 N   0  0  0  0  0  0  0  0  0  0  0  0
    5.9281    0.5298   -0.4048 C   0  0  0  0  0  0  0  0  0  0  0  0
    6.4153   -0.4632   -0.9979 O   0  0  0  0  0  0  0  0  0  0  0  0
    6.6486    1.7102   -0.3997 O   0  0  0  0  0  0  0  0  0  0  0  0
    7.8898    1.8250   -1.0315 C   0  0  0  0  0  0  0  0  0  0  0  0
    8.4639    3.1921   -0.8557 C   0  0  0  0  0  0  0  0  0  0  0  0
    9.0108    3.4671    0.3950 C   0  0  0  0  0  0  0  0  0  0  0  0
    9.5591    4.7176    0.6318 C   0  0  0  0  0  0  0  0  0  0  0  0
    9.5429    5.6404   -0.3775 C   0  0  0  0  0  0  0  0  0  0  0  0
    9.0015    5.3619   -1.6110 C   0  0  0  0  0  0  0  0  0  0  0  0
    8.4519    4.1178   -1.8565 C   0  0  0  0  0  0  0  0  0  0  0  0
   -6.0618   -0.8367    2.0846 C   0  0  0  0  0  0  0  0  0  0  0  0
   -5.6639   -0.2204    3.3844 C   0  0  0  0  0  0  0  0  0  0  0  0
   -7.1633   -1.8478    2.1850 C   0  0  0  0  0  0  0  0  0  0  0  0
   -8.1193    2.8820    0.0383 H   0  0  0  0  0  0  0  0  0  0  0  0
   -6.3617    2.6301   -0.2694 H   0  0  0  0  0  0  0  0  0  0  0  0
   -7.5541    1.4512   -0.9344 H   0  0  0  0  0  0  0  0  0  0  0  0
   -6.8844    1.8851    1.9654 H   0  0  0  0  0  0  0  0  0  0  0  0
   -9.0527   -0.0481    1.0112 H   0  0  0  0  0  0  0  0  0  0  0  0
   -9.2858    1.6762    1.2759 H   0  0  0  0  0  0  0  0  0  0  0  0
   -8.7412    0.7308    2.6644 H   0  0  0  0  0  0  0  0  0  0  0  0
   -6.4511   -0.4888    0.0692 H   0  0  0  0  0  0  0  0  0  0  0  0
   -4.5989    1.4844    1.3604 H   0  0  0  0  0  0  0  0  0  0  0  0
   -2.2447    0.9043    0.6765 H   0  0  0  0  0  0  0  0  0  0  0  0
   -3.4872    2.8678   -0.1912 H   0  0  0  0  0  0  0  0  0  0  0  0
   -1.8183    2.7098   -0.9193 H   0  0  0  0  0  0  0  0  0  0  0  0
   -3.3635    2.9949   -4.1750 H   0  0  0  0  0  0  0  0  0  0  0  0
   -1.9977    0.1361   -2.2634 H   0  0  0  0  0  0  0  0  0  0  0  0
    0.9475   -0.0677   -2.1785 H   0  0  0  0  0  0  0  0  0  0  0  0
   -0.3692   -1.2239   -3.5650 H   0  0  0  0  0  0  0  0  0  0  0  0
    1.0873   -2.1553   -3.2835 H   0  0  0  0  0  0  0  0  0  0  0  0
   -0.6152   -3.6256   -3.6458 H   0  0  0  0  0  0  0  0  0  0  0  0
   -0.1724   -3.9067   -0.6401 H   0  0  0  0  0  0  0  0  0  0  0  0
   -0.4776   -5.1702   -1.9179 H   0  0  0  0  0  0  0  0  0  0  0  0
    1.0238   -4.2459   -1.9834 H   0  0  0  0  0  0  0  0  0  0  0  0
   -2.3539   -2.9388   -1.2399 H   0  0  0  0  0  0  0  0  0  0  0  0
   -2.5772   -2.2074   -2.9255 H   0  0  0  0  0  0  0  0  0  0  0  0
   -2.5962   -3.9578   -2.6718 H   0  0  0  0  0  0  0  0  0  0  0  0
    1.6445   -2.4237   -0.6042 H   0  0  0  0  0  0  0  0  0  0  0  0
    4.5555   -1.5640   -0.2313 H   0  0  0  0  0  0  0  0  0  0  0  0
    4.7530   -1.2997    2.1642 H   0  0  0  0  0  0  0  0  0  0  0  0
    3.2085   -0.4524    2.3035 H   0  0  0  0  0  0  0  0  0  0  0  0
    1.9653   -2.4090    1.5900 H   0  0  0  0  0  0  0  0  0  0  0  0
    3.8844   -3.3285    3.7526 H   0  0  0  0  0  0  0  0  0  0  0  0
    2.8689   -1.8208    3.9327 H   0  0  0  0  0  0  0  0  0  0  0  0
    2.1021   -3.4401    3.6295 H   0  0  0  0  0  0  0  0  0  0  0  0
    3.7655   -4.5803    1.9574 H   0  0  0  0  0  0  0  0  0  0  0  0
    3.2100   -3.9954    0.3057 H   0  0  0  0  0  0  0  0  0  0  0  0
    4.7318   -3.4177    0.9997 H   0  0  0  0  0  0  0  0  0  0  0  0
    4.2424    1.2400    0.7380 H   0  0  0  0  0  0  0  0  0  0  0  0
    7.8489    1.6398   -2.1287 H   0  0  0  0  0  0  0  0  0  0  0  0
    8.5965    1.1046   -0.5862 H   0  0  0  0  0  0  0  0  0  0  0  0
    9.0176    2.7366    1.1780 H   0  0  0  0  0  0  0  0  0  0  0  0
    9.9728    4.9204    1.5872 H   0  0  0  0  0  0  0  0  0  0  0  0
    9.9696    6.6058   -0.1893 H   0  0  0  0  0  0  0  0  0  0  0  0
    8.9762    6.0746   -2.4215 H   0  0  0  0  0  0  0  0  0  0  0  0
    8.0269    3.8998   -2.8294 H   0  0  0  0  0  0  0  0  0  0  0  0
   -5.1539   -1.4374    1.7516 H   0  0  0  0  0  0  0  0  0  0  0  0
   -4.8054   -0.7433    3.8607 H   0  0  0  0  0  0  0  0  0  0  0  0
   -6.4909   -0.2793    4.1530 H   0  0  0  0  0  0  0  0  0  0  0  0
   -5.3283    0.8410    3.2689 H   0  0  0  0  0  0  0  0  0  0  0  0
   -6.8374   -2.8557    2.4960 H   0  0  0  0  0  0  0  0  0  0  0  0
   -7.9549   -1.5175    2.9060 H   0  0  0  0  0  0  0  0  0  0  0  0
   -7.6180   -1.9682    1.1750 H   0  0  0  0  0  0  0  0  0  0  0  0
  1  2  1  0
  2  3  1  0
  2  4  1  0
  4  5  1  0
  5  6  1  0
  6  7  2  0
  6  8  1  0
  8  9  1  0
  9 10  1  0
 10 11  1  0
 10 12  2  0
  8 13  1  0
 13 14  1  0
 14 15  2  0
 14 16  1  0
 16 17  1  0
 17 18  1  0
 18 19  1  0
 18 20  1  0
 16 21  1  0
 21 22  1  0
 22 23  2  0
 22 24  1  0
 24 25  1  0
 25 26  1  0
 26 27  1  0
 26 28  1  0
 24 29  1  0
 29 30  1  0
 30 31  2  0
 30 32  1  0
 32 33  1  0
 33 34  1  0
 34 35  2  0
 35 36  1  0
 36 37  2  0
 37 38  1  0
 38 39  2  0
  4 40  1  0
 40 41  1  0
 40 42  1  0
 39 34  1  0
  1 43  1  0
  1 44  1  0
  1 45  1  0
  2 46  1  0
  3 47  1  0
  3 48  1  0
  3 49  1  0
  4 50  1  0
  5 51  1  0
  8 52  1  1
  9 53  1  0
  9 54  1  0
 11 55  1  0
 13 56  1  0
 16 57  1  6
 17 58  1  0
 17 59  1  0
 18 60  1  0
 19 61  1  0
 19 62  1  0
 19 63  1  0
 20 64  1  0
 20 65  1  0
 20 66  1  0
 21 67  1  0
 24 68  1  6
 25 69  1  0
 25 70  1  0
 26 71  1  0
 27 72  1  0
 27 73  1  0
 27 74  1  0
 28 75  1  0
 28 76  1  0
 28 77  1  0
 29 78  1  0
 33 79  1  0
 33 80  1  0
 35 81  1  0
 36 82  1  0
 37 83  1  0
 38 84  1  0
 39 85  1  0
 40 86  1  0
 41 87  1  0
 41 88  1  0
 41 89  1  0
 42 90  1  0
 42 91  1  0
 42 92  1  0
M  END
$$$$
[H]c1c([H])c([H])c2c(c1[H])c1c3c(c4c5c([H])c([H])c([H])c([H])c5n5c4c1n2[C@@]1([H])O[C@@]5(C([H])([H])[H])[C@@]([H])(OC([H])([H])[H])[C@@]([H])(N([H])C([H])([H])[H])C1([H])[H])C([H])([H])N([H])C3=O
     RDKit          3D

 61 68  0  0  0  0  0  0  0  0999 V2000
   -4.6833   -2.4529   -1.1244 C   0  0  0  0  0  0  0  0  0  0  0  0
   -4.0387   -1.1797   -1.0019 N   0  0  0  0  0  0  0  0  0  0  0  0
   -3.0503   -1.2560    0.0116 C   0  0  1  0  0  0  0  0  0  0  0  0
   -1.9260   -2.2851   -0.3398 C   0  0  0  0  0  0  0  0  0  0  0  0
   -0.8121   -1.4828   -0.2846 C   0  0  2  0  0  0  0  0  0  0  0  0
   -1.0465   -0.5115   -1.2498 O   0  0  0  0  0  0  0  0  0  0  0  0
   -1.4741    0.6532   -0.5375 C   0  0  1  0  0  0  0  0  0  0  0  0
   -2.1106    1.4727   -1.6767 C   0  0  0  0  0  0  0  0  0  0  0  0
   -2.4668    0.1342    0.3802 C   0  0  1  0  0  0  0  0  0  0  0  0
   -3.6343    0.9414    0.2122 O   0  0  0  0  0  0  0  0  0  0  0  0
   -4.0599    1.5000    1.3895 C   0  0  0  0  0  0  0  0  0  0  0  0
   -0.2340    1.2623   -0.1071 N   0  0  0  0  0  0  0  0  0  0  0  0
   -0.0339    2.5787    0.0874 C   0  0  0  0  0  0  0  0  0  0  0  0
   -0.8817    3.6586    0.0907 C   0  0  0  0  0  0  0  0  0  0  0  0
   -0.3982    4.9552    0.3380 C   0  0  0  0  0  0  0  0  0  0  0  0
    0.9373    5.1915    0.5858 C   0  0  0  0  0  0  0  0  0  0  0  0
    1.8084    4.1099    0.5869 C   0  0  0  0  0  0  0  0  0  0  0  0
    1.2984    2.8545    0.3406 C   0  0  0  0  0  0  0  0  0  0  0  0
    1.9545    1.6737    0.3091 C   0  0  0  0  0  0  0  0  0  0  0  0
    3.2812    1.2312    0.4419 C   0  0  0  0  0  0  0  0  0  0  0  0
    4.4659    2.0568    0.7187 C   0  0  0  0  0  0  0  0  0  0  0  0
    5.5640    1.1224    0.7614 N   0  0  0  0  0  0  0  0  0  0  0  0
    5.0777   -0.2069    0.5141 C   0  0  0  0  0  0  0  0  0  0  0  0
    5.8654   -1.1675    0.5021 O   0  0  0  0  0  0  0  0  0  0  0  0
    3.6490   -0.0981    0.3198 C   0  0  0  0  0  0  0  0  0  0  0  0
    2.6968   -1.0703    0.0586 C   0  0  0  0  0  0  0  0  0  0  0  0
    2.6703   -2.4328   -0.0706 C   0  0  0  0  0  0  0  0  0  0  0  0
    3.6302   -3.3829   -0.0425 C   0  0  0  0  0  0  0  0  0  0  0  0
    3.2386   -4.7235   -0.2140 C   0  0  0  0  0  0  0  0  0  0  0  0
    1.9134   -5.0506   -0.4048 C   0  0  0  0  0  0  0  0  0  0  0  0
    0.9391   -4.0661   -0.4317 C   0  0  0  0  0  0  0  0  0  0  0  0
    1.3441   -2.7664   -0.2622 C   0  0  0  0  0  0  0  0  0  0  0  0
    0.5791   -1.6807   -0.2561 N   0  0  0  0  0  0  0  0  0  0  0  0
    1.4079   -0.6178   -0.0669 C   0  0  0  0  0  0  0  0  0  0  0  0
    1.0345    0.7277    0.0476 C   0  0  0  0  0  0  0  0  0  0  0  0
   -5.7524   -2.4030   -1.3916 H   0  0  0  0  0  0  0  0  0  0  0  0
   -4.6113   -3.0741   -0.2101 H   0  0  0  0  0  0  0  0  0  0  0  0
   -4.1814   -2.9884   -1.9790 H   0  0  0  0  0  0  0  0  0  0  0  0
   -4.7576   -0.4935   -0.6841 H   0  0  0  0  0  0  0  0  0  0  0  0
   -3.5108   -1.6231    0.9475 H   0  0  0  0  0  0  0  0  0  0  0  0
   -2.2159   -2.6681   -1.3383 H   0  0  0  0  0  0  0  0  0  0  0  0
   -1.9814   -3.1462    0.3591 H   0  0  0  0  0  0  0  0  0  0  0  0
   -0.9199   -1.0504    0.8123 H   0  0  0  0  0  0  0  0  0  0  0  0
   -3.0248    1.9872   -1.3773 H   0  0  0  0  0  0  0  0  0  0  0  0
   -1.3835    2.2127   -2.0584 H   0  0  0  0  0  0  0  0  0  0  0  0
   -2.2822    0.7631   -2.5197 H   0  0  0  0  0  0  0  0  0  0  0  0
   -2.2514    0.2094    1.4618 H   0  0  0  0  0  0  0  0  0  0  0  0
   -4.3215    0.7547    2.1656 H   0  0  0  0  0  0  0  0  0  0  0  0
   -3.2408    2.1853    1.7470 H   0  0  0  0  0  0  0  0  0  0  0  0
   -4.9164    2.1622    1.1548 H   0  0  0  0  0  0  0  0  0  0  0  0
   -1.9183    3.5518   -0.0804 H   0  0  0  0  0  0  0  0  0  0  0  0
   -1.0991    5.7718    0.3307 H   0  0  0  0  0  0  0  0  0  0  0  0
    1.3041    6.1848    0.7744 H   0  0  0  0  0  0  0  0  0  0  0  0
    2.8628    4.2784    0.7812 H   0  0  0  0  0  0  0  0  0  0  0  0
    4.6269    2.8692   -0.0183 H   0  0  0  0  0  0  0  0  0  0  0  0
    4.3531    2.4561    1.7621 H   0  0  0  0  0  0  0  0  0  0  0  0
    6.5610    1.3716    0.9443 H   0  0  0  0  0  0  0  0  0  0  0  0
    4.6675   -3.1672    0.1002 H   0  0  0  0  0  0  0  0  0  0  0  0
    4.0012   -5.4721   -0.1909 H   0  0  0  0  0  0  0  0  0  0  0  0
    1.5914   -6.0773   -0.5386 H   0  0  0  0  0  0  0  0  0  0  0  0
   -0.1048   -4.2874   -0.5799 H   0  0  0  0  0  0  0  0  0  0  0  0
  1  2  1  0
  2  3  1  0
  3  4  1  0
  4  5  1  0
  5  6  1  0
  6  7  1  0
  7  8  1  6
  7  9  1  0
  9 10  1  0
 10 11  1  0
  7 12  1  0
 12 13  1  0
 13 14  2  0
 14 15  1  0
 15 16  2  0
 16 17  1  0
 17 18  2  0
 18 19  1  0
 19 20  2  0
 20 21  1  0
 21 22  1  0
 22 23  1  0
 23 24  2  0
 23 25  1  0
 25 26  2  0
 26 27  1  0
 27 28  2  0
 28 29  1  0
 29 30  2  0
 30 31  1  0
 31 32  2  0
 32 33  1  0
 33 34  1  0
 34 35  2  0
  9  3  1  0
 35 12  1  0
 33  5  1  0
 18 13  1  0
 35 19  1  0
 25 20  1  0
 34 26  1  0
 32 27  1  0
  1 36  1  0
  1 37  1  0
  1 38  1  0
  2 39  1  0
  3 40  1  1
  4 41  1  0
  4 42  1  0
  5 43  1  1
  8 44  1  0
  8 45  1  0
  8 46  1  0
  9 47  1  1
 11 48  1  0
 11 49  1  0
 11 50  1  0
 14 51  1  0
 15 52  1  0
 16 53  1  0
 17 54  1  0
 21 55  1  0
 21 56  1  0
 22 57  1  0
 28 58  1  0
 29 59  1  0
 30 60  1  0
 31 61  1  0
M  END
$$$$
[H]OC([H])([H])[C@@]1([H])O[C@@]([H])(n2c([H])nc3c(N([H])C([H])([H])c4c([H])c([H])c([H])c([H])c4[H])nc([H])nc32)[C@]([H])(O[H])[C@]1([H])O[H]
     RDKit          3D

 45 48  0  0  0  0  0  0  0  0999 V2000
   -5.1765    2.0805    1.4665 O   0  0  0  0  0  0  0  0  0  0  0  0
   -5.3802    0.7211    1.4119 C   0  0  0  0  0  0  0  0  0  0  0  0
   -5.0454    0.1768    0.0264 C   0  0  1  0  0  0  0  0  0  0  0  0
   -3.7195    0.4487   -0.2458 O   0  0  0  0  0  0  0  0  0  0  0  0
   -3.2286   -0.6152   -0.9944 C   0  0  2  0  0  0  0  0  0  0  0  0
   -3.8098   -1.8022   -0.2545 C   0  0  2  0  0  0  0  0  0  0  0  0
   -3.7755   -2.9657   -0.9863 O   0  0  0  0  0  0  0  0  0  0  0  0
   -5.2408   -1.3022   -0.0265 C   0  0  2  0  0  0  0  0  0  0  0  0
   -5.9716   -1.6013   -1.1732 O   0  0  0  0  0  0  0  0  0  0  0  0
   -1.7659   -0.6141   -0.9338 N   0  0  0  0  0  0  0  0  0  0  0  0
   -0.9592   -1.5567   -1.4498 C   0  0  0  0  0  0  0  0  0  0  0  0
    0.3248   -1.2376   -1.2113 N   0  0  0  0  0  0  0  0  0  0  0  0
    0.3517   -0.0797   -0.5356 C   0  0  0  0  0  0  0  0  0  0  0  0
    1.3977    0.7054   -0.0353 C   0  0  0  0  0  0  0  0  0  0  0  0
    2.7546    0.2863   -0.2239 N   0  0  0  0  0  0  0  0  0  0  0  0
    3.7697    1.1565    0.3247 C   0  0  0  0  0  0  0  0  0  0  0  0
    5.1458    0.6607    0.1184 C   0  0  0  0  0  0  0  0  0  0  0  0
    5.4315   -0.6666   -0.0279 C   0  0  0  0  0  0  0  0  0  0  0  0
    6.7327   -1.1366   -0.2282 C   0  0  0  0  0  0  0  0  0  0  0  0
    7.7437   -0.2011   -0.2750 C   0  0  0  0  0  0  0  0  0  0  0  0
    7.4915    1.1295   -0.1325 C   0  0  0  0  0  0  0  0  0  0  0  0
    6.2126    1.5683    0.0624 C   0  0  0  0  0  0  0  0  0  0  0  0
    1.0633    1.8299    0.6061 N   0  0  0  0  0  0  0  0  0  0  0  0
   -0.2350    2.1908    0.7631 C   0  0  0  0  0  0  0  0  0  0  0  0
   -1.2319    1.4306    0.2793 N   0  0  0  0  0  0  0  0  0  0  0  0
   -0.9625    0.2984   -0.3692 C   0  0  0  0  0  0  0  0  0  0  0  0
   -6.0349    2.5664    1.3759 H   0  0  0  0  0  0  0  0  0  0  0  0
   -6.4750    0.5188    1.5779 H   0  0  0  0  0  0  0  0  0  0  0  0
   -4.7849    0.2344    2.1948 H   0  0  0  0  0  0  0  0  0  0  0  0
   -5.6568    0.7143   -0.7154 H   0  0  0  0  0  0  0  0  0  0  0  0
   -3.5875   -0.6149   -2.0387 H   0  0  0  0  0  0  0  0  0  0  0  0
   -3.2718   -1.8750    0.7225 H   0  0  0  0  0  0  0  0  0  0  0  0
   -3.5202   -3.7172   -0.3628 H   0  0  0  0  0  0  0  0  0  0  0  0
   -5.6765   -1.6894    0.8935 H   0  0  0  0  0  0  0  0  0  0  0  0
   -5.8361   -0.8837   -1.8655 H   0  0  0  0  0  0  0  0  0  0  0  0
   -1.2464   -2.4633   -1.9898 H   0  0  0  0  0  0  0  0  0  0  0  0
    2.9458   -0.6052   -0.7387 H   0  0  0  0  0  0  0  0  0  0  0  0
    3.5272    1.2746    1.4094 H   0  0  0  0  0  0  0  0  0  0  0  0
    3.6208    2.1619   -0.1553 H   0  0  0  0  0  0  0  0  0  0  0  0
    4.6227   -1.4064    0.0142 H   0  0  0  0  0  0  0  0  0  0  0  0
    6.9332   -2.1833   -0.3406 H   0  0  0  0  0  0  0  0  0  0  0  0
    8.7558   -0.5366   -0.4283 H   0  0  0  0  0  0  0  0  0  0  0  0
    8.2972    1.8728   -0.1700 H   0  0  0  0  0  0  0  0  0  0  0  0
    5.9728    2.6244    0.1804 H   0  0  0  0  0  0  0  0  0  0  0  0
   -0.5027    3.1028    1.2834 H   0  0  0  0  0  0  0  0  0  0  0  0
  1  2  1  0
  2  3  1  0
  3  4  1  0
  4  5  1  0
  5  6  1  0
  6  7  1  0
  6  8  1  0
  8  9  1  0
  5 10  1  0
 10 11  1  0
 11 12  2  0
 12 13  1  0
 13 14  2  0
 14 15  1  0
 15 16  1  0
 16 17  1  0
 17 18  2  0
 18 19  1  0
 19 20  2  0
 20 21  1  0
 21 22  2  0
 14 23  1  0
 23 24  2  0
 24 25  1  0
 25 26  2  0
  8  3  1  0
 26 10  1  0
 26 13  1  0
 22 17  1  0
  1 27  1  0
  2 28  1  0
  2 29  1  0
  3 30  1  6
  5 31  1  6
  6 32  1  1
  7 33  1  0
  8 34  1  1
  9 35  1  0
 11 36  1  0
 15 37  1  0
 16 38  1  0
 16 39  1  0
 18 40  1  0
 19 41  1  0
 20 42  1  0
 21 43  1  0
 22 44  1  0
 24 45  1  0
M  END
$$$$
[H]c1c([H])c([H])c(C([H])([H])OC(=O)N([H])[C@]([H])(C(=O)N([H])[C@]([H])(C(=O)N([H])[C@]([H])(C(=O)N([H])[C@]([H])(C(=O)N([H])[H])C([H])([H])c2c([H])c([H])c([H])c([H])c2[H])C([H])([H])c2c([H])c([H])c([H])c([H])c2[H])C([H])(C([H])([H])[H])C([H])([H])[H])C([H])([H])c2c([H])c([H])c([H])c([H])c2[H])c([H])c1[H]
     RDKit          3D

 96 99  0  0  0  0  0  0  0  0999 V2000
   -0.6057    2.6628    2.3592 C   0  0  0  0  0  0  0  0  0  0  0  0
    0.4414    2.3562    1.3207 C   0  0  0  0  0  0  0  0  0  0  0  0
    0.2601    3.1714    0.0710 C   0  0  0  0  0  0  0  0  0  0  0  0
    0.4579    0.8611    1.0225 C   0  0  2  0  0  0  0  0  0  0  0  0
    1.4587    0.5431    0.0291 N   0  0  0  0  0  0  0  0  0  0  0  0
    2.7542    0.0847    0.3787 C   0  0  0  0  0  0  0  0  0  0  0  0
    2.9981   -0.0106    1.6253 O   0  0  0  0  0  0  0  0  0  0  0  0
    3.8071   -0.2765   -0.5974 C   0  0  2  0  0  0  0  0  0  0  0  0
    3.6186   -1.7434   -1.0276 C   0  0  0  0  0  0  0  0  0  0  0  0
    4.6597   -2.1528   -2.0148 C   0  0  0  0  0  0  0  0  0  0  0  0
    5.8759   -2.6613   -1.6233 C   0  0  0  0  0  0  0  0  0  0  0  0
    6.8156   -3.0399   -2.5538 C   0  0  0  0  0  0  0  0  0  0  0  0
    6.5816   -2.9270   -3.9271 C   0  0  0  0  0  0  0  0  0  0  0  0
    5.3520   -2.4138   -4.2812 C   0  0  0  0  0  0  0  0  0  0  0  0
    4.4068   -2.0330   -3.3668 C   0  0  0  0  0  0  0  0  0  0  0  0
    5.1351   -0.1654   -0.0856 N   0  0  0  0  0  0  0  0  0  0  0  0
    6.1795    0.5345   -0.7542 C   0  0  0  0  0  0  0  0  0  0  0  0
    5.8849    1.0711   -1.8655 O   0  0  0  0  0  0  0  0  0  0  0  0
    7.4628    0.6673   -0.2841 O   0  0  0  0  0  0  0  0  0  0  0  0
    8.4478    1.3801   -1.0163 C   0  0  0  0  0  0  0  0  0  0  0  0
    9.7518    1.4081   -0.3093 C   0  0  0  0  0  0  0  0  0  0  0  0
   10.1326    2.5029    0.4492 C   0  0  0  0  0  0  0  0  0  0  0  0
   11.3658    2.4726    1.0843 C   0  0  0  0  0  0  0  0  0  0  0  0
   12.1975    1.3988    0.9753 C   0  0  0  0  0  0  0  0  0  0  0  0
   11.7836    0.3164    0.2055 C   0  0  0  0  0  0  0  0  0  0  0  0
   10.5775    0.3074   -0.4346 C   0  0  0  0  0  0  0  0  0  0  0  0
   -0.8797    0.4015    0.5706 C   0  0  0  0  0  0  0  0  0  0  0  0
   -1.0950    0.4241   -0.6920 O   0  0  0  0  0  0  0  0  0  0  0  0
   -1.8686   -0.0346    1.4186 N   0  0  0  0  0  0  0  0  0  0  0  0
   -3.1878   -0.4715    0.8755 C   0  0  1  0  0  0  0  0  0  0  0  0
   -3.0970   -1.9508    0.7347 C   0  0  0  0  0  0  0  0  0  0  0  0
   -4.2574   -2.6599    0.2023 C   0  0  0  0  0  0  0  0  0  0  0  0
   -4.5182   -2.7484   -1.1545 C   0  0  0  0  0  0  0  0  0  0  0  0
   -5.5959   -3.4865   -1.6533 C   0  0  0  0  0  0  0  0  0  0  0  0
   -6.4205   -4.1441   -0.7672 C   0  0  0  0  0  0  0  0  0  0  0  0
   -6.1815   -4.0709    0.5775 C   0  0  0  0  0  0  0  0  0  0  0  0
   -5.1102   -3.3347    1.0519 C   0  0  0  0  0  0  0  0  0  0  0  0
   -4.2417    0.1005    1.6869 C   0  0  0  0  0  0  0  0  0  0  0  0
   -3.9182    0.6989    2.7583 O   0  0  0  0  0  0  0  0  0  0  0  0
   -5.6177    0.0544    1.3732 N   0  0  0  0  0  0  0  0  0  0  0  0
   -6.6055    0.6957    2.2619 C   0  0  1  0  0  0  0  0  0  0  0  0
   -7.0391    2.0219    1.6409 C   0  0  0  0  0  0  0  0  0  0  0  0
   -7.6448    1.8055    0.2773 C   0  0  0  0  0  0  0  0  0  0  0  0
   -6.8550    1.7741   -0.8430 C   0  0  0  0  0  0  0  0  0  0  0  0
   -7.4207    1.5863   -2.0738 C   0  0  0  0  0  0  0  0  0  0  0  0
   -8.7825    1.4233   -2.2448 C   0  0  0  0  0  0  0  0  0  0  0  0
   -9.5720    1.4549   -1.1276 C   0  0  0  0  0  0  0  0  0  0  0  0
   -9.0018    1.6428    0.1051 C   0  0  0  0  0  0  0  0  0  0  0  0
   -7.7226   -0.1477    2.6479 C   0  0  0  0  0  0  0  0  0  0  0  0
   -8.7343    0.2764    3.5621 N   0  0  0  0  0  0  0  0  0  0  0  0
   -7.8553   -1.3036    2.1955 O   0  0  0  0  0  0  0  0  0  0  0  0
   -0.3976    2.0006    3.2426 H   0  0  0  0  0  0  0  0  0  0  0  0
   -1.6368    2.4846    1.9904 H   0  0  0  0  0  0  0  0  0  0  0  0
   -0.4523    3.7146    2.6915 H   0  0  0  0  0  0  0  0  0  0  0  0
    1.4229    2.6162    1.7389 H   0  0  0  0  0  0  0  0  0  0  0  0
    0.7212    2.6279   -0.7775 H   0  0  0  0  0  0  0  0  0  0  0  0
   -0.8040    3.3914   -0.1552 H   0  0  0  0  0  0  0  0  0  0  0  0
    0.7399    4.1565    0.2394 H   0  0  0  0  0  0  0  0  0  0  0  0
    0.7393    0.3830    1.9721 H   0  0  0  0  0  0  0  0  0  0  0  0
    1.2558    0.6466   -0.9860 H   0  0  0  0  0  0  0  0  0  0  0  0
    3.6963    0.3256   -1.5071 H   0  0  0  0  0  0  0  0  0  0  0  0
    3.5831   -2.4227   -0.1712 H   0  0  0  0  0  0  0  0  0  0  0  0
    2.6194   -1.7688   -1.5251 H   0  0  0  0  0  0  0  0  0  0  0  0
    6.0823   -2.7587   -0.5517 H   0  0  0  0  0  0  0  0  0  0  0  0
    7.7755   -3.4401   -2.2177 H   0  0  0  0  0  0  0  0  0  0  0  0
    7.3485   -3.2387   -4.6350 H   0  0  0  0  0  0  0  0  0  0  0  0
    5.1358   -2.3118   -5.3636 H   0  0  0  0  0  0  0  0  0  0  0  0
    3.4371   -1.6293   -3.7073 H   0  0  0  0  0  0  0  0  0  0  0  0
    5.3795   -0.6098    0.8208 H   0  0  0  0  0  0  0  0  0  0  0  0
    8.1127    2.4187   -1.2386 H   0  0  0  0  0  0  0  0  0  0  0  0
    8.5598    0.8727   -2.0121 H   0  0  0  0  0  0  0  0  0  0  0  0
    9.4718    3.3478    0.5313 H   0  0  0  0  0  0  0  0  0  0  0  0
   11.6365    3.3449    1.6715 H   0  0  0  0  0  0  0  0  0  0  0  0
   13.1582    1.3957    1.4824 H   0  0  0  0  0  0  0  0  0  0  0  0
   12.4271   -0.5299    0.1127 H   0  0  0  0  0  0  0  0  0  0  0  0
   10.2539   -0.5371   -1.0338 H   0  0  0  0  0  0  0  0  0  0  0  0
   -1.7670   -0.0874    2.4370 H   0  0  0  0  0  0  0  0  0  0  0  0
   -3.1755   -0.0715   -0.1860 H   0  0  0  0  0  0  0  0  0  0  0  0
   -2.2678   -2.1198   -0.0281 H   0  0  0  0  0  0  0  0  0  0  0  0
   -2.6857   -2.4461    1.6562 H   0  0  0  0  0  0  0  0  0  0  0  0
   -3.8499   -2.2176   -1.8200 H   0  0  0  0  0  0  0  0  0  0  0  0
   -5.7937   -3.5528   -2.7281 H   0  0  0  0  0  0  0  0  0  0  0  0
   -7.2555   -4.7162   -1.1470 H   0  0  0  0  0  0  0  0  0  0  0  0
   -6.8558   -4.6061    1.2427 H   0  0  0  0  0  0  0  0  0  0  0  0
   -4.9522   -3.2957    2.1219 H   0  0  0  0  0  0  0  0  0  0  0  0
   -5.9150   -0.4229    0.5103 H   0  0  0  0  0  0  0  0  0  0  0  0
   -6.0421    1.0033    3.1741 H   0  0  0  0  0  0  0  0  0  0  0  0
   -7.8279    2.5055    2.2483 H   0  0  0  0  0  0  0  0  0  0  0  0
   -6.2059    2.7211    1.5432 H   0  0  0  0  0  0  0  0  0  0  0  0
   -5.7656    1.9000   -0.7466 H   0  0  0  0  0  0  0  0  0  0  0  0
   -6.7914    1.5584   -2.9912 H   0  0  0  0  0  0  0  0  0  0  0  0
   -9.2085    1.2735   -3.2521 H   0  0  0  0  0  0  0  0  0  0  0  0
  -10.6280    1.3341   -1.2168 H   0  0  0  0  0  0  0  0  0  0  0  0
   -9.6462    1.6653    1.0022 H   0  0  0  0  0  0  0  0  0  0  0  0
   -9.3111    1.1188    3.4834 H   0  0  0  0  0  0  0  0  0  0  0  0
   -8.8988   -0.3460    4.4082 H   0  0  0  0  0  0  0  0  0  0  0  0
  1  2  1  0
  2  3  1  0
  2  4  1  0
  4  5  1  0
  5  6  1  0
  6  7  2  0
  6  8  1  0
  8  9  1  0
  9 10  1  0
 10 11  2  0
 11 12  1  0
 12 13  2  0
 13 14  1  0
 14 15  2  0
  8 16  1  0
 16 17  1  0
 17 18  2  0
 17 19  1  0
 19 20  1  0
 20 21  1  0
 21 22  2  0
 22 23  1  0
 23 24  2  0
 24 25  1  0
 25 26  2  0
  4 27  1  0
 27 28  2  0
 27 29  1  0
 29 30  1  0
 30 31  1  0
 31 32  1  0
 32 33  2  0
 33 34  1  0
 34 35  2  0
 35 36  1  0
 36 37  2  0
 30 38  1  0
 38 39  2  0
 38 40  1  0
 40 41  1  0
 41 42  1  0
 42 43  1  0
 43 44  2  0
 44 45  1  0
 45 46  2  0
 46 47  1  0
 47 48  2  0
 41 49  1  0
 49 50  1  0
 49 51  2  0
 15 10  1  0
 26 21  1  0
 37 32  1  0
 48 43  1  0
  1 52  1  0
  1 53  1  0
  1 54  1  0
  2 55  1  0
  3 56  1  0
  3 57  1  0
  3 58  1  0
  4 59  1  1
  5 60  1  0
  8 61  1  6
  9 62  1  0
  9 63  1  0
 11 64  1  0
 12 65  1  0
 13 66  1  0
 14 67  1  0
 15 68  1  0
 16 69  1  0
 20 70  1  0
 20 71  1  0
 22 72  1  0
 23 73  1  0
 24 74  1  0
 25 75  1  0
 26 76  1  0
 29 77  1  0
 30 78  1  6
 31 79  1  0
 31 80  1  0
 33 81  1  0
 34 82  1  0
 35 83  1  0
 36 84  1  0
 37 85  1  0
 40 86  1  0
 41 87  1  1
 42 88  1  0
 42 89  1  0
 44 90  1  0
 45 91  1  0
 46 92  1  0
 47 93  1  0
 48 94  1  0
 50 95  1  0
 50 96  1  0
M  END
$$$$
[H]OC(c1c([H])c([H])c(N([H])c2nc([H])c(Cl)c(N([H])C(=O)c3c([H])c([H])c([H])c(C(F)(F)F)c3[H])n2)c(OC([H])([H])[H])c1[H])(C([H])([H])[H])C([H])([H])[H]
     RDKit          3D

 53 55  0  0  0  0  0  0  0  0999 V2000
   -3.2211   -3.3783   -1.7827 C   0  0  0  0  0  0  0  0  0  0  0  0
   -2.6293   -2.2673   -1.2033 O   0  0  0  0  0  0  0  0  0  0  0  0
   -3.1866   -1.1105   -0.7397 C   0  0  0  0  0  0  0  0  0  0  0  0
   -4.5453   -0.8981   -0.8028 C   0  0  0  0  0  0  0  0  0  0  0  0
   -5.1555    0.2549   -0.3421 C   0  0  0  0  0  0  0  0  0  0  0  0
   -4.3328    1.1970    0.1883 C   0  0  0  0  0  0  0  0  0  0  0  0
   -2.9567    1.0232    0.2709 C   0  0  0  0  0  0  0  0  0  0  0  0
   -2.3491   -0.1175   -0.1852 C   0  0  0  0  0  0  0  0  0  0  0  0
   -0.9528   -0.3361   -0.1918 N   0  0  0  0  0  0  0  0  0  0  0  0
   -0.0195    0.4432    0.5131 C   0  0  0  0  0  0  0  0  0  0  0  0
   -0.2950    1.4482    1.3070 N   0  0  0  0  0  0  0  0  0  0  0  0
    0.6186    2.2004    1.9175 C   0  0  0  0  0  0  0  0  0  0  0  0
    1.9620    1.8873    1.6824 C   0  0  0  0  0  0  0  0  0  0  0  0
    3.2182    2.8185    2.4327 Cl  0  0  0  0  0  0  0  0  0  0  0  0
    2.3156    0.8301    0.8447 C   0  0  0  0  0  0  0  0  0  0  0  0
    3.6588    0.5812    0.5976 N   0  0  0  0  0  0  0  0  0  0  0  0
    4.1429   -0.4495   -0.2161 C   0  0  0  0  0  0  0  0  0  0  0  0
    3.3222   -1.2496   -0.7310 O   0  0  0  0  0  0  0  0  0  0  0  0
    5.5776   -0.6196   -0.4881 C   0  0  0  0  0  0  0  0  0  0  0  0
    5.9897   -1.7302   -1.1881 C   0  0  0  0  0  0  0  0  0  0  0  0
    7.3483   -1.8782   -1.4742 C   0  0  0  0  0  0  0  0  0  0  0  0
    8.2586   -0.9241   -1.0632 C   0  0  0  0  0  0  0  0  0  0  0  0
    7.8868    0.1911   -0.3646 C   0  0  0  0  0  0  0  0  0  0  0  0
    6.5131    0.2985   -0.0984 C   0  0  0  0  0  0  0  0  0  0  0  0
    8.8399    1.2582    0.0859 C   0  0  0  0  0  0  0  0  0  0  0  0
    8.1475    2.1791    0.8117 F   0  0  0  0  0  0  0  0  0  0  0  0
    9.2398    1.9139   -1.0836 F   0  0  0  0  0  0  0  0  0  0  0  0
    9.9284    0.7368    0.7529 F   0  0  0  0  0  0  0  0  0  0  0  0
    1.3169    0.1452    0.2910 N   0  0  0  0  0  0  0  0  0  0  0  0
   -6.6027    0.4990   -0.4406 C   0  0  0  0  0  0  0  0  0  0  0  0
   -7.4260   -0.7363   -0.1302 C   0  0  0  0  0  0  0  0  0  0  0  0
   -7.0490    1.5916    0.5226 C   0  0  0  0  0  0  0  0  0  0  0  0
   -6.9121    0.9658   -1.7267 O   0  0  0  0  0  0  0  0  0  0  0  0
   -2.6535   -3.7375   -2.6763 H   0  0  0  0  0  0  0  0  0  0  0  0
   -3.2487   -4.2432   -1.0873 H   0  0  0  0  0  0  0  0  0  0  0  0
   -4.2435   -3.1781   -2.0930 H   0  0  0  0  0  0  0  0  0  0  0  0
   -5.1591   -1.7121   -1.2314 H   0  0  0  0  0  0  0  0  0  0  0  0
   -4.7163    2.1530    0.5767 H   0  0  0  0  0  0  0  0  0  0  0  0
   -2.3977    1.8541    0.6847 H   0  0  0  0  0  0  0  0  0  0  0  0
   -0.6180   -1.1717   -0.7841 H   0  0  0  0  0  0  0  0  0  0  0  0
    0.3360    3.0162    2.5687 H   0  0  0  0  0  0  0  0  0  0  0  0
    4.3647    1.2514    1.0401 H   0  0  0  0  0  0  0  0  0  0  0  0
    5.2938   -2.4712   -1.5035 H   0  0  0  0  0  0  0  0  0  0  0  0
    7.7126   -2.7257   -2.0313 H   0  0  0  0  0  0  0  0  0  0  0  0
    9.3160   -1.0531   -1.2976 H   0  0  0  0  0  0  0  0  0  0  0  0
    6.2063    1.1797    0.4469 H   0  0  0  0  0  0  0  0  0  0  0  0
   -7.0044   -1.3714    0.6275 H   0  0  0  0  0  0  0  0  0  0  0  0
   -7.5903   -1.3012   -1.0725 H   0  0  0  0  0  0  0  0  0  0  0  0
   -8.4836   -0.4188    0.1966 H   0  0  0  0  0  0  0  0  0  0  0  0
   -6.6612    2.5862    0.2393 H   0  0  0  0  0  0  0  0  0  0  0  0
   -8.1637    1.6666    0.4182 H   0  0  0  0  0  0  0  0  0  0  0  0
   -6.7910    1.3895    1.5680 H   0  0  0  0  0  0  0  0  0  0  0  0
   -6.1500    1.5193   -2.0852 H   0  0  0  0  0  0  0  0  0  0  0  0
  1  2  1  0
  2  3  1  0
  3  4  2  0
  4  5  1  0
  5  6  2  0
  6  7  1  0
  7  8  2  0
  8  9  1  0
  9 10  1  0
 10 11  2  0
 11 12  1  0
 12 13  2  0
 13 14  1  0
 13 15  1  0
 15 16  1  0
 16 17  1  0
 17 18  2  0
 17 19  1  0
 19 20  2  0
 20 21  1  0
 21 22  2  0
 22 23  1  0
 23 24  2  0
 23 25  1  0
 25 26  1  0
 25 27  1  0
 25 28  1  0
 15 29  2  0
  5 30  1  0
 30 31  1  0
 30 32  1  0
 30 33  1  0
  8  3  1  0
 29 10  1  0
 24 19  1  0
  1 34  1  0
  1 35  1  0
  1 36  1  0
  4 37  1  0
  6 38  1  0
  7 39  1  0
  9 40  1  0
 12 41  1  0
 16 42  1  0
 20 43  1  0
 21 44  1  0
 22 45  1  0
 24 46  1  0
 31 47  1  0
 31 48  1  0
 31 49  1  0
 32 50  1  0
 32 51  1  0
 32 52  1  0
 33 53  1  0
M  END
$$$$
[H]c1c([H])c([H])c(C([H])([H])[C@]2([H])C(=O)N3C([H])([H])C([H])([H])C([H])([H])[C@@]3([H])C(=O)N([H])[C@@]([H])(C([H])([H])c3c([H])n([H])c4c([H])c([H])c([H])c([H])c34)C(=O)N([H])[C@@]([H])(C([H])(C([H])([H])[H])C([H])([H])[H])C(=O)N2[H])c([H])c1[H]
     RDKit          3D

 74 78  0  0  0  0  0  0  0  0999 V2000
    2.0371   -4.7564   -0.3658 C   0  0  0  0  0  0  0  0  0  0  0  0
    0.9685   -4.2515    0.5471 C   0  0  0  0  0  0  0  0  0  0  0  0
   -0.4005   -4.7693    0.2067 C   0  0  0  0  0  0  0  0  0  0  0  0
    0.9873   -2.7153    0.5750 C   0  0  2  0  0  0  0  0  0  0  0  0
    0.7476   -2.3117   -0.7988 N   0  0  0  0  0  0  0  0  0  0  0  0
   -0.4685   -1.8762   -1.3296 C   0  0  0  0  0  0  0  0  0  0  0  0
   -0.8417   -2.2978   -2.4517 O   0  0  0  0  0  0  0  0  0  0  0  0
   -1.3983   -0.9082   -0.6398 C   0  0  2  0  0  0  0  0  0  0  0  0
   -2.7909   -1.3736   -0.9601 C   0  0  0  0  0  0  0  0  0  0  0  0
   -3.8725   -0.5625   -0.3775 C   0  0  0  0  0  0  0  0  0  0  0  0
   -4.5087   -0.8773    0.8309 C   0  0  0  0  0  0  0  0  0  0  0  0
   -5.4172    0.0686    1.1117 N   0  0  0  0  0  0  0  0  0  0  0  0
   -5.4196    1.0015    0.1478 C   0  0  0  0  0  0  0  0  0  0  0  0
   -6.1720    2.1465   -0.0128 C   0  0  0  0  0  0  0  0  0  0  0  0
   -5.9348    2.9028   -1.1483 C   0  0  0  0  0  0  0  0  0  0  0  0
   -4.9935    2.5435   -2.0869 C   0  0  0  0  0  0  0  0  0  0  0  0
   -4.2568    1.3959   -1.9009 C   0  0  0  0  0  0  0  0  0  0  0  0
   -4.4523    0.6083   -0.7881 C   0  0  0  0  0  0  0  0  0  0  0  0
   -1.0905    0.3786   -1.1994 N   0  0  0  0  0  0  0  0  0  0  0  0
   -0.5749    1.4673   -0.4456 C   0  0  0  0  0  0  0  0  0  0  0  0
    0.0991    2.3360   -1.0573 O   0  0  0  0  0  0  0  0  0  0  0  0
   -0.8035    1.6007    0.9824 C   0  0  2  0  0  0  0  0  0  0  0  0
   -1.1398    3.0739    1.2168 C   0  0  0  0  0  0  0  0  0  0  0  0
   -0.1159    3.5365    2.2648 C   0  0  0  0  0  0  0  0  0  0  0  0
    0.0265    2.2179    3.0135 C   0  0  0  0  0  0  0  0  0  0  0  0
    0.2858    1.3193    1.8708 N   0  0  0  0  0  0  0  0  0  0  0  0
    1.3381    0.4114    1.7396 C   0  0  0  0  0  0  0  0  0  0  0  0
    1.5867   -0.3815    2.7341 O   0  0  0  0  0  0  0  0  0  0  0  0
    2.2542    0.2070    0.5895 C   0  0  1  0  0  0  0  0  0  0  0  0
    3.1951    1.3869    0.6016 C   0  0  0  0  0  0  0  0  0  0  0  0
    4.2017    1.4067   -0.4545 C   0  0  0  0  0  0  0  0  0  0  0  0
    3.8989    1.9736   -1.7000 C   0  0  0  0  0  0  0  0  0  0  0  0
    4.8150    2.0298   -2.7283 C   0  0  0  0  0  0  0  0  0  0  0  0
    6.0855    1.5218   -2.5677 C   0  0  0  0  0  0  0  0  0  0  0  0
    6.3998    0.9611   -1.3493 C   0  0  0  0  0  0  0  0  0  0  0  0
    5.4772    0.9048   -0.3142 C   0  0  0  0  0  0  0  0  0  0  0  0
    2.9658   -1.0721    0.7414 N   0  0  0  0  0  0  0  0  0  0  0  0
    2.3136   -2.2738    1.0741 C   0  0  0  0  0  0  0  0  0  0  0  0
    2.9081   -3.0656    1.8782 O   0  0  0  0  0  0  0  0  0  0  0  0
    2.4540   -5.7077    0.0261 H   0  0  0  0  0  0  0  0  0  0  0  0
    1.6760   -4.9747   -1.3926 H   0  0  0  0  0  0  0  0  0  0  0  0
    2.8321   -3.9684   -0.4127 H   0  0  0  0  0  0  0  0  0  0  0  0
    1.2119   -4.6198    1.5795 H   0  0  0  0  0  0  0  0  0  0  0  0
   -0.4023   -5.8600    0.4935 H   0  0  0  0  0  0  0  0  0  0  0  0
   -0.6507   -4.7208   -0.8583 H   0  0  0  0  0  0  0  0  0  0  0  0
   -1.1528   -4.2925    0.8660 H   0  0  0  0  0  0  0  0  0  0  0  0
    0.1485   -2.3878    1.2297 H   0  0  0  0  0  0  0  0  0  0  0  0
    1.5963   -2.3631   -1.4380 H   0  0  0  0  0  0  0  0  0  0  0  0
   -1.1977   -0.9193    0.4566 H   0  0  0  0  0  0  0  0  0  0  0  0
   -2.9078   -2.4654   -0.6838 H   0  0  0  0  0  0  0  0  0  0  0  0
   -2.8614   -1.4043   -2.0890 H   0  0  0  0  0  0  0  0  0  0  0  0
   -4.2940   -1.7450    1.4303 H   0  0  0  0  0  0  0  0  0  0  0  0
   -6.0403    0.0880    1.9569 H   0  0  0  0  0  0  0  0  0  0  0  0
   -6.9211    2.4619    0.7018 H   0  0  0  0  0  0  0  0  0  0  0  0
   -6.5036    3.8053   -1.3086 H   0  0  0  0  0  0  0  0  0  0  0  0
   -4.8029    3.1282   -2.9749 H   0  0  0  0  0  0  0  0  0  0  0  0
   -3.5441    1.1256   -2.6440 H   0  0  0  0  0  0  0  0  0  0  0  0
   -1.2713    0.4811   -2.2431 H   0  0  0  0  0  0  0  0  0  0  0  0
   -1.7353    1.0509    1.2722 H   0  0  0  0  0  0  0  0  0  0  0  0
   -2.1596    3.2059    1.6275 H   0  0  0  0  0  0  0  0  0  0  0  0
   -1.0052    3.6937    0.3221 H   0  0  0  0  0  0  0  0  0  0  0  0
    0.8393    3.7735    1.7780 H   0  0  0  0  0  0  0  0  0  0  0  0
   -0.5267    4.3293    2.8979 H   0  0  0  0  0  0  0  0  0  0  0  0
   -0.9929    1.9348    3.3551 H   0  0  0  0  0  0  0  0  0  0  0  0
    0.7666    2.2110    3.7915 H   0  0  0  0  0  0  0  0  0  0  0  0
    1.7769    0.1355   -0.3848 H   0  0  0  0  0  0  0  0  0  0  0  0
    3.7461    1.4589    1.5825 H   0  0  0  0  0  0  0  0  0  0  0  0
    2.5791    2.3082    0.5607 H   0  0  0  0  0  0  0  0  0  0  0  0
    2.9129    2.3795   -1.8544 H   0  0  0  0  0  0  0  0  0  0  0  0
    4.5662    2.4712   -3.6859 H   0  0  0  0  0  0  0  0  0  0  0  0
    6.7917    1.5756   -3.3892 H   0  0  0  0  0  0  0  0  0  0  0  0
    7.3851    0.5562   -1.1954 H   0  0  0  0  0  0  0  0  0  0  0  0
    5.7489    0.4644    0.6405 H   0  0  0  0  0  0  0  0  0  0  0  0
    3.9985   -1.1174    0.6002 H   0  0  0  0  0  0  0  0  0  0  0  0
  1  2  1  0
  2  3  1  0
  2  4  1  0
  4  5  1  0
  5  6  1  0
  6  7  2  0
  6  8  1  0
  8  9  1  0
  9 10  1  0
 10 11  2  0
 11 12  1  0
 12 13  1  0
 13 14  2  0
 14 15  1  0
 15 16  2  0
 16 17  1  0
 17 18  2  0
  8 19  1  0
 19 20  1  0
 20 21  2  0
 20 22  1  0
 22 23  1  0
 23 24  1  0
 24 25  1  0
 25 26  1  0
 26 27  1  0
 27 28  2  0
 27 29  1  0
 29 30  1  0
 30 31  1  0
 31 32  2  0
 32 33  1  0
 33 34  2  0
 34 35  1  0
 35 36  2  0
 29 37  1  0
 37 38  1  0
 38 39  2  0
 38  4  1  0
 18 10  1  0
 26 22  1  0
 36 31  1  0
 18 13  1  0
  1 40  1  0
  1 41  1  0
  1 42  1  0
  2 43  1  0
  3 44  1  0
  3 45  1  0
  3 46  1  0
  4 47  1  1
  5 48  1  0
  8 49  1  1
  9 50  1  0
  9 51  1  0
 11 52  1  0
 12 53  1  0
 14 54  1  0
 15 55  1  0
 16 56  1  0
 17 57  1  0
 19 58  1  0
 22 59  1  1
 23 60  1  0
 23 61  1  0
 24 62  1  0
 24 63  1  0
 25 64  1  0
 25 65  1  0
 29 66  1  6
 30 67  1  0
 30 68  1  0
 32 69  1  0
 33 70  1  0
 34 71  1  0
 35 72  1  0
 36 73  1  0
 37 74  1  0
M  END
$$$$
[H]c1c([H])c(-c2nc3c([H])c([H])c(C(F)(F)F)c([H])c3n2[H])c([H])c([H])c1OC([H])([H])[H]
     RDKit          3D

 32 34  0  0  0  0  0  0  0  0999 V2000
   -6.5309   -0.0728   -0.1742 C   0  0  0  0  0  0  0  0  0  0  0  0
   -5.5065    0.4795    0.5706 O   0  0  0  0  0  0  0  0  0  0  0  0
   -4.1628    0.3833    0.4010 C   0  0  0  0  0  0  0  0  0  0  0  0
   -3.3590    1.0444    1.3269 C   0  0  0  0  0  0  0  0  0  0  0  0
   -1.9712    1.0025    1.2214 C   0  0  0  0  0  0  0  0  0  0  0  0
   -1.3504    0.3006    0.2109 C   0  0  0  0  0  0  0  0  0  0  0  0
   -2.1404   -0.3571   -0.7097 C   0  0  0  0  0  0  0  0  0  0  0  0
   -3.5519   -0.3233   -0.6187 C   0  0  0  0  0  0  0  0  0  0  0  0
    0.1301    0.2302    0.1816 C   0  0  0  0  0  0  0  0  0  0  0  0
    0.9208    0.7481    1.1326 N   0  0  0  0  0  0  0  0  0  0  0  0
    2.1906    0.4819    0.8305 C   0  0  0  0  0  0  0  0  0  0  0  0
    3.3930    0.7717    1.4790 C   0  0  0  0  0  0  0  0  0  0  0  0
    4.5518    0.3297    0.8865 C   0  0  0  0  0  0  0  0  0  0  0  0
    4.6017   -0.3855   -0.2823 C   0  0  0  0  0  0  0  0  0  0  0  0
    3.4004   -0.6517   -0.8979 C   0  0  0  0  0  0  0  0  0  0  0  0
    2.1929   -0.2178   -0.3369 C   0  0  0  0  0  0  0  0  0  0  0  0
    0.8991   -0.3518   -0.7117 N   0  0  0  0  0  0  0  0  0  0  0  0
    5.9200   -0.8316   -0.8272 C   0  0  0  0  0  0  0  0  0  0  0  0
    6.9838   -0.1438   -0.2853 F   0  0  0  0  0  0  0  0  0  0  0  0
    5.9984   -0.6793   -2.2093 F   0  0  0  0  0  0  0  0  0  0  0  0
    6.0670   -2.2171   -0.5826 F   0  0  0  0  0  0  0  0  0  0  0  0
   -7.1751    0.6880   -0.6045 H   0  0  0  0  0  0  0  0  0  0  0  0
   -7.2110   -0.6663    0.5195 H   0  0  0  0  0  0  0  0  0  0  0  0
   -6.1500   -0.7842   -0.9647 H   0  0  0  0  0  0  0  0  0  0  0  0
   -3.8155    1.6188    2.1509 H   0  0  0  0  0  0  0  0  0  0  0  0
   -1.3970    1.5271    1.9413 H   0  0  0  0  0  0  0  0  0  0  0  0
   -1.6821   -0.9166   -1.5300 H   0  0  0  0  0  0  0  0  0  0  0  0
   -4.1463   -0.8321   -1.3200 H   0  0  0  0  0  0  0  0  0  0  0  0
    3.3490    1.3317    2.4036 H   0  0  0  0  0  0  0  0  0  0  0  0
    5.5372    0.5446    1.3964 H   0  0  0  0  0  0  0  0  0  0  0  0
    3.3975   -1.1944   -1.8264 H   0  0  0  0  0  0  0  0  0  0  0  0
    0.6170   -0.8569   -1.5832 H   0  0  0  0  0  0  0  0  0  0  0  0
  1  2  1  0
  2  3  1  0
  3  4  2  0
  4  5  1  0
  5  6  2  0
  6  7  1  0
  7  8  2  0
  6  9  1  0
  9 10  2  0
 10 11  1  0
 11 12  2  0
 12 13  1  0
 13 14  2  0
 14 15  1  0
 15 16  2  0
 16 17  1  0
 14 18  1  0
 18 19  1  0
 18 20  1  0
 18 21  1  0
  8  3  1  0
 17  9  1  0
 16 11  1  0
  1 22  1  0
  1 23  1  0
  1 24  1  0
  4 25  1  0
  5 26  1  0
  7 27  1  0
  8 28  1  0
 12 29  1  0
 13 30  1  0
 15 31  1  0
 17 32  1  0
M  END
$$$$
[H]c1c([H])c(C(F)(F)F)c([H])c([H])c1N([H])S(=O)(=O)c1c([H])c([H])c(C([H])([H])[H])c([H])c1[H]
     RDKit          3D

 33 34  0  0  0  0  0  0  0  0999 V2000
   -4.8688    1.6622    0.0631 C   0  0  0  0  0  0  0  0  0  0  0  0
   -3.8045    0.6242   -0.0111 C   0  0  0  0  0  0  0  0  0  0  0  0
   -3.7144   -0.3751    0.9396 C   0  0  0  0  0  0  0  0  0  0  0  0
   -2.7062   -1.2978    0.8486 C   0  0  0  0  0  0  0  0  0  0  0  0
   -1.7631   -1.2552   -0.1932 C   0  0  0  0  0  0  0  0  0  0  0  0
   -1.8830   -0.2528   -1.1163 C   0  0  0  0  0  0  0  0  0  0  0  0
   -2.8701    0.6915   -1.0629 C   0  0  0  0  0  0  0  0  0  0  0  0
   -0.5201   -2.4494   -0.2718 S   0  0  0  0  0  0  0  0  0  0  0  0
   -1.0320   -3.6010   -1.1189 O   0  0  0  0  0  0  0  0  0  0  0  0
   -0.3162   -2.9823    1.1693 O   0  0  0  0  0  0  0  0  0  0  0  0
    0.9274   -1.8918   -0.9354 N   0  0  0  0  0  0  0  0  0  0  0  0
    1.7591   -0.8832   -0.4146 C   0  0  0  0  0  0  0  0  0  0  0  0
    1.4240    0.3027    0.1583 C   0  0  0  0  0  0  0  0  0  0  0  0
    2.3900    1.2385    0.6027 C   0  0  0  0  0  0  0  0  0  0  0  0
    3.7241    0.9693    0.4678 C   0  0  0  0  0  0  0  0  0  0  0  0
    4.0775   -0.2395   -0.1124 C   0  0  0  0  0  0  0  0  0  0  0  0
    3.1478   -1.1401   -0.5410 C   0  0  0  0  0  0  0  0  0  0  0  0
    4.7955    1.8809    0.8665 C   0  0  0  0  0  0  0  0  0  0  0  0
    5.7615    2.0105   -0.1538 F   0  0  0  0  0  0  0  0  0  0  0  0
    4.2645    3.1640    1.0590 F   0  0  0  0  0  0  0  0  0  0  0  0
    5.4065    1.5203    2.0509 F   0  0  0  0  0  0  0  0  0  0  0  0
   -5.7393    1.2552    0.5916 H   0  0  0  0  0  0  0  0  0  0  0  0
   -5.1080    1.9889   -0.9624 H   0  0  0  0  0  0  0  0  0  0  0  0
   -4.4707    2.5741    0.5811 H   0  0  0  0  0  0  0  0  0  0  0  0
   -4.4681   -0.4198    1.7506 H   0  0  0  0  0  0  0  0  0  0  0  0
   -2.6543   -2.0873    1.5822 H   0  0  0  0  0  0  0  0  0  0  0  0
   -1.1070   -0.2646   -1.9079 H   0  0  0  0  0  0  0  0  0  0  0  0
   -2.8962    1.4622   -1.8150 H   0  0  0  0  0  0  0  0  0  0  0  0
    1.2323   -2.3563   -1.8994 H   0  0  0  0  0  0  0  0  0  0  0  0
    0.3805    0.5528    0.3183 H   0  0  0  0  0  0  0  0  0  0  0  0
    2.0404    2.1492    1.0230 H   0  0  0  0  0  0  0  0  0  0  0  0
    5.1491   -0.4664   -0.2299 H   0  0  0  0  0  0  0  0  0  0  0  0
    3.4415   -2.0842   -0.9993 H   0  0  0  0  0  0  0  0  0  0  0  0
  1  2  1  0
  2  3  2  0
  3  4  1  0
  4  5  2  0
  5  6  1  0
  6  7  2  0
  5  8  1  0
  8  9  2  0
  8 10  2  0
  8 11  1  0
 11 12  1  0
 12 13  2  0
 13 14  1  0
 14 15  2  0
 15 16  1  0
 16 17  2  0
 15 18  1  0
 18 19  1  0
 18 20  1  0
 18 21  1  0
  7  2  1  0
 17 12  1  0
  1 22  1  0
  1 23  1  0
  1 24  1  0
  3 25  1  0
  4 26  1  0
  6 27  1  0
  7 28  1  0
 11 29  1  0
 13 30  1  0
 14 31  1  0
 16 32  1  0
 17 33  1  0
M  END
$$$$
[H]N([H])[C@]([H])(C(=O)N([H])[C@]1([H])C([H])([H])C([H])([H])[C@@]([H])(C(=O)N([H])[C@]2([H])C([H])([H])[C@@]3([H])C([H])([H])C([H])([H])[C@@]2([H])C3([H])[H])C([H])([H])C1([H])[H])C([H])([H])C([H])(C([H])([H])[H])C([H])([H])[H]
     RDKit          2D

 60 62  0  0  0  0  0  0  0  0999 V2000
   13.9137    0.1842    0.0000 C   0  0  0  0  0  0  0  0  0  0  0  0
   12.9495    1.3333    0.0000 C   0  0  0  0  0  0  0  0  0  0  0  0
   14.0986    2.2975    0.0000 C   0  0  0  0  0  0  0  0  0  0  0  0
   11.8005    0.3691    0.0000 C   0  0  0  0  0  0  0  0  0  0  0  0
   10.6514   -0.5951    0.0000 C   0  0  0  0  0  0  0  0  0  0  0  0
   11.6156   -1.7441    0.0000 N   0  0  0  0  0  0  0  0  0  0  0  0
    9.6872    0.5540    0.0000 C   0  0  0  0  0  0  0  0  0  0  0  0
   10.0246    2.0156    0.0000 O   0  0  0  0  0  0  0  0  0  0  0  0
    8.2100    0.2935    0.0000 N   0  0  0  0  0  0  0  0  0  0  0  0
    7.2458    1.4426    0.0000 C   0  0  0  0  0  0  0  0  0  0  0  0
    6.2817    0.2935    0.0000 C   0  0  0  0  0  0  0  0  0  0  0  0
    4.8044    0.5540    0.0000 C   0  0  0  0  0  0  0  0  0  0  0  0
    4.2914    1.9635    0.0000 C   0  0  0  0  0  0  0  0  0  0  0  0
    5.2556    3.1126    0.0000 C   0  0  0  0  0  0  0  0  0  0  0  0
    6.7328    2.8521    0.0000 C   0  0  0  0  0  0  0  0  0  0  0  0
    2.9924    1.2135    0.0000 C   0  0  0  0  0  0  0  0  0  0  0  0
    2.8443    0.0076    0.0000 O   0  0  0  0  0  0  0  0  0  0  0  0
    1.6933    1.9635    0.0000 N   0  0  0  0  0  0  0  0  0  0  0  0
    0.3943    1.2135    0.0000 C   0  0  0  0  0  0  0  0  0  0  0  0
    1.2760    0.0000    0.0000 C   0  0  0  0  0  0  0  0  0  0  0  0
    0.3943   -1.2135    0.0000 C   0  0  0  0  0  0  0  0  0  0  0  0
   -1.0323   -1.6771    0.0000 C   0  0  0  0  0  0  0  0  0  0  0  0
   -1.9140   -0.4635    0.0000 C   0  0  0  0  0  0  0  0  0  0  0  0
   -1.0323    0.7500    0.0000 C   0  0  0  0  0  0  0  0  0  0  0  0
   -1.0323   -0.7500    0.0000 C   0  0  0  0  0  0  0  0  0  0  0  0
   14.6566    0.6666    0.0000 H   0  0  0  0  0  0  0  0  0  0  0  0
   13.3353   -0.6120    0.0000 H   0  0  0  0  0  0  0  0  0  0  0  0
   14.8779   -0.9649    0.0000 H   0  0  0  0  0  0  0  0  0  0  0  0
   11.9854    2.4823    0.0000 H   0  0  0  0  0  0  0  0  0  0  0  0
   14.7464    1.6934    0.0000 H   0  0  0  0  0  0  0  0  0  0  0  0
   13.1344    3.4465    0.0000 H   0  0  0  0  0  0  0  0  0  0  0  0
   15.2477    3.2616    0.0000 H   0  0  0  0  0  0  0  0  0  0  0  0
   12.4331   -0.3848    0.0000 H   0  0  0  0  0  0  0  0  0  0  0  0
   10.9836    1.6271    0.0000 H   0  0  0  0  0  0  0  0  0  0  0  0
    9.5023   -1.5593    0.0000 H   0  0  0  0  0  0  0  0  0  0  0  0
   11.1026   -3.1537    0.0000 H   0  0  0  0  0  0  0  0  0  0  0  0
   13.1119   -1.8489    0.0000 H   0  0  0  0  0  0  0  0  0  0  0  0
    7.9887   -0.6654    0.0000 H   0  0  0  0  0  0  0  0  0  0  0  0
    8.5449    2.1926    0.0000 H   0  0  0  0  0  0  0  0  0  0  0  0
    7.0676   -0.2988    0.0000 H   0  0  0  0  0  0  0  0  0  0  0  0
    5.7686   -1.1160    0.0000 H   0  0  0  0  0  0  0  0  0  0  0  0
    4.8044   -0.9460    0.0000 H   0  0  0  0  0  0  0  0  0  0  0  0
    3.6425    0.1987    0.0000 H   0  0  0  0  0  0  0  0  0  0  0  0
    3.3272    3.1126    0.0000 H   0  0  0  0  0  0  0  0  0  0  0  0
    3.9566    3.8626    0.0000 H   0  0  0  0  0  0  0  0  0  0  0  0
    5.7686    4.5221    0.0000 H   0  0  0  0  0  0  0  0  0  0  0  0
    6.7328    4.3521    0.0000 H   0  0  0  0  0  0  0  0  0  0  0  0
    8.2100    3.1126    0.0000 H   0  0  0  0  0  0  0  0  0  0  0  0
    1.6933    3.4635    0.0000 H   0  0  0  0  0  0  0  0  0  0  0  0
   -0.2158    2.5838    0.0000 H   0  0  0  0  0  0  0  0  0  0  0  0
    2.6004    0.7041    0.0000 H   0  0  0  0  0  0  0  0  0  0  0  0
    2.3907   -1.0037    0.0000 H   0  0  0  0  0  0  0  0  0  0  0  0
    0.8578   -2.6401    0.0000 H   0  0  0  0  0  0  0  0  0  0  0  0
   -0.4222   -3.0474    0.0000 H   0  0  0  0  0  0  0  0  0  0  0  0
   -2.3313   -2.4271    0.0000 H   0  0  0  0  0  0  0  0  0  0  0  0
   -3.0287   -1.4672    0.0000 H   0  0  0  0  0  0  0  0  0  0  0  0
   -3.0287    0.5402    0.0000 H   0  0  0  0  0  0  0  0  0  0  0  0
   -2.2458    1.6317    0.0000 H   0  0  0  0  0  0  0  0  0  0  0  0
   -1.6899   -2.0982    0.0000 H   0  0  0  0  0  0  0  0  0  0  0  0
   -2.5177   -0.9588    0.0000 H   0  0  0  0  0  0  0  0  0  0  0  0
  1  2  1  0
  2  3  1  0
  2  4  1  0
  4  5  1  0
  5  6  1  0
  5  7  1  0
  7  8  2  0
  7  9  1  0
  9 10  1  0
 10 11  1  0
 11 12  1  0
 12 13  1  0
 13 14  1  0
 14 15  1  0
 13 16  1  0
 16 17  2  0
 16 18  1  0
 18 19  1  0
 19 20  1  0
 20 21  1  0
 21 22  1  0
 22 23  1  0
 23 24  1  0
 24 25  1  0
 15 10  1  0
 24 19  1  0
 25 21  1  0
  1 26  1  0
  1 27  1  0
  1 28  1  0
  2 29  1  0
  3 30  1  0
  3 31  1  0
  3 32  1  0
  4 33  1  0
  4 34  1  0
  5 35  1  1
  6 36  1  0
  6 37  1  0
  9 38  1  0
 10 39  1  6
 11 40  1  0
 11 41  1  0
 12 42  1  0
 12 43  1  0
 13 44  1  1
 14 45  1  0
 14 46  1  0
 15 47  1  0
 15 48  1  0
 18 49  1  0
 19 50  1  1
 20 51  1  0
 20 52  1  0
 21 53  1  6
 22 54  1  0
 22 55  1  0
 23 56  1  0
 23 57  1  0
 24 58  1  1
 25 59  1  0
 25 60  1  0
M  END
$$$$
[H]OC(=O)[C@@]([H])(N([H])C(=O)[C@@]([H])(N([H])C(=O)[C@@]([H])(N([H])C(=O)[C@@]([H])(N([H])[H])C([H])([H])c1c([H])c([H])c([H])c([H])c1[H])C([H])(C([H])([H])[H])C([H])([H])[H])C([H])([H])C([H])([H])C([H])([H])C([H])([H])N([H])[H])C([H])([H])c1c([H])n([H])c2c([H])c([H])c([H])c([H])c12
     RDKit          3D

 84 86  0  0  0  0  0  0  0  0999 V2000
   -3.0031    1.4479   -2.8423 C   0  0  0  0  0  0  0  0  0  0  0  0
   -1.9738    0.9080   -1.8758 C   0  0  0  0  0  0  0  0  0  0  0  0
   -0.6789    0.6549   -2.5600 C   0  0  0  0  0  0  0  0  0  0  0  0
   -2.5480   -0.2233   -1.0903 C   0  0  2  0  0  0  0  0  0  0  0  0
   -3.7256    0.2420   -0.3304 N   0  0  0  0  0  0  0  0  0  0  0  0
   -4.9584   -0.4420   -0.4990 C   0  0  0  0  0  0  0  0  0  0  0  0
   -4.9846   -1.4014   -1.3109 O   0  0  0  0  0  0  0  0  0  0  0  0
   -6.1242   -0.0032    0.2766 C   0  0  1  0  0  0  0  0  0  0  0  0
   -5.7132    1.0533    1.1872 N   0  0  0  0  0  0  0  0  0  0  0  0
   -7.3575    0.3236   -0.4686 C   0  0  0  0  0  0  0  0  0  0  0  0
   -7.2590    1.4253   -1.4490 C   0  0  0  0  0  0  0  0  0  0  0  0
   -6.9592    1.2390   -2.7792 C   0  0  0  0  0  0  0  0  0  0  0  0
   -6.8708    2.2736   -3.6770 C   0  0  0  0  0  0  0  0  0  0  0  0
   -7.0871    3.5698   -3.2569 C   0  0  0  0  0  0  0  0  0  0  0  0
   -7.3891    3.7527   -1.9128 C   0  0  0  0  0  0  0  0  0  0  0  0
   -7.4785    2.7265   -1.0165 C   0  0  0  0  0  0  0  0  0  0  0  0
   -1.6213   -0.7124   -0.0291 C   0  0  0  0  0  0  0  0  0  0  0  0
   -1.8071   -0.5257    1.1804 O   0  0  0  0  0  0  0  0  0  0  0  0
   -0.4684   -1.4299   -0.4381 N   0  0  0  0  0  0  0  0  0  0  0  0
    0.4443   -1.8868    0.6369 C   0  0  1  0  0  0  0  0  0  0  0  0
    0.3558   -3.4078    0.6977 C   0  0  0  0  0  0  0  0  0  0  0  0
    1.2923   -3.8315    1.8188 C   0  0  0  0  0  0  0  0  0  0  0  0
    1.2566   -5.3632    1.9093 C   0  0  0  0  0  0  0  0  0  0  0  0
    2.1902   -5.7829    3.0476 C   0  0  0  0  0  0  0  0  0  0  0  0
    3.5037   -5.2838    2.6871 N   0  0  0  0  0  0  0  0  0  0  0  0
    1.7786   -1.4413    0.2133 C   0  0  0  0  0  0  0  0  0  0  0  0
    2.1728   -1.4894   -0.9878 O   0  0  0  0  0  0  0  0  0  0  0  0
    2.6815   -0.9273    1.1753 N   0  0  0  0  0  0  0  0  0  0  0  0
    4.0395   -0.4840    0.7280 C   0  0  1  0  0  0  0  0  0  0  0  0
    3.8662    0.9648    0.4646 C   0  0  0  0  0  0  0  0  0  0  0  0
    5.0042    1.7383    0.0105 C   0  0  0  0  0  0  0  0  0  0  0  0
    5.4125    1.9696   -1.3191 C   0  0  0  0  0  0  0  0  0  0  0  0
    6.5336    2.7077   -1.2961 N   0  0  0  0  0  0  0  0  0  0  0  0
    6.8994    2.9845   -0.0452 C   0  0  0  0  0  0  0  0  0  0  0  0
    7.9360    3.7165    0.4804 C   0  0  0  0  0  0  0  0  0  0  0  0
    8.0351    3.8600    1.8407 C   0  0  0  0  0  0  0  0  0  0  0  0
    7.1242    3.2903    2.7246 C   0  0  0  0  0  0  0  0  0  0  0  0
    6.1121    2.5698    2.1318 C   0  0  0  0  0  0  0  0  0  0  0  0
    5.9433    2.3791    0.7787 C   0  0  0  0  0  0  0  0  0  0  0  0
    5.0015   -0.9442    1.6839 C   0  0  0  0  0  0  0  0  0  0  0  0
    6.3843   -0.8616    1.5688 O   0  0  0  0  0  0  0  0  0  0  0  0
    4.6076   -1.4997    2.7706 O   0  0  0  0  0  0  0  0  0  0  0  0
   -2.5883    1.2950   -3.8847 H   0  0  0  0  0  0  0  0  0  0  0  0
   -3.2328    2.5129   -2.6568 H   0  0  0  0  0  0  0  0  0  0  0  0
   -3.8992    0.7977   -2.8157 H   0  0  0  0  0  0  0  0  0  0  0  0
   -1.7821    1.7358   -1.1266 H   0  0  0  0  0  0  0  0  0  0  0  0
    0.2018    0.6475   -1.9082 H   0  0  0  0  0  0  0  0  0  0  0  0
   -0.7241   -0.2333   -3.2566 H   0  0  0  0  0  0  0  0  0  0  0  0
   -0.5115    1.5078   -3.2903 H   0  0  0  0  0  0  0  0  0  0  0  0
   -2.8264   -1.0665   -1.7188 H   0  0  0  0  0  0  0  0  0  0  0  0
   -3.6812    1.0477    0.3187 H   0  0  0  0  0  0  0  0  0  0  0  0
   -6.3851   -0.8726    0.9538 H   0  0  0  0  0  0  0  0  0  0  0  0
   -6.3349    1.1234    2.0145 H   0  0  0  0  0  0  0  0  0  0  0  0
   -5.4898    1.9461    0.7121 H   0  0  0  0  0  0  0  0  0  0  0  0
   -7.6512   -0.5872   -1.0567 H   0  0  0  0  0  0  0  0  0  0  0  0
   -8.1636    0.5056    0.2751 H   0  0  0  0  0  0  0  0  0  0  0  0
   -6.7862    0.2165   -3.1209 H   0  0  0  0  0  0  0  0  0  0  0  0
   -6.6361    2.1120   -4.7117 H   0  0  0  0  0  0  0  0  0  0  0  0
   -7.0241    4.4105   -3.9527 H   0  0  0  0  0  0  0  0  0  0  0  0
   -7.5619    4.7922   -1.5777 H   0  0  0  0  0  0  0  0  0  0  0  0
   -7.7173    2.8747    0.0464 H   0  0  0  0  0  0  0  0  0  0  0  0
   -0.2357   -1.6535   -1.4214 H   0  0  0  0  0  0  0  0  0  0  0  0
    0.1657   -1.4671    1.5855 H   0  0  0  0  0  0  0  0  0  0  0  0
   -0.6694   -3.6694    0.9530 H   0  0  0  0  0  0  0  0  0  0  0  0
    0.6215   -3.8729   -0.2583 H   0  0  0  0  0  0  0  0  0  0  0  0
    0.8903   -3.4287    2.7701 H   0  0  0  0  0  0  0  0  0  0  0  0
    2.3097   -3.4417    1.6948 H   0  0  0  0  0  0  0  0  0  0  0  0
    0.2226   -5.6643    2.1372 H   0  0  0  0  0  0  0  0  0  0  0  0
    1.5622   -5.8337    0.9568 H   0  0  0  0  0  0  0  0  0  0  0  0
    1.8812   -5.2315    3.9567 H   0  0  0  0  0  0  0  0  0  0  0  0
    2.1712   -6.8658    3.1261 H   0  0  0  0  0  0  0  0  0  0  0  0
    3.6526   -5.2998    1.6454 H   0  0  0  0  0  0  0  0  0  0  0  0
    3.6110   -4.3054    3.0387 H   0  0  0  0  0  0  0  0  0  0  0  0
    2.4857   -0.8235    2.1881 H   0  0  0  0  0  0  0  0  0  0  0  0
    4.1662   -1.0261   -0.2677 H   0  0  0  0  0  0  0  0  0  0  0  0
    3.4315    1.4126    1.4173 H   0  0  0  0  0  0  0  0  0  0  0  0
    2.9770    1.0521   -0.2408 H   0  0  0  0  0  0  0  0  0  0  0  0
    4.8511    1.5777   -2.1518 H   0  0  0  0  0  0  0  0  0  0  0  0
    7.0397    3.0159   -2.1543 H   0  0  0  0  0  0  0  0  0  0  0  0
    8.6821    4.1835   -0.1395 H   0  0  0  0  0  0  0  0  0  0  0  0
    8.8417    4.4355    2.3049 H   0  0  0  0  0  0  0  0  0  0  0  0
    7.1608    3.3752    3.7812 H   0  0  0  0  0  0  0  0  0  0  0  0
    5.3600    2.0987    2.7666 H   0  0  0  0  0  0  0  0  0  0  0  0
    7.0476   -1.1896    2.2396 H   0  0  0  0  0  0  0  0  0  0  0  0
  1  2  1  0
  2  3  1  0
  2  4  1  0
  4  5  1  0
  5  6  1  0
  6  7  2  0
  6  8  1  0
  8  9  1  0
  8 10  1  0
 10 11  1  0
 11 12  2  0
 12 13  1  0
 13 14  2  0
 14 15  1  0
 15 16  2  0
  4 17  1  0
 17 18  2  0
 17 19  1  0
 19 20  1  0
 20 21  1  0
 21 22  1  0
 22 23  1  0
 23 24  1  0
 24 25  1  0
 20 26  1  0
 26 27  2  0
 26 28  1  0
 28 29  1  0
 29 30  1  0
 30 31  1  0
 31 32  2  0
 32 33  1  0
 33 34  1  0
 34 35  2  0
 35 36  1  0
 36 37  2  0
 37 38  1  0
 38 39  2  0
 29 40  1  0
 40 41  1  0
 40 42  2  0
 16 11  1  0
 39 31  1  0
 39 34  1  0
  1 43  1  0
  1 44  1  0
  1 45  1  0
  2 46  1  0
  3 47  1  0
  3 48  1  0
  3 49  1  0
  4 50  1  6
  5 51  1  0
  8 52  1  1
  9 53  1  0
  9 54  1  0
 10 55  1  0
 10 56  1  0
 12 57  1  0
 13 58  1  0
 14 59  1  0
 15 60  1  0
 16 61  1  0
 19 62  1  0
 20 63  1  1
 21 64  1  0
 21 65  1  0
 22 66  1  0
 22 67  1  0
 23 68  1  0
 23 69  1  0
 24 70  1  0
 24 71  1  0
 25 72  1  0
 25 73  1  0
 28 74  1  0
 29 75  1  6
 30 76  1  0
 30 77  1  0
 32 78  1  0
 33 79  1  0
 35 80  1  0
 36 81  1  0
 37 82  1  0
 38 83  1  0
 41 84  1  0
M  END
$$$$
[H]c1c([H])c([H])c(-c2nnnn2[H])c(-c2c([H])c([H])c3c(nc(-c4c([H])c([H])c([H])c(C(F)(F)F)c4[H])n3[H])c2[H])c1[H]
     RDKit          3D

 43 47  0  0  0  0  0  0  0  0999 V2000
   -6.5218    1.0945   -2.0359 F   0  0  0  0  0  0  0  0  0  0  0  0
   -6.9679    1.0642   -0.7176 C   0  0  0  0  0  0  0  0  0  0  0  0
   -8.0719    0.2501   -0.5922 F   0  0  0  0  0  0  0  0  0  0  0  0
   -7.3815    2.3407   -0.3859 F   0  0  0  0  0  0  0  0  0  0  0  0
   -5.9308    0.5761    0.2171 C   0  0  0  0  0  0  0  0  0  0  0  0
   -6.3377    0.1607    1.4619 C   0  0  0  0  0  0  0  0  0  0  0  0
   -5.4039   -0.3074    2.3484 C   0  0  0  0  0  0  0  0  0  0  0  0
   -4.0760   -0.3759    2.0122 C   0  0  0  0  0  0  0  0  0  0  0  0
   -3.6577    0.0340    0.7579 C   0  0  0  0  0  0  0  0  0  0  0  0
   -4.6084    0.5090   -0.1187 C   0  0  0  0  0  0  0  0  0  0  0  0
   -2.2330   -0.0414    0.3539 C   0  0  0  0  0  0  0  0  0  0  0  0
   -1.1542   -0.5088    0.9945 N   0  0  0  0  0  0  0  0  0  0  0  0
   -0.0419   -0.3878    0.2026 C   0  0  0  0  0  0  0  0  0  0  0  0
    1.2814   -0.7040    0.3756 C   0  0  0  0  0  0  0  0  0  0  0  0
    2.2429   -0.4813   -0.5904 C   0  0  0  0  0  0  0  0  0  0  0  0
    1.8004    0.0961   -1.7856 C   0  0  0  0  0  0  0  0  0  0  0  0
    0.4721    0.4156   -1.9611 C   0  0  0  0  0  0  0  0  0  0  0  0
   -0.4712    0.1791   -0.9786 C   0  0  0  0  0  0  0  0  0  0  0  0
   -1.7902    0.3693   -0.8463 N   0  0  0  0  0  0  0  0  0  0  0  0
    3.6052   -0.9325   -0.4320 C   0  0  0  0  0  0  0  0  0  0  0  0
    3.8080   -2.3310   -0.4798 C   0  0  0  0  0  0  0  0  0  0  0  0
    5.0359   -2.9273   -0.3877 C   0  0  0  0  0  0  0  0  0  0  0  0
    6.1270   -2.1108   -0.2396 C   0  0  0  0  0  0  0  0  0  0  0  0
    5.9699   -0.7602   -0.1939 C   0  0  0  0  0  0  0  0  0  0  0  0
    4.7098   -0.1401   -0.2860 C   0  0  0  0  0  0  0  0  0  0  0  0
    4.6882    1.3000   -0.1544 C   0  0  0  0  0  0  0  0  0  0  0  0
    5.7935    2.0493   -0.3353 N   0  0  0  0  0  0  0  0  0  0  0  0
    5.4662    3.3235   -0.2028 N   0  0  0  0  0  0  0  0  0  0  0  0
    4.1892    3.4251    0.0484 N   0  0  0  0  0  0  0  0  0  0  0  0
    3.7210    2.1454    0.0737 N   0  0  0  0  0  0  0  0  0  0  0  0
   -7.4214    0.2013    1.7420 H   0  0  0  0  0  0  0  0  0  0  0  0
   -5.7691   -0.6360    3.3161 H   0  0  0  0  0  0  0  0  0  0  0  0
   -3.3338   -0.7545    2.7118 H   0  0  0  0  0  0  0  0  0  0  0  0
   -4.3085    0.8309   -1.1053 H   0  0  0  0  0  0  0  0  0  0  0  0
    1.6118   -1.1719    1.3366 H   0  0  0  0  0  0  0  0  0  0  0  0
    2.4577    0.2712   -2.6340 H   0  0  0  0  0  0  0  0  0  0  0  0
    0.0798    0.8542   -2.8954 H   0  0  0  0  0  0  0  0  0  0  0  0
   -2.3572    0.8055   -1.6164 H   0  0  0  0  0  0  0  0  0  0  0  0
    2.9160   -2.9632   -0.6035 H   0  0  0  0  0  0  0  0  0  0  0  0
    5.1226   -4.0156   -0.4306 H   0  0  0  0  0  0  0  0  0  0  0  0
    7.1353   -2.5632   -0.1411 H   0  0  0  0  0  0  0  0  0  0  0  0
    6.8720   -0.1376   -0.0645 H   0  0  0  0  0  0  0  0  0  0  0  0
    2.7323    1.9546    0.2895 H   0  0  0  0  0  0  0  0  0  0  0  0
  1  2  1  0
  2  3  1  0
  2  4  1  0
  2  5  1  0
  5  6  2  0
  6  7  1  0
  7  8  2  0
  8  9  1  0
  9 10  2  0
  9 11  1  0
 11 12  2  0
 12 13  1  0
 13 14  2  0
 14 15  1  0
 15 16  2  0
 16 17  1  0
 17 18  2  0
 18 19  1  0
 15 20  1  0
 20 21  2  0
 21 22  1  0
 22 23  2  0
 23 24  1  0
 24 25  2  0
 25 26  1  0
 26 27  2  0
 27 28  1  0
 28 29  2  0
 29 30  1  0
 10  5  1  0
 19 11  1  0
 25 20  1  0
 30 26  1  0
 18 13  1  0
  6 31  1  0
  7 32  1  0
  8 33  1  0
 10 34  1  0
 14 35  1  0
 16 36  1  0
 17 37  1  0
 19 38  1  0
 21 39  1  0
 22 40  1  0
 23 41  1  0
 24 42  1  0
 30 43  1  0
M  END
$$$$
[H]c1c([H])c([H])c(C([H])([H])OC(=O)N([H])[C@]([H])(C(=O)N([H])[C@]([H])(C(=O)N([H])[C@]([H])(C(=O)N([H])[C@]([H])(C(=O)N([H])[H])C([H])([H])c2c([H])c([H])c([H])c([H])c2[H])C([H])([H])C([H])(C([H])([H])[H])C([H])([H])[H])C([H])([H])c2c([H])c([H])c([H])c([H])c2[H])C([H])([H])C([H])(C([H])([H])[H])C([H])([H])[H])c([H])c1[H]
     RDKit          3D

 98100  0  0  0  0  0  0  0  0999 V2000
    1.4769    0.1452    2.4137 C   0  0  0  0  0  0  0  0  0  0  0  0
    2.8859    0.5810    2.5973 C   0  0  0  0  0  0  0  0  0  0  0  0
    3.0850    1.1456    4.0208 C   0  0  0  0  0  0  0  0  0  0  0  0
    3.4639    1.4781    1.5906 C   0  0  0  0  0  0  0  0  0  0  0  0
    3.6596    1.0886    0.1757 C   0  0  2  0  0  0  0  0  0  0  0  0
    4.3088    2.2934   -0.4804 N   0  0  0  0  0  0  0  0  0  0  0  0
    5.5538    2.1280   -1.0747 C   0  0  0  0  0  0  0  0  0  0  0  0
    6.1197    0.9812   -1.0659 O   0  0  0  0  0  0  0  0  0  0  0  0
    6.2580    3.1342   -1.6982 O   0  0  0  0  0  0  0  0  0  0  0  0
    7.4904    3.0646   -2.3176 C   0  0  0  0  0  0  0  0  0  0  0  0
    8.5602    2.6394   -1.3719 C   0  0  0  0  0  0  0  0  0  0  0  0
    9.7548    2.1122   -1.8575 C   0  0  0  0  0  0  0  0  0  0  0  0
   10.7140    1.7356   -0.9643 C   0  0  0  0  0  0  0  0  0  0  0  0
   10.5759    1.8443    0.4113 C   0  0  0  0  0  0  0  0  0  0  0  0
    9.3761    2.3719    0.8420 C   0  0  0  0  0  0  0  0  0  0  0  0
    8.3912    2.7609   -0.0242 C   0  0  0  0  0  0  0  0  0  0  0  0
    2.5648    0.7257   -0.6981 C   0  0  0  0  0  0  0  0  0  0  0  0
    2.1036    1.6122   -1.4982 O   0  0  0  0  0  0  0  0  0  0  0  0
    1.9546   -0.5289   -0.7727 N   0  0  0  0  0  0  0  0  0  0  0  0
    0.8886   -0.9064   -1.6877 C   0  0  1  0  0  0  0  0  0  0  0  0
    1.0155   -2.2499   -2.2863 C   0  0  0  0  0  0  0  0  0  0  0  0
    1.0539   -3.3929   -1.3553 C   0  0  0  0  0  0  0  0  0  0  0  0
    2.2565   -3.8068   -0.8249 C   0  0  0  0  0  0  0  0  0  0  0  0
    2.3586   -4.8783    0.0407 C   0  0  0  0  0  0  0  0  0  0  0  0
    1.2173   -5.5710    0.3967 C   0  0  0  0  0  0  0  0  0  0  0  0
    0.0135   -5.1751   -0.1198 C   0  0  0  0  0  0  0  0  0  0  0  0
   -0.0740   -4.1054   -0.9819 C   0  0  0  0  0  0  0  0  0  0  0  0
   -0.4431   -0.3935   -1.3872 C   0  0  0  0  0  0  0  0  0  0  0  0
   -0.5329    0.5843   -0.5547 O   0  0  0  0  0  0  0  0  0  0  0  0
   -1.6705   -0.8300   -1.8965 N   0  0  0  0  0  0  0  0  0  0  0  0
   -2.9519   -0.1812   -1.5211 C   0  0  1  0  0  0  0  0  0  0  0  0
   -3.7343   -0.1228   -2.7729 C   0  0  0  0  0  0  0  0  0  0  0  0
   -5.0753    0.4894   -2.7661 C   0  0  0  0  0  0  0  0  0  0  0  0
   -5.6115    0.3913   -4.2172 C   0  0  0  0  0  0  0  0  0  0  0  0
   -5.0817    1.9668   -2.4611 C   0  0  0  0  0  0  0  0  0  0  0  0
   -3.5723   -1.0587   -0.5014 C   0  0  0  0  0  0  0  0  0  0  0  0
   -3.0578   -2.1929   -0.2016 O   0  0  0  0  0  0  0  0  0  0  0  0
   -4.7514   -0.7513    0.2298 N   0  0  0  0  0  0  0  0  0  0  0  0
   -5.3013   -1.6682    1.2287 C   0  0  1  0  0  0  0  0  0  0  0  0
   -5.1789   -1.0732    2.6144 C   0  0  0  0  0  0  0  0  0  0  0  0
   -5.8695    0.2073    2.7783 C   0  0  0  0  0  0  0  0  0  0  0  0
   -7.1609    0.2938    3.2296 C   0  0  0  0  0  0  0  0  0  0  0  0
   -7.7713    1.5296    3.3600 C   0  0  0  0  0  0  0  0  0  0  0  0
   -7.0855    2.6724    3.0381 C   0  0  0  0  0  0  0  0  0  0  0  0
   -5.7880    2.6044    2.5834 C   0  0  0  0  0  0  0  0  0  0  0  0
   -5.2031    1.3807    2.4614 C   0  0  0  0  0  0  0  0  0  0  0  0
   -6.6561   -2.0599    0.8497 C   0  0  0  0  0  0  0  0  0  0  0  0
   -7.4031   -2.9664    1.6432 N   0  0  0  0  0  0  0  0  0  0  0  0
   -7.1879   -1.6019   -0.1879 O   0  0  0  0  0  0  0  0  0  0  0  0
    1.3957   -0.8904    2.0684 H   0  0  0  0  0  0  0  0  0  0  0  0
    0.9026    0.2613    3.4000 H   0  0  0  0  0  0  0  0  0  0  0  0
    0.9716    0.8255    1.7391 H   0  0  0  0  0  0  0  0  0  0  0  0
    3.4966   -0.3935    2.6199 H   0  0  0  0  0  0  0  0  0  0  0  0
    3.9997    0.7260    4.4754 H   0  0  0  0  0  0  0  0  0  0  0  0
    3.2080    2.2267    3.9002 H   0  0  0  0  0  0  0  0  0  0  0  0
    2.2186    0.9034    4.6532 H   0  0  0  0  0  0  0  0  0  0  0  0
    2.8914    2.4853    1.6233 H   0  0  0  0  0  0  0  0  0  0  0  0
    4.4940    1.8354    1.9541 H   0  0  0  0  0  0  0  0  0  0  0  0
    4.4890    0.3293    0.1601 H   0  0  0  0  0  0  0  0  0  0  0  0
    3.7976    3.1647   -0.4513 H   0  0  0  0  0  0  0  0  0  0  0  0
    7.5263    2.2863   -3.1390 H   0  0  0  0  0  0  0  0  0  0  0  0
    7.7837    4.0087   -2.8335 H   0  0  0  0  0  0  0  0  0  0  0  0
    9.8577    2.0301   -2.9428 H   0  0  0  0  0  0  0  0  0  0  0  0
   11.6475    1.3230   -1.3629 H   0  0  0  0  0  0  0  0  0  0  0  0
   11.3684    1.5293    1.0657 H   0  0  0  0  0  0  0  0  0  0  0  0
    9.2315    2.4726    1.9096 H   0  0  0  0  0  0  0  0  0  0  0  0
    7.4817    3.1694    0.4278 H   0  0  0  0  0  0  0  0  0  0  0  0
    2.3482   -1.2642   -0.0967 H   0  0  0  0  0  0  0  0  0  0  0  0
    1.1675   -0.1929   -2.6058 H   0  0  0  0  0  0  0  0  0  0  0  0
    1.9452   -2.3205   -2.9340 H   0  0  0  0  0  0  0  0  0  0  0  0
    0.1992   -2.4581   -3.0458 H   0  0  0  0  0  0  0  0  0  0  0  0
    3.1975   -3.3044   -1.0644 H   0  0  0  0  0  0  0  0  0  0  0  0
    3.3133   -5.1999    0.4554 H   0  0  0  0  0  0  0  0  0  0  0  0
    1.3037   -6.4101    1.0749 H   0  0  0  0  0  0  0  0  0  0  0  0
   -0.9100   -5.6883    0.1313 H   0  0  0  0  0  0  0  0  0  0  0  0
   -1.0504   -3.8332   -1.3722 H   0  0  0  0  0  0  0  0  0  0  0  0
   -1.7454   -1.6227   -2.5539 H   0  0  0  0  0  0  0  0  0  0  0  0
   -2.7429    0.7848   -1.0178 H   0  0  0  0  0  0  0  0  0  0  0  0
   -3.8688   -1.1883   -3.1486 H   0  0  0  0  0  0  0  0  0  0  0  0
   -3.1048    0.3309   -3.6005 H   0  0  0  0  0  0  0  0  0  0  0  0
   -5.8509   -0.0009   -2.1691 H   0  0  0  0  0  0  0  0  0  0  0  0
   -5.4545   -0.6699   -4.5543 H   0  0  0  0  0  0  0  0  0  0  0  0
   -6.6670    0.6618   -4.2754 H   0  0  0  0  0  0  0  0  0  0  0  0
   -4.9860    1.0071   -4.9050 H   0  0  0  0  0  0  0  0  0  0  0  0
   -4.2637    2.4250   -3.0691 H   0  0  0  0  0  0  0  0  0  0  0  0
   -6.0260    2.3837   -2.9128 H   0  0  0  0  0  0  0  0  0  0  0  0
   -5.0210    2.2129   -1.4031 H   0  0  0  0  0  0  0  0  0  0  0  0
   -5.2322    0.1576    0.0631 H   0  0  0  0  0  0  0  0  0  0  0  0
   -4.5953   -2.5566    1.2440 H   0  0  0  0  0  0  0  0  0  0  0  0
   -4.1108   -1.0583    2.8957 H   0  0  0  0  0  0  0  0  0  0  0  0
   -5.6720   -1.8049    3.3201 H   0  0  0  0  0  0  0  0  0  0  0  0
   -7.7117   -0.6053    3.4923 H   0  0  0  0  0  0  0  0  0  0  0  0
   -8.7975    1.5600    3.7212 H   0  0  0  0  0  0  0  0  0  0  0  0
   -7.5859    3.6322    3.1479 H   0  0  0  0  0  0  0  0  0  0  0  0
   -5.2461    3.5231    2.3279 H   0  0  0  0  0  0  0  0  0  0  0  0
   -4.1694    1.3722    2.0962 H   0  0  0  0  0  0  0  0  0  0  0  0
   -7.9056   -3.7441    1.1689 H   0  0  0  0  0  0  0  0  0  0  0  0
   -7.4570   -2.8689    2.6769 H   0  0  0  0  0  0  0  0  0  0  0  0
  1  2  1  0
  2  3  1  0
  2  4  1  0
  4  5  1  0
  5  6  1  0
  6  7  1  0
  7  8  2  0
  7  9  1  0
  9 10  1  0
 10 11  1  0
 11 12  2  0
 12 13  1  0
 13 14  2  0
 14 15  1  0
 15 16  2  0
  5 17  1  0
 17 18  2  0
 17 19  1  0
 19 20  1  0
 20 21  1  0
 21 22  1  0
 22 23  2  0
 23 24  1  0
 24 25  2  0
 25 26  1  0
 26 27  2  0
 20 28  1  0
 28 29  2  0
 28 30  1  0
 30 31  1  0
 31 32  1  0
 32 33  1  0
 33 34  1  0
 33 35  1  0
 31 36  1  0
 36 37  2  0
 36 38  1  0
 38 39  1  0
 39 40  1  0
 40 41  1  0
 41 42  2  0
 42 43  1  0
 43 44  2  0
 44 45  1  0
 45 46  2  0
 39 47  1  0
 47 48  1  0
 47 49  2  0
 16 11  1  0
 27 22  1  0
 46 41  1  0
  1 50  1  0
  1 51  1  0
  1 52  1  0
  2 53  1  0
  3 54  1  0
  3 55  1  0
  3 56  1  0
  4 57  1  0
  4 58  1  0
  5 59  1  1
  6 60  1  0
 10 61  1  0
 10 62  1  0
 12 63  1  0
 13 64  1  0
 14 65  1  0
 15 66  1  0
 16 67  1  0
 19 68  1  0
 20 69  1  6
 21 70  1  0
 21 71  1  0
 23 72  1  0
 24 73  1  0
 25 74  1  0
 26 75  1  0
 27 76  1  0
 30 77  1  0
 31 78  1  1
 32 79  1  0
 32 80  1  0
 33 81  1  0
 34 82  1  0
 34 83  1  0
 34 84  1  0
 35 85  1  0
 35 86  1  0
 35 87  1  0
 38 88  1  0
 39 89  1  1
 40 90  1  0
 40 91  1  0
 42 92  1  0
 43 93  1  0
 44 94  1  0
 45 95  1  0
 46 96  1  0
 48 97  1  0
 48 98  1  0
M  END
$$$$
[H]c1c([H])c([H])c(C(=O)N([H])[C@]([H])(C(=O)N([H])[C@@]2([H])c3c([H])c([H])c([H])c([H])c3C([H])([H])C2([H])[H])C([H])([H])c2c([H])c([H])c([H])c([H])c2[H])c([H])c1[H]
     RDKit          3D

 53 56  0  0  0  0  0  0  0  0999 V2000
    1.5045   -0.2526   -2.5257 O   0  0  0  0  0  0  0  0  0  0  0  0
    1.7999   -0.9005   -1.4939 C   0  0  0  0  0  0  0  0  0  0  0  0
    1.2943   -0.5315   -0.2316 N   0  0  0  0  0  0  0  0  0  0  0  0
    0.4164    0.5475    0.0884 C   0  0  1  0  0  0  0  0  0  0  0  0
    0.9817    1.8875   -0.2223 C   0  0  0  0  0  0  0  0  0  0  0  0
    2.2113    2.2591    0.4861 C   0  0  0  0  0  0  0  0  0  0  0  0
    3.4726    2.0204    0.0109 C   0  0  0  0  0  0  0  0  0  0  0  0
    4.6133    2.3997    0.7064 C   0  0  0  0  0  0  0  0  0  0  0  0
    4.5090    3.0333    1.9008 C   0  0  0  0  0  0  0  0  0  0  0  0
    3.2627    3.3010    2.4259 C   0  0  0  0  0  0  0  0  0  0  0  0
    2.1657    2.9198    1.7289 C   0  0  0  0  0  0  0  0  0  0  0  0
   -0.9172    0.3321   -0.5448 C   0  0  0  0  0  0  0  0  0  0  0  0
   -1.0347   -0.5819   -1.3797 O   0  0  0  0  0  0  0  0  0  0  0  0
   -2.0372    1.1157   -0.2241 N   0  0  0  0  0  0  0  0  0  0  0  0
   -3.3314    0.9340   -0.8054 C   0  0  2  0  0  0  0  0  0  0  0  0
   -4.3078    2.0210   -0.4810 C   0  0  0  0  0  0  0  0  0  0  0  0
   -4.4648    1.7314    1.0427 C   0  0  0  0  0  0  0  0  0  0  0  0
   -4.6915    0.2501    0.9454 C   0  0  0  0  0  0  0  0  0  0  0  0
   -5.4198   -0.6496    1.7138 C   0  0  0  0  0  0  0  0  0  0  0  0
   -5.4563   -1.9949    1.3498 C   0  0  0  0  0  0  0  0  0  0  0  0
   -4.7968   -2.4832    0.2521 C   0  0  0  0  0  0  0  0  0  0  0  0
   -4.0775   -1.5503   -0.4918 C   0  0  0  0  0  0  0  0  0  0  0  0
   -4.0302   -0.2405   -0.1556 C   0  0  0  0  0  0  0  0  0  0  0  0
    2.6857   -2.0520   -1.6680 C   0  0  0  0  0  0  0  0  0  0  0  0
    3.5199   -2.4994   -0.6644 C   0  0  0  0  0  0  0  0  0  0  0  0
    4.3262   -3.5929   -0.7989 C   0  0  0  0  0  0  0  0  0  0  0  0
    4.3131   -4.2870   -1.9873 C   0  0  0  0  0  0  0  0  0  0  0  0
    3.4889   -3.8736   -3.0303 C   0  0  0  0  0  0  0  0  0  0  0  0
    2.6813   -2.7491   -2.8486 C   0  0  0  0  0  0  0  0  0  0  0  0
    1.6209   -1.1631    0.5768 H   0  0  0  0  0  0  0  0  0  0  0  0
    0.1915    0.4941    1.1944 H   0  0  0  0  0  0  0  0  0  0  0  0
    0.2228    2.6987    0.0089 H   0  0  0  0  0  0  0  0  0  0  0  0
    1.1135    2.0189   -1.3434 H   0  0  0  0  0  0  0  0  0  0  0  0
    3.6024    1.5307   -0.9388 H   0  0  0  0  0  0  0  0  0  0  0  0
    5.5885    2.1899    0.2921 H   0  0  0  0  0  0  0  0  0  0  0  0
    5.3788    3.3363    2.4638 H   0  0  0  0  0  0  0  0  0  0  0  0
    3.2046    3.8095    3.3763 H   0  0  0  0  0  0  0  0  0  0  0  0
    1.1627    3.1065    2.1032 H   0  0  0  0  0  0  0  0  0  0  0  0
   -1.9379    1.8952    0.4864 H   0  0  0  0  0  0  0  0  0  0  0  0
   -3.3276    0.6891   -1.8740 H   0  0  0  0  0  0  0  0  0  0  0  0
   -5.2722    1.8814   -0.9705 H   0  0  0  0  0  0  0  0  0  0  0  0
   -3.8827    3.0255   -0.5752 H   0  0  0  0  0  0  0  0  0  0  0  0
   -5.3718    2.2563    1.3595 H   0  0  0  0  0  0  0  0  0  0  0  0
   -3.5646    2.0191    1.5696 H   0  0  0  0  0  0  0  0  0  0  0  0
   -5.9531   -0.3070    2.5856 H   0  0  0  0  0  0  0  0  0  0  0  0
   -6.0329   -2.6873    1.9633 H   0  0  0  0  0  0  0  0  0  0  0  0
   -4.8126   -3.5118   -0.0489 H   0  0  0  0  0  0  0  0  0  0  0  0
   -3.5661   -1.9587   -1.3612 H   0  0  0  0  0  0  0  0  0  0  0  0
    3.5002   -1.9137    0.2608 H   0  0  0  0  0  0  0  0  0  0  0  0
    4.9549   -3.8801    0.0379 H   0  0  0  0  0  0  0  0  0  0  0  0
    4.9466   -5.1588   -2.1163 H   0  0  0  0  0  0  0  0  0  0  0  0
    3.4910   -4.4193   -3.9500 H   0  0  0  0  0  0  0  0  0  0  0  0
    2.0618   -2.4648   -3.6884 H   0  0  0  0  0  0  0  0  0  0  0  0
  1  2  2  0
  2  3  1  0
  3  4  1  0
  4  5  1  0
  5  6  1  0
  6  7  2  0
  7  8  1  0
  8  9  2  0
  9 10  1  0
 10 11  2  0
  4 12  1  0
 12 13  2  0
 12 14  1  0
 14 15  1  0
 15 16  1  0
 16 17  1  0
 17 18  1  0
 18 19  2  0
 19 20  1  0
 20 21  2  0
 21 22  1  0
 22 23  2  0
  2 24  1  0
 24 25  2  0
 25 26  1  0
 26 27  2  0
 27 28  1  0
 28 29  2  0
 11  6  1  0
 23 15  1  0
 29 24  1  0
 23 18  1  0
  3 30  1  0
  4 31  1  1
  5 32  1  0
  5 33  1  0
  7 34  1  0
  8 35  1  0
  9 36  1  0
 10 37  1  0
 11 38  1  0
 14 39  1  0
 15 40  1  6
 16 41  1  0
 16 42  1  0
 17 43  1  0
 17 44  1  0
 19 45  1  0
 20 46  1  0
 21 47  1  0
 22 48  1  0
 25 49  1  0
 26 50  1  0
 27 51  1  0
 28 52  1  0
 29 53  1  0
M  END
$$$$
[H]c1nc(C2([H])C([H])([H])C([H])([H])N([C@]3([H])C([H])([H])C([H])([H])[C@@]([H])(N([H])C(=O)c4c([H])c([H])c([H])c([H])c4[H])C([H])([H])C3([H])[H])C([H])([H])C2([H])[H])c([H])nc1-c1c([H])nn(C(F)(F)F)c1[H]
     RDKit          3D

 65 69  0  0  0  0  0  0  0  0999 V2000
   -6.3007    0.1429   -1.9150 O   0  0  0  0  0  0  0  0  0  0  0  0
   -6.3469    0.4535   -0.7008 C   0  0  0  0  0  0  0  0  0  0  0  0
   -5.2389    0.1735    0.1171 N   0  0  0  0  0  0  0  0  0  0  0  0
   -4.0399   -0.4643   -0.4058 C   0  0  1  0  0  0  0  0  0  0  0  0
   -2.8242    0.3798   -0.2611 C   0  0  0  0  0  0  0  0  0  0  0  0
   -1.8490   -0.0928    0.7813 C   0  0  0  0  0  0  0  0  0  0  0  0
   -1.4902   -1.5582    0.6176 C   0  0  1  0  0  0  0  0  0  0  0  0
   -2.4499   -2.2869   -0.2627 C   0  0  0  0  0  0  0  0  0  0  0  0
   -3.8520   -1.8474    0.1942 C   0  0  0  0  0  0  0  0  0  0  0  0
   -0.1216   -1.7160    0.2979 N   0  0  0  0  0  0  0  0  0  0  0  0
    0.8019   -1.2648    1.2772 C   0  0  0  0  0  0  0  0  0  0  0  0
    2.1034   -2.0162    1.0963 C   0  0  0  0  0  0  0  0  0  0  0  0
    2.6516   -1.6476   -0.2623 C   0  0  0  0  0  0  0  0  0  0  0  0
    1.6266   -0.8737   -1.0803 C   0  0  0  0  0  0  0  0  0  0  0  0
    0.2681   -1.5776   -1.0492 C   0  0  0  0  0  0  0  0  0  0  0  0
    3.8955   -0.8845   -0.1968 C   0  0  0  0  0  0  0  0  0  0  0  0
    4.0116    0.3624    0.3849 C   0  0  0  0  0  0  0  0  0  0  0  0
    5.1986    0.9941    0.4016 N   0  0  0  0  0  0  0  0  0  0  0  0
    6.3073    0.4753   -0.1256 C   0  0  0  0  0  0  0  0  0  0  0  0
    6.2081   -0.7728   -0.7121 C   0  0  0  0  0  0  0  0  0  0  0  0
    5.0172   -1.4005   -0.7259 N   0  0  0  0  0  0  0  0  0  0  0  0
    7.5679    1.1946   -0.0849 C   0  0  0  0  0  0  0  0  0  0  0  0
    7.8062    2.4322    0.4615 C   0  0  0  0  0  0  0  0  0  0  0  0
    9.1016    2.7339    0.2891 N   0  0  0  0  0  0  0  0  0  0  0  0
    9.6961    1.7531   -0.3370 N   0  0  0  0  0  0  0  0  0  0  0  0
    8.7827    0.7814   -0.5866 C   0  0  0  0  0  0  0  0  0  0  0  0
   11.0819    1.7052   -0.7026 C   0  0  0  0  0  0  0  0  0  0  0  0
   11.2088    2.1033   -2.0108 F   0  0  0  0  0  0  0  0  0  0  0  0
   11.8189    2.5208    0.1151 F   0  0  0  0  0  0  0  0  0  0  0  0
   11.5105    0.3910   -0.5357 F   0  0  0  0  0  0  0  0  0  0  0  0
   -7.5378    1.0915   -0.1690 C   0  0  0  0  0  0  0  0  0  0  0  0
   -8.7150    1.1371   -0.9094 C   0  0  0  0  0  0  0  0  0  0  0  0
   -9.8524    1.7384   -0.4314 C   0  0  0  0  0  0  0  0  0  0  0  0
   -9.8631    2.3201    0.8066 C   0  0  0  0  0  0  0  0  0  0  0  0
   -8.7181    2.2951    1.5677 C   0  0  0  0  0  0  0  0  0  0  0  0
   -7.5623    1.6798    1.0726 C   0  0  0  0  0  0  0  0  0  0  0  0
   -5.2791    0.4269    1.1250 H   0  0  0  0  0  0  0  0  0  0  0  0
   -4.2080   -0.6413   -1.5000 H   0  0  0  0  0  0  0  0  0  0  0  0
   -2.2959    0.5582   -1.2290 H   0  0  0  0  0  0  0  0  0  0  0  0
   -3.1660    1.3997    0.0756 H   0  0  0  0  0  0  0  0  0  0  0  0
   -2.2620    0.1515    1.7647 H   0  0  0  0  0  0  0  0  0  0  0  0
   -0.9187    0.5098    0.6639 H   0  0  0  0  0  0  0  0  0  0  0  0
   -1.6289   -2.0042    1.6493 H   0  0  0  0  0  0  0  0  0  0  0  0
   -2.3980   -2.0022   -1.3285 H   0  0  0  0  0  0  0  0  0  0  0  0
   -2.4134   -3.3676   -0.1246 H   0  0  0  0  0  0  0  0  0  0  0  0
   -3.8475   -1.7846    1.2899 H   0  0  0  0  0  0  0  0  0  0  0  0
   -4.5909   -2.5654   -0.2146 H   0  0  0  0  0  0  0  0  0  0  0  0
    0.3601   -1.4643    2.2828 H   0  0  0  0  0  0  0  0  0  0  0  0
    0.9925   -0.1812    1.1248 H   0  0  0  0  0  0  0  0  0  0  0  0
    1.8510   -3.0949    1.1583 H   0  0  0  0  0  0  0  0  0  0  0  0
    2.8203   -1.8246    1.9201 H   0  0  0  0  0  0  0  0  0  0  0  0
    2.8330   -2.5981   -0.7995 H   0  0  0  0  0  0  0  0  0  0  0  0
    1.9778   -0.9318   -2.1345 H   0  0  0  0  0  0  0  0  0  0  0  0
    1.5666    0.1755   -0.8001 H   0  0  0  0  0  0  0  0  0  0  0  0
    0.3950   -2.4994   -1.6253 H   0  0  0  0  0  0  0  0  0  0  0  0
   -0.4191   -0.9161   -1.6103 H   0  0  0  0  0  0  0  0  0  0  0  0
    3.1519    0.8098    0.8149 H   0  0  0  0  0  0  0  0  0  0  0  0
    7.0970   -1.2099   -1.1448 H   0  0  0  0  0  0  0  0  0  0  0  0
    7.0902    3.0716    0.9507 H   0  0  0  0  0  0  0  0  0  0  0  0
    8.9491   -0.1597   -1.0879 H   0  0  0  0  0  0  0  0  0  0  0  0
   -8.6954    0.6729   -1.8900 H   0  0  0  0  0  0  0  0  0  0  0  0
  -10.7804    1.7761   -1.0106 H   0  0  0  0  0  0  0  0  0  0  0  0
  -10.7392    2.8118    1.2370 H   0  0  0  0  0  0  0  0  0  0  0  0
   -8.6689    2.7389    2.5530 H   0  0  0  0  0  0  0  0  0  0  0  0
   -6.6759    1.6871    1.7084 H   0  0  0  0  0  0  0  0  0  0  0  0
  1  2  2  0
  2  3  1  0
  3  4  1  0
  4  5  1  0
  5  6  1  0
  6  7  1  0
  7  8  1  0
  8  9  1  0
  7 10  1  0
 10 11  1  0
 11 12  1  0
 12 13  1  0
 13 14  1  0
 14 15  1  0
 13 16  1  0
 16 17  2  0
 17 18  1  0
 18 19  2  0
 19 20  1  0
 20 21  2  0
 19 22  1  0
 22 23  1  0
 23 24  2  0
 24 25  1  0
 25 26  1  0
 25 27  1  0
 27 28  1  0
 27 29  1  0
 27 30  1  0
  2 31  1  0
 31 32  2  0
 32 33  1  0
 33 34  2  0
 34 35  1  0
 35 36  2  0
  9  4  1  0
 15 10  1  0
 21 16  1  0
 26 22  2  0
 36 31  1  0
  3 37  1  0
  4 38  1  6
  5 39  1  0
  5 40  1  0
  6 41  1  0
  6 42  1  0
  7 43  1  1
  8 44  1  0
  8 45  1  0
  9 46  1  0
  9 47  1  0
 11 48  1  0
 11 49  1  0
 12 50  1  0
 12 51  1  0
 13 52  1  0
 14 53  1  0
 14 54  1  0
 15 55  1  0
 15 56  1  0
 17 57  1  0
 20 58  1  0
 23 59  1  0
 26 60  1  0
 32 61  1  0
 33 62  1  0
 34 63  1  0
 35 64  1  0
 36 65  1  0
M  END
$$$$
[H]OC([H])([H])[C@@]1([H])N(S(=O)(=O)c2c([H])c([H])c(OC([H])([H])[H])c([H])c2[H])C([H])([H])[C@@]([H])(O[H])[C@@]([H])(O[H])[C@@]1([H])O[H]
     RDKit          3D

 41 42  0  0  0  0  0  0  0  0999 V2000
    6.2587   -0.8868    1.5388 C   0  0  0  0  0  0  0  0  0  0  0  0
    5.0736   -1.6180    1.7209 O   0  0  0  0  0  0  0  0  0  0  0  0
    3.9131   -1.3727    0.9932 C   0  0  0  0  0  0  0  0  0  0  0  0
    3.8325   -0.3830    0.0259 C   0  0  0  0  0  0  0  0  0  0  0  0
    2.6374   -0.2003   -0.6574 C   0  0  0  0  0  0  0  0  0  0  0  0
    1.5328   -0.9782   -0.3965 C   0  0  0  0  0  0  0  0  0  0  0  0
    1.6172   -1.9483    0.5538 C   0  0  0  0  0  0  0  0  0  0  0  0
    2.7941   -2.1403    1.2381 C   0  0  0  0  0  0  0  0  0  0  0  0
    0.1085   -0.6375   -1.3349 S   0  0  0  0  0  0  0  0  0  0  0  0
   -0.6086   -1.9564   -1.5370 O   0  0  0  0  0  0  0  0  0  0  0  0
    0.5378   -0.1984   -2.7155 O   0  0  0  0  0  0  0  0  0  0  0  0
   -0.8879    0.5706   -0.6641 N   0  0  0  0  0  0  0  0  0  0  0  0
   -1.3387    0.1035    0.6314 C   0  0  0  0  0  0  0  0  0  0  0  0
   -2.6859   -0.5954    0.4925 C   0  0  1  0  0  0  0  0  0  0  0  0
   -3.0135   -1.2001    1.7058 O   0  0  0  0  0  0  0  0  0  0  0  0
   -3.7676    0.4066    0.1715 C   0  0  1  0  0  0  0  0  0  0  0  0
   -4.2622    0.9276    1.3849 O   0  0  0  0  0  0  0  0  0  0  0  0
   -3.1751    1.4691   -0.6925 C   0  0  1  0  0  0  0  0  0  0  0  0
   -2.8060    2.6152   -0.0119 O   0  0  0  0  0  0  0  0  0  0  0  0
   -2.0208    0.8714   -1.4725 C   0  0  1  0  0  0  0  0  0  0  0  0
   -1.7459    1.8268   -2.6100 C   0  0  0  0  0  0  0  0  0  0  0  0
   -1.2837    3.0241   -2.0837 O   0  0  0  0  0  0  0  0  0  0  0  0
    6.7878   -1.1072    0.6034 H   0  0  0  0  0  0  0  0  0  0  0  0
    6.8921   -1.0707    2.4421 H   0  0  0  0  0  0  0  0  0  0  0  0
    5.9755    0.1892    1.5161 H   0  0  0  0  0  0  0  0  0  0  0  0
    4.7026    0.2286   -0.1786 H   0  0  0  0  0  0  0  0  0  0  0  0
    2.6237    0.5930   -1.4108 H   0  0  0  0  0  0  0  0  0  0  0  0
    0.7583   -2.5600    0.7613 H   0  0  0  0  0  0  0  0  0  0  0  0
    2.8855   -2.9233    2.0150 H   0  0  0  0  0  0  0  0  0  0  0  0
   -0.6535   -0.6527    1.0625 H   0  0  0  0  0  0  0  0  0  0  0  0
   -1.4026    0.9222    1.3743 H   0  0  0  0  0  0  0  0  0  0  0  0
   -2.6267   -1.3785   -0.2593 H   0  0  0  0  0  0  0  0  0  0  0  0
   -3.9703   -1.4949    1.6077 H   0  0  0  0  0  0  0  0  0  0  0  0
   -4.6217   -0.0657   -0.3715 H   0  0  0  0  0  0  0  0  0  0  0  0
   -3.6665    0.6743    2.1297 H   0  0  0  0  0  0  0  0  0  0  0  0
   -3.9297    1.7847   -1.4641 H   0  0  0  0  0  0  0  0  0  0  0  0
   -3.5215    2.8212    0.6460 H   0  0  0  0  0  0  0  0  0  0  0  0
   -2.3967   -0.0690   -1.9215 H   0  0  0  0  0  0  0  0  0  0  0  0
   -2.7615    2.0682   -3.0457 H   0  0  0  0  0  0  0  0  0  0  0  0
   -1.1626    1.4228   -3.4291 H   0  0  0  0  0  0  0  0  0  0  0  0
   -0.6222    2.9181   -1.3763 H   0  0  0  0  0  0  0  0  0  0  0  0
  1  2  1  0
  2  3  1  0
  3  4  2  0
  4  5  1  0
  5  6  2  0
  6  7  1  0
  7  8  2  0
  6  9  1  0
  9 10  2  0
  9 11  2  0
  9 12  1  0
 12 13  1  0
 13 14  1  0
 14 15  1  0
 14 16  1  0
 16 17  1  0
 16 18  1  0
 18 19  1  0
 18 20  1  0
 20 21  1  0
 21 22  1  0
  8  3  1  0
 20 12  1  0
  1 23  1  0
  1 24  1  0
  1 25  1  0
  4 26  1  0
  5 27  1  0
  7 28  1  0
  8 29  1  0
 13 30  1  0
 13 31  1  0
 14 32  1  6
 15 33  1  0
 16 34  1  6
 17 35  1  0
 18 36  1  6
 19 37  1  0
 20 38  1  6
 21 39  1  0
 21 40  1  0
 22 41  1  0
M  END
$$$$
[H]N=C(N([H])[H])N([H])C([H])([H])C([H])([H])C([H])([H])[C@@]([H])(C(=O)N([H])[C@]([H])(C(=O)N([H])[H])C([H])([H])c1c([H])c([H])c([H])c([H])c1[H])N([H])C(=O)[C@@]([H])(N([H])C(=O)[C@@]([H])(N([H])C(=O)[C@@]([H])(N([H])C(=O)OC(C([H])([H])[H])(C([H])([H])[H])C([H])([H])[H])C([H])([H])c1c([H])c([H])c([H])c([H])c1[H])C([H])([H])c1c([H])c([H])c([H])c([H])c1[H])C([H])([H])C([H])([H])C([H])([H])N([H])C(=N[H])N([H])[H]
     RDKit          3D

125127  0  0  0  0  0  0  0  0999 V2000
   10.7500    0.9320   -0.1344 C   0  0  0  0  0  0  0  0  0  0  0  0
   10.8219   -0.5824   -0.2279 C   0  0  0  0  0  0  0  0  0  0  0  0
   11.3045   -0.9580   -1.5828 C   0  0  0  0  0  0  0  0  0  0  0  0
   11.8778   -1.0237    0.7874 C   0  0  0  0  0  0  0  0  0  0  0  0
    9.6055   -1.1813    0.1670 O   0  0  0  0  0  0  0  0  0  0  0  0
    8.3963   -0.9293   -0.4405 C   0  0  0  0  0  0  0  0  0  0  0  0
    8.3867   -0.1155   -1.3966 O   0  0  0  0  0  0  0  0  0  0  0  0
    7.2266   -1.5760    0.0169 N   0  0  0  0  0  0  0  0  0  0  0  0
    5.9250   -1.3354   -0.5900 C   0  0  1  0  0  0  0  0  0  0  0  0
    5.5719   -2.5503   -1.3875 C   0  0  0  0  0  0  0  0  0  0  0  0
    5.5024   -3.8043   -0.6079 C   0  0  0  0  0  0  0  0  0  0  0  0
    4.3519   -4.2844   -0.0422 C   0  0  0  0  0  0  0  0  0  0  0  0
    4.3148   -5.4535    0.6844 C   0  0  0  0  0  0  0  0  0  0  0  0
    5.5182   -6.1484    0.8293 C   0  0  0  0  0  0  0  0  0  0  0  0
    6.6698   -5.6723    0.2662 C   0  0  0  0  0  0  0  0  0  0  0  0
    6.6888   -4.5053   -0.4555 C   0  0  0  0  0  0  0  0  0  0  0  0
    4.9342   -0.9458    0.4362 C   0  0  0  0  0  0  0  0  0  0  0  0
    4.9508   -1.4425    1.5837 O   0  0  0  0  0  0  0  0  0  0  0  0
    3.9737    0.0011    0.0925 N   0  0  0  0  0  0  0  0  0  0  0  0
    2.9112    0.5190    0.9894 C   0  0  1  0  0  0  0  0  0  0  0  0
    3.4801    1.8709    1.3871 C   0  0  0  0  0  0  0  0  0  0  0  0
    2.7266    2.7024    2.2802 C   0  0  0  0  0  0  0  0  0  0  0  0
    1.8938    3.7206    1.8552 C   0  0  0  0  0  0  0  0  0  0  0  0
    1.1615    4.5189    2.7182 C   0  0  0  0  0  0  0  0  0  0  0  0
    1.2582    4.3008    4.0581 C   0  0  0  0  0  0  0  0  0  0  0  0
    2.0674    3.3078    4.5388 C   0  0  0  0  0  0  0  0  0  0  0  0
    2.7921    2.5182    3.6713 C   0  0  0  0  0  0  0  0  0  0  0  0
    1.6672    0.6109    0.1789 C   0  0  0  0  0  0  0  0  0  0  0  0
    1.7973    0.3027   -1.0445 O   0  0  0  0  0  0  0  0  0  0  0  0
    0.4230    1.0029    0.6678 N   0  0  0  0  0  0  0  0  0  0  0  0
   -0.8347    1.2039    0.0557 C   0  0  1  0  0  0  0  0  0  0  0  0
   -0.9512    1.1779   -1.4240 C   0  0  0  0  0  0  0  0  0  0  0  0
   -0.2408    2.3322   -2.0542 C   0  0  0  0  0  0  0  0  0  0  0  0
   -0.3189    2.2461   -3.5745 C   0  0  0  0  0  0  0  0  0  0  0  0
   -1.6745    2.2811   -4.0593 N   0  0  0  0  0  0  0  0  0  0  0  0
   -2.4068    3.4781   -3.9203 C   0  0  0  0  0  0  0  0  0  0  0  0
   -1.9494    4.6355   -4.6523 N   0  0  0  0  0  0  0  0  0  0  0  0
   -3.4528    3.6325   -3.1940 N   0  0  0  0  0  0  0  0  0  0  0  0
   -2.0159    0.6855    0.7337 C   0  0  0  0  0  0  0  0  0  0  0  0
   -1.9410    0.0083    1.8154 O   0  0  0  0  0  0  0  0  0  0  0  0
   -3.3107    0.9095    0.2341 N   0  0  0  0  0  0  0  0  0  0  0  0
   -4.5320    0.4383    0.8784 C   0  0  1  0  0  0  0  0  0  0  0  0
   -5.5813    1.5334    0.8803 C   0  0  0  0  0  0  0  0  0  0  0  0
   -5.1280    2.7607    1.6172 C   0  0  0  0  0  0  0  0  0  0  0  0
   -6.2629    3.7910    1.5056 C   0  0  0  0  0  0  0  0  0  0  0  0
   -5.8900    4.9924    2.1892 N   0  0  0  0  0  0  0  0  0  0  0  0
   -6.7433    6.1101    2.2214 C   0  0  0  0  0  0  0  0  0  0  0  0
   -6.2027    7.3971    2.5835 N   0  0  0  0  0  0  0  0  0  0  0  0
   -7.9950    6.1004    1.9503 N   0  0  0  0  0  0  0  0  0  0  0  0
   -5.0925   -0.6662    0.0383 C   0  0  0  0  0  0  0  0  0  0  0  0
   -4.4500   -1.0384   -0.9606 O   0  0  0  0  0  0  0  0  0  0  0  0
   -6.3188   -1.2859    0.3495 N   0  0  0  0  0  0  0  0  0  0  0  0
   -6.8094   -2.3763   -0.5226 C   0  0  1  0  0  0  0  0  0  0  0  0
   -7.0821   -3.5267    0.3835 C   0  0  0  0  0  0  0  0  0  0  0  0
   -7.5879   -4.7552   -0.2162 C   0  0  0  0  0  0  0  0  0  0  0  0
   -6.7418   -5.7284   -0.7602 C   0  0  0  0  0  0  0  0  0  0  0  0
   -7.2460   -6.8909   -1.2906 C   0  0  0  0  0  0  0  0  0  0  0  0
   -8.5947   -7.1604   -1.3160 C   0  0  0  0  0  0  0  0  0  0  0  0
   -9.4361   -6.2189   -0.7871 C   0  0  0  0  0  0  0  0  0  0  0  0
   -8.9497   -5.0499   -0.2527 C   0  0  0  0  0  0  0  0  0  0  0  0
   -7.9679   -1.9005   -1.3080 C   0  0  0  0  0  0  0  0  0  0  0  0
   -8.5701   -2.7105   -2.3023 N   0  0  0  0  0  0  0  0  0  0  0  0
   -8.4996   -0.7488   -1.1548 O   0  0  0  0  0  0  0  0  0  0  0  0
   10.0954    1.2272    0.7122 H   0  0  0  0  0  0  0  0  0  0  0  0
   10.3794    1.2968   -1.1082 H   0  0  0  0  0  0  0  0  0  0  0  0
   11.7877    1.3065   -0.0041 H   0  0  0  0  0  0  0  0  0  0  0  0
   10.6563   -0.5618   -2.4097 H   0  0  0  0  0  0  0  0  0  0  0  0
   12.2940   -0.4413   -1.7212 H   0  0  0  0  0  0  0  0  0  0  0  0
   11.5339   -2.0385   -1.7008 H   0  0  0  0  0  0  0  0  0  0  0  0
   11.4060   -1.5043    1.6718 H   0  0  0  0  0  0  0  0  0  0  0  0
   12.4364   -0.1534    1.2000 H   0  0  0  0  0  0  0  0  0  0  0  0
   12.5996   -1.7387    0.3663 H   0  0  0  0  0  0  0  0  0  0  0  0
    7.2599   -2.2451    0.8134 H   0  0  0  0  0  0  0  0  0  0  0  0
    6.0539   -0.5043   -1.3484 H   0  0  0  0  0  0  0  0  0  0  0  0
    6.3811   -2.6557   -2.1579 H   0  0  0  0  0  0  0  0  0  0  0  0
    4.5920   -2.3743   -1.9253 H   0  0  0  0  0  0  0  0  0  0  0  0
    3.4089   -3.7490   -0.1496 H   0  0  0  0  0  0  0  0  0  0  0  0
    3.3976   -5.7907    1.1054 H   0  0  0  0  0  0  0  0  0  0  0  0
    5.4747   -7.0636    1.4023 H   0  0  0  0  0  0  0  0  0  0  0  0
    7.6174   -6.2302    0.3861 H   0  0  0  0  0  0  0  0  0  0  0  0
    7.6238   -4.1458   -0.8943 H   0  0  0  0  0  0  0  0  0  0  0  0
    3.9311    0.4373   -0.8776 H   0  0  0  0  0  0  0  0  0  0  0  0
    2.8554   -0.1504    1.8438 H   0  0  0  0  0  0  0  0  0  0  0  0
    3.6610    2.4264    0.4224 H   0  0  0  0  0  0  0  0  0  0  0  0
    4.5092    1.6773    1.8115 H   0  0  0  0  0  0  0  0  0  0  0  0
    1.7931    3.9263    0.8019 H   0  0  0  0  0  0  0  0  0  0  0  0
    0.5142    5.3136    2.3505 H   0  0  0  0  0  0  0  0  0  0  0  0
    0.6718    4.9409    4.7421 H   0  0  0  0  0  0  0  0  0  0  0  0
    2.1195    3.1663    5.6156 H   0  0  0  0  0  0  0  0  0  0  0  0
    3.4377    1.7314    4.0161 H   0  0  0  0  0  0  0  0  0  0  0  0
    0.4241    1.1484    1.7551 H   0  0  0  0  0  0  0  0  0  0  0  0
   -0.9761    2.3917    0.2145 H   0  0  0  0  0  0  0  0  0  0  0  0
   -0.4951    0.2296   -1.8341 H   0  0  0  0  0  0  0  0  0  0  0  0
   -2.0027    1.1080   -1.7835 H   0  0  0  0  0  0  0  0  0  0  0  0
    0.7569    2.4874   -1.7488 H   0  0  0  0  0  0  0  0  0  0  0  0
   -0.7891    3.2978   -1.7413 H   0  0  0  0  0  0  0  0  0  0  0  0
    0.2204    3.1016   -4.0097 H   0  0  0  0  0  0  0  0  0  0  0  0
    0.2088    1.2919   -3.8520 H   0  0  0  0  0  0  0  0  0  0  0  0
   -2.0790    1.4312   -4.4929 H   0  0  0  0  0  0  0  0  0  0  0  0
   -1.0512    5.0754   -4.3485 H   0  0  0  0  0  0  0  0  0  0  0  0
   -2.5442    4.9545   -5.4371 H   0  0  0  0  0  0  0  0  0  0  0  0
   -3.8245    2.8243   -2.6436 H   0  0  0  0  0  0  0  0  0  0  0  0
   -3.4608    1.4473   -0.6323 H   0  0  0  0  0  0  0  0  0  0  0  0
   -4.3233    0.0488    1.8943 H   0  0  0  0  0  0  0  0  0  0  0  0
   -5.8947    1.7782   -0.1482 H   0  0  0  0  0  0  0  0  0  0  0  0
   -6.5101    1.1844    1.4044 H   0  0  0  0  0  0  0  0  0  0  0  0
   -4.2134    3.2224    1.2443 H   0  0  0  0  0  0  0  0  0  0  0  0
   -5.0854    2.5285    2.7194 H   0  0  0  0  0  0  0  0  0  0  0  0
   -6.4577    3.9987    0.4224 H   0  0  0  0  0  0  0  0  0  0  0  0
   -7.1922    3.4042    1.9465 H   0  0  0  0  0  0  0  0  0  0  0  0
   -4.9623    5.0413    2.6734 H   0  0  0  0  0  0  0  0  0  0  0  0
   -6.8156    8.1458    2.9710 H   0  0  0  0  0  0  0  0  0  0  0  0
   -5.2011    7.5952    2.4632 H   0  0  0  0  0  0  0  0  0  0  0  0
   -8.5748    5.3029    1.6719 H   0  0  0  0  0  0  0  0  0  0  0  0
   -6.9046   -1.0185    1.1588 H   0  0  0  0  0  0  0  0  0  0  0  0
   -6.0285   -2.6645   -1.2570 H   0  0  0  0  0  0  0  0  0  0  0  0
   -6.1583   -3.7005    0.9925 H   0  0  0  0  0  0  0  0  0  0  0  0
   -7.8667   -3.1744    1.1187 H   0  0  0  0  0  0  0  0  0  0  0  0
   -5.6736   -5.5162   -0.7393 H   0  0  0  0  0  0  0  0  0  0  0  0
   -6.5954   -7.6486   -1.7142 H   0  0  0  0  0  0  0  0  0  0  0  0
   -8.9882   -8.0924   -1.7455 H   0  0  0  0  0  0  0  0  0  0  0  0
  -10.5106   -6.4209   -0.7972 H   0  0  0  0  0  0  0  0  0  0  0  0
   -9.6103   -4.2964    0.1664 H   0  0  0  0  0  0  0  0  0  0  0  0
   -9.5728   -2.7275   -2.5264 H   0  0  0  0  0  0  0  0  0  0  0  0
   -7.9096   -3.3385   -2.8417 H   0  0  0  0  0  0  0  0  0  0  0  0
  1  2  1  0
  2  3  1  0
  2  4  1  0
  2  5  1  0
  5  6  1  0
  6  7  2  0
  6  8  1  0
  8  9  1  0
  9 10  1  0
 10 11  1  0
 11 12  2  0
 12 13  1  0
 13 14  2  0
 14 15  1  0
 15 16  2  0
  9 17  1  0
 17 18  2  0
 17 19  1  0
 19 20  1  0
 20 21  1  0
 21 22  1  0
 22 23  2  0
 23 24  1  0
 24 25  2  0
 25 26  1  0
 26 27  2  0
 20 28  1  0
 28 29  2  0
 28 30  1  0
 30 31  1  0
 31 32  1  0
 32 33  1  0
 33 34  1  0
 34 35  1  0
 35 36  1  0
 36 37  1  0
 36 38  2  3
 31 39  1  0
 39 40  2  0
 39 41  1  0
 41 42  1  0
 42 43  1  0
 43 44  1  0
 44 45  1  0
 45 46  1  0
 46 47  1  0
 47 48  1  0
 47 49  2  3
 42 50  1  0
 50 51  2  0
 50 52  1  0
 52 53  1  0
 53 54  1  0
 54 55  1  0
 55 56  2  0
 56 57  1  0
 57 58  2  0
 58 59  1  0
 59 60  2  0
 53 61  1  0
 61 62  1  0
 61 63  2  0
 16 11  1  0
 27 22  1  0
 60 55  1  0
  1 64  1  0
  1 65  1  0
  1 66  1  0
  3 67  1  0
  3 68  1  0
  3 69  1  0
  4 70  1  0
  4 71  1  0
  4 72  1  0
  8 73  1  0
  9 74  1  6
 10 75  1  0
 10 76  1  0
 12 77  1  0
 13 78  1  0
 14 79  1  0
 15 80  1  0
 16 81  1  0
 19 82  1  0
 20 83  1  1
 21 84  1  0
 21 85  1  0
 23 86  1  0
 24 87  1  0
 25 88  1  0
 26 89  1  0
 27 90  1  0
 30 91  1  0
 31 92  1  1
 32 93  1  0
 32 94  1  0
 33 95  1  0
 33 96  1  0
 34 97  1  0
 34 98  1  0
 35 99  1  0
 37100  1  0
 37101  1  0
 38102  1  0
 41103  1  0
 42104  1  1
 43105  1  0
 43106  1  0
 44107  1  0
 44108  1  0
 45109  1  0
 45110  1  0
 46111  1  0
 48112  1  0
 48113  1  0
 49114  1  0
 52115  1  0
 53116  1  6
 54117  1  0
 54118  1  0
 56119  1  0
 57120  1  0
 58121  1  0
 59122  1  0
 60123  1  0
 62124  1  0
 62125  1  0
M  END
$$$$
[H]OC([H])([H])[C@@]1([H])O[C@@]([H])(n2c([H])nc3c(N([H])[H])nc([H])nc32)[C@]([H])(O[H])[C@]1([H])O[H]
     RDKit          3D

 32 34  0  0  0  0  0  0  0  0999 V2000
    5.2678    1.0371    0.3003 N   0  0  0  0  0  0  0  0  0  0  0  0
    4.2159    0.1754   -0.1074 C   0  0  0  0  0  0  0  0  0  0  0  0
    4.5334   -0.9883   -0.7357 N   0  0  0  0  0  0  0  0  0  0  0  0
    3.5461   -1.8014   -1.1206 C   0  0  0  0  0  0  0  0  0  0  0  0
    2.2515   -1.4859   -0.8962 N   0  0  0  0  0  0  0  0  0  0  0  0
    1.8757   -0.3507   -0.2804 C   0  0  0  0  0  0  0  0  0  0  0  0
    0.6901    0.1867    0.0563 N   0  0  0  0  0  0  0  0  0  0  0  0
    0.9529    1.3415    0.6540 C   0  0  0  0  0  0  0  0  0  0  0  0
    2.2845    1.5528    0.7059 N   0  0  0  0  0  0  0  0  0  0  0  0
    2.8973    0.5104    0.1283 C   0  0  0  0  0  0  0  0  0  0  0  0
   -0.5756   -0.3949   -0.1940 C   0  0  2  0  0  0  0  0  0  0  0  0
   -1.3532    0.2847   -1.1137 O   0  0  0  0  0  0  0  0  0  0  0  0
   -2.6599   -0.0874   -0.9454 C   0  0  2  0  0  0  0  0  0  0  0  0
   -3.5336    1.1550   -0.7553 C   0  0  0  0  0  0  0  0  0  0  0  0
   -3.4434    1.9915   -1.8736 O   0  0  0  0  0  0  0  0  0  0  0  0
   -2.7572   -0.8785    0.3409 C   0  0  1  0  0  0  0  0  0  0  0  0
   -2.5310   -2.2084    0.0352 O   0  0  0  0  0  0  0  0  0  0  0  0
   -1.4850   -0.3827    1.0431 C   0  0  1  0  0  0  0  0  0  0  0  0
   -1.0494   -1.2652    1.9968 O   0  0  0  0  0  0  0  0  0  0  0  0
    5.9625    0.6312    0.9764 H   0  0  0  0  0  0  0  0  0  0  0  0
    5.3434    2.0054   -0.0487 H   0  0  0  0  0  0  0  0  0  0  0  0
    3.8105   -2.7228   -1.6187 H   0  0  0  0  0  0  0  0  0  0  0  0
    0.2120    2.0167    1.0434 H   0  0  0  0  0  0  0  0  0  0  0  0
   -0.5355   -1.4566   -0.5114 H   0  0  0  0  0  0  0  0  0  0  0  0
   -3.0598   -0.6565   -1.7956 H   0  0  0  0  0  0  0  0  0  0  0  0
   -4.5826    0.8587   -0.5418 H   0  0  0  0  0  0  0  0  0  0  0  0
   -3.1871    1.7528    0.1112 H   0  0  0  0  0  0  0  0  0  0  0  0
   -3.7581    2.8937   -1.6129 H   0  0  0  0  0  0  0  0  0  0  0  0
   -3.6516   -0.6877    0.9185 H   0  0  0  0  0  0  0  0  0  0  0  0
   -3.2114   -2.8252    0.3426 H   0  0  0  0  0  0  0  0  0  0  0  0
   -1.6983    0.6259    1.3909 H   0  0  0  0  0  0  0  0  0  0  0  0
   -0.7713   -0.8272    2.8512 H   0  0  0  0  0  0  0  0  0  0  0  0
  1  2  1  0
  2  3  2  0
  3  4  1  0
  4  5  2  0
  5  6  1  0
  6  7  1  0
  7  8  1  0
  8  9  2  0
  9 10  1  0
  7 11  1  0
 11 12  1  0
 12 13  1  0
 13 14  1  0
 14 15  1  0
 13 16  1  0
 16 17  1  0
 16 18  1  0
 18 19  1  0
 10  2  1  0
 18 11  1  0
 10  6  2  0
  1 20  1  0
  1 21  1  0
  4 22  1  0
  8 23  1  0
 11 24  1  6
 13 25  1  6
 14 26  1  0
 14 27  1  0
 15 28  1  0
 16 29  1  1
 17 30  1  0
 18 31  1  1
 19 32  1  0
M  END
$$$$
[H]OC([H])([H])[C@@]1([H])O[C@@]([H])(n2c([H])nc3c(N([H])C([H])([H])c4c([H])c([H])c([H])c(C#N)c4[H])nc([H])nc32)[C@]([H])(O[H])[C@]1([H])O[H]
     RDKit          3D

 46 49  0  0  0  0  0  0  0  0999 V2000
   -6.1756   -2.6563   -1.1394 O   0  0  0  0  0  0  0  0  0  0  0  0
   -6.2343   -1.2772   -1.0516 C   0  0  0  0  0  0  0  0  0  0  0  0
   -5.4510   -0.7564    0.1585 C   0  0  1  0  0  0  0  0  0  0  0  0
   -4.1275   -1.1002    0.0964 O   0  0  0  0  0  0  0  0  0  0  0  0
   -3.3758   -0.0002    0.5134 C   0  0  2  0  0  0  0  0  0  0  0  0
   -4.0999    1.1329   -0.1978 C   0  0  2  0  0  0  0  0  0  0  0  0
   -3.7876    2.3727    0.3248 O   0  0  0  0  0  0  0  0  0  0  0  0
   -5.5524    0.7469    0.1131 C   0  0  2  0  0  0  0  0  0  0  0  0
   -5.8226    1.2456    1.3979 O   0  0  0  0  0  0  0  0  0  0  0  0
   -2.0040   -0.1099    0.1476 N   0  0  0  0  0  0  0  0  0  0  0  0
   -1.4474   -0.4941   -1.0080 C   0  0  0  0  0  0  0  0  0  0  0  0
   -0.1002   -0.4512   -0.9203 N   0  0  0  0  0  0  0  0  0  0  0  0
    0.2310   -0.0256    0.3322 C   0  0  0  0  0  0  0  0  0  0  0  0
    1.4332    0.2000    0.9661 C   0  0  0  0  0  0  0  0  0  0  0  0
    2.6607   -0.0159    0.2898 N   0  0  0  0  0  0  0  0  0  0  0  0
    3.9167    0.2164    0.9416 C   0  0  0  0  0  0  0  0  0  0  0  0
    5.0482   -0.0967    0.0501 C   0  0  0  0  0  0  0  0  0  0  0  0
    4.9833   -1.0798   -0.9087 C   0  0  0  0  0  0  0  0  0  0  0  0
    6.1149   -1.2876   -1.7007 C   0  0  0  0  0  0  0  0  0  0  0  0
    7.2643   -0.5442   -1.5417 C   0  0  0  0  0  0  0  0  0  0  0  0
    7.3166    0.4268   -0.5883 C   0  0  0  0  0  0  0  0  0  0  0  0
    6.2193    0.6541    0.2055 C   0  0  0  0  0  0  0  0  0  0  0  0
    8.5252    1.2039   -0.4256 C   0  0  0  0  0  0  0  0  0  0  0  0
    9.4868    1.8329   -0.2777 N   0  0  0  0  0  0  0  0  0  0  0  0
    1.3843    0.6317    2.2476 N   0  0  0  0  0  0  0  0  0  0  0  0
    0.2189    0.8355    2.8862 C   0  0  0  0  0  0  0  0  0  0  0  0
   -0.9341    0.6049    2.2361 N   0  0  0  0  0  0  0  0  0  0  0  0
   -0.9526    0.1769    0.9673 C   0  0  0  0  0  0  0  0  0  0  0  0
   -5.2783   -2.9061   -1.4445 H   0  0  0  0  0  0  0  0  0  0  0  0
   -5.7638   -0.8717   -1.9677 H   0  0  0  0  0  0  0  0  0  0  0  0
   -7.2702   -0.8829   -1.0260 H   0  0  0  0  0  0  0  0  0  0  0  0
   -5.8708   -1.1715    1.0962 H   0  0  0  0  0  0  0  0  0  0  0  0
   -3.4853    0.1370    1.6026 H   0  0  0  0  0  0  0  0  0  0  0  0
   -3.9386    1.0546   -1.2859 H   0  0  0  0  0  0  0  0  0  0  0  0
   -4.6369    2.7658    0.6858 H   0  0  0  0  0  0  0  0  0  0  0  0
   -6.2471    1.1262   -0.6360 H   0  0  0  0  0  0  0  0  0  0  0  0
   -5.6805    0.5632    2.1011 H   0  0  0  0  0  0  0  0  0  0  0  0
   -1.9970   -0.7963   -1.8881 H   0  0  0  0  0  0  0  0  0  0  0  0
    2.6494   -0.3438   -0.6914 H   0  0  0  0  0  0  0  0  0  0  0  0
    4.0445   -0.4408    1.8491 H   0  0  0  0  0  0  0  0  0  0  0  0
    3.9869    1.2575    1.3547 H   0  0  0  0  0  0  0  0  0  0  0  0
    4.1080   -1.6800   -1.0597 H   0  0  0  0  0  0  0  0  0  0  0  0
    6.0514   -2.0611   -2.4488 H   0  0  0  0  0  0  0  0  0  0  0  0
    8.1172   -0.7568   -2.1950 H   0  0  0  0  0  0  0  0  0  0  0  0
    6.2836    1.4368    0.9625 H   0  0  0  0  0  0  0  0  0  0  0  0
    0.1888    1.1842    3.9213 H   0  0  0  0  0  0  0  0  0  0  0  0
  1  2  1  0
  2  3  1  0
  3  4  1  0
  4  5  1  0
  5  6  1  0
  6  7  1  0
  6  8  1  0
  8  9  1  0
  5 10  1  0
 10 11  1  0
 11 12  2  0
 12 13  1  0
 13 14  2  0
 14 15  1  0
 15 16  1  0
 16 17  1  0
 17 18  2  0
 18 19  1  0
 19 20  2  0
 20 21  1  0
 21 22  2  0
 21 23  1  0
 23 24  3  0
 14 25  1  0
 25 26  2  0
 26 27  1  0
 27 28  2  0
  8  3  1  0
 28 10  1  0
 28 13  1  0
 22 17  1  0
  1 29  1  0
  2 30  1  0
  2 31  1  0
  3 32  1  1
  5 33  1  1
  6 34  1  6
  7 35  1  0
  8 36  1  6
  9 37  1  0
 11 38  1  0
 15 39  1  0
 16 40  1  0
 16 41  1  0
 18 42  1  0
 19 43  1  0
 20 44  1  0
 22 45  1  0
 26 46  1  0
M  END
$$$$
[H]Oc1c([H])c([H])c(C([H])([H])[C@@]([H])(C(=O)N([H])[C@]([H])(C(=O)N2C([H])([H])C([H])([H])C([H])([H])[C@@]2([H])C(=O)N([H])[C@]([H])(C(=O)N([H])[H])C([H])([H])c2c([H])c([H])c([H])c([H])c2[H])C([H])([H])C([H])(C([H])([H])[H])C([H])([H])[H])N([H])[H])c([H])c1[H]
     RDKit          3D

 78 80  0  0  0  0  0  0  0  0999 V2000
    3.7124   -4.4575   -0.7840 C   0  0  0  0  0  0  0  0  0  0  0  0
    3.1664   -3.0220   -0.9452 C   0  0  0  0  0  0  0  0  0  0  0  0
    4.0566   -2.1858   -0.0573 C   0  0  0  0  0  0  0  0  0  0  0  0
    1.7351   -3.1442   -0.4025 C   0  0  0  0  0  0  0  0  0  0  0  0
    0.9351   -1.9337   -0.4475 C   0  0  2  0  0  0  0  0  0  0  0  0
    1.4667   -0.7841    0.2604 N   0  0  0  0  0  0  0  0  0  0  0  0
    1.8095    0.4116   -0.3992 C   0  0  0  0  0  0  0  0  0  0  0  0
    1.6385    0.4807   -1.6684 O   0  0  0  0  0  0  0  0  0  0  0  0
    2.3619    1.6265    0.2361 C   0  0  1  0  0  0  0  0  0  0  0  0
    2.5560    1.4821    1.6418 N   0  0  0  0  0  0  0  0  0  0  0  0
    3.6669    2.0261   -0.4292 C   0  0  0  0  0  0  0  0  0  0  0  0
    4.2690    3.2359    0.1669 C   0  0  0  0  0  0  0  0  0  0  0  0
    3.9341    4.4706   -0.3407 C   0  0  0  0  0  0  0  0  0  0  0  0
    4.4990    5.5882    0.2094 C   0  0  0  0  0  0  0  0  0  0  0  0
    5.3899    5.5485    1.2493 C   0  0  0  0  0  0  0  0  0  0  0  0
    5.9421    6.7182    1.7775 O   0  0  0  0  0  0  0  0  0  0  0  0
    5.7186    4.3060    1.7500 C   0  0  0  0  0  0  0  0  0  0  0  0
    5.1628    3.1727    1.2119 C   0  0  0  0  0  0  0  0  0  0  0  0
   -0.4948   -2.1060   -0.1203 C   0  0  0  0  0  0  0  0  0  0  0  0
   -0.9980   -0.9481    0.3054 O   0  0  0  0  0  0  0  0  0  0  0  0
   -1.3681   -3.1804   -0.1732 N   0  0  0  0  0  0  0  0  0  0  0  0
   -1.0264   -4.5949   -0.3644 C   0  0  0  0  0  0  0  0  0  0  0  0
   -2.1146   -5.4178    0.3241 C   0  0  0  0  0  0  0  0  0  0  0  0
   -3.0403   -4.3636    0.8919 C   0  0  0  0  0  0  0  0  0  0  0  0
   -2.7869   -3.2159   -0.1301 C   0  0  1  0  0  0  0  0  0  0  0  0
   -3.7626   -2.2397   -0.0586 C   0  0  0  0  0  0  0  0  0  0  0  0
   -4.8863   -2.6448    0.5638 O   0  0  0  0  0  0  0  0  0  0  0  0
   -3.9119   -0.9088   -0.4771 N   0  0  0  0  0  0  0  0  0  0  0  0
   -5.1457   -0.1519   -0.2463 C   0  0  1  0  0  0  0  0  0  0  0  0
   -5.0642    0.9822    0.6856 C   0  0  0  0  0  0  0  0  0  0  0  0
   -4.1215    2.0708    0.3715 C   0  0  0  0  0  0  0  0  0  0  0  0
   -2.8519    2.0091    0.9201 C   0  0  0  0  0  0  0  0  0  0  0  0
   -1.9440    3.0055    0.6698 C   0  0  0  0  0  0  0  0  0  0  0  0
   -2.2140    4.1094   -0.1214 C   0  0  0  0  0  0  0  0  0  0  0  0
   -3.4818    4.1723   -0.6696 C   0  0  0  0  0  0  0  0  0  0  0  0
   -4.4016    3.1673   -0.4184 C   0  0  0  0  0  0  0  0  0  0  0  0
   -5.8171    0.2190   -1.5097 C   0  0  0  0  0  0  0  0  0  0  0  0
   -7.0594    0.8915   -1.5672 N   0  0  0  0  0  0  0  0  0  0  0  0
   -5.2632   -0.0778   -2.6105 O   0  0  0  0  0  0  0  0  0  0  0  0
    3.0121   -5.1837   -1.2092 H   0  0  0  0  0  0  0  0  0  0  0  0
    4.7573   -4.5472   -1.0832 H   0  0  0  0  0  0  0  0  0  0  0  0
    3.7186   -4.6271    0.3338 H   0  0  0  0  0  0  0  0  0  0  0  0
    3.2205   -2.6849   -1.9695 H   0  0  0  0  0  0  0  0  0  0  0  0
    4.4253   -1.2546   -0.5781 H   0  0  0  0  0  0  0  0  0  0  0  0
    5.0381   -2.7248    0.1611 H   0  0  0  0  0  0  0  0  0  0  0  0
    3.6404   -1.9973    0.9384 H   0  0  0  0  0  0  0  0  0  0  0  0
    1.3050   -3.8889   -1.1582 H   0  0  0  0  0  0  0  0  0  0  0  0
    1.8398   -3.6894    0.5398 H   0  0  0  0  0  0  0  0  0  0  0  0
    0.9662   -1.5821   -1.5549 H   0  0  0  0  0  0  0  0  0  0  0  0
    1.5914   -0.8498    1.2815 H   0  0  0  0  0  0  0  0  0  0  0  0
    1.6401    2.4550    0.0833 H   0  0  0  0  0  0  0  0  0  0  0  0
    1.7319    1.6160    2.2403 H   0  0  0  0  0  0  0  0  0  0  0  0
    3.1825    0.7090    1.9323 H   0  0  0  0  0  0  0  0  0  0  0  0
    3.4445    2.1549   -1.5293 H   0  0  0  0  0  0  0  0  0  0  0  0
    4.3961    1.1839   -0.3076 H   0  0  0  0  0  0  0  0  0  0  0  0
    3.2323    4.5511   -1.1621 H   0  0  0  0  0  0  0  0  0  0  0  0
    4.2236    6.5597   -0.2039 H   0  0  0  0  0  0  0  0  0  0  0  0
    6.8017    7.1408    1.4433 H   0  0  0  0  0  0  0  0  0  0  0  0
    6.4280    4.2722    2.5748 H   0  0  0  0  0  0  0  0  0  0  0  0
    5.4448    2.2081    1.6350 H   0  0  0  0  0  0  0  0  0  0  0  0
   -0.1113   -4.8915    0.2003 H   0  0  0  0  0  0  0  0  0  0  0  0
   -0.8916   -4.8251   -1.4157 H   0  0  0  0  0  0  0  0  0  0  0  0
   -1.6931   -6.0561    1.1037 H   0  0  0  0  0  0  0  0  0  0  0  0
   -2.6068   -6.0123   -0.4992 H   0  0  0  0  0  0  0  0  0  0  0  0
   -2.6977   -4.0794    1.8931 H   0  0  0  0  0  0  0  0  0  0  0  0
   -4.0674   -4.7280    0.8398 H   0  0  0  0  0  0  0  0  0  0  0  0
   -3.0142   -3.7994   -1.1840 H   0  0  0  0  0  0  0  0  0  0  0  0
   -3.1942   -0.3782   -0.9976 H   0  0  0  0  0  0  0  0  0  0  0  0
   -5.8547   -0.9244    0.2164 H   0  0  0  0  0  0  0  0  0  0  0  0
   -4.9368    0.6498    1.7576 H   0  0  0  0  0  0  0  0  0  0  0  0
   -6.0945    1.4751    0.6937 H   0  0  0  0  0  0  0  0  0  0  0  0
   -2.5457    1.1740    1.5565 H   0  0  0  0  0  0  0  0  0  0  0  0
   -0.9595    2.9246    1.1178 H   0  0  0  0  0  0  0  0  0  0  0  0
   -1.4489    4.8496   -0.2721 H   0  0  0  0  0  0  0  0  0  0  0  0
   -3.7481    5.0263   -1.3062 H   0  0  0  0  0  0  0  0  0  0  0  0
   -5.3750    3.2580   -0.8589 H   0  0  0  0  0  0  0  0  0  0  0  0
   -7.1540    1.9136   -1.7219 H   0  0  0  0  0  0  0  0  0  0  0  0
   -7.9132    0.2850   -1.4402 H   0  0  0  0  0  0  0  0  0  0  0  0
  1  2  1  0
  2  3  1  0
  2  4  1  0
  4  5  1  0
  5  6  1  0
  6  7  1  0
  7  8  2  0
  7  9  1  0
  9 10  1  0
  9 11  1  0
 11 12  1  0
 12 13  2  0
 13 14  1  0
 14 15  2  0
 15 16  1  0
 15 17  1  0
 17 18  2  0
  5 19  1  0
 19 20  2  0
 19 21  1  0
 21 22  1  0
 22 23  1  0
 23 24  1  0
 24 25  1  0
 25 26  1  0
 26 27  2  0
 26 28  1  0
 28 29  1  0
 29 30  1  0
 30 31  1  0
 31 32  2  0
 32 33  1  0
 33 34  2  0
 34 35  1  0
 35 36  2  0
 29 37  1  0
 37 38  1  0
 37 39  2  0
 18 12  1  0
 25 21  1  0
 36 31  1  0
  1 40  1  0
  1 41  1  0
  1 42  1  0
  2 43  1  0
  3 44  1  0
  3 45  1  0
  3 46  1  0
  4 47  1  0
  4 48  1  0
  5 49  1  6
  6 50  1  0
  9 51  1  1
 10 52  1  0
 10 53  1  0
 11 54  1  0
 11 55  1  0
 13 56  1  0
 14 57  1  0
 16 58  1  0
 17 59  1  0
 18 60  1  0
 22 61  1  0
 22 62  1  0
 23 63  1  0
 23 64  1  0
 24 65  1  0
 24 66  1  0
 25 67  1  6
 28 68  1  0
 29 69  1  1
 30 70  1  0
 30 71  1  0
 32 72  1  0
 33 73  1  0
 34 74  1  0
 35 75  1  0
 36 76  1  0
 38 77  1  0
 38 78  1  0
M  END
$$$$
[H]Oc1c([H])c([H])c(C([H])([H])[C@@]([H])(C(=O)N([H])[C@]([H])(C(=O)N2C([H])([H])C([H])([H])C([H])([H])[C@@]2([H])C(=O)N([H])[C@]([H])(C(=O)N([H])[C@]([H])(C(=O)N([H])[H])C([H])([H])c2c([H])n([H])c3c([H])c([H])c([H])c([H])c23)C([H])([H])C([H])(C([H])([H])[H])C([H])([H])[H])C([H])([H])c2c([H])c([H])c(O[H])c([H])c2[H])N([H])C(=O)C(C([H])([H])[H])(C([H])([H])[H])C([H])([H])[H])c([H])c1[H]
     RDKit          3D

117121  0  0  0  0  0  0  0  0999 V2000
    3.4956    3.3010    1.1510 C   0  0  0  0  0  0  0  0  0  0  0  0
    3.7365    1.7747    1.1339 C   0  0  0  0  0  0  0  0  0  0  0  0
    5.2134    1.6048    1.0352 C   0  0  0  0  0  0  0  0  0  0  0  0
    2.9181    1.2464    0.0283 C   0  0  0  0  0  0  0  0  0  0  0  0
    2.9158   -0.1951   -0.2615 C   0  0  2  0  0  0  0  0  0  0  0  0
    2.4997   -1.0492    0.7947 N   0  0  0  0  0  0  0  0  0  0  0  0
    1.1935   -1.6677    0.8108 C   0  0  0  0  0  0  0  0  0  0  0  0
    0.4705   -1.3783   -0.1527 O   0  0  0  0  0  0  0  0  0  0  0  0
    0.8463   -2.5562    1.9238 C   0  0  2  0  0  0  0  0  0  0  0  0
    1.2447   -4.0055    1.4302 C   0  0  0  0  0  0  0  0  0  0  0  0
    0.7806   -4.8214    2.5872 C   0  0  0  0  0  0  0  0  0  0  0  0
   -0.2633   -3.9962    3.2631 C   0  0  0  0  0  0  0  0  0  0  0  0
   -0.4498   -2.7722    2.3684 N   0  0  0  0  0  0  0  0  0  0  0  0
   -1.7168   -2.2199    2.3321 C   0  0  0  0  0  0  0  0  0  0  0  0
   -2.6919   -2.9196    2.8776 O   0  0  0  0  0  0  0  0  0  0  0  0
   -2.1743   -0.9562    1.7851 C   0  0  2  0  0  0  0  0  0  0  0  0
   -1.5148    0.1671    2.5903 C   0  0  0  0  0  0  0  0  0  0  0  0
   -1.9252    1.4947    2.1193 C   0  0  0  0  0  0  0  0  0  0  0  0
   -1.2715    2.1454    1.0917 C   0  0  0  0  0  0  0  0  0  0  0  0
   -1.7014    3.3935    0.7086 C   0  0  0  0  0  0  0  0  0  0  0  0
   -2.7603    4.0539    1.2901 C   0  0  0  0  0  0  0  0  0  0  0  0
   -3.1974    5.3118    0.9067 O   0  0  0  0  0  0  0  0  0  0  0  0
   -3.3938    3.3580    2.3266 C   0  0  0  0  0  0  0  0  0  0  0  0
   -2.9988    2.1086    2.7431 C   0  0  0  0  0  0  0  0  0  0  0  0
   -3.6354   -0.7959    1.9382 N   0  0  0  0  0  0  0  0  0  0  0  0
   -4.4129   -0.3473    0.8638 C   0  0  0  0  0  0  0  0  0  0  0  0
   -3.8175   -0.0847   -0.2382 O   0  0  0  0  0  0  0  0  0  0  0  0
   -5.8865   -0.1640    0.9579 C   0  0  2  0  0  0  0  0  0  0  0  0
   -6.6269   -1.4757    1.1679 C   0  0  0  0  0  0  0  0  0  0  0  0
   -6.4298   -2.4404    0.0701 C   0  0  0  0  0  0  0  0  0  0  0  0
   -5.4190   -3.3679    0.0702 C   0  0  0  0  0  0  0  0  0  0  0  0
   -5.2352   -4.2778   -0.9686 C   0  0  0  0  0  0  0  0  0  0  0  0
   -6.0803   -4.2800   -2.0593 C   0  0  0  0  0  0  0  0  0  0  0  0
   -5.8921   -5.1933   -3.0987 O   0  0  0  0  0  0  0  0  0  0  0  0
   -7.0993   -3.3518   -2.0687 C   0  0  0  0  0  0  0  0  0  0  0  0
   -7.2834   -2.4520   -1.0441 C   0  0  0  0  0  0  0  0  0  0  0  0
   -6.3501    0.4321   -0.2807 N   0  0  0  0  0  0  0  0  0  0  0  0
   -7.0977    1.6354   -0.2679 C   0  0  0  0  0  0  0  0  0  0  0  0
   -7.3502    2.1677    0.8644 O   0  0  0  0  0  0  0  0  0  0  0  0
   -7.5723    2.2582   -1.5156 C   0  0  0  0  0  0  0  0  0  0  0  0
   -8.4021    1.3080   -2.3452 C   0  0  0  0  0  0  0  0  0  0  0  0
   -6.3594    2.6770   -2.3267 C   0  0  0  0  0  0  0  0  0  0  0  0
   -8.3898    3.4920   -1.1326 C   0  0  0  0  0  0  0  0  0  0  0  0
    4.1817   -0.6816   -0.9106 C   0  0  0  0  0  0  0  0  0  0  0  0
    4.7344   -1.7254   -0.4597 O   0  0  0  0  0  0  0  0  0  0  0  0
    4.7322   -0.0044   -1.9828 N   0  0  0  0  0  0  0  0  0  0  0  0
    5.8798   -0.1923   -2.7742 C   0  0  1  0  0  0  0  0  0  0  0  0
    7.0540   -0.9723   -2.3245 C   0  0  0  0  0  0  0  0  0  0  0  0
    7.8283   -0.5008   -1.1731 C   0  0  0  0  0  0  0  0  0  0  0  0
    7.9646   -0.9530    0.1193 C   0  0  0  0  0  0  0  0  0  0  0  0
    8.8327   -0.2062    0.8100 N   0  0  0  0  0  0  0  0  0  0  0  0
    9.2824    0.7540   -0.0264 C   0  0  0  0  0  0  0  0  0  0  0  0
   10.1944    1.7963    0.1405 C   0  0  0  0  0  0  0  0  0  0  0  0
   10.5265    2.6757   -0.8571 C   0  0  0  0  0  0  0  0  0  0  0  0
    9.9213    2.5102   -2.0815 C   0  0  0  0  0  0  0  0  0  0  0  0
    9.0008    1.4779   -2.2912 C   0  0  0  0  0  0  0  0  0  0  0  0
    8.6850    0.6097   -1.2719 C   0  0  0  0  0  0  0  0  0  0  0  0
    5.5652   -0.5733   -4.1773 C   0  0  0  0  0  0  0  0  0  0  0  0
    6.5930   -0.8257   -5.1204 N   0  0  0  0  0  0  0  0  0  0  0  0
    4.3744   -0.6813   -4.5595 O   0  0  0  0  0  0  0  0  0  0  0  0
    2.4599    3.5280    0.7958 H   0  0  0  0  0  0  0  0  0  0  0  0
    3.7462    3.7513    2.1142 H   0  0  0  0  0  0  0  0  0  0  0  0
    4.1737    3.7174    0.3922 H   0  0  0  0  0  0  0  0  0  0  0  0
    3.3707    1.4534    2.1547 H   0  0  0  0  0  0  0  0  0  0  0  0
    5.6491    1.9621    0.0956 H   0  0  0  0  0  0  0  0  0  0  0  0
    5.7347    2.2260    1.8307 H   0  0  0  0  0  0  0  0  0  0  0  0
    5.4866    0.5605    1.3004 H   0  0  0  0  0  0  0  0  0  0  0  0
    3.1947    1.8469   -0.8919 H   0  0  0  0  0  0  0  0  0  0  0  0
    1.8607    1.5961    0.2146 H   0  0  0  0  0  0  0  0  0  0  0  0
    2.1253   -0.3304   -1.0805 H   0  0  0  0  0  0  0  0  0  0  0  0
    3.1102   -1.2726    1.6083 H   0  0  0  0  0  0  0  0  0  0  0  0
    1.5997   -2.4083    2.7478 H   0  0  0  0  0  0  0  0  0  0  0  0
    0.6934   -4.2318    0.5081 H   0  0  0  0  0  0  0  0  0  0  0  0
    2.3386   -4.0180    1.2851 H   0  0  0  0  0  0  0  0  0  0  0  0
    0.4073   -5.8294    2.2865 H   0  0  0  0  0  0  0  0  0  0  0  0
    1.6468   -4.9104    3.2873 H   0  0  0  0  0  0  0  0  0  0  0  0
   -1.1826   -4.5670    3.3198 H   0  0  0  0  0  0  0  0  0  0  0  0
    0.0797   -3.5368    4.2124 H   0  0  0  0  0  0  0  0  0  0  0  0
   -1.9956   -0.8661    0.7264 H   0  0  0  0  0  0  0  0  0  0  0  0
   -0.4366    0.0891    2.6640 H   0  0  0  0  0  0  0  0  0  0  0  0
   -1.9007    0.0111    3.6370 H   0  0  0  0  0  0  0  0  0  0  0  0
   -0.4501    1.6283    0.6371 H   0  0  0  0  0  0  0  0  0  0  0  0
   -1.1727    3.8856   -0.1006 H   0  0  0  0  0  0  0  0  0  0  0  0
   -3.9163    5.3098    0.1696 H   0  0  0  0  0  0  0  0  0  0  0  0
   -4.2394    3.8474    2.8140 H   0  0  0  0  0  0  0  0  0  0  0  0
   -3.5325    1.6051    3.5653 H   0  0  0  0  0  0  0  0  0  0  0  0
   -4.0438   -1.0242    2.8444 H   0  0  0  0  0  0  0  0  0  0  0  0
   -6.1123    0.4551    1.8344 H   0  0  0  0  0  0  0  0  0  0  0  0
   -6.2173   -1.9157    2.0992 H   0  0  0  0  0  0  0  0  0  0  0  0
   -7.7013   -1.2286    1.2751 H   0  0  0  0  0  0  0  0  0  0  0  0
   -4.7151   -3.4318    0.8908 H   0  0  0  0  0  0  0  0  0  0  0  0
   -4.4239   -4.9983   -0.9336 H   0  0  0  0  0  0  0  0  0  0  0  0
   -5.2797   -4.8954   -3.8721 H   0  0  0  0  0  0  0  0  0  0  0  0
   -7.7699   -3.3375   -2.9110 H   0  0  0  0  0  0  0  0  0  0  0  0
   -8.0657   -1.7123   -1.0141 H   0  0  0  0  0  0  0  0  0  0  0  0
   -6.1338   -0.0221   -1.1836 H   0  0  0  0  0  0  0  0  0  0  0  0
   -8.8802    0.5253   -1.7296 H   0  0  0  0  0  0  0  0  0  0  0  0
   -7.7015    0.7918   -3.0340 H   0  0  0  0  0  0  0  0  0  0  0  0
   -9.1334    1.9136   -2.9108 H   0  0  0  0  0  0  0  0  0  0  0  0
   -5.9277    3.5575   -1.8065 H   0  0  0  0  0  0  0  0  0  0  0  0
   -6.6921    2.9135   -3.3402 H   0  0  0  0  0  0  0  0  0  0  0  0
   -5.6547    1.8398   -2.3670 H   0  0  0  0  0  0  0  0  0  0  0  0
   -8.2863    4.2120   -1.9453 H   0  0  0  0  0  0  0  0  0  0  0  0
   -8.0762    3.9069   -0.1546 H   0  0  0  0  0  0  0  0  0  0  0  0
   -9.4408    3.1099   -0.9946 H   0  0  0  0  0  0  0  0  0  0  0  0
    4.1422    0.8648   -2.3012 H   0  0  0  0  0  0  0  0  0  0  0  0
    6.3275    0.9066   -2.8570 H   0  0  0  0  0  0  0  0  0  0  0  0
    7.7905   -0.9674   -3.1965 H   0  0  0  0  0  0  0  0  0  0  0  0
    6.7627   -2.0711   -2.1820 H   0  0  0  0  0  0  0  0  0  0  0  0
    7.4318   -1.8202    0.5383 H   0  0  0  0  0  0  0  0  0  0  0  0
    9.1382   -0.3002    1.8019 H   0  0  0  0  0  0  0  0  0  0  0  0
   10.6466    1.8853    1.1272 H   0  0  0  0  0  0  0  0  0  0  0  0
   11.2448    3.4661   -0.6595 H   0  0  0  0  0  0  0  0  0  0  0  0
   10.1270    3.1525   -2.9087 H   0  0  0  0  0  0  0  0  0  0  0  0
    8.5506    1.3578   -3.2559 H   0  0  0  0  0  0  0  0  0  0  0  0
    6.7899   -1.7935   -5.4753 H   0  0  0  0  0  0  0  0  0  0  0  0
    7.1870   -0.0570   -5.4906 H   0  0  0  0  0  0  0  0  0  0  0  0
  1  2  1  0
  2  3  1  0
  2  4  1  0
  4  5  1  0
  5  6  1  0
  6  7  1  0
  7  8  2  0
  7  9  1  0
  9 10  1  0
 10 11  1  0
 11 12  1  0
 12 13  1  0
 13 14  1  0
 14 15  2  0
 14 16  1  0
 16 17  1  0
 17 18  1  0
 18 19  2  0
 19 20  1  0
 20 21  2  0
 21 22  1  0
 21 23  1  0
 23 24  2  0
 16 25  1  0
 25 26  1  0
 26 27  2  0
 26 28  1  0
 28 29  1  0
 29 30  1  0
 30 31  2  0
 31 32  1  0
 32 33  2  0
 33 34  1  0
 33 35  1  0
 35 36  2  0
 28 37  1  0
 37 38  1  0
 38 39  2  0
 38 40  1  0
 40 41  1  0
 40 42  1  0
 40 43  1  0
  5 44  1  0
 44 45  2  0
 44 46  1  0
 46 47  1  0
 47 48  1  0
 48 49  1  0
 49 50  2  0
 50 51  1  0
 51 52  1  0
 52 53  2  0
 53 54  1  0
 54 55  2  0
 55 56  1  0
 56 57  2  0
 47 58  1  0
 58 59  1  0
 58 60  2  0
 13  9  1  0
 24 18  1  0
 36 30  1  0
 57 49  1  0
 57 52  1  0
  1 61  1  0
  1 62  1  0
  1 63  1  0
  2 64  1  0
  3 65  1  0
  3 66  1  0
  3 67  1  0
  4 68  1  0
  4 69  1  0
  5 70  1  6
  6 71  1  0
  9 72  1  1
 10 73  1  0
 10 74  1  0
 11 75  1  0
 11 76  1  0
 12 77  1  0
 12 78  1  0
 16 79  1  6
 17 80  1  0
 17 81  1  0
 19 82  1  0
 20 83  1  0
 22 84  1  0
 23 85  1  0
 24 86  1  0
 25 87  1  0
 28 88  1  1
 29 89  1  0
 29 90  1  0
 31 91  1  0
 32 92  1  0
 34 93  1  0
 35 94  1  0
 36 95  1  0
 37 96  1  0
 41 97  1  0
 41 98  1  0
 41 99  1  0
 42100  1  0
 42101  1  0
 42102  1  0
 43103  1  0
 43104  1  0
 43105  1  0
 46106  1  0
 47107  1  6
 48108  1  0
 48109  1  0
 50110  1  0
 51111  1  0
 53112  1  0
 54113  1  0
 55114  1  0
 56115  1  0
 59116  1  0
 59117  1  0
M  END
$$$$
[H]OC(=O)[C@@]([H])(N([H])C(=O)[C@@]([H])(N([H])C(=O)[C@@]([H])(N([H])C(=O)[C@]1([H])N(C(=O)[C@@]([H])(N([H])C(=O)C(C([H])([H])[H])(C([H])([H])[H])C([H])([H])[H])C([H])([H])c2c([H])n([H])c3c([H])c([H])c([H])c([H])c23)C([H])([H])C([H])([H])C1([H])[H])C([H])([H])c1c([H])c([H])c(O[H])c([H])c1[H])C([H])([H])C([H])(C([H])([H])[H])C([H])([H])[H])C([H])([H])c1c([H])c([H])c(O[H])c([H])c1[H]
     RDKit          3D

116120  0  0  0  0  0  0  0  0999 V2000
    3.3214   -3.4045    2.3355 C   0  0  0  0  0  0  0  0  0  0  0  0
    4.1715   -3.4921    1.1161 C   0  0  0  0  0  0  0  0  0  0  0  0
    5.4131   -4.3060    1.4096 C   0  0  0  0  0  0  0  0  0  0  0  0
    4.5397   -2.1722    0.4893 C   0  0  0  0  0  0  0  0  0  0  0  0
    3.3824   -1.3572    0.0293 C   0  0  2  0  0  0  0  0  0  0  0  0
    2.6117   -2.1055   -0.9785 N   0  0  0  0  0  0  0  0  0  0  0  0
    1.2207   -2.0744   -1.0200 C   0  0  0  0  0  0  0  0  0  0  0  0
    0.6940   -1.2932   -0.0977 O   0  0  0  0  0  0  0  0  0  0  0  0
    0.2453   -2.7305   -1.8550 C   0  0  2  0  0  0  0  0  0  0  0  0
    0.2931   -2.4939   -3.2970 C   0  0  0  0  0  0  0  0  0  0  0  0
    1.4144   -2.8699   -4.1113 C   0  0  0  0  0  0  0  0  0  0  0  0
    2.4479   -2.0594   -4.4861 C   0  0  0  0  0  0  0  0  0  0  0  0
    3.4757   -2.4888   -5.2959 C   0  0  0  0  0  0  0  0  0  0  0  0
    3.5291   -3.7641   -5.7830 C   0  0  0  0  0  0  0  0  0  0  0  0
    4.5622   -4.1759   -6.5889 O   0  0  0  0  0  0  0  0  0  0  0  0
    2.4900   -4.6149   -5.4206 C   0  0  0  0  0  0  0  0  0  0  0  0
    1.4777   -4.1811   -4.6180 C   0  0  0  0  0  0  0  0  0  0  0  0
   -1.1554   -2.4852   -1.3527 N   0  0  0  0  0  0  0  0  0  0  0  0
   -1.7288   -3.3457   -0.4120 C   0  0  0  0  0  0  0  0  0  0  0  0
   -0.9769   -4.3166   -0.0208 O   0  0  0  0  0  0  0  0  0  0  0  0
   -3.0212   -3.2701    0.1405 C   0  0  1  0  0  0  0  0  0  0  0  0
   -3.1531   -3.7472    1.6117 C   0  0  0  0  0  0  0  0  0  0  0  0
   -4.6810   -3.7515    1.6896 C   0  0  0  0  0  0  0  0  0  0  0  0
   -5.1841   -3.0524    0.4354 C   0  0  0  0  0  0  0  0  0  0  0  0
   -3.9203   -2.2032    0.1709 N   0  0  0  0  0  0  0  0  0  0  0  0
   -4.1033   -0.8382    0.1413 C   0  0  0  0  0  0  0  0  0  0  0  0
   -5.3695   -0.4558    0.1147 O   0  0  0  0  0  0  0  0  0  0  0  0
   -3.1967    0.3183    0.1347 C   0  0  2  0  0  0  0  0  0  0  0  0
   -2.8358    0.7699    1.5240 C   0  0  0  0  0  0  0  0  0  0  0  0
   -3.8971    1.1422    2.4237 C   0  0  0  0  0  0  0  0  0  0  0  0
   -4.4395    0.2496    3.3634 C   0  0  0  0  0  0  0  0  0  0  0  0
   -5.4116    0.8306    4.0440 N   0  0  0  0  0  0  0  0  0  0  0  0
   -5.5391    2.1020    3.5862 C   0  0  0  0  0  0  0  0  0  0  0  0
   -6.3965    3.1162    3.9895 C   0  0  0  0  0  0  0  0  0  0  0  0
   -6.3117    4.3516    3.3757 C   0  0  0  0  0  0  0  0  0  0  0  0
   -5.3814    4.5538    2.3764 C   0  0  0  0  0  0  0  0  0  0  0  0
   -4.5425    3.5502    1.9861 C   0  0  0  0  0  0  0  0  0  0  0  0
   -4.6113    2.3118    2.5848 C   0  0  0  0  0  0  0  0  0  0  0  0
   -3.7727    1.3948   -0.6264 N   0  0  0  0  0  0  0  0  0  0  0  0
   -3.0047    2.1256   -1.6006 C   0  0  0  0  0  0  0  0  0  0  0  0
   -1.7692    1.8362   -1.7787 O   0  0  0  0  0  0  0  0  0  0  0  0
   -3.5554    3.2092   -2.4379 C   0  0  0  0  0  0  0  0  0  0  0  0
   -2.4336    4.1512   -2.8672 C   0  0  0  0  0  0  0  0  0  0  0  0
   -4.6371    4.0242   -1.8069 C   0  0  0  0  0  0  0  0  0  0  0  0
   -4.1163    2.6409   -3.7449 C   0  0  0  0  0  0  0  0  0  0  0  0
    3.8985   -0.0648   -0.4967 C   0  0  0  0  0  0  0  0  0  0  0  0
    3.7384    0.2068   -1.7447 O   0  0  0  0  0  0  0  0  0  0  0  0
    4.5484    0.8756    0.2997 N   0  0  0  0  0  0  0  0  0  0  0  0
    5.0933    2.1414   -0.0643 C   0  0  1  0  0  0  0  0  0  0  0  0
    4.2504    3.2950    0.4500 C   0  0  0  0  0  0  0  0  0  0  0  0
    4.0906    3.3176    1.9101 C   0  0  0  0  0  0  0  0  0  0  0  0
    3.0597    2.6677    2.5158 C   0  0  0  0  0  0  0  0  0  0  0  0
    2.8456    2.6948    3.9020 C   0  0  0  0  0  0  0  0  0  0  0  0
    3.7090    3.4039    4.6919 C   0  0  0  0  0  0  0  0  0  0  0  0
    3.5066    3.4461    6.0986 O   0  0  0  0  0  0  0  0  0  0  0  0
    4.7590    4.0702    4.1130 C   0  0  0  0  0  0  0  0  0  0  0  0
    4.9541    4.0304    2.7265 C   0  0  0  0  0  0  0  0  0  0  0  0
    6.5103    2.2796    0.3544 C   0  0  0  0  0  0  0  0  0  0  0  0
    7.1446    3.4941    0.0127 O   0  0  0  0  0  0  0  0  0  0  0  0
    7.1615    1.4169    0.9712 O   0  0  0  0  0  0  0  0  0  0  0  0
    3.8971   -3.5236    3.2797 H   0  0  0  0  0  0  0  0  0  0  0  0
    2.6721   -2.5202    2.3186 H   0  0  0  0  0  0  0  0  0  0  0  0
    2.6267   -4.3034    2.3329 H   0  0  0  0  0  0  0  0  0  0  0  0
    3.6051   -4.1140    0.3503 H   0  0  0  0  0  0  0  0  0  0  0  0
    5.9797   -4.5434    0.4606 H   0  0  0  0  0  0  0  0  0  0  0  0
    5.1393   -5.3141    1.8219 H   0  0  0  0  0  0  0  0  0  0  0  0
    6.0523   -3.7989    2.1463 H   0  0  0  0  0  0  0  0  0  0  0  0
    5.2577   -1.6280    1.1357 H   0  0  0  0  0  0  0  0  0  0  0  0
    5.1526   -2.4392   -0.4244 H   0  0  0  0  0  0  0  0  0  0  0  0
    2.6512   -1.0676    0.8168 H   0  0  0  0  0  0  0  0  0  0  0  0
    3.1815   -2.6591   -1.6276 H   0  0  0  0  0  0  0  0  0  0  0  0
    0.3691   -3.8578   -1.6479 H   0  0  0  0  0  0  0  0  0  0  0  0
    0.1098   -1.3575   -3.4832 H   0  0  0  0  0  0  0  0  0  0  0  0
   -0.6967   -2.8944   -3.7214 H   0  0  0  0  0  0  0  0  0  0  0  0
    2.4742   -1.0388   -4.1440 H   0  0  0  0  0  0  0  0  0  0  0  0
    4.2881   -1.7933   -5.5737 H   0  0  0  0  0  0  0  0  0  0  0  0
    5.3503   -3.6455   -6.8962 H   0  0  0  0  0  0  0  0  0  0  0  0
    2.5322   -5.6422   -5.8123 H   0  0  0  0  0  0  0  0  0  0  0  0
    0.6708   -4.8658   -4.3385 H   0  0  0  0  0  0  0  0  0  0  0  0
   -1.6176   -1.6613   -1.7805 H   0  0  0  0  0  0  0  0  0  0  0  0
   -3.6624   -4.1422   -0.3636 H   0  0  0  0  0  0  0  0  0  0  0  0
   -2.7720   -2.9550    2.2826 H   0  0  0  0  0  0  0  0  0  0  0  0
   -2.7367   -4.7413    1.7568 H   0  0  0  0  0  0  0  0  0  0  0  0
   -5.0107   -4.8262    1.6703 H   0  0  0  0  0  0  0  0  0  0  0  0
   -5.0705   -3.2308    2.5755 H   0  0  0  0  0  0  0  0  0  0  0  0
   -5.1961   -3.7243   -0.4338 H   0  0  0  0  0  0  0  0  0  0  0  0
   -6.0409   -2.4194    0.5707 H   0  0  0  0  0  0  0  0  0  0  0  0
   -2.2719    0.0399   -0.4157 H   0  0  0  0  0  0  0  0  0  0  0  0
   -2.1347    1.6601    1.4723 H   0  0  0  0  0  0  0  0  0  0  0  0
   -2.1766   -0.0542    1.9433 H   0  0  0  0  0  0  0  0  0  0  0  0
   -4.1133   -0.7525    3.4999 H   0  0  0  0  0  0  0  0  0  0  0  0
   -6.0119    0.4130    4.8205 H   0  0  0  0  0  0  0  0  0  0  0  0
   -7.1289    2.9017    4.7881 H   0  0  0  0  0  0  0  0  0  0  0  0
   -6.9907    5.1411    3.7122 H   0  0  0  0  0  0  0  0  0  0  0  0
   -5.3491    5.5538    1.9099 H   0  0  0  0  0  0  0  0  0  0  0  0
   -3.8188    3.7129    1.2209 H   0  0  0  0  0  0  0  0  0  0  0  0
   -4.7643    1.6457   -0.4846 H   0  0  0  0  0  0  0  0  0  0  0  0
   -2.9028    4.9233   -3.5333 H   0  0  0  0  0  0  0  0  0  0  0  0
   -1.6422    3.6722   -3.4371 H   0  0  0  0  0  0  0  0  0  0  0  0
   -2.0133    4.6931   -1.9859 H   0  0  0  0  0  0  0  0  0  0  0  0
   -5.1868    4.5752   -2.6099 H   0  0  0  0  0  0  0  0  0  0  0  0
   -4.2863    4.7725   -1.0778 H   0  0  0  0  0  0  0  0  0  0  0  0
   -5.4062    3.3955   -1.2982 H   0  0  0  0  0  0  0  0  0  0  0  0
   -4.9329    1.9327   -3.5755 H   0  0  0  0  0  0  0  0  0  0  0  0
   -3.3282    2.1871   -4.3802 H   0  0  0  0  0  0  0  0  0  0  0  0
   -4.5283    3.5037   -4.3161 H   0  0  0  0  0  0  0  0  0  0  0  0
    4.6583    0.6279    1.3385 H   0  0  0  0  0  0  0  0  0  0  0  0
    5.0681    2.2574   -1.1816 H   0  0  0  0  0  0  0  0  0  0  0  0
    3.3048    3.3139   -0.1038 H   0  0  0  0  0  0  0  0  0  0  0  0
    4.8193    4.2251    0.1263 H   0  0  0  0  0  0  0  0  0  0  0  0
    2.3513    2.0968    1.9251 H   0  0  0  0  0  0  0  0  0  0  0  0
    2.0244    2.1828    4.3719 H   0  0  0  0  0  0  0  0  0  0  0  0
    2.9197    4.2137    6.4623 H   0  0  0  0  0  0  0  0  0  0  0  0
    5.4069    4.6203    4.7812 H   0  0  0  0  0  0  0  0  0  0  0  0
    5.7925    4.5761    2.3274 H   0  0  0  0  0  0  0  0  0  0  0  0
    8.0212    3.7721    0.4471 H   0  0  0  0  0  0  0  0  0  0  0  0
  1  2  1  0
  2  3  1  0
  2  4  1  0
  4  5  1  0
  5  6  1  0
  6  7  1  0
  7  8  2  0
  7  9  1  0
  9 10  1  0
 10 11  1  0
 11 12  2  0
 12 13  1  0
 13 14  2  0
 14 15  1  0
 14 16  1  0
 16 17  2  0
  9 18  1  0
 18 19  1  0
 19 20  2  0
 19 21  1  0
 21 22  1  0
 22 23  1  0
 23 24  1  0
 24 25  1  0
 25 26  1  0
 26 27  2  0
 26 28  1  0
 28 29  1  0
 29 30  1  0
 30 31  2  0
 31 32  1  0
 32 33  1  0
 33 34  2  0
 34 35  1  0
 35 36  2  0
 36 37  1  0
 37 38  2  0
 28 39  1  0
 39 40  1  0
 40 41  2  0
 40 42  1  0
 42 43  1  0
 42 44  1  0
 42 45  1  0
  5 46  1  0
 46 47  2  0
 46 48  1  0
 48 49  1  0
 49 50  1  0
 50 51  1  0
 51 52  2  0
 52 53  1  0
 53 54  2  0
 54 55  1  0
 54 56  1  0
 56 57  2  0
 49 58  1  0
 58 59  1  0
 58 60  2  0
 17 11  1  0
 25 21  1  0
 38 30  1  0
 57 51  1  0
 38 33  1  0
  1 61  1  0
  1 62  1  0
  1 63  1  0
  2 64  1  0
  3 65  1  0
  3 66  1  0
  3 67  1  0
  4 68  1  0
  4 69  1  0
  5 70  1  1
  6 71  1  0
  9 72  1  6
 10 73  1  0
 10 74  1  0
 12 75  1  0
 13 76  1  0
 15 77  1  0
 16 78  1  0
 17 79  1  0
 18 80  1  0
 21 81  1  6
 22 82  1  0
 22 83  1  0
 23 84  1  0
 23 85  1  0
 24 86  1  0
 24 87  1  0
 28 88  1  6
 29 89  1  0
 29 90  1  0
 31 91  1  0
 32 92  1  0
 34 93  1  0
 35 94  1  0
 36 95  1  0
 37 96  1  0
 39 97  1  0
 43 98  1  0
 43 99  1  0
 43100  1  0
 44101  1  0
 44102  1  0
 44103  1  0
 45104  1  0
 45105  1  0
 45106  1  0
 48107  1  0
 49108  1  6
 50109  1  0
 50110  1  0
 52111  1  0
 53112  1  0
 55113  1  0
 56114  1  0
 57115  1  0
 59116  1  0
M  END
$$$$
[H]OC(=O)[C@@]([H])(N([H])[C@]([H])(C(=O)N([H])[C@]([H])(C(=O)N([H])C([H])([H])c1c([H])c([H])c(F)c([H])c1[H])C([H])([H])c1c([H])n([H])c2c([H])c([H])c([H])c([H])c12)C([H])([H])[H])C([H])([H])C([H])(C([H])([H])[H])C([H])([H])[H]
     RDKit          3D

 69 71  0  0  0  0  0  0  0  0999 V2000
    7.1949   -1.3892    1.4510 C   0  0  0  0  0  0  0  0  0  0  0  0
    5.6441   -1.3797    1.4477 C   0  0  0  0  0  0  0  0  0  0  0  0
    5.2849   -0.6481    2.7239 C   0  0  0  0  0  0  0  0  0  0  0  0
    5.2662   -0.6722    0.1950 C   0  0  0  0  0  0  0  0  0  0  0  0
    3.7463   -0.5671   -0.0360 C   0  0  2  0  0  0  0  0  0  0  0  0
    3.2085    0.1842    1.0558 N   0  0  0  0  0  0  0  0  0  0  0  0
    2.1679    1.0958    0.6221 C   0  0  1  0  0  0  0  0  0  0  0  0
    2.4894    2.0373   -0.4516 C   0  0  0  0  0  0  0  0  0  0  0  0
    0.7910    0.6174    0.6290 C   0  0  0  0  0  0  0  0  0  0  0  0
    0.3882    0.0035    1.6283 O   0  0  0  0  0  0  0  0  0  0  0  0
   -0.0402    0.8593   -0.4729 N   0  0  0  0  0  0  0  0  0  0  0  0
   -1.4106    0.4430   -0.5020 C   0  0  1  0  0  0  0  0  0  0  0  0
   -2.2765    1.0559   -1.5307 C   0  0  0  0  0  0  0  0  0  0  0  0
   -2.3779    2.5155   -1.4912 C   0  0  0  0  0  0  0  0  0  0  0  0
   -1.7951    3.3500   -2.4417 C   0  0  0  0  0  0  0  0  0  0  0  0
   -2.0979    4.6402   -2.1496 N   0  0  0  0  0  0  0  0  0  0  0  0
   -2.8458    4.6449   -1.0491 C   0  0  0  0  0  0  0  0  0  0  0  0
   -3.4120    5.6721   -0.3234 C   0  0  0  0  0  0  0  0  0  0  0  0
   -4.1505    5.4786    0.8011 C   0  0  0  0  0  0  0  0  0  0  0  0
   -4.3360    4.1578    1.2310 C   0  0  0  0  0  0  0  0  0  0  0  0
   -3.7754    3.1393    0.5124 C   0  0  0  0  0  0  0  0  0  0  0  0
   -3.0314    3.3357   -0.6231 C   0  0  0  0  0  0  0  0  0  0  0  0
   -1.4364   -1.0561   -0.6908 C   0  0  0  0  0  0  0  0  0  0  0  0
   -0.7209   -1.8421   -0.0523 O   0  0  0  0  0  0  0  0  0  0  0  0
   -2.3270   -1.6171   -1.6529 N   0  0  0  0  0  0  0  0  0  0  0  0
   -2.4023   -3.0728   -1.8056 C   0  0  0  0  0  0  0  0  0  0  0  0
   -3.3553   -3.4995   -0.7119 C   0  0  0  0  0  0  0  0  0  0  0  0
   -3.5203   -4.8355   -0.3779 C   0  0  0  0  0  0  0  0  0  0  0  0
   -4.4140   -5.1999    0.5730 C   0  0  0  0  0  0  0  0  0  0  0  0
   -5.1998   -4.3004    1.2599 C   0  0  0  0  0  0  0  0  0  0  0  0
   -6.0951   -4.6954    2.1990 F   0  0  0  0  0  0  0  0  0  0  0  0
   -5.0269   -2.9712    0.9221 C   0  0  0  0  0  0  0  0  0  0  0  0
   -4.1332   -2.5731   -0.0347 C   0  0  0  0  0  0  0  0  0  0  0  0
    3.2003   -1.9381   -0.2026 C   0  0  0  0  0  0  0  0  0  0  0  0
    3.4885   -2.6989   -1.3348 O   0  0  0  0  0  0  0  0  0  0  0  0
    2.4644   -2.4381    0.6704 O   0  0  0  0  0  0  0  0  0  0  0  0
    7.5863   -1.3582    0.4206 H   0  0  0  0  0  0  0  0  0  0  0  0
    7.5587   -0.4916    1.9864 H   0  0  0  0  0  0  0  0  0  0  0  0
    7.4904   -2.2865    1.9997 H   0  0  0  0  0  0  0  0  0  0  0  0
    5.2831   -2.4074    1.5599 H   0  0  0  0  0  0  0  0  0  0  0  0
    6.1281   -0.7677    3.4817 H   0  0  0  0  0  0  0  0  0  0  0  0
    5.2066    0.4392    2.5533 H   0  0  0  0  0  0  0  0  0  0  0  0
    4.4130   -1.0896    3.2612 H   0  0  0  0  0  0  0  0  0  0  0  0
    5.7977   -1.0952   -0.6843 H   0  0  0  0  0  0  0  0  0  0  0  0
    5.6845    0.3828    0.3029 H   0  0  0  0  0  0  0  0  0  0  0  0
    3.6404   -0.0478   -1.0346 H   0  0  0  0  0  0  0  0  0  0  0  0
    2.7812   -0.5099    1.7300 H   0  0  0  0  0  0  0  0  0  0  0  0
    2.1484    1.8330    1.5802 H   0  0  0  0  0  0  0  0  0  0  0  0
    2.5402    1.5960   -1.4866 H   0  0  0  0  0  0  0  0  0  0  0  0
    1.6187    2.7620   -0.5312 H   0  0  0  0  0  0  0  0  0  0  0  0
    3.3808    2.6925   -0.2760 H   0  0  0  0  0  0  0  0  0  0  0  0
    0.3490    1.3819   -1.3263 H   0  0  0  0  0  0  0  0  0  0  0  0
   -1.8486    0.5875    0.5592 H   0  0  0  0  0  0  0  0  0  0  0  0
   -3.3066    0.6105   -1.3798 H   0  0  0  0  0  0  0  0  0  0  0  0
   -1.9511    0.7171   -2.5335 H   0  0  0  0  0  0  0  0  0  0  0  0
   -1.1983    3.0901   -3.2920 H   0  0  0  0  0  0  0  0  0  0  0  0
   -1.7979    5.4730   -2.6946 H   0  0  0  0  0  0  0  0  0  0  0  0
   -3.2700    6.7025   -0.6468 H   0  0  0  0  0  0  0  0  0  0  0  0
   -4.6103    6.2642    1.3892 H   0  0  0  0  0  0  0  0  0  0  0  0
   -4.9266    3.9541    2.1238 H   0  0  0  0  0  0  0  0  0  0  0  0
   -3.9416    2.1065    0.8793 H   0  0  0  0  0  0  0  0  0  0  0  0
   -2.9356   -1.0597   -2.2706 H   0  0  0  0  0  0  0  0  0  0  0  0
   -1.4155   -3.5670   -1.6338 H   0  0  0  0  0  0  0  0  0  0  0  0
   -2.8361   -3.2836   -2.7945 H   0  0  0  0  0  0  0  0  0  0  0  0
   -2.9250   -5.6155   -0.8732 H   0  0  0  0  0  0  0  0  0  0  0  0
   -4.5575   -6.2583    0.8431 H   0  0  0  0  0  0  0  0  0  0  0  0
   -5.6391   -2.2440    1.4456 H   0  0  0  0  0  0  0  0  0  0  0  0
   -4.0162   -1.5175   -0.2801 H   0  0  0  0  0  0  0  0  0  0  0  0
    4.4150   -2.8293   -1.7183 H   0  0  0  0  0  0  0  0  0  0  0  0
  1  2  1  0
  2  3  1  0
  2  4  1  0
  4  5  1  0
  5  6  1  0
  6  7  1  0
  7  8  1  0
  7  9  1  0
  9 10  2  0
  9 11  1  0
 11 12  1  0
 12 13  1  0
 13 14  1  0
 14 15  2  0
 15 16  1  0
 16 17  1  0
 17 18  2  0
 18 19  1  0
 19 20  2  0
 20 21  1  0
 21 22  2  0
 12 23  1  0
 23 24  2  0
 23 25  1  0
 25 26  1  0
 26 27  1  0
 27 28  2  0
 28 29  1  0
 29 30  2  0
 30 31  1  0
 30 32  1  0
 32 33  2  0
  5 34  1  0
 34 35  1  0
 34 36  2  0
 22 14  1  0
 33 27  1  0
 22 17  1  0
  1 37  1  0
  1 38  1  0
  1 39  1  0
  2 40  1  0
  3 41  1  0
  3 42  1  0
  3 43  1  0
  4 44  1  0
  4 45  1  0
  5 46  1  6
  6 47  1  0
  7 48  1  1
  8 49  1  0
  8 50  1  0
  8 51  1  0
 11 52  1  0
 12 53  1  1
 13 54  1  0
 13 55  1  0
 15 56  1  0
 16 57  1  0
 18 58  1  0
 19 59  1  0
 20 60  1  0
 21 61  1  0
 25 62  1  0
 26 63  1  0
 26 64  1  0
 28 65  1  0
 29 66  1  0
 32 67  1  0
 33 68  1  0
 35 69  1  0
M  END
$$$$
[H]c1c([H])c(OC([H])([H])[H])c([H])c(N([H])C(=O)c2c([H])c(N([H])C(=O)c3c([H])c(OC([H])([H])[H])c([H])c(OC([H])([H])[H])c3F)c([H])c([H])c2OC([H])([H])[H])c1[H]
     RDKit          3D

 56 58  0  0  0  0  0  0  0  0999 V2000
   -7.9755   -2.9791   -2.3099 C   0  0  0  0  0  0  0  0  0  0  0  0
   -6.7450   -2.3436   -2.3213 O   0  0  0  0  0  0  0  0  0  0  0  0
   -6.2165   -1.4043   -1.4889 C   0  0  0  0  0  0  0  0  0  0  0  0
   -6.9961   -0.9460   -0.4096 C   0  0  0  0  0  0  0  0  0  0  0  0
   -6.4500   -0.0076    0.4276 C   0  0  0  0  0  0  0  0  0  0  0  0
   -7.1756    0.4866    1.4879 O   0  0  0  0  0  0  0  0  0  0  0  0
   -8.4693    0.1574    1.8737 C   0  0  0  0  0  0  0  0  0  0  0  0
   -5.1564    0.4547    0.1955 C   0  0  0  0  0  0  0  0  0  0  0  0
   -4.6579    1.4072    1.0421 F   0  0  0  0  0  0  0  0  0  0  0  0
   -4.3896    0.0277   -0.8325 C   0  0  0  0  0  0  0  0  0  0  0  0
   -4.9284   -0.9162   -1.6940 C   0  0  0  0  0  0  0  0  0  0  0  0
   -2.9863    0.4434   -0.9923 C   0  0  0  0  0  0  0  0  0  0  0  0
   -2.6538    0.8224   -2.1325 O   0  0  0  0  0  0  0  0  0  0  0  0
   -2.0798    0.4110    0.0503 N   0  0  0  0  0  0  0  0  0  0  0  0
   -0.7347    0.8205   -0.0817 C   0  0  0  0  0  0  0  0  0  0  0  0
   -0.4073    1.8844   -0.8557 C   0  0  0  0  0  0  0  0  0  0  0  0
    0.9317    2.2271   -1.0055 C   0  0  0  0  0  0  0  0  0  0  0  0
    1.9305    1.5177   -0.3872 C   0  0  0  0  0  0  0  0  0  0  0  0
    3.2277    1.8779   -0.5603 O   0  0  0  0  0  0  0  0  0  0  0  0
    3.6349    2.9561   -1.3327 C   0  0  0  0  0  0  0  0  0  0  0  0
    1.5864    0.4519    0.3886 C   0  0  0  0  0  0  0  0  0  0  0  0
    0.2550    0.0918    0.5506 C   0  0  0  0  0  0  0  0  0  0  0  0
    2.6444   -0.3545    1.0993 C   0  0  0  0  0  0  0  0  0  0  0  0
    2.0831   -1.3320    1.7441 O   0  0  0  0  0  0  0  0  0  0  0  0
    3.9220   -0.1141    1.0745 N   0  0  0  0  0  0  0  0  0  0  0  0
    5.2887    0.1389    1.0509 C   0  0  0  0  0  0  0  0  0  0  0  0
    5.8413    1.3476    1.4694 C   0  0  0  0  0  0  0  0  0  0  0  0
    7.1648    1.6671    1.4340 C   0  0  0  0  0  0  0  0  0  0  0  0
    8.0040    0.6852    0.9342 C   0  0  0  0  0  0  0  0  0  0  0  0
    7.5480   -0.5441    0.4961 C   0  0  0  0  0  0  0  0  0  0  0  0
    8.4936   -1.4543    0.0076 O   0  0  0  0  0  0  0  0  0  0  0  0
    8.1565   -2.7452   -0.4552 C   0  0  0  0  0  0  0  0  0  0  0  0
    6.2113   -0.7997    0.5597 C   0  0  0  0  0  0  0  0  0  0  0  0
   -7.7966   -4.0500   -2.6818 H   0  0  0  0  0  0  0  0  0  0  0  0
   -8.6923   -2.5575   -3.0106 H   0  0  0  0  0  0  0  0  0  0  0  0
   -8.3780   -3.0495   -1.2869 H   0  0  0  0  0  0  0  0  0  0  0  0
   -7.9866   -1.3648   -0.3073 H   0  0  0  0  0  0  0  0  0  0  0  0
   -8.9614   -0.6352    1.2713 H   0  0  0  0  0  0  0  0  0  0  0  0
   -8.5195   -0.0915    2.9475 H   0  0  0  0  0  0  0  0  0  0  0  0
   -9.0957    1.0809    1.6761 H   0  0  0  0  0  0  0  0  0  0  0  0
   -4.3556   -1.2956   -2.5440 H   0  0  0  0  0  0  0  0  0  0  0  0
   -2.3764    0.0237    1.0207 H   0  0  0  0  0  0  0  0  0  0  0  0
   -1.1226    2.4948   -1.3414 H   0  0  0  0  0  0  0  0  0  0  0  0
    1.1747    3.0721   -1.6179 H   0  0  0  0  0  0  0  0  0  0  0  0
    4.6688    3.2948   -1.0688 H   0  0  0  0  0  0  0  0  0  0  0  0
    3.6249    2.6625   -2.4040 H   0  0  0  0  0  0  0  0  0  0  0  0
    2.9497    3.8203   -1.2410 H   0  0  0  0  0  0  0  0  0  0  0  0
    0.0119   -0.7459    1.1761 H   0  0  0  0  0  0  0  0  0  0  0  0
    4.1820   -1.1107    2.0124 H   0  0  0  0  0  0  0  0  0  0  0  0
    5.1158    2.0740    1.8352 H   0  0  0  0  0  0  0  0  0  0  0  0
    7.5865    2.5996    1.7585 H   0  0  0  0  0  0  0  0  0  0  0  0
    9.0502    0.9456    0.9204 H   0  0  0  0  0  0  0  0  0  0  0  0
    8.7694   -3.0813   -1.3375 H   0  0  0  0  0  0  0  0  0  0  0  0
    8.3529   -3.5096    0.3406 H   0  0  0  0  0  0  0  0  0  0  0  0
    7.1157   -2.7656   -0.8215 H   0  0  0  0  0  0  0  0  0  0  0  0
    5.7805   -1.7471    0.2241 H   0  0  0  0  0  0  0  0  0  0  0  0
  1  2  1  0
  2  3  1  0
  3  4  2  0
  4  5  1  0
  5  6  1  0
  6  7  1  0
  5  8  2  0
  8  9  1  0
  8 10  1  0
 10 11  2  0
 10 12  1  0
 12 13  2  0
 12 14  1  0
 14 15  1  0
 15 16  2  0
 16 17  1  0
 17 18  2  0
 18 19  1  0
 19 20  1  0
 18 21  1  0
 21 22  2  0
 21 23  1  0
 23 24  2  0
 23 25  1  0
 25 26  1  0
 26 27  2  0
 27 28  1  0
 28 29  2  0
 29 30  1  0
 30 31  1  0
 31 32  1  0
 30 33  2  0
 11  3  1  0
 22 15  1  0
 33 26  1  0
  1 34  1  0
  1 35  1  0
  1 36  1  0
  4 37  1  0
  7 38  1  0
  7 39  1  0
  7 40  1  0
 11 41  1  0
 14 42  1  0
 16 43  1  0
 17 44  1  0
 20 45  1  0
 20 46  1  0
 20 47  1  0
 22 48  1  0
 25 49  1  0
 27 50  1  0
 28 51  1  0
 29 52  1  0
 32 53  1  0
 32 54  1  0
 32 55  1  0
 33 56  1  0
M  END
$$$$
[H]c1nc(C([H])([H])[H])c([H])c([H])c1C(=O)N1C([H])([H])[C@]([H])(c2c([H])c([H])c([H])c(F)c2[H])[C@]([H])(C([H])([H])[H])C1([H])[H]
     RDKit          3D

 41 43  0  0  0  0  0  0  0  0999 V2000
   -1.7131   -1.0042   -2.1009 C   0  0  0  0  0  0  0  0  0  0  0  0
   -1.2587    0.3047   -1.5036 C   0  0  2  0  0  0  0  0  0  0  0  0
    0.2308    0.1599   -1.2433 C   0  0  0  0  0  0  0  0  0  0  0  0
    0.3488   -0.2485    0.1307 N   0  0  0  0  0  0  0  0  0  0  0  0
   -1.0343   -0.4469    0.6640 C   0  0  0  0  0  0  0  0  0  0  0  0
   -1.7735    0.5752   -0.1304 C   0  0  2  0  0  0  0  0  0  0  0  0
   -3.2255    0.5507    0.0263 C   0  0  0  0  0  0  0  0  0  0  0  0
   -3.8802    1.7462    0.2339 C   0  0  0  0  0  0  0  0  0  0  0  0
   -5.2620    1.8004    0.3992 C   0  0  0  0  0  0  0  0  0  0  0  0
   -6.0234    0.6529    0.3603 C   0  0  0  0  0  0  0  0  0  0  0  0
   -5.3769   -0.5435    0.1536 C   0  0  0  0  0  0  0  0  0  0  0  0
   -6.1396   -1.6609    0.1181 F   0  0  0  0  0  0  0  0  0  0  0  0
   -4.0075   -0.5818   -0.0084 C   0  0  0  0  0  0  0  0  0  0  0  0
    1.4269   -0.4796    1.0011 C   0  0  0  0  0  0  0  0  0  0  0  0
    1.1400   -0.8502    2.2107 O   0  0  0  0  0  0  0  0  0  0  0  0
    2.8151   -0.3586    0.7261 C   0  0  0  0  0  0  0  0  0  0  0  0
    3.3208    0.0174   -0.4779 C   0  0  0  0  0  0  0  0  0  0  0  0
    4.7144    0.1015   -0.6305 C   0  0  0  0  0  0  0  0  0  0  0  0
    5.5685   -0.1855    0.4011 C   0  0  0  0  0  0  0  0  0  0  0  0
    7.0622   -0.0930    0.2290 C   0  0  0  0  0  0  0  0  0  0  0  0
    5.0692   -0.5555    1.5854 N   0  0  0  0  0  0  0  0  0  0  0  0
    3.7545   -0.6376    1.7388 C   0  0  0  0  0  0  0  0  0  0  0  0
   -1.1455   -1.2095   -3.0588 H   0  0  0  0  0  0  0  0  0  0  0  0
   -1.5292   -1.8605   -1.4383 H   0  0  0  0  0  0  0  0  0  0  0  0
   -2.7896   -1.0054   -2.3636 H   0  0  0  0  0  0  0  0  0  0  0  0
   -1.4646    1.1573   -2.1931 H   0  0  0  0  0  0  0  0  0  0  0  0
    0.6771   -0.5796   -1.9471 H   0  0  0  0  0  0  0  0  0  0  0  0
    0.6313    1.2044   -1.4165 H   0  0  0  0  0  0  0  0  0  0  0  0
   -1.3522   -1.4838    0.5403 H   0  0  0  0  0  0  0  0  0  0  0  0
   -1.1015   -0.1849    1.7190 H   0  0  0  0  0  0  0  0  0  0  0  0
   -1.3715    1.5821    0.1527 H   0  0  0  0  0  0  0  0  0  0  0  0
   -3.3644    2.6964    0.2795 H   0  0  0  0  0  0  0  0  0  0  0  0
   -5.7588    2.7504    0.5615 H   0  0  0  0  0  0  0  0  0  0  0  0
   -7.1072    0.6779    0.4879 H   0  0  0  0  0  0  0  0  0  0  0  0
   -3.5236   -1.5598   -0.1669 H   0  0  0  0  0  0  0  0  0  0  0  0
    2.7378    0.2626   -1.3452 H   0  0  0  0  0  0  0  0  0  0  0  0
    5.1227    0.3998   -1.5851 H   0  0  0  0  0  0  0  0  0  0  0  0
    7.4658    0.1771    1.2260 H   0  0  0  0  0  0  0  0  0  0  0  0
    7.2528    0.7278   -0.4954 H   0  0  0  0  0  0  0  0  0  0  0  0
    7.4538   -1.0720   -0.1282 H   0  0  0  0  0  0  0  0  0  0  0  0
    3.4102   -0.9434    2.7240 H   0  0  0  0  0  0  0  0  0  0  0  0
  1  2  1  0
  2  3  1  0
  3  4  1  0
  4  5  1  0
  5  6  1  0
  6  7  1  0
  7  8  2  0
  8  9  1  0
  9 10  2  0
 10 11  1  0
 11 12  1  0
 11 13  2  0
  4 14  1  0
 14 15  2  0
 14 16  1  0
 16 17  2  0
 17 18  1  0
 18 19  2  0
 19 20  1  0
 19 21  1  0
 21 22  2  0
  6  2  1  0
 13  7  1  0
 22 16  1  0
  1 23  1  0
  1 24  1  0
  1 25  1  0
  2 26  1  6
  3 27  1  0
  3 28  1  0
  5 29  1  0
  5 30  1  0
  6 31  1  1
  8 32  1  0
  9 33  1  0
 10 34  1  0
 13 35  1  0
 17 36  1  0
 18 37  1  0
 20 38  1  0
 20 39  1  0
 20 40  1  0
 22 41  1  0
M  END
$$$$
[H]c1nc(N([H])[H])c(C(F)(F)F)c([H])c1-c1c([H])c(N([H])C(=O)c2c([H])c([H])c([H])c(C(F)(F)F)c2[H])c([H])c([H])c1C([H])([H])[H]
     RDKit          3D

 46 48  0  0  0  0  0  0  0  0999 V2000
   -3.1705   -0.2020    3.1373 C   0  0  0  0  0  0  0  0  0  0  0  0
   -1.8330   -0.3179    2.5074 C   0  0  0  0  0  0  0  0  0  0  0  0
   -0.7692   -0.8107    3.2395 C   0  0  0  0  0  0  0  0  0  0  0  0
    0.4807   -0.9239    2.6844 C   0  0  0  0  0  0  0  0  0  0  0  0
    0.6672   -0.5295    1.3537 C   0  0  0  0  0  0  0  0  0  0  0  0
    1.9475   -0.6957    0.7744 N   0  0  0  0  0  0  0  0  0  0  0  0
    2.5143    0.0117   -0.2846 C   0  0  0  0  0  0  0  0  0  0  0  0
    1.9141    0.9376   -0.8594 O   0  0  0  0  0  0  0  0  0  0  0  0
    3.8526   -0.3327   -0.7478 C   0  0  0  0  0  0  0  0  0  0  0  0
    4.2419   -1.6659   -0.9089 C   0  0  0  0  0  0  0  0  0  0  0  0
    5.5077   -1.9859   -1.3343 C   0  0  0  0  0  0  0  0  0  0  0  0
    6.3942   -0.9364   -1.6012 C   0  0  0  0  0  0  0  0  0  0  0  0
    6.0092    0.3705   -1.4419 C   0  0  0  0  0  0  0  0  0  0  0  0
    4.7397    0.6935   -1.0154 C   0  0  0  0  0  0  0  0  0  0  0  0
    6.9663    1.4607   -1.7164 C   0  0  0  0  0  0  0  0  0  0  0  0
    6.4232    2.2803   -2.6947 F   0  0  0  0  0  0  0  0  0  0  0  0
    7.1362    2.1956   -0.5362 F   0  0  0  0  0  0  0  0  0  0  0  0
    8.2118    0.9756   -2.0653 F   0  0  0  0  0  0  0  0  0  0  0  0
   -0.3856   -0.0476    0.6473 C   0  0  0  0  0  0  0  0  0  0  0  0
   -1.6775    0.0764    1.1982 C   0  0  0  0  0  0  0  0  0  0  0  0
   -2.7583    0.5662    0.3460 C   0  0  0  0  0  0  0  0  0  0  0  0
   -2.7098    1.7802   -0.3181 C   0  0  0  0  0  0  0  0  0  0  0  0
   -3.7079    2.1957   -1.1332 N   0  0  0  0  0  0  0  0  0  0  0  0
   -4.8139    1.4637   -1.3554 C   0  0  0  0  0  0  0  0  0  0  0  0
   -5.8702    1.8745   -2.2114 N   0  0  0  0  0  0  0  0  0  0  0  0
   -4.8952    0.2295   -0.6976 C   0  0  0  0  0  0  0  0  0  0  0  0
   -3.8847   -0.2013    0.1331 C   0  0  0  0  0  0  0  0  0  0  0  0
   -6.1082   -0.5724   -0.9465 C   0  0  0  0  0  0  0  0  0  0  0  0
   -6.2669   -0.8717   -2.2890 F   0  0  0  0  0  0  0  0  0  0  0  0
   -5.9014   -1.8209   -0.3316 F   0  0  0  0  0  0  0  0  0  0  0  0
   -7.2132   -0.0127   -0.3703 F   0  0  0  0  0  0  0  0  0  0  0  0
   -3.7467    0.6559    2.7218 H   0  0  0  0  0  0  0  0  0  0  0  0
   -3.0453    0.0145    4.2396 H   0  0  0  0  0  0  0  0  0  0  0  0
   -3.7260   -1.1503    3.0860 H   0  0  0  0  0  0  0  0  0  0  0  0
   -0.9401   -1.1111    4.2825 H   0  0  0  0  0  0  0  0  0  0  0  0
    1.3068   -1.3124    3.2643 H   0  0  0  0  0  0  0  0  0  0  0  0
    2.5409   -1.4750    1.2182 H   0  0  0  0  0  0  0  0  0  0  0  0
    3.5454   -2.4622   -0.7017 H   0  0  0  0  0  0  0  0  0  0  0  0
    5.8163   -3.0081   -1.4676 H   0  0  0  0  0  0  0  0  0  0  0  0
    7.3930   -1.1634   -1.9380 H   0  0  0  0  0  0  0  0  0  0  0  0
    4.4478    1.7154   -0.8918 H   0  0  0  0  0  0  0  0  0  0  0  0
   -0.2769    0.2550   -0.3823 H   0  0  0  0  0  0  0  0  0  0  0  0
   -1.8343    2.3880   -0.1556 H   0  0  0  0  0  0  0  0  0  0  0  0
   -6.6452    2.4817   -1.8696 H   0  0  0  0  0  0  0  0  0  0  0  0
   -5.9316    1.5982   -3.2175 H   0  0  0  0  0  0  0  0  0  0  0  0
   -3.9453   -1.1630    0.6493 H   0  0  0  0  0  0  0  0  0  0  0  0
  1  2  1  0
  2  3  2  0
  3  4  1  0
  4  5  2  0
  5  6  1  0
  6  7  1  0
  7  8  2  0
  7  9  1  0
  9 10  2  0
 10 11  1  0
 11 12  2  0
 12 13  1  0
 13 14  2  0
 13 15  1  0
 15 16  1  0
 15 17  1  0
 15 18  1  0
  5 19  1  0
 19 20  2  0
 20 21  1  0
 21 22  2  0
 22 23  1  0
 23 24  2  0
 24 25  1  0
 24 26  1  0
 26 27  2  0
 26 28  1  0
 28 29  1  0
 28 30  1  0
 28 31  1  0
 20  2  1  0
 27 21  1  0
 14  9  1  0
  1 32  1  0
  1 33  1  0
  1 34  1  0
  3 35  1  0
  4 36  1  0
  6 37  1  0
 10 38  1  0
 11 39  1  0
 12 40  1  0
 14 41  1  0
 19 42  1  0
 22 43  1  0
 25 44  1  0
 25 45  1  0
 27 46  1  0
M  END
$$$$
[H]Oc1c([H])c([H])c(C([H])([H])[C@@]([H])(C(=O)N2C([H])([H])C([H])([H])C([H])([H])[C@@]2([H])C(=O)N([H])[C@]([H])(C(=O)N([H])[C@]([H])(C(=O)N([H])[C@]([H])(C(F)(F)F)C([H])(C([H])([H])[H])C([H])([H])[H])C([H])([H])c2c([H])c([H])c(O[H])c([H])c2[H])C([H])([H])c2c([H])c([H])c(O[H])c([H])c2[H])N([H])[H])c([H])c1[H]
     RDKit          3D

 96 99  0  0  0  0  0  0  0  0999 V2000
   -7.5356    1.3223    3.5134 C   0  0  0  0  0  0  0  0  0  0  0  0
   -7.1271   -0.0843    3.2233 C   0  0  0  0  0  0  0  0  0  0  0  0
   -8.0670   -1.0895    3.8029 C   0  0  0  0  0  0  0  0  0  0  0  0
   -6.8907   -0.3254    1.7349 C   0  0  2  0  0  0  0  0  0  0  0  0
   -5.8180    0.5680    1.2908 N   0  0  0  0  0  0  0  0  0  0  0  0
   -4.5692    0.0552    0.8066 C   0  0  0  0  0  0  0  0  0  0  0  0
   -4.4701   -1.2047    0.7499 O   0  0  0  0  0  0  0  0  0  0  0  0
   -3.4823    0.9193    0.4181 C   0  0  2  0  0  0  0  0  0  0  0  0
   -3.7368    1.9838   -0.5813 C   0  0  0  0  0  0  0  0  0  0  0  0
   -4.1640    1.5660   -1.9194 C   0  0  0  0  0  0  0  0  0  0  0  0
   -5.4803    1.4905   -2.2884 C   0  0  0  0  0  0  0  0  0  0  0  0
   -5.8617    1.0927   -3.5457 C   0  0  0  0  0  0  0  0  0  0  0  0
   -4.9179    0.7508   -4.4922 C   0  0  0  0  0  0  0  0  0  0  0  0
   -5.3042    0.3468   -5.7672 O   0  0  0  0  0  0  0  0  0  0  0  0
   -3.5954    0.8279   -4.1174 C   0  0  0  0  0  0  0  0  0  0  0  0
   -3.2017    1.2241   -2.8643 C   0  0  0  0  0  0  0  0  0  0  0  0
   -2.2915    0.1506   -0.0043 N   0  0  0  0  0  0  0  0  0  0  0  0
   -1.1282    0.1382    0.7925 C   0  0  0  0  0  0  0  0  0  0  0  0
   -1.1623    0.8128    1.9057 O   0  0  0  0  0  0  0  0  0  0  0  0
    0.0873   -0.5558    0.4608 C   0  0  2  0  0  0  0  0  0  0  0  0
    0.1334   -2.0220    0.3214 C   0  0  0  0  0  0  0  0  0  0  0  0
   -0.6621   -2.7050   -0.6645 C   0  0  0  0  0  0  0  0  0  0  0  0
   -1.8448   -3.3105   -0.3344 C   0  0  0  0  0  0  0  0  0  0  0  0
   -2.6280   -3.9679   -1.2592 C   0  0  0  0  0  0  0  0  0  0  0  0
   -2.2111   -4.0235   -2.5740 C   0  0  0  0  0  0  0  0  0  0  0  0
   -3.0094   -4.6912   -3.5048 O   0  0  0  0  0  0  0  0  0  0  0  0
   -1.0181   -3.4159   -2.9200 C   0  0  0  0  0  0  0  0  0  0  0  0
   -0.2426   -2.7626   -1.9947 C   0  0  0  0  0  0  0  0  0  0  0  0
    1.1123   -0.2348    1.4950 N   0  0  0  0  0  0  0  0  0  0  0  0
    2.3859    0.2679    1.1716 C   0  0  0  0  0  0  0  0  0  0  0  0
    2.6860    0.4634   -0.0270 O   0  0  0  0  0  0  0  0  0  0  0  0
    3.3696    0.5622    2.2258 C   0  0  2  0  0  0  0  0  0  0  0  0
    3.0402    1.8462    2.8998 C   0  0  0  0  0  0  0  0  0  0  0  0
    3.4710    2.8873    1.9169 C   0  0  0  0  0  0  0  0  0  0  0  0
    4.6698    2.2777    1.2452 C   0  0  0  0  0  0  0  0  0  0  0  0
    4.6863    0.8833    1.6312 N   0  0  0  0  0  0  0  0  0  0  0  0
    5.7081   -0.0914    1.5213 C   0  0  0  0  0  0  0  0  0  0  0  0
    5.4510   -1.2695    1.9587 O   0  0  0  0  0  0  0  0  0  0  0  0
    7.0503    0.1246    0.9479 C   0  0  1  0  0  0  0  0  0  0  0  0
    7.8776   -1.0816    1.1233 N   0  0  0  0  0  0  0  0  0  0  0  0
    6.9835    0.3179   -0.5556 C   0  0  0  0  0  0  0  0  0  0  0  0
    8.3507    0.5226   -1.1179 C   0  0  0  0  0  0  0  0  0  0  0  0
    9.0911   -0.5763   -1.5435 C   0  0  0  0  0  0  0  0  0  0  0  0
   10.3585   -0.4573   -2.0670 C   0  0  0  0  0  0  0  0  0  0  0  0
   10.9480    0.7874   -2.1884 C   0  0  0  0  0  0  0  0  0  0  0  0
   12.2433    0.9189   -2.7221 O   0  0  0  0  0  0  0  0  0  0  0  0
   10.2262    1.8836   -1.7709 C   0  0  0  0  0  0  0  0  0  0  0  0
    8.9402    1.7591   -1.2401 C   0  0  0  0  0  0  0  0  0  0  0  0
   -8.1193   -0.0830    0.9325 C   0  0  0  0  0  0  0  0  0  0  0  0
   -7.8697   -0.3467   -0.3906 F   0  0  0  0  0  0  0  0  0  0  0  0
   -9.1718   -0.9001    1.3044 F   0  0  0  0  0  0  0  0  0  0  0  0
   -8.4978    1.2585    1.0096 F   0  0  0  0  0  0  0  0  0  0  0  0
   -7.0686    2.0753    2.8701 H   0  0  0  0  0  0  0  0  0  0  0  0
   -8.6506    1.3808    3.4776 H   0  0  0  0  0  0  0  0  0  0  0  0
   -7.2763    1.6285    4.5597 H   0  0  0  0  0  0  0  0  0  0  0  0
   -6.1321   -0.2466    3.7317 H   0  0  0  0  0  0  0  0  0  0  0  0
   -9.1212   -0.7572    3.8015 H   0  0  0  0  0  0  0  0  0  0  0  0
   -7.7958   -1.2435    4.8859 H   0  0  0  0  0  0  0  0  0  0  0  0
   -7.8889   -2.0625    3.3272 H   0  0  0  0  0  0  0  0  0  0  0  0
   -6.5310   -1.3594    1.5744 H   0  0  0  0  0  0  0  0  0  0  0  0
   -5.9270    1.5969    1.3076 H   0  0  0  0  0  0  0  0  0  0  0  0
   -3.1300    1.4291    1.3836 H   0  0  0  0  0  0  0  0  0  0  0  0
   -2.8168    2.6067   -0.6834 H   0  0  0  0  0  0  0  0  0  0  0  0
   -4.5488    2.6834   -0.2077 H   0  0  0  0  0  0  0  0  0  0  0  0
   -6.2878    1.7480   -1.6072 H   0  0  0  0  0  0  0  0  0  0  0  0
   -6.9043    1.0224   -3.8674 H   0  0  0  0  0  0  0  0  0  0  0  0
   -4.6006    0.1035   -6.4388 H   0  0  0  0  0  0  0  0  0  0  0  0
   -2.8357    0.5559   -4.8706 H   0  0  0  0  0  0  0  0  0  0  0  0
   -2.1298    1.2714   -2.6188 H   0  0  0  0  0  0  0  0  0  0  0  0
   -2.3449   -0.3548   -0.8908 H   0  0  0  0  0  0  0  0  0  0  0  0
    0.5360   -0.0963   -0.4671 H   0  0  0  0  0  0  0  0  0  0  0  0
   -0.0357   -2.5396    1.3084 H   0  0  0  0  0  0  0  0  0  0  0  0
    1.2229   -2.2886    0.1047 H   0  0  0  0  0  0  0  0  0  0  0  0
   -2.1983   -3.2831    0.6963 H   0  0  0  0  0  0  0  0  0  0  0  0
   -3.5625   -4.4346   -0.9419 H   0  0  0  0  0  0  0  0  0  0  0  0
   -2.9034   -5.6812   -3.7065 H   0  0  0  0  0  0  0  0  0  0  0  0
   -0.6981   -3.4655   -3.9646 H   0  0  0  0  0  0  0  0  0  0  0  0
    0.6878   -2.2790   -2.2197 H   0  0  0  0  0  0  0  0  0  0  0  0
    0.8071   -0.4134    2.4719 H   0  0  0  0  0  0  0  0  0  0  0  0
    3.4576   -0.2692    2.9570 H   0  0  0  0  0  0  0  0  0  0  0  0
    3.6286    1.9808    3.8326 H   0  0  0  0  0  0  0  0  0  0  0  0
    1.9778    1.9381    3.2001 H   0  0  0  0  0  0  0  0  0  0  0  0
    2.7012    3.0997    1.1450 H   0  0  0  0  0  0  0  0  0  0  0  0
    3.7386    3.8537    2.3991 H   0  0  0  0  0  0  0  0  0  0  0  0
    4.6308    2.4142    0.1411 H   0  0  0  0  0  0  0  0  0  0  0  0
    5.5769    2.8084    1.6597 H   0  0  0  0  0  0  0  0  0  0  0  0
    7.6095    0.9350    1.4562 H   0  0  0  0  0  0  0  0  0  0  0  0
    7.3995   -1.8631    0.6233 H   0  0  0  0  0  0  0  0  0  0  0  0
    8.0448   -1.2849    2.1227 H   0  0  0  0  0  0  0  0  0  0  0  0
    6.6176   -0.6603   -0.9782 H   0  0  0  0  0  0  0  0  0  0  0  0
    6.3431    1.1500   -0.8234 H   0  0  0  0  0  0  0  0  0  0  0  0
    8.6144   -1.5646   -1.4433 H   0  0  0  0  0  0  0  0  0  0  0  0
   10.9045   -1.3345   -2.3884 H   0  0  0  0  0  0  0  0  0  0  0  0
   13.0319    0.8806   -2.0917 H   0  0  0  0  0  0  0  0  0  0  0  0
   10.6774    2.8626   -1.8606 H   0  0  0  0  0  0  0  0  0  0  0  0
    8.3887    2.6465   -0.9159 H   0  0  0  0  0  0  0  0  0  0  0  0
  1  2  1  0
  2  3  1  0
  2  4  1  0
  4  5  1  0
  5  6  1  0
  6  7  2  0
  6  8  1  0
  8  9  1  0
  9 10  1  0
 10 11  2  0
 11 12  1  0
 12 13  2  0
 13 14  1  0
 13 15  1  0
 15 16  2  0
  8 17  1  0
 17 18  1  0
 18 19  2  0
 18 20  1  0
 20 21  1  0
 21 22  1  0
 22 23  2  0
 23 24  1  0
 24 25  2  0
 25 26  1  0
 25 27  1  0
 27 28  2  0
 20 29  1  0
 29 30  1  0
 30 31  2  0
 30 32  1  0
 32 33  1  0
 33 34  1  0
 34 35  1  0
 35 36  1  0
 36 37  1  0
 37 38  2  0
 37 39  1  0
 39 40  1  0
 39 41  1  0
 41 42  1  0
 42 43  2  0
 43 44  1  0
 44 45  2  0
 45 46  1  0
 45 47  1  0
 47 48  2  0
  4 49  1  0
 49 50  1  0
 49 51  1  0
 49 52  1  0
 16 10  1  0
 28 22  1  0
 36 32  1  0
 48 42  1  0
  1 53  1  0
  1 54  1  0
  1 55  1  0
  2 56  1  0
  3 57  1  0
  3 58  1  0
  3 59  1  0
  4 60  1  1
  5 61  1  0
  8 62  1  1
  9 63  1  0
  9 64  1  0
 11 65  1  0
 12 66  1  0
 14 67  1  0
 15 68  1  0
 16 69  1  0
 17 70  1  0
 20 71  1  6
 21 72  1  0
 21 73  1  0
 23 74  1  0
 24 75  1  0
 26 76  1  0
 27 77  1  0
 28 78  1  0
 29 79  1  0
 32 80  1  1
 33 81  1  0
 33 82  1  0
 34 83  1  0
 34 84  1  0
 35 85  1  0
 35 86  1  0
 39 87  1  1
 40 88  1  0
 40 89  1  0
 41 90  1  0
 41 91  1  0
 43 92  1  0
 44 93  1  0
 46 94  1  0
 47 95  1  0
 48 96  1  0
M  END
$$$$
[H]c1c([H])c([H])c(-c2c([H])c([H])c(N3C([H])([H])C([H])([H])N(C(=O)c4c([H])c(OC([H])([H])[H])c(OC([H])([H])[H])c(OC([H])([H])[H])c4[H])C([H])([H])C3([H])[H])c([H])c2[H])c([H])c1[H]
     RDKit          3D

 60 63  0  0  0  0  0  0  0  0999 V2000
   -3.7250    3.2134   -0.9616 C   0  0  0  0  0  0  0  0  0  0  0  0
   -4.9190    2.4613   -0.9833 O   0  0  0  0  0  0  0  0  0  0  0  0
   -4.8955    1.1380   -0.5736 C   0  0  0  0  0  0  0  0  0  0  0  0
   -3.6919    0.5650   -0.1443 C   0  0  0  0  0  0  0  0  0  0  0  0
   -3.6529   -0.7433    0.2646 C   0  0  0  0  0  0  0  0  0  0  0  0
   -4.8473   -1.4986    0.2434 C   0  0  0  0  0  0  0  0  0  0  0  0
   -6.0149   -0.9361   -0.1755 C   0  0  0  0  0  0  0  0  0  0  0  0
   -7.1977   -1.6856   -0.1962 O   0  0  0  0  0  0  0  0  0  0  0  0
   -7.1443   -3.0283    0.2256 C   0  0  0  0  0  0  0  0  0  0  0  0
   -6.0542    0.3943   -0.5907 C   0  0  0  0  0  0  0  0  0  0  0  0
   -7.2428    0.9499   -1.0115 O   0  0  0  0  0  0  0  0  0  0  0  0
   -8.1099    1.5907   -0.1009 C   0  0  0  0  0  0  0  0  0  0  0  0
   -2.4954   -1.4594    0.7503 C   0  0  0  0  0  0  0  0  0  0  0  0
   -2.6469   -2.7341    1.0155 O   0  0  0  0  0  0  0  0  0  0  0  0
   -1.1882   -1.0213    1.0001 N   0  0  0  0  0  0  0  0  0  0  0  0
   -0.6963    0.2970    0.8384 C   0  0  0  0  0  0  0  0  0  0  0  0
    0.7113    0.4051    1.4316 C   0  0  0  0  0  0  0  0  0  0  0  0
    1.5278   -0.6051    0.8012 N   0  0  0  0  0  0  0  0  0  0  0  0
    0.9656   -1.9337    0.5160 C   0  0  0  0  0  0  0  0  0  0  0  0
   -0.2360   -2.0584    1.4680 C   0  0  0  0  0  0  0  0  0  0  0  0
    2.8640   -0.3233    0.4761 C   0  0  0  0  0  0  0  0  0  0  0  0
    3.5452   -1.2088   -0.3493 C   0  0  0  0  0  0  0  0  0  0  0  0
    4.8595   -0.9311   -0.6558 C   0  0  0  0  0  0  0  0  0  0  0  0
    5.5000    0.1995   -0.1608 C   0  0  0  0  0  0  0  0  0  0  0  0
    4.8149    1.0650    0.6533 C   0  0  0  0  0  0  0  0  0  0  0  0
    3.4947    0.7888    0.9631 C   0  0  0  0  0  0  0  0  0  0  0  0
    6.8823    0.5023   -0.4760 C   0  0  0  0  0  0  0  0  0  0  0  0
    7.8014   -0.4946   -0.6892 C   0  0  0  0  0  0  0  0  0  0  0  0
    9.1115   -0.1870   -0.9882 C   0  0  0  0  0  0  0  0  0  0  0  0
    9.5358    1.1318   -1.0815 C   0  0  0  0  0  0  0  0  0  0  0  0
    8.5796    2.1008   -0.8600 C   0  0  0  0  0  0  0  0  0  0  0  0
    7.2799    1.8094   -0.5633 C   0  0  0  0  0  0  0  0  0  0  0  0
   -3.2817    3.3219    0.0326 H   0  0  0  0  0  0  0  0  0  0  0  0
   -3.9582    4.2087   -1.4302 H   0  0  0  0  0  0  0  0  0  0  0  0
   -3.0192    2.7270   -1.6893 H   0  0  0  0  0  0  0  0  0  0  0  0
   -2.8404    1.1843   -0.1669 H   0  0  0  0  0  0  0  0  0  0  0  0
   -4.8652   -2.5334    0.5568 H   0  0  0  0  0  0  0  0  0  0  0  0
   -6.7150   -3.1190    1.2602 H   0  0  0  0  0  0  0  0  0  0  0  0
   -6.4313   -3.5953   -0.4384 H   0  0  0  0  0  0  0  0  0  0  0  0
   -8.1666   -3.4588    0.1861 H   0  0  0  0  0  0  0  0  0  0  0  0
   -8.7422    0.8806    0.4714 H   0  0  0  0  0  0  0  0  0  0  0  0
   -7.4915    2.1207    0.6619 H   0  0  0  0  0  0  0  0  0  0  0  0
   -8.7838    2.2924   -0.6200 H   0  0  0  0  0  0  0  0  0  0  0  0
   -0.6056    0.6717   -0.1858 H   0  0  0  0  0  0  0  0  0  0  0  0
   -1.2846    1.0174    1.4642 H   0  0  0  0  0  0  0  0  0  0  0  0
    1.0987    1.3984    1.1156 H   0  0  0  0  0  0  0  0  0  0  0  0
    0.6200    0.2895    2.5174 H   0  0  0  0  0  0  0  0  0  0  0  0
    1.6941   -2.6799    0.8335 H   0  0  0  0  0  0  0  0  0  0  0  0
    0.5772   -2.0149   -0.4983 H   0  0  0  0  0  0  0  0  0  0  0  0
   -0.6575   -3.0658    1.4154 H   0  0  0  0  0  0  0  0  0  0  0  0
    0.0436   -1.8397    2.5061 H   0  0  0  0  0  0  0  0  0  0  0  0
    3.0539   -2.0958   -0.7418 H   0  0  0  0  0  0  0  0  0  0  0  0
    5.4040   -1.6066   -1.2945 H   0  0  0  0  0  0  0  0  0  0  0  0
    5.2632    1.9635    1.0691 H   0  0  0  0  0  0  0  0  0  0  0  0
    3.0012    1.4993    1.6144 H   0  0  0  0  0  0  0  0  0  0  0  0
    7.4650   -1.5359   -0.6151 H   0  0  0  0  0  0  0  0  0  0  0  0
    9.8307   -0.9697   -1.1551 H   0  0  0  0  0  0  0  0  0  0  0  0
   10.5637    1.3846   -1.3160 H   0  0  0  0  0  0  0  0  0  0  0  0
    8.9035    3.1400   -0.9312 H   0  0  0  0  0  0  0  0  0  0  0  0
    6.6085    2.6513   -0.4072 H   0  0  0  0  0  0  0  0  0  0  0  0
  1  2  1  0
  2  3  1  0
  3  4  2  0
  4  5  1  0
  5  6  2  0
  6  7  1  0
  7  8  1  0
  8  9  1  0
  7 10  2  0
 10 11  1  0
 11 12  1  0
  5 13  1  0
 13 14  2  0
 13 15  1  0
 15 16  1  0
 16 17  1  0
 17 18  1  0
 18 19  1  0
 19 20  1  0
 18 21  1  0
 21 22  2  0
 22 23  1  0
 23 24  2  0
 24 25  1  0
 25 26  2  0
 24 27  1  0
 27 28  2  0
 28 29  1  0
 29 30  2  0
 30 31  1  0
 31 32  2  0
 10  3  1  0
 20 15  1  0
 26 21  1  0
 32 27  1  0
  1 33  1  0
  1 34  1  0
  1 35  1  0
  4 36  1  0
  6 37  1  0
  9 38  1  0
  9 39  1  0
  9 40  1  0
 12 41  1  0
 12 42  1  0
 12 43  1  0
 16 44  1  0
 16 45  1  0
 17 46  1  0
 17 47  1  0
 19 48  1  0
 19 49  1  0
 20 50  1  0
 20 51  1  0
 22 52  1  0
 23 53  1  0
 25 54  1  0
 26 55  1  0
 28 56  1  0
 29 57  1  0
 30 58  1  0
 31 59  1  0
 32 60  1  0
M  END
$$$$
[H]O[C@]1([H])[C@@]([H])(C([H])([H])OP(=O)(O[H])O[H])O[C@@]([H])(n2c([H])nc3c(N([H])[H])nc([H])nc32)[C@]1([H])O[H]
     RDKit          3D

 37 39  0  0  0  0  0  0  0  0999 V2000
   -6.0211    1.9756    0.8594 N   0  0  0  0  0  0  0  0  0  0  0  0
   -5.0748    1.2538    0.0905 C   0  0  0  0  0  0  0  0  0  0  0  0
   -5.2578    0.8694   -1.1829 N   0  0  0  0  0  0  0  0  0  0  0  0
   -4.3488    0.1843   -1.8990 C   0  0  0  0  0  0  0  0  0  0  0  0
   -3.1811   -0.1473   -1.3304 N   0  0  0  0  0  0  0  0  0  0  0  0
   -2.9234    0.1947   -0.0778 C   0  0  0  0  0  0  0  0  0  0  0  0
   -1.8353   -0.0201    0.7075 N   0  0  0  0  0  0  0  0  0  0  0  0
   -2.1271    0.5505    1.8894 C   0  0  0  0  0  0  0  0  0  0  0  0
   -3.3371    1.1003    1.8596 N   0  0  0  0  0  0  0  0  0  0  0  0
   -3.8640    0.8989    0.6504 C   0  0  0  0  0  0  0  0  0  0  0  0
   -0.6097   -0.6937    0.4210 C   0  0  2  0  0  0  0  0  0  0  0  0
    0.4598   -0.0503    1.0874 O   0  0  0  0  0  0  0  0  0  0  0  0
    1.5661   -0.6828    0.5295 C   0  0  2  0  0  0  0  0  0  0  0  0
    2.8486    0.0646    0.8258 C   0  0  0  0  0  0  0  0  0  0  0  0
    3.9454   -0.5778    0.2633 O   0  0  0  0  0  0  0  0  0  0  0  0
    5.3855    0.2125    0.5649 P   0  0  0  0  0  0  0  0  0  0  0  0
    6.5219   -0.9206    1.1082 O   0  0  0  0  0  0  0  0  0  0  0  0
    5.9767    1.0314   -0.8005 O   0  0  0  0  0  0  0  0  0  0  0  0
    5.1458    1.2045    1.6953 O   0  0  0  0  0  0  0  0  0  0  0  0
    1.2859   -0.5111   -0.9565 C   0  0  1  0  0  0  0  0  0  0  0  0
    1.9509   -1.4725   -1.7109 O   0  0  0  0  0  0  0  0  0  0  0  0
   -0.2265   -0.7010   -1.0267 C   0  0  1  0  0  0  0  0  0  0  0  0
   -0.5054   -1.9497   -1.5787 O   0  0  0  0  0  0  0  0  0  0  0  0
   -5.7942    2.8708    1.2960 H   0  0  0  0  0  0  0  0  0  0  0  0
   -6.9716    1.5626    0.9701 H   0  0  0  0  0  0  0  0  0  0  0  0
   -4.5862   -0.0873   -2.9349 H   0  0  0  0  0  0  0  0  0  0  0  0
   -1.4686    0.5659    2.7594 H   0  0  0  0  0  0  0  0  0  0  0  0
   -0.5812   -1.7492    0.8005 H   0  0  0  0  0  0  0  0  0  0  0  0
    1.6094   -1.7330    0.8212 H   0  0  0  0  0  0  0  0  0  0  0  0
    2.8347    1.0906    0.4598 H   0  0  0  0  0  0  0  0  0  0  0  0
    3.0194    0.0832    1.9260 H   0  0  0  0  0  0  0  0  0  0  0  0
    6.3982   -1.8059    0.7185 H   0  0  0  0  0  0  0  0  0  0  0  0
    6.6715    0.5339   -1.2724 H   0  0  0  0  0  0  0  0  0  0  0  0
    1.5778    0.5232   -1.2172 H   0  0  0  0  0  0  0  0  0  0  0  0
    1.9513   -1.1771   -2.6417 H   0  0  0  0  0  0  0  0  0  0  0  0
   -0.6194    0.1289   -1.6139 H   0  0  0  0  0  0  0  0  0  0  0  0
    0.1847   -2.6206   -1.3308 H   0  0  0  0  0  0  0  0  0  0  0  0
  1  2  1  0
  2  3  2  0
  3  4  1  0
  4  5  2  0
  5  6  1  0
  6  7  1  0
  7  8  1  0
  8  9  2  0
  9 10  1  0
  7 11  1  0
 11 12  1  0
 12 13  1  0
 13 14  1  0
 14 15  1  0
 15 16  1  0
 16 17  1  0
 16 18  1  0
 16 19  2  0
 13 20  1  0
 20 21  1  0
 20 22  1  0
 22 23  1  0
 10  2  1  0
 22 11  1  0
 10  6  2  0
  1 24  1  0
  1 25  1  0
  4 26  1  0
  8 27  1  0
 11 28  1  1
 13 29  1  6
 14 30  1  0
 14 31  1  0
 17 32  1  0
 18 33  1  0
 20 34  1  6
 21 35  1  0
 22 36  1  6
 23 37  1  0
M  END
$$$$
[H]c1nc(N([H])c2c([H])c([H])c(S(=O)(=O)C([H])([H])[H])c([H])c2[H])c2c([H])c(-c3c([H])c([H])c(N4C([H])([H])C([H])([H])N(C([H])([H])[H])C([H])([H])C4([H])[H])c([H])c3[H])oc2n1
     RDKit          3D

 58 62  0  0  0  0  0  0  0  0999 V2000
    8.2880   -1.9209    1.6392 C   0  0  0  0  0  0  0  0  0  0  0  0
    8.1192   -1.9068    0.2203 N   0  0  0  0  0  0  0  0  0  0  0  0
    8.0678   -0.5657   -0.3358 C   0  0  0  0  0  0  0  0  0  0  0  0
    6.8283    0.1053    0.1390 C   0  0  0  0  0  0  0  0  0  0  0  0
    5.6239   -0.6673    0.0306 N   0  0  0  0  0  0  0  0  0  0  0  0
    5.6819   -2.0961   -0.1024 C   0  0  0  0  0  0  0  0  0  0  0  0
    7.0302   -2.6892   -0.2676 C   0  0  0  0  0  0  0  0  0  0  0  0
    4.3480   -0.0449    0.0557 C   0  0  0  0  0  0  0  0  0  0  0  0
    4.1800    1.3143    0.2211 C   0  0  0  0  0  0  0  0  0  0  0  0
    2.9203    1.9151    0.2424 C   0  0  0  0  0  0  0  0  0  0  0  0
    1.7804    1.1577    0.0965 C   0  0  0  0  0  0  0  0  0  0  0  0
    1.9474   -0.2006   -0.0688 C   0  0  0  0  0  0  0  0  0  0  0  0
    3.1880   -0.7940   -0.0901 C   0  0  0  0  0  0  0  0  0  0  0  0
    0.4431    1.7507    0.1134 C   0  0  0  0  0  0  0  0  0  0  0  0
   -0.7735    1.1092   -0.0213 C   0  0  0  0  0  0  0  0  0  0  0  0
   -1.7703    2.0554    0.0554 C   0  0  0  0  0  0  0  0  0  0  0  0
   -3.1723    1.9596   -0.0181 C   0  0  0  0  0  0  0  0  0  0  0  0
   -3.7551    0.6918   -0.2235 N   0  0  0  0  0  0  0  0  0  0  0  0
   -5.1094    0.3561   -0.3097 C   0  0  0  0  0  0  0  0  0  0  0  0
   -5.4813   -0.8494   -0.9082 C   0  0  0  0  0  0  0  0  0  0  0  0
   -6.8000   -1.2362   -0.9993 C   0  0  0  0  0  0  0  0  0  0  0  0
   -7.7941   -0.4199   -0.4891 C   0  0  0  0  0  0  0  0  0  0  0  0
   -7.4293    0.7599    0.0969 C   0  0  0  0  0  0  0  0  0  0  0  0
   -6.0949    1.1489    0.1881 C   0  0  0  0  0  0  0  0  0  0  0  0
   -9.4841   -0.8666   -0.5807 S   0  0  0  0  0  0  0  0  0  0  0  0
   -9.8726   -1.7883    0.8951 C   0  0  0  0  0  0  0  0  0  0  0  0
   -9.7977   -1.6576   -1.8072 O   0  0  0  0  0  0  0  0  0  0  0  0
  -10.3159    0.3908   -0.5380 O   0  0  0  0  0  0  0  0  0  0  0  0
   -3.8129    3.1152    0.1007 N   0  0  0  0  0  0  0  0  0  0  0  0
   -3.2179    4.3086    0.2783 C   0  0  0  0  0  0  0  0  0  0  0  0
   -1.8844    4.3631    0.3435 N   0  0  0  0  0  0  0  0  0  0  0  0
   -1.1226    3.2557    0.2361 C   0  0  0  0  0  0  0  0  0  0  0  0
    0.1633    3.0204    0.2624 O   0  0  0  0  0  0  0  0  0  0  0  0
    9.1878   -2.5522    1.8681 H   0  0  0  0  0  0  0  0  0  0  0  0
    7.4330   -2.2890    2.2100 H   0  0  0  0  0  0  0  0  0  0  0  0
    8.4966   -0.8780    1.9753 H   0  0  0  0  0  0  0  0  0  0  0  0
    8.1260   -0.6269   -1.4305 H   0  0  0  0  0  0  0  0  0  0  0  0
    8.9464   -0.0246    0.1013 H   0  0  0  0  0  0  0  0  0  0  0  0
    6.9266    0.4714    1.1865 H   0  0  0  0  0  0  0  0  0  0  0  0
    6.6773    1.0280   -0.5010 H   0  0  0  0  0  0  0  0  0  0  0  0
    5.1247   -2.6123    0.7228 H   0  0  0  0  0  0  0  0  0  0  0  0
    5.0931   -2.3802   -1.0285 H   0  0  0  0  0  0  0  0  0  0  0  0
    7.2577   -2.9217   -1.3496 H   0  0  0  0  0  0  0  0  0  0  0  0
    7.0543   -3.6750    0.2394 H   0  0  0  0  0  0  0  0  0  0  0  0
    5.0693    1.9216    0.3385 H   0  0  0  0  0  0  0  0  0  0  0  0
    2.8002    2.9711    0.3714 H   0  0  0  0  0  0  0  0  0  0  0  0
    1.0343   -0.7895   -0.1834 H   0  0  0  0  0  0  0  0  0  0  0  0
    3.2940   -1.8715   -0.2220 H   0  0  0  0  0  0  0  0  0  0  0  0
   -0.8953    0.0554   -0.1604 H   0  0  0  0  0  0  0  0  0  0  0  0
   -3.0918   -0.1651   -0.3282 H   0  0  0  0  0  0  0  0  0  0  0  0
   -4.7151   -1.5045   -1.3158 H   0  0  0  0  0  0  0  0  0  0  0  0
   -7.0514   -2.1774   -1.4699 H   0  0  0  0  0  0  0  0  0  0  0  0
   -8.1974    1.4269    0.5100 H   0  0  0  0  0  0  0  0  0  0  0  0
   -5.9178    2.1140    0.6936 H   0  0  0  0  0  0  0  0  0  0  0  0
  -10.9164   -1.5877    1.1586 H   0  0  0  0  0  0  0  0  0  0  0  0
   -9.2468   -1.3738    1.7298 H   0  0  0  0  0  0  0  0  0  0  0  0
   -9.6506   -2.8611    0.7496 H   0  0  0  0  0  0  0  0  0  0  0  0
   -3.7604    5.2283    0.3714 H   0  0  0  0  0  0  0  0  0  0  0  0
  1  2  1  0
  2  3  1  0
  3  4  1  0
  4  5  1  0
  5  6  1  0
  6  7  1  0
  5  8  1  0
  8  9  2  0
  9 10  1  0
 10 11  2  0
 11 12  1  0
 12 13  2  0
 11 14  1  0
 14 15  2  0
 15 16  1  0
 16 17  2  0
 17 18  1  0
 18 19  1  0
 19 20  2  0
 20 21  1  0
 21 22  2  0
 22 23  1  0
 23 24  2  0
 22 25  1  0
 25 26  1  0
 25 27  2  0
 25 28  2  0
 17 29  1  0
 29 30  2  0
 30 31  1  0
 31 32  2  0
 32 33  1  0
  7  2  1  0
 13  8  1  0
 33 14  1  0
 32 16  1  0
 24 19  1  0
  1 34  1  0
  1 35  1  0
  1 36  1  0
  3 37  1  0
  3 38  1  0
  4 39  1  0
  4 40  1  0
  6 41  1  0
  6 42  1  0
  7 43  1  0
  7 44  1  0
  9 45  1  0
 10 46  1  0
 12 47  1  0
 13 48  1  0
 15 49  1  0
 18 50  1  0
 20 51  1  0
 21 52  1  0
 23 53  1  0
 24 54  1  0
 26 55  1  0
 26 56  1  0
 26 57  1  0
 30 58  1  0
M  END
$$$$
[H]c1nc(N([H])c2c([H])c([H])c(C(F)(F)F)c([H])c2OC([H])([H])[H])nc(N([H])c2c([H])c([H])c([H])c([H])c2S(=O)(=O)C([H])(C([H])([H])[H])C([H])([H])[H])c1Cl
     RDKit          3D

 53 55  0  0  0  0  0  0  0  0999 V2000
    5.2110   -2.8974   -1.3050 C   0  0  0  0  0  0  0  0  0  0  0  0
    4.4335   -1.8680   -0.7973 O   0  0  0  0  0  0  0  0  0  0  0  0
    4.8894   -0.7104   -0.1767 C   0  0  0  0  0  0  0  0  0  0  0  0
    6.2278   -0.5147   -0.0177 C   0  0  0  0  0  0  0  0  0  0  0  0
    6.6774    0.6351    0.6005 C   0  0  0  0  0  0  0  0  0  0  0  0
    5.8005    1.5582    1.0449 C   0  0  0  0  0  0  0  0  0  0  0  0
    4.4229    1.3376    0.8708 C   0  0  0  0  0  0  0  0  0  0  0  0
    3.9233    0.2144    0.2612 C   0  0  0  0  0  0  0  0  0  0  0  0
    2.5650   -0.0471    0.0206 N   0  0  0  0  0  0  0  0  0  0  0  0
    1.4586    0.8113    0.2617 C   0  0  0  0  0  0  0  0  0  0  0  0
    1.5491    2.0229    0.7824 N   0  0  0  0  0  0  0  0  0  0  0  0
    0.5607    2.8775    0.9516 C   0  0  0  0  0  0  0  0  0  0  0  0
   -0.7002    2.4655    0.5389 C   0  0  0  0  0  0  0  0  0  0  0  0
   -2.0711    3.5248    0.6835 Cl  0  0  0  0  0  0  0  0  0  0  0  0
   -0.9016    1.1852   -0.0277 C   0  0  0  0  0  0  0  0  0  0  0  0
   -2.1967    0.8455   -0.4124 N   0  0  0  0  0  0  0  0  0  0  0  0
   -2.6710   -0.2969   -1.0534 C   0  0  0  0  0  0  0  0  0  0  0  0
   -1.8100   -1.2933   -1.5496 C   0  0  0  0  0  0  0  0  0  0  0  0
   -2.3114   -2.3613   -2.2626 C   0  0  0  0  0  0  0  0  0  0  0  0
   -3.6620   -2.4561   -2.4925 C   0  0  0  0  0  0  0  0  0  0  0  0
   -4.5140   -1.5029   -2.0168 C   0  0  0  0  0  0  0  0  0  0  0  0
   -4.0407   -0.4025   -1.2872 C   0  0  0  0  0  0  0  0  0  0  0  0
   -5.2130    0.6526   -0.5960 S   0  0  0  0  0  0  0  0  0  0  0  0
   -6.5776    0.3686   -1.2562 O   0  0  0  0  0  0  0  0  0  0  0  0
   -5.0231    2.0981   -0.7377 O   0  0  0  0  0  0  0  0  0  0  0  0
   -5.4865    0.2785    1.1364 C   0  0  0  0  0  0  0  0  0  0  0  0
   -6.5099    1.2363    1.6984 C   0  0  0  0  0  0  0  0  0  0  0  0
   -5.9837   -1.1519    1.2849 C   0  0  0  0  0  0  0  0  0  0  0  0
    0.2131    0.4341   -0.1289 N   0  0  0  0  0  0  0  0  0  0  0  0
    8.1220    0.8645    0.7574 C   0  0  0  0  0  0  0  0  0  0  0  0
    8.4197    2.1756    0.3850 F   0  0  0  0  0  0  0  0  0  0  0  0
    8.4923    0.7166    2.0643 F   0  0  0  0  0  0  0  0  0  0  0  0
    8.8654   -0.0544    0.0148 F   0  0  0  0  0  0  0  0  0  0  0  0
    6.2302   -2.6021   -1.6509 H   0  0  0  0  0  0  0  0  0  0  0  0
    4.6978   -3.2843   -2.2222 H   0  0  0  0  0  0  0  0  0  0  0  0
    5.2812   -3.7195   -0.5289 H   0  0  0  0  0  0  0  0  0  0  0  0
    6.9765   -1.2510   -0.3623 H   0  0  0  0  0  0  0  0  0  0  0  0
    6.0960    2.4889    1.5424 H   0  0  0  0  0  0  0  0  0  0  0  0
    3.7822    2.0990    1.2445 H   0  0  0  0  0  0  0  0  0  0  0  0
    2.3512   -1.0145   -0.3888 H   0  0  0  0  0  0  0  0  0  0  0  0
    0.6417    3.8903    1.3782 H   0  0  0  0  0  0  0  0  0  0  0  0
   -2.9367    1.5744   -0.1723 H   0  0  0  0  0  0  0  0  0  0  0  0
   -0.7529   -1.2056   -1.3863 H   0  0  0  0  0  0  0  0  0  0  0  0
   -1.6539   -3.1143   -2.6363 H   0  0  0  0  0  0  0  0  0  0  0  0
   -4.0195   -3.3287   -3.0519 H   0  0  0  0  0  0  0  0  0  0  0  0
   -5.6043   -1.5886   -2.1821 H   0  0  0  0  0  0  0  0  0  0  0  0
   -4.5458    0.3901    1.6743 H   0  0  0  0  0  0  0  0  0  0  0  0
   -6.8131    0.9118    2.7381 H   0  0  0  0  0  0  0  0  0  0  0  0
   -6.0893    2.2440    1.7176 H   0  0  0  0  0  0  0  0  0  0  0  0
   -7.4674    1.2493    1.1244 H   0  0  0  0  0  0  0  0  0  0  0  0
   -6.8037   -1.1276    2.0311 H   0  0  0  0  0  0  0  0  0  0  0  0
   -5.1642   -1.7860    1.6367 H   0  0  0  0  0  0  0  0  0  0  0  0
   -6.3649   -1.5717    0.3262 H   0  0  0  0  0  0  0  0  0  0  0  0
  1  2  1  0
  2  3  1  0
  3  4  2  0
  4  5  1  0
  5  6  2  0
  6  7  1  0
  7  8  2  0
  8  9  1  0
  9 10  1  0
 10 11  2  0
 11 12  1  0
 12 13  2  0
 13 14  1  0
 13 15  1  0
 15 16  1  0
 16 17  1  0
 17 18  2  0
 18 19  1  0
 19 20  2  0
 20 21  1  0
 21 22  2  0
 22 23  1  0
 23 24  2  0
 23 25  2  0
 23 26  1  0
 26 27  1  0
 26 28  1  0
 15 29  2  0
  5 30  1  0
 30 31  1  0
 30 32  1  0
 30 33  1  0
  8  3  1  0
 29 10  1  0
 22 17  1  0
  1 34  1  0
  1 35  1  0
  1 36  1  0
  4 37  1  0
  6 38  1  0
  7 39  1  0
  9 40  1  0
 12 41  1  0
 16 42  1  0
 18 43  1  0
 19 44  1  0
 20 45  1  0
 21 46  1  0
 26 47  1  0
 27 48  1  0
 27 49  1  0
 27 50  1  0
 28 51  1  0
 28 52  1  0
 28 53  1  0
M  END
$$$$
[H]c1c(Cl)c([H])c(C(=O)N([H])C2([H])C([H])([H])C([H])([H])N(C(=O)c3c([H])c([H])c(C([H])(C([H])([H])[H])C([H])([H])[H])c([H])c3[H])C([H])([H])C2([H])[H])c([H])c1Cl
     RDKit          3D

 52 54  0  0  0  0  0  0  0  0999 V2000
   -6.5949   -1.3042    1.8754 C   0  0  0  0  0  0  0  0  0  0  0  0
   -6.7777   -0.6332    0.5238 C   0  0  0  0  0  0  0  0  0  0  0  0
   -7.1938   -1.5963   -0.5485 C   0  0  0  0  0  0  0  0  0  0  0  0
   -5.4698   -0.0363    0.1635 C   0  0  0  0  0  0  0  0  0  0  0  0
   -5.2445    1.3097    0.0322 C   0  0  0  0  0  0  0  0  0  0  0  0
   -4.0203    1.8160   -0.3016 C   0  0  0  0  0  0  0  0  0  0  0  0
   -2.9083    0.9708   -0.5323 C   0  0  0  0  0  0  0  0  0  0  0  0
   -3.1429   -0.3670   -0.3998 C   0  0  0  0  0  0  0  0  0  0  0  0
   -4.4069   -0.8641   -0.0562 C   0  0  0  0  0  0  0  0  0  0  0  0
   -1.6582    1.5639   -0.8928 C   0  0  0  0  0  0  0  0  0  0  0  0
   -1.6766    2.8762   -1.0472 O   0  0  0  0  0  0  0  0  0  0  0  0
   -0.4105    1.0139   -1.1136 N   0  0  0  0  0  0  0  0  0  0  0  0
    0.7195    1.9206   -1.5011 C   0  0  0  0  0  0  0  0  0  0  0  0
    1.7703    1.8813   -0.4176 C   0  0  0  0  0  0  0  0  0  0  0  0
    2.2090    0.4359   -0.2572 C   0  0  0  0  0  0  0  0  0  0  0  0
    1.4816   -0.4703   -1.1916 C   0  0  0  0  0  0  0  0  0  0  0  0
   -0.0333   -0.3481   -1.0046 C   0  0  0  0  0  0  0  0  0  0  0  0
    3.6352    0.2761   -0.4087 N   0  0  0  0  0  0  0  0  0  0  0  0
    4.4349   -0.1966    0.6537 C   0  0  0  0  0  0  0  0  0  0  0  0
    3.9120   -0.4959    1.7787 O   0  0  0  0  0  0  0  0  0  0  0  0
    5.8717   -0.3644    0.5238 C   0  0  0  0  0  0  0  0  0  0  0  0
    6.6195   -0.8992    1.5754 C   0  0  0  0  0  0  0  0  0  0  0  0
    7.9750   -1.0893    1.5359 C   0  0  0  0  0  0  0  0  0  0  0  0
    8.8291   -1.7743    2.9220 Cl  0  0  0  0  0  0  0  0  0  0  0  0
    8.6680   -0.7329    0.3837 C   0  0  0  0  0  0  0  0  0  0  0  0
    7.9771   -0.2005   -0.6837 C   0  0  0  0  0  0  0  0  0  0  0  0
    8.8081    0.2583   -2.1427 Cl  0  0  0  0  0  0  0  0  0  0  0  0
    6.5979   -0.0259   -0.5966 C   0  0  0  0  0  0  0  0  0  0  0  0
   -6.1019   -2.2758    1.8148 H   0  0  0  0  0  0  0  0  0  0  0  0
   -6.0025   -0.5871    2.5049 H   0  0  0  0  0  0  0  0  0  0  0  0
   -7.5871   -1.4757    2.3683 H   0  0  0  0  0  0  0  0  0  0  0  0
   -7.5055    0.1940    0.6621 H   0  0  0  0  0  0  0  0  0  0  0  0
   -7.6602   -0.9895   -1.3737 H   0  0  0  0  0  0  0  0  0  0  0  0
   -6.2783   -2.0493   -0.9855 H   0  0  0  0  0  0  0  0  0  0  0  0
   -7.8941   -2.3723   -0.1809 H   0  0  0  0  0  0  0  0  0  0  0  0
   -6.0921    1.9715    0.2071 H   0  0  0  0  0  0  0  0  0  0  0  0
   -3.8763    2.8694   -0.3953 H   0  0  0  0  0  0  0  0  0  0  0  0
   -2.3888   -1.1265   -0.5561 H   0  0  0  0  0  0  0  0  0  0  0  0
   -4.5102   -1.9653    0.0310 H   0  0  0  0  0  0  0  0  0  0  0  0
    1.1624    1.5890   -2.4495 H   0  0  0  0  0  0  0  0  0  0  0  0
    0.3106    2.9241   -1.6089 H   0  0  0  0  0  0  0  0  0  0  0  0
    1.3927    2.3111    0.5355 H   0  0  0  0  0  0  0  0  0  0  0  0
    2.5923    2.5399   -0.7498 H   0  0  0  0  0  0  0  0  0  0  0  0
    1.9217    0.1343    0.7851 H   0  0  0  0  0  0  0  0  0  0  0  0
    1.7086   -1.5202   -0.8525 H   0  0  0  0  0  0  0  0  0  0  0  0
    1.7133   -0.3190   -2.2458 H   0  0  0  0  0  0  0  0  0  0  0  0
   -0.5156   -0.9408   -1.7849 H   0  0  0  0  0  0  0  0  0  0  0  0
   -0.2750   -0.6882    0.0324 H   0  0  0  0  0  0  0  0  0  0  0  0
    4.0710    0.5138   -1.3149 H   0  0  0  0  0  0  0  0  0  0  0  0
    6.0578   -1.1721    2.4699 H   0  0  0  0  0  0  0  0  0  0  0  0
    9.7306   -0.8904    0.3740 H   0  0  0  0  0  0  0  0  0  0  0  0
    6.0555    0.4006   -1.4547 H   0  0  0  0  0  0  0  0  0  0  0  0
  1  2  1  0
  2  3  1  0
  2  4  1  0
  4  5  2  0
  5  6  1  0
  6  7  2  0
  7  8  1  0
  8  9  2  0
  7 10  1  0
 10 11  2  0
 10 12  1  0
 12 13  1  0
 13 14  1  0
 14 15  1  0
 15 16  1  0
 16 17  1  0
 15 18  1  0
 18 19  1  0
 19 20  2  0
 19 21  1  0
 21 22  2  0
 22 23  1  0
 23 24  1  0
 23 25  2  0
 25 26  1  0
 26 27  1  0
 26 28  2  0
  9  4  1  0
 17 12  1  0
 28 21  1  0
  1 29  1  0
  1 30  1  0
  1 31  1  0
  2 32  1  0
  3 33  1  0
  3 34  1  0
  3 35  1  0
  5 36  1  0
  6 37  1  0
  8 38  1  0
  9 39  1  0
 13 40  1  0
 13 41  1  0
 14 42  1  0
 14 43  1  0
 15 44  1  0
 16 45  1  0
 16 46  1  0
 17 47  1  0
 17 48  1  0
 18 49  1  0
 22 50  1  0
 25 51  1  0
 28 52  1  0
M  END
$$$$
[H]OC([H])([H])[C@@]1([H])O[C@@]([H])(n2c([H])nc3c(N([H])C([H])([H])c4c([H])c([H])c([H])c(Cl)c4[H])c([H])c([H])c([H])c32)[C@]([H])(O[H])[C@]1([H])O[H]
     RDKit          3D

 47 50  0  0  0  0  0  0  0  0999 V2000
   -4.4135   -3.2076    0.1825 O   0  0  0  0  0  0  0  0  0  0  0  0
   -4.9756   -2.0514   -0.3985 C   0  0  0  0  0  0  0  0  0  0  0  0
   -4.4818   -0.8834    0.4232 C   0  0  1  0  0  0  0  0  0  0  0  0
   -3.0905   -0.7960    0.4115 O   0  0  0  0  0  0  0  0  0  0  0  0
   -2.8939    0.4492    1.0093 C   0  0  2  0  0  0  0  0  0  0  0  0
   -3.7243    1.3430    0.0965 C   0  0  2  0  0  0  0  0  0  0  0  0
   -4.0871    2.5264    0.7230 O   0  0  0  0  0  0  0  0  0  0  0  0
   -4.9409    0.4395   -0.1379 C   0  0  2  0  0  0  0  0  0  0  0  0
   -5.9791    0.9637    0.6443 O   0  0  0  0  0  0  0  0  0  0  0  0
   -1.5250    0.8435    1.0773 N   0  0  0  0  0  0  0  0  0  0  0  0
   -0.9775    1.5333    2.0940 C   0  0  0  0  0  0  0  0  0  0  0  0
    0.3210    1.7255    1.8204 N   0  0  0  0  0  0  0  0  0  0  0  0
    0.6215    1.1609    0.6244 C   0  0  0  0  0  0  0  0  0  0  0  0
    1.8164    1.0810   -0.1049 C   0  0  0  0  0  0  0  0  0  0  0  0
    2.9672    1.6965    0.4557 N   0  0  0  0  0  0  0  0  0  0  0  0
    4.2515    1.6139   -0.1910 C   0  0  0  0  0  0  0  0  0  0  0  0
    4.7653    0.2221   -0.1889 C   0  0  0  0  0  0  0  0  0  0  0  0
    4.2468   -0.7460    0.6250 C   0  0  0  0  0  0  0  0  0  0  0  0
    4.7238   -2.0516    0.6288 C   0  0  0  0  0  0  0  0  0  0  0  0
    5.7589   -2.3494   -0.2317 C   0  0  0  0  0  0  0  0  0  0  0  0
    6.3176   -1.4191   -1.0700 C   0  0  0  0  0  0  0  0  0  0  0  0
    7.6323   -1.7943   -2.1640 Cl  0  0  0  0  0  0  0  0  0  0  0  0
    5.8121   -0.1440   -1.0369 C   0  0  0  0  0  0  0  0  0  0  0  0
    1.8344    0.4424   -1.3020 C   0  0  0  0  0  0  0  0  0  0  0  0
    0.6565   -0.1251   -1.7844 C   0  0  0  0  0  0  0  0  0  0  0  0
   -0.5046   -0.0328   -1.0483 C   0  0  0  0  0  0  0  0  0  0  0  0
   -0.5532    0.6108    0.1723 C   0  0  0  0  0  0  0  0  0  0  0  0
   -3.4401   -3.1718   -0.0790 H   0  0  0  0  0  0  0  0  0  0  0  0
   -6.0778   -2.1248   -0.3309 H   0  0  0  0  0  0  0  0  0  0  0  0
   -4.6085   -1.9562   -1.4212 H   0  0  0  0  0  0  0  0  0  0  0  0
   -4.7864   -0.9533    1.4811 H   0  0  0  0  0  0  0  0  0  0  0  0
   -3.3370    0.3840    2.0213 H   0  0  0  0  0  0  0  0  0  0  0  0
   -3.1633    1.5325   -0.8194 H   0  0  0  0  0  0  0  0  0  0  0  0
   -4.7427    2.3975    1.4308 H   0  0  0  0  0  0  0  0  0  0  0  0
   -5.1858    0.3882   -1.2017 H   0  0  0  0  0  0  0  0  0  0  0  0
   -6.8316    0.8683    0.1808 H   0  0  0  0  0  0  0  0  0  0  0  0
   -1.4960    1.8819    2.9943 H   0  0  0  0  0  0  0  0  0  0  0  0
    2.9032    2.2241    1.3548 H   0  0  0  0  0  0  0  0  0  0  0  0
    4.1558    1.9123   -1.2720 H   0  0  0  0  0  0  0  0  0  0  0  0
    4.9487    2.3084    0.3107 H   0  0  0  0  0  0  0  0  0  0  0  0
    3.4302   -0.5072    1.3044 H   0  0  0  0  0  0  0  0  0  0  0  0
    4.3149   -2.8095    1.2687 H   0  0  0  0  0  0  0  0  0  0  0  0
    6.1594   -3.3539   -0.2600 H   0  0  0  0  0  0  0  0  0  0  0  0
    6.1990    0.6570   -1.6711 H   0  0  0  0  0  0  0  0  0  0  0  0
    2.7577    0.3719   -1.8963 H   0  0  0  0  0  0  0  0  0  0  0  0
    0.6690   -0.6340   -2.7369 H   0  0  0  0  0  0  0  0  0  0  0  0
   -1.4468   -0.4665   -1.3966 H   0  0  0  0  0  0  0  0  0  0  0  0
  1  2  1  0
  2  3  1  0
  3  4  1  0
  4  5  1  0
  5  6  1  0
  6  7  1  0
  6  8  1  0
  8  9  1  0
  5 10  1  0
 10 11  1  0
 11 12  2  0
 12 13  1  0
 13 14  2  0
 14 15  1  0
 15 16  1  0
 16 17  1  0
 17 18  2  0
 18 19  1  0
 19 20  2  0
 20 21  1  0
 21 22  1  0
 21 23  2  0
 14 24  1  0
 24 25  2  0
 25 26  1  0
 26 27  2  0
  8  3  1  0
 27 10  1  0
 27 13  1  0
 23 17  1  0
  1 28  1  0
  2 29  1  0
  2 30  1  0
  3 31  1  1
  5 32  1  1
  6 33  1  6
  7 34  1  0
  8 35  1  6
  9 36  1  0
 11 37  1  0
 15 38  1  0
 16 39  1  0
 16 40  1  0
 18 41  1  0
 19 42  1  0
 20 43  1  0
 23 44  1  0
 24 45  1  0
 25 46  1  0
 26 47  1  0
M  END
$$$$
[H]C([H])=C([H])C(=O)N1C([H])([H])C([H])([H])C([H])([H])[C@@]([H])(n2nc(-c3c([H])c([H])c(Oc4c([H])c([H])c([H])c([H])c4[H])c([H])c3[H])c3c(N([H])[H])nc([H])nc32)C1([H])[H]
     RDKit          3D

 57 61  0  0  0  0  0  0  0  0999 V2000
    1.5630   -1.3930    2.7239 N   0  0  0  0  0  0  0  0  0  0  0  0
    0.1702   -1.6193    2.5726 C   0  0  0  0  0  0  0  0  0  0  0  0
   -0.5930   -2.0071    3.6025 N   0  0  0  0  0  0  0  0  0  0  0  0
   -1.9155   -2.1806    3.4515 C   0  0  0  0  0  0  0  0  0  0  0  0
   -2.5291   -1.9771    2.2805 N   0  0  0  0  0  0  0  0  0  0  0  0
   -1.8148   -1.5831    1.1948 C   0  0  0  0  0  0  0  0  0  0  0  0
   -2.1273   -1.2972   -0.0601 N   0  0  0  0  0  0  0  0  0  0  0  0
   -1.0498   -0.9517   -0.7108 N   0  0  0  0  0  0  0  0  0  0  0  0
    0.0200   -1.0010    0.1072 C   0  0  0  0  0  0  0  0  0  0  0  0
    1.3974   -0.6530   -0.2620 C   0  0  0  0  0  0  0  0  0  0  0  0
    1.6738    0.6273   -0.7489 C   0  0  0  0  0  0  0  0  0  0  0  0
    2.9370    0.9532   -1.1605 C   0  0  0  0  0  0  0  0  0  0  0  0
    3.9918    0.0665   -1.1238 C   0  0  0  0  0  0  0  0  0  0  0  0
    5.2666    0.4202   -1.5469 O   0  0  0  0  0  0  0  0  0  0  0  0
    6.2303    0.9622   -0.7307 C   0  0  0  0  0  0  0  0  0  0  0  0
    7.1369    0.1916   -0.0282 C   0  0  0  0  0  0  0  0  0  0  0  0
    8.0944    0.7650    0.7845 C   0  0  0  0  0  0  0  0  0  0  0  0
    8.1631    2.1440    0.9111 C   0  0  0  0  0  0  0  0  0  0  0  0
    7.2750    2.9161    0.2239 C   0  0  0  0  0  0  0  0  0  0  0  0
    6.3274    2.3357   -0.5811 C   0  0  0  0  0  0  0  0  0  0  0  0
    3.7076   -1.2003   -0.6399 C   0  0  0  0  0  0  0  0  0  0  0  0
    2.4458   -1.5381   -0.2252 C   0  0  0  0  0  0  0  0  0  0  0  0
   -0.4271   -1.3985    1.3371 C   0  0  0  0  0  0  0  0  0  0  0  0
   -3.4390   -1.3495   -0.6761 C   0  0  2  0  0  0  0  0  0  0  0  0
   -3.4236   -1.1362   -2.1473 C   0  0  0  0  0  0  0  0  0  0  0  0
   -3.8424    0.2532   -2.5565 C   0  0  0  0  0  0  0  0  0  0  0  0
   -3.8245    1.2279   -1.4431 C   0  0  0  0  0  0  0  0  0  0  0  0
   -4.7552    0.7416   -0.3902 N   0  0  0  0  0  0  0  0  0  0  0  0
   -4.5012   -0.5948    0.0738 C   0  0  0  0  0  0  0  0  0  0  0  0
   -5.7853    1.6059    0.0523 C   0  0  0  0  0  0  0  0  0  0  0  0
   -5.8273    2.7802   -0.5438 O   0  0  0  0  0  0  0  0  0  0  0  0
   -6.7919    1.4263    1.0375 C   0  0  0  0  0  0  0  0  0  0  0  0
   -7.0389    0.4252    1.8044 C   0  0  0  0  0  0  0  0  0  0  0  0
    1.9262   -0.4062    2.6762 H   0  0  0  0  0  0  0  0  0  0  0  0
    2.2641   -2.1435    2.8813 H   0  0  0  0  0  0  0  0  0  0  0  0
   -2.5045   -2.4994    4.3210 H   0  0  0  0  0  0  0  0  0  0  0  0
    0.8382    1.3188   -0.7744 H   0  0  0  0  0  0  0  0  0  0  0  0
    3.1365    1.9654   -1.5409 H   0  0  0  0  0  0  0  0  0  0  0  0
    7.1129   -0.8951   -0.1033 H   0  0  0  0  0  0  0  0  0  0  0  0
    8.8156    0.1827    1.3449 H   0  0  0  0  0  0  0  0  0  0  0  0
    8.9001    2.6377    1.5394 H   0  0  0  0  0  0  0  0  0  0  0  0
    7.3288    4.0023    0.3233 H   0  0  0  0  0  0  0  0  0  0  0  0
    5.6111    2.9321   -1.1367 H   0  0  0  0  0  0  0  0  0  0  0  0
    4.5427   -1.8942   -0.6135 H   0  0  0  0  0  0  0  0  0  0  0  0
    2.3016   -2.5493    0.1196 H   0  0  0  0  0  0  0  0  0  0  0  0
   -3.7339   -2.4468   -0.5451 H   0  0  0  0  0  0  0  0  0  0  0  0
   -3.9915   -1.9138   -2.6968 H   0  0  0  0  0  0  0  0  0  0  0  0
   -2.3553   -1.2496   -2.4904 H   0  0  0  0  0  0  0  0  0  0  0  0
   -3.2210    0.6399   -3.4011 H   0  0  0  0  0  0  0  0  0  0  0  0
   -4.8798    0.1880   -2.9434 H   0  0  0  0  0  0  0  0  0  0  0  0
   -4.2451    2.1944   -1.8594 H   0  0  0  0  0  0  0  0  0  0  0  0
   -2.8783    1.4166   -0.9446 H   0  0  0  0  0  0  0  0  0  0  0  0
   -5.4853   -1.1411   -0.0822 H   0  0  0  0  0  0  0  0  0  0  0  0
   -4.3111   -0.5352    1.1439 H   0  0  0  0  0  0  0  0  0  0  0  0
   -7.5033    2.2912    1.1893 H   0  0  0  0  0  0  0  0  0  0  0  0
   -7.8838    0.4369    2.5416 H   0  0  0  0  0  0  0  0  0  0  0  0
   -6.4993   -0.4934    1.8389 H   0  0  0  0  0  0  0  0  0  0  0  0
  1  2  1  0
  2  3  2  0
  3  4  1  0
  4  5  2  0
  5  6  1  0
  6  7  1  0
  7  8  1  0
  8  9  2  0
  9 10  1  0
 10 11  2  0
 11 12  1  0
 12 13  2  0
 13 14  1  0
 14 15  1  0
 15 16  2  0
 16 17  1  0
 17 18  2  0
 18 19  1  0
 19 20  2  0
 13 21  1  0
 21 22  2  0
  9 23  1  0
  7 24  1  0
 24 25  1  0
 25 26  1  0
 26 27  1  0
 27 28  1  0
 28 29  1  0
 28 30  1  0
 30 31  2  0
 30 32  1  0
 32 33  2  3
 23  2  1  0
 29 24  1  0
 23  6  2  0
 22 10  1  0
 20 15  1  0
  1 34  1  0
  1 35  1  0
  4 36  1  0
 11 37  1  0
 12 38  1  0
 16 39  1  0
 17 40  1  0
 18 41  1  0
 19 42  1  0
 20 43  1  0
 21 44  1  0
 22 45  1  0
 24 46  1  6
 25 47  1  0
 25 48  1  0
 26 49  1  0
 26 50  1  0
 27 51  1  0
 27 52  1  0
 29 53  1  0
 29 54  1  0
 32 55  1  0
 33 56  1  0
 33 57  1  0
M  END
$$$$
[H]c1c([H])c([H])c2c(c1[H])c1c3c(c4c5c([H])c([H])c([H])c([H])c5n5c4c1n2[C@@]1([H])O[C@@]5(C([H])([H])[H])[C@@]([H])(OC([H])([H])[H])[C@]([H])(N([H])C([H])([H])[H])C1([H])[H])C([H])([H])N([H])C3=O
     RDKit          3D

 61 68  0  0  0  0  0  0  0  0999 V2000
   -4.4907   -2.9355   -0.4320 C   0  0  0  0  0  0  0  0  0  0  0  0
   -3.8911   -1.7320    0.0351 N   0  0  0  0  0  0  0  0  0  0  0  0
   -2.9958   -1.1185   -0.8868 C   0  0  2  0  0  0  0  0  0  0  0  0
   -1.8197   -2.1218   -1.1215 C   0  0  0  0  0  0  0  0  0  0  0  0
   -0.7317   -1.3519   -0.7979 C   0  0  2  0  0  0  0  0  0  0  0  0
   -0.8055   -0.2668   -1.6591 O   0  0  0  0  0  0  0  0  0  0  0  0
   -1.3619    0.8164   -0.8932 C   0  0  1  0  0  0  0  0  0  0  0  0
   -1.7879    1.7607   -2.0470 C   0  0  0  0  0  0  0  0  0  0  0  0
   -2.5051    0.2050   -0.2399 C   0  0  1  0  0  0  0  0  0  0  0  0
   -3.6085    1.0596   -0.3804 O   0  0  0  0  0  0  0  0  0  0  0  0
   -4.2507    1.3823    0.7761 C   0  0  0  0  0  0  0  0  0  0  0  0
   -0.2191    1.3399   -0.1898 N   0  0  0  0  0  0  0  0  0  0  0  0
   -0.0987    2.6213    0.1798 C   0  0  0  0  0  0  0  0  0  0  0  0
   -0.9193    3.7376    0.1816 C   0  0  0  0  0  0  0  0  0  0  0  0
   -0.5480    4.9766    0.6407 C   0  0  0  0  0  0  0  0  0  0  0  0
    0.7040    5.1608    1.1364 C   0  0  0  0  0  0  0  0  0  0  0  0
    1.5742    4.0935    1.1662 C   0  0  0  0  0  0  0  0  0  0  0  0
    1.1784    2.8622    0.7005 C   0  0  0  0  0  0  0  0  0  0  0  0
    1.8493    1.6939    0.6497 C   0  0  0  0  0  0  0  0  0  0  0  0
    3.1209    1.2255    0.9585 C   0  0  0  0  0  0  0  0  0  0  0  0
    4.2463    1.9994    1.5387 C   0  0  0  0  0  0  0  0  0  0  0  0
    5.3325    1.0499    1.6702 N   0  0  0  0  0  0  0  0  0  0  0  0
    4.8991   -0.2402    1.1829 C   0  0  0  0  0  0  0  0  0  0  0  0
    5.6973   -1.1876    1.2077 O   0  0  0  0  0  0  0  0  0  0  0  0
    3.5267   -0.0929    0.7515 C   0  0  0  0  0  0  0  0  0  0  0  0
    2.6532   -1.0220    0.2166 C   0  0  0  0  0  0  0  0  0  0  0  0
    2.6638   -2.3554   -0.0698 C   0  0  0  0  0  0  0  0  0  0  0  0
    3.6124   -3.3174    0.0200 C   0  0  0  0  0  0  0  0  0  0  0  0
    3.2689   -4.6203   -0.3682 C   0  0  0  0  0  0  0  0  0  0  0  0
    2.0009   -4.9043   -0.8265 C   0  0  0  0  0  0  0  0  0  0  0  0
    1.0398   -3.8986   -0.9111 C   0  0  0  0  0  0  0  0  0  0  0  0
    1.3864   -2.6452   -0.5326 C   0  0  0  0  0  0  0  0  0  0  0  0
    0.6325   -1.5610   -0.5351 N   0  0  0  0  0  0  0  0  0  0  0  0
    1.4058   -0.5399   -0.0802 C   0  0  0  0  0  0  0  0  0  0  0  0
    1.0047    0.7885    0.1218 C   0  0  0  0  0  0  0  0  0  0  0  0
   -4.6404   -3.7018    0.3689 H   0  0  0  0  0  0  0  0  0  0  0  0
   -3.8252   -3.4029   -1.1856 H   0  0  0  0  0  0  0  0  0  0  0  0
   -5.4523   -2.7353   -0.9794 H   0  0  0  0  0  0  0  0  0  0  0  0
   -3.6141   -1.7130    1.0209 H   0  0  0  0  0  0  0  0  0  0  0  0
   -3.4795   -0.9530   -1.8386 H   0  0  0  0  0  0  0  0  0  0  0  0
   -1.9596   -3.0267   -0.4774 H   0  0  0  0  0  0  0  0  0  0  0  0
   -1.9004   -2.5045   -2.1645 H   0  0  0  0  0  0  0  0  0  0  0  0
   -1.0283   -1.0619    0.3070 H   0  0  0  0  0  0  0  0  0  0  0  0
   -2.7370    2.2474   -1.8709 H   0  0  0  0  0  0  0  0  0  0  0  0
   -0.9931    2.5146   -2.1245 H   0  0  0  0  0  0  0  0  0  0  0  0
   -1.7637    1.2233   -3.0351 H   0  0  0  0  0  0  0  0  0  0  0  0
   -2.4851    0.0539    0.8568 H   0  0  0  0  0  0  0  0  0  0  0  0
   -5.0874    2.0616    0.5056 H   0  0  0  0  0  0  0  0  0  0  0  0
   -4.7486    0.5070    1.2707 H   0  0  0  0  0  0  0  0  0  0  0  0
   -3.6689    1.8851    1.5553 H   0  0  0  0  0  0  0  0  0  0  0  0
   -1.9159    3.6259   -0.1910 H   0  0  0  0  0  0  0  0  0  0  0  0
   -1.2841    5.7896    0.5927 H   0  0  0  0  0  0  0  0  0  0  0  0
    1.0280    6.1248    1.5062 H   0  0  0  0  0  0  0  0  0  0  0  0
    2.5897    4.2185    1.5621 H   0  0  0  0  0  0  0  0  0  0  0  0
    4.5585    2.8365    0.8697 H   0  0  0  0  0  0  0  0  0  0  0  0
    3.9729    2.3771    2.5484 H   0  0  0  0  0  0  0  0  0  0  0  0
    6.2604    1.3169    2.0637 H   0  0  0  0  0  0  0  0  0  0  0  0
    4.5921   -3.1088    0.3688 H   0  0  0  0  0  0  0  0  0  0  0  0
    4.0134   -5.4072   -0.3045 H   0  0  0  0  0  0  0  0  0  0  0  0
    1.7618   -5.9139   -1.1186 H   0  0  0  0  0  0  0  0  0  0  0  0
    0.0435   -4.1151   -1.2698 H   0  0  0  0  0  0  0  0  0  0  0  0
  1  2  1  0
  2  3  1  0
  3  4  1  0
  4  5  1  0
  5  6  1  0
  6  7  1  0
  7  8  1  6
  7  9  1  0
  9 10  1  0
 10 11  1  0
  7 12  1  0
 12 13  1  0
 13 14  2  0
 14 15  1  0
 15 16  2  0
 16 17  1  0
 17 18  2  0
 18 19  1  0
 19 20  2  0
 20 21  1  0
 21 22  1  0
 22 23  1  0
 23 24  2  0
 23 25  1  0
 25 26  2  0
 26 27  1  0
 27 28  2  0
 28 29  1  0
 29 30  2  0
 30 31  1  0
 31 32  2  0
 32 33  1  0
 33 34  1  0
 34 35  2  0
  9  3  1  0
 35 12  1  0
 33  5  1  0
 18 13  1  0
 35 19  1  0
 25 20  1  0
 34 26  1  0
 32 27  1  0
  1 36  1  0
  1 37  1  0
  1 38  1  0
  2 39  1  0
  3 40  1  6
  4 41  1  0
  4 42  1  0
  5 43  1  1
  8 44  1  0
  8 45  1  0
  8 46  1  0
  9 47  1  1
 11 48  1  0
 11 49  1  0
 11 50  1  0
 14 51  1  0
 15 52  1  0
 16 53  1  0
 17 54  1  0
 21 55  1  0
 21 56  1  0
 22 57  1  0
 28 58  1  0
 29 59  1  0
 30 60  1  0
 31 61  1  0
M  END
$$$$
[H]C([H])=C([H])C(=O)N1C([H])([H])C([H])([H])C([H])([H])[C@@]([H])(n2c([H])c(-c3c([H])c([H])c([H])c(N([H])C(=O)N([H])c4c([H])c([H])c([H])c(C(F)(F)F)c4[H])c3[H])c3c(N([H])[H])nc([H])nc32)C1([H])[H]
     RDKit          3D

 66 70  0  0  0  0  0  0  0  0999 V2000
    0.0358   -4.0677    0.9894 N   0  0  0  0  0  0  0  0  0  0  0  0
   -1.2973   -3.6320    1.1675 C   0  0  0  0  0  0  0  0  0  0  0  0
   -2.1718   -4.2927    1.9366 N   0  0  0  0  0  0  0  0  0  0  0  0
   -3.4448   -3.9083    2.0870 C   0  0  0  0  0  0  0  0  0  0  0  0
   -3.8778   -2.8200    1.4465 N   0  0  0  0  0  0  0  0  0  0  0  0
   -3.0555   -2.1059    0.6573 C   0  0  0  0  0  0  0  0  0  0  0  0
   -3.2626   -0.9989   -0.0877 N   0  0  0  0  0  0  0  0  0  0  0  0
   -2.1215   -0.6880   -0.6986 C   0  0  0  0  0  0  0  0  0  0  0  0
   -1.1146   -1.6071   -0.3607 C   0  0  0  0  0  0  0  0  0  0  0  0
    0.2548   -1.5622   -0.8176 C   0  0  0  0  0  0  0  0  0  0  0  0
    0.4597   -1.5808   -2.2090 C   0  0  0  0  0  0  0  0  0  0  0  0
    1.7154   -1.4807   -2.7314 C   0  0  0  0  0  0  0  0  0  0  0  0
    2.8576   -1.3563   -1.9283 C   0  0  0  0  0  0  0  0  0  0  0  0
    2.6634   -1.3389   -0.5708 C   0  0  0  0  0  0  0  0  0  0  0  0
    3.7337   -1.1913    0.3219 N   0  0  0  0  0  0  0  0  0  0  0  0
    4.8855   -0.4026    0.0863 C   0  0  0  0  0  0  0  0  0  0  0  0
    4.9503    0.2205   -0.9869 O   0  0  0  0  0  0  0  0  0  0  0  0
    5.9067   -0.3322    1.0369 N   0  0  0  0  0  0  0  0  0  0  0  0
    7.0568    0.4463    0.8895 C   0  0  0  0  0  0  0  0  0  0  0  0
    8.2358    0.0268    1.5410 C   0  0  0  0  0  0  0  0  0  0  0  0
    9.3710    0.7954    1.4481 C   0  0  0  0  0  0  0  0  0  0  0  0
    9.3626    1.9753    0.7194 C   0  0  0  0  0  0  0  0  0  0  0  0
    8.2499    2.4071    0.0833 C   0  0  0  0  0  0  0  0  0  0  0  0
    7.0916    1.6127    0.1855 C   0  0  0  0  0  0  0  0  0  0  0  0
    8.1582    3.6505   -0.7130 C   0  0  0  0  0  0  0  0  0  0  0  0
    8.4903    4.6969    0.1089 F   0  0  0  0  0  0  0  0  0  0  0  0
    6.8570    3.8856   -1.1276 F   0  0  0  0  0  0  0  0  0  0  0  0
    8.9322    3.5775   -1.8289 F   0  0  0  0  0  0  0  0  0  0  0  0
    1.3793   -1.4406   -0.0626 C   0  0  0  0  0  0  0  0  0  0  0  0
   -1.7136   -2.4893    0.4857 C   0  0  0  0  0  0  0  0  0  0  0  0
   -4.5247   -0.2874   -0.2069 C   0  0  2  0  0  0  0  0  0  0  0  0
   -5.1504   -0.5569   -1.5674 C   0  0  0  0  0  0  0  0  0  0  0  0
   -6.4781    0.1112   -1.6341 C   0  0  0  0  0  0  0  0  0  0  0  0
   -6.7806    0.8922   -0.3779 C   0  0  0  0  0  0  0  0  0  0  0  0
   -5.7317    1.7499    0.0866 N   0  0  0  0  0  0  0  0  0  0  0  0
   -4.3549    1.2123   -0.1446 C   0  0  0  0  0  0  0  0  0  0  0  0
   -5.8794    2.9805    0.7386 C   0  0  0  0  0  0  0  0  0  0  0  0
   -4.7044    3.5533    0.9619 O   0  0  0  0  0  0  0  0  0  0  0  0
   -6.9917    3.7205    1.1978 C   0  0  0  0  0  0  0  0  0  0  0  0
   -8.2774    3.4875    1.1970 C   0  0  0  0  0  0  0  0  0  0  0  0
    0.6821   -3.9634    1.7886 H   0  0  0  0  0  0  0  0  0  0  0  0
    0.4009   -4.4802    0.1187 H   0  0  0  0  0  0  0  0  0  0  0  0
   -4.1138   -4.5029    2.7340 H   0  0  0  0  0  0  0  0  0  0  0  0
   -1.9343    0.1350   -1.3675 H   0  0  0  0  0  0  0  0  0  0  0  0
   -0.4143   -1.6802   -2.8540 H   0  0  0  0  0  0  0  0  0  0  0  0
    1.8932   -1.4938   -3.8089 H   0  0  0  0  0  0  0  0  0  0  0  0
    3.8264   -1.2889   -2.4104 H   0  0  0  0  0  0  0  0  0  0  0  0
    3.6692   -1.7069    1.2282 H   0  0  0  0  0  0  0  0  0  0  0  0
    5.7983   -0.9068    1.9129 H   0  0  0  0  0  0  0  0  0  0  0  0
    8.2674   -0.8819    2.1072 H   0  0  0  0  0  0  0  0  0  0  0  0
   10.2750    0.4712    1.9481 H   0  0  0  0  0  0  0  0  0  0  0  0
   10.2696    2.5387    0.6750 H   0  0  0  0  0  0  0  0  0  0  0  0
    6.2193    1.9820   -0.2991 H   0  0  0  0  0  0  0  0  0  0  0  0
    1.2547   -1.4026    1.0304 H   0  0  0  0  0  0  0  0  0  0  0  0
   -5.2354   -0.5951    0.5535 H   0  0  0  0  0  0  0  0  0  0  0  0
   -5.1403   -1.6311   -1.8352 H   0  0  0  0  0  0  0  0  0  0  0  0
   -4.4897   -0.0095   -2.3135 H   0  0  0  0  0  0  0  0  0  0  0  0
   -7.2762   -0.7010   -1.6927 H   0  0  0  0  0  0  0  0  0  0  0  0
   -6.6000    0.7737   -2.5444 H   0  0  0  0  0  0  0  0  0  0  0  0
   -7.6973    1.5128   -0.6294 H   0  0  0  0  0  0  0  0  0  0  0  0
   -7.1291    0.2102    0.4506 H   0  0  0  0  0  0  0  0  0  0  0  0
   -3.8191    1.4888    0.7997 H   0  0  0  0  0  0  0  0  0  0  0  0
   -3.9357    1.6639   -1.0473 H   0  0  0  0  0  0  0  0  0  0  0  0
   -6.7395    4.7125    1.6632 H   0  0  0  0  0  0  0  0  0  0  0  0
   -8.9612    4.2632    1.6318 H   0  0  0  0  0  0  0  0  0  0  0  0
   -8.7852    2.6299    0.8417 H   0  0  0  0  0  0  0  0  0  0  0  0
  1  2  1  0
  2  3  2  0
  3  4  1  0
  4  5  2  0
  5  6  1  0
  6  7  1  0
  7  8  1  0
  8  9  2  0
  9 10  1  0
 10 11  2  0
 11 12  1  0
 12 13  2  0
 13 14  1  0
 14 15  1  0
 15 16  1  0
 16 17  2  0
 16 18  1  0
 18 19  1  0
 19 20  2  0
 20 21  1  0
 21 22  2  0
 22 23  1  0
 23 24  2  0
 23 25  1  0
 25 26  1  0
 25 27  1  0
 25 28  1  0
 14 29  2  0
  9 30  1  0
  7 31  1  0
 31 32  1  0
 32 33  1  0
 33 34  1  0
 34 35  1  0
 35 36  1  0
 35 37  1  0
 37 38  2  0
 37 39  1  0
 39 40  2  3
 30  2  1  0
 36 31  1  0
 30  6  2  0
 29 10  1  0
 24 19  1  0
  1 41  1  0
  1 42  1  0
  4 43  1  0
  8 44  1  0
 11 45  1  0
 12 46  1  0
 13 47  1  0
 15 48  1  0
 18 49  1  0
 20 50  1  0
 21 51  1  0
 22 52  1  0
 24 53  1  0
 29 54  1  0
 31 55  1  1
 32 56  1  0
 32 57  1  0
 33 58  1  0
 33 59  1  0
 34 60  1  0
 34 61  1  0
 36 62  1  0
 36 63  1  0
 39 64  1  0
 40 65  1  0
 40 66  1  0
M  END
$$$$
[H]c1c([H])c(C(=O)N2C([H])([H])C([H])([H])N(C(=O)[C@]3([H])C([H])([H])N(C(F)(F)F)C([H])([H])[C@@]3([H])c3c([H])c([H])c(Cl)c(Cl)c3[H])[C@]([H])(C([H])([H])[H])C2([H])[H])c([H])c(C(F)(F)F)c1[H]
     RDKit          3D

 61 64  0  0  0  0  0  0  0  0999 V2000
    0.7322    0.6089    1.8905 C   0  0  0  0  0  0  0  0  0  0  0  0
    0.1916   -0.5447    1.0524 C   0  0  2  0  0  0  0  0  0  0  0  0
    1.3155   -1.4875    0.7679 C   0  0  0  0  0  0  0  0  0  0  0  0
    2.4838   -0.7145    0.2373 N   0  0  0  0  0  0  0  0  0  0  0  0
    2.1574    0.3878   -0.5784 C   0  0  0  0  0  0  0  0  0  0  0  0
    0.7567    0.4722   -1.1088 C   0  0  0  0  0  0  0  0  0  0  0  0
   -0.2709   -0.0284   -0.2226 N   0  0  0  0  0  0  0  0  0  0  0  0
   -1.5936    0.0037   -0.6743 C   0  0  0  0  0  0  0  0  0  0  0  0
   -1.8664    0.5296   -1.7995 O   0  0  0  0  0  0  0  0  0  0  0  0
   -2.7102   -0.5436    0.0814 C   0  0  2  0  0  0  0  0  0  0  0  0
   -2.7005   -2.0735    0.0013 C   0  0  0  0  0  0  0  0  0  0  0  0
   -3.9556   -2.3553    0.6770 N   0  0  0  0  0  0  0  0  0  0  0  0
   -4.8825   -1.3204    0.3625 C   0  0  0  0  0  0  0  0  0  0  0  0
   -4.0767   -0.2687   -0.4506 C   0  0  1  0  0  0  0  0  0  0  0  0
   -4.6078    1.0716   -0.2152 C   0  0  0  0  0  0  0  0  0  0  0  0
   -5.5975    1.5276   -1.0512 C   0  0  0  0  0  0  0  0  0  0  0  0
   -6.1622    2.7796   -0.9347 C   0  0  0  0  0  0  0  0  0  0  0  0
   -5.7190    3.6204    0.0683 C   0  0  0  0  0  0  0  0  0  0  0  0
   -6.4042    5.2357    0.2727 Cl  0  0  0  0  0  0  0  0  0  0  0  0
   -4.7295    3.1835    0.9167 C   0  0  0  0  0  0  0  0  0  0  0  0
   -4.1560    4.2506    2.1867 Cl  0  0  0  0  0  0  0  0  0  0  0  0
   -4.1783    1.9208    0.7766 C   0  0  0  0  0  0  0  0  0  0  0  0
   -4.4158   -3.6894    0.4636 C   0  0  0  0  0  0  0  0  0  0  0  0
   -3.4871   -4.5927    0.9473 F   0  0  0  0  0  0  0  0  0  0  0  0
   -5.5745   -3.8737    1.1825 F   0  0  0  0  0  0  0  0  0  0  0  0
   -4.6565   -3.9847   -0.8679 F   0  0  0  0  0  0  0  0  0  0  0  0
    3.7740   -1.1565    0.5690 C   0  0  0  0  0  0  0  0  0  0  0  0
    3.7351   -2.2442    1.3067 O   0  0  0  0  0  0  0  0  0  0  0  0
    5.0822   -0.6915    0.2817 C   0  0  0  0  0  0  0  0  0  0  0  0
    6.1557   -1.4909    0.6777 C   0  0  0  0  0  0  0  0  0  0  0  0
    7.4484   -1.0988    0.4511 C   0  0  0  0  0  0  0  0  0  0  0  0
    7.7405    0.0810   -0.1673 C   0  0  0  0  0  0  0  0  0  0  0  0
    6.6891    0.8676   -0.5569 C   0  0  0  0  0  0  0  0  0  0  0  0
    5.3579    0.4885   -0.3362 C   0  0  0  0  0  0  0  0  0  0  0  0
    6.9418    2.1713   -1.2338 C   0  0  0  0  0  0  0  0  0  0  0  0
    8.0502    2.0341   -2.0551 F   0  0  0  0  0  0  0  0  0  0  0  0
    7.2192    3.0961   -0.2409 F   0  0  0  0  0  0  0  0  0  0  0  0
    5.8405    2.4967   -1.9814 F   0  0  0  0  0  0  0  0  0  0  0  0
    1.8146    0.5004    2.0552 H   0  0  0  0  0  0  0  0  0  0  0  0
    0.2581    0.6119    2.9218 H   0  0  0  0  0  0  0  0  0  0  0  0
    0.5292    1.5459    1.3763 H   0  0  0  0  0  0  0  0  0  0  0  0
   -0.5721   -1.0396    1.6565 H   0  0  0  0  0  0  0  0  0  0  0  0
    1.6350   -2.0241    1.6858 H   0  0  0  0  0  0  0  0  0  0  0  0
    1.0695   -2.2226   -0.0139 H   0  0  0  0  0  0  0  0  0  0  0  0
    2.7934    0.3007   -1.5173 H   0  0  0  0  0  0  0  0  0  0  0  0
    2.4190    1.3535   -0.0801 H   0  0  0  0  0  0  0  0  0  0  0  0
    0.6678   -0.0796   -2.0903 H   0  0  0  0  0  0  0  0  0  0  0  0
    0.5193    1.5448   -1.3121 H   0  0  0  0  0  0  0  0  0  0  0  0
   -2.6686   -0.3252    1.1702 H   0  0  0  0  0  0  0  0  0  0  0  0
   -1.8447   -2.5369    0.4549 H   0  0  0  0  0  0  0  0  0  0  0  0
   -2.7583   -2.3127   -1.0894 H   0  0  0  0  0  0  0  0  0  0  0  0
   -5.1544   -0.8132    1.3093 H   0  0  0  0  0  0  0  0  0  0  0  0
   -5.7795   -1.6394   -0.1874 H   0  0  0  0  0  0  0  0  0  0  0  0
   -4.1766   -0.6035   -1.5060 H   0  0  0  0  0  0  0  0  0  0  0  0
   -6.0126    0.9252   -1.8741 H   0  0  0  0  0  0  0  0  0  0  0  0
   -6.9392    3.1411   -1.5923 H   0  0  0  0  0  0  0  0  0  0  0  0
   -3.3856    1.5767    1.4563 H   0  0  0  0  0  0  0  0  0  0  0  0
    6.0056   -2.4557    1.1786 H   0  0  0  0  0  0  0  0  0  0  0  0
    8.2898   -1.7252    0.7611 H   0  0  0  0  0  0  0  0  0  0  0  0
    8.7416    0.4172   -0.3583 H   0  0  0  0  0  0  0  0  0  0  0  0
    4.6214    1.1918   -0.6684 H   0  0  0  0  0  0  0  0  0  0  0  0
  1  2  1  0
  2  3  1  0
  3  4  1  0
  4  5  1  0
  5  6  1  0
  6  7  1  0
  7  8  1  0
  8  9  2  0
  8 10  1  0
 10 11  1  0
 11 12  1  0
 12 13  1  0
 13 14  1  0
 14 15  1  0
 15 16  2  0
 16 17  1  0
 17 18  2  0
 18 19  1  0
 18 20  1  0
 20 21  1  0
 20 22  2  0
 12 23  1  0
 23 24  1  0
 23 25  1  0
 23 26  1  0
  4 27  1  0
 27 28  2  0
 27 29  1  0
 29 30  2  0
 30 31  1  0
 31 32  2  0
 32 33  1  0
 33 34  2  0
 33 35  1  0
 35 36  1  0
 35 37  1  0
 35 38  1  0
  7  2  1  0
 14 10  1  0
 22 15  1  0
 34 29  1  0
  1 39  1  0
  1 40  1  0
  1 41  1  0
  2 42  1  1
  3 43  1  0
  3 44  1  0
  5 45  1  0
  5 46  1  0
  6 47  1  0
  6 48  1  0
 10 49  1  1
 11 50  1  0
 11 51  1  0
 13 52  1  0
 13 53  1  0
 14 54  1  6
 16 55  1  0
 17 56  1  0
 22 57  1  0
 30 58  1  0
 31 59  1  0
 32 60  1  0
 34 61  1  0
M  END
$$$$
[H]OC(=O)[C@@]([H])(N([H])C(=O)[C@@]([H])(N([H])C(=O)[C@@]([H])(N([H])C(=O)[C@@]([H])(N([H])C(=O)OC([H])([H])c1c([H])c([H])c([H])c([H])c1[H])C([H])([H])c1c([H])c([H])c([H])c([H])c1[H])C([H])([H])C([H])(C([H])([H])[H])C([H])([H])[H])C([H])([H])C([H])(C([H])([H])[H])C([H])([H])[H])C([H])([H])c1c([H])c([H])c([H])c([H])c1[H]
     RDKit          3D

 97 99  0  0  0  0  0  0  0  0999 V2000
   -1.9063   -2.3832    3.5287 C   0  0  0  0  0  0  0  0  0  0  0  0
   -1.5944   -2.0246    2.0562 C   0  0  0  0  0  0  0  0  0  0  0  0
   -0.6771   -3.1110    1.5858 C   0  0  0  0  0  0  0  0  0  0  0  0
   -1.0750   -0.6383    2.0691 C   0  0  0  0  0  0  0  0  0  0  0  0
   -0.7386   -0.0113    0.7684 C   0  0  2  0  0  0  0  0  0  0  0  0
   -1.9679   -0.0468   -0.0264 N   0  0  0  0  0  0  0  0  0  0  0  0
   -2.6390    1.1016   -0.4861 C   0  0  0  0  0  0  0  0  0  0  0  0
   -2.1116    2.2605   -0.2135 O   0  0  0  0  0  0  0  0  0  0  0  0
   -3.8878    1.0391   -1.2315 C   0  0  2  0  0  0  0  0  0  0  0  0
   -3.9390    0.4409   -2.5710 C   0  0  0  0  0  0  0  0  0  0  0  0
   -3.5623   -0.9591   -2.7315 C   0  0  0  0  0  0  0  0  0  0  0  0
   -4.4329   -1.9783   -2.3180 C   0  0  0  0  0  0  0  0  0  0  0  0
   -4.1131   -3.2998   -2.4848 C   0  0  0  0  0  0  0  0  0  0  0  0
   -2.9289   -3.6945   -3.0638 C   0  0  0  0  0  0  0  0  0  0  0  0
   -2.0537   -2.7107   -3.4816 C   0  0  0  0  0  0  0  0  0  0  0  0
   -2.3936   -1.3731   -3.3051 C   0  0  0  0  0  0  0  0  0  0  0  0
   -4.4834    2.4164   -1.2781 N   0  0  0  0  0  0  0  0  0  0  0  0
   -5.4935    2.6791   -0.3217 C   0  0  0  0  0  0  0  0  0  0  0  0
   -5.7937    1.7358    0.4822 O   0  0  0  0  0  0  0  0  0  0  0  0
   -6.1806    3.8420   -0.1727 O   0  0  0  0  0  0  0  0  0  0  0  0
   -7.1877    4.0835    0.7996 C   0  0  0  0  0  0  0  0  0  0  0  0
   -8.2804    3.1118    0.5854 C   0  0  0  0  0  0  0  0  0  0  0  0
   -8.6053    2.1225    1.4863 C   0  0  0  0  0  0  0  0  0  0  0  0
   -9.6275    1.2349    1.2433 C   0  0  0  0  0  0  0  0  0  0  0  0
  -10.3567    1.3299    0.0677 C   0  0  0  0  0  0  0  0  0  0  0  0
  -10.0614    2.2951   -0.8403 C   0  0  0  0  0  0  0  0  0  0  0  0
   -9.0158    3.1928   -0.5838 C   0  0  0  0  0  0  0  0  0  0  0  0
    0.4658   -0.4865    0.0571 C   0  0  0  0  0  0  0  0  0  0  0  0
    0.1217   -1.1039   -1.0576 O   0  0  0  0  0  0  0  0  0  0  0  0
    1.6974   -0.3405    0.4188 N   0  0  0  0  0  0  0  0  0  0  0  0
    3.0983   -0.1778    0.8242 C   0  0  1  0  0  0  0  0  0  0  0  0
    3.6627   -1.3661    1.4687 C   0  0  0  0  0  0  0  0  0  0  0  0
    3.6849   -2.6625    0.7426 C   0  0  0  0  0  0  0  0  0  0  0  0
    4.4608   -2.7551   -0.5175 C   0  0  0  0  0  0  0  0  0  0  0  0
    4.3223   -3.6774    1.7171 C   0  0  0  0  0  0  0  0  0  0  0  0
    3.8635    0.3605   -0.3036 C   0  0  0  0  0  0  0  0  0  0  0  0
    3.1574    0.5871   -1.3684 O   0  0  0  0  0  0  0  0  0  0  0  0
    5.2380    0.6583   -0.3667 N   0  0  0  0  0  0  0  0  0  0  0  0
    5.7545    1.2039   -1.6278 C   0  0  1  0  0  0  0  0  0  0  0  0
    6.3495    2.5690   -1.2862 C   0  0  0  0  0  0  0  0  0  0  0  0
    7.4295    2.4666   -0.3085 C   0  0  0  0  0  0  0  0  0  0  0  0
    8.7284    2.2499   -0.7547 C   0  0  0  0  0  0  0  0  0  0  0  0
    9.7770    2.1359    0.1400 C   0  0  0  0  0  0  0  0  0  0  0  0
    9.5705    2.2341    1.4941 C   0  0  0  0  0  0  0  0  0  0  0  0
    8.3022    2.4485    1.9526 C   0  0  0  0  0  0  0  0  0  0  0  0
    7.2388    2.5640    1.0514 C   0  0  0  0  0  0  0  0  0  0  0  0
    6.7638    0.3205   -2.2136 C   0  0  0  0  0  0  0  0  0  0  0  0
    7.1068    0.5023   -3.5665 O   0  0  0  0  0  0  0  0  0  0  0  0
    7.3697   -0.6113   -1.6120 O   0  0  0  0  0  0  0  0  0  0  0  0
   -1.7791   -3.4684    3.7023 H   0  0  0  0  0  0  0  0  0  0  0  0
   -2.9357   -2.0295    3.7806 H   0  0  0  0  0  0  0  0  0  0  0  0
   -1.1618   -1.8477    4.1409 H   0  0  0  0  0  0  0  0  0  0  0  0
   -2.6083   -2.0960    1.5583 H   0  0  0  0  0  0  0  0  0  0  0  0
   -1.2073   -3.7303    0.7853 H   0  0  0  0  0  0  0  0  0  0  0  0
   -0.5496   -3.8538    2.4309 H   0  0  0  0  0  0  0  0  0  0  0  0
    0.2808   -2.8237    1.1801 H   0  0  0  0  0  0  0  0  0  0  0  0
   -0.2831   -0.5765    2.8422 H   0  0  0  0  0  0  0  0  0  0  0  0
   -1.9168   -0.0013    2.5101 H   0  0  0  0  0  0  0  0  0  0  0  0
   -0.5638    1.0861    0.9722 H   0  0  0  0  0  0  0  0  0  0  0  0
   -2.3498   -0.9767   -0.2409 H   0  0  0  0  0  0  0  0  0  0  0  0
   -4.5883    0.4357   -0.5565 H   0  0  0  0  0  0  0  0  0  0  0  0
   -4.9479    0.6599   -3.0366 H   0  0  0  0  0  0  0  0  0  0  0  0
   -3.2471    1.0901   -3.2295 H   0  0  0  0  0  0  0  0  0  0  0  0
   -5.3853   -1.7041   -1.8571 H   0  0  0  0  0  0  0  0  0  0  0  0
   -4.7845   -4.0777   -2.1601 H   0  0  0  0  0  0  0  0  0  0  0  0
   -2.6737   -4.7476   -3.1885 H   0  0  0  0  0  0  0  0  0  0  0  0
   -1.1184   -3.0090   -3.9411 H   0  0  0  0  0  0  0  0  0  0  0  0
   -1.6582   -0.6468   -3.6655 H   0  0  0  0  0  0  0  0  0  0  0  0
   -4.1217    3.0562   -1.9843 H   0  0  0  0  0  0  0  0  0  0  0  0
   -6.8070    3.9154    1.8350 H   0  0  0  0  0  0  0  0  0  0  0  0
   -7.4993    5.1350    0.7777 H   0  0  0  0  0  0  0  0  0  0  0  0
   -8.0694    2.0102    2.4232 H   0  0  0  0  0  0  0  0  0  0  0  0
   -9.9126    0.4362    1.9304 H   0  0  0  0  0  0  0  0  0  0  0  0
  -11.1628    0.6508   -0.1454 H   0  0  0  0  0  0  0  0  0  0  0  0
  -10.5836    2.4299   -1.7625 H   0  0  0  0  0  0  0  0  0  0  0  0
   -8.7981    3.9464   -1.3281 H   0  0  0  0  0  0  0  0  0  0  0  0
    2.2059   -1.1423   -0.5815 H   0  0  0  0  0  0  0  0  0  0  0  0
    3.1254    0.6940    1.5786 H   0  0  0  0  0  0  0  0  0  0  0  0
    3.1232   -1.5588    2.4596 H   0  0  0  0  0  0  0  0  0  0  0  0
    4.7264   -1.1969    1.8247 H   0  0  0  0  0  0  0  0  0  0  0  0
    2.6342   -3.0726    0.6153 H   0  0  0  0  0  0  0  0  0  0  0  0
    5.4877   -2.3216   -0.4336 H   0  0  0  0  0  0  0  0  0  0  0  0
    4.6887   -3.8540   -0.7669 H   0  0  0  0  0  0  0  0  0  0  0  0
    3.8974   -2.4122   -1.3937 H   0  0  0  0  0  0  0  0  0  0  0  0
    3.5735   -4.1456    2.3557 H   0  0  0  0  0  0  0  0  0  0  0  0
    5.1195   -3.1423    2.3143 H   0  0  0  0  0  0  0  0  0  0  0  0
    4.8716   -4.4271    1.1143 H   0  0  0  0  0  0  0  0  0  0  0  0
    5.8127    0.4715    0.4599 H   0  0  0  0  0  0  0  0  0  0  0  0
    4.9081    1.2929   -2.3209 H   0  0  0  0  0  0  0  0  0  0  0  0
    5.5385    3.2363   -0.9184 H   0  0  0  0  0  0  0  0  0  0  0  0
    6.6529    3.0140   -2.2627 H   0  0  0  0  0  0  0  0  0  0  0  0
    8.9121    2.1772   -1.8108 H   0  0  0  0  0  0  0  0  0  0  0  0
   10.7876    1.9668   -0.2120 H   0  0  0  0  0  0  0  0  0  0  0  0
   10.4152    2.1475    2.1841 H   0  0  0  0  0  0  0  0  0  0  0  0
    8.0999    2.5174    3.0023 H   0  0  0  0  0  0  0  0  0  0  0  0
    6.2390    2.7280    1.4051 H   0  0  0  0  0  0  0  0  0  0  0  0
    6.5560   -0.0096   -4.2780 H   0  0  0  0  0  0  0  0  0  0  0  0
  1  2  1  0
  2  3  1  0
  2  4  1  0
  4  5  1  0
  5  6  1  0
  6  7  1  0
  7  8  2  0
  7  9  1  0
  9 10  1  0
 10 11  1  0
 11 12  2  0
 12 13  1  0
 13 14  2  0
 14 15  1  0
 15 16  2  0
  9 17  1  0
 17 18  1  0
 18 19  2  0
 18 20  1  0
 20 21  1  0
 21 22  1  0
 22 23  2  0
 23 24  1  0
 24 25  2  0
 25 26  1  0
 26 27  2  0
  5 28  1  0
 28 29  2  0
 28 30  1  0
 30 31  1  0
 31 32  1  0
 32 33  1  0
 33 34  1  0
 33 35  1  0
 31 36  1  0
 36 37  2  0
 36 38  1  0
 38 39  1  0
 39 40  1  0
 40 41  1  0
 41 42  2  0
 42 43  1  0
 43 44  2  0
 44 45  1  0
 45 46  2  0
 39 47  1  0
 47 48  1  0
 47 49  2  0
 16 11  1  0
 27 22  1  0
 46 41  1  0
  1 50  1  0
  1 51  1  0
  1 52  1  0
  2 53  1  0
  3 54  1  0
  3 55  1  0
  3 56  1  0
  4 57  1  0
  4 58  1  0
  5 59  1  1
  6 60  1  0
  9 61  1  1
 10 62  1  0
 10 63  1  0
 12 64  1  0
 13 65  1  0
 14 66  1  0
 15 67  1  0
 16 68  1  0
 17 69  1  0
 21 70  1  0
 21 71  1  0
 23 72  1  0
 24 73  1  0
 25 74  1  0
 26 75  1  0
 27 76  1  0
 30 77  1  0
 31 78  1  1
 32 79  1  0
 32 80  1  0
 33 81  1  0
 34 82  1  0
 34 83  1  0
 34 84  1  0
 35 85  1  0
 35 86  1  0
 35 87  1  0
 38 88  1  0
 39 89  1  6
 40 90  1  0
 40 91  1  0
 42 92  1  0
 43 93  1  0
 44 94  1  0
 45 95  1  0
 46 96  1  0
 48 97  1  0
M  END
$$$$
[H]c1c([H])c(C#N)c([H])c(N([H])C(=O)c2c([H])c([H])c([H])c(C(F)(F)F)c2[H])c1[H]
     RDKit          3D

 30 31  0  0  0  0  0  0  0  0999 V2000
   -4.7820    2.3221    0.7979 F   0  0  0  0  0  0  0  0  0  0  0  0
   -4.2639    1.8941   -0.4182 C   0  0  0  0  0  0  0  0  0  0  0  0
   -5.3521    1.6574   -1.2520 F   0  0  0  0  0  0  0  0  0  0  0  0
   -3.4283    2.8300   -0.9228 F   0  0  0  0  0  0  0  0  0  0  0  0
   -3.5827    0.6021   -0.1959 C   0  0  0  0  0  0  0  0  0  0  0  0
   -4.3425   -0.5399   -0.2002 C   0  0  0  0  0  0  0  0  0  0  0  0
   -3.7564   -1.7599    0.0167 C   0  0  0  0  0  0  0  0  0  0  0  0
   -2.4009   -1.8221    0.2393 C   0  0  0  0  0  0  0  0  0  0  0  0
   -1.6234   -0.6723    0.2448 C   0  0  0  0  0  0  0  0  0  0  0  0
   -2.2246    0.5385    0.0256 C   0  0  0  0  0  0  0  0  0  0  0  0
   -0.1954   -0.7885    0.5156 C   0  0  0  0  0  0  0  0  0  0  0  0
    0.0902   -1.6095    1.4281 O   0  0  0  0  0  0  0  0  0  0  0  0
    0.7644   -0.0683   -0.1728 N   0  0  0  0  0  0  0  0  0  0  0  0
    2.1577   -0.1584    0.0381 C   0  0  0  0  0  0  0  0  0  0  0  0
    2.8000   -1.1679    0.7047 C   0  0  0  0  0  0  0  0  0  0  0  0
    4.1961   -1.1884    0.8829 C   0  0  0  0  0  0  0  0  0  0  0  0
    4.9733   -0.1697    0.3781 C   0  0  0  0  0  0  0  0  0  0  0  0
    4.3653    0.8674   -0.3025 C   0  0  0  0  0  0  0  0  0  0  0  0
    3.0062    0.8474   -0.4528 C   0  0  0  0  0  0  0  0  0  0  0  0
    5.1898    1.9518   -0.8303 C   0  0  0  0  0  0  0  0  0  0  0  0
    5.8586    2.8061   -1.2317 N   0  0  0  0  0  0  0  0  0  0  0  0
   -5.4142   -0.5194   -0.3748 H   0  0  0  0  0  0  0  0  0  0  0  0
   -4.3613   -2.6508    0.0102 H   0  0  0  0  0  0  0  0  0  0  0  0
   -1.9589   -2.7953    0.4105 H   0  0  0  0  0  0  0  0  0  0  0  0
   -1.6612    1.4635    0.0253 H   0  0  0  0  0  0  0  0  0  0  0  0
    0.4372    0.6107   -0.9220 H   0  0  0  0  0  0  0  0  0  0  0  0
    2.2566   -2.0162    1.1121 H   0  0  0  0  0  0  0  0  0  0  0  0
    4.6841   -2.0031    1.4204 H   0  0  0  0  0  0  0  0  0  0  0  0
    6.0468   -0.1252    0.4825 H   0  0  0  0  0  0  0  0  0  0  0  0
    2.5217    1.6638   -0.9905 H   0  0  0  0  0  0  0  0  0  0  0  0
  1  2  1  0
  2  3  1  0
  2  4  1  0
  2  5  1  0
  5  6  2  0
  6  7  1  0
  7  8  2  0
  8  9  1  0
  9 10  2  0
  9 11  1  0
 11 12  2  0
 11 13  1  0
 13 14  1  0
 14 15  2  0
 15 16  1  0
 16 17  2  0
 17 18  1  0
 18 19  2  0
 18 20  1  0
 20 21  3  0
 10  5  1  0
 19 14  1  0
  6 22  1  0
  7 23  1  0
  8 24  1  0
 10 25  1  0
 13 26  1  0
 15 27  1  0
 16 28  1  0
 17 29  1  0
 19 30  1  0
M  END
$$$$
[H]c1c([H])c([H])c(C([H])([H])[C@@]2([H])C(=O)N([H])[C@@]([H])(C([H])([H])c3c([H])n([H])c4c([H])c([H])c([H])c([H])c34)C(=O)N([H])[C@@]([H])([C@@]([H])(C([H])([H])[H])C([H])([H])C([H])([H])[H])C(=O)N2[H])c([H])c1[H]
     RDKit          3D

 63 66  0  0  0  0  0  0  0  0999 V2000
   -2.9123    3.4358    2.1445 C   0  0  0  0  0  0  0  0  0  0  0  0
   -2.6517    2.1495    1.3564 C   0  0  0  0  0  0  0  0  0  0  0  0
   -1.8104    2.5205    0.1628 C   0  0  2  0  0  0  0  0  0  0  0  0
   -2.5268    3.5195   -0.7075 C   0  0  0  0  0  0  0  0  0  0  0  0
   -1.2596    1.3402   -0.5592 C   0  0  2  0  0  0  0  0  0  0  0  0
   -0.4604    1.8394   -1.6871 N   0  0  0  0  0  0  0  0  0  0  0  0
    0.5328    1.0312   -2.2816 C   0  0  0  0  0  0  0  0  0  0  0  0
    0.6298    0.9598   -3.5424 O   0  0  0  0  0  0  0  0  0  0  0  0
    1.5139    0.2246   -1.4961 C   0  0  2  0  0  0  0  0  0  0  0  0
    2.8714    0.8328   -1.8115 C   0  0  0  0  0  0  0  0  0  0  0  0
    3.9796    0.1582   -1.1089 C   0  0  0  0  0  0  0  0  0  0  0  0
    4.9113   -0.7399   -1.5723 C   0  0  0  0  0  0  0  0  0  0  0  0
    5.7374   -1.0963   -0.5770 N   0  0  0  0  0  0  0  0  0  0  0  0
    5.3471   -0.4312    0.5408 C   0  0  0  0  0  0  0  0  0  0  0  0
    5.8173   -0.4052    1.8335 C   0  0  0  0  0  0  0  0  0  0  0  0
    5.2247    0.3715    2.7795 C   0  0  0  0  0  0  0  0  0  0  0  0
    4.1485    1.1464    2.4748 C   0  0  0  0  0  0  0  0  0  0  0  0
    3.6507    1.1454    1.1907 C   0  0  0  0  0  0  0  0  0  0  0  0
    4.2655    0.3489    0.2393 C   0  0  0  0  0  0  0  0  0  0  0  0
    1.4311   -1.1386   -1.9515 N   0  0  0  0  0  0  0  0  0  0  0  0
    0.2080   -1.8531   -1.9174 C   0  0  0  0  0  0  0  0  0  0  0  0
    0.0487   -2.7229   -2.8470 O   0  0  0  0  0  0  0  0  0  0  0  0
   -0.8521   -1.6505   -0.8985 C   0  0  2  0  0  0  0  0  0  0  0  0
   -1.3008   -3.0541   -0.4616 C   0  0  0  0  0  0  0  0  0  0  0  0
   -2.3548   -2.9999    0.5431 C   0  0  0  0  0  0  0  0  0  0  0  0
   -2.0501   -2.9526    1.8777 C   0  0  0  0  0  0  0  0  0  0  0  0
   -3.0468   -2.9017    2.8555 C   0  0  0  0  0  0  0  0  0  0  0  0
   -4.3702   -2.8995    2.4603 C   0  0  0  0  0  0  0  0  0  0  0  0
   -4.6756   -2.9467    1.1282 C   0  0  0  0  0  0  0  0  0  0  0  0
   -3.6764   -2.9968    0.1666 C   0  0  0  0  0  0  0  0  0  0  0  0
   -2.0047   -0.9326   -1.3994 N   0  0  0  0  0  0  0  0  0  0  0  0
   -2.3183    0.4097   -1.0780 C   0  0  0  0  0  0  0  0  0  0  0  0
   -3.4774    0.8747   -1.2108 O   0  0  0  0  0  0  0  0  0  0  0  0
   -3.7192    4.0338    1.7210 H   0  0  0  0  0  0  0  0  0  0  0  0
   -1.9744    4.0239    2.0910 H   0  0  0  0  0  0  0  0  0  0  0  0
   -3.0587    3.2045    3.2268 H   0  0  0  0  0  0  0  0  0  0  0  0
   -3.5747    1.6233    1.1209 H   0  0  0  0  0  0  0  0  0  0  0  0
   -2.0093    1.5330    2.0415 H   0  0  0  0  0  0  0  0  0  0  0  0
   -0.9149    3.0619    0.5906 H   0  0  0  0  0  0  0  0  0  0  0  0
   -2.0045    4.5097   -0.7446 H   0  0  0  0  0  0  0  0  0  0  0  0
   -3.5430    3.7536   -0.2900 H   0  0  0  0  0  0  0  0  0  0  0  0
   -2.5885    3.1642   -1.7506 H   0  0  0  0  0  0  0  0  0  0  0  0
   -0.5751    0.8190    0.1184 H   0  0  0  0  0  0  0  0  0  0  0  0
   -0.6123    2.7968   -2.0698 H   0  0  0  0  0  0  0  0  0  0  0  0
    1.2945    0.2538   -0.4261 H   0  0  0  0  0  0  0  0  0  0  0  0
    3.0903    0.8068   -2.8887 H   0  0  0  0  0  0  0  0  0  0  0  0
    2.7938    1.9117   -1.5206 H   0  0  0  0  0  0  0  0  0  0  0  0
    4.9795   -1.1114   -2.5821 H   0  0  0  0  0  0  0  0  0  0  0  0
    6.5503   -1.7469   -0.5559 H   0  0  0  0  0  0  0  0  0  0  0  0
    6.6703   -1.0125    2.0978 H   0  0  0  0  0  0  0  0  0  0  0  0
    5.6056    0.3832    3.7974 H   0  0  0  0  0  0  0  0  0  0  0  0
    3.6831    1.7607    3.2299 H   0  0  0  0  0  0  0  0  0  0  0  0
    2.7852    1.7579    0.9101 H   0  0  0  0  0  0  0  0  0  0  0  0
    2.3090   -1.6169   -2.3208 H   0  0  0  0  0  0  0  0  0  0  0  0
   -0.4275   -1.2028    0.0234 H   0  0  0  0  0  0  0  0  0  0  0  0
   -1.5895   -3.5898   -1.4026 H   0  0  0  0  0  0  0  0  0  0  0  0
   -0.4333   -3.5993   -0.0636 H   0  0  0  0  0  0  0  0  0  0  0  0
   -1.0040   -2.9544    2.1846 H   0  0  0  0  0  0  0  0  0  0  0  0
   -2.7836   -2.8655    3.8849 H   0  0  0  0  0  0  0  0  0  0  0  0
   -5.1342   -2.8592    3.2424 H   0  0  0  0  0  0  0  0  0  0  0  0
   -5.7257   -2.9436    0.8518 H   0  0  0  0  0  0  0  0  0  0  0  0
   -4.0169   -3.0321   -0.8613 H   0  0  0  0  0  0  0  0  0  0  0  0
   -2.6420   -1.4501   -2.0409 H   0  0  0  0  0  0  0  0  0  0  0  0
  1  2  1  0
  2  3  1  0
  3  4  1  0
  3  5  1  0
  5  6  1  0
  6  7  1  0
  7  8  2  0
  7  9  1  0
  9 10  1  0
 10 11  1  0
 11 12  2  0
 12 13  1  0
 13 14  1  0
 14 15  2  0
 15 16  1  0
 16 17  2  0
 17 18  1  0
 18 19  2  0
  9 20  1  0
 20 21  1  0
 21 22  2  0
 21 23  1  0
 23 24  1  0
 24 25  1  0
 25 26  2  0
 26 27  1  0
 27 28  2  0
 28 29  1  0
 29 30  2  0
 23 31  1  0
 31 32  1  0
 32 33  2  0
 32  5  1  0
 19 11  1  0
 30 25  1  0
 19 14  1  0
  1 34  1  0
  1 35  1  0
  1 36  1  0
  2 37  1  0
  2 38  1  0
  3 39  1  1
  4 40  1  0
  4 41  1  0
  4 42  1  0
  5 43  1  1
  6 44  1  0
  9 45  1  1
 10 46  1  0
 10 47  1  0
 12 48  1  0
 13 49  1  0
 15 50  1  0
 16 51  1  0
 17 52  1  0
 18 53  1  0
 20 54  1  0
 23 55  1  1
 24 56  1  0
 24 57  1  0
 26 58  1  0
 27 59  1  0
 28 60  1  0
 29 61  1  0
 30 62  1  0
 31 63  1  0
M  END
$$$$
[H]c1c([H])c([H])c(-c2c([H])c([H])c([H])c(C(=O)N3C([H])([H])[C@]([H])(c4c([H])c([H])c([H])c(F)c4[H])[C@]([H])(C([H])([H])[H])C3([H])[H])c2[H])c([H])c1[H]
     RDKit          3D

 49 52  0  0  0  0  0  0  0  0999 V2000
   -3.4458   -1.4203   -1.5421 C   0  0  0  0  0  0  0  0  0  0  0  0
   -2.9930   -0.0076   -1.4340 C   0  0  2  0  0  0  0  0  0  0  0  0
   -1.4586    0.0003   -1.5829 C   0  0  0  0  0  0  0  0  0  0  0  0
   -0.9292   -0.0756   -0.2594 N   0  0  0  0  0  0  0  0  0  0  0  0
   -2.0930   -0.1254    0.6950 C   0  0  0  0  0  0  0  0  0  0  0  0
   -3.1122    0.6188   -0.0873 C   0  0  2  0  0  0  0  0  0  0  0  0
   -4.4696    0.6227    0.4934 C   0  0  0  0  0  0  0  0  0  0  0  0
   -5.1109    1.8383    0.5895 C   0  0  0  0  0  0  0  0  0  0  0  0
   -6.3761    1.9278    1.1244 C   0  0  0  0  0  0  0  0  0  0  0  0
   -7.0273    0.7973    1.5759 C   0  0  0  0  0  0  0  0  0  0  0  0
   -6.3694   -0.4134    1.4720 C   0  0  0  0  0  0  0  0  0  0  0  0
   -7.0040   -1.5562    1.9182 F   0  0  0  0  0  0  0  0  0  0  0  0
   -5.1096   -0.4999    0.9389 C   0  0  0  0  0  0  0  0  0  0  0  0
    0.3741   -0.1064    0.2372 C   0  0  0  0  0  0  0  0  0  0  0  0
    0.5141   -0.1811    1.5409 O   0  0  0  0  0  0  0  0  0  0  0  0
    1.6321   -0.0676   -0.4790 C   0  0  0  0  0  0  0  0  0  0  0  0
    1.7561    0.0108   -1.8413 C   0  0  0  0  0  0  0  0  0  0  0  0
    3.0171    0.0425   -2.4363 C   0  0  0  0  0  0  0  0  0  0  0  0
    4.1540   -0.0040   -1.6712 C   0  0  0  0  0  0  0  0  0  0  0  0
    4.0866   -0.0832   -0.2953 C   0  0  0  0  0  0  0  0  0  0  0  0
    2.8353   -0.1125    0.2559 C   0  0  0  0  0  0  0  0  0  0  0  0
    5.3059   -0.1312    0.4983 C   0  0  0  0  0  0  0  0  0  0  0  0
    6.4626    0.5013    0.1141 C   0  0  0  0  0  0  0  0  0  0  0  0
    7.5970    0.4203    0.9131 C   0  0  0  0  0  0  0  0  0  0  0  0
    7.5861   -0.2851    2.0895 C   0  0  0  0  0  0  0  0  0  0  0  0
    6.4303   -0.9247    2.4863 C   0  0  0  0  0  0  0  0  0  0  0  0
    5.2952   -0.8395    1.6799 C   0  0  0  0  0  0  0  0  0  0  0  0
   -4.5639   -1.4870   -1.5277 H   0  0  0  0  0  0  0  0  0  0  0  0
   -3.0211   -2.1116   -0.8183 H   0  0  0  0  0  0  0  0  0  0  0  0
   -3.1775   -1.8491   -2.5535 H   0  0  0  0  0  0  0  0  0  0  0  0
   -3.4374    0.5979   -2.2422 H   0  0  0  0  0  0  0  0  0  0  0  0
   -1.1922    0.9930   -2.0523 H   0  0  0  0  0  0  0  0  0  0  0  0
   -1.2333   -0.8529   -2.2420 H   0  0  0  0  0  0  0  0  0  0  0  0
   -1.8399    0.4220    1.6109 H   0  0  0  0  0  0  0  0  0  0  0  0
   -2.2753   -1.1931    0.8340 H   0  0  0  0  0  0  0  0  0  0  0  0
   -2.7423    1.6748   -0.2095 H   0  0  0  0  0  0  0  0  0  0  0  0
   -4.6219    2.7669    0.2386 H   0  0  0  0  0  0  0  0  0  0  0  0
   -6.9097    2.8663    1.2154 H   0  0  0  0  0  0  0  0  0  0  0  0
   -8.0274    0.8702    1.9984 H   0  0  0  0  0  0  0  0  0  0  0  0
   -4.5922   -1.4680    0.8641 H   0  0  0  0  0  0  0  0  0  0  0  0
    0.8834    0.0494   -2.4799 H   0  0  0  0  0  0  0  0  0  0  0  0
    3.0601    0.1057   -3.5323 H   0  0  0  0  0  0  0  0  0  0  0  0
    5.1325    0.0206   -2.1327 H   0  0  0  0  0  0  0  0  0  0  0  0
    2.7852   -0.1749    1.3378 H   0  0  0  0  0  0  0  0  0  0  0  0
    6.4784    1.0521   -0.8003 H   0  0  0  0  0  0  0  0  0  0  0  0
    8.4724    0.9356    0.5607 H   0  0  0  0  0  0  0  0  0  0  0  0
    8.4650   -0.3526    2.7167 H   0  0  0  0  0  0  0  0  0  0  0  0
    6.4223   -1.4792    3.4113 H   0  0  0  0  0  0  0  0  0  0  0  0
    4.3871   -1.3325    1.9755 H   0  0  0  0  0  0  0  0  0  0  0  0
  1  2  1  0
  2  3  1  0
  3  4  1  0
  4  5  1  0
  5  6  1  0
  6  7  1  0
  7  8  2  0
  8  9  1  0
  9 10  2  0
 10 11  1  0
 11 12  1  0
 11 13  2  0
  4 14  1  0
 14 15  2  0
 14 16  1  0
 16 17  2  0
 17 18  1  0
 18 19  2  0
 19 20  1  0
 20 21  2  0
 20 22  1  0
 22 23  2  0
 23 24  1  0
 24 25  2  0
 25 26  1  0
 26 27  2  0
  6  2  1  0
 13  7  1  0
 21 16  1  0
 27 22  1  0
  1 28  1  0
  1 29  1  0
  1 30  1  0
  2 31  1  6
  3 32  1  0
  3 33  1  0
  5 34  1  0
  5 35  1  0
  6 36  1  6
  8 37  1  0
  9 38  1  0
 10 39  1  0
 13 40  1  0
 17 41  1  0
 18 42  1  0
 19 43  1  0
 21 44  1  0
 23 45  1  0
 24 46  1  0
 25 47  1  0
 26 48  1  0
 27 49  1  0
M  END
$$$$
[H]c1nn([H])c([H])c1-c1c([H])c([H])c(C(=O)N2C([H])([H])C([H])([H])N(C(=O)c3c([H])c([H])c(Cl)c(Cl)c3[H])C([H])([H])C2([H])[H])c([H])c1OC([H])([H])[H]
     RDKit          3D

 51 54  0  0  0  0  0  0  0  0999 V2000
    5.4383   -2.6110    2.2394 C   0  0  0  0  0  0  0  0  0  0  0  0
    5.4417   -1.3882    1.5703 O   0  0  0  0  0  0  0  0  0  0  0  0
    4.3539   -0.8108    0.9438 C   0  0  0  0  0  0  0  0  0  0  0  0
    3.1259   -1.4115    0.9228 C   0  0  0  0  0  0  0  0  0  0  0  0
    2.0110   -0.8413    0.2926 C   0  0  0  0  0  0  0  0  0  0  0  0
    2.2140    0.3504   -0.3043 C   0  0  0  0  0  0  0  0  0  0  0  0
    3.4535    0.9638   -0.2862 C   0  0  0  0  0  0  0  0  0  0  0  0
    4.5435    0.4058    0.3312 C   0  0  0  0  0  0  0  0  0  0  0  0
    5.8426    1.0783    0.3338 C   0  0  0  0  0  0  0  0  0  0  0  0
    6.7163    1.2510    1.3840 C   0  0  0  0  0  0  0  0  0  0  0  0
    7.7964    1.9261    0.9520 N   0  0  0  0  0  0  0  0  0  0  0  0
    7.6233    2.1769   -0.3245 N   0  0  0  0  0  0  0  0  0  0  0  0
    6.4427    1.6786   -0.7503 C   0  0  0  0  0  0  0  0  0  0  0  0
    0.7610   -1.5524    0.2576 C   0  0  0  0  0  0  0  0  0  0  0  0
    0.8607   -2.8280    0.6240 O   0  0  0  0  0  0  0  0  0  0  0  0
   -0.5194   -1.1283   -0.0908 N   0  0  0  0  0  0  0  0  0  0  0  0
   -1.6161   -2.1338   -0.0930 C   0  0  0  0  0  0  0  0  0  0  0  0
   -2.4906   -1.7726   -1.3020 C   0  0  0  0  0  0  0  0  0  0  0  0
   -3.2282   -0.5676   -0.8044 N   0  0  0  0  0  0  0  0  0  0  0  0
   -2.4245    0.3716   -0.1423 C   0  0  0  0  0  0  0  0  0  0  0  0
   -0.9001    0.2054   -0.4039 C   0  0  0  0  0  0  0  0  0  0  0  0
   -4.5916   -0.5495   -1.0961 C   0  0  0  0  0  0  0  0  0  0  0  0
   -5.0718   -1.5517   -1.7996 O   0  0  0  0  0  0  0  0  0  0  0  0
   -5.6188    0.4172   -0.7496 C   0  0  0  0  0  0  0  0  0  0  0  0
   -5.4385    1.4677    0.1023 C   0  0  0  0  0  0  0  0  0  0  0  0
   -6.4629    2.3602    0.3397 C   0  0  0  0  0  0  0  0  0  0  0  0
   -7.6865    2.2189   -0.2688 C   0  0  0  0  0  0  0  0  0  0  0  0
   -8.9835    3.3579    0.0384 Cl  0  0  0  0  0  0  0  0  0  0  0  0
   -7.9075    1.1752   -1.1308 C   0  0  0  0  0  0  0  0  0  0  0  0
   -9.4789    0.9795   -1.9225 Cl  0  0  0  0  0  0  0  0  0  0  0  0
   -6.8822    0.3082   -1.3497 C   0  0  0  0  0  0  0  0  0  0  0  0
    6.2697   -2.5856    2.9870 H   0  0  0  0  0  0  0  0  0  0  0  0
    5.6829   -3.4842    1.5739 H   0  0  0  0  0  0  0  0  0  0  0  0
    4.4834   -2.7511    2.7585 H   0  0  0  0  0  0  0  0  0  0  0  0
    2.9988   -2.3682    1.4132 H   0  0  0  0  0  0  0  0  0  0  0  0
    1.4583    0.8969   -0.8613 H   0  0  0  0  0  0  0  0  0  0  0  0
    3.5489    1.9405   -0.7940 H   0  0  0  0  0  0  0  0  0  0  0  0
    6.5936    0.9159    2.4014 H   0  0  0  0  0  0  0  0  0  0  0  0
    8.3040    2.6933   -0.9375 H   0  0  0  0  0  0  0  0  0  0  0  0
    6.0730    1.7555   -1.7568 H   0  0  0  0  0  0  0  0  0  0  0  0
   -1.2538   -3.1485   -0.1926 H   0  0  0  0  0  0  0  0  0  0  0  0
   -2.2242   -1.9734    0.8097 H   0  0  0  0  0  0  0  0  0  0  0  0
   -3.1675   -2.5770   -1.5693 H   0  0  0  0  0  0  0  0  0  0  0  0
   -1.9160   -1.4353   -2.1614 H   0  0  0  0  0  0  0  0  0  0  0  0
   -2.5036    0.4119    0.9429 H   0  0  0  0  0  0  0  0  0  0  0  0
   -2.5936    1.4167   -0.5637 H   0  0  0  0  0  0  0  0  0  0  0  0
   -0.7613    0.4847   -1.4685 H   0  0  0  0  0  0  0  0  0  0  0  0
   -0.4444    0.9646    0.2836 H   0  0  0  0  0  0  0  0  0  0  0  0
   -4.4862    1.6243    0.6429 H   0  0  0  0  0  0  0  0  0  0  0  0
   -6.2850    3.1984    1.0321 H   0  0  0  0  0  0  0  0  0  0  0  0
   -7.1005   -0.5202   -2.0532 H   0  0  0  0  0  0  0  0  0  0  0  0
  1  2  1  0
  2  3  1  0
  3  4  2  0
  4  5  1  0
  5  6  2  0
  6  7  1  0
  7  8  2  0
  8  9  1  0
  9 10  1  0
 10 11  2  0
 11 12  1  0
 12 13  1  0
  5 14  1  0
 14 15  2  0
 14 16  1  0
 16 17  1  0
 17 18  1  0
 18 19  1  0
 19 20  1  0
 20 21  1  0
 19 22  1  0
 22 23  2  0
 22 24  1  0
 24 25  2  0
 25 26  1  0
 26 27  2  0
 27 28  1  0
 27 29  1  0
 29 30  1  0
 29 31  2  0
  8  3  1  0
 13  9  2  0
 21 16  1  0
 31 24  1  0
  1 32  1  0
  1 33  1  0
  1 34  1  0
  4 35  1  0
  6 36  1  0
  7 37  1  0
 10 38  1  0
 12 39  1  0
 13 40  1  0
 17 41  1  0
 17 42  1  0
 18 43  1  0
 18 44  1  0
 20 45  1  0
 20 46  1  0
 21 47  1  0
 21 48  1  0
 25 49  1  0
 26 50  1  0
 31 51  1  0
M  END
$$$$
[H]c1nc2c([H])c(OC([H])([H])C([H])([H])C([H])([H])N3C([H])([H])C([H])([H])OC([H])([H])C3([H])[H])c(OC([H])([H])[H])c([H])c2c(Oc2c([H])c([H])c(N([H])C(=O)c3c([H])n(C([H])([H])[H])c(=O)n(C([H])([H])[H])c3=O)c([H])c2F)c1[H]
     RDKit          3D

 75 79  0  0  0  0  0  0  0  0999 V2000
   -2.7754    3.0945    2.2291 C   0  0  0  0  0  0  0  0  0  0  0  0
   -3.7086    2.1591    1.7465 O   0  0  0  0  0  0  0  0  0  0  0  0
   -3.2624    1.0347    1.0774 C   0  0  0  0  0  0  0  0  0  0  0  0
   -1.9047    0.8388    0.8864 C   0  0  0  0  0  0  0  0  0  0  0  0
   -1.4247   -0.2671    0.2257 C   0  0  0  0  0  0  0  0  0  0  0  0
   -0.0527   -0.4612    0.0355 C   0  0  0  0  0  0  0  0  0  0  0  0
    0.7665    0.5223    0.5478 O   0  0  0  0  0  0  0  0  0  0  0  0
    2.1460    0.5645    0.4380 C   0  0  0  0  0  0  0  0  0  0  0  0
    2.9725    0.5001    1.5369 C   0  0  0  0  0  0  0  0  0  0  0  0
    4.3676    0.5449    1.3928 C   0  0  0  0  0  0  0  0  0  0  0  0
    4.9837    0.6524    0.1767 C   0  0  0  0  0  0  0  0  0  0  0  0
    6.3815    0.6626   -0.0624 N   0  0  0  0  0  0  0  0  0  0  0  0
    7.3630    0.1823    0.7871 C   0  0  0  0  0  0  0  0  0  0  0  0
    7.0374   -0.3394    1.8983 O   0  0  0  0  0  0  0  0  0  0  0  0
    8.7859    0.2163    0.5166 C   0  0  0  0  0  0  0  0  0  0  0  0
    9.6495   -0.6171    1.2703 C   0  0  0  0  0  0  0  0  0  0  0  0
   10.9542   -0.6690    1.0729 N   0  0  0  0  0  0  0  0  0  0  0  0
   11.8307   -1.5407    1.8636 C   0  0  0  0  0  0  0  0  0  0  0  0
   11.5132    0.0961    0.1168 C   0  0  0  0  0  0  0  0  0  0  0  0
   12.7451    0.0701   -0.0955 O   0  0  0  0  0  0  0  0  0  0  0  0
   10.7344    0.8951   -0.6144 N   0  0  0  0  0  0  0  0  0  0  0  0
   11.3693    1.7199   -1.6535 C   0  0  0  0  0  0  0  0  0  0  0  0
    9.3954    0.9649   -0.4296 C   0  0  0  0  0  0  0  0  0  0  0  0
    8.7870    1.7558   -1.1816 O   0  0  0  0  0  0  0  0  0  0  0  0
    4.1152    0.7173   -0.9217 C   0  0  0  0  0  0  0  0  0  0  0  0
    2.7447    0.6755   -0.7982 C   0  0  0  0  0  0  0  0  0  0  0  0
    1.9593    0.7658   -1.9113 F   0  0  0  0  0  0  0  0  0  0  0  0
    0.3376   -1.5794   -0.6253 C   0  0  0  0  0  0  0  0  0  0  0  0
   -0.6108   -2.4739   -1.0819 C   0  0  0  0  0  0  0  0  0  0  0  0
   -1.9270   -2.2800   -0.8951 N   0  0  0  0  0  0  0  0  0  0  0  0
   -2.3493   -1.1746   -0.2391 C   0  0  0  0  0  0  0  0  0  0  0  0
   -3.7218   -0.9715   -0.0422 C   0  0  0  0  0  0  0  0  0  0  0  0
   -4.1935    0.1199    0.6082 C   0  0  0  0  0  0  0  0  0  0  0  0
   -5.5032    0.3691    0.8207 O   0  0  0  0  0  0  0  0  0  0  0  0
   -6.5549   -0.4085    0.3691 C   0  0  0  0  0  0  0  0  0  0  0  0
   -6.7048   -0.4447   -1.1140 C   0  0  0  0  0  0  0  0  0  0  0  0
   -7.8452   -1.3496   -1.5522 C   0  0  0  0  0  0  0  0  0  0  0  0
   -9.0760   -0.9281   -1.0357 N   0  0  0  0  0  0  0  0  0  0  0  0
   -9.6712    0.2591   -1.4840 C   0  0  0  0  0  0  0  0  0  0  0  0
  -10.2816    0.9765   -0.2862 C   0  0  0  0  0  0  0  0  0  0  0  0
  -10.4612    0.1477    0.8044 O   0  0  0  0  0  0  0  0  0  0  0  0
  -10.9151   -1.1158    0.5039 C   0  0  0  0  0  0  0  0  0  0  0  0
   -9.8490   -1.8454   -0.3022 C   0  0  0  0  0  0  0  0  0  0  0  0
   -2.1703    3.5705    1.4079 H   0  0  0  0  0  0  0  0  0  0  0  0
   -3.2719    3.8838    2.8277 H   0  0  0  0  0  0  0  0  0  0  0  0
   -2.0219    2.6232    2.9011 H   0  0  0  0  0  0  0  0  0  0  0  0
   -1.1988    1.5657    1.2610 H   0  0  0  0  0  0  0  0  0  0  0  0
    2.5565    0.4143    2.5322 H   0  0  0  0  0  0  0  0  0  0  0  0
    4.9732    0.5083    2.2919 H   0  0  0  0  0  0  0  0  0  0  0  0
    6.6598    1.0772   -0.9900 H   0  0  0  0  0  0  0  0  0  0  0  0
    9.2109   -1.2354    2.0395 H   0  0  0  0  0  0  0  0  0  0  0  0
   11.6388   -2.6182    1.6358 H   0  0  0  0  0  0  0  0  0  0  0  0
   11.6387   -1.4138    2.9598 H   0  0  0  0  0  0  0  0  0  0  0  0
   12.8936   -1.3106    1.6448 H   0  0  0  0  0  0  0  0  0  0  0  0
   10.7251    2.5558   -1.9369 H   0  0  0  0  0  0  0  0  0  0  0  0
   11.6031    1.0658   -2.5256 H   0  0  0  0  0  0  0  0  0  0  0  0
   12.2872    2.1208   -1.1862 H   0  0  0  0  0  0  0  0  0  0  0  0
    4.5730    0.8045   -1.9139 H   0  0  0  0  0  0  0  0  0  0  0  0
    1.3783   -1.7942   -0.7940 H   0  0  0  0  0  0  0  0  0  0  0  0
   -0.3055   -3.3813   -1.6182 H   0  0  0  0  0  0  0  0  0  0  0  0
   -4.3935   -1.7299   -0.4003 H   0  0  0  0  0  0  0  0  0  0  0  0
   -7.4806   -0.0417    0.8811 H   0  0  0  0  0  0  0  0  0  0  0  0
   -6.4822   -1.4827    0.7135 H   0  0  0  0  0  0  0  0  0  0  0  0
   -6.9914    0.6175   -1.4445 H   0  0  0  0  0  0  0  0  0  0  0  0
   -5.8198   -0.6614   -1.7055 H   0  0  0  0  0  0  0  0  0  0  0  0
   -7.5759   -2.3937   -1.2315 H   0  0  0  0  0  0  0  0  0  0  0  0
   -7.8742   -1.2813   -2.6684 H   0  0  0  0  0  0  0  0  0  0  0  0
  -10.4866    0.0810   -2.2417 H   0  0  0  0  0  0  0  0  0  0  0  0
   -8.9239    0.9532   -1.9156 H   0  0  0  0  0  0  0  0  0  0  0  0
   -9.5917    1.8042    0.0546 H   0  0  0  0  0  0  0  0  0  0  0  0
  -11.2152    1.4467   -0.6237 H   0  0  0  0  0  0  0  0  0  0  0  0
  -11.8718   -1.1081   -0.0710 H   0  0  0  0  0  0  0  0  0  0  0  0
  -11.1019   -1.6471    1.4443 H   0  0  0  0  0  0  0  0  0  0  0  0
  -10.2968   -2.6324   -0.9486 H   0  0  0  0  0  0  0  0  0  0  0  0
   -9.2108   -2.4000    0.4458 H   0  0  0  0  0  0  0  0  0  0  0  0
  1  2  1  0
  2  3  1  0
  3  4  2  0
  4  5  1  0
  5  6  2  0
  6  7  1  0
  7  8  1  0
  8  9  2  0
  9 10  1  0
 10 11  2  0
 11 12  1  0
 12 13  1  0
 13 14  2  0
 13 15  1  0
 15 16  2  0
 16 17  1  0
 17 18  1  0
 17 19  1  0
 19 20  2  0
 19 21  1  0
 21 22  1  0
 21 23  1  0
 23 24  2  0
 11 25  1  0
 25 26  2  0
 26 27  1  0
  6 28  1  0
 28 29  2  0
 29 30  1  0
 30 31  2  0
 31 32  1  0
 32 33  2  0
 33 34  1  0
 34 35  1  0
 35 36  1  0
 36 37  1  0
 37 38  1  0
 38 39  1  0
 39 40  1  0
 40 41  1  0
 41 42  1  0
 42 43  1  0
 33  3  1  0
 43 38  1  0
 31  5  1  0
 26  8  1  0
 23 15  1  0
  1 44  1  0
  1 45  1  0
  1 46  1  0
  4 47  1  0
  9 48  1  0
 10 49  1  0
 12 50  1  0
 16 51  1  0
 18 52  1  0
 18 53  1  0
 18 54  1  0
 22 55  1  0
 22 56  1  0
 22 57  1  0
 25 58  1  0
 28 59  1  0
 29 60  1  0
 32 61  1  0
 35 62  1  0
 35 63  1  0
 36 64  1  0
 36 65  1  0
 37 66  1  0
 37 67  1  0
 39 68  1  0
 39 69  1  0
 40 70  1  0
 40 71  1  0
 42 72  1  0
 42 73  1  0
 43 74  1  0
 43 75  1  0
M  END
$$$$
[H]c1c([H])c(N2C([H])([H])C([H])([H])N(C([H])([H])[H])C([H])([H])C2([H])[H])c([H])c([H])c1-c1c([H])c([H])c(S(=O)(=O)N([H])c2c([H])c([H])c(S(=O)(=O)N([H])[H])c([H])c2[H])c([H])c1[H]
     RDKit          3D

 59 62  0  0  0  0  0  0  0  0999 V2000
   -8.3384    0.8246   -1.0602 C   0  0  0  0  0  0  0  0  0  0  0  0
   -7.6390    0.1554   -2.1128 N   0  0  0  0  0  0  0  0  0  0  0  0
   -7.2413   -1.1548   -1.7003 C   0  0  0  0  0  0  0  0  0  0  0  0
   -5.8355   -1.3026   -1.2901 C   0  0  0  0  0  0  0  0  0  0  0  0
   -5.0935   -0.0880   -1.0816 N   0  0  0  0  0  0  0  0  0  0  0  0
   -5.5885    1.1899   -1.4795 C   0  0  0  0  0  0  0  0  0  0  0  0
   -6.5786    0.9575   -2.6293 C   0  0  0  0  0  0  0  0  0  0  0  0
   -3.8130   -0.2045   -0.4503 C   0  0  0  0  0  0  0  0  0  0  0  0
   -3.0596    0.9145   -0.1358 C   0  0  0  0  0  0  0  0  0  0  0  0
   -1.8228    0.8183    0.4685 C   0  0  0  0  0  0  0  0  0  0  0  0
   -1.2839   -0.4099    0.7859 C   0  0  0  0  0  0  0  0  0  0  0  0
   -2.0282   -1.5301    0.4760 C   0  0  0  0  0  0  0  0  0  0  0  0
   -3.2643   -1.4283   -0.1283 C   0  0  0  0  0  0  0  0  0  0  0  0
    0.0355   -0.5218    1.4325 C   0  0  0  0  0  0  0  0  0  0  0  0
    0.8723   -1.5947    1.2159 C   0  0  0  0  0  0  0  0  0  0  0  0
    2.1087   -1.7143    1.8139 C   0  0  0  0  0  0  0  0  0  0  0  0
    2.5553   -0.7180    2.6811 C   0  0  0  0  0  0  0  0  0  0  0  0
    1.7144    0.3519    2.8936 C   0  0  0  0  0  0  0  0  0  0  0  0
    0.4781    0.4621    2.2897 C   0  0  0  0  0  0  0  0  0  0  0  0
    4.0938   -0.7589    3.4897 S   0  0  0  0  0  0  0  0  0  0  0  0
    4.6204   -2.1683    3.6053 O   0  0  0  0  0  0  0  0  0  0  0  0
    3.8092   -0.3390    4.9291 O   0  0  0  0  0  0  0  0  0  0  0  0
    5.1999    0.2961    2.7693 N   0  0  0  0  0  0  0  0  0  0  0  0
    5.7143    0.3045    1.4726 C   0  0  0  0  0  0  0  0  0  0  0  0
    7.1124    0.3386    1.3407 C   0  0  0  0  0  0  0  0  0  0  0  0
    7.7395    0.3297    0.1135 C   0  0  0  0  0  0  0  0  0  0  0  0
    6.9985    0.2861   -1.0478 C   0  0  0  0  0  0  0  0  0  0  0  0
    5.6297    0.2530   -0.9214 C   0  0  0  0  0  0  0  0  0  0  0  0
    4.9930    0.2625    0.3275 C   0  0  0  0  0  0  0  0  0  0  0  0
    7.7456    0.2728   -2.6307 S   0  0  0  0  0  0  0  0  0  0  0  0
    7.9778    1.8588   -3.2508 N   0  0  0  0  0  0  0  0  0  0  0  0
    6.9302   -0.5930   -3.5310 O   0  0  0  0  0  0  0  0  0  0  0  0
    9.1248   -0.3538   -2.5005 O   0  0  0  0  0  0  0  0  0  0  0  0
   -8.0740    1.8832   -0.9349 H   0  0  0  0  0  0  0  0  0  0  0  0
   -8.2043    0.2499   -0.1064 H   0  0  0  0  0  0  0  0  0  0  0  0
   -9.4382    0.7341   -1.2872 H   0  0  0  0  0  0  0  0  0  0  0  0
   -7.9842   -1.5134   -0.9284 H   0  0  0  0  0  0  0  0  0  0  0  0
   -7.4231   -1.8427   -2.5785 H   0  0  0  0  0  0  0  0  0  0  0  0
   -5.8253   -1.8366   -0.2927 H   0  0  0  0  0  0  0  0  0  0  0  0
   -5.2295   -1.9587   -1.9615 H   0  0  0  0  0  0  0  0  0  0  0  0
   -6.0586    1.7578   -0.6499 H   0  0  0  0  0  0  0  0  0  0  0  0
   -4.8268    1.8662   -1.9196 H   0  0  0  0  0  0  0  0  0  0  0  0
   -7.0162    1.9232   -2.9676 H   0  0  0  0  0  0  0  0  0  0  0  0
   -6.0020    0.4539   -3.4163 H   0  0  0  0  0  0  0  0  0  0  0  0
   -3.4997    1.8836   -0.3918 H   0  0  0  0  0  0  0  0  0  0  0  0
   -1.2717    1.7148    0.6948 H   0  0  0  0  0  0  0  0  0  0  0  0
   -1.6488   -2.5119    0.7049 H   0  0  0  0  0  0  0  0  0  0  0  0
   -3.8515   -2.3280   -0.3725 H   0  0  0  0  0  0  0  0  0  0  0  0
    0.5227   -2.3626    0.5446 H   0  0  0  0  0  0  0  0  0  0  0  0
    2.7739   -2.5523    1.6510 H   0  0  0  0  0  0  0  0  0  0  0  0
    2.0513    1.1342    3.5670 H   0  0  0  0  0  0  0  0  0  0  0  0
   -0.1654    1.3227    2.4785 H   0  0  0  0  0  0  0  0  0  0  0  0
    5.5609    1.0834    3.4188 H   0  0  0  0  0  0  0  0  0  0  0  0
    7.7156    0.3734    2.2471 H   0  0  0  0  0  0  0  0  0  0  0  0
    8.8215    0.3562    0.0184 H   0  0  0  0  0  0  0  0  0  0  0  0
    5.0053    0.2188   -1.7874 H   0  0  0  0  0  0  0  0  0  0  0  0
    3.9163    0.2516    0.3842 H   0  0  0  0  0  0  0  0  0  0  0  0
    8.9605    2.1441   -3.3330 H   0  0  0  0  0  0  0  0  0  0  0  0
    7.3245    2.5589   -2.8846 H   0  0  0  0  0  0  0  0  0  0  0  0
  1  2  1  0
  2  3  1  0
  3  4  1  0
  4  5  1  0
  5  6  1  0
  6  7  1  0
  5  8  1  0
  8  9  2  0
  9 10  1  0
 10 11  2  0
 11 12  1  0
 12 13  2  0
 11 14  1  0
 14 15  2  0
 15 16  1  0
 16 17  2  0
 17 18  1  0
 18 19  2  0
 17 20  1  0
 20 21  2  0
 20 22  2  0
 20 23  1  0
 23 24  1  0
 24 25  2  0
 25 26  1  0
 26 27  2  0
 27 28  1  0
 28 29  2  0
 27 30  1  0
 30 31  1  0
 30 32  2  0
 30 33  2  0
  7  2  1  0
 13  8  1  0
 19 14  1  0
 29 24  1  0
  1 34  1  0
  1 35  1  0
  1 36  1  0
  3 37  1  0
  3 38  1  0
  4 39  1  0
  4 40  1  0
  6 41  1  0
  6 42  1  0
  7 43  1  0
  7 44  1  0
  9 45  1  0
 10 46  1  0
 12 47  1  0
 13 48  1  0
 15 49  1  0
 16 50  1  0
 18 51  1  0
 19 52  1  0
 23 53  1  0
 25 54  1  0
 26 55  1  0
 28 56  1  0
 29 57  1  0
 31 58  1  0
 31 59  1  0
M  END
$$$$
[H]OC(C([H])([H])[H])(C([H])([H])[H])[C@@]([H])(N([H])S(=O)(=O)c1c([H])c([H])c(N([H])C(=O)c2c([H])c([H])c(C(F)(F)F)c([H])c2[H])c([H])c1[H])C([H])(C([H])([H])[H])C([H])([H])[H]
     RDKit          3D

 56 57  0  0  0  0  0  0  0  0999 V2000
   -5.6246   -2.2489    0.6358 C   0  0  0  0  0  0  0  0  0  0  0  0
   -4.9987   -0.9762    1.1002 C   0  0  0  0  0  0  0  0  0  0  0  0
   -5.8732   -0.0764    1.8845 C   0  0  0  0  0  0  0  0  0  0  0  0
   -4.1052   -0.3044    0.0627 C   0  0  2  0  0  0  0  0  0  0  0  0
   -3.6266    0.9087    0.6414 N   0  0  0  0  0  0  0  0  0  0  0  0
   -2.1570    0.9867    1.3883 S   0  0  0  0  0  0  0  0  0  0  0  0
   -2.2131    0.1281    2.6986 O   0  0  0  0  0  0  0  0  0  0  0  0
   -1.9882    2.4136    2.0002 O   0  0  0  0  0  0  0  0  0  0  0  0
   -0.6863    0.6401    0.5624 C   0  0  0  0  0  0  0  0  0  0  0  0
    0.0522   -0.4738    0.8781 C   0  0  0  0  0  0  0  0  0  0  0  0
    1.3274   -0.7017    0.3358 C   0  0  0  0  0  0  0  0  0  0  0  0
    1.8312    0.2086   -0.5139 C   0  0  0  0  0  0  0  0  0  0  0  0
    3.2183    0.1379   -0.9081 N   0  0  0  0  0  0  0  0  0  0  0  0
    4.1454   -0.1590    0.1375 C   0  0  0  0  0  0  0  0  0  0  0  0
    3.7395   -0.3965    1.3046 O   0  0  0  0  0  0  0  0  0  0  0  0
    5.6023   -0.1837   -0.0976 C   0  0  0  0  0  0  0  0  0  0  0  0
    6.1434    0.3830   -1.2215 C   0  0  0  0  0  0  0  0  0  0  0  0
    7.5204    0.4495   -1.3366 C   0  0  0  0  0  0  0  0  0  0  0  0
    8.3378   -0.0485   -0.3401 C   0  0  0  0  0  0  0  0  0  0  0  0
    7.7972   -0.6176    0.7857 C   0  0  0  0  0  0  0  0  0  0  0  0
    6.4104   -0.6870    0.9079 C   0  0  0  0  0  0  0  0  0  0  0  0
    9.8422    0.0717   -0.4068 C   0  0  0  0  0  0  0  0  0  0  0  0
   10.2658    0.3966    0.8767 F   0  0  0  0  0  0  0  0  0  0  0  0
   10.1588    1.1684   -1.2106 F   0  0  0  0  0  0  0  0  0  0  0  0
   10.4083   -1.0659   -0.8605 F   0  0  0  0  0  0  0  0  0  0  0  0
    1.1051    1.3357   -0.8576 C   0  0  0  0  0  0  0  0  0  0  0  0
   -0.1556    1.5450   -0.3151 C   0  0  0  0  0  0  0  0  0  0  0  0
   -4.6526   -0.1633   -1.2964 C   0  0  0  0  0  0  0  0  0  0  0  0
   -5.8437    0.7738   -1.3457 C   0  0  0  0  0  0  0  0  0  0  0  0
   -3.6136    0.5028   -2.2192 C   0  0  0  0  0  0  0  0  0  0  0  0
   -5.0477   -1.3252   -1.9161 O   0  0  0  0  0  0  0  0  0  0  0  0
   -6.6206   -2.0913    0.1783 H   0  0  0  0  0  0  0  0  0  0  0  0
   -4.9434   -2.7808   -0.0404 H   0  0  0  0  0  0  0  0  0  0  0  0
   -5.7442   -2.9199    1.5318 H   0  0  0  0  0  0  0  0  0  0  0  0
   -4.2170   -1.3339    1.8737 H   0  0  0  0  0  0  0  0  0  0  0  0
   -5.8575   -0.3690    2.9620 H   0  0  0  0  0  0  0  0  0  0  0  0
   -6.9485   -0.0917    1.6250 H   0  0  0  0  0  0  0  0  0  0  0  0
   -5.4585    0.9494    1.8699 H   0  0  0  0  0  0  0  0  0  0  0  0
   -3.2136   -0.9988    0.0509 H   0  0  0  0  0  0  0  0  0  0  0  0
   -3.8087    1.6935   -0.0006 H   0  0  0  0  0  0  0  0  0  0  0  0
   -0.3623   -1.1942    1.5700 H   0  0  0  0  0  0  0  0  0  0  0  0
    1.8135   -1.6169    0.6380 H   0  0  0  0  0  0  0  0  0  0  0  0
    3.4687    0.2910   -1.8702 H   0  0  0  0  0  0  0  0  0  0  0  0
    5.5357    0.7733   -2.0179 H   0  0  0  0  0  0  0  0  0  0  0  0
    7.9717    0.8787   -2.1859 H   0  0  0  0  0  0  0  0  0  0  0  0
    8.3953   -1.0109    1.5892 H   0  0  0  0  0  0  0  0  0  0  0  0
    5.9252   -1.1275    1.7564 H   0  0  0  0  0  0  0  0  0  0  0  0
    1.5695    2.0322   -1.5461 H   0  0  0  0  0  0  0  0  0  0  0  0
   -0.6607    2.4281   -0.6220 H   0  0  0  0  0  0  0  0  0  0  0  0
   -5.5994    1.7092   -1.9406 H   0  0  0  0  0  0  0  0  0  0  0  0
   -6.2787    1.0310   -0.3827 H   0  0  0  0  0  0  0  0  0  0  0  0
   -6.6698    0.3066   -1.9713 H   0  0  0  0  0  0  0  0  0  0  0  0
   -2.6146    0.0246   -2.0085 H   0  0  0  0  0  0  0  0  0  0  0  0
   -3.5527    1.5801   -2.0061 H   0  0  0  0  0  0  0  0  0  0  0  0
   -3.9273    0.3795   -3.2564 H   0  0  0  0  0  0  0  0  0  0  0  0
   -5.5216   -1.1642   -2.7496 H   0  0  0  0  0  0  0  0  0  0  0  0
  1  2  1  0
  2  3  1  0
  2  4  1  0
  4  5  1  0
  5  6  1  0
  6  7  2  0
  6  8  2  0
  6  9  1  0
  9 10  2  0
 10 11  1  0
 11 12  2  0
 12 13  1  0
 13 14  1  0
 14 15  2  0
 14 16  1  0
 16 17  2  0
 17 18  1  0
 18 19  2  0
 19 20  1  0
 20 21  2  0
 19 22  1  0
 22 23  1  0
 22 24  1  0
 22 25  1  0
 12 26  1  0
 26 27  2  0
  4 28  1  0
 28 29  1  0
 28 30  1  0
 28 31  1  0
 27  9  1  0
 21 16  1  0
  1 32  1  0
  1 33  1  0
  1 34  1  0
  2 35  1  0
  3 36  1  0
  3 37  1  0
  3 38  1  0
  4 39  1  6
  5 40  1  0
 10 41  1  0
 11 42  1  0
 13 43  1  0
 17 44  1  0
 18 45  1  0
 20 46  1  0
 21 47  1  0
 26 48  1  0
 27 49  1  0
 29 50  1  0
 29 51  1  0
 29 52  1  0
 30 53  1  0
 30 54  1  0
 30 55  1  0
 31 56  1  0
M  END
$$$$
[H]c1c([H])c([H])c(C([H])([H])C(=O)N([H])[C@]([H])(C(=O)N([H])[C@]([H])(C(=O)N([H])[C@]([H])(C(=O)N([H])[C@]([H])(C(=O)N([H])[C@]([H])(C(=O)N([H])[H])C([H])([H])c2c([H])c([H])c([H])c([H])c2[H])C([H])([H])C([H])(C([H])([H])[H])C([H])([H])[H])C([H])([H])c2c([H])c([H])c([H])c([H])c2[H])C([H])([H])c2c([H])c([H])c([H])c([H])c2[H])C([H])([H])C([H])(C([H])([H])[H])C([H])([H])[H])c([H])c1[H]
     RDKit          3D

117120  0  0  0  0  0  0  0  0999 V2000
    5.5915   -3.9385   -2.8357 C   0  0  0  0  0  0  0  0  0  0  0  0
    4.4595   -3.0095   -3.0959 C   0  0  0  0  0  0  0  0  0  0  0  0
    3.4015   -3.7426   -3.9389 C   0  0  0  0  0  0  0  0  0  0  0  0
    3.8606   -2.3851   -1.8975 C   0  0  0  0  0  0  0  0  0  0  0  0
    4.7445   -1.5389   -1.1029 C   0  0  2  0  0  0  0  0  0  0  0  0
    5.8695   -2.2259   -0.5346 N   0  0  0  0  0  0  0  0  0  0  0  0
    7.1834   -1.6333   -0.4842 C   0  0  0  0  0  0  0  0  0  0  0  0
    7.3488   -0.5034   -0.9403 O   0  0  0  0  0  0  0  0  0  0  0  0
    8.2772   -2.4141    0.1157 C   0  0  0  0  0  0  0  0  0  0  0  0
    9.5452   -1.6873    0.1041 C   0  0  0  0  0  0  0  0  0  0  0  0
   10.0014   -0.9456    1.1712 C   0  0  0  0  0  0  0  0  0  0  0  0
   11.1963   -0.2922    1.0465 C   0  0  0  0  0  0  0  0  0  0  0  0
   11.9505   -0.3447   -0.0838 C   0  0  0  0  0  0  0  0  0  0  0  0
   11.5129   -1.0825   -1.1671 C   0  0  0  0  0  0  0  0  0  0  0  0
   10.3194   -1.7443   -1.0677 C   0  0  0  0  0  0  0  0  0  0  0  0
    4.0205   -0.7498   -0.0397 C   0  0  0  0  0  0  0  0  0  0  0  0
    4.5197   -0.7332    1.0966 O   0  0  0  0  0  0  0  0  0  0  0  0
    2.8268   -0.0534   -0.3082 N   0  0  0  0  0  0  0  0  0  0  0  0
    2.1015    0.7329    0.6590 C   0  0  1  0  0  0  0  0  0  0  0  0
    1.8544    2.1257    0.2458 C   0  0  0  0  0  0  0  0  0  0  0  0
    1.0767    2.3705   -0.9622 C   0  0  0  0  0  0  0  0  0  0  0  0
   -0.2840    2.5911   -0.8171 C   0  0  0  0  0  0  0  0  0  0  0  0
   -1.1055    2.8274   -1.9211 C   0  0  0  0  0  0  0  0  0  0  0  0
   -0.5552    2.8425   -3.1831 C   0  0  0  0  0  0  0  0  0  0  0  0
    0.7793    2.6257   -3.3206 C   0  0  0  0  0  0  0  0  0  0  0  0
    1.5727    2.3958   -2.2297 C   0  0  0  0  0  0  0  0  0  0  0  0
    0.9766    0.0187    1.3103 C   0  0  0  0  0  0  0  0  0  0  0  0
    0.8298   -1.2027    1.0545 O   0  0  0  0  0  0  0  0  0  0  0  0
    0.0696    0.6122    2.1888 N   0  0  0  0  0  0  0  0  0  0  0  0
   -0.9946   -0.1012    2.8130 C   0  0  1  0  0  0  0  0  0  0  0  0
   -1.3558    0.3210    4.1936 C   0  0  0  0  0  0  0  0  0  0  0  0
   -0.1935    0.1648    5.1425 C   0  0  0  0  0  0  0  0  0  0  0  0
    0.0207   -1.0176    5.8038 C   0  0  0  0  0  0  0  0  0  0  0  0
    1.1013   -1.1775    6.6908 C   0  0  0  0  0  0  0  0  0  0  0  0
    1.9686   -0.1290    6.9096 C   0  0  0  0  0  0  0  0  0  0  0  0
    1.7542    1.0580    6.2474 C   0  0  0  0  0  0  0  0  0  0  0  0
    0.6782    1.2032    5.3682 C   0  0  0  0  0  0  0  0  0  0  0  0
   -2.2410   -0.2068    1.9988 C   0  0  0  0  0  0  0  0  0  0  0  0
   -2.0903   -0.5110    0.7837 O   0  0  0  0  0  0  0  0  0  0  0  0
   -3.5353    0.0038    2.4749 N   0  0  0  0  0  0  0  0  0  0  0  0
   -4.7436   -0.1549    1.5978 C   0  0  1  0  0  0  0  0  0  0  0  0
   -5.8564   -0.3047    2.5179 C   0  0  0  0  0  0  0  0  0  0  0  0
   -7.2508   -0.4984    2.1146 C   0  0  0  0  0  0  0  0  0  0  0  0
   -7.5537   -1.6916    1.2437 C   0  0  0  0  0  0  0  0  0  0  0  0
   -8.0556    0.6908    1.7186 C   0  0  0  0  0  0  0  0  0  0  0  0
   -4.6658    0.9912    0.6692 C   0  0  0  0  0  0  0  0  0  0  0  0
   -3.7890    1.8775    0.8698 O   0  0  0  0  0  0  0  0  0  0  0  0
   -5.4902    1.1862   -0.4637 N   0  0  0  0  0  0  0  0  0  0  0  0
   -5.3313    2.2919   -1.3637 C   0  0  1  0  0  0  0  0  0  0  0  0
   -4.9335    1.8106   -2.7520 C   0  0  0  0  0  0  0  0  0  0  0  0
   -5.9419    0.8743   -3.3429 C   0  0  0  0  0  0  0  0  0  0  0  0
   -6.9779    1.3376   -4.1016 C   0  0  0  0  0  0  0  0  0  0  0  0
   -7.9015    0.4490   -4.6319 C   0  0  0  0  0  0  0  0  0  0  0  0
   -7.8028   -0.9115   -4.4118 C   0  0  0  0  0  0  0  0  0  0  0  0
   -6.7438   -1.3355   -3.6415 C   0  0  0  0  0  0  0  0  0  0  0  0
   -5.8171   -0.4727   -3.1066 C   0  0  0  0  0  0  0  0  0  0  0  0
   -6.3763    3.3170   -1.3704 C   0  0  0  0  0  0  0  0  0  0  0  0
   -6.2953    4.4446   -2.2586 N   0  0  0  0  0  0  0  0  0  0  0  0
   -7.3864    3.2952   -0.6303 O   0  0  0  0  0  0  0  0  0  0  0  0
    5.6762   -4.6192   -3.7657 H   0  0  0  0  0  0  0  0  0  0  0  0
    6.5485   -3.4005   -2.7830 H   0  0  0  0  0  0  0  0  0  0  0  0
    5.3934   -4.5907   -1.9700 H   0  0  0  0  0  0  0  0  0  0  0  0
    4.8024   -2.1814   -3.8106 H   0  0  0  0  0  0  0  0  0  0  0  0
    3.8717   -3.9615   -4.9383 H   0  0  0  0  0  0  0  0  0  0  0  0
    3.0500   -4.6545   -3.4492 H   0  0  0  0  0  0  0  0  0  0  0  0
    2.5586   -3.0626   -4.1587 H   0  0  0  0  0  0  0  0  0  0  0  0
    3.0045   -1.7157   -2.2695 H   0  0  0  0  0  0  0  0  0  0  0  0
    3.3094   -3.1589   -1.2581 H   0  0  0  0  0  0  0  0  0  0  0  0
    5.1456   -0.6948   -1.7651 H   0  0  0  0  0  0  0  0  0  0  0  0
    5.7719   -3.1844   -0.1315 H   0  0  0  0  0  0  0  0  0  0  0  0
    8.4328   -3.3776   -0.4227 H   0  0  0  0  0  0  0  0  0  0  0  0
    8.0451   -2.7230    1.1729 H   0  0  0  0  0  0  0  0  0  0  0  0
    9.4116   -0.8939    2.0795 H   0  0  0  0  0  0  0  0  0  0  0  0
   11.5445    0.2940    1.9084 H   0  0  0  0  0  0  0  0  0  0  0  0
   12.9126    0.1906   -0.1693 H   0  0  0  0  0  0  0  0  0  0  0  0
   12.1271   -1.1142   -2.0686 H   0  0  0  0  0  0  0  0  0  0  0  0
    9.9732   -2.3208   -1.9150 H   0  0  0  0  0  0  0  0  0  0  0  0
    2.4169   -0.0963   -1.2827 H   0  0  0  0  0  0  0  0  0  0  0  0
    2.8479    0.8171    1.5255 H   0  0  0  0  0  0  0  0  0  0  0  0
    1.3665    2.6487    1.1080 H   0  0  0  0  0  0  0  0  0  0  0  0
    2.8406    2.6524    0.1490 H   0  0  0  0  0  0  0  0  0  0  0  0
   -0.7976    2.6067    0.1321 H   0  0  0  0  0  0  0  0  0  0  0  0
   -2.1658    3.0049   -1.8344 H   0  0  0  0  0  0  0  0  0  0  0  0
   -1.1826    3.0258   -4.0689 H   0  0  0  0  0  0  0  0  0  0  0  0
    1.1828    2.6475   -4.3326 H   0  0  0  0  0  0  0  0  0  0  0  0
    2.6162    2.2338   -2.3948 H   0  0  0  0  0  0  0  0  0  0  0  0
    0.1747    1.6258    2.4000 H   0  0  0  0  0  0  0  0  0  0  0  0
   -0.7106   -1.2233    2.8948 H   0  0  0  0  0  0  0  0  0  0  0  0
   -1.6501    1.3724    4.2067 H   0  0  0  0  0  0  0  0  0  0  0  0
   -2.1643   -0.2885    4.6336 H   0  0  0  0  0  0  0  0  0  0  0  0
   -0.6525   -1.8606    5.6489 H   0  0  0  0  0  0  0  0  0  0  0  0
    1.2851   -2.0995    7.2144 H   0  0  0  0  0  0  0  0  0  0  0  0
    2.8189   -0.2139    7.5911 H   0  0  0  0  0  0  0  0  0  0  0  0
    2.4569    1.8670    6.4414 H   0  0  0  0  0  0  0  0  0  0  0  0
    0.5299    2.1329    4.8648 H   0  0  0  0  0  0  0  0  0  0  0  0
   -3.6755    0.2866    3.4625 H   0  0  0  0  0  0  0  0  0  0  0  0
   -4.4451   -1.0757    1.0052 H   0  0  0  0  0  0  0  0  0  0  0  0
   -5.8628    0.6536    3.1676 H   0  0  0  0  0  0  0  0  0  0  0  0
   -5.5309   -1.0615    3.3115 H   0  0  0  0  0  0  0  0  0  0  0  0
   -7.7664   -0.8154    3.1355 H   0  0  0  0  0  0  0  0  0  0  0  0
   -7.4183   -1.4113    0.1750 H   0  0  0  0  0  0  0  0  0  0  0  0
   -8.6275   -1.9575    1.3611 H   0  0  0  0  0  0  0  0  0  0  0  0
   -6.9787   -2.5892    1.5218 H   0  0  0  0  0  0  0  0  0  0  0  0
   -8.2688    0.5866    0.6122 H   0  0  0  0  0  0  0  0  0  0  0  0
   -9.0003    0.7258    2.2913 H   0  0  0  0  0  0  0  0  0  0  0  0
   -7.4934    1.6448    1.8825 H   0  0  0  0  0  0  0  0  0  0  0  0
   -6.2391    0.4882   -0.6680 H   0  0  0  0  0  0  0  0  0  0  0  0
   -4.3975    2.8347   -0.9948 H   0  0  0  0  0  0  0  0  0  0  0  0
   -3.9614    1.2562   -2.6312 H   0  0  0  0  0  0  0  0  0  0  0  0
   -4.7076    2.6364   -3.4432 H   0  0  0  0  0  0  0  0  0  0  0  0
   -7.1173    2.3796   -4.3111 H   0  0  0  0  0  0  0  0  0  0  0  0
   -8.7405    0.7735   -5.2424 H   0  0  0  0  0  0  0  0  0  0  0  0
   -8.5133   -1.6318   -4.8131 H   0  0  0  0  0  0  0  0  0  0  0  0
   -6.6887   -2.4251   -3.4852 H   0  0  0  0  0  0  0  0  0  0  0  0
   -4.9964   -0.8877   -2.5066 H   0  0  0  0  0  0  0  0  0  0  0  0
   -5.6585    4.3775   -3.0672 H   0  0  0  0  0  0  0  0  0  0  0  0
   -6.8489    5.2873   -2.0908 H   0  0  0  0  0  0  0  0  0  0  0  0
  1  2  1  0
  2  3  1  0
  2  4  1  0
  4  5  1  0
  5  6  1  0
  6  7  1  0
  7  8  2  0
  7  9  1  0
  9 10  1  0
 10 11  2  0
 11 12  1  0
 12 13  2  0
 13 14  1  0
 14 15  2  0
  5 16  1  0
 16 17  2  0
 16 18  1  0
 18 19  1  0
 19 20  1  0
 20 21  1  0
 21 22  2  0
 22 23  1  0
 23 24  2  0
 24 25  1  0
 25 26  2  0
 19 27  1  0
 27 28  2  0
 27 29  1  0
 29 30  1  0
 30 31  1  0
 31 32  1  0
 32 33  2  0
 33 34  1  0
 34 35  2  0
 35 36  1  0
 36 37  2  0
 30 38  1  0
 38 39  2  0
 38 40  1  0
 40 41  1  0
 41 42  1  0
 42 43  1  0
 43 44  1  0
 43 45  1  0
 41 46  1  0
 46 47  2  0
 46 48  1  0
 48 49  1  0
 49 50  1  0
 50 51  1  0
 51 52  2  0
 52 53  1  0
 53 54  2  0
 54 55  1  0
 55 56  2  0
 49 57  1  0
 57 58  1  0
 57 59  2  0
 15 10  1  0
 26 21  1  0
 37 32  1  0
 56 51  1  0
  1 60  1  0
  1 61  1  0
  1 62  1  0
  2 63  1  0
  3 64  1  0
  3 65  1  0
  3 66  1  0
  4 67  1  0
  4 68  1  0
  5 69  1  6
  6 70  1  0
  9 71  1  0
  9 72  1  0
 11 73  1  0
 12 74  1  0
 13 75  1  0
 14 76  1  0
 15 77  1  0
 18 78  1  0
 19 79  1  1
 20 80  1  0
 20 81  1  0
 22 82  1  0
 23 83  1  0
 24 84  1  0
 25 85  1  0
 26 86  1  0
 29 87  1  0
 30 88  1  1
 31 89  1  0
 31 90  1  0
 33 91  1  0
 34 92  1  0
 35 93  1  0
 36 94  1  0
 37 95  1  0
 40 96  1  0
 41 97  1  6
 42 98  1  0
 42 99  1  0
 43100  1  0
 44101  1  0
 44102  1  0
 44103  1  0
 45104  1  0
 45105  1  0
 45106  1  0
 48107  1  0
 49108  1  1
 50109  1  0
 50110  1  0
 52111  1  0
 53112  1  0
 54113  1  0
 55114  1  0
 56115  1  0
 58116  1  0
 58117  1  0
M  END
$$$$
[H]c1c([H])c(S(=O)(=O)N2C([H])([H])C([H])([H])N(C(=O)c3c([H])c([H])c(-c4c([H])c([H])c(C#N)c([H])c4[H])c([H])c3[H])[C@]([H])(C([H])([H])[H])C2([H])[H])c([H])c([H])c1F
     RDKit          3D

 55 58  0  0  0  0  0  0  0  0999 V2000
   -1.8670   -2.6766    1.3301 C   0  0  0  0  0  0  0  0  0  0  0  0
   -1.8008   -1.1807    1.1422 C   0  0  2  0  0  0  0  0  0  0  0  0
   -3.0620   -0.5550    0.6672 C   0  0  0  0  0  0  0  0  0  0  0  0
   -3.2003   -0.5385   -0.7656 N   0  0  0  0  0  0  0  0  0  0  0  0
   -2.1362   -1.2344   -1.4280 C   0  0  0  0  0  0  0  0  0  0  0  0
   -0.7572   -0.8109   -1.0451 C   0  0  0  0  0  0  0  0  0  0  0  0
   -0.6055   -0.8330    0.3780 N   0  0  0  0  0  0  0  0  0  0  0  0
    0.5496   -0.5662    1.1353 C   0  0  0  0  0  0  0  0  0  0  0  0
    0.3659   -0.6743    2.4341 O   0  0  0  0  0  0  0  0  0  0  0  0
    1.8816   -0.1983    0.7174 C   0  0  0  0  0  0  0  0  0  0  0  0
    2.8445    0.0179    1.7174 C   0  0  0  0  0  0  0  0  0  0  0  0
    4.1190    0.3642    1.4227 C   0  0  0  0  0  0  0  0  0  0  0  0
    4.5655    0.5290    0.1391 C   0  0  0  0  0  0  0  0  0  0  0  0
    3.6481    0.3246   -0.8574 C   0  0  0  0  0  0  0  0  0  0  0  0
    2.3225   -0.0350   -0.5647 C   0  0  0  0  0  0  0  0  0  0  0  0
    5.9440    0.9038   -0.1439 C   0  0  0  0  0  0  0  0  0  0  0  0
    6.6721    1.7125    0.7201 C   0  0  0  0  0  0  0  0  0  0  0  0
    7.9767    2.0571    0.4374 C   0  0  0  0  0  0  0  0  0  0  0  0
    8.6152    1.6170   -0.7093 C   0  0  0  0  0  0  0  0  0  0  0  0
    7.8910    0.8144   -1.5660 C   0  0  0  0  0  0  0  0  0  0  0  0
    6.5860    0.4697   -1.2834 C   0  0  0  0  0  0  0  0  0  0  0  0
    9.9749    1.9760   -1.0027 C   0  0  0  0  0  0  0  0  0  0  0  0
   11.0730    2.2830   -1.2284 N   0  0  0  0  0  0  0  0  0  0  0  0
   -4.7532   -1.0456   -1.2764 S   0  0  0  0  0  0  0  0  0  0  0  0
   -4.9646   -2.4658   -0.8097 O   0  0  0  0  0  0  0  0  0  0  0  0
   -4.7301   -1.1029   -2.7916 O   0  0  0  0  0  0  0  0  0  0  0  0
   -6.0237   -0.0252   -0.6952 C   0  0  0  0  0  0  0  0  0  0  0  0
   -6.4543    1.0622   -1.4192 C   0  0  0  0  0  0  0  0  0  0  0  0
   -7.4827    1.8843   -0.9406 C   0  0  0  0  0  0  0  0  0  0  0  0
   -8.0875    1.6241    0.2668 C   0  0  0  0  0  0  0  0  0  0  0  0
   -9.0967    2.4355    0.7326 F   0  0  0  0  0  0  0  0  0  0  0  0
   -7.6572    0.5358    0.9920 C   0  0  0  0  0  0  0  0  0  0  0  0
   -6.6442   -0.2633    0.5074 C   0  0  0  0  0  0  0  0  0  0  0  0
   -1.1122   -3.1916    0.6720 H   0  0  0  0  0  0  0  0  0  0  0  0
   -1.6183   -3.0071    2.3655 H   0  0  0  0  0  0  0  0  0  0  0  0
   -2.9009   -3.0617    1.1419 H   0  0  0  0  0  0  0  0  0  0  0  0
   -1.6312   -0.7673    2.1781 H   0  0  0  0  0  0  0  0  0  0  0  0
   -3.1924    0.4834    1.0344 H   0  0  0  0  0  0  0  0  0  0  0  0
   -3.9104   -1.1429    1.0738 H   0  0  0  0  0  0  0  0  0  0  0  0
   -2.2841   -1.0911   -2.5341 H   0  0  0  0  0  0  0  0  0  0  0  0
   -2.2592   -2.3184   -1.2668 H   0  0  0  0  0  0  0  0  0  0  0  0
   -0.5493    0.2005   -1.4637 H   0  0  0  0  0  0  0  0  0  0  0  0
   -0.0777   -1.5797   -1.5279 H   0  0  0  0  0  0  0  0  0  0  0  0
    2.5215   -0.1053    2.7684 H   0  0  0  0  0  0  0  0  0  0  0  0
    4.8155    0.5175    2.2420 H   0  0  0  0  0  0  0  0  0  0  0  0
    3.9710    0.4478   -1.8797 H   0  0  0  0  0  0  0  0  0  0  0  0
    1.6877   -0.1707   -1.4016 H   0  0  0  0  0  0  0  0  0  0  0  0
    6.1927    2.0664    1.6199 H   0  0  0  0  0  0  0  0  0  0  0  0
    8.5750    2.6952    1.1029 H   0  0  0  0  0  0  0  0  0  0  0  0
    8.3986    0.4768   -2.4575 H   0  0  0  0  0  0  0  0  0  0  0  0
    6.0414   -0.1593   -1.9684 H   0  0  0  0  0  0  0  0  0  0  0  0
   -6.0401    1.3335   -2.3608 H   0  0  0  0  0  0  0  0  0  0  0  0
   -7.8312    2.7418   -1.4990 H   0  0  0  0  0  0  0  0  0  0  0  0
   -8.1379    0.3342    1.9444 H   0  0  0  0  0  0  0  0  0  0  0  0
   -6.3648   -1.1074    1.1496 H   0  0  0  0  0  0  0  0  0  0  0  0
  1  2  1  0
  2  3  1  0
  3  4  1  0
  4  5  1  0
  5  6  1  0
  6  7  1  0
  7  8  1  0
  8  9  2  0
  8 10  1  0
 10 11  2  0
 11 12  1  0
 12 13  2  0
 13 14  1  0
 14 15  2  0
 13 16  1  0
 16 17  2  0
 17 18  1  0
 18 19  2  0
 19 20  1  0
 20 21  2  0
 19 22  1  0
 22 23  3  0
  4 24  1  0
 24 25  2  0
 24 26  2  0
 24 27  1  0
 27 28  2  0
 28 29  1  0
 29 30  2  0
 30 31  1  0
 30 32  1  0
 32 33  2  0
  7  2  1  0
 15 10  1  0
 21 16  1  0
 33 27  1  0
  1 34  1  0
  1 35  1  0
  1 36  1  0
  2 37  1  1
  3 38  1  0
  3 39  1  0
  5 40  1  0
  5 41  1  0
  6 42  1  0
  6 43  1  0
 11 44  1  0
 12 45  1  0
 14 46  1  0
 15 47  1  0
 17 48  1  0
 18 49  1  0
 20 50  1  0
 21 51  1  0
 28 52  1  0
 29 53  1  0
 32 54  1  0
 33 55  1  0
M  END
$$$$
[H]c1nc(C(F)(F)F)nc(N2C([H])([H])C([H])([H])OC([H])([H])[C@@]2([H])C([H])([H])[H])c1C(=O)N([H])c1c([H])c([H])c(Cl)c(Cl)c1[H]
     RDKit          3D

 43 45  0  0  0  0  0  0  0  0999 V2000
   -1.1355    2.8196    0.2150 C   0  0  0  0  0  0  0  0  0  0  0  0
   -2.0749    1.6665    0.2160 C   0  0  2  0  0  0  0  0  0  0  0  0
   -3.2550    2.1847    1.0921 C   0  0  0  0  0  0  0  0  0  0  0  0
   -3.6676    1.2445    1.9813 O   0  0  0  0  0  0  0  0  0  0  0  0
   -2.5565    0.9538    2.8177 C   0  0  0  0  0  0  0  0  0  0  0  0
   -1.7339   -0.0497    1.9896 C   0  0  0  0  0  0  0  0  0  0  0  0
   -1.7199    0.3625    0.5922 N   0  0  0  0  0  0  0  0  0  0  0  0
   -1.4646   -0.6801   -0.3418 C   0  0  0  0  0  0  0  0  0  0  0  0
   -2.5540   -1.5160   -0.6383 N   0  0  0  0  0  0  0  0  0  0  0  0
   -2.4942   -2.4304   -1.6066 C   0  0  0  0  0  0  0  0  0  0  0  0
   -1.3599   -2.5363   -2.3177 N   0  0  0  0  0  0  0  0  0  0  0  0
   -0.2886   -1.7729   -2.0815 C   0  0  0  0  0  0  0  0  0  0  0  0
   -0.3451   -0.8219   -1.0498 C   0  0  0  0  0  0  0  0  0  0  0  0
    0.9413   -0.2933   -0.6269 C   0  0  0  0  0  0  0  0  0  0  0  0
    1.2475    0.6733    0.0178 O   0  0  0  0  0  0  0  0  0  0  0  0
    2.1454   -1.0523   -1.0230 N   0  0  0  0  0  0  0  0  0  0  0  0
    3.4012   -0.5474   -0.6227 C   0  0  0  0  0  0  0  0  0  0  0  0
    3.6120    0.7947   -0.8728 C   0  0  0  0  0  0  0  0  0  0  0  0
    4.7550    1.4265   -0.4497 C   0  0  0  0  0  0  0  0  0  0  0  0
    5.6810    0.6949    0.2230 C   0  0  0  0  0  0  0  0  0  0  0  0
    7.1370    1.5058    0.7646 Cl  0  0  0  0  0  0  0  0  0  0  0  0
    5.5321   -0.6317    0.4966 C   0  0  0  0  0  0  0  0  0  0  0  0
    6.7137   -1.5926    1.3357 Cl  0  0  0  0  0  0  0  0  0  0  0  0
    4.3583   -1.2508    0.0550 C   0  0  0  0  0  0  0  0  0  0  0  0
   -3.5673   -3.4718   -1.7865 C   0  0  0  0  0  0  0  0  0  0  0  0
   -4.7880   -2.9261   -1.7650 F   0  0  0  0  0  0  0  0  0  0  0  0
   -3.4133   -4.4381   -0.7748 F   0  0  0  0  0  0  0  0  0  0  0  0
   -3.3381   -4.1414   -2.9608 F   0  0  0  0  0  0  0  0  0  0  0  0
   -0.9917    3.2234    1.2569 H   0  0  0  0  0  0  0  0  0  0  0  0
   -1.6569    3.6983   -0.3118 H   0  0  0  0  0  0  0  0  0  0  0  0
   -0.2085    2.7327   -0.3564 H   0  0  0  0  0  0  0  0  0  0  0  0
   -2.5311    1.6890   -0.8325 H   0  0  0  0  0  0  0  0  0  0  0  0
   -4.0944    2.5374    0.4839 H   0  0  0  0  0  0  0  0  0  0  0  0
   -2.9061    3.0732    1.7017 H   0  0  0  0  0  0  0  0  0  0  0  0
   -1.9040    1.8074    2.9470 H   0  0  0  0  0  0  0  0  0  0  0  0
   -2.8745    0.4502    3.7273 H   0  0  0  0  0  0  0  0  0  0  0  0
   -0.7953   -0.2117    2.4705 H   0  0  0  0  0  0  0  0  0  0  0  0
   -2.3461   -1.0033    2.0971 H   0  0  0  0  0  0  0  0  0  0  0  0
    0.6061   -1.8361   -2.6895 H   0  0  0  0  0  0  0  0  0  0  0  0
    2.0361   -1.9046   -1.5309 H   0  0  0  0  0  0  0  0  0  0  0  0
    2.8817    1.3758   -1.4033 H   0  0  0  0  0  0  0  0  0  0  0  0
    4.8216    2.4953   -0.6715 H   0  0  0  0  0  0  0  0  0  0  0  0
    4.1951   -2.3011    0.2328 H   0  0  0  0  0  0  0  0  0  0  0  0
  1  2  1  0
  2  3  1  0
  3  4  1  0
  4  5  1  0
  5  6  1  0
  6  7  1  0
  7  8  1  0
  8  9  2  0
  9 10  1  0
 10 11  2  0
 11 12  1  0
 12 13  2  0
 13 14  1  0
 14 15  2  0
 14 16  1  0
 16 17  1  0
 17 18  2  0
 18 19  1  0
 19 20  2  0
 20 21  1  0
 20 22  1  0
 22 23  1  0
 22 24  2  0
 10 25  1  0
 25 26  1  0
 25 27  1  0
 25 28  1  0
  7  2  1  0
 13  8  1  0
 24 17  1  0
  1 29  1  0
  1 30  1  0
  1 31  1  0
  2 32  1  6
  3 33  1  0
  3 34  1  0
  5 35  1  0
  5 36  1  0
  6 37  1  0
  6 38  1  0
 12 39  1  0
 16 40  1  0
 18 41  1  0
 19 42  1  0
 24 43  1  0
M  END
$$$$
[H]N=C(N([H])[H])N([H])C([H])([H])C([H])([H])C([H])([H])[C@@]([H])(C(=O)N([H])[C@]([H])(C(=O)N([H])[C@]([H])(C(=O)N([H])[H])C([H])([H])c1c([H])c([H])c([H])c([H])c1[H])C([H])([H])c1c([H])n([H])c2c([H])c([H])c([H])c([H])c12)N([H])C(=O)[C@@]([H])(N([H])C(=O)[C@@]([H])(N([H])[H])C([H])([H])c1c([H])c([H])c([H])c([H])c1[H])C([H])(C([H])([H])[H])C([H])([H])[H]
     RDKit          3D

107110  0  0  0  0  0  0  0  0999 V2000
    4.6725    0.5401   -2.2859 C   0  0  0  0  0  0  0  0  0  0  0  0
    4.4097    1.5402   -1.1642 C   0  0  0  0  0  0  0  0  0  0  0  0
    5.3842    2.6710   -1.2414 C   0  0  0  0  0  0  0  0  0  0  0  0
    4.3380    0.8657    0.1702 C   0  0  2  0  0  0  0  0  0  0  0  0
    5.5782    0.1773    0.5124 N   0  0  0  0  0  0  0  0  0  0  0  0
    6.2786    0.5235    1.6990 C   0  0  0  0  0  0  0  0  0  0  0  0
    5.7879    1.4695    2.4186 O   0  0  0  0  0  0  0  0  0  0  0  0
    7.5066   -0.1063    2.1836 C   0  0  1  0  0  0  0  0  0  0  0  0
    7.8965   -1.2451    1.3354 N   0  0  0  0  0  0  0  0  0  0  0  0
    8.6906    0.7782    2.3665 C   0  0  0  0  0  0  0  0  0  0  0  0
    9.1734    1.4384    1.1273 C   0  0  0  0  0  0  0  0  0  0  0  0
    8.7057    2.6806    0.7670 C   0  0  0  0  0  0  0  0  0  0  0  0
    9.1464    3.3069   -0.3735 C   0  0  0  0  0  0  0  0  0  0  0  0
   10.0729    2.7341   -1.2133 C   0  0  0  0  0  0  0  0  0  0  0  0
   10.5284    1.4769   -0.8236 C   0  0  0  0  0  0  0  0  0  0  0  0
   10.1056    0.8346    0.3039 C   0  0  0  0  0  0  0  0  0  0  0  0
    3.2535   -0.1653    0.0785 C   0  0  0  0  0  0  0  0  0  0  0  0
    3.5672   -1.4078    0.1099 O   0  0  0  0  0  0  0  0  0  0  0  0
    1.8991    0.1655   -0.0355 N   0  0  0  0  0  0  0  0  0  0  0  0
    0.8735   -0.9326   -0.1289 C   0  0  1  0  0  0  0  0  0  0  0  0
    0.6765   -1.3701    1.3450 C   0  0  0  0  0  0  0  0  0  0  0  0
   -0.2725   -2.4859    1.4326 C   0  0  0  0  0  0  0  0  0  0  0  0
   -0.4510   -2.9711    2.8862 C   0  0  0  0  0  0  0  0  0  0  0  0
    0.8095   -3.4074    3.4440 N   0  0  0  0  0  0  0  0  0  0  0  0
    1.5086   -4.5639    2.9921 C   0  0  0  0  0  0  0  0  0  0  0  0
    0.8266   -5.7669    2.6518 N   0  0  0  0  0  0  0  0  0  0  0  0
    2.8008   -4.4795    2.8987 N   0  0  0  0  0  0  0  0  0  0  0  0
   -0.3241   -0.4255   -0.7678 C   0  0  0  0  0  0  0  0  0  0  0  0
   -0.3835    0.8449   -0.9761 O   0  0  0  0  0  0  0  0  0  0  0  0
   -1.4614   -1.1226   -1.2078 N   0  0  0  0  0  0  0  0  0  0  0  0
   -2.6459   -0.4639   -1.8352 C   0  0  1  0  0  0  0  0  0  0  0  0
   -3.0659   -1.1797   -3.0074 C   0  0  0  0  0  0  0  0  0  0  0  0
   -4.2084   -0.7499   -3.8107 C   0  0  0  0  0  0  0  0  0  0  0  0
   -4.1994    0.2436   -4.8090 C   0  0  0  0  0  0  0  0  0  0  0  0
   -5.4252    0.3995   -5.2970 N   0  0  0  0  0  0  0  0  0  0  0  0
   -6.2888   -0.4310   -4.6939 C   0  0  0  0  0  0  0  0  0  0  0  0
   -7.6326   -0.6669   -4.8394 C   0  0  0  0  0  0  0  0  0  0  0  0
   -8.2945   -1.6253   -4.0777 C   0  0  0  0  0  0  0  0  0  0  0  0
   -7.5248   -2.3220   -3.1710 C   0  0  0  0  0  0  0  0  0  0  0  0
   -6.1900   -2.0884   -3.0243 C   0  0  0  0  0  0  0  0  0  0  0  0
   -5.5542   -1.1476   -3.7740 C   0  0  0  0  0  0  0  0  0  0  0  0
   -3.5763   -0.0352   -0.8264 C   0  0  0  0  0  0  0  0  0  0  0  0
   -3.1259   -0.3305    0.4007 O   0  0  0  0  0  0  0  0  0  0  0  0
   -4.8189    0.6172   -0.8549 N   0  0  0  0  0  0  0  0  0  0  0  0
   -5.4307    0.9171    0.4719 C   0  0  1  0  0  0  0  0  0  0  0  0
   -6.3533    2.0414    0.2689 C   0  0  0  0  0  0  0  0  0  0  0  0
   -7.0866    2.5527    1.4322 C   0  0  0  0  0  0  0  0  0  0  0  0
   -8.3192    2.0807    1.8003 C   0  0  0  0  0  0  0  0  0  0  0  0
   -8.9600    2.6002    2.8901 C   0  0  0  0  0  0  0  0  0  0  0  0
   -8.4151    3.6152    3.6741 C   0  0  0  0  0  0  0  0  0  0  0  0
   -7.1765    4.0637    3.2725 C   0  0  0  0  0  0  0  0  0  0  0  0
   -6.5072    3.5665    2.1887 C   0  0  0  0  0  0  0  0  0  0  0  0
   -5.9837   -0.3124    1.0655 C   0  0  0  0  0  0  0  0  0  0  0  0
   -6.5430   -0.4322    2.3525 N   0  0  0  0  0  0  0  0  0  0  0  0
   -5.9674   -1.3833    0.3885 O   0  0  0  0  0  0  0  0  0  0  0  0
    5.5698   -0.0773   -2.0862 H   0  0  0  0  0  0  0  0  0  0  0  0
    3.7933   -0.1183   -2.4461 H   0  0  0  0  0  0  0  0  0  0  0  0
    4.8778    1.0825   -3.2350 H   0  0  0  0  0  0  0  0  0  0  0  0
    3.3939    1.9709   -1.3624 H   0  0  0  0  0  0  0  0  0  0  0  0
    6.3395    2.2340   -1.6513 H   0  0  0  0  0  0  0  0  0  0  0  0
    5.6457    3.0982   -0.2447 H   0  0  0  0  0  0  0  0  0  0  0  0
    5.0780    3.4596   -1.9414 H   0  0  0  0  0  0  0  0  0  0  0  0
    4.0760    1.5887    0.9418 H   0  0  0  0  0  0  0  0  0  0  0  0
    5.9104   -0.5554   -0.1381 H   0  0  0  0  0  0  0  0  0  0  0  0
    7.3043   -0.5823    3.1860 H   0  0  0  0  0  0  0  0  0  0  0  0
    8.8191   -1.5507    1.6911 H   0  0  0  0  0  0  0  0  0  0  0  0
    7.9238   -0.9640    0.3347 H   0  0  0  0  0  0  0  0  0  0  0  0
    9.5105    0.1872    2.8204 H   0  0  0  0  0  0  0  0  0  0  0  0
    8.4449    1.5823    3.1185 H   0  0  0  0  0  0  0  0  0  0  0  0
    7.9703    3.1718    1.3987 H   0  0  0  0  0  0  0  0  0  0  0  0
    8.7804    4.2951   -0.6729 H   0  0  0  0  0  0  0  0  0  0  0  0
   10.4477    3.1936   -2.1213 H   0  0  0  0  0  0  0  0  0  0  0  0
   11.2603    1.0186   -1.4773 H   0  0  0  0  0  0  0  0  0  0  0  0
   10.4709   -0.1524    0.5926 H   0  0  0  0  0  0  0  0  0  0  0  0
    1.5364    1.1108   -0.0624 H   0  0  0  0  0  0  0  0  0  0  0  0
    1.3993   -1.7832   -0.5618 H   0  0  0  0  0  0  0  0  0  0  0  0
    1.6779   -1.7392    1.6697 H   0  0  0  0  0  0  0  0  0  0  0  0
    0.4063   -0.4783    1.9525 H   0  0  0  0  0  0  0  0  0  0  0  0
    0.1764   -3.3677    0.8988 H   0  0  0  0  0  0  0  0  0  0  0  0
   -1.2769   -2.3508    1.0364 H   0  0  0  0  0  0  0  0  0  0  0  0
   -0.9582   -2.2226    3.4901 H   0  0  0  0  0  0  0  0  0  0  0  0
   -1.1116   -3.8714    2.8363 H   0  0  0  0  0  0  0  0  0  0  0  0
    1.2466   -2.8494    4.2292 H   0  0  0  0  0  0  0  0  0  0  0  0
    0.6723   -5.9393    1.6384 H   0  0  0  0  0  0  0  0  0  0  0  0
    0.4760   -6.4725    3.3245 H   0  0  0  0  0  0  0  0  0  0  0  0
    3.3197   -5.3109    2.5728 H   0  0  0  0  0  0  0  0  0  0  0  0
   -1.5443   -2.1325   -1.1547 H   0  0  0  0  0  0  0  0  0  0  0  0
   -2.1471    0.5405   -2.1693 H   0  0  0  0  0  0  0  0  0  0  0  0
   -2.2296   -1.3334   -3.7702 H   0  0  0  0  0  0  0  0  0  0  0  0
   -3.2887   -2.2640   -2.6988 H   0  0  0  0  0  0  0  0  0  0  0  0
   -3.3017    0.7644   -5.0901 H   0  0  0  0  0  0  0  0  0  0  0  0
   -5.6731    1.0891   -6.0532 H   0  0  0  0  0  0  0  0  0  0  0  0
   -8.2560   -0.1327   -5.5440 H   0  0  0  0  0  0  0  0  0  0  0  0
   -9.3438   -1.8199   -4.1838 H   0  0  0  0  0  0  0  0  0  0  0  0
   -7.9587   -3.0916   -2.5334 H   0  0  0  0  0  0  0  0  0  0  0  0
   -5.6050   -2.6454   -2.3087 H   0  0  0  0  0  0  0  0  0  0  0  0
   -5.3180    0.9095   -1.6885 H   0  0  0  0  0  0  0  0  0  0  0  0
   -4.5545    1.1909    1.1136 H   0  0  0  0  0  0  0  0  0  0  0  0
   -5.8103    2.9311   -0.1746 H   0  0  0  0  0  0  0  0  0  0  0  0
   -7.1150    1.8134   -0.5428 H   0  0  0  0  0  0  0  0  0  0  0  0
   -8.8095    1.2703    1.2189 H   0  0  0  0  0  0  0  0  0  0  0  0
   -9.9468    2.2208    3.1840 H   0  0  0  0  0  0  0  0  0  0  0  0
   -8.9273    4.0222    4.5377 H   0  0  0  0  0  0  0  0  0  0  0  0
   -6.6931    4.8588    3.8352 H   0  0  0  0  0  0  0  0  0  0  0  0
   -5.5179    3.9656    1.9121 H   0  0  0  0  0  0  0  0  0  0  0  0
   -7.2846   -1.1177    2.5912 H   0  0  0  0  0  0  0  0  0  0  0  0
   -6.1605    0.2265    3.0978 H   0  0  0  0  0  0  0  0  0  0  0  0
  1  2  1  0
  2  3  1  0
  2  4  1  0
  4  5  1  0
  5  6  1  0
  6  7  2  0
  6  8  1  0
  8  9  1  0
  8 10  1  0
 10 11  1  0
 11 12  2  0
 12 13  1  0
 13 14  2  0
 14 15  1  0
 15 16  2  0
  4 17  1  0
 17 18  2  0
 17 19  1  0
 19 20  1  0
 20 21  1  0
 21 22  1  0
 22 23  1  0
 23 24  1  0
 24 25  1  0
 25 26  1  0
 25 27  2  3
 20 28  1  0
 28 29  2  0
 28 30  1  0
 30 31  1  0
 31 32  1  0
 32 33  1  0
 33 34  2  0
 34 35  1  0
 35 36  1  0
 36 37  2  0
 37 38  1  0
 38 39  2  0
 39 40  1  0
 40 41  2  0
 31 42  1  0
 42 43  2  0
 42 44  1  0
 44 45  1  0
 45 46  1  0
 46 47  1  0
 47 48  2  0
 48 49  1  0
 49 50  2  0
 50 51  1  0
 51 52  2  0
 45 53  1  0
 53 54  1  0
 53 55  2  0
 16 11  1  0
 41 33  1  0
 52 47  1  0
 41 36  1  0
  1 56  1  0
  1 57  1  0
  1 58  1  0
  2 59  1  0
  3 60  1  0
  3 61  1  0
  3 62  1  0
  4 63  1  1
  5 64  1  0
  8 65  1  1
  9 66  1  0
  9 67  1  0
 10 68  1  0
 10 69  1  0
 12 70  1  0
 13 71  1  0
 14 72  1  0
 15 73  1  0
 16 74  1  0
 19 75  1  0
 20 76  1  6
 21 77  1  0
 21 78  1  0
 22 79  1  0
 22 80  1  0
 23 81  1  0
 23 82  1  0
 24 83  1  0
 26 84  1  0
 26 85  1  0
 27 86  1  0
 30 87  1  0
 31 88  1  6
 32 89  1  0
 32 90  1  0
 34 91  1  0
 35 92  1  0
 37 93  1  0
 38 94  1  0
 39 95  1  0
 40 96  1  0
 44 97  1  0
 45 98  1  1
 46 99  1  0
 46100  1  0
 48101  1  0
 49102  1  0
 50103  1  0
 51104  1  0
 52105  1  0
 54106  1  0
 54107  1  0
M  END
$$$$
[H]OC(=O)[C@@]1([H])O[C@@]([H])(n2c([H])nc3c(N([H])C([H])([H])c4c([H])c([H])c(-c5c([H])c([H])c([H])c([H])c5[H])c([H])c4[H])nc([H])nc32)[C@]([H])(O[H])[C@]1([H])O[H]
     RDKit          3D

 54 58  0  0  0  0  0  0  0  0999 V2000
   -3.7423   -3.2155   -1.8834 O   0  0  0  0  0  0  0  0  0  0  0  0
   -4.9878   -2.6136   -2.0735 C   0  0  0  0  0  0  0  0  0  0  0  0
   -5.7465   -3.1360   -2.9201 O   0  0  0  0  0  0  0  0  0  0  0  0
   -5.3856   -1.3984   -1.2934 C   0  0  1  0  0  0  0  0  0  0  0  0
   -4.3612   -1.0250   -0.4228 O   0  0  0  0  0  0  0  0  0  0  0  0
   -4.5817    0.3233   -0.1473 C   0  0  2  0  0  0  0  0  0  0  0  0
   -4.7991    0.8723   -1.5543 C   0  0  2  0  0  0  0  0  0  0  0  0
   -5.5439    2.0364   -1.4274 O   0  0  0  0  0  0  0  0  0  0  0  0
   -5.5683   -0.2371   -2.2383 C   0  0  2  0  0  0  0  0  0  0  0  0
   -6.9085    0.0786   -2.4017 O   0  0  0  0  0  0  0  0  0  0  0  0
   -3.4547    0.9658    0.4467 N   0  0  0  0  0  0  0  0  0  0  0  0
   -3.3233    2.2979    0.5641 C   0  0  0  0  0  0  0  0  0  0  0  0
   -2.1544    2.5794    1.1658 N   0  0  0  0  0  0  0  0  0  0  0  0
   -1.5556    1.3927    1.4232 C   0  0  0  0  0  0  0  0  0  0  0  0
   -0.3529    1.1061    2.0205 C   0  0  0  0  0  0  0  0  0  0  0  0
    0.4554    2.1774    2.4726 N   0  0  0  0  0  0  0  0  0  0  0  0
    1.7389    2.0164    3.1134 C   0  0  0  0  0  0  0  0  0  0  0  0
    2.6514    1.3373    2.1457 C   0  0  0  0  0  0  0  0  0  0  0  0
    3.0042    1.9667    0.9706 C   0  0  0  0  0  0  0  0  0  0  0  0
    3.8521    1.3177    0.1083 C   0  0  0  0  0  0  0  0  0  0  0  0
    4.3642    0.0683    0.3651 C   0  0  0  0  0  0  0  0  0  0  0  0
    3.9888   -0.5416    1.5613 C   0  0  0  0  0  0  0  0  0  0  0  0
    3.1391    0.0978    2.4355 C   0  0  0  0  0  0  0  0  0  0  0  0
    5.2540   -0.6404   -0.5178 C   0  0  0  0  0  0  0  0  0  0  0  0
    5.1564   -0.4710   -1.8765 C   0  0  0  0  0  0  0  0  0  0  0  0
    6.0140   -1.1511   -2.7514 C   0  0  0  0  0  0  0  0  0  0  0  0
    6.9674   -2.0004   -2.2470 C   0  0  0  0  0  0  0  0  0  0  0  0
    7.0666   -2.1713   -0.8880 C   0  0  0  0  0  0  0  0  0  0  0  0
    6.2151   -1.4950   -0.0360 C   0  0  0  0  0  0  0  0  0  0  0  0
   -0.0317   -0.1880    2.1337 N   0  0  0  0  0  0  0  0  0  0  0  0
   -0.8264   -1.1805    1.6939 C   0  0  0  0  0  0  0  0  0  0  0  0
   -1.9946   -0.8744    1.1148 N   0  0  0  0  0  0  0  0  0  0  0  0
   -2.3779    0.3956    0.9692 C   0  0  0  0  0  0  0  0  0  0  0  0
   -3.6343   -3.9809   -1.2106 H   0  0  0  0  0  0  0  0  0  0  0  0
   -6.3056   -1.6602   -0.7445 H   0  0  0  0  0  0  0  0  0  0  0  0
   -5.4973    0.3817    0.4709 H   0  0  0  0  0  0  0  0  0  0  0  0
   -3.8049    1.0291   -2.0059 H   0  0  0  0  0  0  0  0  0  0  0  0
   -5.9277    2.3408   -2.2873 H   0  0  0  0  0  0  0  0  0  0  0  0
   -5.1078   -0.4577   -3.2015 H   0  0  0  0  0  0  0  0  0  0  0  0
   -7.3527    0.2985   -1.5651 H   0  0  0  0  0  0  0  0  0  0  0  0
   -4.0242    3.0621    0.2394 H   0  0  0  0  0  0  0  0  0  0  0  0
    0.1196    3.1631    2.3440 H   0  0  0  0  0  0  0  0  0  0  0  0
    1.6784    1.3663    4.0101 H   0  0  0  0  0  0  0  0  0  0  0  0
    2.1500    3.0194    3.3841 H   0  0  0  0  0  0  0  0  0  0  0  0
    2.6058    2.9697    0.7423 H   0  0  0  0  0  0  0  0  0  0  0  0
    4.1463    1.7969   -0.8293 H   0  0  0  0  0  0  0  0  0  0  0  0
    4.3799   -1.5350    1.7928 H   0  0  0  0  0  0  0  0  0  0  0  0
    2.8757   -0.4330    3.3681 H   0  0  0  0  0  0  0  0  0  0  0  0
    4.4175    0.1897   -2.3087 H   0  0  0  0  0  0  0  0  0  0  0  0
    5.9505   -1.0289   -3.8177 H   0  0  0  0  0  0  0  0  0  0  0  0
    7.6372   -2.5317   -2.9317 H   0  0  0  0  0  0  0  0  0  0  0  0
    7.8074   -2.8321   -0.4857 H   0  0  0  0  0  0  0  0  0  0  0  0
    6.2769   -1.6170    1.0488 H   0  0  0  0  0  0  0  0  0  0  0  0
   -0.5620   -2.2311    1.7877 H   0  0  0  0  0  0  0  0  0  0  0  0
  1  2  1  0
  2  3  2  0
  2  4  1  0
  4  5  1  0
  5  6  1  0
  6  7  1  0
  7  8  1  0
  7  9  1  0
  9 10  1  0
  6 11  1  0
 11 12  1  0
 12 13  2  0
 13 14  1  0
 14 15  2  0
 15 16  1  0
 16 17  1  0
 17 18  1  0
 18 19  2  0
 19 20  1  0
 20 21  2  0
 21 22  1  0
 22 23  2  0
 21 24  1  0
 24 25  2  0
 25 26  1  0
 26 27  2  0
 27 28  1  0
 28 29  2  0
 15 30  1  0
 30 31  2  0
 31 32  1  0
 32 33  2  0
  9  4  1  0
 33 11  1  0
 33 14  1  0
 23 18  1  0
 29 24  1  0
  1 34  1  0
  4 35  1  1
  6 36  1  1
  7 37  1  6
  8 38  1  0
  9 39  1  6
 10 40  1  0
 12 41  1  0
 16 42  1  0
 17 43  1  0
 17 44  1  0
 19 45  1  0
 20 46  1  0
 22 47  1  0
 23 48  1  0
 25 49  1  0
 26 50  1  0
 27 51  1  0
 28 52  1  0
 29 53  1  0
 31 54  1  0
M  END
$$$$
[H]O[C@]1([H])[C@]([H])(n2c([H])nc3c(N([H])[H])nc([H])nc32)O[C@]1([H])C([H])([H])OP(=O)(O[H])OP(=O)(O[H])OP(=O)(O[H])OP(=O)(O[H])O[H]
     RDKit          3D

 48 50  0  0  0  0  0  0  0  0999 V2000
   -7.7544    1.5766   -1.3066 N   0  0  0  0  0  0  0  0  0  0  0  0
   -6.7242    1.4045   -0.3531 C   0  0  0  0  0  0  0  0  0  0  0  0
   -6.4614    2.3454    0.5838 N   0  0  0  0  0  0  0  0  0  0  0  0
   -5.4849    2.2017    1.5013 C   0  0  0  0  0  0  0  0  0  0  0  0
   -4.7087    1.0902    1.5281 N   0  0  0  0  0  0  0  0  0  0  0  0
   -4.9254    0.1246    0.6221 C   0  0  0  0  0  0  0  0  0  0  0  0
   -4.3339   -1.0853    0.3871 N   0  0  0  0  0  0  0  0  0  0  0  0
   -4.9362   -1.6690   -0.6522 C   0  0  0  0  0  0  0  0  0  0  0  0
   -5.8959   -0.8424   -1.0714 N   0  0  0  0  0  0  0  0  0  0  0  0
   -5.9285    0.2732   -0.3196 C   0  0  0  0  0  0  0  0  0  0  0  0
   -3.2434   -1.5954    1.1654 C   0  0  2  0  0  0  0  0  0  0  0  0
   -2.3995   -0.5643    1.6180 O   0  0  0  0  0  0  0  0  0  0  0  0
   -1.2422   -1.0632    1.0252 C   0  0  2  0  0  0  0  0  0  0  0  0
   -0.5211   -0.0689    0.1449 C   0  0  0  0  0  0  0  0  0  0  0  0
    0.6268   -0.6184   -0.4217 O   0  0  0  0  0  0  0  0  0  0  0  0
    1.4003    0.4958   -1.3846 P   0  0  0  0  0  0  0  0  0  0  0  0
    1.1933    0.0477   -3.0230 O   0  0  0  0  0  0  0  0  0  0  0  0
    0.8001    1.8595   -1.1277 O   0  0  0  0  0  0  0  0  0  0  0  0
    3.0500    0.6036   -1.1120 O   0  0  0  0  0  0  0  0  0  0  0  0
    3.4587    0.5162    0.5155 P   0  0  0  0  0  0  0  0  0  0  0  0
    3.2211    2.0547    1.1862 O   0  0  0  0  0  0  0  0  0  0  0  0
    2.5837   -0.4494    1.2758 O   0  0  0  0  0  0  0  0  0  0  0  0
    5.1019    0.1517    0.6841 O   0  0  0  0  0  0  0  0  0  0  0  0
    5.7924   -0.0280   -0.8242 P   0  0  0  0  0  0  0  0  0  0  0  0
    5.2599   -1.4984   -1.5023 O   0  0  0  0  0  0  0  0  0  0  0  0
    5.2984    1.1022   -1.7201 O   0  0  0  0  0  0  0  0  0  0  0  0
    7.4682    0.0456   -0.7996 O   0  0  0  0  0  0  0  0  0  0  0  0
    8.1355   -0.2941    0.6887 P   0  0  0  0  0  0  0  0  0  0  0  0
    9.1796    0.9930    1.1129 O   0  0  0  0  0  0  0  0  0  0  0  0
    7.0150   -0.5869    1.8920 O   0  0  0  0  0  0  0  0  0  0  0  0
    9.0275   -1.5319    0.5668 O   0  0  0  0  0  0  0  0  0  0  0  0
   -2.0806   -2.0790    0.3236 C   0  0  2  0  0  0  0  0  0  0  0  0
   -2.3004   -1.9085   -1.0182 O   0  0  0  0  0  0  0  0  0  0  0  0
   -7.5622    2.0707   -2.1880 H   0  0  0  0  0  0  0  0  0  0  0  0
   -8.6924    1.2021   -1.1058 H   0  0  0  0  0  0  0  0  0  0  0  0
   -5.2754    2.9568    2.2515 H   0  0  0  0  0  0  0  0  0  0  0  0
   -4.6934   -2.6188   -1.0679 H   0  0  0  0  0  0  0  0  0  0  0  0
   -3.5100   -2.2577    2.0035 H   0  0  0  0  0  0  0  0  0  0  0  0
   -0.5748   -1.5234    1.7707 H   0  0  0  0  0  0  0  0  0  0  0  0
   -0.1513    0.7398    0.8416 H   0  0  0  0  0  0  0  0  0  0  0  0
   -1.1775    0.4254   -0.5689 H   0  0  0  0  0  0  0  0  0  0  0  0
    1.2033   -0.9392   -3.1138 H   0  0  0  0  0  0  0  0  0  0  0  0
    3.6776    2.7357    0.6286 H   0  0  0  0  0  0  0  0  0  0  0  0
    4.9129   -1.3540   -2.4028 H   0  0  0  0  0  0  0  0  0  0  0  0
    9.3227    1.6042    0.3398 H   0  0  0  0  0  0  0  0  0  0  0  0
    7.1465    0.0887    2.6065 H   0  0  0  0  0  0  0  0  0  0  0  0
   -1.8652   -3.1376    0.5532 H   0  0  0  0  0  0  0  0  0  0  0  0
   -2.4324   -0.9961   -1.3213 H   0  0  0  0  0  0  0  0  0  0  0  0
  1  2  1  0
  2  3  2  0
  3  4  1  0
  4  5  2  0
  5  6  1  0
  6  7  1  0
  7  8  1  0
  8  9  2  0
  9 10  1  0
  7 11  1  0
 11 12  1  0
 12 13  1  0
 13 14  1  0
 14 15  1  0
 15 16  1  0
 16 17  1  0
 16 18  2  0
 16 19  1  0
 19 20  1  0
 20 21  1  0
 20 22  2  0
 20 23  1  0
 23 24  1  0
 24 25  1  0
 24 26  2  0
 24 27  1  0
 27 28  1  0
 28 29  1  0
 28 30  1  0
 28 31  2  0
 13 32  1  0
 32 33  1  0
 10  2  1  0
 32 11  1  0
 10  6  2  0
  1 34  1  0
  1 35  1  0
  4 36  1  0
  8 37  1  0
 11 38  1  1
 13 39  1  1
 14 40  1  0
 14 41  1  0
 17 42  1  0
 21 43  1  0
 25 44  1  0
 29 45  1  0
 30 46  1  0
 32 47  1  6
 33 48  1  0
M  END
$$$$
[H]c1c([H])c([H])c(N([H])C(=O)N([H])C2([H])C([H])([H])C([H])([H])N(C(=O)N([H])c3c([H])c([H])c(C(F)(F)F)c([H])c3[H])C([H])([H])C2([H])[H])c([H])c1[H]
     RDKit          3D

 50 52  0  0  0  0  0  0  0  0999 V2000
    9.4231   -1.3705    0.9658 F   0  0  0  0  0  0  0  0  0  0  0  0
    8.9667   -0.2419    0.3373 C   0  0  0  0  0  0  0  0  0  0  0  0
    9.2367    0.8562    1.1680 F   0  0  0  0  0  0  0  0  0  0  0  0
    9.6929   -0.0630   -0.8214 F   0  0  0  0  0  0  0  0  0  0  0  0
    7.5064   -0.3040    0.0814 C   0  0  0  0  0  0  0  0  0  0  0  0
    6.7408   -1.4050    0.3616 C   0  0  0  0  0  0  0  0  0  0  0  0
    5.3556   -1.3982    0.1460 C   0  0  0  0  0  0  0  0  0  0  0  0
    4.7077   -0.3053   -0.3498 C   0  0  0  0  0  0  0  0  0  0  0  0
    3.3032   -0.1878   -0.5055 N   0  0  0  0  0  0  0  0  0  0  0  0
    2.3279   -0.9621    0.1629 C   0  0  0  0  0  0  0  0  0  0  0  0
    2.6573   -1.8579    0.9586 O   0  0  0  0  0  0  0  0  0  0  0  0
    0.9529   -0.7482   -0.0386 N   0  0  0  0  0  0  0  0  0  0  0  0
   -0.0965   -1.5333    0.5907 C   0  0  0  0  0  0  0  0  0  0  0  0
   -1.3821   -0.7993    0.5980 C   0  0  0  0  0  0  0  0  0  0  0  0
   -1.3137    0.7186    0.7319 C   0  0  0  0  0  0  0  0  0  0  0  0
   -0.0637    1.3277    0.2325 C   0  0  0  0  0  0  0  0  0  0  0  0
    0.4540    0.3331   -0.8659 C   0  0  0  0  0  0  0  0  0  0  0  0
   -2.3874    1.2531   -0.1421 N   0  0  0  0  0  0  0  0  0  0  0  0
   -3.7269    0.7750    0.1090 C   0  0  0  0  0  0  0  0  0  0  0  0
   -3.9566   -0.0283    1.0108 O   0  0  0  0  0  0  0  0  0  0  0  0
   -4.7053    1.3157   -0.7806 N   0  0  0  0  0  0  0  0  0  0  0  0
   -6.0262    0.7802   -0.6240 C   0  0  0  0  0  0  0  0  0  0  0  0
   -7.0078    1.3273    0.1476 C   0  0  0  0  0  0  0  0  0  0  0  0
   -8.2614    0.7345    0.2677 C   0  0  0  0  0  0  0  0  0  0  0  0
   -8.5496   -0.4474   -0.4066 C   0  0  0  0  0  0  0  0  0  0  0  0
   -7.5677   -1.0038   -1.1896 C   0  0  0  0  0  0  0  0  0  0  0  0
   -6.3291   -0.4134   -1.3036 C   0  0  0  0  0  0  0  0  0  0  0  0
    5.4932    0.8206   -0.6393 C   0  0  0  0  0  0  0  0  0  0  0  0
    6.8537    0.7917   -0.4188 C   0  0  0  0  0  0  0  0  0  0  0  0
    7.2273   -2.2855    0.7577 H   0  0  0  0  0  0  0  0  0  0  0  0
    4.8191   -2.3075    0.3760 H   0  0  0  0  0  0  0  0  0  0  0  0
    2.9928    0.5669   -1.1977 H   0  0  0  0  0  0  0  0  0  0  0  0
   -0.2323   -2.4697   -0.0366 H   0  0  0  0  0  0  0  0  0  0  0  0
    0.1959   -1.7957    1.6231 H   0  0  0  0  0  0  0  0  0  0  0  0
   -2.0880   -1.0621   -0.2203 H   0  0  0  0  0  0  0  0  0  0  0  0
   -1.9351   -1.1788    1.5280 H   0  0  0  0  0  0  0  0  0  0  0  0
   -1.6285    0.9673    1.7902 H   0  0  0  0  0  0  0  0  0  0  0  0
   -0.2317    2.3219   -0.2187 H   0  0  0  0  0  0  0  0  0  0  0  0
    0.7799    1.3663    0.9537 H   0  0  0  0  0  0  0  0  0  0  0  0
   -0.4315   -0.0806   -1.4137 H   0  0  0  0  0  0  0  0  0  0  0  0
    1.1402    0.8641   -1.4745 H   0  0  0  0  0  0  0  0  0  0  0  0
   -2.1881    1.9133   -0.8559 H   0  0  0  0  0  0  0  0  0  0  0  0
   -4.5253    2.0119   -1.4855 H   0  0  0  0  0  0  0  0  0  0  0  0
   -6.7816    2.2582    0.6638 H   0  0  0  0  0  0  0  0  0  0  0  0
   -9.0386    1.1760    0.8927 H   0  0  0  0  0  0  0  0  0  0  0  0
   -9.5306   -0.8642   -0.2742 H   0  0  0  0  0  0  0  0  0  0  0  0
   -7.8032   -1.9168   -1.7183 H   0  0  0  0  0  0  0  0  0  0  0  0
   -5.5232   -0.8249   -1.9321 H   0  0  0  0  0  0  0  0  0  0  0  0
    5.0183    1.6989   -1.0394 H   0  0  0  0  0  0  0  0  0  0  0  0
    7.4661    1.6768   -0.6385 H   0  0  0  0  0  0  0  0  0  0  0  0
  1  2  1  0
  2  3  1  0
  2  4  1  0
  2  5  1  0
  5  6  2  0
  6  7  1  0
  7  8  2  0
  8  9  1  0
  9 10  1  0
 10 11  2  0
 10 12  1  0
 12 13  1  0
 13 14  1  0
 14 15  1  0
 15 16  1  0
 16 17  1  0
 15 18  1  0
 18 19  1  0
 19 20  2  0
 19 21  1  0
 21 22  1  0
 22 23  2  0
 23 24  1  0
 24 25  2  0
 25 26  1  0
 26 27  2  0
  8 28  1  0
 28 29  2  0
 29  5  1  0
 17 12  1  0
 27 22  1  0
  6 30  1  0
  7 31  1  0
  9 32  1  0
 13 33  1  0
 13 34  1  0
 14 35  1  0
 14 36  1  0
 15 37  1  0
 16 38  1  0
 16 39  1  0
 17 40  1  0
 17 41  1  0
 18 42  1  0
 21 43  1  0
 23 44  1  0
 24 45  1  0
 25 46  1  0
 26 47  1  0
 27 48  1  0
 28 49  1  0
 29 50  1  0
M  END
$$$$
[H]c1c([H])c(S(=O)(=O)N2C([H])([H])C([H])([H])C([H])(N([H])C(=O)c3c([H])n([H])c4c([H])c([H])c([H])c([H])c34)C([H])([H])C2([H])[H])c([H])c([H])c1C(F)(F)F
     RDKit          3D

 51 54  0  0  0  0  0  0  0  0999 V2000
   -8.3118    1.4474   -1.9294 F   0  0  0  0  0  0  0  0  0  0  0  0
   -8.3745    1.0063   -0.6385 C   0  0  0  0  0  0  0  0  0  0  0  0
   -9.1475   -0.1252   -0.5773 F   0  0  0  0  0  0  0  0  0  0  0  0
   -8.9656    1.9715    0.1768 F   0  0  0  0  0  0  0  0  0  0  0  0
   -7.0164    0.7150   -0.0596 C   0  0  0  0  0  0  0  0  0  0  0  0
   -6.0620    1.6764    0.0985 C   0  0  0  0  0  0  0  0  0  0  0  0
   -4.8211    1.3653    0.6502 C   0  0  0  0  0  0  0  0  0  0  0  0
   -4.5088    0.0999    1.0508 C   0  0  0  0  0  0  0  0  0  0  0  0
   -5.4927   -0.8769    0.8834 C   0  0  0  0  0  0  0  0  0  0  0  0
   -6.7173   -0.5817    0.3428 C   0  0  0  0  0  0  0  0  0  0  0  0
   -3.0259   -0.3846    1.7768 S   0  0  0  0  0  0  0  0  0  0  0  0
   -3.2150   -1.6192    2.6555 O   0  0  0  0  0  0  0  0  0  0  0  0
   -2.5936    0.6996    2.7738 O   0  0  0  0  0  0  0  0  0  0  0  0
   -1.7493   -0.7087    0.7244 N   0  0  0  0  0  0  0  0  0  0  0  0
   -1.2651    0.3436   -0.0842 C   0  0  0  0  0  0  0  0  0  0  0  0
    0.2301    0.5939    0.1600 C   0  0  0  0  0  0  0  0  0  0  0  0
    0.8872   -0.7081   -0.3159 C   0  0  0  0  0  0  0  0  0  0  0  0
    0.4297   -1.8677    0.5085 C   0  0  0  0  0  0  0  0  0  0  0  0
   -0.8439   -1.6430    1.2630 C   0  0  0  0  0  0  0  0  0  0  0  0
    2.3339   -0.5616   -0.2940 N   0  0  0  0  0  0  0  0  0  0  0  0
    3.0981   -0.2565   -1.4426 C   0  0  0  0  0  0  0  0  0  0  0  0
    2.5507   -0.1010   -2.5628 O   0  0  0  0  0  0  0  0  0  0  0  0
    4.5562   -0.1105   -1.3942 C   0  0  0  0  0  0  0  0  0  0  0  0
    5.3875   -0.4523   -2.4678 C   0  0  0  0  0  0  0  0  0  0  0  0
    6.6514   -0.2886   -2.0723 N   0  0  0  0  0  0  0  0  0  0  0  0
    6.6757    0.1415   -0.8014 C   0  0  0  0  0  0  0  0  0  0  0  0
    7.7213    0.4632    0.0539 C   0  0  0  0  0  0  0  0  0  0  0  0
    7.4861    0.9001    1.3334 C   0  0  0  0  0  0  0  0  0  0  0  0
    6.1903    1.0168    1.7564 C   0  0  0  0  0  0  0  0  0  0  0  0
    5.1258    0.7010    0.9214 C   0  0  0  0  0  0  0  0  0  0  0  0
    5.3788    0.2584   -0.3664 C   0  0  0  0  0  0  0  0  0  0  0  0
   -6.2341    2.6947   -0.1958 H   0  0  0  0  0  0  0  0  0  0  0  0
   -4.0933    2.1395    0.7576 H   0  0  0  0  0  0  0  0  0  0  0  0
   -5.3076   -1.9219    1.1818 H   0  0  0  0  0  0  0  0  0  0  0  0
   -7.5108   -1.3180    0.2015 H   0  0  0  0  0  0  0  0  0  0  0  0
   -1.3230   -0.0035   -1.1619 H   0  0  0  0  0  0  0  0  0  0  0  0
   -1.8653    1.2585   -0.0289 H   0  0  0  0  0  0  0  0  0  0  0  0
    0.4626    0.7657    1.2103 H   0  0  0  0  0  0  0  0  0  0  0  0
    0.5416    1.3794   -0.5381 H   0  0  0  0  0  0  0  0  0  0  0  0
    0.5469   -0.8426   -1.3574 H   0  0  0  0  0  0  0  0  0  0  0  0
    0.4159   -2.8309   -0.0471 H   0  0  0  0  0  0  0  0  0  0  0  0
    1.2476   -2.0253    1.2837 H   0  0  0  0  0  0  0  0  0  0  0  0
   -0.6236   -1.4761    2.3527 H   0  0  0  0  0  0  0  0  0  0  0  0
   -1.3779   -2.6485    1.2470 H   0  0  0  0  0  0  0  0  0  0  0  0
    2.7977   -0.7295    0.6487 H   0  0  0  0  0  0  0  0  0  0  0  0
    5.0690   -0.7924   -3.4642 H   0  0  0  0  0  0  0  0  0  0  0  0
    7.5173   -0.4724   -2.6719 H   0  0  0  0  0  0  0  0  0  0  0  0
    8.7250    0.3521   -0.3162 H   0  0  0  0  0  0  0  0  0  0  0  0
    8.3127    1.1514    2.0066 H   0  0  0  0  0  0  0  0  0  0  0  0
    5.9813    1.3696    2.7663 H   0  0  0  0  0  0  0  0  0  0  0  0
    4.1259    0.8359    1.2871 H   0  0  0  0  0  0  0  0  0  0  0  0
  1  2  1  0
  2  3  1  0
  2  4  1  0
  2  5  1  0
  5  6  2  0
  6  7  1  0
  7  8  2  0
  8  9  1  0
  9 10  2  0
  8 11  1  0
 11 12  2  0
 11 13  2  0
 11 14  1  0
 14 15  1  0
 15 16  1  0
 16 17  1  0
 17 18  1  0
 18 19  1  0
 17 20  1  0
 20 21  1  0
 21 22  2  0
 21 23  1  0
 23 24  2  0
 24 25  1  0
 25 26  1  0
 26 27  2  0
 27 28  1  0
 28 29  2  0
 29 30  1  0
 30 31  2  0
 10  5  1  0
 19 14  1  0
 31 23  1  0
 31 26  1  0
  6 32  1  0
  7 33  1  0
  9 34  1  0
 10 35  1  0
 15 36  1  0
 15 37  1  0
 16 38  1  0
 16 39  1  0
 17 40  1  0
 18 41  1  0
 18 42  1  0
 19 43  1  0
 19 44  1  0
 20 45  1  0
 24 46  1  0
 25 47  1  0
 27 48  1  0
 28 49  1  0
 29 50  1  0
 30 51  1  0
M  END
$$$$
[H]c1nc2c([H])c(OC([H])([H])C([H])([H])C([H])([H])N3C([H])([H])C([H])([H])OC([H])([H])C3([H])[H])c(OC([H])([H])[H])c([H])c2c(Oc2c([H])c([H])c(N([H])C(=O)c3nn(C([H])([H])[H])c(=O)n(C([H])([H])[H])c3=O)c([H])c2F)c1[H]
     RDKit          3D

 74 78  0  0  0  0  0  0  0  0999 V2000
   -3.2672   -4.2170   -0.5811 C   0  0  0  0  0  0  0  0  0  0  0  0
   -4.1462   -3.2418   -1.1109 O   0  0  0  0  0  0  0  0  0  0  0  0
   -3.6131   -1.9742   -1.3568 C   0  0  0  0  0  0  0  0  0  0  0  0
   -2.3060   -1.6580   -1.1082 C   0  0  0  0  0  0  0  0  0  0  0  0
   -1.7995   -0.3972   -1.3592 C   0  0  0  0  0  0  0  0  0  0  0  0
   -0.4447   -0.1040   -1.0895 C   0  0  0  0  0  0  0  0  0  0  0  0
    0.3098   -1.1329   -0.5788 O   0  0  0  0  0  0  0  0  0  0  0  0
    1.6558   -0.9905   -0.3543 C   0  0  0  0  0  0  0  0  0  0  0  0
    2.1482   -1.0539    0.9451 C   0  0  0  0  0  0  0  0  0  0  0  0
    3.4573   -0.9289    1.2705 C   0  0  0  0  0  0  0  0  0  0  0  0
    4.3792   -0.7223    0.2373 C   0  0  0  0  0  0  0  0  0  0  0  0
    5.7344   -0.6044    0.5917 N   0  0  0  0  0  0  0  0  0  0  0  0
    6.8371   -0.2712   -0.2162 C   0  0  0  0  0  0  0  0  0  0  0  0
    6.7149   -0.0247   -1.4252 O   0  0  0  0  0  0  0  0  0  0  0  0
    8.2073   -0.2029    0.3624 C   0  0  0  0  0  0  0  0  0  0  0  0
    8.4178   -0.4478    1.6568 N   0  0  0  0  0  0  0  0  0  0  0  0
    9.6077   -0.3994    2.2088 N   0  0  0  0  0  0  0  0  0  0  0  0
    9.7894   -0.6762    3.6337 C   0  0  0  0  0  0  0  0  0  0  0  0
   10.6595   -0.0891    1.4328 C   0  0  0  0  0  0  0  0  0  0  0  0
   11.7884   -0.0519    1.9977 O   0  0  0  0  0  0  0  0  0  0  0  0
   10.5065    0.1669    0.1237 N   0  0  0  0  0  0  0  0  0  0  0  0
   11.6432    0.4948   -0.6800 C   0  0  0  0  0  0  0  0  0  0  0  0
    9.2838    0.1153   -0.4345 C   0  0  0  0  0  0  0  0  0  0  0  0
    9.0964    0.3487   -1.6600 O   0  0  0  0  0  0  0  0  0  0  0  0
    3.9338   -0.6546   -1.0557 C   0  0  0  0  0  0  0  0  0  0  0  0
    2.5659   -0.7885   -1.3651 C   0  0  0  0  0  0  0  0  0  0  0  0
    2.1607   -0.7380   -2.6733 F   0  0  0  0  0  0  0  0  0  0  0  0
    0.0388    1.1495   -1.3429 C   0  0  0  0  0  0  0  0  0  0  0  0
   -0.8133    2.1105   -1.8625 C   0  0  0  0  0  0  0  0  0  0  0  0
   -2.1218    1.8251   -2.1226 N   0  0  0  0  0  0  0  0  0  0  0  0
   -2.6002    0.5977   -1.8747 C   0  0  0  0  0  0  0  0  0  0  0  0
   -3.9377    0.2737   -2.1293 C   0  0  0  0  0  0  0  0  0  0  0  0
   -4.4522   -0.9714   -1.8842 C   0  0  0  0  0  0  0  0  0  0  0  0
   -5.7367   -1.2944   -2.1209 O   0  0  0  0  0  0  0  0  0  0  0  0
   -6.8549   -0.6697   -2.5760 C   0  0  0  0  0  0  0  0  0  0  0  0
   -7.3082    0.4577   -1.6792 C   0  0  0  0  0  0  0  0  0  0  0  0
   -7.6071   -0.0747   -0.2878 C   0  0  0  0  0  0  0  0  0  0  0  0
   -8.0384    0.9700    0.6019 N   0  0  0  0  0  0  0  0  0  0  0  0
   -8.3087    0.4130    1.8957 C   0  0  0  0  0  0  0  0  0  0  0  0
   -7.4878    1.0033    3.0014 C   0  0  0  0  0  0  0  0  0  0  0  0
   -7.6969    2.4012    2.9316 O   0  0  0  0  0  0  0  0  0  0  0  0
   -7.0006    2.8473    1.8421 C   0  0  0  0  0  0  0  0  0  0  0  0
   -7.1434    2.0793    0.5960 C   0  0  0  0  0  0  0  0  0  0  0  0
   -2.7717   -3.8691    0.3594 H   0  0  0  0  0  0  0  0  0  0  0  0
   -3.7658   -5.1765   -0.3947 H   0  0  0  0  0  0  0  0  0  0  0  0
   -2.4160   -4.3788   -1.3044 H   0  0  0  0  0  0  0  0  0  0  0  0
   -1.6274   -2.3908   -0.7051 H   0  0  0  0  0  0  0  0  0  0  0  0
    1.4320   -1.2126    1.7265 H   0  0  0  0  0  0  0  0  0  0  0  0
    3.8340   -0.9776    2.2709 H   0  0  0  0  0  0  0  0  0  0  0  0
    6.0212   -0.7909    1.6241 H   0  0  0  0  0  0  0  0  0  0  0  0
    8.8253   -0.5725    4.1747 H   0  0  0  0  0  0  0  0  0  0  0  0
   10.5271    0.0601    4.0143 H   0  0  0  0  0  0  0  0  0  0  0  0
   10.1397   -1.7181    3.7313 H   0  0  0  0  0  0  0  0  0  0  0  0
   12.4394    1.0182   -0.0836 H   0  0  0  0  0  0  0  0  0  0  0  0
   12.0454   -0.4504   -1.1196 H   0  0  0  0  0  0  0  0  0  0  0  0
   11.3889    1.1650   -1.5250 H   0  0  0  0  0  0  0  0  0  0  0  0
    4.5702   -0.5048   -1.9101 H   0  0  0  0  0  0  0  0  0  0  0  0
    1.0645    1.3756   -1.1217 H   0  0  0  0  0  0  0  0  0  0  0  0
   -0.4054    3.1053   -2.0574 H   0  0  0  0  0  0  0  0  0  0  0  0
   -4.5043    1.0908   -2.5456 H   0  0  0  0  0  0  0  0  0  0  0  0
   -6.7604   -0.2115   -3.5938 H   0  0  0  0  0  0  0  0  0  0  0  0
   -7.6849   -1.4223   -2.7049 H   0  0  0  0  0  0  0  0  0  0  0  0
   -8.2666    0.8311   -2.1488 H   0  0  0  0  0  0  0  0  0  0  0  0
   -6.5858    1.2704   -1.6340 H   0  0  0  0  0  0  0  0  0  0  0  0
   -6.6932   -0.5237    0.1439 H   0  0  0  0  0  0  0  0  0  0  0  0
   -8.3571   -0.8823   -0.3607 H   0  0  0  0  0  0  0  0  0  0  0  0
   -8.2512   -0.6927    1.9233 H   0  0  0  0  0  0  0  0  0  0  0  0
   -9.3868    0.6591    2.1290 H   0  0  0  0  0  0  0  0  0  0  0  0
   -6.4052    0.7804    2.8669 H   0  0  0  0  0  0  0  0  0  0  0  0
   -7.8725    0.5874    3.9573 H   0  0  0  0  0  0  0  0  0  0  0  0
   -5.9202    2.9383    2.1626 H   0  0  0  0  0  0  0  0  0  0  0  0
   -7.3100    3.9160    1.6716 H   0  0  0  0  0  0  0  0  0  0  0  0
   -7.4273    2.7495   -0.2554 H   0  0  0  0  0  0  0  0  0  0  0  0
   -6.1271    1.6758    0.3087 H   0  0  0  0  0  0  0  0  0  0  0  0
  1  2  1  0
  2  3  1  0
  3  4  2  0
  4  5  1  0
  5  6  2  0
  6  7  1  0
  7  8  1  0
  8  9  2  0
  9 10  1  0
 10 11  2  0
 11 12  1  0
 12 13  1  0
 13 14  2  0
 13 15  1  0
 15 16  2  0
 16 17  1  0
 17 18  1  0
 17 19  1  0
 19 20  2  0
 19 21  1  0
 21 22  1  0
 21 23  1  0
 23 24  2  0
 11 25  1  0
 25 26  2  0
 26 27  1  0
  6 28  1  0
 28 29  2  0
 29 30  1  0
 30 31  2  0
 31 32  1  0
 32 33  2  0
 33 34  1  0
 34 35  1  0
 35 36  1  0
 36 37  1  0
 37 38  1  0
 38 39  1  0
 39 40  1  0
 40 41  1  0
 41 42  1  0
 42 43  1  0
 33  3  1  0
 43 38  1  0
 31  5  1  0
 26  8  1  0
 23 15  1  0
  1 44  1  0
  1 45  1  0
  1 46  1  0
  4 47  1  0
  9 48  1  0
 10 49  1  0
 12 50  1  0
 18 51  1  0
 18 52  1  0
 18 53  1  0
 22 54  1  0
 22 55  1  0
 22 56  1  0
 25 57  1  0
 28 58  1  0
 29 59  1  0
 32 60  1  0
 35 61  1  0
 35 62  1  0
 36 63  1  0
 36 64  1  0
 37 65  1  0
 37 66  1  0
 39 67  1  0
 39 68  1  0
 40 69  1  0
 40 70  1  0
 42 71  1  0
 42 72  1  0
 43 73  1  0
 43 74  1  0
M  END
$$$$
[H]C([H])=C([H])C(=O)N1C([H])([H])C([H])([H])C([H])([H])[C@@]([H])(n2nc(-c3c([H])c([H])c(F)c([H])c3F)c3c(N([H])[H])nc([H])nc32)C1([H])[H]
     RDKit          3D

 46 49  0  0  0  0  0  0  0  0999 V2000
   -4.1055    2.4258   -0.2119 N   0  0  0  0  0  0  0  0  0  0  0  0
   -2.6845    2.5028   -0.3755 C   0  0  0  0  0  0  0  0  0  0  0  0
   -2.0786    3.6546   -0.6813 N   0  0  0  0  0  0  0  0  0  0  0  0
   -0.7571    3.7622   -0.8667 C   0  0  0  0  0  0  0  0  0  0  0  0
   -0.0089    2.6576   -0.7389 N   0  0  0  0  0  0  0  0  0  0  0  0
   -0.5259    1.4551   -0.4336 C   0  0  0  0  0  0  0  0  0  0  0  0
    0.0183    0.2285   -0.2650 N   0  0  0  0  0  0  0  0  0  0  0  0
   -0.9669   -0.5900    0.0178 N   0  0  0  0  0  0  0  0  0  0  0  0
   -2.1605    0.0490    0.0452 C   0  0  0  0  0  0  0  0  0  0  0  0
   -3.4588   -0.5469    0.3086 C   0  0  0  0  0  0  0  0  0  0  0  0
   -4.2228   -0.2234    1.4064 C   0  0  0  0  0  0  0  0  0  0  0  0
   -5.4332   -0.8087    1.7072 C   0  0  0  0  0  0  0  0  0  0  0  0
   -5.8910   -1.7868    0.8295 C   0  0  0  0  0  0  0  0  0  0  0  0
   -7.0820   -2.3842    1.0994 F   0  0  0  0  0  0  0  0  0  0  0  0
   -5.1347   -2.1196   -0.2735 C   0  0  0  0  0  0  0  0  0  0  0  0
   -3.9366   -1.5220   -0.5474 C   0  0  0  0  0  0  0  0  0  0  0  0
   -3.2336   -1.8969   -1.6607 F   0  0  0  0  0  0  0  0  0  0  0  0
   -1.9043    1.3579   -0.2421 C   0  0  0  0  0  0  0  0  0  0  0  0
    1.4272   -0.0189   -0.3950 C   0  0  2  0  0  0  0  0  0  0  0  0
    1.7736   -0.4654   -1.7720 C   0  0  0  0  0  0  0  0  0  0  0  0
    3.1704   -0.9401   -1.9690 C   0  0  0  0  0  0  0  0  0  0  0  0
    3.7984   -1.5429   -0.7342 C   0  0  0  0  0  0  0  0  0  0  0  0
    3.4327   -0.8817    0.4613 N   0  0  0  0  0  0  0  0  0  0  0  0
    1.9539   -0.9585    0.6996 C   0  0  0  0  0  0  0  0  0  0  0  0
    4.1914   -0.1877    1.3738 C   0  0  0  0  0  0  0  0  0  0  0  0
    3.5040    0.2552    2.4107 O   0  0  0  0  0  0  0  0  0  0  0  0
    5.5778    0.1632    1.4455 C   0  0  0  0  0  0  0  0  0  0  0  0
    6.5772   -0.0550    0.6474 C   0  0  0  0  0  0  0  0  0  0  0  0
   -4.6199    2.8958    0.5551 H   0  0  0  0  0  0  0  0  0  0  0  0
   -4.6524    1.8678   -0.8997 H   0  0  0  0  0  0  0  0  0  0  0  0
   -0.2898    4.7265   -1.1175 H   0  0  0  0  0  0  0  0  0  0  0  0
   -3.8892    0.5396    2.1260 H   0  0  0  0  0  0  0  0  0  0  0  0
   -6.0340   -0.5512    2.5749 H   0  0  0  0  0  0  0  0  0  0  0  0
   -5.4986   -2.8921   -0.9648 H   0  0  0  0  0  0  0  0  0  0  0  0
    1.9777    0.9385   -0.1973 H   0  0  0  0  0  0  0  0  0  0  0  0
    1.5089    0.3532   -2.4712 H   0  0  0  0  0  0  0  0  0  0  0  0
    1.0916   -1.3120   -2.0354 H   0  0  0  0  0  0  0  0  0  0  0  0
    3.2541   -1.6839   -2.7826 H   0  0  0  0  0  0  0  0  0  0  0  0
    3.7975   -0.0774   -2.2623 H   0  0  0  0  0  0  0  0  0  0  0  0
    3.3410   -2.6007   -0.6176 H   0  0  0  0  0  0  0  0  0  0  0  0
    4.8543   -1.7678   -0.8391 H   0  0  0  0  0  0  0  0  0  0  0  0
    1.6989   -0.5530    1.6740 H   0  0  0  0  0  0  0  0  0  0  0  0
    1.6376   -1.9854    0.4982 H   0  0  0  0  0  0  0  0  0  0  0  0
    5.8651    0.7504    2.3875 H   0  0  0  0  0  0  0  0  0  0  0  0
    7.5867    0.3366    0.9466 H   0  0  0  0  0  0  0  0  0  0  0  0
    6.5307   -0.5681   -0.2811 H   0  0  0  0  0  0  0  0  0  0  0  0
  1  2  1  0
  2  3  2  0
  3  4  1  0
  4  5  2  0
  5  6  1  0
  6  7  1  0
  7  8  1  0
  8  9  2  0
  9 10  1  0
 10 11  2  0
 11 12  1  0
 12 13  2  0
 13 14  1  0
 13 15  1  0
 15 16  2  0
 16 17  1  0
  9 18  1  0
  7 19  1  0
 19 20  1  0
 20 21  1  0
 21 22  1  0
 22 23  1  0
 23 24  1  0
 23 25  1  0
 25 26  2  0
 25 27  1  0
 27 28  2  3
 18  2  1  0
 24 19  1  0
 18  6  2  0
 16 10  1  0
  1 29  1  0
  1 30  1  0
  4 31  1  0
 11 32  1  0
 12 33  1  0
 15 34  1  0
 19 35  1  1
 20 36  1  0
 20 37  1  0
 21 38  1  0
 21 39  1  0
 22 40  1  0
 22 41  1  0
 24 42  1  0
 24 43  1  0
 27 44  1  0
 28 45  1  0
 28 46  1  0
M  END
$$$$
[H]c1nc(N([H])c2c([H])c([H])c(N3C([H])([H])C([H])([H])N(C([H])([H])[H])C([H])([H])C3([H])[H])c([H])c2OC([H])([H])[H])nc(N([H])c2c([H])c([H])c([H])c([H])c2S(=O)(=O)C([H])(C([H])([H])[H])C([H])([H])[H])c1Cl
     RDKit          3D

 67 70  0  0  0  0  0  0  0  0999 V2000
    2.7980   -3.3310   -1.2288 C   0  0  0  0  0  0  0  0  0  0  0  0
    1.9415   -2.2352   -0.9986 O   0  0  0  0  0  0  0  0  0  0  0  0
    2.4816   -1.0407   -0.5265 C   0  0  0  0  0  0  0  0  0  0  0  0
    3.8274   -0.9244   -0.2865 C   0  0  0  0  0  0  0  0  0  0  0  0
    4.4213    0.2145    0.1751 C   0  0  0  0  0  0  0  0  0  0  0  0
    3.5861    1.2917    0.4024 C   0  0  0  0  0  0  0  0  0  0  0  0
    2.2085    1.1836    0.1606 C   0  0  0  0  0  0  0  0  0  0  0  0
    1.6255    0.0523   -0.2972 C   0  0  0  0  0  0  0  0  0  0  0  0
    0.2667   -0.0963   -0.5497 N   0  0  0  0  0  0  0  0  0  0  0  0
   -0.7485    0.8732   -0.3847 C   0  0  0  0  0  0  0  0  0  0  0  0
   -0.5976    2.1249    0.0475 N   0  0  0  0  0  0  0  0  0  0  0  0
   -1.5696    3.0148    0.1930 C   0  0  0  0  0  0  0  0  0  0  0  0
   -2.8553    2.6370   -0.1234 C   0  0  0  0  0  0  0  0  0  0  0  0
   -4.1874    3.7633    0.0449 Cl  0  0  0  0  0  0  0  0  0  0  0  0
   -3.1059    1.3214   -0.5915 C   0  0  0  0  0  0  0  0  0  0  0  0
   -4.4442    0.9705   -0.8839 N   0  0  0  0  0  0  0  0  0  0  0  0
   -4.8563   -0.2771   -1.3763 C   0  0  0  0  0  0  0  0  0  0  0  0
   -4.0250   -1.2445   -1.8945 C   0  0  0  0  0  0  0  0  0  0  0  0
   -4.4990   -2.4531   -2.4340 C   0  0  0  0  0  0  0  0  0  0  0  0
   -5.8636   -2.6532   -2.4324 C   0  0  0  0  0  0  0  0  0  0  0  0
   -6.7143   -1.7053   -1.9218 C   0  0  0  0  0  0  0  0  0  0  0  0
   -6.2437   -0.5196   -1.3917 C   0  0  0  0  0  0  0  0  0  0  0  0
   -7.3164    0.6608   -0.6987 S   0  0  0  0  0  0  0  0  0  0  0  0
   -7.3933    1.9371   -1.4847 O   0  0  0  0  0  0  0  0  0  0  0  0
   -8.7283    0.0574   -0.8397 O   0  0  0  0  0  0  0  0  0  0  0  0
   -7.0890    0.8939    1.0249 C   0  0  0  0  0  0  0  0  0  0  0  0
   -7.3480   -0.4235    1.7701 C   0  0  0  0  0  0  0  0  0  0  0  0
   -8.1301    1.8608    1.6013 C   0  0  0  0  0  0  0  0  0  0  0  0
   -2.0417    0.5457   -0.6857 N   0  0  0  0  0  0  0  0  0  0  0  0
    5.8136    0.2932    0.3958 N   0  0  0  0  0  0  0  0  0  0  0  0
    6.4498    1.3219    1.2076 C   0  0  0  0  0  0  0  0  0  0  0  0
    7.4716    0.7173    2.1500 C   0  0  0  0  0  0  0  0  0  0  0  0
    8.2281   -0.3570    1.5914 N   0  0  0  0  0  0  0  0  0  0  0  0
    9.2895    0.0606    0.7233 C   0  0  0  0  0  0  0  0  0  0  0  0
    7.3758   -1.3808    0.9847 C   0  0  0  0  0  0  0  0  0  0  0  0
    6.7127   -0.6643   -0.2033 C   0  0  0  0  0  0  0  0  0  0  0  0
    2.1978   -4.1742   -1.5940 H   0  0  0  0  0  0  0  0  0  0  0  0
    3.3465   -3.6080   -0.3147 H   0  0  0  0  0  0  0  0  0  0  0  0
    3.5586   -2.9887   -1.9679 H   0  0  0  0  0  0  0  0  0  0  0  0
    4.4382   -1.8245   -0.4810 H   0  0  0  0  0  0  0  0  0  0  0  0
    4.0232    2.2148    0.7675 H   0  0  0  0  0  0  0  0  0  0  0  0
    1.6829    2.0994    0.3817 H   0  0  0  0  0  0  0  0  0  0  0  0
   -0.0953   -1.0472   -0.9152 H   0  0  0  0  0  0  0  0  0  0  0  0
   -1.3686    4.0319    0.5559 H   0  0  0  0  0  0  0  0  0  0  0  0
   -5.1553    1.7451   -0.7241 H   0  0  0  0  0  0  0  0  0  0  0  0
   -2.9519   -1.1300   -1.9331 H   0  0  0  0  0  0  0  0  0  0  0  0
   -3.8051   -3.1751   -2.8254 H   0  0  0  0  0  0  0  0  0  0  0  0
   -6.2117   -3.5899   -2.8525 H   0  0  0  0  0  0  0  0  0  0  0  0
   -7.7729   -1.8830   -1.9315 H   0  0  0  0  0  0  0  0  0  0  0  0
   -6.0945    1.2164    1.2893 H   0  0  0  0  0  0  0  0  0  0  0  0
   -7.0459   -0.2515    2.8164 H   0  0  0  0  0  0  0  0  0  0  0  0
   -6.7761   -1.2538    1.3513 H   0  0  0  0  0  0  0  0  0  0  0  0
   -8.4409   -0.6809    1.6975 H   0  0  0  0  0  0  0  0  0  0  0  0
   -8.1469    1.6683    2.6953 H   0  0  0  0  0  0  0  0  0  0  0  0
   -7.8558    2.8834    1.3399 H   0  0  0  0  0  0  0  0  0  0  0  0
   -9.1318    1.5480    1.2224 H   0  0  0  0  0  0  0  0  0  0  0  0
    5.6986    1.8496    1.8178 H   0  0  0  0  0  0  0  0  0  0  0  0
    6.9306    2.0340    0.5190 H   0  0  0  0  0  0  0  0  0  0  0  0
    6.9661    0.3984    3.0955 H   0  0  0  0  0  0  0  0  0  0  0  0
    8.1853    1.5113    2.4512 H   0  0  0  0  0  0  0  0  0  0  0  0
    9.0845    1.0803    0.3255 H   0  0  0  0  0  0  0  0  0  0  0  0
   10.2479    0.0559    1.3173 H   0  0  0  0  0  0  0  0  0  0  0  0
    9.3924   -0.6645   -0.1011 H   0  0  0  0  0  0  0  0  0  0  0  0
    6.5706   -1.6106    1.6897 H   0  0  0  0  0  0  0  0  0  0  0  0
    7.9791   -2.2304    0.6689 H   0  0  0  0  0  0  0  0  0  0  0  0
    6.2815   -1.3420   -0.9293 H   0  0  0  0  0  0  0  0  0  0  0  0
    7.5281   -0.0532   -0.6714 H   0  0  0  0  0  0  0  0  0  0  0  0
  1  2  1  0
  2  3  1  0
  3  4  2  0
  4  5  1  0
  5  6  2  0
  6  7  1  0
  7  8  2  0
  8  9  1  0
  9 10  1  0
 10 11  2  0
 11 12  1  0
 12 13  2  0
 13 14  1  0
 13 15  1  0
 15 16  1  0
 16 17  1  0
 17 18  2  0
 18 19  1  0
 19 20  2  0
 20 21  1  0
 21 22  2  0
 22 23  1  0
 23 24  2  0
 23 25  2  0
 23 26  1  0
 26 27  1  0
 26 28  1  0
 15 29  2  0
  5 30  1  0
 30 31  1  0
 31 32  1  0
 32 33  1  0
 33 34  1  0
 33 35  1  0
 35 36  1  0
  8  3  1  0
 29 10  1  0
 36 30  1  0
 22 17  1  0
  1 37  1  0
  1 38  1  0
  1 39  1  0
  4 40  1  0
  6 41  1  0
  7 42  1  0
  9 43  1  0
 12 44  1  0
 16 45  1  0
 18 46  1  0
 19 47  1  0
 20 48  1  0
 21 49  1  0
 26 50  1  0
 27 51  1  0
 27 52  1  0
 27 53  1  0
 28 54  1  0
 28 55  1  0
 28 56  1  0
 31 57  1  0
 31 58  1  0
 32 59  1  0
 32 60  1  0
 34 61  1  0
 34 62  1  0
 34 63  1  0
 35 64  1  0
 35 65  1  0
 36 66  1  0
 36 67  1  0
M  END
$$$$
[H]c1c([H])c(C(=O)N2C([H])([H])C([H])([H])N(c3c([H])c([H])c(Cl)c(Cl)c3[H])[C@]([H])(C([H])([H])[H])C2([H])[H])c([H])c([H])c1Cl
     RDKit          3D

 41 43  0  0  0  0  0  0  0  0999 V2000
   -2.1889   -2.7453   -0.0214 C   0  0  0  0  0  0  0  0  0  0  0  0
   -1.2676   -1.7364   -0.5266 C   0  0  2  0  0  0  0  0  0  0  0  0
   -0.0453   -1.6824    0.3224 C   0  0  0  0  0  0  0  0  0  0  0  0
    0.9204   -0.6227   -0.0238 N   0  0  0  0  0  0  0  0  0  0  0  0
    0.4961    0.5659   -0.6767 C   0  0  0  0  0  0  0  0  0  0  0  0
   -0.7207    0.3083   -1.5372 C   0  0  0  0  0  0  0  0  0  0  0  0
   -1.6990   -0.3850   -0.7225 N   0  0  0  0  0  0  0  0  0  0  0  0
   -2.8225    0.2924   -0.2464 C   0  0  0  0  0  0  0  0  0  0  0  0
   -3.4753   -0.0304    0.9378 C   0  0  0  0  0  0  0  0  0  0  0  0
   -4.5951    0.6199    1.4029 C   0  0  0  0  0  0  0  0  0  0  0  0
   -5.1218    1.6631    0.6635 C   0  0  0  0  0  0  0  0  0  0  0  0
   -6.5477    2.4824    1.2674 Cl  0  0  0  0  0  0  0  0  0  0  0  0
   -4.5072    2.0191   -0.5187 C   0  0  0  0  0  0  0  0  0  0  0  0
   -5.1777    3.3429   -1.4541 Cl  0  0  0  0  0  0  0  0  0  0  0  0
   -3.3700    1.3384   -0.9653 C   0  0  0  0  0  0  0  0  0  0  0  0
    2.2735   -0.9100    0.2894 C   0  0  0  0  0  0  0  0  0  0  0  0
    2.4874   -2.1192    0.7587 O   0  0  0  0  0  0  0  0  0  0  0  0
    3.4329   -0.0813    0.1676 C   0  0  0  0  0  0  0  0  0  0  0  0
    4.7005   -0.6980    0.2023 C   0  0  0  0  0  0  0  0  0  0  0  0
    5.8746   -0.0020    0.1617 C   0  0  0  0  0  0  0  0  0  0  0  0
    5.8828    1.3658    0.0832 C   0  0  0  0  0  0  0  0  0  0  0  0
    7.3814    2.2867    0.0282 Cl  0  0  0  0  0  0  0  0  0  0  0  0
    4.6869    2.0035    0.0483 C   0  0  0  0  0  0  0  0  0  0  0  0
    3.4822    1.2855    0.0913 C   0  0  0  0  0  0  0  0  0  0  0  0
   -1.9796   -3.7406   -0.4657 H   0  0  0  0  0  0  0  0  0  0  0  0
   -3.2676   -2.5574   -0.1961 H   0  0  0  0  0  0  0  0  0  0  0  0
   -1.9836   -2.9119    1.0795 H   0  0  0  0  0  0  0  0  0  0  0  0
   -0.9106   -2.1352   -1.5328 H   0  0  0  0  0  0  0  0  0  0  0  0
    0.4825   -2.6802    0.2349 H   0  0  0  0  0  0  0  0  0  0  0  0
   -0.2678   -1.4954    1.3989 H   0  0  0  0  0  0  0  0  0  0  0  0
    1.3103    0.9233   -1.3951 H   0  0  0  0  0  0  0  0  0  0  0  0
    0.2844    1.3414    0.0864 H   0  0  0  0  0  0  0  0  0  0  0  0
   -1.0758    1.1977   -2.0583 H   0  0  0  0  0  0  0  0  0  0  0  0
   -0.3328   -0.3388   -2.3853 H   0  0  0  0  0  0  0  0  0  0  0  0
   -3.0726   -0.8332    1.5275 H   0  0  0  0  0  0  0  0  0  0  0  0
   -5.0717    0.3374    2.3277 H   0  0  0  0  0  0  0  0  0  0  0  0
   -2.9663    1.6980   -1.9174 H   0  0  0  0  0  0  0  0  0  0  0  0
    4.7175   -1.7948    0.2616 H   0  0  0  0  0  0  0  0  0  0  0  0
    6.8408   -0.5031    0.1899 H   0  0  0  0  0  0  0  0  0  0  0  0
    4.6524    3.0768   -0.0132 H   0  0  0  0  0  0  0  0  0  0  0  0
    2.5609    1.8549    0.1073 H   0  0  0  0  0  0  0  0  0  0  0  0
  1  2  1  0
  2  3  1  0
  3  4  1  0
  4  5  1  0
  5  6  1  0
  6  7  1  0
  7  8  1  0
  8  9  2  0
  9 10  1  0
 10 11  2  0
 11 12  1  0
 11 13  1  0
 13 14  1  0
 13 15  2  0
  4 16  1  0
 16 17  2  0
 16 18  1  0
 18 19  2  0
 19 20  1  0
 20 21  2  0
 21 22  1  0
 21 23  1  0
 23 24  2  0
  7  2  1  0
 15  8  1  0
 24 18  1  0
  1 25  1  0
  1 26  1  0
  1 27  1  0
  2 28  1  6
  3 29  1  0
  3 30  1  0
  5 31  1  0
  5 32  1  0
  6 33  1  0
  6 34  1  0
  9 35  1  0
 10 36  1  0
 15 37  1  0
 19 38  1  0
 20 39  1  0
 23 40  1  0
 24 41  1  0
M  END
$$$$
[H]c1c([H])c(N2C([H])([H])C([H])([H])N(C([H])([H])[H])C([H])([H])C2([H])[H])c([H])c([H])c1N([H])C(=O)c1c(C([H])([H])[H])n(C([H])([H])[H])n(C([H])([H])[H])c(=O)c1=O
     RDKit          3D

 52 54  0  0  0  0  0  0  0  0999 V2000
    8.2529    0.1282   -0.3480 C   0  0  0  0  0  0  0  0  0  0  0  0
    7.0161    0.4813    0.3246 N   0  0  0  0  0  0  0  0  0  0  0  0
    6.2354    1.2739   -0.5689 C   0  0  0  0  0  0  0  0  0  0  0  0
    4.7571    1.2843   -0.2549 C   0  0  0  0  0  0  0  0  0  0  0  0
    4.2356   -0.0583   -0.1522 N   0  0  0  0  0  0  0  0  0  0  0  0
    5.1605   -1.1252    0.0639 C   0  0  0  0  0  0  0  0  0  0  0  0
    6.3376   -0.6396    0.8810 C   0  0  0  0  0  0  0  0  0  0  0  0
    2.8270   -0.2373   -0.2695 C   0  0  0  0  0  0  0  0  0  0  0  0
    1.9698    0.8315   -0.3831 C   0  0  0  0  0  0  0  0  0  0  0  0
    0.5846    0.6952   -0.5034 C   0  0  0  0  0  0  0  0  0  0  0  0
    0.0256   -0.5444   -0.5110 C   0  0  0  0  0  0  0  0  0  0  0  0
   -1.3810   -0.8085   -0.6003 N   0  0  0  0  0  0  0  0  0  0  0  0
   -2.3949    0.0743   -0.2296 C   0  0  0  0  0  0  0  0  0  0  0  0
   -2.0199    1.1980    0.2456 O   0  0  0  0  0  0  0  0  0  0  0  0
   -3.8091   -0.2260   -0.3549 C   0  0  0  0  0  0  0  0  0  0  0  0
   -4.7296    0.5210    0.3801 C   0  0  0  0  0  0  0  0  0  0  0  0
   -4.2844    1.5568    1.3145 C   0  0  0  0  0  0  0  0  0  0  0  0
   -6.0651    0.3054    0.2642 N   0  0  0  0  0  0  0  0  0  0  0  0
   -6.9745    1.1212    1.0585 C   0  0  0  0  0  0  0  0  0  0  0  0
   -6.5517   -0.6056   -0.5345 N   0  0  0  0  0  0  0  0  0  0  0  0
   -8.0032   -0.8066   -0.6293 C   0  0  0  0  0  0  0  0  0  0  0  0
   -5.7065   -1.3430   -1.2560 C   0  0  0  0  0  0  0  0  0  0  0  0
   -6.1513   -2.2152   -2.0216 O   0  0  0  0  0  0  0  0  0  0  0  0
   -4.3257   -1.1780   -1.1899 C   0  0  0  0  0  0  0  0  0  0  0  0
   -3.5927   -1.9252   -1.9187 O   0  0  0  0  0  0  0  0  0  0  0  0
    0.8934   -1.6298   -0.3964 C   0  0  0  0  0  0  0  0  0  0  0  0
    2.2536   -1.4933   -0.2788 C   0  0  0  0  0  0  0  0  0  0  0  0
    8.1094    0.0236   -1.4438 H   0  0  0  0  0  0  0  0  0  0  0  0
    8.7191   -0.7736    0.1025 H   0  0  0  0  0  0  0  0  0  0  0  0
    8.9686    0.9615   -0.1969 H   0  0  0  0  0  0  0  0  0  0  0  0
    6.3926    1.0421   -1.6346 H   0  0  0  0  0  0  0  0  0  0  0  0
    6.5791    2.3422   -0.4449 H   0  0  0  0  0  0  0  0  0  0  0  0
    4.4907    1.9341    0.5944 H   0  0  0  0  0  0  0  0  0  0  0  0
    4.2668    1.7375   -1.1635 H   0  0  0  0  0  0  0  0  0  0  0  0
    5.4648   -1.6541   -0.8480 H   0  0  0  0  0  0  0  0  0  0  0  0
    4.6552   -1.8903    0.7241 H   0  0  0  0  0  0  0  0  0  0  0  0
    5.9939   -0.4180    1.9147 H   0  0  0  0  0  0  0  0  0  0  0  0
    7.0621   -1.4860    0.9622 H   0  0  0  0  0  0  0  0  0  0  0  0
    2.4014    1.8382   -0.3769 H   0  0  0  0  0  0  0  0  0  0  0  0
    0.0310    1.6143   -0.6033 H   0  0  0  0  0  0  0  0  0  0  0  0
   -1.6241   -1.7585   -0.9633 H   0  0  0  0  0  0  0  0  0  0  0  0
   -3.9625    2.4796    0.8046 H   0  0  0  0  0  0  0  0  0  0  0  0
   -5.1595    1.9051    1.9549 H   0  0  0  0  0  0  0  0  0  0  0  0
   -3.5658    1.1521    2.0571 H   0  0  0  0  0  0  0  0  0  0  0  0
   -6.8033    2.1868    0.7934 H   0  0  0  0  0  0  0  0  0  0  0  0
   -8.0198    0.8989    0.7471 H   0  0  0  0  0  0  0  0  0  0  0  0
   -6.9189    0.9010    2.1291 H   0  0  0  0  0  0  0  0  0  0  0  0
   -8.3396   -1.0828    0.3855 H   0  0  0  0  0  0  0  0  0  0  0  0
   -8.5135    0.0732   -1.0514 H   0  0  0  0  0  0  0  0  0  0  0  0
   -8.1759   -1.6691   -1.2780 H   0  0  0  0  0  0  0  0  0  0  0  0
    0.4734   -2.6270   -0.4003 H   0  0  0  0  0  0  0  0  0  0  0  0
    2.9154   -2.3660   -0.1912 H   0  0  0  0  0  0  0  0  0  0  0  0
  1  2  1  0
  2  3  1  0
  3  4  1  0
  4  5  1  0
  5  6  1  0
  6  7  1  0
  5  8  1  0
  8  9  2  0
  9 10  1  0
 10 11  2  0
 11 12  1  0
 12 13  1  0
 13 14  2  0
 13 15  1  0
 15 16  2  0
 16 17  1  0
 16 18  1  0
 18 19  1  0
 18 20  1  0
 20 21  1  0
 20 22  1  0
 22 23  2  0
 22 24  1  0
 24 25  2  0
 11 26  1  0
 26 27  2  0
  7  2  1  0
 27  8  1  0
 24 15  1  0
  1 28  1  0
  1 29  1  0
  1 30  1  0
  3 31  1  0
  3 32  1  0
  4 33  1  0
  4 34  1  0
  6 35  1  0
  6 36  1  0
  7 37  1  0
  7 38  1  0
  9 39  1  0
 10 40  1  0
 12 41  1  0
 17 42  1  0
 17 43  1  0
 17 44  1  0
 19 45  1  0
 19 46  1  0
 19 47  1  0
 21 48  1  0
 21 49  1  0
 21 50  1  0
 26 51  1  0
 27 52  1  0
M  END
$$$$
[H]c1nc(C([H])([H])[H])c([H])c([H])c1S(=O)(=O)N1C([H])([H])C([H])([H])N(C(=O)c2c([H])c([H])c(Cl)c([H])c2[H])[C@]([H])(C([H])([H])[H])C1([H])[H]
     RDKit          3D

 46 48  0  0  0  0  0  0  0  0999 V2000
   -0.9284   -1.7907   -2.7011 C   0  0  0  0  0  0  0  0  0  0  0  0
   -0.6050   -0.6653   -1.7452 C   0  0  2  0  0  0  0  0  0  0  0  0
    0.7719   -0.8422   -1.2168 C   0  0  0  0  0  0  0  0  0  0  0  0
    0.8875   -1.4976    0.0426 N   0  0  0  0  0  0  0  0  0  0  0  0
   -0.2385   -2.3045    0.3721 C   0  0  0  0  0  0  0  0  0  0  0  0
   -1.5276   -1.4700    0.4465 C   0  0  0  0  0  0  0  0  0  0  0  0
   -1.6378   -0.5894   -0.6751 N   0  0  0  0  0  0  0  0  0  0  0  0
   -2.6351    0.3581   -0.8523 C   0  0  0  0  0  0  0  0  0  0  0  0
   -2.4645    1.0568   -1.9642 O   0  0  0  0  0  0  0  0  0  0  0  0
   -3.8036    0.7370   -0.0876 C   0  0  0  0  0  0  0  0  0  0  0  0
   -4.2236    0.0959    1.0427 C   0  0  0  0  0  0  0  0  0  0  0  0
   -5.3574    0.5167    1.7634 C   0  0  0  0  0  0  0  0  0  0  0  0
   -6.0674    1.6052    1.3194 C   0  0  0  0  0  0  0  0  0  0  0  0
   -7.4728    2.1444    2.1924 Cl  0  0  0  0  0  0  0  0  0  0  0  0
   -5.6441    2.2577    0.1720 C   0  0  0  0  0  0  0  0  0  0  0  0
   -4.5564    1.8555   -0.5201 C   0  0  0  0  0  0  0  0  0  0  0  0
    1.4156   -0.4831    1.3144 S   0  0  0  0  0  0  0  0  0  0  0  0
    1.3622   -1.1653    2.6453 O   0  0  0  0  0  0  0  0  0  0  0  0
    0.4172    0.6658    1.3972 O   0  0  0  0  0  0  0  0  0  0  0  0
    3.0236    0.1519    0.9810 C   0  0  0  0  0  0  0  0  0  0  0  0
    4.1613   -0.5436    1.3591 C   0  0  0  0  0  0  0  0  0  0  0  0
    5.4231   -0.0508    1.1034 C   0  0  0  0  0  0  0  0  0  0  0  0
    5.5969    1.1590    0.4583 C   0  0  0  0  0  0  0  0  0  0  0  0
    6.9610    1.7167    0.1682 C   0  0  0  0  0  0  0  0  0  0  0  0
    4.4823    1.8182    0.0998 N   0  0  0  0  0  0  0  0  0  0  0  0
    3.2347    1.3544    0.3402 C   0  0  0  0  0  0  0  0  0  0  0  0
   -1.1093   -1.4256   -3.7397 H   0  0  0  0  0  0  0  0  0  0  0  0
   -0.0601   -2.4637   -2.7521 H   0  0  0  0  0  0  0  0  0  0  0  0
   -1.8024   -2.3930   -2.3368 H   0  0  0  0  0  0  0  0  0  0  0  0
   -0.6711    0.2654   -2.3351 H   0  0  0  0  0  0  0  0  0  0  0  0
    1.2724    0.1559   -1.1564 H   0  0  0  0  0  0  0  0  0  0  0  0
    1.3594   -1.4457   -1.9537 H   0  0  0  0  0  0  0  0  0  0  0  0
   -0.0860   -2.7874    1.3505 H   0  0  0  0  0  0  0  0  0  0  0  0
   -0.4005   -3.0508   -0.4249 H   0  0  0  0  0  0  0  0  0  0  0  0
   -2.3238   -2.2314    0.5218 H   0  0  0  0  0  0  0  0  0  0  0  0
   -1.5181   -0.8701    1.3730 H   0  0  0  0  0  0  0  0  0  0  0  0
   -3.7380   -0.7563    1.4381 H   0  0  0  0  0  0  0  0  0  0  0  0
   -5.6353   -0.0304    2.6455 H   0  0  0  0  0  0  0  0  0  0  0  0
   -6.2641    3.1150   -0.1145 H   0  0  0  0  0  0  0  0  0  0  0  0
   -4.2345    2.3579   -1.3991 H   0  0  0  0  0  0  0  0  0  0  0  0
    4.0040   -1.4934    1.8647 H   0  0  0  0  0  0  0  0  0  0  0  0
    6.3090   -0.6055    1.4040 H   0  0  0  0  0  0  0  0  0  0  0  0
    7.0817    1.9565   -0.9009 H   0  0  0  0  0  0  0  0  0  0  0  0
    7.1402    2.6664    0.7294 H   0  0  0  0  0  0  0  0  0  0  0  0
    7.7511    1.0167    0.4694 H   0  0  0  0  0  0  0  0  0  0  0  0
    2.3506    1.9289    0.0302 H   0  0  0  0  0  0  0  0  0  0  0  0
  1  2  1  0
  2  3  1  0
  3  4  1  0
  4  5  1  0
  5  6  1  0
  6  7  1  0
  7  8  1  0
  8  9  2  0
  8 10  1  0
 10 11  2  0
 11 12  1  0
 12 13  2  0
 13 14  1  0
 13 15  1  0
 15 16  2  0
  4 17  1  0
 17 18  2  0
 17 19  2  0
 17 20  1  0
 20 21  2  0
 21 22  1  0
 22 23  2  0
 23 24  1  0
 23 25  1  0
 25 26  2  0
  7  2  1  0
 16 10  1  0
 26 20  1  0
  1 27  1  0
  1 28  1  0
  1 29  1  0
  2 30  1  6
  3 31  1  0
  3 32  1  0
  5 33  1  0
  5 34  1  0
  6 35  1  0
  6 36  1  0
 11 37  1  0
 12 38  1  0
 15 39  1  0
 16 40  1  0
 21 41  1  0
 22 42  1  0
 24 43  1  0
 24 44  1  0
 24 45  1  0
 26 46  1  0
M  END
$$$$
[H]c1nc(N2C([H])([H])C([H])([H])N(C(=O)c3c([H])c([H])c(F)c(C#N)c3[H])C([H])([H])C2([H])[H])c2c([H])c(OC([H])([H])[H])c(OC([H])([H])[H])c([H])c2n1
     RDKit          3D

 51 54  0  0  0  0  0  0  0  0999 V2000
   -7.2042    0.2577    1.6042 C   0  0  0  0  0  0  0  0  0  0  0  0
   -6.1043    0.5452    0.7280 O   0  0  0  0  0  0  0  0  0  0  0  0
   -4.8626   -0.0272    0.9939 C   0  0  0  0  0  0  0  0  0  0  0  0
   -4.6414   -0.8585    2.0615 C   0  0  0  0  0  0  0  0  0  0  0  0
   -3.3855   -1.3883    2.2620 C   0  0  0  0  0  0  0  0  0  0  0  0
   -3.1643   -2.2157    3.3096 N   0  0  0  0  0  0  0  0  0  0  0  0
   -1.9355   -2.7273    3.4832 C   0  0  0  0  0  0  0  0  0  0  0  0
   -0.9143   -2.4513    2.6590 N   0  0  0  0  0  0  0  0  0  0  0  0
   -1.0813   -1.6239    1.5886 C   0  0  0  0  0  0  0  0  0  0  0  0
   -0.0041   -1.3089    0.7342 N   0  0  0  0  0  0  0  0  0  0  0  0
    0.5702    0.0487    0.7423 C   0  0  0  0  0  0  0  0  0  0  0  0
    2.0367   -0.1755    1.1296 C   0  0  0  0  0  0  0  0  0  0  0  0
    2.6114   -0.8984    0.0361 N   0  0  0  0  0  0  0  0  0  0  0  0
    2.1059   -2.2983   -0.1046 C   0  0  0  0  0  0  0  0  0  0  0  0
    0.5966   -2.2630   -0.1735 C   0  0  0  0  0  0  0  0  0  0  0  0
    3.5041   -0.4452   -0.8860 C   0  0  0  0  0  0  0  0  0  0  0  0
    3.9188   -1.3570   -1.7337 O   0  0  0  0  0  0  0  0  0  0  0  0
    4.0861    0.8532   -1.1102 C   0  0  0  0  0  0  0  0  0  0  0  0
    3.6553    2.0417   -0.5750 C   0  0  0  0  0  0  0  0  0  0  0  0
    4.3466    3.2328   -0.8151 C   0  0  0  0  0  0  0  0  0  0  0  0
    5.4755    3.2601   -1.5924 C   0  0  0  0  0  0  0  0  0  0  0  0
    6.1763    4.3804   -1.8532 F   0  0  0  0  0  0  0  0  0  0  0  0
    5.9359    2.0891   -2.1470 C   0  0  0  0  0  0  0  0  0  0  0  0
    5.2533    0.9355   -1.9042 C   0  0  0  0  0  0  0  0  0  0  0  0
    7.1344    2.0952   -2.9781 C   0  0  0  0  0  0  0  0  0  0  0  0
    8.0906    2.0824   -3.6293 N   0  0  0  0  0  0  0  0  0  0  0  0
   -2.3285   -1.0912    1.3920 C   0  0  0  0  0  0  0  0  0  0  0  0
   -2.5386   -0.2620    0.3215 C   0  0  0  0  0  0  0  0  0  0  0  0
   -3.8176    0.2666    0.1329 C   0  0  0  0  0  0  0  0  0  0  0  0
   -4.0567    1.1130   -0.9482 O   0  0  0  0  0  0  0  0  0  0  0  0
   -2.9865    1.4078   -1.8213 C   0  0  0  0  0  0  0  0  0  0  0  0
   -8.0410    0.9448    1.4111 H   0  0  0  0  0  0  0  0  0  0  0  0
   -7.4567   -0.8043    1.5826 H   0  0  0  0  0  0  0  0  0  0  0  0
   -6.8616    0.4850    2.6562 H   0  0  0  0  0  0  0  0  0  0  0  0
   -5.4553   -1.0909    2.7367 H   0  0  0  0  0  0  0  0  0  0  0  0
   -1.6967   -3.4048    4.3154 H   0  0  0  0  0  0  0  0  0  0  0  0
    0.0487    0.7289    1.4111 H   0  0  0  0  0  0  0  0  0  0  0  0
    0.5750    0.3644   -0.3327 H   0  0  0  0  0  0  0  0  0  0  0  0
    1.9438   -0.9532    1.9809 H   0  0  0  0  0  0  0  0  0  0  0  0
    2.5663    0.6716    1.5013 H   0  0  0  0  0  0  0  0  0  0  0  0
    2.5370   -2.6883   -1.0312 H   0  0  0  0  0  0  0  0  0  0  0  0
    2.4799   -2.8920    0.7445 H   0  0  0  0  0  0  0  0  0  0  0  0
    0.3040   -1.9822   -1.2041 H   0  0  0  0  0  0  0  0  0  0  0  0
    0.2040   -3.2818    0.0191 H   0  0  0  0  0  0  0  0  0  0  0  0
    2.7686    2.1109    0.0024 H   0  0  0  0  0  0  0  0  0  0  0  0
    4.0066    4.1602   -0.3930 H   0  0  0  0  0  0  0  0  0  0  0  0
    5.6327    0.0172   -2.3487 H   0  0  0  0  0  0  0  0  0  0  0  0
   -1.7695   -0.0001   -0.3923 H   0  0  0  0  0  0  0  0  0  0  0  0
   -2.2100    2.0472   -1.3591 H   0  0  0  0  0  0  0  0  0  0  0  0
   -2.5946    0.4434   -2.2041 H   0  0  0  0  0  0  0  0  0  0  0  0
   -3.4532    1.9063   -2.7179 H   0  0  0  0  0  0  0  0  0  0  0  0
  1  2  1  0
  2  3  1  0
  3  4  2  0
  4  5  1  0
  5  6  2  0
  6  7  1  0
  7  8  2  0
  8  9  1  0
  9 10  1  0
 10 11  1  0
 11 12  1  0
 12 13  1  0
 13 14  1  0
 14 15  1  0
 13 16  1  0
 16 17  2  0
 16 18  1  0
 18 19  2  0
 19 20  1  0
 20 21  2  0
 21 22  1  0
 21 23  1  0
 23 24  2  0
 23 25  1  0
 25 26  3  0
  9 27  2  0
 27 28  1  0
 28 29  2  0
 29 30  1  0
 30 31  1  0
 29  3  1  0
 27  5  1  0
 15 10  1  0
 24 18  1  0
  1 32  1  0
  1 33  1  0
  1 34  1  0
  4 35  1  0
  7 36  1  0
 11 37  1  0
 11 38  1  0
 12 39  1  0
 12 40  1  0
 14 41  1  0
 14 42  1  0
 15 43  1  0
 15 44  1  0
 19 45  1  0
 20 46  1  0
 24 47  1  0
 28 48  1  0
 31 49  1  0
 31 50  1  0
 31 51  1  0
M  END
$$$$
[H]N=C(N([H])[H])N([H])C([H])([H])C([H])([H])C([H])([H])[C@@]([H])(C(=O)N([H])[C@]([H])(C(=O)N([H])[C@]([H])(C(=O)N([H])[H])C([H])([H])c1c([H])c([H])c([H])c([H])c1[H])C([H])([H])c1c([H])c([H])c(O[H])c([H])c1[H])N([H])C(=O)[C@@]([H])(N([H])C(=O)[C@@]([H])(N([H])[H])C([H])([H])C([H])(C([H])([H])[H])C([H])([H])[H])C([H])([H])c1c([H])c([H])c([H])c([H])c1[H]
     RDKit          3D

107109  0  0  0  0  0  0  0  0999 V2000
    2.9593   -4.8122   -2.5613 C   0  0  0  0  0  0  0  0  0  0  0  0
    3.9155   -4.4457   -1.4137 C   0  0  0  0  0  0  0  0  0  0  0  0
    3.4570   -5.3099   -0.2484 C   0  0  0  0  0  0  0  0  0  0  0  0
    3.7437   -2.9865   -1.1594 C   0  0  0  0  0  0  0  0  0  0  0  0
    4.6093   -2.4187   -0.0661 C   0  0  2  0  0  0  0  0  0  0  0  0
    4.3710   -3.0580    1.1993 N   0  0  0  0  0  0  0  0  0  0  0  0
    4.2113   -0.9690    0.0626 C   0  0  0  0  0  0  0  0  0  0  0  0
    4.2597   -0.2852   -0.9714 O   0  0  0  0  0  0  0  0  0  0  0  0
    3.8043   -0.4309    1.2866 N   0  0  0  0  0  0  0  0  0  0  0  0
    3.3911    0.9471    1.4210 C   0  0  1  0  0  0  0  0  0  0  0  0
    4.4972    1.8896    1.1740 C   0  0  0  0  0  0  0  0  0  0  0  0
    5.6264    1.7412    2.1186 C   0  0  0  0  0  0  0  0  0  0  0  0
    6.7156    0.9673    1.8166 C   0  0  0  0  0  0  0  0  0  0  0  0
    7.7577    0.8307    2.7499 C   0  0  0  0  0  0  0  0  0  0  0  0
    7.7136    1.4589    3.9681 C   0  0  0  0  0  0  0  0  0  0  0  0
    6.6012    2.2477    4.2708 C   0  0  0  0  0  0  0  0  0  0  0  0
    5.5891    2.3741    3.3536 C   0  0  0  0  0  0  0  0  0  0  0  0
    2.1643    1.1408    0.6040 C   0  0  0  0  0  0  0  0  0  0  0  0
    1.6369    0.1833   -0.0209 O   0  0  0  0  0  0  0  0  0  0  0  0
    1.5776    2.4407    0.5391 N   0  0  0  0  0  0  0  0  0  0  0  0
    0.3373    2.6226   -0.2450 C   0  0  1  0  0  0  0  0  0  0  0  0
    0.6309    2.4155   -1.6731 C   0  0  0  0  0  0  0  0  0  0  0  0
   -0.5379    2.5474   -2.5933 C   0  0  0  0  0  0  0  0  0  0  0  0
   -0.1570    2.3987   -4.0642 C   0  0  0  0  0  0  0  0  0  0  0  0
    0.7740    3.4287   -4.4303 N   0  0  0  0  0  0  0  0  0  0  0  0
    0.3111    4.7746   -4.4835 C   0  0  0  0  0  0  0  0  0  0  0  0
    0.2668    5.3891   -5.7770 N   0  0  0  0  0  0  0  0  0  0  0  0
   -0.0678    5.4638   -3.4718 N   0  0  0  0  0  0  0  0  0  0  0  0
   -0.7662    1.9347    0.3926 C   0  0  0  0  0  0  0  0  0  0  0  0
   -0.4814    1.2344    1.4658 O   0  0  0  0  0  0  0  0  0  0  0  0
   -2.1287    1.8905    0.0489 N   0  0  0  0  0  0  0  0  0  0  0  0
   -2.9933    1.0938    0.9034 C   0  0  1  0  0  0  0  0  0  0  0  0
   -4.0822    1.9943    1.4446 C   0  0  0  0  0  0  0  0  0  0  0  0
   -4.9286    2.5927    0.3884 C   0  0  0  0  0  0  0  0  0  0  0  0
   -4.6724    3.7875   -0.2467 C   0  0  0  0  0  0  0  0  0  0  0  0
   -5.4882    4.3111   -1.2401 C   0  0  0  0  0  0  0  0  0  0  0  0
   -6.6294    3.6391   -1.6514 C   0  0  0  0  0  0  0  0  0  0  0  0
   -7.4790    4.1164   -2.6417 O   0  0  0  0  0  0  0  0  0  0  0  0
   -6.8976    2.4365   -1.0185 C   0  0  0  0  0  0  0  0  0  0  0  0
   -6.0830    1.9204   -0.0309 C   0  0  0  0  0  0  0  0  0  0  0  0
   -3.5928   -0.0696    0.1933 C   0  0  0  0  0  0  0  0  0  0  0  0
   -3.5889   -0.1511   -1.0613 O   0  0  0  0  0  0  0  0  0  0  0  0
   -4.1820   -1.1237    0.9278 N   0  0  0  0  0  0  0  0  0  0  0  0
   -4.8036   -2.3015    0.4197 C   0  0  1  0  0  0  0  0  0  0  0  0
   -3.7683   -3.3881    0.1223 C   0  0  0  0  0  0  0  0  0  0  0  0
   -2.9600   -3.7366    1.2898 C   0  0  0  0  0  0  0  0  0  0  0  0
   -3.3502   -4.6985    2.1827 C   0  0  0  0  0  0  0  0  0  0  0  0
   -2.5395   -4.9972    3.2649 C   0  0  0  0  0  0  0  0  0  0  0  0
   -1.3604   -4.3469    3.4509 C   0  0  0  0  0  0  0  0  0  0  0  0
   -0.9706   -3.3737    2.5428 C   0  0  0  0  0  0  0  0  0  0  0  0
   -1.7554   -3.0661    1.4719 C   0  0  0  0  0  0  0  0  0  0  0  0
   -5.8655   -2.8578    1.2511 C   0  0  0  0  0  0  0  0  0  0  0  0
   -6.6565   -3.9799    0.9097 N   0  0  0  0  0  0  0  0  0  0  0  0
   -6.1116   -2.2986    2.3738 O   0  0  0  0  0  0  0  0  0  0  0  0
    2.7402   -5.8815   -2.4782 H   0  0  0  0  0  0  0  0  0  0  0  0
    3.5137   -4.5652   -3.5021 H   0  0  0  0  0  0  0  0  0  0  0  0
    2.0317   -4.2168   -2.4557 H   0  0  0  0  0  0  0  0  0  0  0  0
    4.9444   -4.7112   -1.6711 H   0  0  0  0  0  0  0  0  0  0  0  0
    3.0922   -6.3110   -0.6175 H   0  0  0  0  0  0  0  0  0  0  0  0
    4.2784   -5.5276    0.4591 H   0  0  0  0  0  0  0  0  0  0  0  0
    2.6133   -4.8113    0.2851 H   0  0  0  0  0  0  0  0  0  0  0  0
    2.6834   -2.7125   -0.9468 H   0  0  0  0  0  0  0  0  0  0  0  0
    3.9707   -2.4743   -2.1368 H   0  0  0  0  0  0  0  0  0  0  0  0
    5.6848   -2.4757   -0.3121 H   0  0  0  0  0  0  0  0  0  0  0  0
    3.4151   -2.9729    1.5614 H   0  0  0  0  0  0  0  0  0  0  0  0
    5.1399   -2.9833    1.8760 H   0  0  0  0  0  0  0  0  0  0  0  0
    3.8141   -1.0817    2.1242 H   0  0  0  0  0  0  0  0  0  0  0  0
    3.0765    1.1227    2.5142 H   0  0  0  0  0  0  0  0  0  0  0  0
    4.1131    2.9524    1.1839 H   0  0  0  0  0  0  0  0  0  0  0  0
    4.9258    1.7745    0.1579 H   0  0  0  0  0  0  0  0  0  0  0  0
    6.8252    0.4482    0.8689 H   0  0  0  0  0  0  0  0  0  0  0  0
    8.5898    0.2126    2.4728 H   0  0  0  0  0  0  0  0  0  0  0  0
    8.4847    1.3852    4.7152 H   0  0  0  0  0  0  0  0  0  0  0  0
    6.5233    2.7632    5.2242 H   0  0  0  0  0  0  0  0  0  0  0  0
    4.6990    2.9765    3.5359 H   0  0  0  0  0  0  0  0  0  0  0  0
    2.0296    3.2230    1.0405 H   0  0  0  0  0  0  0  0  0  0  0  0
    0.1410    3.7409   -0.1262 H   0  0  0  0  0  0  0  0  0  0  0  0
    1.3387    3.2625   -1.9703 H   0  0  0  0  0  0  0  0  0  0  0  0
    1.2353    1.5113   -1.9289 H   0  0  0  0  0  0  0  0  0  0  0  0
   -1.1164    3.4288   -2.3641 H   0  0  0  0  0  0  0  0  0  0  0  0
   -1.1913    1.6245   -2.4229 H   0  0  0  0  0  0  0  0  0  0  0  0
    0.1864    1.3750   -4.2478 H   0  0  0  0  0  0  0  0  0  0  0  0
   -1.1014    2.6082   -4.6493 H   0  0  0  0  0  0  0  0  0  0  0  0
    1.7568    3.1405   -4.6408 H   0  0  0  0  0  0  0  0  0  0  0  0
    1.0899    5.8868   -6.1371 H   0  0  0  0  0  0  0  0  0  0  0  0
   -0.6099    5.3135   -6.3214 H   0  0  0  0  0  0  0  0  0  0  0  0
   -0.3936    6.4371   -3.5700 H   0  0  0  0  0  0  0  0  0  0  0  0
   -2.5237    2.3949   -0.7559 H   0  0  0  0  0  0  0  0  0  0  0  0
   -2.4069    0.6954    1.7398 H   0  0  0  0  0  0  0  0  0  0  0  0
   -4.6593    1.3776    2.1594 H   0  0  0  0  0  0  0  0  0  0  0  0
   -3.5680    2.7640    2.0727 H   0  0  0  0  0  0  0  0  0  0  0  0
   -3.7772    4.3387    0.0521 H   0  0  0  0  0  0  0  0  0  0  0  0
   -5.2617    5.2505   -1.7238 H   0  0  0  0  0  0  0  0  0  0  0  0
   -8.2838    4.7290   -2.4334 H   0  0  0  0  0  0  0  0  0  0  0  0
   -7.7992    1.9068   -1.3441 H   0  0  0  0  0  0  0  0  0  0  0  0
   -6.2977    0.9896    0.4593 H   0  0  0  0  0  0  0  0  0  0  0  0
   -4.1604   -1.0304    1.9888 H   0  0  0  0  0  0  0  0  0  0  0  0
   -5.1509   -2.0247   -0.6357 H   0  0  0  0  0  0  0  0  0  0  0  0
   -3.1108   -3.0832   -0.7122 H   0  0  0  0  0  0  0  0  0  0  0  0
   -4.2884   -4.3294   -0.2072 H   0  0  0  0  0  0  0  0  0  0  0  0
   -4.2587   -5.2606    2.1030 H   0  0  0  0  0  0  0  0  0  0  0  0
   -2.8219   -5.7509    3.9858 H   0  0  0  0  0  0  0  0  0  0  0  0
   -0.7087   -4.5640    4.2955 H   0  0  0  0  0  0  0  0  0  0  0  0
   -0.0384   -2.8184    2.6337 H   0  0  0  0  0  0  0  0  0  0  0  0
   -1.4900   -2.3158    0.7316 H   0  0  0  0  0  0  0  0  0  0  0  0
   -7.1987   -3.9960    0.0231 H   0  0  0  0  0  0  0  0  0  0  0  0
   -6.7440   -4.8433    1.5091 H   0  0  0  0  0  0  0  0  0  0  0  0
  1  2  1  0
  2  3  1  0
  2  4  1  0
  4  5  1  0
  5  6  1  0
  5  7  1  0
  7  8  2  0
  7  9  1  0
  9 10  1  0
 10 11  1  0
 11 12  1  0
 12 13  2  0
 13 14  1  0
 14 15  2  0
 15 16  1  0
 16 17  2  0
 10 18  1  0
 18 19  2  0
 18 20  1  0
 20 21  1  0
 21 22  1  0
 22 23  1  0
 23 24  1  0
 24 25  1  0
 25 26  1  0
 26 27  1  0
 26 28  2  3
 21 29  1  0
 29 30  2  0
 29 31  1  0
 31 32  1  0
 32 33  1  0
 33 34  1  0
 34 35  2  0
 35 36  1  0
 36 37  2  0
 37 38  1  0
 37 39  1  0
 39 40  2  0
 32 41  1  0
 41 42  2  0
 41 43  1  0
 43 44  1  0
 44 45  1  0
 45 46  1  0
 46 47  2  0
 47 48  1  0
 48 49  2  0
 49 50  1  0
 50 51  2  0
 44 52  1  0
 52 53  1  0
 52 54  2  0
 17 12  1  0
 40 34  1  0
 51 46  1  0
  1 55  1  0
  1 56  1  0
  1 57  1  0
  2 58  1  0
  3 59  1  0
  3 60  1  0
  3 61  1  0
  4 62  1  0
  4 63  1  0
  5 64  1  6
  6 65  1  0
  6 66  1  0
  9 67  1  0
 10 68  1  1
 11 69  1  0
 11 70  1  0
 13 71  1  0
 14 72  1  0
 15 73  1  0
 16 74  1  0
 17 75  1  0
 20 76  1  0
 21 77  1  6
 22 78  1  0
 22 79  1  0
 23 80  1  0
 23 81  1  0
 24 82  1  0
 24 83  1  0
 25 84  1  0
 27 85  1  0
 27 86  1  0
 28 87  1  0
 31 88  1  0
 32 89  1  1
 33 90  1  0
 33 91  1  0
 35 92  1  0
 36 93  1  0
 38 94  1  0
 39 95  1  0
 40 96  1  0
 43 97  1  0
 44 98  1  6
 45 99  1  0
 45100  1  0
 47101  1  0
 48102  1  0
 49103  1  0
 50104  1  0
 51105  1  0
 53106  1  0
 53107  1  0
M  END
$$$$
[H]c1c([H])c(S(=O)(=O)N([H])[C@@]([H])(C([H])([H])c2c([H])c([H])c(C(F)(F)F)c([H])c2[H])C(C([H])([H])[H])(C([H])([H])[H])C([H])([H])[H])c([H])c([H])c1OC([H])([H])[H]
     RDKit          3D

 52 53  0  0  0  0  0  0  0  0999 V2000
    7.5916   -0.1075    0.1681 C   0  0  0  0  0  0  0  0  0  0  0  0
    6.8468    0.9050   -0.4217 O   0  0  0  0  0  0  0  0  0  0  0  0
    5.4702    0.9835   -0.4763 C   0  0  0  0  0  0  0  0  0  0  0  0
    4.6188    0.0604    0.0724 C   0  0  0  0  0  0  0  0  0  0  0  0
    3.2353    0.2056   -0.0393 C   0  0  0  0  0  0  0  0  0  0  0  0
    2.6599    1.2330   -0.6744 C   0  0  0  0  0  0  0  0  0  0  0  0
    3.5499    2.1769   -1.2337 C   0  0  0  0  0  0  0  0  0  0  0  0
    4.8944    2.0680   -1.1427 C   0  0  0  0  0  0  0  0  0  0  0  0
    0.9886    1.5185   -0.8643 S   0  0  0  0  0  0  0  0  0  0  0  0
    0.6491    2.6752    0.1032 O   0  0  0  0  0  0  0  0  0  0  0  0
    0.8879    2.1998   -2.2944 O   0  0  0  0  0  0  0  0  0  0  0  0
   -0.1545    0.3382   -0.7773 N   0  0  0  0  0  0  0  0  0  0  0  0
   -0.3886   -0.3930    0.3827 C   0  0  1  0  0  0  0  0  0  0  0  0
   -1.4022    0.3834    1.2814 C   0  0  0  0  0  0  0  0  0  0  0  0
   -2.6935    0.6364    0.6941 C   0  0  0  0  0  0  0  0  0  0  0  0
   -2.9482    1.5797   -0.2806 C   0  0  0  0  0  0  0  0  0  0  0  0
   -4.1985    1.8325   -0.8094 C   0  0  0  0  0  0  0  0  0  0  0  0
   -5.2715    1.1097   -0.3457 C   0  0  0  0  0  0  0  0  0  0  0  0
   -5.0518    0.1618    0.6282 C   0  0  0  0  0  0  0  0  0  0  0  0
   -3.8133   -0.0446    1.1074 C   0  0  0  0  0  0  0  0  0  0  0  0
   -6.6504    1.3256   -0.8984 C   0  0  0  0  0  0  0  0  0  0  0  0
   -7.0059    2.6464   -0.7556 F   0  0  0  0  0  0  0  0  0  0  0  0
   -6.6735    0.9437   -2.2321 F   0  0  0  0  0  0  0  0  0  0  0  0
   -7.5111    0.5584   -0.1547 F   0  0  0  0  0  0  0  0  0  0  0  0
   -0.6182   -1.8152    0.2427 C   0  0  0  0  0  0  0  0  0  0  0  0
   -1.7503   -2.2546   -0.6564 C   0  0  0  0  0  0  0  0  0  0  0  0
   -0.9262   -2.4924    1.5961 C   0  0  0  0  0  0  0  0  0  0  0  0
    0.6017   -2.5539   -0.2413 C   0  0  0  0  0  0  0  0  0  0  0  0
    8.5684   -0.1496   -0.3802 H   0  0  0  0  0  0  0  0  0  0  0  0
    7.8311    0.0497    1.2298 H   0  0  0  0  0  0  0  0  0  0  0  0
    7.0805   -1.0854    0.0014 H   0  0  0  0  0  0  0  0  0  0  0  0
    5.0118   -0.7990    0.5962 H   0  0  0  0  0  0  0  0  0  0  0  0
    2.6694   -0.5729    0.4388 H   0  0  0  0  0  0  0  0  0  0  0  0
    3.0905    3.0266   -1.7615 H   0  0  0  0  0  0  0  0  0  0  0  0
    5.5754    2.7828   -1.5629 H   0  0  0  0  0  0  0  0  0  0  0  0
   -0.6080    0.1203   -1.6521 H   0  0  0  0  0  0  0  0  0  0  0  0
    0.5233   -0.2281    1.0556 H   0  0  0  0  0  0  0  0  0  0  0  0
   -1.4155   -0.1319    2.2554 H   0  0  0  0  0  0  0  0  0  0  0  0
   -0.8935    1.3511    1.4796 H   0  0  0  0  0  0  0  0  0  0  0  0
   -2.1200    2.1915   -0.6934 H   0  0  0  0  0  0  0  0  0  0  0  0
   -4.3380    2.5750   -1.5729 H   0  0  0  0  0  0  0  0  0  0  0  0
   -5.9122   -0.3906    0.9873 H   0  0  0  0  0  0  0  0  0  0  0  0
   -3.6680   -0.8042    1.8857 H   0  0  0  0  0  0  0  0  0  0  0  0
   -2.6652   -2.5063   -0.1059 H   0  0  0  0  0  0  0  0  0  0  0  0
   -1.8915   -1.6071   -1.5430 H   0  0  0  0  0  0  0  0  0  0  0  0
   -1.4609   -3.2611   -1.1154 H   0  0  0  0  0  0  0  0  0  0  0  0
   -2.0315   -2.5756    1.7056 H   0  0  0  0  0  0  0  0  0  0  0  0
   -0.5467   -3.5275    1.6360 H   0  0  0  0  0  0  0  0  0  0  0  0
   -0.4452   -1.9316    2.3968 H   0  0  0  0  0  0  0  0  0  0  0  0
    1.0073   -2.1897   -1.2102 H   0  0  0  0  0  0  0  0  0  0  0  0
    0.3192   -3.6352   -0.3605 H   0  0  0  0  0  0  0  0  0  0  0  0
    1.3827   -2.5818    0.5670 H   0  0  0  0  0  0  0  0  0  0  0  0
  1  2  1  0
  2  3  1  0
  3  4  2  0
  4  5  1  0
  5  6  2  0
  6  7  1  0
  7  8  2  0
  6  9  1  0
  9 10  2  0
  9 11  2  0
  9 12  1  0
 12 13  1  0
 13 14  1  0
 14 15  1  0
 15 16  2  0
 16 17  1  0
 17 18  2  0
 18 19  1  0
 19 20  2  0
 18 21  1  0
 21 22  1  0
 21 23  1  0
 21 24  1  0
 13 25  1  0
 25 26  1  0
 25 27  1  0
 25 28  1  0
  8  3  1  0
 20 15  1  0
  1 29  1  0
  1 30  1  0
  1 31  1  0
  4 32  1  0
  5 33  1  0
  7 34  1  0
  8 35  1  0
 12 36  1  0
 13 37  1  1
 14 38  1  0
 14 39  1  0
 16 40  1  0
 17 41  1  0
 19 42  1  0
 20 43  1  0
 26 44  1  0
 26 45  1  0
 26 46  1  0
 27 47  1  0
 27 48  1  0
 27 49  1  0
 28 50  1  0
 28 51  1  0
 28 52  1  0
M  END
$$$$
[H]c1nc2c([H])c(OC([H])([H])C([H])([H])C([H])([H])N3C([H])([H])C([H])([H])OC([H])([H])C3([H])[H])c(OC([H])([H])[H])c([H])c2c(Oc2c([H])c([H])c(N([H])C(=O)N([H])c3c(Cl)c([H])c([H])c([H])c3Cl)c([H])c2Cl)c1[H]
     RDKit          3D

 71 75  0  0  0  0  0  0  0  0999 V2000
    2.3204    3.1996   -1.4622 C   0  0  0  0  0  0  0  0  0  0  0  0
    3.0835    2.0461   -1.2049 O   0  0  0  0  0  0  0  0  0  0  0  0
    2.4955    0.8395   -0.8594 C   0  0  0  0  0  0  0  0  0  0  0  0
    1.1489    0.6385   -0.7082 C   0  0  0  0  0  0  0  0  0  0  0  0
    0.5714   -0.5662   -0.3713 C   0  0  0  0  0  0  0  0  0  0  0  0
   -0.8008   -0.7328   -0.2252 C   0  0  0  0  0  0  0  0  0  0  0  0
   -1.5968    0.3784   -0.4303 O   0  0  0  0  0  0  0  0  0  0  0  0
   -2.9824    0.3891   -0.4192 C   0  0  0  0  0  0  0  0  0  0  0  0
   -3.6446    1.0746    0.5730 C   0  0  0  0  0  0  0  0  0  0  0  0
   -5.0238    1.1093    0.6131 C   0  0  0  0  0  0  0  0  0  0  0  0
   -5.8150    0.4773   -0.3120 C   0  0  0  0  0  0  0  0  0  0  0  0
   -7.2218    0.4284   -0.3152 N   0  0  0  0  0  0  0  0  0  0  0  0
   -7.9964    0.2623    0.9080 C   0  0  0  0  0  0  0  0  0  0  0  0
   -7.3143    0.1822    1.9872 O   0  0  0  0  0  0  0  0  0  0  0  0
   -9.3458    0.2017    0.8341 N   0  0  0  0  0  0  0  0  0  0  0  0
  -10.7013    0.1408    0.7601 C   0  0  0  0  0  0  0  0  0  0  0  0
  -11.3784   -1.0806    0.5581 C   0  0  0  0  0  0  0  0  0  0  0  0
  -10.4175   -2.5452    0.4618 Cl  0  0  0  0  0  0  0  0  0  0  0  0
  -12.7317   -1.1605    0.4369 C   0  0  0  0  0  0  0  0  0  0  0  0
  -13.4632    0.0205    0.5180 C   0  0  0  0  0  0  0  0  0  0  0  0
  -12.8234    1.2193    0.7136 C   0  0  0  0  0  0  0  0  0  0  0  0
  -11.4534    1.3042    0.8373 C   0  0  0  0  0  0  0  0  0  0  0  0
  -10.7034    2.8582    1.0829 Cl  0  0  0  0  0  0  0  0  0  0  0  0
   -5.1115   -0.2167   -1.3204 C   0  0  0  0  0  0  0  0  0  0  0  0
   -3.7497   -0.2559   -1.3670 C   0  0  0  0  0  0  0  0  0  0  0  0
   -2.9232   -1.1220   -2.6829 Cl  0  0  0  0  0  0  0  0  0  0  0  0
   -1.3515   -1.9514    0.1112 C   0  0  0  0  0  0  0  0  0  0  0  0
   -0.4811   -3.0157    0.3027 C   0  0  0  0  0  0  0  0  0  0  0  0
    0.8429   -2.8422    0.1604 N   0  0  0  0  0  0  0  0  0  0  0  0
    1.3987   -1.6689   -0.1657 C   0  0  0  0  0  0  0  0  0  0  0  0
    2.7619   -1.4885   -0.3111 C   0  0  0  0  0  0  0  0  0  0  0  0
    3.3417   -0.2821   -0.6476 C   0  0  0  0  0  0  0  0  0  0  0  0
    4.6524   -0.0345   -0.8032 O   0  0  0  0  0  0  0  0  0  0  0  0
    5.8560   -0.6524   -0.7499 C   0  0  0  0  0  0  0  0  0  0  0  0
    6.9571    0.3815   -1.0730 C   0  0  0  0  0  0  0  0  0  0  0  0
    8.3058   -0.1751   -1.0369 C   0  0  0  0  0  0  0  0  0  0  0  0
    8.8230   -0.7432    0.1329 N   0  0  0  0  0  0  0  0  0  0  0  0
   10.2021   -1.1598    0.0415 C   0  0  0  0  0  0  0  0  0  0  0  0
   11.1470   -0.0974    0.5809 C   0  0  0  0  0  0  0  0  0  0  0  0
   10.8506   -0.0285    1.9714 O   0  0  0  0  0  0  0  0  0  0  0  0
    9.6086    0.5871    2.0677 C   0  0  0  0  0  0  0  0  0  0  0  0
    8.5044   -0.2031    1.3943 C   0  0  0  0  0  0  0  0  0  0  0  0
    3.0308    4.0623   -1.4875 H   0  0  0  0  0  0  0  0  0  0  0  0
    1.5955    3.4214   -0.6598 H   0  0  0  0  0  0  0  0  0  0  0  0
    1.7675    3.1234   -2.4327 H   0  0  0  0  0  0  0  0  0  0  0  0
    0.4725    1.4824   -0.8586 H   0  0  0  0  0  0  0  0  0  0  0  0
   -3.0708    1.6102    1.3551 H   0  0  0  0  0  0  0  0  0  0  0  0
   -5.5217    1.6724    1.4189 H   0  0  0  0  0  0  0  0  0  0  0  0
   -7.7430    0.5081   -1.1995 H   0  0  0  0  0  0  0  0  0  0  0  0
   -9.4679    0.0365    2.1904 H   0  0  0  0  0  0  0  0  0  0  0  0
  -13.2730   -2.0882    0.2745 H   0  0  0  0  0  0  0  0  0  0  0  0
  -14.5219   -0.0408    0.4197 H   0  0  0  0  0  0  0  0  0  0  0  0
  -13.3982    2.1320    0.7739 H   0  0  0  0  0  0  0  0  0  0  0  0
   -5.7121   -0.7314   -2.0703 H   0  0  0  0  0  0  0  0  0  0  0  0
   -2.4307   -2.0800    0.2357 H   0  0  0  0  0  0  0  0  0  0  0  0
   -0.9426   -3.9719    0.5693 H   0  0  0  0  0  0  0  0  0  0  0  0
    3.4046   -2.3458   -0.1460 H   0  0  0  0  0  0  0  0  0  0  0  0
    6.0197   -1.4934   -1.4640 H   0  0  0  0  0  0  0  0  0  0  0  0
    6.0174   -1.0785    0.2618 H   0  0  0  0  0  0  0  0  0  0  0  0
    6.7223    0.6819   -2.1361 H   0  0  0  0  0  0  0  0  0  0  0  0
    6.7946    1.3043   -0.4804 H   0  0  0  0  0  0  0  0  0  0  0  0
    9.0690    0.5864   -1.3935 H   0  0  0  0  0  0  0  0  0  0  0  0
    8.3802   -0.9619   -1.8511 H   0  0  0  0  0  0  0  0  0  0  0  0
   10.5081   -1.3888   -0.9854 H   0  0  0  0  0  0  0  0  0  0  0  0
   10.3315   -2.0574    0.6759 H   0  0  0  0  0  0  0  0  0  0  0  0
   12.1668   -0.5222    0.5214 H   0  0  0  0  0  0  0  0  0  0  0  0
   11.0394    0.8779    0.1098 H   0  0  0  0  0  0  0  0  0  0  0  0
    9.6727    1.6379    1.7743 H   0  0  0  0  0  0  0  0  0  0  0  0
    9.3624    0.5859    3.1736 H   0  0  0  0  0  0  0  0  0  0  0  0
    8.3031   -1.0809    2.0801 H   0  0  0  0  0  0  0  0  0  0  0  0
    7.5827    0.4021    1.4254 H   0  0  0  0  0  0  0  0  0  0  0  0
  1  2  1  0
  2  3  1  0
  3  4  2  0
  4  5  1  0
  5  6  2  0
  6  7  1  0
  7  8  1  0
  8  9  2  0
  9 10  1  0
 10 11  2  0
 11 12  1  0
 12 13  1  0
 13 14  2  0
 13 15  1  0
 15 16  1  0
 16 17  2  0
 17 18  1  0
 17 19  1  0
 19 20  2  0
 20 21  1  0
 21 22  2  0
 22 23  1  0
 11 24  1  0
 24 25  2  0
 25 26  1  0
  6 27  1  0
 27 28  2  0
 28 29  1  0
 29 30  2  0
 30 31  1  0
 31 32  2  0
 32 33  1  0
 33 34  1  0
 34 35  1  0
 35 36  1  0
 36 37  1  0
 37 38  1  0
 38 39  1  0
 39 40  1  0
 40 41  1  0
 41 42  1  0
 32  3  1  0
 42 37  1  0
 30  5  1  0
 25  8  1  0
 22 16  1  0
  1 43  1  0
  1 44  1  0
  1 45  1  0
  4 46  1  0
  9 47  1  0
 10 48  1  0
 12 49  1  0
 15 50  1  0
 19 51  1  0
 20 52  1  0
 21 53  1  0
 24 54  1  0
 27 55  1  0
 28 56  1  0
 31 57  1  0
 34 58  1  0
 34 59  1  0
 35 60  1  0
 35 61  1  0
 36 62  1  0
 36 63  1  0
 38 64  1  0
 38 65  1  0
 39 66  1  0
 39 67  1  0
 41 68  1  0
 41 69  1  0
 42 70  1  0
 42 71  1  0
M  END
$$$$
