[H]c1c(C([H])([H])n2nc([H])c3c([H])c(N([H])[H])c(OC([H])([H])[H])c([H])c32)c([H])c2c([H])c(C(=O)N([H])C([H])([H])[C@@]3([H])C(=O)N(C([H])([H])[H])C([H])([H])C([H])([H])C3([H])[H])oc2c1[H]
     RDKit          3D

 61 65  0  0  0  0  0  0  0  0999 V2000
   -7.1996   -1.2225    3.8116 C   0  0  0  0  0  0  0  0  0  0  0  0
   -7.7537   -1.0530    2.4928 O   0  0  0  0  0  0  0  0  0  0  0  0
   -7.1511   -0.4388    1.4528 C   0  0  0  0  0  0  0  0  0  0  0  0
   -5.9148    0.1417    1.5609 C   0  0  0  0  0  0  0  0  0  0  0  0
   -5.3413    0.7971    0.4494 C   0  0  0  0  0  0  0  0  0  0  0  0
   -4.2269    1.5326    0.3152 N   0  0  0  0  0  0  0  0  0  0  0  0
   -3.0944    1.6951    1.2219 C   0  0  0  0  0  0  0  0  0  0  0  0
   -1.8682    1.1704    0.6071 C   0  0  0  0  0  0  0  0  0  0  0  0
   -0.8914    2.1436    0.2669 C   0  0  0  0  0  0  0  0  0  0  0  0
    0.3011    1.8377   -0.3327 C   0  0  0  0  0  0  0  0  0  0  0  0
    0.5874    0.5112   -0.6306 C   0  0  0  0  0  0  0  0  0  0  0  0
    1.6621   -0.0323   -1.1979 O   0  0  0  0  0  0  0  0  0  0  0  0
    1.5149   -1.3191   -1.2767 C   0  0  0  0  0  0  0  0  0  0  0  0
    0.2800   -1.6256   -0.7402 C   0  0  0  0  0  0  0  0  0  0  0  0
   -0.3237   -0.4504   -0.3221 C   0  0  0  0  0  0  0  0  0  0  0  0
   -1.5319   -0.1019    0.2907 C   0  0  0  0  0  0  0  0  0  0  0  0
    2.5184   -2.2952   -1.8361 C   0  0  0  0  0  0  0  0  0  0  0  0
    2.0854   -3.4424   -2.0675 O   0  0  0  0  0  0  0  0  0  0  0  0
    3.7804   -1.8469   -2.0186 N   0  0  0  0  0  0  0  0  0  0  0  0
    5.0760   -1.3948   -2.2085 C   0  0  0  0  0  0  0  0  0  0  0  0
    5.2863    0.0607   -1.7332 C   0  0  2  0  0  0  0  0  0  0  0  0
    6.6614    0.5072   -2.2061 C   0  0  0  0  0  0  0  0  0  0  0  0
    7.2146    1.5611   -1.2844 C   0  0  0  0  0  0  0  0  0  0  0  0
    7.7770    0.7867   -0.0854 C   0  0  0  0  0  0  0  0  0  0  0  0
    6.6363    0.0014    0.4108 N   0  0  0  0  0  0  0  0  0  0  0  0
    6.7991   -0.8357    1.5754 C   0  0  0  0  0  0  0  0  0  0  0  0
    5.3506    0.0784   -0.2418 C   0  0  0  0  0  0  0  0  0  0  0  0
    4.3348    0.1597    0.5203 O   0  0  0  0  0  0  0  0  0  0  0  0
   -4.2513    2.0140   -0.9360 N   0  0  0  0  0  0  0  0  0  0  0  0
   -5.3427    1.6073   -1.5985 C   0  0  0  0  0  0  0  0  0  0  0  0
   -6.0801    0.8066   -0.7124 C   0  0  0  0  0  0  0  0  0  0  0  0
   -7.3206    0.2152   -0.8292 C   0  0  0  0  0  0  0  0  0  0  0  0
   -7.8840   -0.4162    0.2383 C   0  0  0  0  0  0  0  0  0  0  0  0
   -9.1680   -1.0481    0.1772 N   0  0  0  0  0  0  0  0  0  0  0  0
   -6.4872   -2.0574    3.7227 H   0  0  0  0  0  0  0  0  0  0  0  0
   -6.5841   -0.2631    3.9464 H   0  0  0  0  0  0  0  0  0  0  0  0
   -8.0034   -1.3232    4.5372 H   0  0  0  0  0  0  0  0  0  0  0  0
   -5.3105    0.1585    2.4505 H   0  0  0  0  0  0  0  0  0  0  0  0
   -3.3125    1.1314    2.1787 H   0  0  0  0  0  0  0  0  0  0  0  0
   -2.9755    2.7490    1.4660 H   0  0  0  0  0  0  0  0  0  0  0  0
   -1.1401    3.1856    0.5176 H   0  0  0  0  0  0  0  0  0  0  0  0
    1.0284    2.6024   -0.5769 H   0  0  0  0  0  0  0  0  0  0  0  0
   -0.1417   -2.5975   -0.6567 H   0  0  0  0  0  0  0  0  0  0  0  0
   -2.2278   -0.8932    0.5220 H   0  0  0  0  0  0  0  0  0  0  0  0
    4.1637   -3.0678   -2.4873 H   0  0  0  0  0  0  0  0  0  0  0  0
    5.3848   -1.3334   -3.2993 H   0  0  0  0  0  0  0  0  0  0  0  0
    5.9013   -2.0265   -1.7462 H   0  0  0  0  0  0  0  0  0  0  0  0
    4.5043    0.6685   -2.1060 H   0  0  0  0  0  0  0  0  0  0  0  0
    6.5585    1.0024   -3.2231 H   0  0  0  0  0  0  0  0  0  0  0  0
    7.3611   -0.3348   -2.2780 H   0  0  0  0  0  0  0  0  0  0  0  0
    8.0218    2.1578   -1.7623 H   0  0  0  0  0  0  0  0  0  0  0  0
    6.3781    2.1821   -0.9238 H   0  0  0  0  0  0  0  0  0  0  0  0
    8.6248    0.1520   -0.3464 H   0  0  0  0  0  0  0  0  0  0  0  0
    7.9995    1.5260    0.6914 H   0  0  0  0  0  0  0  0  0  0  0  0
    6.8379   -0.2073    2.5010 H   0  0  0  0  0  0  0  0  0  0  0  0
    6.0376   -1.6229    1.6919 H   0  0  0  0  0  0  0  0  0  0  0  0
    7.7773   -1.3608    1.4394 H   0  0  0  0  0  0  0  0  0  0  0  0
   -5.6953    1.7900   -2.6036 H   0  0  0  0  0  0  0  0  0  0  0  0
   -7.8951    0.2275   -1.7477 H   0  0  0  0  0  0  0  0  0  0  0  0
   -9.4863   -1.8072    0.8281 H   0  0  0  0  0  0  0  0  0  0  0  0
   -9.8417   -0.7432   -0.5563 H   0  0  0  0  0  0  0  0  0  0  0  0
  1  2  1  0
  2  3  1  0
  3  4  2  0
  4  5  1  0
  5  6  1  0
  6  7  1  0
  7  8  1  0
  8  9  2  0
  9 10  1  0
 10 11  2  0
 11 12  1  0
 12 13  1  0
 13 14  2  0
 14 15  1  0
 15 16  2  0
 13 17  1  0
 17 18  2  0
 17 19  1  0
 19 20  1  0
 20 21  1  0
 21 22  1  0
 22 23  1  0
 23 24  1  0
 24 25  1  0
 25 26  1  0
 25 27  1  0
 27 28  2  0
  6 29  1  0
 29 30  2  0
 30 31  1  0
 31 32  1  0
 32 33  2  0
 33 34  1  0
 33  3  1  0
 31  5  2  0
 16  8  1  0
 27 21  1  0
 15 11  1  0
  1 35  1  0
  1 36  1  0
  1 37  1  0
  4 38  1  0
  7 39  1  0
  7 40  1  0
  9 41  1  0
 10 42  1  0
 14 43  1  0
 16 44  1  0
 19 45  1  0
 20 46  1  0
 20 47  1  0
 21 48  1  1
 22 49  1  0
 22 50  1  0
 23 51  1  0
 23 52  1  0
 24 53  1  0
 24 54  1  0
 26 55  1  0
 26 56  1  0
 26 57  1  0
 30 58  1  0
 32 59  1  0
 34 60  1  0
 34 61  1  0
M  END
$$$$
[H]/C(C(=O)N([H])c1c([H])c([H])c(Oc2c([H])c([H])c([H])c(N([H])C(=O)c3c([H])c([H])c([H])c([H])c3[H])c2[H])c(Cl)c1[H])=C(C(/[H])=C(\[H])C(=O)N1C([H])([H])C([H])([H])OC([H])([H])C1([H])[H])\C([H])([H])[H]
     RDKit          3D

 67 70  0  0  0  0  0  0  0  0999 V2000
   -6.5413    2.1114   -4.2751 C   0  0  0  0  0  0  0  0  0  0  0  0
   -5.4764    1.5276   -3.3680 C   0  0  0  0  0  0  0  0  0  0  0  0
   -5.8626    1.1419   -2.0460 C   0  0  0  0  0  0  0  0  0  0  0  0
   -7.1119    1.2803   -1.6092 C   0  0  0  0  0  0  0  0  0  0  0  0
   -7.6027    0.9268   -0.3086 C   0  0  0  0  0  0  0  0  0  0  0  0
   -8.8766    1.1852   -0.1826 O   0  0  0  0  0  0  0  0  0  0  0  0
   -7.0091    0.3798    0.8110 N   0  0  0  0  0  0  0  0  0  0  0  0
   -7.8918    0.1610    2.0022 C   0  0  0  0  0  0  0  0  0  0  0  0
   -7.7027   -1.2929    2.3703 C   0  0  0  0  0  0  0  0  0  0  0  0
   -6.3968   -1.5503    2.7818 O   0  0  0  0  0  0  0  0  0  0  0  0
   -5.5357   -0.5172    2.4886 C   0  0  0  0  0  0  0  0  0  0  0  0
   -5.6559   -0.0304    1.0490 C   0  0  0  0  0  0  0  0  0  0  0  0
   -4.2790    1.4116   -3.8335 C   0  0  0  0  0  0  0  0  0  0  0  0
   -3.1305    0.9049   -3.1939 C   0  0  0  0  0  0  0  0  0  0  0  0
   -2.0896    0.9594   -4.0136 O   0  0  0  0  0  0  0  0  0  0  0  0
   -2.8206    0.3842   -1.9758 N   0  0  0  0  0  0  0  0  0  0  0  0
   -1.4362   -0.0235   -1.6966 C   0  0  0  0  0  0  0  0  0  0  0  0
   -1.2425   -1.2349   -1.0284 C   0  0  0  0  0  0  0  0  0  0  0  0
    0.0460   -1.6148   -0.7250 C   0  0  0  0  0  0  0  0  0  0  0  0
    1.1391   -0.8274   -1.0661 C   0  0  0  0  0  0  0  0  0  0  0  0
    2.3937   -1.2450   -0.7469 O   0  0  0  0  0  0  0  0  0  0  0  0
    3.2291   -0.5637    0.1262 C   0  0  0  0  0  0  0  0  0  0  0  0
    2.7839    0.5121    0.8746 C   0  0  0  0  0  0  0  0  0  0  0  0
    3.6580    1.1343    1.7099 C   0  0  0  0  0  0  0  0  0  0  0  0
    4.9925    0.7536    1.8640 C   0  0  0  0  0  0  0  0  0  0  0  0
    5.4293   -0.3136    1.1199 C   0  0  0  0  0  0  0  0  0  0  0  0
    6.7468   -0.7896    1.1606 N   0  0  0  0  0  0  0  0  0  0  0  0
    7.8734   -0.1512    1.6748 C   0  0  0  0  0  0  0  0  0  0  0  0
    7.8458    0.9888    2.1887 O   0  0  0  0  0  0  0  0  0  0  0  0
    9.1906   -0.8189    1.6327 C   0  0  0  0  0  0  0  0  0  0  0  0
   10.2330   -0.3480    2.4150 C   0  0  0  0  0  0  0  0  0  0  0  0
   11.4924   -0.9014    2.4349 C   0  0  0  0  0  0  0  0  0  0  0  0
   11.7099   -1.9909    1.6193 C   0  0  0  0  0  0  0  0  0  0  0  0
   10.7140   -2.5013    0.8218 C   0  0  0  0  0  0  0  0  0  0  0  0
    9.4466   -1.9050    0.8340 C   0  0  0  0  0  0  0  0  0  0  0  0
    4.5376   -0.9724    0.2475 C   0  0  0  0  0  0  0  0  0  0  0  0
    0.9422    0.3621   -1.7231 C   0  0  0  0  0  0  0  0  0  0  0  0
    2.2320    1.4267   -2.2340 Cl  0  0  0  0  0  0  0  0  0  0  0  0
   -0.3738    0.7535   -2.0336 C   0  0  0  0  0  0  0  0  0  0  0  0
   -7.0250    2.9831   -3.7834 H   0  0  0  0  0  0  0  0  0  0  0  0
   -6.1150    2.3972   -5.2486 H   0  0  0  0  0  0  0  0  0  0  0  0
   -7.2967    1.2966   -4.3711 H   0  0  0  0  0  0  0  0  0  0  0  0
   -5.1951    0.7346   -1.3493 H   0  0  0  0  0  0  0  0  0  0  0  0
   -7.7887    1.7178   -2.3742 H   0  0  0  0  0  0  0  0  0  0  0  0
   -8.9483    0.2792    1.7153 H   0  0  0  0  0  0  0  0  0  0  0  0
   -7.5444    0.8726    2.7513 H   0  0  0  0  0  0  0  0  0  0  0  0
   -8.0290   -1.9119    1.5358 H   0  0  0  0  0  0  0  0  0  0  0  0
   -8.3624   -1.5017    3.2422 H   0  0  0  0  0  0  0  0  0  0  0  0
   -4.4919   -0.9365    2.5871 H   0  0  0  0  0  0  0  0  0  0  0  0
   -5.6186    0.3567    3.1502 H   0  0  0  0  0  0  0  0  0  0  0  0
   -4.9360    0.7965    0.9652 H   0  0  0  0  0  0  0  0  0  0  0  0
   -5.3541   -0.8437    0.3590 H   0  0  0  0  0  0  0  0  0  0  0  0
   -4.1539    1.7790   -4.9260 H   0  0  0  0  0  0  0  0  0  0  0  0
   -3.4075    0.2037   -1.1420 H   0  0  0  0  0  0  0  0  0  0  0  0
   -2.1051   -1.8496   -0.7628 H   0  0  0  0  0  0  0  0  0  0  0  0
    0.2269   -2.5490   -0.2073 H   0  0  0  0  0  0  0  0  0  0  0  0
    1.7489    0.8596    0.8080 H   0  0  0  0  0  0  0  0  0  0  0  0
    3.3180    1.9756    2.2977 H   0  0  0  0  0  0  0  0  0  0  0  0
    5.6114    1.2913    2.5513 H   0  0  0  0  0  0  0  0  0  0  0  0
    6.9115   -1.7685    0.7581 H   0  0  0  0  0  0  0  0  0  0  0  0
   10.0195    0.5109    3.0419 H   0  0  0  0  0  0  0  0  0  0  0  0
   12.2870   -0.4944    3.0709 H   0  0  0  0  0  0  0  0  0  0  0  0
   12.7139   -2.4164    1.6483 H   0  0  0  0  0  0  0  0  0  0  0  0
   10.8768   -3.3397    0.1926 H   0  0  0  0  0  0  0  0  0  0  0  0
    8.6979   -2.3394    0.1867 H   0  0  0  0  0  0  0  0  0  0  0  0
    4.8813   -1.8088   -0.3355 H   0  0  0  0  0  0  0  0  0  0  0  0
   -0.5219    1.7039   -2.5281 H   0  0  0  0  0  0  0  0  0  0  0  0
  1  2  1  0
  2  3  1  0
  3  4  2  0
  4  5  1  0
  5  6  2  0
  5  7  1  0
  7  8  1  0
  8  9  1  0
  9 10  1  0
 10 11  1  0
 11 12  1  0
  2 13  2  0
 13 14  1  0
 14 15  2  0
 14 16  1  0
 16 17  1  0
 17 18  2  0
 18 19  1  0
 19 20  2  0
 20 21  1  0
 21 22  1  0
 22 23  2  0
 23 24  1  0
 24 25  2  0
 25 26  1  0
 26 27  1  0
 27 28  1  0
 28 29  2  0
 28 30  1  0
 30 31  2  0
 31 32  1  0
 32 33  2  0
 33 34  1  0
 34 35  2  0
 26 36  2  0
 20 37  1  0
 37 38  1  0
 37 39  2  0
 12  7  1  0
 39 17  1  0
 36 22  1  0
 35 30  1  0
  1 40  1  0
  1 41  1  0
  1 42  1  0
  3 43  1  0
  4 44  1  0
  8 45  1  0
  8 46  1  0
  9 47  1  0
  9 48  1  0
 11 49  1  0
 11 50  1  0
 12 51  1  0
 12 52  1  0
 13 53  1  0
 16 54  1  0
 18 55  1  0
 19 56  1  0
 23 57  1  0
 24 58  1  0
 25 59  1  0
 27 60  1  0
 31 61  1  0
 32 62  1  0
 33 63  1  0
 34 64  1  0
 35 65  1  0
 36 66  1  0
 39 67  1  0
M  END
$$$$
[H]/C(C(=O)N([H])c1nc([H])c([H])s1)=C(/[H])c1c(F)c(OC([H])([H])[H])c([H])c(OC([H])([H])[H])c1Cl
     RDKit          3D

 34 35  0  0  0  0  0  0  0  0999 V2000
    0.3476   -3.4645   -4.1914 C   0  0  0  0  0  0  0  0  0  0  0  0
    0.4006   -2.2222   -3.5421 O   0  0  0  0  0  0  0  0  0  0  0  0
    0.1754   -2.0785   -2.1762 C   0  0  0  0  0  0  0  0  0  0  0  0
   -0.1061   -3.2309   -1.4765 C   0  0  0  0  0  0  0  0  0  0  0  0
   -0.3304   -3.1185   -0.1387 C   0  0  0  0  0  0  0  0  0  0  0  0
   -0.6198   -4.2361    0.6310 O   0  0  0  0  0  0  0  0  0  0  0  0
   -0.7007   -5.5222    0.1061 C   0  0  0  0  0  0  0  0  0  0  0  0
   -0.2712   -1.8566    0.4860 C   0  0  0  0  0  0  0  0  0  0  0  0
   -0.5488   -1.8581    2.2105 Cl  0  0  0  0  0  0  0  0  0  0  0  0
    0.0045   -0.7001   -0.1836 C   0  0  0  0  0  0  0  0  0  0  0  0
    0.0573    0.6477    0.3464 C   0  0  0  0  0  0  0  0  0  0  0  0
   -0.2169    1.0893    1.5413 C   0  0  0  0  0  0  0  0  0  0  0  0
   -0.1088    2.5046    1.9204 C   0  0  0  0  0  0  0  0  0  0  0  0
   -0.4123    2.7773    3.1338 O   0  0  0  0  0  0  0  0  0  0  0  0
    0.2839    3.5481    1.0983 N   0  0  0  0  0  0  0  0  0  0  0  0
    0.3430    4.8788    1.6039 C   0  0  0  0  0  0  0  0  0  0  0  0
    0.0514    5.2572    2.8359 N   0  0  0  0  0  0  0  0  0  0  0  0
    0.1487    6.5143    3.1664 C   0  0  0  0  0  0  0  0  0  0  0  0
    0.5551    7.3957    2.2049 C   0  0  0  0  0  0  0  0  0  0  0  0
    0.7773    6.3542    0.8626 S   0  0  0  0  0  0  0  0  0  0  0  0
    0.2312   -0.8589   -1.5665 C   0  0  0  0  0  0  0  0  0  0  0  0
    0.5103    0.2461   -2.2887 F   0  0  0  0  0  0  0  0  0  0  0  0
   -0.6178   -3.9906   -3.9347 H   0  0  0  0  0  0  0  0  0  0  0  0
    1.1565   -4.1443   -3.9113 H   0  0  0  0  0  0  0  0  0  0  0  0
    0.2925   -3.3304   -5.2960 H   0  0  0  0  0  0  0  0  0  0  0  0
   -0.1475   -4.1854   -1.9634 H   0  0  0  0  0  0  0  0  0  0  0  0
   -1.2525   -5.5045   -0.8718 H   0  0  0  0  0  0  0  0  0  0  0  0
   -1.2826   -6.1361    0.8556 H   0  0  0  0  0  0  0  0  0  0  0  0
    0.2935   -6.0044    0.0056 H   0  0  0  0  0  0  0  0  0  0  0  0
    0.3840    1.4703   -0.3394 H   0  0  0  0  0  0  0  0  0  0  0  0
   -0.5481    0.4043    2.2788 H   0  0  0  0  0  0  0  0  0  0  0  0
    0.5421    3.3988    0.1104 H   0  0  0  0  0  0  0  0  0  0  0  0
   -0.0873    6.8679    4.1887 H   0  0  0  0  0  0  0  0  0  0  0  0
    0.6957    8.4882    2.2937 H   0  0  0  0  0  0  0  0  0  0  0  0
  1  2  1  0
  2  3  1  0
  3  4  2  0
  4  5  1  0
  5  6  1  0
  6  7  1  0
  5  8  2  0
  8  9  1  0
  8 10  1  0
 10 11  1  0
 11 12  2  0
 12 13  1  0
 13 14  2  0
 13 15  1  0
 15 16  1  0
 16 17  2  0
 17 18  1  0
 18 19  2  0
 19 20  1  0
 10 21  2  0
 21 22  1  0
 21  3  1  0
 20 16  1  0
  1 23  1  0
  1 24  1  0
  1 25  1  0
  4 26  1  0
  7 27  1  0
  7 28  1  0
  7 29  1  0
 11 30  1  0
 12 31  1  0
 15 32  1  0
 18 33  1  0
 19 34  1  0
M  END
$$$$
[H]c1c(OC([H])([H])[H])c([H])c(C([H])([H])[H])c([H])c1N1C([H])([H])c2c(nc(N([H])[H])c(-c3c(C(=O)OC([H])([H])[H])n([H])c4c([H])c([H])c(C(=O)N([H])C([H])([H])[H])c([H])c34)c2[H])C([H])([H])C1([H])[H]
     RDKit          3D

 66 70  0  0  0  0  0  0  0  0999 V2000
    3.2449    2.4688   -5.5586 C   0  0  0  0  0  0  0  0  0  0  0  0
    3.8259    1.8180   -4.4628 O   0  0  0  0  0  0  0  0  0  0  0  0
    3.1210    1.6597   -3.2777 C   0  0  0  0  0  0  0  0  0  0  0  0
    1.9558    2.1222   -3.2398 O   0  0  0  0  0  0  0  0  0  0  0  0
    3.7221    0.9781   -2.1223 C   0  0  0  0  0  0  0  0  0  0  0  0
    4.9277    0.4389   -1.9992 N   0  0  0  0  0  0  0  0  0  0  0  0
    5.0826   -0.0950   -0.7536 C   0  0  0  0  0  0  0  0  0  0  0  0
    6.1120   -0.7539   -0.1238 C   0  0  0  0  0  0  0  0  0  0  0  0
    5.9721   -1.1964    1.1984 C   0  0  0  0  0  0  0  0  0  0  0  0
    4.8245   -1.0010    1.9223 C   0  0  0  0  0  0  0  0  0  0  0  0
    3.7848   -0.3276    1.2651 C   0  0  0  0  0  0  0  0  0  0  0  0
    3.9257    0.1056   -0.0332 C   0  0  0  0  0  0  0  0  0  0  0  0
    3.0766    0.7855   -0.9145 C   0  0  0  0  0  0  0  0  0  0  0  0
    1.7315    1.1950   -0.5472 C   0  0  0  0  0  0  0  0  0  0  0  0
    0.6358    0.3898   -0.7429 C   0  0  0  0  0  0  0  0  0  0  0  0
   -0.6556    0.8112   -0.3777 C   0  0  0  0  0  0  0  0  0  0  0  0
   -1.7689   -0.1352   -0.6224 C   0  0  0  0  0  0  0  0  0  0  0  0
   -3.0245    0.5072   -0.4853 N   0  0  0  0  0  0  0  0  0  0  0  0
   -3.1410    1.9443   -0.5389 C   0  0  0  0  0  0  0  0  0  0  0  0
   -2.2267    2.5042    0.5702 C   0  0  0  0  0  0  0  0  0  0  0  0
   -0.8381    2.0556    0.1887 C   0  0  0  0  0  0  0  0  0  0  0  0
    0.2430    2.8209    0.3691 N   0  0  0  0  0  0  0  0  0  0  0  0
    1.5029    2.4269    0.0205 C   0  0  0  0  0  0  0  0  0  0  0  0
    2.6255    3.2768    0.2315 N   0  0  0  0  0  0  0  0  0  0  0  0
   -4.2570   -0.2240   -0.2768 C   0  0  0  0  0  0  0  0  0  0  0  0
   -5.4750    0.2848   -0.6394 C   0  0  0  0  0  0  0  0  0  0  0  0
   -6.6668   -0.3733   -0.4414 C   0  0  0  0  0  0  0  0  0  0  0  0
   -7.9652    0.2015   -0.8421 C   0  0  0  0  0  0  0  0  0  0  0  0
   -6.6351   -1.6104    0.1525 C   0  0  0  0  0  0  0  0  0  0  0  0
   -5.4282   -2.1888    0.5466 C   0  0  0  0  0  0  0  0  0  0  0  0
   -5.4010   -3.4329    1.1429 O   0  0  0  0  0  0  0  0  0  0  0  0
   -6.5535   -4.1956    1.3943 C   0  0  0  0  0  0  0  0  0  0  0  0
   -4.2619   -1.4743    0.3197 C   0  0  0  0  0  0  0  0  0  0  0  0
    4.6516   -1.4530    3.2998 C   0  0  0  0  0  0  0  0  0  0  0  0
    3.6054   -1.1915    3.9542 O   0  0  0  0  0  0  0  0  0  0  0  0
    5.6769   -2.1991    3.9137 N   0  0  0  0  0  0  0  0  0  0  0  0
    5.4948   -2.6502    5.3015 C   0  0  0  0  0  0  0  0  0  0  0  0
    2.1509    2.6333   -5.4300 H   0  0  0  0  0  0  0  0  0  0  0  0
    3.3408    1.7960   -6.4378 H   0  0  0  0  0  0  0  0  0  0  0  0
    3.7325    3.4333   -5.8075 H   0  0  0  0  0  0  0  0  0  0  0  0
    5.6678    0.4189   -2.7467 H   0  0  0  0  0  0  0  0  0  0  0  0
    7.0194   -0.9189   -0.6685 H   0  0  0  0  0  0  0  0  0  0  0  0
    6.8120   -1.7175    1.6710 H   0  0  0  0  0  0  0  0  0  0  0  0
    2.8573   -0.1454    1.7861 H   0  0  0  0  0  0  0  0  0  0  0  0
    0.7777   -0.5714   -1.1806 H   0  0  0  0  0  0  0  0  0  0  0  0
   -1.6393   -0.4437   -1.7092 H   0  0  0  0  0  0  0  0  0  0  0  0
   -1.6357   -1.0764   -0.0461 H   0  0  0  0  0  0  0  0  0  0  0  0
   -2.7342    2.3189   -1.5009 H   0  0  0  0  0  0  0  0  0  0  0  0
   -4.1242    2.3521   -0.3191 H   0  0  0  0  0  0  0  0  0  0  0  0
   -2.5063    2.1489    1.5590 H   0  0  0  0  0  0  0  0  0  0  0  0
   -2.3361    3.5982    0.5262 H   0  0  0  0  0  0  0  0  0  0  0  0
    3.1616    3.2681    1.1448 H   0  0  0  0  0  0  0  0  0  0  0  0
    2.9738    3.9441   -0.4939 H   0  0  0  0  0  0  0  0  0  0  0  0
   -5.5239    1.2714   -1.1281 H   0  0  0  0  0  0  0  0  0  0  0  0
   -8.7760   -0.0464   -0.1296 H   0  0  0  0  0  0  0  0  0  0  0  0
   -7.8568    1.3177   -0.9014 H   0  0  0  0  0  0  0  0  0  0  0  0
   -8.1970   -0.2172   -1.8622 H   0  0  0  0  0  0  0  0  0  0  0  0
   -7.5376   -2.1793    0.3359 H   0  0  0  0  0  0  0  0  0  0  0  0
   -6.9456   -4.6596    0.4719 H   0  0  0  0  0  0  0  0  0  0  0  0
   -7.3387   -3.5593    1.8264 H   0  0  0  0  0  0  0  0  0  0  0  0
   -6.2814   -4.9642    2.1538 H   0  0  0  0  0  0  0  0  0  0  0  0
   -3.2913   -1.9014    0.6220 H   0  0  0  0  0  0  0  0  0  0  0  0
    6.5782   -2.4791    3.4865 H   0  0  0  0  0  0  0  0  0  0  0  0
    5.5551   -1.7663    5.9740 H   0  0  0  0  0  0  0  0  0  0  0  0
    6.2016   -3.4360    5.5908 H   0  0  0  0  0  0  0  0  0  0  0  0
    4.4506   -3.0502    5.4219 H   0  0  0  0  0  0  0  0  0  0  0  0
  1  2  1  0
  2  3  1  0
  3  4  2  0
  3  5  1  0
  5  6  1  0
  6  7  1  0
  7  8  2  0
  8  9  1  0
  9 10  2  0
 10 11  1  0
 11 12  2  0
 12 13  1  0
 13 14  1  0
 14 15  2  0
 15 16  1  0
 16 17  1  0
 17 18  1  0
 18 19  1  0
 19 20  1  0
 20 21  1  0
 21 22  1  0
 22 23  2  0
 23 24  1  0
 18 25  1  0
 25 26  2  0
 26 27  1  0
 27 28  1  0
 27 29  2  0
 29 30  1  0
 30 31  1  0
 31 32  1  0
 30 33  2  0
 10 34  1  0
 34 35  2  0
 34 36  1  0
 36 37  1  0
 13  5  2  0
 23 14  1  0
 33 25  1  0
 12  7  1  0
 21 16  2  0
  1 38  1  0
  1 39  1  0
  1 40  1  0
  6 41  1  0
  8 42  1  0
  9 43  1  0
 11 44  1  0
 15 45  1  0
 17 46  1  0
 17 47  1  0
 19 48  1  0
 19 49  1  0
 20 50  1  0
 20 51  1  0
 24 52  1  0
 24 53  1  0
 26 54  1  0
 28 55  1  0
 28 56  1  0
 28 57  1  0
 29 58  1  0
 32 59  1  0
 32 60  1  0
 32 61  1  0
 33 62  1  0
 36 63  1  0
 37 64  1  0
 37 65  1  0
 37 66  1  0
M  END
$$$$
[H]C([H])=C([H])C(=O)N([H])c1c([H])c([H])c([H])c(C2([H])C([H])([H])C([H])([H])N(C(=O)c3nc4c([H])c([H])c(C5=C(N6C([H])([H])C([H])([H])C([H])([H])[C@@]6([H])C(=O)OC([H])([H])[H])c6c([H])c([H])c([H])c(Cl)c65)c([H])c4n3[H])C([H])([H])C2([H])[H])c1[H]
     RDKit          3D

 80 86  0  0  0  0  0  0  0  0999 V2000
   -7.1141    3.3064   -0.0689 C   0  0  0  0  0  0  0  0  0  0  0  0
   -6.9718    1.9385    0.2556 O   0  0  0  0  0  0  0  0  0  0  0  0
   -7.4363    1.4461    1.4553 C   0  0  0  0  0  0  0  0  0  0  0  0
   -7.9923    2.2702    2.2392 O   0  0  0  0  0  0  0  0  0  0  0  0
   -7.3520    0.0552    1.9210 C   0  0  2  0  0  0  0  0  0  0  0  0
   -6.5075   -0.0594    3.1858 C   0  0  0  0  0  0  0  0  0  0  0  0
   -6.3417   -1.5629    3.2520 C   0  0  0  0  0  0  0  0  0  0  0  0
   -6.3426   -2.0265    1.8136 C   0  0  0  0  0  0  0  0  0  0  0  0
   -6.6997   -0.8533    1.0237 N   0  0  0  0  0  0  0  0  0  0  0  0
   -6.4379   -0.6849   -0.3880 C   0  0  0  0  0  0  0  0  0  0  0  0
   -5.2955   -0.5902   -1.0799 C   0  0  0  0  0  0  0  0  0  0  0  0
   -3.8693   -0.6123   -0.7453 C   0  0  0  0  0  0  0  0  0  0  0  0
   -3.4610    0.0109    0.4132 C   0  0  0  0  0  0  0  0  0  0  0  0
   -2.1302    0.0243    0.8020 C   0  0  0  0  0  0  0  0  0  0  0  0
   -1.1727   -0.5974    0.0210 C   0  0  0  0  0  0  0  0  0  0  0  0
    0.1549   -0.7657    0.1049 N   0  0  0  0  0  0  0  0  0  0  0  0
    0.6458   -1.4603   -0.9274 C   0  0  0  0  0  0  0  0  0  0  0  0
   -0.4488   -1.7318   -1.6865 N   0  0  0  0  0  0  0  0  0  0  0  0
   -1.5595   -1.2231   -1.1366 C   0  0  0  0  0  0  0  0  0  0  0  0
   -2.9025   -1.2229   -1.5047 C   0  0  0  0  0  0  0  0  0  0  0  0
    1.9707   -1.8768   -1.2873 C   0  0  0  0  0  0  0  0  0  0  0  0
    2.1033   -2.5107   -2.4019 O   0  0  0  0  0  0  0  0  0  0  0  0
    3.1066   -1.6320   -0.4993 N   0  0  0  0  0  0  0  0  0  0  0  0
    3.1205   -0.9695    0.7557 C   0  0  0  0  0  0  0  0  0  0  0  0
    3.8972    0.3478    0.5240 C   0  0  0  0  0  0  0  0  0  0  0  0
    5.2876   -0.1027    0.1293 C   0  0  0  0  0  0  0  0  0  0  0  0
    5.1862   -0.7639   -1.2360 C   0  0  0  0  0  0  0  0  0  0  0  0
    4.4358   -2.0780   -0.9950 C   0  0  0  0  0  0  0  0  0  0  0  0
    6.2979    0.9593    0.1728 C   0  0  0  0  0  0  0  0  0  0  0  0
    6.0772    2.1905   -0.3657 C   0  0  0  0  0  0  0  0  0  0  0  0
    7.0866    3.1121   -0.2823 C   0  0  0  0  0  0  0  0  0  0  0  0
    8.2732    2.8418    0.3082 C   0  0  0  0  0  0  0  0  0  0  0  0
    8.5310    1.5791    0.8736 C   0  0  0  0  0  0  0  0  0  0  0  0
    9.7693    1.3297    1.4993 N   0  0  0  0  0  0  0  0  0  0  0  0
   10.3311    0.0748    1.6975 C   0  0  0  0  0  0  0  0  0  0  0  0
    9.7646   -0.9718    1.3149 O   0  0  0  0  0  0  0  0  0  0  0  0
   11.6088   -0.0858    2.3613 C   0  0  0  0  0  0  0  0  0  0  0  0
   12.2921    0.9249    2.8034 C   0  0  0  0  0  0  0  0  0  0  0  0
    7.5272    0.6590    0.7927 C   0  0  0  0  0  0  0  0  0  0  0  0
   -6.1065   -0.4635   -2.2856 C   0  0  0  0  0  0  0  0  0  0  0  0
   -6.2527   -0.3103   -3.6536 C   0  0  0  0  0  0  0  0  0  0  0  0
   -4.7847   -0.1686   -4.6363 Cl  0  0  0  0  0  0  0  0  0  0  0  0
   -7.4782   -0.2552   -4.2925 C   0  0  0  0  0  0  0  0  0  0  0  0
   -8.6258   -0.3593   -3.5251 C   0  0  0  0  0  0  0  0  0  0  0  0
   -8.5226   -0.5129   -2.1648 C   0  0  0  0  0  0  0  0  0  0  0  0
   -7.2872   -0.5629   -1.5619 C   0  0  0  0  0  0  0  0  0  0  0  0
   -8.1704    3.6297   -0.1756 H   0  0  0  0  0  0  0  0  0  0  0  0
   -6.6598    3.4789   -1.0865 H   0  0  0  0  0  0  0  0  0  0  0  0
   -6.5336    3.9576    0.6161 H   0  0  0  0  0  0  0  0  0  0  0  0
   -8.3532   -0.3602    2.1719 H   0  0  0  0  0  0  0  0  0  0  0  0
   -5.5084    0.3828    3.0282 H   0  0  0  0  0  0  0  0  0  0  0  0
   -7.0341    0.3534    4.0662 H   0  0  0  0  0  0  0  0  0  0  0  0
   -7.2009   -2.0533    3.7884 H   0  0  0  0  0  0  0  0  0  0  0  0
   -5.4294   -1.8575    3.8038 H   0  0  0  0  0  0  0  0  0  0  0  0
   -7.0260   -2.8827    1.6399 H   0  0  0  0  0  0  0  0  0  0  0  0
   -5.3045   -2.3580    1.5937 H   0  0  0  0  0  0  0  0  0  0  0  0
   -4.2225    0.5022    1.0260 H   0  0  0  0  0  0  0  0  0  0  0  0
   -1.7969    0.5007    1.6972 H   0  0  0  0  0  0  0  0  0  0  0  0
   -0.4752   -2.2586   -2.5795 H   0  0  0  0  0  0  0  0  0  0  0  0
   -3.1896   -1.7196   -2.4092 H   0  0  0  0  0  0  0  0  0  0  0  0
    3.7865   -1.5842    1.4509 H   0  0  0  0  0  0  0  0  0  0  0  0
    2.2141   -0.7114    1.2490 H   0  0  0  0  0  0  0  0  0  0  0  0
    3.8623    0.9962    1.3988 H   0  0  0  0  0  0  0  0  0  0  0  0
    3.3740    0.8024   -0.3611 H   0  0  0  0  0  0  0  0  0  0  0  0
    5.5582   -0.9489    0.8298 H   0  0  0  0  0  0  0  0  0  0  0  0
    4.5785   -0.1445   -1.9144 H   0  0  0  0  0  0  0  0  0  0  0  0
    6.1799   -0.9730   -1.6614 H   0  0  0  0  0  0  0  0  0  0  0  0
    4.3041   -2.6739   -1.8982 H   0  0  0  0  0  0  0  0  0  0  0  0
    4.9298   -2.6487   -0.2065 H   0  0  0  0  0  0  0  0  0  0  0  0
    5.1343    2.4599   -0.8520 H   0  0  0  0  0  0  0  0  0  0  0  0
    6.9085    4.0935   -0.7135 H   0  0  0  0  0  0  0  0  0  0  0  0
    9.0798    3.5640    0.3807 H   0  0  0  0  0  0  0  0  0  0  0  0
   10.2913    2.1997    1.8382 H   0  0  0  0  0  0  0  0  0  0  0  0
   12.0232   -1.0905    2.4988 H   0  0  0  0  0  0  0  0  0  0  0  0
   11.9968    1.9329    2.7280 H   0  0  0  0  0  0  0  0  0  0  0  0
   13.2537    0.7375    3.2952 H   0  0  0  0  0  0  0  0  0  0  0  0
    7.6157   -0.3329    1.2101 H   0  0  0  0  0  0  0  0  0  0  0  0
   -7.5263   -0.1367   -5.3640 H   0  0  0  0  0  0  0  0  0  0  0  0
   -9.6136   -0.3205   -4.0095 H   0  0  0  0  0  0  0  0  0  0  0  0
   -9.4210   -0.5927   -1.5857 H   0  0  0  0  0  0  0  0  0  0  0  0
  1  2  1  0
  2  3  1  0
  3  4  2  0
  3  5  1  0
  5  6  1  0
  6  7  1  0
  7  8  1  0
  8  9  1  0
  9 10  1  0
 10 11  2  0
 11 12  1  0
 12 13  2  0
 13 14  1  0
 14 15  2  0
 15 16  1  0
 16 17  2  0
 17 18  1  0
 18 19  1  0
 19 20  2  0
 17 21  1  0
 21 22  2  0
 21 23  1  0
 23 24  1  0
 24 25  1  0
 25 26  1  0
 26 27  1  0
 27 28  1  0
 26 29  1  0
 29 30  2  0
 30 31  1  0
 31 32  2  0
 32 33  1  0
 33 34  1  0
 34 35  1  0
 35 36  2  0
 35 37  1  0
 37 38  2  3
 33 39  2  0
 11 40  1  0
 40 41  2  0
 41 42  1  0
 41 43  1  0
 43 44  2  0
 44 45  1  0
 45 46  2  0
  9  5  1  0
 46 10  1  0
 20 12  1  0
 28 23  1  0
 39 29  1  0
 46 40  1  0
 19 15  1  0
  1 47  1  0
  1 48  1  0
  1 49  1  0
  5 50  1  1
  6 51  1  0
  6 52  1  0
  7 53  1  0
  7 54  1  0
  8 55  1  0
  8 56  1  0
 13 57  1  0
 14 58  1  0
 18 59  1  0
 20 60  1  0
 24 61  1  0
 24 62  1  0
 25 63  1  0
 25 64  1  0
 26 65  1  0
 27 66  1  0
 27 67  1  0
 28 68  1  0
 28 69  1  0
 30 70  1  0
 31 71  1  0
 32 72  1  0
 34 73  1  0
 37 74  1  0
 38 75  1  0
 38 76  1  0
 39 77  1  0
 43 78  1  0
 44 79  1  0
 45 80  1  0
M  END
$$$$
[H]c1nc(N([H])[H])nc(-c2c([H])c(OC([H])([H])[H])c([H])c(SC([H])([H])[H])c2[H])c1-c1c([H])c([H])c(N2C([H])([H])C([H])([H])N(C([H])([H])C([H])([H])[H])C([H])([H])C2([H])[H])c(F)c1[H]
     RDKit          3D

 60 63  0  0  0  0  0  0  0  0999 V2000
   -6.6794    2.7745   -1.4449 C   0  0  0  0  0  0  0  0  0  0  0  0
   -6.6229    1.7835   -0.3122 C   0  0  0  0  0  0  0  0  0  0  0  0
   -5.3924    1.0654   -0.2219 N   0  0  0  0  0  0  0  0  0  0  0  0
   -4.2574    1.8565    0.1514 C   0  0  0  0  0  0  0  0  0  0  0  0
   -3.2400    0.8674    0.7356 C   0  0  0  0  0  0  0  0  0  0  0  0
   -2.8486   -0.0050   -0.3519 N   0  0  0  0  0  0  0  0  0  0  0  0
   -3.6611   -0.0985   -1.5459 C   0  0  0  0  0  0  0  0  0  0  0  0
   -5.1283    0.1505   -1.2854 C   0  0  0  0  0  0  0  0  0  0  0  0
   -1.6483   -0.7613   -0.2289 C   0  0  0  0  0  0  0  0  0  0  0  0
   -0.6031   -0.5903   -1.1451 C   0  0  0  0  0  0  0  0  0  0  0  0
    0.5751   -1.2961   -1.0509 C   0  0  0  0  0  0  0  0  0  0  0  0
    0.7200   -2.1932   -0.0226 C   0  0  0  0  0  0  0  0  0  0  0  0
   -0.3354   -2.3607    0.8941 C   0  0  0  0  0  0  0  0  0  0  0  0
   -1.5133   -1.6577    0.8028 C   0  0  0  0  0  0  0  0  0  0  0  0
   -2.5274   -1.8444    1.7108 F   0  0  0  0  0  0  0  0  0  0  0  0
    1.9190   -2.9891    0.1791 C   0  0  0  0  0  0  0  0  0  0  0  0
    1.9344   -4.3729    0.0876 C   0  0  0  0  0  0  0  0  0  0  0  0
    3.0911   -5.0417    0.2913 N   0  0  0  0  0  0  0  0  0  0  0  0
    4.2504   -4.4270    0.5835 C   0  0  0  0  0  0  0  0  0  0  0  0
    5.4593   -5.1848    0.7958 N   0  0  0  0  0  0  0  0  0  0  0  0
    4.2444   -3.0883    0.6739 N   0  0  0  0  0  0  0  0  0  0  0  0
    3.0949   -2.3696    0.4752 C   0  0  0  0  0  0  0  0  0  0  0  0
    3.1565   -0.9358    0.5876 C   0  0  0  0  0  0  0  0  0  0  0  0
    3.9430   -0.2403   -0.3020 C   0  0  0  0  0  0  0  0  0  0  0  0
    4.0770    1.1213   -0.2829 C   0  0  0  0  0  0  0  0  0  0  0  0
    5.1063    1.9837   -1.4547 S   0  0  0  0  0  0  0  0  0  0  0  0
    6.7602    2.1216   -0.7669 C   0  0  0  0  0  0  0  0  0  0  0  0
    3.4020    1.8495    0.6632 C   0  0  0  0  0  0  0  0  0  0  0  0
    2.6045    1.1915    1.5724 C   0  0  0  0  0  0  0  0  0  0  0  0
    1.9321    1.9494    2.5191 O   0  0  0  0  0  0  0  0  0  0  0  0
    2.0390    3.3479    2.5761 C   0  0  0  0  0  0  0  0  0  0  0  0
    2.4861   -0.1944    1.5304 C   0  0  0  0  0  0  0  0  0  0  0  0
   -5.6857    3.1866   -1.7005 H   0  0  0  0  0  0  0  0  0  0  0  0
   -7.3888    3.5786   -1.1852 H   0  0  0  0  0  0  0  0  0  0  0  0
   -7.0982    2.2555   -2.3369 H   0  0  0  0  0  0  0  0  0  0  0  0
   -6.7952    2.2902    0.6621 H   0  0  0  0  0  0  0  0  0  0  0  0
   -7.4401    1.0191   -0.3888 H   0  0  0  0  0  0  0  0  0  0  0  0
   -3.7672    2.3454   -0.7161 H   0  0  0  0  0  0  0  0  0  0  0  0
   -4.5301    2.6323    0.8685 H   0  0  0  0  0  0  0  0  0  0  0  0
   -2.3717    1.4079    1.1681 H   0  0  0  0  0  0  0  0  0  0  0  0
   -3.7975    0.2620    1.4673 H   0  0  0  0  0  0  0  0  0  0  0  0
   -3.5956   -1.1161   -2.0227 H   0  0  0  0  0  0  0  0  0  0  0  0
   -3.3285    0.6863   -2.2873 H   0  0  0  0  0  0  0  0  0  0  0  0
   -5.5760   -0.8487   -1.0133 H   0  0  0  0  0  0  0  0  0  0  0  0
   -5.5752    0.5187   -2.2466 H   0  0  0  0  0  0  0  0  0  0  0  0
   -0.6969    0.1032   -1.9513 H   0  0  0  0  0  0  0  0  0  0  0  0
    1.3840   -1.1722   -1.7648 H   0  0  0  0  0  0  0  0  0  0  0  0
   -0.2391   -3.0702    1.7180 H   0  0  0  0  0  0  0  0  0  0  0  0
    0.9979   -4.8796   -0.1495 H   0  0  0  0  0  0  0  0  0  0  0  0
    6.0084   -5.1051    1.6822 H   0  0  0  0  0  0  0  0  0  0  0  0
    5.8349   -5.8407    0.0783 H   0  0  0  0  0  0  0  0  0  0  0  0
    4.4819   -0.7933   -1.0532 H   0  0  0  0  0  0  0  0  0  0  0  0
    7.2259    1.1721   -0.4936 H   0  0  0  0  0  0  0  0  0  0  0  0
    7.4289    2.7142   -1.4260 H   0  0  0  0  0  0  0  0  0  0  0  0
    6.6690    2.7014    0.1972 H   0  0  0  0  0  0  0  0  0  0  0  0
    3.4885    2.9396    0.7027 H   0  0  0  0  0  0  0  0  0  0  0  0
    1.5090    3.8338    1.7152 H   0  0  0  0  0  0  0  0  0  0  0  0
    3.0787    3.7235    2.5367 H   0  0  0  0  0  0  0  0  0  0  0  0
    1.5882    3.6920    3.5526 H   0  0  0  0  0  0  0  0  0  0  0  0
    1.8529   -0.6479    2.2736 H   0  0  0  0  0  0  0  0  0  0  0  0
  1  2  1  0
  2  3  1  0
  3  4  1  0
  4  5  1  0
  5  6  1  0
  6  7  1  0
  7  8  1  0
  6  9  1  0
  9 10  2  0
 10 11  1  0
 11 12  2  0
 12 13  1  0
 13 14  2  0
 14 15  1  0
 12 16  1  0
 16 17  2  0
 17 18  1  0
 18 19  2  0
 19 20  1  0
 19 21  1  0
 21 22  2  0
 22 23  1  0
 23 24  2  0
 24 25  1  0
 25 26  1  0
 26 27  1  0
 25 28  2  0
 28 29  1  0
 29 30  1  0
 30 31  1  0
 29 32  2  0
  8  3  1  0
 14  9  1  0
 22 16  1  0
 32 23  1  0
  1 33  1  0
  1 34  1  0
  1 35  1  0
  2 36  1  0
  2 37  1  0
  4 38  1  0
  4 39  1  0
  5 40  1  0
  5 41  1  0
  7 42  1  0
  7 43  1  0
  8 44  1  0
  8 45  1  0
 10 46  1  0
 11 47  1  0
 13 48  1  0
 17 49  1  0
 20 50  1  0
 20 51  1  0
 24 52  1  0
 27 53  1  0
 27 54  1  0
 27 55  1  0
 28 56  1  0
 31 57  1  0
 31 58  1  0
 31 59  1  0
 32 60  1  0
M  END
$$$$
[H]c1c([H])c([H])c(C([H])([H])N2C([H])([H])C([H])([H])N(C([H])([H])C(=O)N(C([H])([H])[H])C([H])([H])c3nn([H])c4c([H])c(N([H])C(=O)OC([H])([H])c5c([H])c([H])c([H])c(F)c5[H])c([H])c([H])c34)C([H])([H])C2([H])[H])c([H])c1[H]
     RDKit          3D

 73 77  0  0  0  0  0  0  0  0999 V2000
   -1.0697   -0.7050    1.0717 C   0  0  0  0  0  0  0  0  0  0  0  0
   -0.8937   -0.9545   -0.3295 N   0  0  0  0  0  0  0  0  0  0  0  0
    0.4079   -1.6091   -0.6707 C   0  0  0  0  0  0  0  0  0  0  0  0
    1.3994   -0.5257   -0.9321 C   0  0  0  0  0  0  0  0  0  0  0  0
    1.1679    0.8039   -0.9361 N   0  0  0  0  0  0  0  0  0  0  0  0
    2.2445    1.4882   -1.2333 N   0  0  0  0  0  0  0  0  0  0  0  0
    3.2285    0.5552   -1.4330 C   0  0  0  0  0  0  0  0  0  0  0  0
    4.5510    0.6863   -1.7546 C   0  0  0  0  0  0  0  0  0  0  0  0
    5.4118   -0.3869   -1.9040 C   0  0  0  0  0  0  0  0  0  0  0  0
    6.7583   -0.1129   -2.2391 N   0  0  0  0  0  0  0  0  0  0  0  0
    7.7855   -0.3823   -1.2651 C   0  0  0  0  0  0  0  0  0  0  0  0
    7.4248   -0.8366   -0.1701 O   0  0  0  0  0  0  0  0  0  0  0  0
    9.1116   -0.1629   -1.4807 O   0  0  0  0  0  0  0  0  0  0  0  0
   10.0701   -0.4146   -0.4699 C   0  0  0  0  0  0  0  0  0  0  0  0
    9.8186    0.4713    0.7185 C   0  0  0  0  0  0  0  0  0  0  0  0
    9.3911    0.0132    1.9208 C   0  0  0  0  0  0  0  0  0  0  0  0
    9.1402    0.8429    2.9961 C   0  0  0  0  0  0  0  0  0  0  0  0
    9.3588    2.1917    2.7568 C   0  0  0  0  0  0  0  0  0  0  0  0
    9.7897    2.6947    1.5616 C   0  0  0  0  0  0  0  0  0  0  0  0
    9.9875    4.0499    1.3911 F   0  0  0  0  0  0  0  0  0  0  0  0
   10.0310    1.8333    0.5054 C   0  0  0  0  0  0  0  0  0  0  0  0
    4.8988   -1.6726   -1.7181 C   0  0  0  0  0  0  0  0  0  0  0  0
    3.5655   -1.8002   -1.3948 C   0  0  0  0  0  0  0  0  0  0  0  0
    2.7184   -0.7059   -1.2483 C   0  0  0  0  0  0  0  0  0  0  0  0
   -1.8081   -0.6218   -1.3085 C   0  0  0  0  0  0  0  0  0  0  0  0
   -1.4203   -0.9314   -2.5238 O   0  0  0  0  0  0  0  0  0  0  0  0
   -3.1031    0.0023   -1.2698 C   0  0  0  0  0  0  0  0  0  0  0  0
   -3.7782    0.3558   -0.1243 N   0  0  0  0  0  0  0  0  0  0  0  0
   -4.3865   -0.6354    0.7058 C   0  0  0  0  0  0  0  0  0  0  0  0
   -5.9008   -0.6109    0.6119 C   0  0  0  0  0  0  0  0  0  0  0  0
   -6.4813    0.6738    0.8430 N   0  0  0  0  0  0  0  0  0  0  0  0
   -7.5833    1.0094    0.0123 C   0  0  0  0  0  0  0  0  0  0  0  0
   -8.7107    0.0351    0.2521 C   0  0  0  0  0  0  0  0  0  0  0  0
   -8.9118   -1.0415   -0.5693 C   0  0  0  0  0  0  0  0  0  0  0  0
   -9.9681   -1.9066   -0.3087 C   0  0  0  0  0  0  0  0  0  0  0  0
  -10.8072   -1.6877    0.7632 C   0  0  0  0  0  0  0  0  0  0  0  0
  -10.5904   -0.6083    1.5706 C   0  0  0  0  0  0  0  0  0  0  0  0
   -9.5511    0.2507    1.3219 C   0  0  0  0  0  0  0  0  0  0  0  0
   -5.4830    1.6636    1.0251 C   0  0  0  0  0  0  0  0  0  0  0  0
   -4.4387    1.6295   -0.0762 C   0  0  0  0  0  0  0  0  0  0  0  0
   -1.5570    0.2594    1.2333 H   0  0  0  0  0  0  0  0  0  0  0  0
   -0.0443   -0.6640    1.5921 H   0  0  0  0  0  0  0  0  0  0  0  0
   -1.6207   -1.5601    1.5090 H   0  0  0  0  0  0  0  0  0  0  0  0
    0.2124   -2.2283   -1.5563 H   0  0  0  0  0  0  0  0  0  0  0  0
    0.6700   -2.2593    0.1652 H   0  0  0  0  0  0  0  0  0  0  0  0
    2.4215    2.5063   -1.3234 H   0  0  0  0  0  0  0  0  0  0  0  0
    4.9499    1.6736   -1.9037 H   0  0  0  0  0  0  0  0  0  0  0  0
    7.0432    0.2684   -3.1375 H   0  0  0  0  0  0  0  0  0  0  0  0
   10.0775   -1.4619   -0.1341 H   0  0  0  0  0  0  0  0  0  0  0  0
   11.0742   -0.1579   -0.8460 H   0  0  0  0  0  0  0  0  0  0  0  0
    9.2295   -1.0636    2.0699 H   0  0  0  0  0  0  0  0  0  0  0  0
    8.7979    0.4638    3.9540 H   0  0  0  0  0  0  0  0  0  0  0  0
    9.1778    2.8980    3.5693 H   0  0  0  0  0  0  0  0  0  0  0  0
   10.3739    2.1995   -0.4491 H   0  0  0  0  0  0  0  0  0  0  0  0
    5.5669   -2.5032   -1.8395 H   0  0  0  0  0  0  0  0  0  0  0  0
    3.1202   -2.7965   -1.2383 H   0  0  0  0  0  0  0  0  0  0  0  0
   -3.8592   -0.5836   -1.9239 H   0  0  0  0  0  0  0  0  0  0  0  0
   -3.0315    0.9585   -1.9249 H   0  0  0  0  0  0  0  0  0  0  0  0
   -4.1232   -0.5430    1.7569 H   0  0  0  0  0  0  0  0  0  0  0  0
   -4.0579   -1.6341    0.3514 H   0  0  0  0  0  0  0  0  0  0  0  0
   -6.1241   -0.9797   -0.4233 H   0  0  0  0  0  0  0  0  0  0  0  0
   -6.3115   -1.3420    1.3058 H   0  0  0  0  0  0  0  0  0  0  0  0
   -7.3468    0.9010   -1.0774 H   0  0  0  0  0  0  0  0  0  0  0  0
   -7.9957    2.0058    0.1632 H   0  0  0  0  0  0  0  0  0  0  0  0
   -8.2529   -1.2228   -1.4238 H   0  0  0  0  0  0  0  0  0  0  0  0
  -10.1328   -2.7655   -0.9580 H   0  0  0  0  0  0  0  0  0  0  0  0
  -11.6318   -2.3656    0.9604 H   0  0  0  0  0  0  0  0  0  0  0  0
  -11.2415   -0.4160    2.4249 H   0  0  0  0  0  0  0  0  0  0  0  0
   -9.3739    1.1214    1.9718 H   0  0  0  0  0  0  0  0  0  0  0  0
   -5.8352    2.6917    1.1136 H   0  0  0  0  0  0  0  0  0  0  0  0
   -4.9196    1.3879    1.9612 H   0  0  0  0  0  0  0  0  0  0  0  0
   -3.7319    2.4565    0.1190 H   0  0  0  0  0  0  0  0  0  0  0  0
   -4.8983    1.8176   -1.0635 H   0  0  0  0  0  0  0  0  0  0  0  0
  1  2  1  0
  2  3  1  0
  3  4  1  0
  4  5  2  0
  5  6  1  0
  6  7  1  0
  7  8  2  0
  8  9  1  0
  9 10  1  0
 10 11  1  0
 11 12  2  0
 11 13  1  0
 13 14  1  0
 14 15  1  0
 15 16  2  0
 16 17  1  0
 17 18  2  0
 18 19  1  0
 19 20  1  0
 19 21  2  0
  9 22  2  0
 22 23  1  0
 23 24  2  0
  2 25  1  0
 25 26  2  0
 25 27  1  0
 27 28  1  0
 28 29  1  0
 29 30  1  0
 30 31  1  0
 31 32  1  0
 32 33  1  0
 33 34  2  0
 34 35  1  0
 35 36  2  0
 36 37  1  0
 37 38  2  0
 31 39  1  0
 39 40  1  0
 24  4  1  0
 40 28  1  0
 24  7  1  0
 38 33  1  0
 21 15  1  0
  1 41  1  0
  1 42  1  0
  1 43  1  0
  3 44  1  0
  3 45  1  0
  6 46  1  0
  8 47  1  0
 10 48  1  0
 14 49  1  0
 14 50  1  0
 16 51  1  0
 17 52  1  0
 18 53  1  0
 21 54  1  0
 22 55  1  0
 23 56  1  0
 27 57  1  0
 27 58  1  0
 29 59  1  0
 29 60  1  0
 30 61  1  0
 30 62  1  0
 32 63  1  0
 32 64  1  0
 34 65  1  0
 35 66  1  0
 36 67  1  0
 37 68  1  0
 38 69  1  0
 39 70  1  0
 39 71  1  0
 40 72  1  0
 40 73  1  0
M  END
$$$$
[H]c1nn(C([H])([H])[H])c([H])c1N1C([H])([H])C([H])([H])N(C(=O)c2nc3c([H])c(-c4c([H])c([H])c(C([H])([H])C([H])([H])[H])c([H])c4[H])c([H])c([H])c3n2[H])C([H])([H])C([H])([H])C1([H])[H]
     RDKit          3D

 60 64  0  0  0  0  0  0  0  0999 V2000
   -9.9755    0.0715    0.6701 C   0  0  0  0  0  0  0  0  0  0  0  0
   -9.2127   -1.0322    1.3700 C   0  0  0  0  0  0  0  0  0  0  0  0
   -7.7725   -0.8649    1.0341 C   0  0  0  0  0  0  0  0  0  0  0  0
   -7.2676   -1.4951   -0.0775 C   0  0  0  0  0  0  0  0  0  0  0  0
   -5.9409   -1.3760   -0.4365 C   0  0  0  0  0  0  0  0  0  0  0  0
   -5.0514   -0.6115    0.3108 C   0  0  0  0  0  0  0  0  0  0  0  0
   -5.5659    0.0208    1.4293 C   0  0  0  0  0  0  0  0  0  0  0  0
   -6.9041   -0.1047    1.7837 C   0  0  0  0  0  0  0  0  0  0  0  0
   -3.6515   -0.4875   -0.0723 C   0  0  0  0  0  0  0  0  0  0  0  0
   -3.0217   -1.5317   -0.7016 C   0  0  0  0  0  0  0  0  0  0  0  0
   -1.6805   -1.4269   -1.0743 C   0  0  0  0  0  0  0  0  0  0  0  0
   -0.9799   -0.2784   -0.8146 C   0  0  0  0  0  0  0  0  0  0  0  0
    0.3097    0.0796   -1.0659 N   0  0  0  0  0  0  0  0  0  0  0  0
    0.5082    1.3186   -0.6126 C   0  0  0  0  0  0  0  0  0  0  0  0
   -0.6897    1.7281   -0.0709 N   0  0  0  0  0  0  0  0  0  0  0  0
   -1.5988    0.7584   -0.1917 C   0  0  0  0  0  0  0  0  0  0  0  0
   -2.9408    0.6547    0.1817 C   0  0  0  0  0  0  0  0  0  0  0  0
    1.6635    2.1776   -0.6118 C   0  0  0  0  0  0  0  0  0  0  0  0
    1.4783    3.3481   -0.0746 O   0  0  0  0  0  0  0  0  0  0  0  0
    2.9598    1.9619   -1.0955 N   0  0  0  0  0  0  0  0  0  0  0  0
    3.9051    3.1033   -0.9211 C   0  0  0  0  0  0  0  0  0  0  0  0
    4.8070    2.8818    0.2370 C   0  0  0  0  0  0  0  0  0  0  0  0
    5.8011    1.7841    0.1137 C   0  0  0  0  0  0  0  0  0  0  0  0
    5.4445    0.7065   -0.7583 N   0  0  0  0  0  0  0  0  0  0  0  0
    4.7618    0.6768   -2.0366 C   0  0  0  0  0  0  0  0  0  0  0  0
    3.2553    0.6957   -1.6960 C   0  0  0  0  0  0  0  0  0  0  0  0
    5.8312   -0.6094   -0.3119 C   0  0  0  0  0  0  0  0  0  0  0  0
    5.4946   -1.8290   -0.8673 C   0  0  0  0  0  0  0  0  0  0  0  0
    6.0567   -2.8380   -0.1689 N   0  0  0  0  0  0  0  0  0  0  0  0
    6.7311   -2.2604    0.8036 N   0  0  0  0  0  0  0  0  0  0  0  0
    7.4977   -2.9902    1.8045 C   0  0  0  0  0  0  0  0  0  0  0  0
    6.6338   -0.9313    0.7696 C   0  0  0  0  0  0  0  0  0  0  0  0
  -11.0642   -0.0384    0.7431 H   0  0  0  0  0  0  0  0  0  0  0  0
   -9.6318    0.0615   -0.3992 H   0  0  0  0  0  0  0  0  0  0  0  0
   -9.5997    1.0305    1.1151 H   0  0  0  0  0  0  0  0  0  0  0  0
   -9.3187   -0.9518    2.4880 H   0  0  0  0  0  0  0  0  0  0  0  0
   -9.5082   -2.0381    1.0456 H   0  0  0  0  0  0  0  0  0  0  0  0
   -7.8893   -2.1108   -0.7173 H   0  0  0  0  0  0  0  0  0  0  0  0
   -5.5370   -1.8776   -1.3220 H   0  0  0  0  0  0  0  0  0  0  0  0
   -4.9020    0.6345    2.0493 H   0  0  0  0  0  0  0  0  0  0  0  0
   -7.2934    0.3910    2.6549 H   0  0  0  0  0  0  0  0  0  0  0  0
   -3.5163   -2.4572   -0.9327 H   0  0  0  0  0  0  0  0  0  0  0  0
   -1.1645   -2.2340   -1.5697 H   0  0  0  0  0  0  0  0  0  0  0  0
    0.9745   -0.5634   -1.5406 H   0  0  0  0  0  0  0  0  0  0  0  0
   -3.3994    1.5004    0.6754 H   0  0  0  0  0  0  0  0  0  0  0  0
    3.2839    4.0010   -0.6874 H   0  0  0  0  0  0  0  0  0  0  0  0
    4.4405    3.3214   -1.8538 H   0  0  0  0  0  0  0  0  0  0  0  0
    5.3875    3.8376    0.3797 H   0  0  0  0  0  0  0  0  0  0  0  0
    4.1962    2.8033    1.1718 H   0  0  0  0  0  0  0  0  0  0  0  0
    5.9141    1.3469    1.1505 H   0  0  0  0  0  0  0  0  0  0  0  0
    6.8362    2.1565   -0.1281 H   0  0  0  0  0  0  0  0  0  0  0  0
    5.0159   -0.2244   -2.6345 H   0  0  0  0  0  0  0  0  0  0  0  0
    4.9519    1.5590   -2.6537 H   0  0  0  0  0  0  0  0  0  0  0  0
    2.6996    0.5109   -2.6291 H   0  0  0  0  0  0  0  0  0  0  0  0
    3.1452   -0.1042   -0.9366 H   0  0  0  0  0  0  0  0  0  0  0  0
    4.8748   -2.0144   -1.7315 H   0  0  0  0  0  0  0  0  0  0  0  0
    8.5840   -2.8560    1.5914 H   0  0  0  0  0  0  0  0  0  0  0  0
    7.2351   -2.6598    2.8394 H   0  0  0  0  0  0  0  0  0  0  0  0
    7.2990   -4.0721    1.7585 H   0  0  0  0  0  0  0  0  0  0  0  0
    7.1005   -0.2525    1.4615 H   0  0  0  0  0  0  0  0  0  0  0  0
  1  2  1  0
  2  3  1  0
  3  4  2  0
  4  5  1  0
  5  6  2  0
  6  7  1  0
  7  8  2  0
  6  9  1  0
  9 10  2  0
 10 11  1  0
 11 12  2  0
 12 13  1  0
 13 14  1  0
 14 15  2  0
 15 16  1  0
 16 17  2  0
 14 18  1  0
 18 19  2  0
 18 20  1  0
 20 21  1  0
 21 22  1  0
 22 23  1  0
 23 24  1  0
 24 25  1  0
 25 26  1  0
 24 27  1  0
 27 28  1  0
 28 29  2  0
 29 30  1  0
 30 31  1  0
 30 32  1  0
  8  3  1  0
 17  9  1  0
 26 20  1  0
 32 27  2  0
 16 12  1  0
  1 33  1  0
  1 34  1  0
  1 35  1  0
  2 36  1  0
  2 37  1  0
  4 38  1  0
  5 39  1  0
  7 40  1  0
  8 41  1  0
 10 42  1  0
 11 43  1  0
 13 44  1  0
 17 45  1  0
 21 46  1  0
 21 47  1  0
 22 48  1  0
 22 49  1  0
 23 50  1  0
 23 51  1  0
 25 52  1  0
 25 53  1  0
 26 54  1  0
 26 55  1  0
 28 56  1  0
 31 57  1  0
 31 58  1  0
 31 59  1  0
 32 60  1  0
M  END
$$$$
[H]c1nc(N([H])[H])c2c(n1)C1(C([H])([H])C(=O)N2C([H])([H])c2c([H])c([H])nc(OC([H])([H])[H])c2OC([H])([H])[H])C([H])([H])C([H])([H])N(C([H])([H])[H])C([H])([H])C1([H])[H]
     RDKit          3D

 55 58  0  0  0  0  0  0  0  0999 V2000
    2.9368    1.9077   -1.8476 C   0  0  0  0  0  0  0  0  0  0  0  0
    2.5941    1.3443   -0.5406 O   0  0  0  0  0  0  0  0  0  0  0  0
    3.3515    0.2028   -0.2073 C   0  0  0  0  0  0  0  0  0  0  0  0
    2.9769   -1.0678   -0.3068 C   0  0  0  0  0  0  0  0  0  0  0  0
    1.6763   -1.5608   -0.7879 C   0  0  0  0  0  0  0  0  0  0  0  0
    0.4350   -1.0142   -0.5175 N   0  0  0  0  0  0  0  0  0  0  0  0
   -0.1465    0.0226   -1.4001 C   0  0  0  0  0  0  0  0  0  0  0  0
    0.1069   -0.0486   -2.6212 O   0  0  0  0  0  0  0  0  0  0  0  0
   -0.9945    1.1021   -0.8881 C   0  0  0  0  0  0  0  0  0  0  0  0
   -2.2119    0.5029   -0.2144 C   0  0  0  0  0  0  0  0  0  0  0  0
   -3.0683   -0.0951   -1.3100 C   0  0  0  0  0  0  0  0  0  0  0  0
   -4.3900   -0.5374   -0.7713 C   0  0  0  0  0  0  0  0  0  0  0  0
   -5.0770    0.5297   -0.1247 N   0  0  0  0  0  0  0  0  0  0  0  0
   -5.9577    1.2869   -0.9544 C   0  0  0  0  0  0  0  0  0  0  0  0
   -4.3566    1.2537    0.8616 C   0  0  0  0  0  0  0  0  0  0  0  0
   -2.9345    1.5641    0.5409 C   0  0  0  0  0  0  0  0  0  0  0  0
   -1.7257   -0.6016    0.6485 C   0  0  0  0  0  0  0  0  0  0  0  0
   -2.5548   -0.9978    1.6672 N   0  0  0  0  0  0  0  0  0  0  0  0
   -2.2410   -1.9673    2.5268 C   0  0  0  0  0  0  0  0  0  0  0  0
   -1.0808   -2.6176    2.4403 N   0  0  0  0  0  0  0  0  0  0  0  0
   -0.2063   -2.2730    1.4459 C   0  0  0  0  0  0  0  0  0  0  0  0
    0.9846   -3.0163    1.3744 N   0  0  0  0  0  0  0  0  0  0  0  0
   -0.5052   -1.2796    0.5511 C   0  0  0  0  0  0  0  0  0  0  0  0
    3.9144   -2.0393    0.0621 C   0  0  0  0  0  0  0  0  0  0  0  0
    5.1420   -1.7197    0.5044 C   0  0  0  0  0  0  0  0  0  0  0  0
    5.4988   -0.4345    0.6022 N   0  0  0  0  0  0  0  0  0  0  0  0
    4.6399    0.5291    0.2595 C   0  0  0  0  0  0  0  0  0  0  0  0
    5.0401    1.8630    0.3718 O   0  0  0  0  0  0  0  0  0  0  0  0
    6.3377    2.1583    0.8428 C   0  0  0  0  0  0  0  0  0  0  0  0
    3.9887    2.2135   -1.8646 H   0  0  0  0  0  0  0  0  0  0  0  0
    2.7973    1.0498   -2.5409 H   0  0  0  0  0  0  0  0  0  0  0  0
    2.2175    2.6843   -2.1295 H   0  0  0  0  0  0  0  0  0  0  0  0
    1.7144   -2.6593   -1.0341 H   0  0  0  0  0  0  0  0  0  0  0  0
    1.8401   -1.2769   -1.9073 H   0  0  0  0  0  0  0  0  0  0  0  0
   -1.3658    1.7090   -1.7346 H   0  0  0  0  0  0  0  0  0  0  0  0
   -0.4601    1.7917   -0.2048 H   0  0  0  0  0  0  0  0  0  0  0  0
   -2.5026   -0.8847   -1.8017 H   0  0  0  0  0  0  0  0  0  0  0  0
   -3.2801    0.7327   -2.0395 H   0  0  0  0  0  0  0  0  0  0  0  0
   -4.3405   -1.4550   -0.1514 H   0  0  0  0  0  0  0  0  0  0  0  0
   -5.0180   -0.8329   -1.6630 H   0  0  0  0  0  0  0  0  0  0  0  0
   -6.0565    0.7215   -1.9261 H   0  0  0  0  0  0  0  0  0  0  0  0
   -5.6672    2.3278   -1.1182 H   0  0  0  0  0  0  0  0  0  0  0  0
   -6.9825    1.2183   -0.4992 H   0  0  0  0  0  0  0  0  0  0  0  0
   -4.8822    2.2455    0.9968 H   0  0  0  0  0  0  0  0  0  0  0  0
   -4.4300    0.7787    1.8780 H   0  0  0  0  0  0  0  0  0  0  0  0
   -2.9259    2.4902   -0.1062 H   0  0  0  0  0  0  0  0  0  0  0  0
   -2.3731    1.7864    1.4711 H   0  0  0  0  0  0  0  0  0  0  0  0
   -2.9281   -2.2415    3.3117 H   0  0  0  0  0  0  0  0  0  0  0  0
    1.1562   -3.8231    0.7725 H   0  0  0  0  0  0  0  0  0  0  0  0
    1.7435   -2.6999    2.0419 H   0  0  0  0  0  0  0  0  0  0  0  0
    3.6406   -3.1082   -0.0195 H   0  0  0  0  0  0  0  0  0  0  0  0
    5.8295   -2.5172    0.7773 H   0  0  0  0  0  0  0  0  0  0  0  0
    6.8393    2.9396    0.2433 H   0  0  0  0  0  0  0  0  0  0  0  0
    6.2777    2.5543    1.8931 H   0  0  0  0  0  0  0  0  0  0  0  0
    6.9840    1.2589    0.8800 H   0  0  0  0  0  0  0  0  0  0  0  0
  1  2  1  0
  2  3  1  0
  3  4  2  0
  4  5  1  0
  5  6  1  0
  6  7  1  0
  7  8  2  0
  7  9  1  0
  9 10  1  0
 10 11  1  0
 11 12  1  0
 12 13  1  0
 13 14  1  0
 13 15  1  0
 15 16  1  0
 10 17  1  0
 17 18  2  0
 18 19  1  0
 19 20  2  0
 20 21  1  0
 21 22  1  0
 21 23  2  0
  4 24  1  0
 24 25  2  0
 25 26  1  0
 26 27  2  0
 27 28  1  0
 28 29  1  0
 27  3  1  0
 23  6  1  0
 16 10  1  0
 23 17  1  0
  1 30  1  0
  1 31  1  0
  1 32  1  0
  5 33  1  0
  5 34  1  0
  9 35  1  0
  9 36  1  0
 11 37  1  0
 11 38  1  0
 12 39  1  0
 12 40  1  0
 14 41  1  0
 14 42  1  0
 14 43  1  0
 15 44  1  0
 15 45  1  0
 16 46  1  0
 16 47  1  0
 19 48  1  0
 22 49  1  0
 22 50  1  0
 24 51  1  0
 25 52  1  0
 29 53  1  0
 29 54  1  0
 29 55  1  0
M  END
$$$$
[H]c1c([H])c([H])c(N(C(=O)C([H])([H])[H])C([H])([H])c2c(F)c(F)c(Cl)c(C(=O)N([H])c3c([H])c([H])c(C([H])([H])N4C([H])([H])C([H])([H])N(C5([H])C([H])([H])OC5([H])[H])C([H])([H])C4([H])[H])c([H])c3Cl)c2F)c([H])c1[H]
     RDKit          3D

 71 75  0  0  0  0  0  0  0  0999 V2000
   -7.2263   -2.0651   -1.7973 C   0  0  0  0  0  0  0  0  0  0  0  0
   -7.1969   -0.6119   -1.4563 C   0  0  0  0  0  0  0  0  0  0  0  0
   -7.3797    0.1955   -2.3840 O   0  0  0  0  0  0  0  0  0  0  0  0
   -6.9702   -0.1719   -0.1147 N   0  0  0  0  0  0  0  0  0  0  0  0
   -6.7926   -1.1067    0.9407 C   0  0  0  0  0  0  0  0  0  0  0  0
   -5.4737   -1.6322    1.2680 C   0  0  0  0  0  0  0  0  0  0  0  0
   -5.4308   -2.5210    2.3493 C   0  0  0  0  0  0  0  0  0  0  0  0
   -6.5790   -2.8101    3.0315 F   0  0  0  0  0  0  0  0  0  0  0  0
   -4.2654   -3.0815    2.7065 C   0  0  0  0  0  0  0  0  0  0  0  0
   -4.2181   -3.9515    3.7648 F   0  0  0  0  0  0  0  0  0  0  0  0
   -3.0704   -2.8217    2.0461 C   0  0  0  0  0  0  0  0  0  0  0  0
   -1.6371   -3.6926    2.5799 Cl  0  0  0  0  0  0  0  0  0  0  0  0
   -3.0536   -1.9714    0.9989 C   0  0  0  0  0  0  0  0  0  0  0  0
   -1.8702   -1.5618    0.2483 C   0  0  0  0  0  0  0  0  0  0  0  0
   -2.0979   -1.1642   -0.9387 O   0  0  0  0  0  0  0  0  0  0  0  0
   -0.5604   -1.5685    0.7193 N   0  0  0  0  0  0  0  0  0  0  0  0
    0.5977   -1.1780    0.0151 C   0  0  0  0  0  0  0  0  0  0  0  0
    0.6128   -0.5549   -1.1978 C   0  0  0  0  0  0  0  0  0  0  0  0
    1.8107   -0.1681   -1.8300 C   0  0  0  0  0  0  0  0  0  0  0  0
    3.0292   -0.4141   -1.2264 C   0  0  0  0  0  0  0  0  0  0  0  0
    4.2895   -0.0151   -1.8872 C   0  0  0  0  0  0  0  0  0  0  0  0
    4.6801    1.3337   -1.5659 N   0  0  0  0  0  0  0  0  0  0  0  0
    5.8530    1.6499   -2.3826 C   0  0  0  0  0  0  0  0  0  0  0  0
    7.0892    0.9112   -1.9309 C   0  0  0  0  0  0  0  0  0  0  0  0
    7.3442    1.2989   -0.5498 N   0  0  0  0  0  0  0  0  0  0  0  0
    6.2730    0.7838    0.2366 C   0  0  0  0  0  0  0  0  0  0  0  0
    4.9985    1.5280   -0.1596 C   0  0  0  0  0  0  0  0  0  0  0  0
    8.6654    0.9258   -0.1309 C   0  0  0  0  0  0  0  0  0  0  0  0
    9.0361    1.3292    1.2472 C   0  0  0  0  0  0  0  0  0  0  0  0
    9.7830    0.1320    1.3344 O   0  0  0  0  0  0  0  0  0  0  0  0
    8.8448   -0.4352    0.4421 C   0  0  0  0  0  0  0  0  0  0  0  0
    3.0086   -1.0364   -0.0152 C   0  0  0  0  0  0  0  0  0  0  0  0
    1.8465   -1.4177    0.6113 C   0  0  0  0  0  0  0  0  0  0  0  0
    1.9656   -2.2159    2.1901 Cl  0  0  0  0  0  0  0  0  0  0  0  0
   -4.3003   -1.3875    0.6343 C   0  0  0  0  0  0  0  0  0  0  0  0
   -4.2471   -0.5506   -0.4312 F   0  0  0  0  0  0  0  0  0  0  0  0
   -7.0241    1.2553    0.0981 C   0  0  0  0  0  0  0  0  0  0  0  0
   -7.8055    1.7318    1.1411 C   0  0  0  0  0  0  0  0  0  0  0  0
   -7.8987    3.0904    1.3528 C   0  0  0  0  0  0  0  0  0  0  0  0
   -7.2295    3.9942    0.5484 C   0  0  0  0  0  0  0  0  0  0  0  0
   -6.4566    3.5286   -0.4824 C   0  0  0  0  0  0  0  0  0  0  0  0
   -6.3737    2.1479   -0.6828 C   0  0  0  0  0  0  0  0  0  0  0  0
   -6.2543   -2.5064   -1.5470 H   0  0  0  0  0  0  0  0  0  0  0  0
   -7.4881   -2.2351   -2.8431 H   0  0  0  0  0  0  0  0  0  0  0  0
   -8.0089   -2.5653   -1.1845 H   0  0  0  0  0  0  0  0  0  0  0  0
   -7.2446   -0.6607    1.8744 H   0  0  0  0  0  0  0  0  0  0  0  0
   -7.5080   -1.9795    0.7044 H   0  0  0  0  0  0  0  0  0  0  0  0
   -0.3757   -1.8574    1.7318 H   0  0  0  0  0  0  0  0  0  0  0  0
   -0.2840   -0.3101   -1.7474 H   0  0  0  0  0  0  0  0  0  0  0  0
    1.8076    0.3220   -2.7823 H   0  0  0  0  0  0  0  0  0  0  0  0
    4.1862   -0.0510   -2.9941 H   0  0  0  0  0  0  0  0  0  0  0  0
    5.1070   -0.7337   -1.6518 H   0  0  0  0  0  0  0  0  0  0  0  0
    6.0695    2.7407   -2.2732 H   0  0  0  0  0  0  0  0  0  0  0  0
    5.5811    1.4224   -3.4305 H   0  0  0  0  0  0  0  0  0  0  0  0
    7.0113   -0.1638   -2.0916 H   0  0  0  0  0  0  0  0  0  0  0  0
    7.9312    1.3066   -2.5379 H   0  0  0  0  0  0  0  0  0  0  0  0
    6.4003    0.9960    1.3099 H   0  0  0  0  0  0  0  0  0  0  0  0
    6.1092   -0.3152    0.0746 H   0  0  0  0  0  0  0  0  0  0  0  0
    4.1341    1.2950    0.4422 H   0  0  0  0  0  0  0  0  0  0  0  0
    5.2913    2.6165   -0.0701 H   0  0  0  0  0  0  0  0  0  0  0  0
    9.4405    1.1510   -0.8931 H   0  0  0  0  0  0  0  0  0  0  0  0
    8.2553    1.3127    1.9986 H   0  0  0  0  0  0  0  0  0  0  0  0
    9.6929    2.2394    1.2440 H   0  0  0  0  0  0  0  0  0  0  0  0
    9.3927   -1.1057   -0.2590 H   0  0  0  0  0  0  0  0  0  0  0  0
    8.0234   -0.8918    0.9900 H   0  0  0  0  0  0  0  0  0  0  0  0
    3.9522   -1.2579    0.5008 H   0  0  0  0  0  0  0  0  0  0  0  0
   -8.3188    1.0063    1.7493 H   0  0  0  0  0  0  0  0  0  0  0  0
   -8.5046    3.4515    2.1589 H   0  0  0  0  0  0  0  0  0  0  0  0
   -7.2970    5.0559    0.7098 H   0  0  0  0  0  0  0  0  0  0  0  0
   -5.9144    4.1984   -1.1381 H   0  0  0  0  0  0  0  0  0  0  0  0
   -5.7576    1.7889   -1.4968 H   0  0  0  0  0  0  0  0  0  0  0  0
  1  2  1  0
  2  3  2  0
  2  4  1  0
  4  5  1  0
  5  6  1  0
  6  7  2  0
  7  8  1  0
  7  9  1  0
  9 10  1  0
  9 11  2  0
 11 12  1  0
 11 13  1  0
 13 14  1  0
 14 15  2  0
 14 16  1  0
 16 17  1  0
 17 18  2  0
 18 19  1  0
 19 20  2  0
 20 21  1  0
 21 22  1  0
 22 23  1  0
 23 24  1  0
 24 25  1  0
 25 26  1  0
 26 27  1  0
 25 28  1  0
 28 29  1  0
 29 30  1  0
 30 31  1  0
 20 32  1  0
 32 33  2  0
 33 34  1  0
 13 35  2  0
 35 36  1  0
  4 37  1  0
 37 38  2  0
 38 39  1  0
 39 40  2  0
 40 41  1  0
 41 42  2  0
 35  6  1  0
 42 37  1  0
 33 17  1  0
 27 22  1  0
 31 28  1  0
  1 43  1  0
  1 44  1  0
  1 45  1  0
  5 46  1  0
  5 47  1  0
 16 48  1  0
 18 49  1  0
 19 50  1  0
 21 51  1  0
 21 52  1  0
 23 53  1  0
 23 54  1  0
 24 55  1  0
 24 56  1  0
 26 57  1  0
 26 58  1  0
 27 59  1  0
 27 60  1  0
 28 61  1  0
 29 62  1  0
 29 63  1  0
 31 64  1  0
 31 65  1  0
 32 66  1  0
 38 67  1  0
 39 68  1  0
 40 69  1  0
 41 70  1  0
 42 71  1  0
M  END
$$$$
[H]c1nc(-c2nc3c([H])c([H])c(-c4c([H])nc([H])n4C([H])([H])C([H])([H])C(F)(F)F)c([H])c3c(N([H])C(=O)N3C([H])([H])C([H])([H])OC([H])([H])C3([H])[H])c2[H])c([H])c([H])c1C([H])([H])[H]
     RDKit          3D

 62 66  0  0  0  0  0  0  0  0999 V2000
    6.9439    2.9750   -3.9245 F   0  0  0  0  0  0  0  0  0  0  0  0
    5.7043    2.5137   -4.3146 C   0  0  0  0  0  0  0  0  0  0  0  0
    5.7371    2.1236   -5.6336 F   0  0  0  0  0  0  0  0  0  0  0  0
    4.7454    3.5008   -4.0806 F   0  0  0  0  0  0  0  0  0  0  0  0
    5.3657    1.3421   -3.4404 C   0  0  0  0  0  0  0  0  0  0  0  0
    5.3108    1.7380   -1.9587 C   0  0  0  0  0  0  0  0  0  0  0  0
    4.9968    0.5498   -1.2076 N   0  0  0  0  0  0  0  0  0  0  0  0
    5.9774   -0.3149   -0.7518 C   0  0  0  0  0  0  0  0  0  0  0  0
    5.4132   -1.3157   -0.0964 N   0  0  0  0  0  0  0  0  0  0  0  0
    4.1098   -1.0937   -0.1354 C   0  0  0  0  0  0  0  0  0  0  0  0
    3.8113    0.0858   -0.8350 C   0  0  0  0  0  0  0  0  0  0  0  0
    2.4602    0.6081   -0.9989 C   0  0  0  0  0  0  0  0  0  0  0  0
    2.0707    1.6404   -1.7870 C   0  0  0  0  0  0  0  0  0  0  0  0
    0.7339    2.0845   -1.8202 C   0  0  0  0  0  0  0  0  0  0  0  0
   -0.2563    1.5060   -1.0641 C   0  0  0  0  0  0  0  0  0  0  0  0
   -1.5169    1.9619   -1.1301 N   0  0  0  0  0  0  0  0  0  0  0  0
   -2.5155    1.4073   -0.3949 C   0  0  0  0  0  0  0  0  0  0  0  0
   -2.1847    0.3549    0.4251 C   0  0  0  0  0  0  0  0  0  0  0  0
   -0.8964   -0.1341    0.5128 C   0  0  0  0  0  0  0  0  0  0  0  0
   -0.5520   -1.2143    1.3449 N   0  0  0  0  0  0  0  0  0  0  0  0
   -1.4122   -1.9152    2.1805 C   0  0  0  0  0  0  0  0  0  0  0  0
   -2.6102   -1.6903    2.3185 O   0  0  0  0  0  0  0  0  0  0  0  0
   -0.9009   -3.0186    2.9804 N   0  0  0  0  0  0  0  0  0  0  0  0
   -1.7518   -3.7740    3.8540 C   0  0  0  0  0  0  0  0  0  0  0  0
   -1.5136   -5.2657    3.7436 C   0  0  0  0  0  0  0  0  0  0  0  0
   -0.2913   -5.5654    3.1371 O   0  0  0  0  0  0  0  0  0  0  0  0
    0.7023   -4.6973    3.5818 C   0  0  0  0  0  0  0  0  0  0  0  0
    0.5112   -3.3732    2.8881 C   0  0  0  0  0  0  0  0  0  0  0  0
    0.1251    0.4572   -0.2606 C   0  0  0  0  0  0  0  0  0  0  0  0
    1.4249    0.0308   -0.2323 C   0  0  0  0  0  0  0  0  0  0  0  0
   -3.8477    1.9667   -0.5406 C   0  0  0  0  0  0  0  0  0  0  0  0
   -4.8950    1.4503    0.1676 C   0  0  0  0  0  0  0  0  0  0  0  0
   -6.1918    1.9760    0.0351 C   0  0  0  0  0  0  0  0  0  0  0  0
   -6.3935    3.0224   -0.8209 C   0  0  0  0  0  0  0  0  0  0  0  0
   -7.7559    3.5937   -0.9757 C   0  0  0  0  0  0  0  0  0  0  0  0
   -5.3231    3.5361   -1.5318 C   0  0  0  0  0  0  0  0  0  0  0  0
   -4.1041    3.0003   -1.3718 N   0  0  0  0  0  0  0  0  0  0  0  0
    6.1545    0.5471   -3.4881 H   0  0  0  0  0  0  0  0  0  0  0  0
    4.4200    0.8529   -3.7382 H   0  0  0  0  0  0  0  0  0  0  0  0
    6.4158    1.9799   -1.7247 H   0  0  0  0  0  0  0  0  0  0  0  0
    4.7197    2.6251   -1.7473 H   0  0  0  0  0  0  0  0  0  0  0  0
    7.0296   -0.1781   -0.9156 H   0  0  0  0  0  0  0  0  0  0  0  0
    3.3761   -1.7312    0.3012 H   0  0  0  0  0  0  0  0  0  0  0  0
    2.7527    2.1453   -2.4266 H   0  0  0  0  0  0  0  0  0  0  0  0
    0.4633    2.9095   -2.4610 H   0  0  0  0  0  0  0  0  0  0  0  0
   -3.0096   -0.0461    0.9830 H   0  0  0  0  0  0  0  0  0  0  0  0
    0.4462   -1.5590    1.3665 H   0  0  0  0  0  0  0  0  0  0  0  0
   -1.5951   -3.4468    4.9026 H   0  0  0  0  0  0  0  0  0  0  0  0
   -2.8181   -3.6233    3.5723 H   0  0  0  0  0  0  0  0  0  0  0  0
   -2.2833   -5.7779    3.1257 H   0  0  0  0  0  0  0  0  0  0  0  0
   -1.5288   -5.7637    4.7351 H   0  0  0  0  0  0  0  0  0  0  0  0
    0.6498   -4.5643    4.6939 H   0  0  0  0  0  0  0  0  0  0  0  0
    1.6779   -5.1553    3.3405 H   0  0  0  0  0  0  0  0  0  0  0  0
    1.1101   -2.5972    3.3683 H   0  0  0  0  0  0  0  0  0  0  0  0
    0.8030   -3.5221    1.8114 H   0  0  0  0  0  0  0  0  0  0  0  0
    1.7149   -0.7863    0.4023 H   0  0  0  0  0  0  0  0  0  0  0  0
   -4.8271    0.6359    0.8547 H   0  0  0  0  0  0  0  0  0  0  0  0
   -7.0330    1.5778    0.5886 H   0  0  0  0  0  0  0  0  0  0  0  0
   -8.1275    3.2378   -1.9720 H   0  0  0  0  0  0  0  0  0  0  0  0
   -8.4496    3.1459   -0.2361 H   0  0  0  0  0  0  0  0  0  0  0  0
   -7.7635    4.6826   -1.0030 H   0  0  0  0  0  0  0  0  0  0  0  0
   -5.5292    4.3583   -2.1956 H   0  0  0  0  0  0  0  0  0  0  0  0
  1  2  1  0
  2  3  1  0
  2  4  1  0
  2  5  1  0
  5  6  1  0
  6  7  1  0
  7  8  1  0
  8  9  2  0
  9 10  1  0
 10 11  2  0
 11 12  1  0
 12 13  2  0
 13 14  1  0
 14 15  2  0
 15 16  1  0
 16 17  2  0
 17 18  1  0
 18 19  2  0
 19 20  1  0
 20 21  1  0
 21 22  2  0
 21 23  1  0
 23 24  1  0
 24 25  1  0
 25 26  1  0
 26 27  1  0
 27 28  1  0
 19 29  1  0
 29 30  2  0
 17 31  1  0
 31 32  2  0
 32 33  1  0
 33 34  2  0
 34 35  1  0
 34 36  1  0
 36 37  2  0
 11  7  1  0
 30 12  1  0
 37 31  1  0
 29 15  1  0
 28 23  1  0
  5 38  1  0
  5 39  1  0
  6 40  1  0
  6 41  1  0
  8 42  1  0
 10 43  1  0
 13 44  1  0
 14 45  1  0
 18 46  1  0
 20 47  1  0
 24 48  1  0
 24 49  1  0
 25 50  1  0
 25 51  1  0
 27 52  1  0
 27 53  1  0
 28 54  1  0
 28 55  1  0
 30 56  1  0
 32 57  1  0
 33 58  1  0
 35 59  1  0
 35 60  1  0
 35 61  1  0
 36 62  1  0
M  END
$$$$
[H]c1nc(N([H])[H])c2c(-c3sc4c(C([H])([H])[H])c([H])c(C([H])([H])[H])c([H])c4c3[H])c(C([H])([H])N3C([H])([H])C([H])([H])N(C(=O)N([H])c4c([H])c(F)c([H])c(C(C([H])([H])[H])(C([H])([H])[H])C([H])([H])[H])c4[H])C([H])([H])C3([H])[H])c([H])n2n1
     RDKit          3D

 78 83  0  0  0  0  0  0  0  0999 V2000
   -7.2895   -2.9834   -2.1997 C   0  0  0  0  0  0  0  0  0  0  0  0
   -7.6823   -1.6015   -1.8073 C   0  0  0  0  0  0  0  0  0  0  0  0
   -8.8559   -1.0002   -2.2035 C   0  0  0  0  0  0  0  0  0  0  0  0
   -9.1241    0.2713   -1.7548 C   0  0  0  0  0  0  0  0  0  0  0  0
  -10.4131    0.9595   -2.1669 C   0  0  0  0  0  0  0  0  0  0  0  0
   -8.2394    0.9108   -0.9354 C   0  0  0  0  0  0  0  0  0  0  0  0
   -7.0324    0.3358   -0.5070 C   0  0  0  0  0  0  0  0  0  0  0  0
   -6.1034    0.8908    0.2963 C   0  0  0  0  0  0  0  0  0  0  0  0
   -4.9859    0.1619    0.5996 C   0  0  0  0  0  0  0  0  0  0  0  0
   -5.2747   -1.2991   -0.2656 S   0  0  0  0  0  0  0  0  0  0  0  0
   -6.7806   -0.9256   -0.9619 C   0  0  0  0  0  0  0  0  0  0  0  0
   -3.7830    0.5745    1.3274 C   0  0  0  0  0  0  0  0  0  0  0  0
   -2.4896    0.3740    0.8173 C   0  0  0  0  0  0  0  0  0  0  0  0
   -2.2130   -0.2269   -0.4950 C   0  0  0  0  0  0  0  0  0  0  0  0
   -0.8533   -0.3338   -0.8785 N   0  0  0  0  0  0  0  0  0  0  0  0
    0.0205   -1.1439   -0.1243 C   0  0  0  0  0  0  0  0  0  0  0  0
    1.4738   -0.7235   -0.1155 C   0  0  0  0  0  0  0  0  0  0  0  0
    1.9052   -0.0168   -1.2612 N   0  0  0  0  0  0  0  0  0  0  0  0
    0.9167    0.5845   -2.1590 C   0  0  0  0  0  0  0  0  0  0  0  0
   -0.2822    0.9208   -1.3147 C   0  0  0  0  0  0  0  0  0  0  0  0
    3.2935    0.1259   -1.5674 C   0  0  0  0  0  0  0  0  0  0  0  0
    3.5793    0.7729   -2.6411 O   0  0  0  0  0  0  0  0  0  0  0  0
    4.3092   -0.4012   -0.7613 N   0  0  0  0  0  0  0  0  0  0  0  0
    5.6819   -0.3181   -1.0162 C   0  0  0  0  0  0  0  0  0  0  0  0
    6.1997   -0.1652   -2.2732 C   0  0  0  0  0  0  0  0  0  0  0  0
    7.5834   -0.0651   -2.4731 C   0  0  0  0  0  0  0  0  0  0  0  0
    8.0494    0.0856   -3.7442 F   0  0  0  0  0  0  0  0  0  0  0  0
    8.3905   -0.1249   -1.3916 C   0  0  0  0  0  0  0  0  0  0  0  0
    7.9400   -0.2807   -0.0811 C   0  0  0  0  0  0  0  0  0  0  0  0
    6.5747   -0.3742    0.0708 C   0  0  0  0  0  0  0  0  0  0  0  0
    8.9164   -0.3436    1.0265 C   0  0  0  0  0  0  0  0  0  0  0  0
   10.2937   -0.6559    0.4279 C   0  0  0  0  0  0  0  0  0  0  0  0
    9.0729    0.9302    1.7916 C   0  0  0  0  0  0  0  0  0  0  0  0
    8.6017   -1.5179    1.9577 C   0  0  0  0  0  0  0  0  0  0  0  0
   -1.6148    0.8280    1.7386 C   0  0  0  0  0  0  0  0  0  0  0  0
   -2.2994    1.3028    2.8062 N   0  0  0  0  0  0  0  0  0  0  0  0
   -1.9197    1.8220    3.9481 N   0  0  0  0  0  0  0  0  0  0  0  0
   -2.7503    2.2129    4.9036 C   0  0  0  0  0  0  0  0  0  0  0  0
   -4.0670    2.0635    4.6844 N   0  0  0  0  0  0  0  0  0  0  0  0
   -4.5283    1.5446    3.5456 C   0  0  0  0  0  0  0  0  0  0  0  0
   -5.9280    1.3079    3.3912 N   0  0  0  0  0  0  0  0  0  0  0  0
   -3.6545    1.1456    2.5588 C   0  0  0  0  0  0  0  0  0  0  0  0
   -7.6446   -3.6589   -1.3814 H   0  0  0  0  0  0  0  0  0  0  0  0
   -6.2264   -3.0549   -2.4212 H   0  0  0  0  0  0  0  0  0  0  0  0
   -7.9134   -3.2579   -3.1025 H   0  0  0  0  0  0  0  0  0  0  0  0
   -9.5382   -1.5393   -2.8572 H   0  0  0  0  0  0  0  0  0  0  0  0
  -11.1626    0.1751   -2.2740 H   0  0  0  0  0  0  0  0  0  0  0  0
  -10.7336    1.6071   -1.3184 H   0  0  0  0  0  0  0  0  0  0  0  0
  -10.3126    1.5323   -3.0828 H   0  0  0  0  0  0  0  0  0  0  0  0
   -8.5359    1.9153   -0.6265 H   0  0  0  0  0  0  0  0  0  0  0  0
   -6.1809    1.9363    0.6872 H   0  0  0  0  0  0  0  0  0  0  0  0
   -2.7548    0.3210   -1.2940 H   0  0  0  0  0  0  0  0  0  0  0  0
   -2.6356   -1.2784   -0.5625 H   0  0  0  0  0  0  0  0  0  0  0  0
   -0.2725   -1.3359    0.9206 H   0  0  0  0  0  0  0  0  0  0  0  0
    0.0058   -2.1771   -0.6093 H   0  0  0  0  0  0  0  0  0  0  0  0
    1.7423   -0.1349    0.7973 H   0  0  0  0  0  0  0  0  0  0  0  0
    2.0776   -1.6598   -0.0099 H   0  0  0  0  0  0  0  0  0  0  0  0
    1.3104    1.5562   -2.5348 H   0  0  0  0  0  0  0  0  0  0  0  0
    0.7047   -0.1076   -2.9727 H   0  0  0  0  0  0  0  0  0  0  0  0
    0.0330    1.5787   -0.4843 H   0  0  0  0  0  0  0  0  0  0  0  0
   -1.0106    1.4102   -1.9847 H   0  0  0  0  0  0  0  0  0  0  0  0
    3.9650   -0.9038    0.1217 H   0  0  0  0  0  0  0  0  0  0  0  0
    5.5794   -0.1367   -3.1589 H   0  0  0  0  0  0  0  0  0  0  0  0
    9.4656   -0.0444   -1.5506 H   0  0  0  0  0  0  0  0  0  0  0  0
    6.1838   -0.4952    1.0927 H   0  0  0  0  0  0  0  0  0  0  0  0
   10.9326   -0.9805    1.2675 H   0  0  0  0  0  0  0  0  0  0  0  0
   10.2273   -1.4943   -0.3070 H   0  0  0  0  0  0  0  0  0  0  0  0
   10.7505    0.2479    0.0001 H   0  0  0  0  0  0  0  0  0  0  0  0
    9.2841    0.7420    2.8806 H   0  0  0  0  0  0  0  0  0  0  0  0
    8.2080    1.6043    1.6707 H   0  0  0  0  0  0  0  0  0  0  0  0
    9.9701    1.5119    1.4461 H   0  0  0  0  0  0  0  0  0  0  0  0
    7.5323   -1.5677    2.2190 H   0  0  0  0  0  0  0  0  0  0  0  0
    9.2405   -1.4389    2.8574 H   0  0  0  0  0  0  0  0  0  0  0  0
    8.8700   -2.4727    1.4565 H   0  0  0  0  0  0  0  0  0  0  0  0
   -0.5290    0.8564    1.7153 H   0  0  0  0  0  0  0  0  0  0  0  0
   -2.3831    2.6412    5.8389 H   0  0  0  0  0  0  0  0  0  0  0  0
   -6.5600    2.1233    3.3471 H   0  0  0  0  0  0  0  0  0  0  0  0
   -6.3275    0.3557    3.3293 H   0  0  0  0  0  0  0  0  0  0  0  0
  1  2  1  0
  2  3  2  0
  3  4  1  0
  4  5  1  0
  4  6  2  0
  6  7  1  0
  7  8  1  0
  8  9  2  0
  9 10  1  0
 10 11  1  0
  9 12  1  0
 12 13  1  0
 13 14  1  0
 14 15  1  0
 15 16  1  0
 16 17  1  0
 17 18  1  0
 18 19  1  0
 19 20  1  0
 18 21  1  0
 21 22  2  0
 21 23  1  0
 23 24  1  0
 24 25  2  0
 25 26  1  0
 26 27  1  0
 26 28  2  0
 28 29  1  0
 29 30  2  0
 29 31  1  0
 31 32  1  0
 31 33  1  0
 31 34  1  0
 13 35  2  0
 35 36  1  0
 36 37  1  0
 37 38  2  0
 38 39  1  0
 39 40  2  0
 40 41  1  0
 40 42  1  0
 11  2  1  0
 42 12  2  0
 11  7  2  0
 20 15  1  0
 30 24  1  0
 42 36  1  0
  1 43  1  0
  1 44  1  0
  1 45  1  0
  3 46  1  0
  5 47  1  0
  5 48  1  0
  5 49  1  0
  6 50  1  0
  8 51  1  0
 14 52  1  0
 14 53  1  0
 16 54  1  0
 16 55  1  0
 17 56  1  0
 17 57  1  0
 19 58  1  0
 19 59  1  0
 20 60  1  0
 20 61  1  0
 23 62  1  0
 25 63  1  0
 28 64  1  0
 30 65  1  0
 32 66  1  0
 32 67  1  0
 32 68  1  0
 33 69  1  0
 33 70  1  0
 33 71  1  0
 34 72  1  0
 34 73  1  0
 34 74  1  0
 35 75  1  0
 38 76  1  0
 41 77  1  0
 41 78  1  0
M  END
$$$$
[H]c1nc(N([H])C(=O)c2c([H])c([H])c(-c3c([H])c(C(=O)N([H])c4c([H])c([H])c([H])c([H])c4[H])c([H])c(C([H])([H])[H])c3[H])c(N([H])[H])c2C([H])([H])[H])c([H])c(N2C([H])([H])C([H])([H])OC([H])([H])C2([H])[H])c1[H]
     RDKit          3D

 70 74  0  0  0  0  0  0  0  0999 V2000
   -0.8642    3.2111    1.6099 C   0  0  0  0  0  0  0  0  0  0  0  0
   -0.5124    2.9579    0.1822 C   0  0  0  0  0  0  0  0  0  0  0  0
    0.8015    2.5890   -0.1419 C   0  0  0  0  0  0  0  0  0  0  0  0
    1.7429    2.4501    0.9109 N   0  0  0  0  0  0  0  0  0  0  0  0
    1.2095    2.3746   -1.4386 C   0  0  0  0  0  0  0  0  0  0  0  0
    0.2259    2.5485   -2.4201 C   0  0  0  0  0  0  0  0  0  0  0  0
   -1.0600    2.9092   -2.1077 C   0  0  0  0  0  0  0  0  0  0  0  0
   -1.4666    3.1245   -0.7952 C   0  0  0  0  0  0  0  0  0  0  0  0
   -2.8501    3.4734   -0.4900 C   0  0  0  0  0  0  0  0  0  0  0  0
   -3.1726    4.7216   -0.6720 O   0  0  0  0  0  0  0  0  0  0  0  0
   -3.8683    2.6567   -0.0359 N   0  0  0  0  0  0  0  0  0  0  0  0
   -3.7153    1.2523    0.1104 C   0  0  0  0  0  0  0  0  0  0  0  0
   -4.7881    0.5086    0.6235 C   0  0  0  0  0  0  0  0  0  0  0  0
   -4.6806   -0.8331    0.7270 C   0  0  0  0  0  0  0  0  0  0  0  0
   -3.5128   -1.4669    0.3281 C   0  0  0  0  0  0  0  0  0  0  0  0
   -2.4449   -0.7268   -0.1822 C   0  0  0  0  0  0  0  0  0  0  0  0
   -2.6184    0.5919   -0.2576 N   0  0  0  0  0  0  0  0  0  0  0  0
   -5.7964   -1.5935    1.2367 N   0  0  0  0  0  0  0  0  0  0  0  0
   -7.0482   -0.9166    1.4630 C   0  0  0  0  0  0  0  0  0  0  0  0
   -8.1747   -1.9298    1.3167 C   0  0  0  0  0  0  0  0  0  0  0  0
   -7.8931   -2.9303    2.2749 O   0  0  0  0  0  0  0  0  0  0  0  0
   -6.9053   -3.7033    1.7064 C   0  0  0  0  0  0  0  0  0  0  0  0
   -5.5980   -2.9928    1.5088 C   0  0  0  0  0  0  0  0  0  0  0  0
    2.5578    1.9964   -1.8334 C   0  0  0  0  0  0  0  0  0  0  0  0
    3.2055    2.6143   -2.8999 C   0  0  0  0  0  0  0  0  0  0  0  0
    4.4694    2.2836   -3.3019 C   0  0  0  0  0  0  0  0  0  0  0  0
    5.1458    2.9625   -4.4645 C   0  0  0  0  0  0  0  0  0  0  0  0
    5.1452    1.2909   -2.6241 C   0  0  0  0  0  0  0  0  0  0  0  0
    4.5368    0.6423   -1.5469 C   0  0  0  0  0  0  0  0  0  0  0  0
    3.2629    1.0067   -1.1772 C   0  0  0  0  0  0  0  0  0  0  0  0
    5.3206   -0.3847   -0.8772 C   0  0  0  0  0  0  0  0  0  0  0  0
    6.5078   -0.6359   -1.3252 O   0  0  0  0  0  0  0  0  0  0  0  0
    4.8306   -1.0856    0.2111 N   0  0  0  0  0  0  0  0  0  0  0  0
    5.4711   -2.0982    0.9768 C   0  0  0  0  0  0  0  0  0  0  0  0
    6.7980   -2.3438    0.9661 C   0  0  0  0  0  0  0  0  0  0  0  0
    7.3818   -3.3626    1.7246 C   0  0  0  0  0  0  0  0  0  0  0  0
    6.6055   -4.1638    2.5236 C   0  0  0  0  0  0  0  0  0  0  0  0
    5.2490   -3.9220    2.5433 C   0  0  0  0  0  0  0  0  0  0  0  0
    4.6798   -2.9179    1.7947 C   0  0  0  0  0  0  0  0  0  0  0  0
   -1.4439    4.1509    1.6502 H   0  0  0  0  0  0  0  0  0  0  0  0
   -1.3766    2.3452    2.0730 H   0  0  0  0  0  0  0  0  0  0  0  0
    0.0941    3.3820    2.1637 H   0  0  0  0  0  0  0  0  0  0  0  0
    2.6130    3.0212    0.8881 H   0  0  0  0  0  0  0  0  0  0  0  0
    1.6053    1.8021    1.7083 H   0  0  0  0  0  0  0  0  0  0  0  0
    0.5512    2.3773   -3.4532 H   0  0  0  0  0  0  0  0  0  0  0  0
   -1.8091    3.0384   -2.8932 H   0  0  0  0  0  0  0  0  0  0  0  0
   -4.8209    3.0606    0.1511 H   0  0  0  0  0  0  0  0  0  0  0  0
   -5.6583    1.0653    0.9212 H   0  0  0  0  0  0  0  0  0  0  0  0
   -3.3843   -2.5252    0.3950 H   0  0  0  0  0  0  0  0  0  0  0  0
   -1.5278   -1.2252   -0.4981 H   0  0  0  0  0  0  0  0  0  0  0  0
   -6.9984   -0.5257    2.5043 H   0  0  0  0  0  0  0  0  0  0  0  0
   -7.2133   -0.0925    0.7471 H   0  0  0  0  0  0  0  0  0  0  0  0
   -9.1740   -1.4886    1.4488 H   0  0  0  0  0  0  0  0  0  0  0  0
   -8.0609   -2.3870    0.3144 H   0  0  0  0  0  0  0  0  0  0  0  0
   -7.2766   -3.9541    0.6676 H   0  0  0  0  0  0  0  0  0  0  0  0
   -6.7340   -4.6596    2.2492 H   0  0  0  0  0  0  0  0  0  0  0  0
   -4.9982   -3.0921    2.4472 H   0  0  0  0  0  0  0  0  0  0  0  0
   -5.0661   -3.5175    0.6655 H   0  0  0  0  0  0  0  0  0  0  0  0
    2.6552    3.3973   -3.4227 H   0  0  0  0  0  0  0  0  0  0  0  0
    4.8647    2.4767   -5.4357 H   0  0  0  0  0  0  0  0  0  0  0  0
    6.2370    2.9582   -4.3340 H   0  0  0  0  0  0  0  0  0  0  0  0
    4.7136    3.9889   -4.5179 H   0  0  0  0  0  0  0  0  0  0  0  0
    6.1420    1.0430   -2.9548 H   0  0  0  0  0  0  0  0  0  0  0  0
    2.7808    0.5147   -0.3607 H   0  0  0  0  0  0  0  0  0  0  0  0
    3.8404   -0.8502    0.5385 H   0  0  0  0  0  0  0  0  0  0  0  0
    7.4858   -1.7674    0.3865 H   0  0  0  0  0  0  0  0  0  0  0  0
    8.4644   -3.5385    1.6929 H   0  0  0  0  0  0  0  0  0  0  0  0
    7.0754   -4.9506    3.1065 H   0  0  0  0  0  0  0  0  0  0  0  0
    4.6307   -4.5653    3.1836 H   0  0  0  0  0  0  0  0  0  0  0  0
    3.6114   -2.7417    1.8204 H   0  0  0  0  0  0  0  0  0  0  0  0
  1  2  1  0
  2  3  2  0
  3  4  1  0
  3  5  1  0
  5  6  2  0
  6  7  1  0
  7  8  2  0
  8  9  1  0
  9 10  2  0
  9 11  1  0
 11 12  1  0
 12 13  2  0
 13 14  1  0
 14 15  2  0
 15 16  1  0
 16 17  2  0
 14 18  1  0
 18 19  1  0
 19 20  1  0
 20 21  1  0
 21 22  1  0
 22 23  1  0
  5 24  1  0
 24 25  2  0
 25 26  1  0
 26 27  1  0
 26 28  2  0
 28 29  1  0
 29 30  2  0
 29 31  1  0
 31 32  2  0
 31 33  1  0
 33 34  1  0
 34 35  2  0
 35 36  1  0
 36 37  2  0
 37 38  1  0
 38 39  2  0
  8  2  1  0
 17 12  1  0
 23 18  1  0
 30 24  1  0
 39 34  1  0
  1 40  1  0
  1 41  1  0
  1 42  1  0
  4 43  1  0
  4 44  1  0
  6 45  1  0
  7 46  1  0
 11 47  1  0
 13 48  1  0
 15 49  1  0
 16 50  1  0
 19 51  1  0
 19 52  1  0
 20 53  1  0
 20 54  1  0
 22 55  1  0
 22 56  1  0
 23 57  1  0
 23 58  1  0
 25 59  1  0
 27 60  1  0
 27 61  1  0
 27 62  1  0
 28 63  1  0
 30 64  1  0
 33 65  1  0
 35 66  1  0
 36 67  1  0
 37 68  1  0
 38 69  1  0
 39 70  1  0
M  END
$$$$
[H]c1c([H])c(F)c([H])c(C([H])([H])N(C2=C(Cl)C(Cl)=C2Cl)c2c([H])c([H])c3sc(C([H])([H])[H])nc3c2[H])c1[H]
     RDKit          3D

 38 41  0  0  0  0  0  0  0  0999 V2000
    6.5447   -0.3251   -0.3102 C   0  0  0  0  0  0  0  0  0  0  0  0
    5.0630   -0.5711   -0.1493 C   0  0  0  0  0  0  0  0  0  0  0  0
    4.0643    0.2654   -0.3313 N   0  0  0  0  0  0  0  0  0  0  0  0
    2.8319   -0.1258   -0.1236 C   0  0  0  0  0  0  0  0  0  0  0  0
    1.6924    0.6883   -0.2684 C   0  0  0  0  0  0  0  0  0  0  0  0
    0.4486    0.1515    0.0046 C   0  0  0  0  0  0  0  0  0  0  0  0
    0.2219   -1.1301    0.4098 C   0  0  0  0  0  0  0  0  0  0  0  0
    1.3595   -1.9343    0.5507 C   0  0  0  0  0  0  0  0  0  0  0  0
    2.6315   -1.4085    0.2802 C   0  0  0  0  0  0  0  0  0  0  0  0
    4.2434   -2.0065    0.3447 S   0  0  0  0  0  0  0  0  0  0  0  0
   -0.6831    1.0287   -0.1316 N   0  0  0  0  0  0  0  0  0  0  0  0
   -1.6505    0.8615   -1.1454 C   0  0  0  0  0  0  0  0  0  0  0  0
   -2.5938   -0.2737   -0.9764 C   0  0  0  0  0  0  0  0  0  0  0  0
   -2.6182   -1.3869   -1.7924 C   0  0  0  0  0  0  0  0  0  0  0  0
   -3.5136   -2.4189   -1.6191 C   0  0  0  0  0  0  0  0  0  0  0  0
   -4.4285   -2.3456   -0.5888 C   0  0  0  0  0  0  0  0  0  0  0  0
   -4.4429   -1.2494    0.2556 C   0  0  0  0  0  0  0  0  0  0  0  0
   -5.3693   -1.2307    1.2547 F   0  0  0  0  0  0  0  0  0  0  0  0
   -3.5419   -0.2417    0.0575 C   0  0  0  0  0  0  0  0  0  0  0  0
   -0.7950    2.1143    0.8154 C   0  0  0  0  0  0  0  0  0  0  0  0
   -1.5508    3.1573    0.9551 C   0  0  0  0  0  0  0  0  0  0  0  0
   -2.8995    3.9151    0.1073 Cl  0  0  0  0  0  0  0  0  0  0  0  0
   -0.8527    3.5497    2.1750 C   0  0  0  0  0  0  0  0  0  0  0  0
   -0.9715    4.8597    3.3299 Cl  0  0  0  0  0  0  0  0  0  0  0  0
   -0.0857    2.4859    2.0253 C   0  0  0  0  0  0  0  0  0  0  0  0
    1.2611    1.8151    2.9502 Cl  0  0  0  0  0  0  0  0  0  0  0  0
    6.6996    0.7542   -0.0743 H   0  0  0  0  0  0  0  0  0  0  0  0
    6.9126   -0.5213   -1.3116 H   0  0  0  0  0  0  0  0  0  0  0  0
    7.0886   -0.8705    0.5039 H   0  0  0  0  0  0  0  0  0  0  0  0
    1.7503    1.7182   -0.5843 H   0  0  0  0  0  0  0  0  0  0  0  0
   -0.7336   -1.5556    0.6328 H   0  0  0  0  0  0  0  0  0  0  0  0
    1.3230   -2.9525    0.8549 H   0  0  0  0  0  0  0  0  0  0  0  0
   -1.0991    0.6506   -2.1013 H   0  0  0  0  0  0  0  0  0  0  0  0
   -2.2519    1.7695   -1.3663 H   0  0  0  0  0  0  0  0  0  0  0  0
   -1.8821   -1.4333   -2.6060 H   0  0  0  0  0  0  0  0  0  0  0  0
   -3.5021   -3.2676   -2.2677 H   0  0  0  0  0  0  0  0  0  0  0  0
   -5.1281   -3.1485   -0.4532 H   0  0  0  0  0  0  0  0  0  0  0  0
   -3.5425    0.6127    0.6933 H   0  0  0  0  0  0  0  0  0  0  0  0
  1  2  1  0
  2  3  2  0
  3  4  1  0
  4  5  2  0
  5  6  1  0
  6  7  2  0
  7  8  1  0
  8  9  2  0
  9 10  1  0
  6 11  1  0
 11 12  1  0
 12 13  1  0
 13 14  2  0
 14 15  1  0
 15 16  2  0
 16 17  1  0
 17 18  1  0
 17 19  2  0
 11 20  1  0
 20 21  2  0
 21 22  1  0
 21 23  1  0
 23 24  1  0
 23 25  2  0
 25 26  1  0
 10  2  1  0
 19 13  1  0
 25 20  1  0
  9  4  1  0
  1 27  1  0
  1 28  1  0
  1 29  1  0
  5 30  1  0
  7 31  1  0
  8 32  1  0
 12 33  1  0
 12 34  1  0
 14 35  1  0
 15 36  1  0
 16 37  1  0
 19 38  1  0
M  END
$$$$
