[H]c1nc(N([H])[H])c(-c2nn(-c3c(Cl)c(OC([H])([H])[H])c([H])c(OC([H])([H])[H])c3Cl)c(=O)c([H])c2[H])nc1-c1c([H])nn(C2([H])C([H])([H])C([H])([H])N(C([H])([H])C([H])(F)F)C([H])([H])C2([H])[H])c1[H]
     RDKit          3D

 67 71  0  0  0  0  0  0  0  0999 V2000
   10.1339   -0.1209    1.4013 C   0  0  0  0  0  0  0  0  0  0  0  0
    8.7772   -0.4313    1.5730 O   0  0  0  0  0  0  0  0  0  0  0  0
    7.8763   -0.2535    0.5381 C   0  0  0  0  0  0  0  0  0  0  0  0
    8.3083    0.2333   -0.6772 C   0  0  0  0  0  0  0  0  0  0  0  0
    7.4072    0.4120   -1.7143 C   0  0  0  0  0  0  0  0  0  0  0  0
    7.8329    0.9043   -2.9478 O   0  0  0  0  0  0  0  0  0  0  0  0
    9.2028    1.2310   -3.1660 C   0  0  0  0  0  0  0  0  0  0  0  0
    6.0882    0.0944   -1.5007 C   0  0  0  0  0  0  0  0  0  0  0  0
    4.9220    0.3060   -2.7876 Cl  0  0  0  0  0  0  0  0  0  0  0  0
    5.6601   -0.3991   -0.2637 C   0  0  0  0  0  0  0  0  0  0  0  0
    6.5364   -0.5822    0.7739 C   0  0  0  0  0  0  0  0  0  0  0  0
    6.0660   -1.1942    2.3522 Cl  0  0  0  0  0  0  0  0  0  0  0  0
    4.2875   -0.7219   -0.0679 N   0  0  0  0  0  0  0  0  0  0  0  0
    3.3869    0.2469   -0.0771 N   0  0  0  0  0  0  0  0  0  0  0  0
    2.0706    0.0539    0.0956 C   0  0  0  0  0  0  0  0  0  0  0  0
    1.6638   -1.2602    0.2945 C   0  0  0  0  0  0  0  0  0  0  0  0
    2.5973   -2.2734    0.3053 C   0  0  0  0  0  0  0  0  0  0  0  0
    3.9383   -2.0088    0.1211 C   0  0  0  0  0  0  0  0  0  0  0  0
    4.7907   -2.9604    0.1336 O   0  0  0  0  0  0  0  0  0  0  0  0
    1.1014    1.1435    0.0776 C   0  0  0  0  0  0  0  0  0  0  0  0
   -0.2112    0.9130    0.2544 N   0  0  0  0  0  0  0  0  0  0  0  0
   -1.1436    1.8925    0.2447 C   0  0  0  0  0  0  0  0  0  0  0  0
   -0.6674    3.1790    0.0381 C   0  0  0  0  0  0  0  0  0  0  0  0
    0.6427    3.4219   -0.1398 N   0  0  0  0  0  0  0  0  0  0  0  0
    1.5456    2.4338   -0.1257 C   0  0  0  0  0  0  0  0  0  0  0  0
    2.9490    2.7054   -0.3185 N   0  0  0  0  0  0  0  0  0  0  0  0
   -2.5562    1.6171    0.4401 C   0  0  0  0  0  0  0  0  0  0  0  0
   -3.5903    2.5115    0.4465 C   0  0  0  0  0  0  0  0  0  0  0  0
   -4.7306    1.7933    0.6688 N   0  0  0  0  0  0  0  0  0  0  0  0
   -4.4565    0.5110    0.7991 N   0  0  0  0  0  0  0  0  0  0  0  0
   -3.1060    0.3768    0.6601 C   0  0  0  0  0  0  0  0  0  0  0  0
   -5.3508   -0.5927    1.0428 C   0  0  0  0  0  0  0  0  0  0  0  0
   -5.8214   -1.1100   -0.3088 C   0  0  0  0  0  0  0  0  0  0  0  0
   -7.0703   -1.9474   -0.2189 C   0  0  0  0  0  0  0  0  0  0  0  0
   -8.0850   -1.2861    0.4921 N   0  0  0  0  0  0  0  0  0  0  0  0
   -9.3853   -1.3016   -0.0777 C   0  0  0  0  0  0  0  0  0  0  0  0
  -10.0522   -2.6482   -0.1017 C   0  0  0  0  0  0  0  0  0  0  0  0
  -10.2097   -3.1763    1.1696 F   0  0  0  0  0  0  0  0  0  0  0  0
   -9.4441   -3.5351   -0.9569 F   0  0  0  0  0  0  0  0  0  0  0  0
   -7.6890    0.0426    0.8693 C   0  0  0  0  0  0  0  0  0  0  0  0
   -6.5250   -0.0739    1.8550 C   0  0  0  0  0  0  0  0  0  0  0  0
   10.6045   -0.8710    0.7422 H   0  0  0  0  0  0  0  0  0  0  0  0
   10.1967    0.8736    0.9088 H   0  0  0  0  0  0  0  0  0  0  0  0
   10.6676   -0.0277    2.3766 H   0  0  0  0  0  0  0  0  0  0  0  0
    9.3320    0.4946   -0.8902 H   0  0  0  0  0  0  0  0  0  0  0  0
    9.4974    1.9102   -2.3423 H   0  0  0  0  0  0  0  0  0  0  0  0
    9.7859    0.2817   -3.1193 H   0  0  0  0  0  0  0  0  0  0  0  0
    9.3401    1.7789   -4.1148 H   0  0  0  0  0  0  0  0  0  0  0  0
    0.5983   -1.4529    0.4386 H   0  0  0  0  0  0  0  0  0  0  0  0
    2.3043   -3.3066    0.4586 H   0  0  0  0  0  0  0  0  0  0  0  0
   -1.3990    3.9883    0.0263 H   0  0  0  0  0  0  0  0  0  0  0  0
    3.5023    2.8336    0.5457 H   0  0  0  0  0  0  0  0  0  0  0  0
    3.3383    2.7603   -1.2788 H   0  0  0  0  0  0  0  0  0  0  0  0
   -3.5223    3.5788    0.3037 H   0  0  0  0  0  0  0  0  0  0  0  0
   -2.5664   -0.5480    0.7144 H   0  0  0  0  0  0  0  0  0  0  0  0
   -4.8092   -1.3795    1.5716 H   0  0  0  0  0  0  0  0  0  0  0  0
   -5.8889   -0.2481   -0.9852 H   0  0  0  0  0  0  0  0  0  0  0  0
   -4.9572   -1.7107   -0.6932 H   0  0  0  0  0  0  0  0  0  0  0  0
   -7.3688   -2.1414   -1.2945 H   0  0  0  0  0  0  0  0  0  0  0  0
   -6.7472   -2.9194    0.2212 H   0  0  0  0  0  0  0  0  0  0  0  0
   -9.4573   -0.8842   -1.1002 H   0  0  0  0  0  0  0  0  0  0  0  0
  -10.0400   -0.6448    0.5662 H   0  0  0  0  0  0  0  0  0  0  0  0
  -11.0840   -2.4912   -0.4986 H   0  0  0  0  0  0  0  0  0  0  0  0
   -7.3637    0.6567    0.0064 H   0  0  0  0  0  0  0  0  0  0  0  0
   -8.5283    0.6168    1.3320 H   0  0  0  0  0  0  0  0  0  0  0  0
   -6.3028    0.8942    2.3431 H   0  0  0  0  0  0  0  0  0  0  0  0
   -6.8229   -0.8691    2.5652 H   0  0  0  0  0  0  0  0  0  0  0  0
  1  2  1  0
  2  3  1  0
  3  4  2  0
  4  5  1  0
  5  6  1  0
  6  7  1  0
  5  8  2  0
  8  9  1  0
  8 10  1  0
 10 11  2  0
 11 12  1  0
 10 13  1  0
 13 14  1  0
 14 15  2  0
 15 16  1  0
 16 17  2  0
 17 18  1  0
 18 19  2  0
 15 20  1  0
 20 21  2  0
 21 22  1  0
 22 23  2  0
 23 24  1  0
 24 25  2  0
 25 26  1  0
 22 27  1  0
 27 28  1  0
 28 29  2  0
 29 30  1  0
 30 31  1  0
 30 32  1  0
 32 33  1  0
 33 34  1  0
 34 35  1  0
 35 36  1  0
 36 37  1  0
 37 38  1  0
 37 39  1  0
 35 40  1  0
 40 41  1  0
 11  3  1  0
 18 13  1  0
 25 20  1  0
 31 27  2  0
 41 32  1  0
  1 42  1  0
  1 43  1  0
  1 44  1  0
  4 45  1  0
  7 46  1  0
  7 47  1  0
  7 48  1  0
 16 49  1  0
 17 50  1  0
 23 51  1  0
 26 52  1  0
 26 53  1  0
 28 54  1  0
 31 55  1  0
 32 56  1  0
 33 57  1  0
 33 58  1  0
 34 59  1  0
 34 60  1  0
 36 61  1  0
 36 62  1  0
 37 63  1  0
 40 64  1  0
 40 65  1  0
 41 66  1  0
 41 67  1  0
M  END
$$$$
[H]c1c(OC([H])([H])[H])c([H])c(-c2c([H])c3c([H])nc(N([H])C([H])([H])[H])nc3n(C([H])(c3nc4c([H])c(Cl)c([H])c([H])c4n3[H])C([H])([H])[H])c2=O)c(Cl)c1OC([H])([H])[H]
     RDKit          3D

 58 62  0  0  0  0  0  0  0  0999 V2000
    3.8388    5.3392    1.5318 C   0  0  0  0  0  0  0  0  0  0  0  0
    2.4534    5.7234    1.5451 N   0  0  0  0  0  0  0  0  0  0  0  0
    1.4150    4.7822    1.2668 C   0  0  0  0  0  0  0  0  0  0  0  0
    0.1513    5.2343    1.3046 N   0  0  0  0  0  0  0  0  0  0  0  0
   -0.8794    4.4157    1.0553 C   0  0  0  0  0  0  0  0  0  0  0  0
   -0.5680    3.0862    0.7585 C   0  0  0  0  0  0  0  0  0  0  0  0
   -1.6208    2.1997    0.4972 C   0  0  0  0  0  0  0  0  0  0  0  0
   -1.3188    0.8923    0.2096 C   0  0  0  0  0  0  0  0  0  0  0  0
   -2.4043   -0.0389   -0.0328 C   0  0  0  0  0  0  0  0  0  0  0  0
   -2.4454   -1.2404    0.6661 C   0  0  0  0  0  0  0  0  0  0  0  0
   -3.4497   -2.1687    0.5056 C   0  0  0  0  0  0  0  0  0  0  0  0
   -3.4513   -3.3549    1.2241 O   0  0  0  0  0  0  0  0  0  0  0  0
   -4.4384   -4.3365    1.1094 C   0  0  0  0  0  0  0  0  0  0  0  0
   -4.4794   -1.9307   -0.3798 C   0  0  0  0  0  0  0  0  0  0  0  0
   -4.4615   -0.7483   -1.0836 C   0  0  0  0  0  0  0  0  0  0  0  0
   -5.4963   -0.5116   -1.9728 O   0  0  0  0  0  0  0  0  0  0  0  0
   -6.5529   -1.3917   -2.1992 C   0  0  0  0  0  0  0  0  0  0  0  0
   -3.4394    0.1819   -0.9123 C   0  0  0  0  0  0  0  0  0  0  0  0
   -3.4291    1.6768   -1.8315 Cl  0  0  0  0  0  0  0  0  0  0  0  0
    0.0158    0.4929    0.1867 C   0  0  0  0  0  0  0  0  0  0  0  0
    0.2134   -0.7086   -0.0827 O   0  0  0  0  0  0  0  0  0  0  0  0
    1.0322    1.3224    0.4327 N   0  0  0  0  0  0  0  0  0  0  0  0
    2.4273    1.0012    0.4256 C   0  0  0  0  0  0  0  0  0  0  0  0
    3.2032    1.9506   -0.5118 C   0  0  0  0  0  0  0  0  0  0  0  0
    2.7794   -0.3796    0.0811 C   0  0  0  0  0  0  0  0  0  0  0  0
    2.9518   -1.4094    0.9217 N   0  0  0  0  0  0  0  0  0  0  0  0
    3.3019   -2.5332    0.2434 C   0  0  0  0  0  0  0  0  0  0  0  0
    3.5873   -3.8310    0.6195 C   0  0  0  0  0  0  0  0  0  0  0  0
    3.9191   -4.7834   -0.3095 C   0  0  0  0  0  0  0  0  0  0  0  0
    4.2846   -6.4488    0.1709 Cl  0  0  0  0  0  0  0  0  0  0  0  0
    3.9664   -4.4344   -1.6389 C   0  0  0  0  0  0  0  0  0  0  0  0
    3.6778   -3.1262   -2.0119 C   0  0  0  0  0  0  0  0  0  0  0  0
    3.3451   -2.1672   -1.0855 C   0  0  0  0  0  0  0  0  0  0  0  0
    3.0266   -0.8666   -1.1599 N   0  0  0  0  0  0  0  0  0  0  0  0
    0.7278    2.6281    0.7206 C   0  0  0  0  0  0  0  0  0  0  0  0
    1.7090    3.5097    0.9822 N   0  0  0  0  0  0  0  0  0  0  0  0
    4.4982    6.1507    1.8822 H   0  0  0  0  0  0  0  0  0  0  0  0
    4.1797    5.0377    0.5261 H   0  0  0  0  0  0  0  0  0  0  0  0
    3.9728    4.5032    2.2623 H   0  0  0  0  0  0  0  0  0  0  0  0
    2.2241    6.7063    1.7621 H   0  0  0  0  0  0  0  0  0  0  0  0
   -1.9105    4.6900    1.0632 H   0  0  0  0  0  0  0  0  0  0  0  0
   -2.6475    2.5857    0.5400 H   0  0  0  0  0  0  0  0  0  0  0  0
   -1.6305   -1.4124    1.3638 H   0  0  0  0  0  0  0  0  0  0  0  0
   -5.4635   -3.9555    1.0508 H   0  0  0  0  0  0  0  0  0  0  0  0
   -4.2126   -4.9795    0.2197 H   0  0  0  0  0  0  0  0  0  0  0  0
   -4.3357   -5.0146    1.9861 H   0  0  0  0  0  0  0  0  0  0  0  0
   -5.2773   -2.6562   -0.5136 H   0  0  0  0  0  0  0  0  0  0  0  0
   -7.0792   -1.5612   -1.2242 H   0  0  0  0  0  0  0  0  0  0  0  0
   -6.2260   -2.3633   -2.6257 H   0  0  0  0  0  0  0  0  0  0  0  0
   -7.2790   -0.8866   -2.8719 H   0  0  0  0  0  0  0  0  0  0  0  0
    2.8002    1.2783    1.4607 H   0  0  0  0  0  0  0  0  0  0  0  0
    3.8617    1.3097   -1.1736 H   0  0  0  0  0  0  0  0  0  0  0  0
    3.9163    2.5849    0.0320 H   0  0  0  0  0  0  0  0  0  0  0  0
    2.5385    2.4691   -1.2158 H   0  0  0  0  0  0  0  0  0  0  0  0
    3.5461   -4.1024    1.6796 H   0  0  0  0  0  0  0  0  0  0  0  0
    4.2295   -5.2078   -2.3453 H   0  0  0  0  0  0  0  0  0  0  0  0
    3.7278   -2.8965   -3.0662 H   0  0  0  0  0  0  0  0  0  0  0  0
    2.9745   -0.3061   -2.0387 H   0  0  0  0  0  0  0  0  0  0  0  0
  1  2  1  0
  2  3  1  0
  3  4  2  0
  4  5  1  0
  5  6  2  0
  6  7  1  0
  7  8  2  0
  8  9  1  0
  9 10  2  0
 10 11  1  0
 11 12  1  0
 12 13  1  0
 11 14  2  0
 14 15  1  0
 15 16  1  0
 16 17  1  0
 15 18  2  0
 18 19  1  0
  8 20  1  0
 20 21  2  0
 20 22  1  0
 22 23  1  0
 23 24  1  0
 23 25  1  0
 25 26  2  0
 26 27  1  0
 27 28  2  0
 28 29  1  0
 29 30  1  0
 29 31  2  0
 31 32  1  0
 32 33  2  0
 33 34  1  0
 22 35  1  0
 35 36  2  0
 36  3  1  0
 35  6  1  0
 18  9  1  0
 34 25  1  0
 33 27  1  0
  1 37  1  0
  1 38  1  0
  1 39  1  0
  2 40  1  0
  5 41  1  0
  7 42  1  0
 10 43  1  0
 13 44  1  0
 13 45  1  0
 13 46  1  0
 14 47  1  0
 17 48  1  0
 17 49  1  0
 17 50  1  0
 23 51  1  0
 24 52  1  0
 24 53  1  0
 24 54  1  0
 28 55  1  0
 31 56  1  0
 32 57  1  0
 34 58  1  0
M  END
$$$$
[H]C([H])=C([H])C(=O)N([H])[C@@]1([H])C([H])([H])N(C([H])([H])C([H])([H])n2c(=O)c(-c3c([H])c(OC([H])([H])[H])c([H])c(OC([H])([H])[H])c3Cl)c([H])c3c([H])nc(N([H])C([H])([H])[H])nc32)C([H])([H])C1([H])[H]
     RDKit          3D

 65 68  0  0  0  0  0  0  0  0999 V2000
    0.8358    3.5663   -6.1605 C   0  0  0  0  0  0  0  0  0  0  0  0
    1.2293    2.9185   -4.9352 N   0  0  0  0  0  0  0  0  0  0  0  0
    0.2432    2.3777   -4.0411 C   0  0  0  0  0  0  0  0  0  0  0  0
   -1.0592    2.4850   -4.3689 N   0  0  0  0  0  0  0  0  0  0  0  0
   -2.0737    2.0245   -3.6198 C   0  0  0  0  0  0  0  0  0  0  0  0
   -1.7093    1.4012   -2.4329 C   0  0  0  0  0  0  0  0  0  0  0  0
   -2.7354    0.9155   -1.6296 C   0  0  0  0  0  0  0  0  0  0  0  0
   -2.3627    0.3056   -0.4575 C   0  0  0  0  0  0  0  0  0  0  0  0
   -3.3438   -0.2406    0.4449 C   0  0  0  0  0  0  0  0  0  0  0  0
   -3.2177   -1.5431    0.9374 C   0  0  0  0  0  0  0  0  0  0  0  0
   -4.1489   -2.0908    1.7931 C   0  0  0  0  0  0  0  0  0  0  0  0
   -3.9520   -3.3722    2.2287 O   0  0  0  0  0  0  0  0  0  0  0  0
   -4.7959   -4.0823    3.0947 C   0  0  0  0  0  0  0  0  0  0  0  0
   -5.2498   -1.3521    2.1931 C   0  0  0  0  0  0  0  0  0  0  0  0
   -5.3924   -0.0453    1.7104 C   0  0  0  0  0  0  0  0  0  0  0  0
   -6.4669    0.7507    2.0693 O   0  0  0  0  0  0  0  0  0  0  0  0
   -7.4300    0.1808    2.9609 C   0  0  0  0  0  0  0  0  0  0  0  0
   -4.4481    0.4875    0.8518 C   0  0  0  0  0  0  0  0  0  0  0  0
   -4.6887    2.1312    0.2984 Cl  0  0  0  0  0  0  0  0  0  0  0  0
   -1.0049    0.2032   -0.1343 C   0  0  0  0  0  0  0  0  0  0  0  0
   -0.6559   -0.3524    0.9319 O   0  0  0  0  0  0  0  0  0  0  0  0
   -0.0390    0.6843   -0.9347 N   0  0  0  0  0  0  0  0  0  0  0  0
    1.3285    0.5768   -0.5627 C   0  0  0  0  0  0  0  0  0  0  0  0
    1.9971   -0.7055   -1.0410 C   0  0  0  0  0  0  0  0  0  0  0  0
    3.3150   -0.7529   -0.6512 N   0  0  0  0  0  0  0  0  0  0  0  0
    4.3013    0.1035   -1.1612 C   0  0  0  0  0  0  0  0  0  0  0  0
    5.5750   -0.1573   -0.3902 C   0  0  0  0  0  0  0  0  0  0  0  0
    5.3301   -1.4320    0.3402 C   0  0  2  0  0  0  0  0  0  0  0  0
    3.8959   -1.8273    0.0341 C   0  0  0  0  0  0  0  0  0  0  0  0
    5.5682   -1.2809    1.7654 N   0  0  0  0  0  0  0  0  0  0  0  0
    4.9006   -0.3266    2.5668 C   0  0  0  0  0  0  0  0  0  0  0  0
    4.0517    0.4285    1.9899 O   0  0  0  0  0  0  0  0  0  0  0  0
    5.1194   -0.1576    3.9899 C   0  0  0  0  0  0  0  0  0  0  0  0
    4.4102    0.7935    4.6166 C   0  0  0  0  0  0  0  0  0  0  0  0
   -0.3752    1.2970   -2.1078 C   0  0  0  0  0  0  0  0  0  0  0  0
    0.6044    1.7756   -2.8935 N   0  0  0  0  0  0  0  0  0  0  0  0
    0.7735    4.6762   -6.0442 H   0  0  0  0  0  0  0  0  0  0  0  0
   -0.1350    3.1631   -6.5122 H   0  0  0  0  0  0  0  0  0  0  0  0
    1.6480    3.3679   -6.9140 H   0  0  0  0  0  0  0  0  0  0  0  0
    2.2342    2.8430   -4.6995 H   0  0  0  0  0  0  0  0  0  0  0  0
   -3.1178    2.1111   -3.8826 H   0  0  0  0  0  0  0  0  0  0  0  0
   -3.7582    1.0149   -1.9259 H   0  0  0  0  0  0  0  0  0  0  0  0
   -2.3733   -2.1269    0.6389 H   0  0  0  0  0  0  0  0  0  0  0  0
   -5.7024   -4.4852    2.5623 H   0  0  0  0  0  0  0  0  0  0  0  0
   -5.0683   -3.5260    4.0184 H   0  0  0  0  0  0  0  0  0  0  0  0
   -4.2220   -4.9862    3.4427 H   0  0  0  0  0  0  0  0  0  0  0  0
   -5.9785   -1.7686    2.8558 H   0  0  0  0  0  0  0  0  0  0  0  0
   -8.1677    0.9145    3.2895 H   0  0  0  0  0  0  0  0  0  0  0  0
   -6.8891   -0.1843    3.8773 H   0  0  0  0  0  0  0  0  0  0  0  0
   -7.9274   -0.6913    2.5116 H   0  0  0  0  0  0  0  0  0  0  0  0
    1.9493    1.4186   -0.9827 H   0  0  0  0  0  0  0  0  0  0  0  0
    1.4979    0.6145    0.5384 H   0  0  0  0  0  0  0  0  0  0  0  0
    1.7982   -0.7298   -2.1419 H   0  0  0  0  0  0  0  0  0  0  0  0
    1.4216   -1.5733   -0.6380 H   0  0  0  0  0  0  0  0  0  0  0  0
    4.4917   -0.1026   -2.2433 H   0  0  0  0  0  0  0  0  0  0  0  0
    4.0830    1.1781   -1.1014 H   0  0  0  0  0  0  0  0  0  0  0  0
    5.8077    0.6774    0.3188 H   0  0  0  0  0  0  0  0  0  0  0  0
    6.4243   -0.2360   -1.1162 H   0  0  0  0  0  0  0  0  0  0  0  0
    6.0723   -2.1799   -0.0546 H   0  0  0  0  0  0  0  0  0  0  0  0
    3.8678   -2.7510   -0.6011 H   0  0  0  0  0  0  0  0  0  0  0  0
    3.3711   -2.0056    1.0002 H   0  0  0  0  0  0  0  0  0  0  0  0
    6.2658   -1.8940    2.2562 H   0  0  0  0  0  0  0  0  0  0  0  0
    5.8200   -0.7674    4.5305 H   0  0  0  0  0  0  0  0  0  0  0  0
    3.7292    1.3761    4.0577 H   0  0  0  0  0  0  0  0  0  0  0  0
    4.5278    0.9645    5.6640 H   0  0  0  0  0  0  0  0  0  0  0  0
  1  2  1  0
  2  3  1  0
  3  4  2  0
  4  5  1  0
  5  6  2  0
  6  7  1  0
  7  8  2  0
  8  9  1  0
  9 10  2  0
 10 11  1  0
 11 12  1  0
 12 13  1  0
 11 14  2  0
 14 15  1  0
 15 16  1  0
 16 17  1  0
 15 18  2  0
 18 19  1  0
  8 20  1  0
 20 21  2  0
 20 22  1  0
 22 23  1  0
 23 24  1  0
 24 25  1  0
 25 26  1  0
 26 27  1  0
 27 28  1  0
 28 29  1  0
 28 30  1  0
 30 31  1  0
 31 32  2  0
 31 33  1  0
 33 34  2  3
 22 35  1  0
 35 36  2  0
 36  3  1  0
 35  6  1  0
 18  9  1  0
 29 25  1  0
  1 37  1  0
  1 38  1  0
  1 39  1  0
  2 40  1  0
  5 41  1  0
  7 42  1  0
 10 43  1  0
 13 44  1  0
 13 45  1  0
 13 46  1  0
 14 47  1  0
 17 48  1  0
 17 49  1  0
 17 50  1  0
 23 51  1  0
 23 52  1  0
 24 53  1  0
 24 54  1  0
 26 55  1  0
 26 56  1  0
 27 57  1  0
 27 58  1  0
 28 59  1  6
 29 60  1  0
 29 61  1  0
 30 62  1  0
 33 63  1  0
 34 64  1  0
 34 65  1  0
M  END
$$$$
[H]c1nc(N([H])[H])c(-c2nn(-c3c([H])c(F)c([H])c(OC([H])([H])[H])c3[H])c(=O)c([H])c2[H])nc1-c1c([H])nn(C2([H])C([H])([H])C([H])([H])N(C([H])([H])C(F)(F)F)C([H])([H])C2([H])[H])c1[H]
     RDKit          3D

 63 67  0  0  0  0  0  0  0  0999 V2000
   10.2036    2.8737    0.2215 C   0  0  0  0  0  0  0  0  0  0  0  0
    8.9379    2.4007    0.5896 O   0  0  0  0  0  0  0  0  0  0  0  0
    8.4198    1.1704    0.2092 C   0  0  0  0  0  0  0  0  0  0  0  0
    9.1262    0.2992   -0.5777 C   0  0  0  0  0  0  0  0  0  0  0  0
    8.5978   -0.9247   -0.9498 C   0  0  0  0  0  0  0  0  0  0  0  0
    9.2594   -1.8141   -1.7243 F   0  0  0  0  0  0  0  0  0  0  0  0
    7.3299   -1.2232   -0.4913 C   0  0  0  0  0  0  0  0  0  0  0  0
    6.5935   -0.3708    0.3005 C   0  0  0  0  0  0  0  0  0  0  0  0
    7.1536    0.8515    0.6565 C   0  0  0  0  0  0  0  0  0  0  0  0
    5.2926   -0.7182    0.7514 N   0  0  0  0  0  0  0  0  0  0  0  0
    4.2357   -0.4057   -0.0011 N   0  0  0  0  0  0  0  0  0  0  0  0
    2.9918   -0.7148    0.3894 C   0  0  0  0  0  0  0  0  0  0  0  0
    2.8316   -1.3647    1.5900 C   0  0  0  0  0  0  0  0  0  0  0  0
    3.9089   -1.7014    2.3912 C   0  0  0  0  0  0  0  0  0  0  0  0
    5.1644   -1.3523    1.9270 C   0  0  0  0  0  0  0  0  0  0  0  0
    6.1493   -1.6597    2.6591 O   0  0  0  0  0  0  0  0  0  0  0  0
    1.8377   -0.3809   -0.4160 C   0  0  0  0  0  0  0  0  0  0  0  0
    0.5770   -0.6865   -0.0343 N   0  0  0  0  0  0  0  0  0  0  0  0
   -0.4924   -0.3867   -0.7606 C   0  0  0  0  0  0  0  0  0  0  0  0
   -0.3318    0.2665   -1.9633 C   0  0  0  0  0  0  0  0  0  0  0  0
    0.8990    0.5940   -2.3908 N   0  0  0  0  0  0  0  0  0  0  0  0
    1.9624    0.2722   -1.6240 C   0  0  0  0  0  0  0  0  0  0  0  0
    3.2653    0.6139   -2.0676 N   0  0  0  0  0  0  0  0  0  0  0  0
   -1.8443   -0.7414   -0.2998 C   0  0  0  0  0  0  0  0  0  0  0  0
   -2.1598   -1.3982    0.8804 C   0  0  0  0  0  0  0  0  0  0  0  0
   -3.4895   -1.5220    0.9150 N   0  0  0  0  0  0  0  0  0  0  0  0
   -4.0596   -0.9972   -0.1497 N   0  0  0  0  0  0  0  0  0  0  0  0
   -3.0597   -0.5122   -0.9079 C   0  0  0  0  0  0  0  0  0  0  0  0
   -5.4866   -0.9650   -0.4183 C   0  0  0  0  0  0  0  0  0  0  0  0
   -6.2941   -1.2353    0.8292 C   0  0  0  0  0  0  0  0  0  0  0  0
   -7.7484   -1.2905    0.4157 C   0  0  0  0  0  0  0  0  0  0  0  0
   -8.2067   -0.0328   -0.1677 N   0  0  0  0  0  0  0  0  0  0  0  0
   -8.2781    0.9688    0.8396 C   0  0  0  0  0  0  0  0  0  0  0  0
   -8.7949    2.3011    0.3844 C   0  0  0  0  0  0  0  0  0  0  0  0
  -10.0753    2.0877   -0.1081 F   0  0  0  0  0  0  0  0  0  0  0  0
   -8.9279    3.1061    1.5307 F   0  0  0  0  0  0  0  0  0  0  0  0
   -7.9811    2.9867   -0.4588 F   0  0  0  0  0  0  0  0  0  0  0  0
   -7.3885    0.2600   -1.3015 C   0  0  0  0  0  0  0  0  0  0  0  0
   -5.9051    0.3998   -0.9585 C   0  0  0  0  0  0  0  0  0  0  0  0
   10.5206    2.5339   -0.7857 H   0  0  0  0  0  0  0  0  0  0  0  0
   10.2473    3.9836    0.2166 H   0  0  0  0  0  0  0  0  0  0  0  0
   10.9603    2.5020    0.9476 H   0  0  0  0  0  0  0  0  0  0  0  0
   10.1292    0.5395   -0.9381 H   0  0  0  0  0  0  0  0  0  0  0  0
    6.8701   -2.1812   -0.7603 H   0  0  0  0  0  0  0  0  0  0  0  0
    6.5912    1.5277    1.2741 H   0  0  0  0  0  0  0  0  0  0  0  0
    1.8573   -1.6279    1.9356 H   0  0  0  0  0  0  0  0  0  0  0  0
    3.7390   -2.2108    3.3260 H   0  0  0  0  0  0  0  0  0  0  0  0
   -1.2221    0.5103   -2.5570 H   0  0  0  0  0  0  0  0  0  0  0  0
    3.8823   -0.0279   -2.6031 H   0  0  0  0  0  0  0  0  0  0  0  0
    3.6203    1.5644   -1.8413 H   0  0  0  0  0  0  0  0  0  0  0  0
   -1.4232   -1.7319    1.6130 H   0  0  0  0  0  0  0  0  0  0  0  0
   -3.1903   -0.0057   -1.8737 H   0  0  0  0  0  0  0  0  0  0  0  0
   -5.8034   -1.7070   -1.1783 H   0  0  0  0  0  0  0  0  0  0  0  0
   -6.0368   -2.2936    1.1292 H   0  0  0  0  0  0  0  0  0  0  0  0
   -6.0937   -0.5495    1.6503 H   0  0  0  0  0  0  0  0  0  0  0  0
   -8.4109   -1.5768    1.2565 H   0  0  0  0  0  0  0  0  0  0  0  0
   -7.8274   -2.0553   -0.3860 H   0  0  0  0  0  0  0  0  0  0  0  0
   -9.0250    0.5999    1.6017 H   0  0  0  0  0  0  0  0  0  0  0  0
   -7.3328    1.0514    1.4183 H   0  0  0  0  0  0  0  0  0  0  0  0
   -7.4210   -0.6808   -1.9409 H   0  0  0  0  0  0  0  0  0  0  0  0
   -7.7630    1.0555   -1.9469 H   0  0  0  0  0  0  0  0  0  0  0  0
   -5.3792    0.5249   -1.9287 H   0  0  0  0  0  0  0  0  0  0  0  0
   -5.7021    1.2011   -0.2434 H   0  0  0  0  0  0  0  0  0  0  0  0
  1  2  1  0
  2  3  1  0
  3  4  2  0
  4  5  1  0
  5  6  1  0
  5  7  2  0
  7  8  1  0
  8  9  2  0
  8 10  1  0
 10 11  1  0
 11 12  2  0
 12 13  1  0
 13 14  2  0
 14 15  1  0
 15 16  2  0
 12 17  1  0
 17 18  2  0
 18 19  1  0
 19 20  2  0
 20 21  1  0
 21 22  2  0
 22 23  1  0
 19 24  1  0
 24 25  1  0
 25 26  2  0
 26 27  1  0
 27 28  1  0
 27 29  1  0
 29 30  1  0
 30 31  1  0
 31 32  1  0
 32 33  1  0
 33 34  1  0
 34 35  1  0
 34 36  1  0
 34 37  1  0
 32 38  1  0
 38 39  1  0
  9  3  1  0
 15 10  1  0
 22 17  1  0
 28 24  2  0
 39 29  1  0
  1 40  1  0
  1 41  1  0
  1 42  1  0
  4 43  1  0
  7 44  1  0
  9 45  1  0
 13 46  1  0
 14 47  1  0
 20 48  1  0
 23 49  1  0
 23 50  1  0
 25 51  1  0
 28 52  1  0
 29 53  1  0
 30 54  1  0
 30 55  1  0
 31 56  1  0
 31 57  1  0
 33 58  1  0
 33 59  1  0
 38 60  1  0
 38 61  1  0
 39 62  1  0
 39 63  1  0
M  END
$$$$
[H]OC([H])([H])c1c([H])c(-c2c([H])nn(C([H])([H])C([H])([H])N3C([H])([H])C([H])([H])N(C([H])([H])[H])C([H])([H])C3([H])[H])c2[H])c([H])c([H])c1N([H])C(=O)c1c([H])c([H])c(F)c(Cl)c1[H]
     RDKit          3D

 60 63  0  0  0  0  0  0  0  0999 V2000
    7.9155   -1.2381    1.6382 C   0  0  0  0  0  0  0  0  0  0  0  0
    7.3398   -1.2746    0.3034 N   0  0  0  0  0  0  0  0  0  0  0  0
    7.3692    0.0378   -0.2922 C   0  0  0  0  0  0  0  0  0  0  0  0
    6.0940    0.8316    0.0229 C   0  0  0  0  0  0  0  0  0  0  0  0
    5.0213    0.1526   -0.6145 N   0  0  0  0  0  0  0  0  0  0  0  0
    4.5116    0.7718   -1.7863 C   0  0  0  0  0  0  0  0  0  0  0  0
    3.7883    2.0752   -1.5133 C   0  0  0  0  0  0  0  0  0  0  0  0
    2.6533    1.8022   -0.6234 N   0  0  0  0  0  0  0  0  0  0  0  0
    1.4108    1.4894   -0.9859 C   0  0  0  0  0  0  0  0  0  0  0  0
    0.6073    1.2916    0.1397 C   0  0  0  0  0  0  0  0  0  0  0  0
    1.4561    1.5084    1.2017 C   0  0  0  0  0  0  0  0  0  0  0  0
    2.6680    1.8110    0.7005 N   0  0  0  0  0  0  0  0  0  0  0  0
   -0.7975    0.9354    0.2045 C   0  0  0  0  0  0  0  0  0  0  0  0
   -1.3253    0.1881    1.2270 C   0  0  0  0  0  0  0  0  0  0  0  0
   -2.6775   -0.1697    1.3010 C   0  0  0  0  0  0  0  0  0  0  0  0
   -3.5546    0.2269    0.3215 C   0  0  0  0  0  0  0  0  0  0  0  0
   -4.9296   -0.0583    0.2617 N   0  0  0  0  0  0  0  0  0  0  0  0
   -5.6347   -0.8179    1.1984 C   0  0  0  0  0  0  0  0  0  0  0  0
   -5.1878   -1.3633    2.2336 O   0  0  0  0  0  0  0  0  0  0  0  0
   -7.0889   -1.0196    0.9667 C   0  0  0  0  0  0  0  0  0  0  0  0
   -7.6700   -0.9113   -0.2738 C   0  0  0  0  0  0  0  0  0  0  0  0
   -9.0427   -1.1009   -0.4447 C   0  0  0  0  0  0  0  0  0  0  0  0
   -9.8092   -1.3991    0.6498 C   0  0  0  0  0  0  0  0  0  0  0  0
  -11.1377   -1.5955    0.5539 F   0  0  0  0  0  0  0  0  0  0  0  0
   -9.2483   -1.5162    1.9244 C   0  0  0  0  0  0  0  0  0  0  0  0
  -10.1986   -1.8937    3.3188 Cl  0  0  0  0  0  0  0  0  0  0  0  0
   -7.8773   -1.3208    2.0587 C   0  0  0  0  0  0  0  0  0  0  0  0
   -2.9839    0.9913   -0.7115 C   0  0  0  0  0  0  0  0  0  0  0  0
   -3.8962    1.4514   -1.8087 C   0  0  0  0  0  0  0  0  0  0  0  0
   -3.1953    2.1916   -2.7542 O   0  0  0  0  0  0  0  0  0  0  0  0
   -1.6636    1.3350   -0.7744 C   0  0  0  0  0  0  0  0  0  0  0  0
    5.0442   -1.2656   -0.5915 C   0  0  0  0  0  0  0  0  0  0  0  0
    6.0238   -1.8406    0.4019 C   0  0  0  0  0  0  0  0  0  0  0  0
    7.1725   -0.7267    2.3008 H   0  0  0  0  0  0  0  0  0  0  0  0
    8.0593   -2.2985    1.9932 H   0  0  0  0  0  0  0  0  0  0  0  0
    8.8935   -0.6966    1.6516 H   0  0  0  0  0  0  0  0  0  0  0  0
    8.2225    0.6025    0.1689 H   0  0  0  0  0  0  0  0  0  0  0  0
    7.4534    0.0267   -1.3916 H   0  0  0  0  0  0  0  0  0  0  0  0
    6.2431    1.8128   -0.5173 H   0  0  0  0  0  0  0  0  0  0  0  0
    5.9882    1.0066    1.0972 H   0  0  0  0  0  0  0  0  0  0  0  0
    5.2744    0.9028   -2.5744 H   0  0  0  0  0  0  0  0  0  0  0  0
    3.7321    0.0828   -2.2225 H   0  0  0  0  0  0  0  0  0  0  0  0
    3.3799    2.4271   -2.4829 H   0  0  0  0  0  0  0  0  0  0  0  0
    4.4181    2.8147   -0.9931 H   0  0  0  0  0  0  0  0  0  0  0  0
    1.0485    1.3958   -1.9895 H   0  0  0  0  0  0  0  0  0  0  0  0
    1.2314    1.4553    2.2436 H   0  0  0  0  0  0  0  0  0  0  0  0
   -0.7061   -0.1761    2.0571 H   0  0  0  0  0  0  0  0  0  0  0  0
   -3.0240   -0.7548    2.1280 H   0  0  0  0  0  0  0  0  0  0  0  0
   -5.4622    0.3346   -0.5428 H   0  0  0  0  0  0  0  0  0  0  0  0
   -7.0360   -0.6810   -1.1210 H   0  0  0  0  0  0  0  0  0  0  0  0
   -9.4558   -1.0077   -1.4266 H   0  0  0  0  0  0  0  0  0  0  0  0
   -7.4390   -1.4143    3.0636 H   0  0  0  0  0  0  0  0  0  0  0  0
   -4.3829    0.6180   -2.3120 H   0  0  0  0  0  0  0  0  0  0  0  0
   -4.7007    2.0961   -1.3868 H   0  0  0  0  0  0  0  0  0  0  0  0
   -2.5729    1.6455   -3.2958 H   0  0  0  0  0  0  0  0  0  0  0  0
   -1.3034    1.9323   -1.6131 H   0  0  0  0  0  0  0  0  0  0  0  0
    5.2635   -1.6502   -1.6068 H   0  0  0  0  0  0  0  0  0  0  0  0
    4.0467   -1.6827   -0.3178 H   0  0  0  0  0  0  0  0  0  0  0  0
    6.0581   -2.9359    0.2260 H   0  0  0  0  0  0  0  0  0  0  0  0
    5.6133   -1.6209    1.4103 H   0  0  0  0  0  0  0  0  0  0  0  0
  1  2  1  0
  2  3  1  0
  3  4  1  0
  4  5  1  0
  5  6  1  0
  6  7  1  0
  7  8  1  0
  8  9  1  0
  9 10  2  0
 10 11  1  0
 11 12  2  0
 10 13  1  0
 13 14  2  0
 14 15  1  0
 15 16  2  0
 16 17  1  0
 17 18  1  0
 18 19  2  0
 18 20  1  0
 20 21  2  0
 21 22  1  0
 22 23  2  0
 23 24  1  0
 23 25  1  0
 25 26  1  0
 25 27  2  0
 16 28  1  0
 28 29  1  0
 29 30  1  0
 28 31  2  0
  5 32  1  0
 32 33  1  0
 33  2  1  0
 12  8  1  0
 31 13  1  0
 27 20  1  0
  1 34  1  0
  1 35  1  0
  1 36  1  0
  3 37  1  0
  3 38  1  0
  4 39  1  0
  4 40  1  0
  6 41  1  0
  6 42  1  0
  7 43  1  0
  7 44  1  0
  9 45  1  0
 11 46  1  0
 14 47  1  0
 15 48  1  0
 17 49  1  0
 21 50  1  0
 22 51  1  0
 27 52  1  0
 29 53  1  0
 29 54  1  0
 30 55  1  0
 31 56  1  0
 32 57  1  0
 32 58  1  0
 33 59  1  0
 33 60  1  0
M  END
$$$$
[H]c1nc([H])c([H])c(C([H])([H])N([H])c2nc([H])c(Cl)c(N([H])c3c([H])c(C([H])([H])OC([H])([H])C([H])([H])[H])nn3[H])n2)c1[H]
     RDKit          3D

 43 45  0  0  0  0  0  0  0  0999 V2000
    4.2775    4.2611    2.5543 C   0  0  0  0  0  0  0  0  0  0  0  0
    4.2557    2.7261    2.5038 C   0  0  0  0  0  0  0  0  0  0  0  0
    5.0874    2.3318    1.4923 O   0  0  0  0  0  0  0  0  0  0  0  0
    5.1755    0.9810    1.3160 C   0  0  0  0  0  0  0  0  0  0  0  0
    3.8636    0.3591    0.9609 C   0  0  0  0  0  0  0  0  0  0  0  0
    3.5516   -0.9595    1.1308 C   0  0  0  0  0  0  0  0  0  0  0  0
    2.2368   -1.2055    0.6823 C   0  0  0  0  0  0  0  0  0  0  0  0
    1.6182   -2.4778    0.7277 N   0  0  0  0  0  0  0  0  0  0  0  0
    0.3049   -2.6873    0.2714 C   0  0  0  0  0  0  0  0  0  0  0  0
   -0.5169   -1.7699   -0.2533 N   0  0  0  0  0  0  0  0  0  0  0  0
   -1.7607   -2.0177   -0.6766 C   0  0  0  0  0  0  0  0  0  0  0  0
   -2.5449   -0.9840   -1.2133 N   0  0  0  0  0  0  0  0  0  0  0  0
   -3.9006   -1.1781   -1.6917 C   0  0  0  0  0  0  0  0  0  0  0  0
   -4.4970    0.0640   -2.2045 C   0  0  0  0  0  0  0  0  0  0  0  0
   -5.1935    0.9488   -1.3900 C   0  0  0  0  0  0  0  0  0  0  0  0
   -5.7004    2.0636   -1.9806 C   0  0  0  0  0  0  0  0  0  0  0  0
   -5.5778    2.3716   -3.2898 N   0  0  0  0  0  0  0  0  0  0  0  0
   -4.9083    1.5127   -4.0524 C   0  0  0  0  0  0  0  0  0  0  0  0
   -4.3643    0.3607   -3.5286 C   0  0  0  0  0  0  0  0  0  0  0  0
   -2.2078   -3.2801   -0.5628 N   0  0  0  0  0  0  0  0  0  0  0  0
   -1.4706   -4.2709   -0.0539 C   0  0  0  0  0  0  0  0  0  0  0  0
   -0.1927   -4.0018    0.3776 C   0  0  0  0  0  0  0  0  0  0  0  0
    0.8304   -5.2365    1.0524 Cl  0  0  0  0  0  0  0  0  0  0  0  0
    1.8268   -0.0055    0.2624 N   0  0  0  0  0  0  0  0  0  0  0  0
    2.7824    0.9240    0.4238 N   0  0  0  0  0  0  0  0  0  0  0  0
    5.2664    4.5558    2.9477 H   0  0  0  0  0  0  0  0  0  0  0  0
    3.4511    4.6250    3.2033 H   0  0  0  0  0  0  0  0  0  0  0  0
    4.1451    4.6732    1.5530 H   0  0  0  0  0  0  0  0  0  0  0  0
    3.2274    2.3805    2.4718 H   0  0  0  0  0  0  0  0  0  0  0  0
    4.7265    2.3927    3.4759 H   0  0  0  0  0  0  0  0  0  0  0  0
    5.6016    0.5346    2.2430 H   0  0  0  0  0  0  0  0  0  0  0  0
    5.8781    0.7231    0.5027 H   0  0  0  0  0  0  0  0  0  0  0  0
    4.2183   -1.7219    1.5523 H   0  0  0  0  0  0  0  0  0  0  0  0
    2.1991   -3.2654    1.1251 H   0  0  0  0  0  0  0  0  0  0  0  0
   -2.1607   -0.0304   -1.2813 H   0  0  0  0  0  0  0  0  0  0  0  0
   -4.5484   -1.6411   -0.9044 H   0  0  0  0  0  0  0  0  0  0  0  0
   -3.8418   -1.9117   -2.5203 H   0  0  0  0  0  0  0  0  0  0  0  0
   -5.2885    0.7035   -0.3589 H   0  0  0  0  0  0  0  0  0  0  0  0
   -6.2508    2.7788   -1.3791 H   0  0  0  0  0  0  0  0  0  0  0  0
   -4.8046    1.7572   -5.1213 H   0  0  0  0  0  0  0  0  0  0  0  0
   -3.8338   -0.2794   -4.2331 H   0  0  0  0  0  0  0  0  0  0  0  0
   -1.8361   -5.2954    0.0376 H   0  0  0  0  0  0  0  0  0  0  0  0
    0.8762    0.1913   -0.1443 H   0  0  0  0  0  0  0  0  0  0  0  0
  1  2  1  0
  2  3  1  0
  3  4  1  0
  4  5  1  0
  5  6  1  0
  6  7  2  0
  7  8  1  0
  8  9  1  0
  9 10  2  0
 10 11  1  0
 11 12  1  0
 12 13  1  0
 13 14  1  0
 14 15  2  0
 15 16  1  0
 16 17  2  0
 17 18  1  0
 18 19  2  0
 11 20  2  0
 20 21  1  0
 21 22  2  0
 22 23  1  0
  7 24  1  0
 24 25  1  0
 25  5  2  0
 22  9  1  0
 19 14  1  0
  1 26  1  0
  1 27  1  0
  1 28  1  0
  2 29  1  0
  2 30  1  0
  4 31  1  0
  4 32  1  0
  6 33  1  0
  8 34  1  0
 12 35  1  0
 13 36  1  0
 13 37  1  0
 15 38  1  0
 16 39  1  0
 18 40  1  0
 19 41  1  0
 21 42  1  0
 24 43  1  0
M  END
$$$$
[H]C([H])=C([H])C(=O)N1C([H])([H])C([H])(OC([H])([H])C([H])([H])n2c(=O)c(-c3c(Cl)c(OC([H])([H])[H])c([H])c(OC([H])([H])[H])c3Cl)c([H])c3c([H])nc(N([H])C([H])([H])C([H])([H])C([H])([H])N4C([H])([H])C([H])([H])C([H])([H])C([H])([H])C4([H])[H])nc32)C1([H])[H]
     RDKit          3D

 82 86  0  0  0  0  0  0  0  0999 V2000
   -4.9284   -8.3705   -0.3571 C   0  0  0  0  0  0  0  0  0  0  0  0
   -3.9376   -7.4003   -0.6331 O   0  0  0  0  0  0  0  0  0  0  0  0
   -4.1038   -6.0992   -0.1805 C   0  0  0  0  0  0  0  0  0  0  0  0
   -5.2389   -5.7672    0.5358 C   0  0  0  0  0  0  0  0  0  0  0  0
   -5.4079   -4.4757    0.9872 C   0  0  0  0  0  0  0  0  0  0  0  0
   -6.5425   -4.1367    1.7052 O   0  0  0  0  0  0  0  0  0  0  0  0
   -7.5556   -5.0783    2.0004 C   0  0  0  0  0  0  0  0  0  0  0  0
   -4.4316   -3.5442    0.7089 C   0  0  0  0  0  0  0  0  0  0  0  0
   -4.6181   -1.8944    1.2695 Cl  0  0  0  0  0  0  0  0  0  0  0  0
   -3.2901   -3.8626   -0.0072 C   0  0  0  0  0  0  0  0  0  0  0  0
   -3.1216   -5.1523   -0.4577 C   0  0  0  0  0  0  0  0  0  0  0  0
   -1.6984   -5.6329   -1.3740 Cl  0  0  0  0  0  0  0  0  0  0  0  0
   -2.2942   -2.8335   -0.2685 C   0  0  0  0  0  0  0  0  0  0  0  0
   -1.2580   -2.6206    0.6363 C   0  0  0  0  0  0  0  0  0  0  0  0
   -0.3170   -1.6371    0.3903 C   0  0  0  0  0  0  0  0  0  0  0  0
    0.7200   -1.4018    1.2574 C   0  0  0  0  0  0  0  0  0  0  0  0
    1.6205   -0.4401    0.9868 N   0  0  0  0  0  0  0  0  0  0  0  0
    1.5745    0.3323   -0.1090 C   0  0  0  0  0  0  0  0  0  0  0  0
    2.5281    1.3506   -0.4027 N   0  0  0  0  0  0  0  0  0  0  0  0
    3.6580    1.6935    0.3909 C   0  0  0  0  0  0  0  0  0  0  0  0
    4.6409    0.5411    0.3910 C   0  0  0  0  0  0  0  0  0  0  0  0
    5.8353    0.9170    1.2270 C   0  0  0  0  0  0  0  0  0  0  0  0
    6.4870    2.0739    0.7308 N   0  0  0  0  0  0  0  0  0  0  0  0
    7.1623    1.9414   -0.5104 C   0  0  0  0  0  0  0  0  0  0  0  0
    8.5753    1.4153   -0.3425 C   0  0  0  0  0  0  0  0  0  0  0  0
    9.3330    2.0903    0.7526 C   0  0  0  0  0  0  0  0  0  0  0  0
    8.5275    2.1641    2.0261 C   0  0  0  0  0  0  0  0  0  0  0  0
    7.2040    2.8161    1.7229 C   0  0  0  0  0  0  0  0  0  0  0  0
    0.5413    0.0881   -0.9599 N   0  0  0  0  0  0  0  0  0  0  0  0
   -0.3844   -0.8566   -0.7415 C   0  0  0  0  0  0  0  0  0  0  0  0
   -1.4013   -1.0909   -1.5954 N   0  0  0  0  0  0  0  0  0  0  0  0
   -1.5020   -0.2853   -2.7784 C   0  0  0  0  0  0  0  0  0  0  0  0
   -2.3840    0.8978   -2.4884 C   0  0  0  0  0  0  0  0  0  0  0  0
   -1.9205    1.7154   -1.4650 O   0  0  0  0  0  0  0  0  0  0  0  0
   -2.8312    2.7333   -1.3236 C   0  0  0  0  0  0  0  0  0  0  0  0
   -3.3107    3.0203    0.0919 C   0  0  0  0  0  0  0  0  0  0  0  0
   -3.3431    4.4112   -0.2934 N   0  0  0  0  0  0  0  0  0  0  0  0
   -2.2259    4.1353   -1.1665 C   0  0  0  0  0  0  0  0  0  0  0  0
   -4.1213    5.5382    0.0351 C   0  0  0  0  0  0  0  0  0  0  0  0
   -5.0659    5.4071    0.8824 O   0  0  0  0  0  0  0  0  0  0  0  0
   -3.9050    6.8480   -0.5423 C   0  0  0  0  0  0  0  0  0  0  0  0
   -4.6469    7.8810   -0.2190 C   0  0  0  0  0  0  0  0  0  0  0  0
   -2.3308   -2.0351   -1.3899 C   0  0  0  0  0  0  0  0  0  0  0  0
   -3.2594   -2.1960   -2.2419 O   0  0  0  0  0  0  0  0  0  0  0  0
   -4.5399   -9.3956   -0.6047 H   0  0  0  0  0  0  0  0  0  0  0  0
   -5.1820   -8.4195    0.7382 H   0  0  0  0  0  0  0  0  0  0  0  0
   -5.8647   -8.1950   -0.8924 H   0  0  0  0  0  0  0  0  0  0  0  0
   -5.9869   -6.5478    0.7304 H   0  0  0  0  0  0  0  0  0  0  0  0
   -7.8601   -5.6787    1.1197 H   0  0  0  0  0  0  0  0  0  0  0  0
   -8.4141   -4.5439    2.4339 H   0  0  0  0  0  0  0  0  0  0  0  0
   -7.0896   -5.7929    2.7391 H   0  0  0  0  0  0  0  0  0  0  0  0
   -1.1611   -3.1957    1.5252 H   0  0  0  0  0  0  0  0  0  0  0  0
    0.7830   -2.0093    2.1500 H   0  0  0  0  0  0  0  0  0  0  0  0
    2.3935    1.9155   -1.2976 H   0  0  0  0  0  0  0  0  0  0  0  0
    4.1906    2.5797    0.0121 H   0  0  0  0  0  0  0  0  0  0  0  0
    3.3523    1.9498    1.4350 H   0  0  0  0  0  0  0  0  0  0  0  0
    4.9108    0.3706   -0.6634 H   0  0  0  0  0  0  0  0  0  0  0  0
    4.1464   -0.3856    0.8152 H   0  0  0  0  0  0  0  0  0  0  0  0
    6.5650    0.0608    1.2771 H   0  0  0  0  0  0  0  0  0  0  0  0
    5.4617    1.1380    2.2623 H   0  0  0  0  0  0  0  0  0  0  0  0
    6.6444    1.2085   -1.1523 H   0  0  0  0  0  0  0  0  0  0  0  0
    7.1535    2.9008   -1.0707 H   0  0  0  0  0  0  0  0  0  0  0  0
    9.1237    1.6186   -1.3049 H   0  0  0  0  0  0  0  0  0  0  0  0
    8.5683    0.3259   -0.2280 H   0  0  0  0  0  0  0  0  0  0  0  0
   10.2274    1.4582    0.9731 H   0  0  0  0  0  0  0  0  0  0  0  0
    9.6672    3.0785    0.4149 H   0  0  0  0  0  0  0  0  0  0  0  0
    8.3547    1.1338    2.4005 H   0  0  0  0  0  0  0  0  0  0  0  0
    9.0853    2.7875    2.7566 H   0  0  0  0  0  0  0  0  0  0  0  0
    7.3667    3.8496    1.3798 H   0  0  0  0  0  0  0  0  0  0  0  0
    6.5817    2.8669    2.6404 H   0  0  0  0  0  0  0  0  0  0  0  0
   -1.9921   -0.8559   -3.5937 H   0  0  0  0  0  0  0  0  0  0  0  0
   -0.5072    0.1067   -3.0796 H   0  0  0  0  0  0  0  0  0  0  0  0
   -2.5752    1.5086   -3.4147 H   0  0  0  0  0  0  0  0  0  0  0  0
   -3.4121    0.5195   -2.2130 H   0  0  0  0  0  0  0  0  0  0  0  0
   -3.7029    2.7125   -2.0077 H   0  0  0  0  0  0  0  0  0  0  0  0
   -2.5442    2.8730    0.8747 H   0  0  0  0  0  0  0  0  0  0  0  0
   -4.2703    2.5680    0.3739 H   0  0  0  0  0  0  0  0  0  0  0  0
   -2.1928    4.6558   -2.1213 H   0  0  0  0  0  0  0  0  0  0  0  0
   -1.2791    4.0756   -0.5853 H   0  0  0  0  0  0  0  0  0  0  0  0
   -3.1119    6.9747   -1.2572 H   0  0  0  0  0  0  0  0  0  0  0  0
   -5.4440    7.7411    0.5038 H   0  0  0  0  0  0  0  0  0  0  0  0
   -4.4772    8.8414   -0.6523 H   0  0  0  0  0  0  0  0  0  0  0  0
  1  2  1  0
  2  3  1  0
  3  4  2  0
  4  5  1  0
  5  6  1  0
  6  7  1  0
  5  8  2  0
  8  9  1  0
  8 10  1  0
 10 11  2  0
 11 12  1  0
 10 13  1  0
 13 14  2  0
 14 15  1  0
 15 16  2  0
 16 17  1  0
 17 18  2  0
 18 19  1  0
 19 20  1  0
 20 21  1  0
 21 22  1  0
 22 23  1  0
 23 24  1  0
 24 25  1  0
 25 26  1  0
 26 27  1  0
 27 28  1  0
 18 29  1  0
 29 30  2  0
 30 31  1  0
 31 32  1  0
 32 33  1  0
 33 34  1  0
 34 35  1  0
 35 36  1  0
 36 37  1  0
 37 38  1  0
 37 39  1  0
 39 40  2  0
 39 41  1  0
 41 42  2  3
 31 43  1  0
 43 44  2  0
 11  3  1  0
 43 13  1  0
 30 15  1  0
 38 35  1  0
 28 23  1  0
  1 45  1  0
  1 46  1  0
  1 47  1  0
  4 48  1  0
  7 49  1  0
  7 50  1  0
  7 51  1  0
 14 52  1  0
 16 53  1  0
 19 54  1  0
 20 55  1  0
 20 56  1  0
 21 57  1  0
 21 58  1  0
 22 59  1  0
 22 60  1  0
 24 61  1  0
 24 62  1  0
 25 63  1  0
 25 64  1  0
 26 65  1  0
 26 66  1  0
 27 67  1  0
 27 68  1  0
 28 69  1  0
 28 70  1  0
 32 71  1  0
 32 72  1  0
 33 73  1  0
 33 74  1  0
 35 75  1  0
 36 76  1  0
 36 77  1  0
 38 78  1  0
 38 79  1  0
 41 80  1  0
 42 81  1  0
 42 82  1  0
M  END
$$$$
[H]c1nc(N([H])[H])c(-c2nn(-c3c(Cl)c(OC([H])([H])[H])c([H])c(OC([H])([H])[H])c3Cl)c(=O)c([H])c2[H])nc1-c1c([H])nn(C2([H])C([H])([H])C([H])([H])N([H])C([H])([H])C2([H])[H])c1[H]
     RDKit          3D

 61 65  0  0  0  0  0  0  0  0999 V2000
    8.3414    2.8868    0.5940 C   0  0  0  0  0  0  0  0  0  0  0  0
    7.0256    2.5280    0.8403 O   0  0  0  0  0  0  0  0  0  0  0  0
    6.4571    1.2832    0.8238 C   0  0  0  0  0  0  0  0  0  0  0  0
    7.2225    0.1800    0.5388 C   0  0  0  0  0  0  0  0  0  0  0  0
    6.6715   -1.0974    0.5158 C   0  0  0  0  0  0  0  0  0  0  0  0
    7.4579   -2.1972    0.2268 O   0  0  0  0  0  0  0  0  0  0  0  0
    8.8268   -1.9974   -0.0430 C   0  0  0  0  0  0  0  0  0  0  0  0
    5.3378   -1.2356    0.7853 C   0  0  0  0  0  0  0  0  0  0  0  0
    4.6390   -2.8400    0.7582 Cl  0  0  0  0  0  0  0  0  0  0  0  0
    4.5369   -0.1556    1.0751 C   0  0  0  0  0  0  0  0  0  0  0  0
    5.1211    1.1075    1.0897 C   0  0  0  0  0  0  0  0  0  0  0  0
    4.1231    2.4907    1.4534 Cl  0  0  0  0  0  0  0  0  0  0  0  0
    3.1434   -0.3169    1.3493 N   0  0  0  0  0  0  0  0  0  0  0  0
    2.3053   -0.1731    0.3204 N   0  0  0  0  0  0  0  0  0  0  0  0
    0.9786   -0.3110    0.4851 C   0  0  0  0  0  0  0  0  0  0  0  0
    0.5002   -0.6040    1.7393 C   0  0  0  0  0  0  0  0  0  0  0  0
    1.3550   -0.7565    2.8189 C   0  0  0  0  0  0  0  0  0  0  0  0
    2.7056   -0.6025    2.5833 C   0  0  0  0  0  0  0  0  0  0  0  0
    3.5211   -0.7306    3.5275 O   0  0  0  0  0  0  0  0  0  0  0  0
    0.0837   -0.1527   -0.6418 C   0  0  0  0  0  0  0  0  0  0  0  0
   -1.2676   -0.2855   -0.5149 N   0  0  0  0  0  0  0  0  0  0  0  0
   -2.0889   -0.1407   -1.5507 C   0  0  0  0  0  0  0  0  0  0  0  0
   -1.5548    0.1502   -2.7754 C   0  0  0  0  0  0  0  0  0  0  0  0
   -0.2206    0.2952   -2.9681 N   0  0  0  0  0  0  0  0  0  0  0  0
    0.5719    0.1390   -1.8884 C   0  0  0  0  0  0  0  0  0  0  0  0
    1.9579    0.2860   -2.0644 N   0  0  0  0  0  0  0  0  0  0  0  0
   -3.5207   -0.2913   -1.3852 C   0  0  0  0  0  0  0  0  0  0  0  0
   -4.4694   -0.1614   -2.3971 C   0  0  0  0  0  0  0  0  0  0  0  0
   -5.6776   -0.3743   -1.8450 N   0  0  0  0  0  0  0  0  0  0  0  0
   -5.5400   -0.6309   -0.5411 N   0  0  0  0  0  0  0  0  0  0  0  0
   -4.2398   -0.5850   -0.2440 C   0  0  0  0  0  0  0  0  0  0  0  0
   -6.6023   -0.9148    0.4120 C   0  0  0  0  0  0  0  0  0  0  0  0
   -7.9104   -0.8138   -0.3003 C   0  0  0  0  0  0  0  0  0  0  0  0
   -8.9066    0.0912    0.3871 C   0  0  0  0  0  0  0  0  0  0  0  0
   -8.3682    1.3702    0.7265 N   0  0  0  0  0  0  0  0  0  0  0  0
   -7.0125    1.3594    1.1736 C   0  0  0  0  0  0  0  0  0  0  0  0
   -6.5240    0.0054    1.6104 C   0  0  0  0  0  0  0  0  0  0  0  0
    8.3839    3.9007    0.1222 H   0  0  0  0  0  0  0  0  0  0  0  0
    8.8518    2.1286   -0.0302 H   0  0  0  0  0  0  0  0  0  0  0  0
    8.8463    3.0247    1.5905 H   0  0  0  0  0  0  0  0  0  0  0  0
    8.2672    0.2316    0.3225 H   0  0  0  0  0  0  0  0  0  0  0  0
    9.3623   -1.5575    0.8432 H   0  0  0  0  0  0  0  0  0  0  0  0
    8.9142   -1.3233   -0.9122 H   0  0  0  0  0  0  0  0  0  0  0  0
    9.3096   -2.9872   -0.2520 H   0  0  0  0  0  0  0  0  0  0  0  0
   -0.5620   -0.7126    1.8638 H   0  0  0  0  0  0  0  0  0  0  0  0
    0.9376   -0.9828    3.7708 H   0  0  0  0  0  0  0  0  0  0  0  0
   -2.1917    0.2742   -3.6345 H   0  0  0  0  0  0  0  0  0  0  0  0
    2.3537    1.2505   -2.0129 H   0  0  0  0  0  0  0  0  0  0  0  0
    2.5407   -0.5458   -2.2369 H   0  0  0  0  0  0  0  0  0  0  0  0
   -4.2170    0.0716   -3.4311 H   0  0  0  0  0  0  0  0  0  0  0  0
   -3.7717   -0.7440    0.7175 H   0  0  0  0  0  0  0  0  0  0  0  0
   -6.3966   -1.9488    0.8022 H   0  0  0  0  0  0  0  0  0  0  0  0
   -7.7808   -0.5492   -1.3815 H   0  0  0  0  0  0  0  0  0  0  0  0
   -8.3754   -1.8273   -0.3023 H   0  0  0  0  0  0  0  0  0  0  0  0
   -9.3428   -0.4432    1.2333 H   0  0  0  0  0  0  0  0  0  0  0  0
   -9.7285    0.2703   -0.3640 H   0  0  0  0  0  0  0  0  0  0  0  0
   -8.5096    2.1157    0.0211 H   0  0  0  0  0  0  0  0  0  0  0  0
   -6.9374    2.0349    2.0525 H   0  0  0  0  0  0  0  0  0  0  0  0
   -6.3439    1.7827    0.3832 H   0  0  0  0  0  0  0  0  0  0  0  0
   -7.1271   -0.3657    2.4380 H   0  0  0  0  0  0  0  0  0  0  0  0
   -5.4627    0.0971    1.8926 H   0  0  0  0  0  0  0  0  0  0  0  0
  1  2  1  0
  2  3  1  0
  3  4  2  0
  4  5  1  0
  5  6  1  0
  6  7  1  0
  5  8  2  0
  8  9  1  0
  8 10  1  0
 10 11  2  0
 11 12  1  0
 10 13  1  0
 13 14  1  0
 14 15  2  0
 15 16  1  0
 16 17  2  0
 17 18  1  0
 18 19  2  0
 15 20  1  0
 20 21  2  0
 21 22  1  0
 22 23  2  0
 23 24  1  0
 24 25  2  0
 25 26  1  0
 22 27  1  0
 27 28  1  0
 28 29  2  0
 29 30  1  0
 30 31  1  0
 30 32  1  0
 32 33  1  0
 33 34  1  0
 34 35  1  0
 35 36  1  0
 36 37  1  0
 11  3  1  0
 18 13  1  0
 25 20  1  0
 31 27  2  0
 37 32  1  0
  1 38  1  0
  1 39  1  0
  1 40  1  0
  4 41  1  0
  7 42  1  0
  7 43  1  0
  7 44  1  0
 16 45  1  0
 17 46  1  0
 23 47  1  0
 26 48  1  0
 26 49  1  0
 28 50  1  0
 31 51  1  0
 32 52  1  0
 33 53  1  0
 33 54  1  0
 34 55  1  0
 34 56  1  0
 35 57  1  0
 36 58  1  0
 36 59  1  0
 37 60  1  0
 37 61  1  0
M  END
$$$$
[H]C([H])=C([H])C(=O)N([H])c1c([H])c([H])c([H])c(C([H])([H])n2c(=O)c(-c3c([H])c(OC([H])([H])[H])c([H])c(OC([H])([H])[H])c3Cl)c([H])c3c([H])nc(N([H])C([H])([H])C([H])([H])[H])nc32)c1[H]
     RDKit          3D

 63 66  0  0  0  0  0  0  0  0999 V2000
    0.2079    6.6316   -1.0821 C   0  0  0  0  0  0  0  0  0  0  0  0
    1.4587    5.8280   -1.2792 C   0  0  0  0  0  0  0  0  0  0  0  0
    1.5357    4.6786   -0.4377 N   0  0  0  0  0  0  0  0  0  0  0  0
    0.5404    3.6743   -0.4808 C   0  0  0  0  0  0  0  0  0  0  0  0
   -0.4750    3.8443   -1.3399 N   0  0  0  0  0  0  0  0  0  0  0  0
   -1.4350    2.9137   -1.4001 C   0  0  0  0  0  0  0  0  0  0  0  0
   -1.3707    1.8032   -0.5881 C   0  0  0  0  0  0  0  0  0  0  0  0
   -2.3483    0.8263   -0.5940 C   0  0  0  0  0  0  0  0  0  0  0  0
   -2.2964   -0.2667    0.2298 C   0  0  0  0  0  0  0  0  0  0  0  0
   -3.3616   -1.2703    0.1721 C   0  0  0  0  0  0  0  0  0  0  0  0
   -2.9735   -2.5926    0.0667 C   0  0  0  0  0  0  0  0  0  0  0  0
   -3.9586   -3.5520   -0.0041 C   0  0  0  0  0  0  0  0  0  0  0  0
   -3.6095   -4.8770   -0.1093 O   0  0  0  0  0  0  0  0  0  0  0  0
   -2.2492   -5.2425   -0.1445 C   0  0  0  0  0  0  0  0  0  0  0  0
   -5.3058   -3.2155    0.0280 C   0  0  0  0  0  0  0  0  0  0  0  0
   -5.6801   -1.8942    0.1332 C   0  0  0  0  0  0  0  0  0  0  0  0
   -7.0432   -1.5747    0.1638 O   0  0  0  0  0  0  0  0  0  0  0  0
   -8.0479   -2.5429    0.0919 C   0  0  0  0  0  0  0  0  0  0  0  0
   -4.7046   -0.9361    0.2044 C   0  0  0  0  0  0  0  0  0  0  0  0
   -5.1996    0.7234    0.3505 Cl  0  0  0  0  0  0  0  0  0  0  0  0
   -1.2395   -0.4118    1.0981 C   0  0  0  0  0  0  0  0  0  0  0  0
   -1.1951   -1.4366    1.8699 O   0  0  0  0  0  0  0  0  0  0  0  0
   -0.2725    0.5213    1.1258 N   0  0  0  0  0  0  0  0  0  0  0  0
    0.8276    0.4154    2.0437 C   0  0  0  0  0  0  0  0  0  0  0  0
    1.9770   -0.3850    1.6554 C   0  0  0  0  0  0  0  0  0  0  0  0
    2.0879   -1.6743    2.1738 C   0  0  0  0  0  0  0  0  0  0  0  0
    3.1323   -2.5112    1.8686 C   0  0  0  0  0  0  0  0  0  0  0  0
    4.1497   -2.0810    1.0004 C   0  0  0  0  0  0  0  0  0  0  0  0
    4.0791   -0.8197    0.4702 C   0  0  0  0  0  0  0  0  0  0  0  0
    5.0594   -0.2660   -0.3942 N   0  0  0  0  0  0  0  0  0  0  0  0
    6.3750   -0.6876   -0.5337 C   0  0  0  0  0  0  0  0  0  0  0  0
    6.8363   -1.6402    0.1341 O   0  0  0  0  0  0  0  0  0  0  0  0
    7.2780   -0.0000   -1.4992 C   0  0  0  0  0  0  0  0  0  0  0  0
    8.5170   -0.4034   -1.6229 C   0  0  0  0  0  0  0  0  0  0  0  0
    2.9822    0.0071    0.8141 C   0  0  0  0  0  0  0  0  0  0  0  0
   -0.3342    1.6011    0.3072 C   0  0  0  0  0  0  0  0  0  0  0  0
    0.5935    2.5867    0.3064 N   0  0  0  0  0  0  0  0  0  0  0  0
    0.4767    7.7048   -1.0821 H   0  0  0  0  0  0  0  0  0  0  0  0
   -0.2906    6.4356   -0.1110 H   0  0  0  0  0  0  0  0  0  0  0  0
   -0.5069    6.5150   -1.9332 H   0  0  0  0  0  0  0  0  0  0  0  0
    2.3362    6.5025   -1.0601 H   0  0  0  0  0  0  0  0  0  0  0  0
    1.4749    5.5245   -2.3492 H   0  0  0  0  0  0  0  0  0  0  0  0
    2.3241    4.5622    0.2191 H   0  0  0  0  0  0  0  0  0  0  0  0
   -2.2884    2.9996   -2.0832 H   0  0  0  0  0  0  0  0  0  0  0  0
   -3.1587    1.0045   -1.3198 H   0  0  0  0  0  0  0  0  0  0  0  0
   -1.9348   -2.8886    0.0372 H   0  0  0  0  0  0  0  0  0  0  0  0
   -1.7736   -4.9556   -1.1163 H   0  0  0  0  0  0  0  0  0  0  0  0
   -1.6754   -4.8399    0.7147 H   0  0  0  0  0  0  0  0  0  0  0  0
   -2.2436   -6.3656   -0.0311 H   0  0  0  0  0  0  0  0  0  0  0  0
   -6.0501   -4.0058   -0.0310 H   0  0  0  0  0  0  0  0  0  0  0  0
   -9.0050   -2.0659    0.4125 H   0  0  0  0  0  0  0  0  0  0  0  0
   -7.8565   -3.4258    0.7346 H   0  0  0  0  0  0  0  0  0  0  0  0
   -8.1909   -2.9225   -0.9404 H   0  0  0  0  0  0  0  0  0  0  0  0
    0.3732    0.0514    3.0128 H   0  0  0  0  0  0  0  0  0  0  0  0
    1.2069    1.4427    2.3282 H   0  0  0  0  0  0  0  0  0  0  0  0
    1.3293   -2.0129    2.8533 H   0  0  0  0  0  0  0  0  0  0  0  0
    3.2261   -3.5162    2.2673 H   0  0  0  0  0  0  0  0  0  0  0  0
    4.9563   -2.7584    0.7599 H   0  0  0  0  0  0  0  0  0  0  0  0
    4.7543    0.5624   -1.0102 H   0  0  0  0  0  0  0  0  0  0  0  0
    6.9262    0.8204   -2.0937 H   0  0  0  0  0  0  0  0  0  0  0  0
    9.1715    0.0866   -2.3152 H   0  0  0  0  0  0  0  0  0  0  0  0
    8.9076   -1.2230   -1.0438 H   0  0  0  0  0  0  0  0  0  0  0  0
    2.9735    0.9947    0.3819 H   0  0  0  0  0  0  0  0  0  0  0  0
  1  2  1  0
  2  3  1  0
  3  4  1  0
  4  5  2  0
  5  6  1  0
  6  7  2  0
  7  8  1  0
  8  9  2  0
  9 10  1  0
 10 11  2  0
 11 12  1  0
 12 13  1  0
 13 14  1  0
 12 15  2  0
 15 16  1  0
 16 17  1  0
 17 18  1  0
 16 19  2  0
 19 20  1  0
  9 21  1  0
 21 22  2  0
 21 23  1  0
 23 24  1  0
 24 25  1  0
 25 26  2  0
 26 27  1  0
 27 28  2  0
 28 29  1  0
 29 30  1  0
 30 31  1  0
 31 32  2  0
 31 33  1  0
 33 34  2  3
 29 35  2  0
 23 36  1  0
 36 37  2  0
 37  4  1  0
 36  7  1  0
 19 10  1  0
 35 25  1  0
  1 38  1  0
  1 39  1  0
  1 40  1  0
  2 41  1  0
  2 42  1  0
  3 43  1  0
  6 44  1  0
  8 45  1  0
 11 46  1  0
 14 47  1  0
 14 48  1  0
 14 49  1  0
 15 50  1  0
 18 51  1  0
 18 52  1  0
 18 53  1  0
 24 54  1  0
 24 55  1  0
 26 56  1  0
 27 57  1  0
 28 58  1  0
 30 59  1  0
 33 60  1  0
 34 61  1  0
 34 62  1  0
 35 63  1  0
M  END
$$$$
[H]c1nc(N([H])[H])c2c(-c3sc4c(OC([H])([H])[H])c([H])c(C([H])([H])[H])c([H])c4c3[H])c(C([H])([H])OC([H])([H])C#N)c([H])n2n1
     RDKit          3D

 44 47  0  0  0  0  0  0  0  0999 V2000
   -4.3601   -2.3973    2.4541 C   0  0  0  0  0  0  0  0  0  0  0  0
   -3.2254   -1.7450    1.9659 O   0  0  0  0  0  0  0  0  0  0  0  0
   -3.1927   -0.9888    0.8152 C   0  0  0  0  0  0  0  0  0  0  0  0
   -4.2811   -0.7824    0.0012 C   0  0  0  0  0  0  0  0  0  0  0  0
   -4.1032   -0.0035   -1.1181 C   0  0  0  0  0  0  0  0  0  0  0  0
   -5.2780    0.2480   -2.0405 C   0  0  0  0  0  0  0  0  0  0  0  0
   -2.8817    0.5407   -1.4000 C   0  0  0  0  0  0  0  0  0  0  0  0
   -1.7382    0.3536   -0.5908 C   0  0  0  0  0  0  0  0  0  0  0  0
   -0.4742    0.8375   -0.7608 C   0  0  0  0  0  0  0  0  0  0  0  0
    0.4680    0.5219    0.1603 C   0  0  0  0  0  0  0  0  0  0  0  0
   -0.4119   -0.4517    1.2561 S   0  0  0  0  0  0  0  0  0  0  0  0
   -1.9433   -0.4239    0.5140 C   0  0  0  0  0  0  0  0  0  0  0  0
    1.9128    0.7536    0.2304 C   0  0  0  0  0  0  0  0  0  0  0  0
    2.8189   -0.2685    0.6142 C   0  0  0  0  0  0  0  0  0  0  0  0
    2.4325   -1.6446    1.0162 C   0  0  0  0  0  0  0  0  0  0  0  0
    3.4661   -2.5010    1.2428 O   0  0  0  0  0  0  0  0  0  0  0  0
    4.1138   -2.8399    0.0826 C   0  0  0  0  0  0  0  0  0  0  0  0
    3.1702   -3.5215   -0.8583 C   0  0  0  0  0  0  0  0  0  0  0  0
    2.4392   -4.0324   -1.5805 N   0  0  0  0  0  0  0  0  0  0  0  0
    4.0408    0.3322    0.5901 C   0  0  0  0  0  0  0  0  0  0  0  0
    3.9091    1.6270    0.2233 N   0  0  0  0  0  0  0  0  0  0  0  0
    4.8081    2.5715    0.0936 N   0  0  0  0  0  0  0  0  0  0  0  0
    4.4750    3.8203   -0.2526 C   0  0  0  0  0  0  0  0  0  0  0  0
    3.1933    4.1386   -0.4769 N   0  0  0  0  0  0  0  0  0  0  0  0
    2.2221    3.1972   -0.3569 C   0  0  0  0  0  0  0  0  0  0  0  0
    0.8754    3.6008   -0.5274 N   0  0  0  0  0  0  0  0  0  0  0  0
    2.5953    1.9138   -0.0029 C   0  0  0  0  0  0  0  0  0  0  0  0
   -4.3483   -3.4521    2.0632 H   0  0  0  0  0  0  0  0  0  0  0  0
   -4.3478   -2.5098    3.5661 H   0  0  0  0  0  0  0  0  0  0  0  0
   -5.3161   -1.8999    2.1761 H   0  0  0  0  0  0  0  0  0  0  0  0
   -5.2312   -1.2269    0.2530 H   0  0  0  0  0  0  0  0  0  0  0  0
   -6.1457    0.6068   -1.4678 H   0  0  0  0  0  0  0  0  0  0  0  0
   -5.5557   -0.6555   -2.5958 H   0  0  0  0  0  0  0  0  0  0  0  0
   -5.0023    1.0266   -2.7632 H   0  0  0  0  0  0  0  0  0  0  0  0
   -2.8354    1.1447   -2.3088 H   0  0  0  0  0  0  0  0  0  0  0  0
   -0.2570    1.4350   -1.6911 H   0  0  0  0  0  0  0  0  0  0  0  0
    1.7410   -2.0640    0.2492 H   0  0  0  0  0  0  0  0  0  0  0  0
    1.7843   -1.5943    1.9630 H   0  0  0  0  0  0  0  0  0  0  0  0
    4.9182   -3.6097    0.3095 H   0  0  0  0  0  0  0  0  0  0  0  0
    4.5649   -1.9826   -0.4143 H   0  0  0  0  0  0  0  0  0  0  0  0
    4.9994   -0.1240    0.8377 H   0  0  0  0  0  0  0  0  0  0  0  0
    5.2860    4.5343   -0.3370 H   0  0  0  0  0  0  0  0  0  0  0  0
    0.4255    3.7857   -1.4510 H   0  0  0  0  0  0  0  0  0  0  0  0
    0.2697    3.7293    0.3166 H   0  0  0  0  0  0  0  0  0  0  0  0
  1  2  1  0
  2  3  1  0
  3  4  2  0
  4  5  1  0
  5  6  1  0
  5  7  2  0
  7  8  1  0
  8  9  1  0
  9 10  2  0
 10 11  1  0
 11 12  1  0
 10 13  1  0
 13 14  1  0
 14 15  1  0
 15 16  1  0
 16 17  1  0
 17 18  1  0
 18 19  3  0
 14 20  2  0
 20 21  1  0
 21 22  1  0
 22 23  2  0
 23 24  1  0
 24 25  2  0
 25 26  1  0
 25 27  1  0
 12  3  1  0
 27 13  2  0
 12  8  2  0
 27 21  1  0
  1 28  1  0
  1 29  1  0
  1 30  1  0
  4 31  1  0
  6 32  1  0
  6 33  1  0
  6 34  1  0
  7 35  1  0
  9 36  1  0
 15 37  1  0
 15 38  1  0
 17 39  1  0
 17 40  1  0
 20 41  1  0
 23 42  1  0
 26 43  1  0
 26 44  1  0
M  END
$$$$
[H]c1nc(N(C(=O)C([H])([H])C([H])([H])C([H])([H])N(C([H])([H])[H])C([H])([H])[H])C([H])([H])[H])c([H])c([H])c1N=C(c1c([H])c([H])c([H])c([H])c1[H])C1([H])C(=O)N([H])c2c([H])c(C(=O)OC([H])([H])[H])c([H])c([H])c21
     RDKit          3D

 69 72  0  0  0  0  0  0  0  0999 V2000
    8.0917   -3.1820    3.7011 C   0  0  0  0  0  0  0  0  0  0  0  0
    7.3440   -2.3638    2.8051 O   0  0  0  0  0  0  0  0  0  0  0  0
    6.5004   -2.8827    1.8394 C   0  0  0  0  0  0  0  0  0  0  0  0
    6.3937   -4.1296    1.7528 O   0  0  0  0  0  0  0  0  0  0  0  0
    5.7378   -2.0327    0.9260 C   0  0  0  0  0  0  0  0  0  0  0  0
    5.8233   -0.6706    0.9813 C   0  0  0  0  0  0  0  0  0  0  0  0
    5.0988    0.1594    0.1185 C   0  0  0  0  0  0  0  0  0  0  0  0
    4.2456   -0.3656   -0.8494 C   0  0  0  0  0  0  0  0  0  0  0  0
    3.4000    0.2374   -1.9077 C   0  0  0  0  0  0  0  0  0  0  0  0
    2.3725    1.1934   -1.3547 C   0  0  0  0  0  0  0  0  0  0  0  0
    1.2560    0.7192   -1.1311 N   0  0  0  0  0  0  0  0  0  0  0  0
    0.0070    0.9455   -0.6938 C   0  0  0  0  0  0  0  0  0  0  0  0
   -0.9357    1.6140   -1.4846 C   0  0  0  0  0  0  0  0  0  0  0  0
   -2.2117    1.8363   -1.0736 C   0  0  0  0  0  0  0  0  0  0  0  0
   -2.6220    1.3884    0.1848 C   0  0  0  0  0  0  0  0  0  0  0  0
   -1.7279    0.7465    0.9535 N   0  0  0  0  0  0  0  0  0  0  0  0
   -0.4642    0.5236    0.5531 C   0  0  0  0  0  0  0  0  0  0  0  0
   -3.9741    1.6302    0.5788 N   0  0  0  0  0  0  0  0  0  0  0  0
   -4.2911    2.6126    1.5798 C   0  0  0  0  0  0  0  0  0  0  0  0
   -4.9863    0.8710   -0.0414 C   0  0  0  0  0  0  0  0  0  0  0  0
   -6.1783    1.1553    0.2937 O   0  0  0  0  0  0  0  0  0  0  0  0
   -4.7630   -0.1913   -1.0139 C   0  0  0  0  0  0  0  0  0  0  0  0
   -5.9396   -0.8222   -1.6391 C   0  0  0  0  0  0  0  0  0  0  0  0
   -6.9116   -1.5081   -0.7826 C   0  0  0  0  0  0  0  0  0  0  0  0
   -6.5659   -2.5914    0.0184 N   0  0  0  0  0  0  0  0  0  0  0  0
   -5.7418   -2.4744    1.1409 C   0  0  0  0  0  0  0  0  0  0  0  0
   -7.5582   -3.6464    0.0874 C   0  0  0  0  0  0  0  0  0  0  0  0
    2.7828    2.5454   -1.0598 C   0  0  0  0  0  0  0  0  0  0  0  0
    2.0557    3.4440   -0.3023 C   0  0  0  0  0  0  0  0  0  0  0  0
    2.4415    4.7472   -0.1164 C   0  0  0  0  0  0  0  0  0  0  0  0
    3.5910    5.2440   -0.6794 C   0  0  0  0  0  0  0  0  0  0  0  0
    4.3408    4.3969   -1.4334 C   0  0  0  0  0  0  0  0  0  0  0  0
    3.9483    3.0992   -1.6138 C   0  0  0  0  0  0  0  0  0  0  0  0
    2.6869   -0.9433   -2.4862 C   0  0  0  0  0  0  0  0  0  0  0  0
    1.7566   -0.8770   -3.3677 O   0  0  0  0  0  0  0  0  0  0  0  0
    3.2156   -2.0928   -1.8968 N   0  0  0  0  0  0  0  0  0  0  0  0
    4.1659   -1.7276   -0.8945 C   0  0  0  0  0  0  0  0  0  0  0  0
    4.8994   -2.5567   -0.0231 C   0  0  0  0  0  0  0  0  0  0  0  0
    8.9701   -2.5859    4.0233 H   0  0  0  0  0  0  0  0  0  0  0  0
    7.5068   -3.4176    4.6134 H   0  0  0  0  0  0  0  0  0  0  0  0
    8.4926   -4.0822    3.2096 H   0  0  0  0  0  0  0  0  0  0  0  0
    6.4799   -0.2151    1.7262 H   0  0  0  0  0  0  0  0  0  0  0  0
    5.1999    1.2070    0.2069 H   0  0  0  0  0  0  0  0  0  0  0  0
    3.9456    0.7004   -2.7271 H   0  0  0  0  0  0  0  0  0  0  0  0
   -0.6590    1.9823   -2.4745 H   0  0  0  0  0  0  0  0  0  0  0  0
   -2.9543    2.3569   -1.6833 H   0  0  0  0  0  0  0  0  0  0  0  0
    0.2589    0.0010    1.1860 H   0  0  0  0  0  0  0  0  0  0  0  0
   -3.5083    2.7575    2.3445 H   0  0  0  0  0  0  0  0  0  0  0  0
   -4.5357    3.5643    1.0433 H   0  0  0  0  0  0  0  0  0  0  0  0
   -5.2218    2.3449    2.1450 H   0  0  0  0  0  0  0  0  0  0  0  0
   -4.1205   -0.9646   -0.4895 H   0  0  0  0  0  0  0  0  0  0  0  0
   -4.0830    0.1391   -1.8562 H   0  0  0  0  0  0  0  0  0  0  0  0
   -5.6531   -1.4332   -2.5592 H   0  0  0  0  0  0  0  0  0  0  0  0
   -6.5129    0.0320   -2.1425 H   0  0  0  0  0  0  0  0  0  0  0  0
   -7.4848   -0.7644   -0.1805 H   0  0  0  0  0  0  0  0  0  0  0  0
   -7.7301   -1.8904   -1.5036 H   0  0  0  0  0  0  0  0  0  0  0  0
   -6.0836   -3.2739    1.8816 H   0  0  0  0  0  0  0  0  0  0  0  0
   -5.8593   -1.5385    1.7323 H   0  0  0  0  0  0  0  0  0  0  0  0
   -4.6649   -2.7121    1.0141 H   0  0  0  0  0  0  0  0  0  0  0  0
   -8.2145   -3.6256   -0.8100 H   0  0  0  0  0  0  0  0  0  0  0  0
   -8.2345   -3.3978    0.9424 H   0  0  0  0  0  0  0  0  0  0  0  0
   -7.1438   -4.6387    0.2929 H   0  0  0  0  0  0  0  0  0  0  0  0
    1.1512    3.1423    0.1858 H   0  0  0  0  0  0  0  0  0  0  0  0
    1.8479    5.4360    0.4869 H   0  0  0  0  0  0  0  0  0  0  0  0
    3.9139    6.2776   -0.5433 H   0  0  0  0  0  0  0  0  0  0  0  0
    5.2476    4.8047   -1.8720 H   0  0  0  0  0  0  0  0  0  0  0  0
    4.5783    2.4719   -2.2173 H   0  0  0  0  0  0  0  0  0  0  0  0
    2.9768   -3.1091   -2.1275 H   0  0  0  0  0  0  0  0  0  0  0  0
    4.8105   -3.6205   -0.0939 H   0  0  0  0  0  0  0  0  0  0  0  0
  1  2  1  0
  2  3  1  0
  3  4  2  0
  3  5  1  0
  5  6  2  0
  6  7  1  0
  7  8  2  0
  8  9  1  0
  9 10  1  0
 10 11  2  3
 11 12  1  0
 12 13  2  0
 13 14  1  0
 14 15  2  0
 15 16  1  0
 16 17  2  0
 15 18  1  0
 18 19  1  0
 18 20  1  0
 20 21  2  0
 20 22  1  0
 22 23  1  0
 23 24  1  0
 24 25  1  0
 25 26  1  0
 25 27  1  0
 10 28  1  0
 28 29  2  0
 29 30  1  0
 30 31  2  0
 31 32  1  0
 32 33  2  0
  9 34  1  0
 34 35  2  0
 34 36  1  0
 36 37  1  0
 37 38  2  0
 38  5  1  0
 37  8  1  0
 17 12  1  0
 33 28  1  0
  1 39  1  0
  1 40  1  0
  1 41  1  0
  6 42  1  0
  7 43  1  0
  9 44  1  0
 13 45  1  0
 14 46  1  0
 17 47  1  0
 19 48  1  0
 19 49  1  0
 19 50  1  0
 22 51  1  0
 22 52  1  0
 23 53  1  0
 23 54  1  0
 24 55  1  0
 24 56  1  0
 26 57  1  0
 26 58  1  0
 26 59  1  0
 27 60  1  0
 27 61  1  0
 27 62  1  0
 29 63  1  0
 30 64  1  0
 31 65  1  0
 32 66  1  0
 33 67  1  0
 36 68  1  0
 38 69  1  0
M  END
$$$$
[H]C([H])=C([H])C(=O)N([H])[C@]1([H])C([H])([H])N(C([H])([H])C([H])([H])C([H])([H])n2c(=O)c(-c3c([H])c(OC([H])([H])[H])c([H])c(OC([H])([H])[H])c3Cl)c([H])c3c([H])nc(N([H])C([H])([H])[H])nc32)C([H])([H])C([H])([H])C1([H])[H]
     RDKit          3D

 71 74  0  0  0  0  0  0  0  0999 V2000
   -0.8466    5.2228   -2.9136 C   0  0  0  0  0  0  0  0  0  0  0  0
   -0.9580    3.9151   -2.3225 N   0  0  0  0  0  0  0  0  0  0  0  0
    0.1941    3.1694   -1.9582 C   0  0  0  0  0  0  0  0  0  0  0  0
    1.4118    3.7188   -2.1790 N   0  0  0  0  0  0  0  0  0  0  0  0
    2.5153    3.0349   -1.8475 C   0  0  0  0  0  0  0  0  0  0  0  0
    2.4790    1.7800   -1.2836 C   0  0  0  0  0  0  0  0  0  0  0  0
    3.5895    1.0576   -0.9372 C   0  0  0  0  0  0  0  0  0  0  0  0
    3.5037   -0.2098   -0.3713 C   0  0  0  0  0  0  0  0  0  0  0  0
    4.7228   -0.9392   -0.0272 C   0  0  0  0  0  0  0  0  0  0  0  0
    5.5780   -0.5571    0.9843 C   0  0  0  0  0  0  0  0  0  0  0  0
    6.7298   -1.2142    1.3266 C   0  0  0  0  0  0  0  0  0  0  0  0
    7.5849   -0.8220    2.3453 O   0  0  0  0  0  0  0  0  0  0  0  0
    7.2461    0.3372    3.0818 C   0  0  0  0  0  0  0  0  0  0  0  0
    7.0576   -2.3525    0.5965 C   0  0  0  0  0  0  0  0  0  0  0  0
    6.2421   -2.7837   -0.4259 C   0  0  0  0  0  0  0  0  0  0  0  0
    6.5890   -3.9272   -1.1454 O   0  0  0  0  0  0  0  0  0  0  0  0
    7.7701   -4.6349   -0.8238 C   0  0  0  0  0  0  0  0  0  0  0  0
    5.0823   -2.0893   -0.7426 C   0  0  0  0  0  0  0  0  0  0  0  0
    4.0908   -2.6724   -2.0377 Cl  0  0  0  0  0  0  0  0  0  0  0  0
    2.2346   -0.7116   -0.1724 C   0  0  0  0  0  0  0  0  0  0  0  0
    2.0805   -1.8358    0.3287 O   0  0  0  0  0  0  0  0  0  0  0  0
    1.1185   -0.0140   -0.5081 N   0  0  0  0  0  0  0  0  0  0  0  0
   -0.2144   -0.5399   -0.3092 C   0  0  0  0  0  0  0  0  0  0  0  0
   -0.7018   -0.1418    1.0504 C   0  0  0  0  0  0  0  0  0  0  0  0
   -2.0995   -0.6580    1.3280 C   0  0  0  0  0  0  0  0  0  0  0  0
   -3.0542   -0.1527    0.3665 N   0  0  0  0  0  0  0  0  0  0  0  0
   -3.2144    1.2465    0.5642 C   0  0  0  0  0  0  0  0  0  0  0  0
   -4.6747    1.6455    0.7601 C   0  0  0  0  0  0  0  0  0  0  0  0
   -5.4340    1.1033   -0.4104 C   0  0  0  0  0  0  0  0  0  0  0  0
   -5.3876   -0.4030   -0.3542 C   0  0  1  0  0  0  0  0  0  0  0  0
   -4.2677   -0.9152    0.5085 C   0  0  0  0  0  0  0  0  0  0  0  0
   -6.6356   -0.8412    0.2595 N   0  0  0  0  0  0  0  0  0  0  0  0
   -7.5160   -1.6830   -0.4685 C   0  0  0  0  0  0  0  0  0  0  0  0
   -7.2279   -2.0626   -1.6509 O   0  0  0  0  0  0  0  0  0  0  0  0
   -8.7564   -2.1119    0.1464 C   0  0  0  0  0  0  0  0  0  0  0  0
   -9.1706   -1.7924    1.3486 C   0  0  0  0  0  0  0  0  0  0  0  0
    1.2202    1.2244   -1.0608 C   0  0  0  0  0  0  0  0  0  0  0  0
    0.1563    1.9611   -1.4153 N   0  0  0  0  0  0  0  0  0  0  0  0
   -0.8685    6.0452   -2.1681 H   0  0  0  0  0  0  0  0  0  0  0  0
    0.1531    5.2881   -3.4374 H   0  0  0  0  0  0  0  0  0  0  0  0
   -1.5969    5.3986   -3.7262 H   0  0  0  0  0  0  0  0  0  0  0  0
   -1.8978    3.5127   -2.1606 H   0  0  0  0  0  0  0  0  0  0  0  0
    3.4744    3.4896   -2.0311 H   0  0  0  0  0  0  0  0  0  0  0  0
    4.5728    1.4848   -1.1084 H   0  0  0  0  0  0  0  0  0  0  0  0
    5.3085    0.3234    1.5381 H   0  0  0  0  0  0  0  0  0  0  0  0
    6.9932    1.1319    2.3300 H   0  0  0  0  0  0  0  0  0  0  0  0
    8.0866    0.6722    3.7323 H   0  0  0  0  0  0  0  0  0  0  0  0
    6.3572    0.1588    3.7223 H   0  0  0  0  0  0  0  0  0  0  0  0
    7.9742   -2.8708    0.8733 H   0  0  0  0  0  0  0  0  0  0  0  0
    8.6719   -4.0480   -1.1005 H   0  0  0  0  0  0  0  0  0  0  0  0
    7.7591   -5.6466   -1.3133 H   0  0  0  0  0  0  0  0  0  0  0  0
    7.8417   -4.8303    0.2766 H   0  0  0  0  0  0  0  0  0  0  0  0
   -0.9184   -0.1017   -1.0560 H   0  0  0  0  0  0  0  0  0  0  0  0
   -0.2295   -1.6576   -0.3719 H   0  0  0  0  0  0  0  0  0  0  0  0
   -0.0174   -0.5165    1.8374 H   0  0  0  0  0  0  0  0  0  0  0  0
   -0.6899    0.9654    1.1181 H   0  0  0  0  0  0  0  0  0  0  0  0
   -2.3739   -0.3532    2.3583 H   0  0  0  0  0  0  0  0  0  0  0  0
   -2.0750   -1.7816    1.3355 H   0  0  0  0  0  0  0  0  0  0  0  0
   -2.6506    1.6412    1.4543 H   0  0  0  0  0  0  0  0  0  0  0  0
   -2.8374    1.8167   -0.3168 H   0  0  0  0  0  0  0  0  0  0  0  0
   -5.0715    1.2149    1.7137 H   0  0  0  0  0  0  0  0  0  0  0  0
   -4.6835    2.7571    0.7806 H   0  0  0  0  0  0  0  0  0  0  0  0
   -4.8704    1.4059   -1.3313 H   0  0  0  0  0  0  0  0  0  0  0  0
   -6.4713    1.4759   -0.4982 H   0  0  0  0  0  0  0  0  0  0  0  0
   -5.3605   -0.8119   -1.3805 H   0  0  0  0  0  0  0  0  0  0  0  0
   -4.0487   -1.9561    0.1943 H   0  0  0  0  0  0  0  0  0  0  0  0
   -4.5755   -0.9563    1.5722 H   0  0  0  0  0  0  0  0  0  0  0  0
   -6.8737   -0.5291    1.2391 H   0  0  0  0  0  0  0  0  0  0  0  0
   -9.4185   -2.7655   -0.4383 H   0  0  0  0  0  0  0  0  0  0  0  0
   -8.5934   -1.1625    1.9899 H   0  0  0  0  0  0  0  0  0  0  0  0
  -10.1074   -2.1458    1.7484 H   0  0  0  0  0  0  0  0  0  0  0  0
  1  2  1  0
  2  3  1  0
  3  4  2  0
  4  5  1  0
  5  6  2  0
  6  7  1  0
  7  8  2  0
  8  9  1  0
  9 10  2  0
 10 11  1  0
 11 12  1  0
 12 13  1  0
 11 14  2  0
 14 15  1  0
 15 16  1  0
 16 17  1  0
 15 18  2  0
 18 19  1  0
  8 20  1  0
 20 21  2  0
 20 22  1  0
 22 23  1  0
 23 24  1  0
 24 25  1  0
 25 26  1  0
 26 27  1  0
 27 28  1  0
 28 29  1  0
 29 30  1  0
 30 31  1  0
 30 32  1  0
 32 33  1  0
 33 34  2  0
 33 35  1  0
 35 36  2  3
 22 37  1  0
 37 38  2  0
 38  3  1  0
 37  6  1  0
 18  9  1  0
 31 26  1  0
  1 39  1  0
  1 40  1  0
  1 41  1  0
  2 42  1  0
  5 43  1  0
  7 44  1  0
 10 45  1  0
 13 46  1  0
 13 47  1  0
 13 48  1  0
 14 49  1  0
 17 50  1  0
 17 51  1  0
 17 52  1  0
 23 53  1  0
 23 54  1  0
 24 55  1  0
 24 56  1  0
 25 57  1  0
 25 58  1  0
 27 59  1  0
 27 60  1  0
 28 61  1  0
 28 62  1  0
 29 63  1  0
 29 64  1  0
 30 65  1  6
 31 66  1  0
 31 67  1  0
 32 68  1  0
 35 69  1  0
 36 70  1  0
 36 71  1  0
M  END
$$$$
[H]c1nc(C(=O)N(C([H])([H])[H])C([H])([H])[H])c([H])c([H])c1-c1nc([H])c2c(c1[H])N(C([H])([H])C([H])([H])[H])C(=O)N(c1c(F)c(OC([H])([H])[H])c([H])c(OC([H])([H])[H])c1F)C2([H])[H]
     RDKit          3D

 61 64  0  0  0  0  0  0  0  0999 V2000
   -0.4308   -3.3982    0.3600 C   0  0  0  0  0  0  0  0  0  0  0  0
   -0.5918   -2.3679    1.4551 C   0  0  0  0  0  0  0  0  0  0  0  0
   -0.9856   -1.1280    0.8309 N   0  0  0  0  0  0  0  0  0  0  0  0
   -2.3402   -0.8320    0.6536 C   0  0  0  0  0  0  0  0  0  0  0  0
   -3.1867   -1.6752    1.0718 O   0  0  0  0  0  0  0  0  0  0  0  0
   -2.8170    0.3603    0.0320 N   0  0  0  0  0  0  0  0  0  0  0  0
   -1.9030    1.3744   -0.3721 C   0  0  0  0  0  0  0  0  0  0  0  0
   -0.4804    0.9877   -0.2361 C   0  0  0  0  0  0  0  0  0  0  0  0
    0.5189    1.8378   -0.7034 C   0  0  0  0  0  0  0  0  0  0  0  0
    1.8268    1.5511   -0.5812 N   0  0  0  0  0  0  0  0  0  0  0  0
    2.2892    0.4210    0.0014 C   0  0  0  0  0  0  0  0  0  0  0  0
    1.3169   -0.4351    0.4702 C   0  0  0  0  0  0  0  0  0  0  0  0
   -0.0444   -0.1717    0.3604 C   0  0  0  0  0  0  0  0  0  0  0  0
    3.7071    0.1275    0.1197 C   0  0  0  0  0  0  0  0  0  0  0  0
    4.2041   -0.9684    0.7697 C   0  0  0  0  0  0  0  0  0  0  0  0
    5.5641   -1.1577    0.8182 C   0  0  0  0  0  0  0  0  0  0  0  0
    6.4611   -0.2619    0.2201 C   0  0  0  0  0  0  0  0  0  0  0  0
    5.9171    0.7950   -0.4045 N   0  0  0  0  0  0  0  0  0  0  0  0
    4.6096    0.9879   -0.4568 C   0  0  0  0  0  0  0  0  0  0  0  0
    7.8934   -0.5039    0.2917 C   0  0  0  0  0  0  0  0  0  0  0  0
    8.2681   -1.5457    0.9346 O   0  0  0  0  0  0  0  0  0  0  0  0
    8.8182    0.3532   -0.3076 N   0  0  0  0  0  0  0  0  0  0  0  0
   10.2456    0.0211   -0.1551 C   0  0  0  0  0  0  0  0  0  0  0  0
    8.4711    1.5056   -1.0677 C   0  0  0  0  0  0  0  0  0  0  0  0
   -4.2254    0.4387   -0.1549 C   0  0  0  0  0  0  0  0  0  0  0  0
   -4.8718   -0.3516   -1.1060 C   0  0  0  0  0  0  0  0  0  0  0  0
   -4.0830   -1.1713   -1.8390 F   0  0  0  0  0  0  0  0  0  0  0  0
   -6.2383   -0.2914   -1.2802 C   0  0  0  0  0  0  0  0  0  0  0  0
   -6.8739   -1.0760   -2.2229 O   0  0  0  0  0  0  0  0  0  0  0  0
   -8.2594   -1.0553   -2.4439 C   0  0  0  0  0  0  0  0  0  0  0  0
   -6.9908    0.5643   -0.5046 C   0  0  0  0  0  0  0  0  0  0  0  0
   -6.3759    1.3628    0.4495 C   0  0  0  0  0  0  0  0  0  0  0  0
   -7.0869    2.2386    1.2558 O   0  0  0  0  0  0  0  0  0  0  0  0
   -8.4844    2.3953    1.1783 C   0  0  0  0  0  0  0  0  0  0  0  0
   -4.9856    1.2877    0.6124 C   0  0  0  0  0  0  0  0  0  0  0  0
   -4.3623    2.0503    1.5327 F   0  0  0  0  0  0  0  0  0  0  0  0
    0.4033   -3.1111   -0.3321 H   0  0  0  0  0  0  0  0  0  0  0  0
   -1.3537   -3.3810   -0.2505 H   0  0  0  0  0  0  0  0  0  0  0  0
   -0.3022   -4.4046    0.7717 H   0  0  0  0  0  0  0  0  0  0  0  0
   -1.4456   -2.7177    2.0838 H   0  0  0  0  0  0  0  0  0  0  0  0
    0.2710   -2.2982    2.1226 H   0  0  0  0  0  0  0  0  0  0  0  0
   -2.1535    1.6983   -1.4200 H   0  0  0  0  0  0  0  0  0  0  0  0
   -2.0137    2.3175    0.2415 H   0  0  0  0  0  0  0  0  0  0  0  0
    0.2509    2.7638   -1.1816 H   0  0  0  0  0  0  0  0  0  0  0  0
    1.6341   -1.3606    0.9467 H   0  0  0  0  0  0  0  0  0  0  0  0
    3.5434   -1.6900    1.2483 H   0  0  0  0  0  0  0  0  0  0  0  0
    5.9923   -2.0175    1.3289 H   0  0  0  0  0  0  0  0  0  0  0  0
    4.2682    1.8917   -0.9976 H   0  0  0  0  0  0  0  0  0  0  0  0
   10.5135    0.4387    0.8483 H   0  0  0  0  0  0  0  0  0  0  0  0
   10.8394    0.4779   -0.9718 H   0  0  0  0  0  0  0  0  0  0  0  0
   10.3981   -1.0867   -0.0753 H   0  0  0  0  0  0  0  0  0  0  0  0
    7.8405    1.2928   -1.9576 H   0  0  0  0  0  0  0  0  0  0  0  0
    9.4075    1.9513   -1.5315 H   0  0  0  0  0  0  0  0  0  0  0  0
    8.0235    2.3352   -0.5099 H   0  0  0  0  0  0  0  0  0  0  0  0
   -8.5987   -0.1589   -3.0180 H   0  0  0  0  0  0  0  0  0  0  0  0
   -8.8608   -1.1577   -1.5156 H   0  0  0  0  0  0  0  0  0  0  0  0
   -8.5611   -1.9415   -3.0684 H   0  0  0  0  0  0  0  0  0  0  0  0
   -8.0665    0.6331   -0.6185 H   0  0  0  0  0  0  0  0  0  0  0  0
   -8.7586    2.9583    0.2765 H   0  0  0  0  0  0  0  0  0  0  0  0
   -8.8171    2.9148    2.0995 H   0  0  0  0  0  0  0  0  0  0  0  0
   -8.9477    1.3831    1.2111 H   0  0  0  0  0  0  0  0  0  0  0  0
  1  2  1  0
  2  3  1  0
  3  4  1  0
  4  5  2  0
  4  6  1  0
  6  7  1  0
  7  8  1  0
  8  9  2  0
  9 10  1  0
 10 11  2  0
 11 12  1  0
 12 13  2  0
 11 14  1  0
 14 15  2  0
 15 16  1  0
 16 17  2  0
 17 18  1  0
 18 19  2  0
 17 20  1  0
 20 21  2  0
 20 22  1  0
 22 23  1  0
 22 24  1  0
  6 25  1  0
 25 26  2  0
 26 27  1  0
 26 28  1  0
 28 29  1  0
 29 30  1  0
 28 31  2  0
 31 32  1  0
 32 33  1  0
 33 34  1  0
 32 35  2  0
 35 36  1  0
 13  3  1  0
 19 14  1  0
 35 25  1  0
 13  8  1  0
  1 37  1  0
  1 38  1  0
  1 39  1  0
  2 40  1  0
  2 41  1  0
  7 42  1  0
  7 43  1  0
  9 44  1  0
 12 45  1  0
 15 46  1  0
 16 47  1  0
 19 48  1  0
 23 49  1  0
 23 50  1  0
 23 51  1  0
 24 52  1  0
 24 53  1  0
 24 54  1  0
 30 55  1  0
 30 56  1  0
 30 57  1  0
 31 58  1  0
 34 59  1  0
 34 60  1  0
 34 61  1  0
M  END
$$$$
[H]c1nc(-c2c(C([H])([H])[H])nn(C([H])([H])[H])c2[H])c([H])c2c1C([H])([H])N(c1c(F)c(OC([H])([H])[H])c([H])c(OC([H])([H])[H])c1F)C(=O)N2c1c(C([H])([H])[H])nn(C([H])([H])[H])c1[H]
     RDKit          3D

 62 66  0  0  0  0  0  0  0  0999 V2000
   -7.2299    0.2407   -1.7367 C   0  0  0  0  0  0  0  0  0  0  0  0
   -5.8331    0.2652   -1.6406 O   0  0  0  0  0  0  0  0  0  0  0  0
   -5.1743   -0.3034   -0.5549 C   0  0  0  0  0  0  0  0  0  0  0  0
   -5.8608   -0.9197    0.4775 C   0  0  0  0  0  0  0  0  0  0  0  0
   -5.2230   -1.4866    1.5560 C   0  0  0  0  0  0  0  0  0  0  0  0
   -5.9089   -2.1001    2.5846 O   0  0  0  0  0  0  0  0  0  0  0  0
   -7.3148   -2.1518    2.5344 C   0  0  0  0  0  0  0  0  0  0  0  0
   -3.8245   -1.4152    1.5698 C   0  0  0  0  0  0  0  0  0  0  0  0
   -3.2053   -1.9738    2.6314 F   0  0  0  0  0  0  0  0  0  0  0  0
   -3.1343   -0.8071    0.5521 C   0  0  0  0  0  0  0  0  0  0  0  0
   -1.6975   -0.7325    0.5614 N   0  0  0  0  0  0  0  0  0  0  0  0
   -0.8905   -1.8960    0.3728 C   0  0  0  0  0  0  0  0  0  0  0  0
    0.4846   -1.5812   -0.0178 C   0  0  0  0  0  0  0  0  0  0  0  0
    1.2898   -2.6204   -0.4960 C   0  0  0  0  0  0  0  0  0  0  0  0
    2.5728   -2.4192   -0.8162 N   0  0  0  0  0  0  0  0  0  0  0  0
    3.1693   -1.2183   -0.7011 C   0  0  0  0  0  0  0  0  0  0  0  0
    2.4101   -0.1794   -0.2368 C   0  0  0  0  0  0  0  0  0  0  0  0
    1.0567   -0.3539    0.1075 C   0  0  0  0  0  0  0  0  0  0  0  0
    0.2957    0.7761    0.4890 N   0  0  0  0  0  0  0  0  0  0  0  0
   -1.1046    0.5405    0.7168 C   0  0  0  0  0  0  0  0  0  0  0  0
   -1.8139    1.5353    1.0709 O   0  0  0  0  0  0  0  0  0  0  0  0
    0.8339    2.0833    0.6213 C   0  0  0  0  0  0  0  0  0  0  0  0
    0.8187    3.0751   -0.3692 C   0  0  0  0  0  0  0  0  0  0  0  0
    1.4009    4.1715    0.1373 N   0  0  0  0  0  0  0  0  0  0  0  0
    1.5818    5.4423   -0.5746 C   0  0  0  0  0  0  0  0  0  0  0  0
    1.7712    3.9109    1.3746 N   0  0  0  0  0  0  0  0  0  0  0  0
    1.4452    2.6556    1.7077 C   0  0  0  0  0  0  0  0  0  0  0  0
    1.7050    2.0076    3.0448 C   0  0  0  0  0  0  0  0  0  0  0  0
    4.5753   -1.0892   -1.0884 C   0  0  0  0  0  0  0  0  0  0  0  0
    5.4135   -0.0072   -0.9951 C   0  0  0  0  0  0  0  0  0  0  0  0
    6.6334   -0.2958   -1.4704 N   0  0  0  0  0  0  0  0  0  0  0  0
    7.7847    0.6170   -1.5260 C   0  0  0  0  0  0  0  0  0  0  0  0
    6.5828   -1.5525   -1.8668 N   0  0  0  0  0  0  0  0  0  0  0  0
    5.3621   -2.0819   -1.6595 C   0  0  0  0  0  0  0  0  0  0  0  0
    4.9391   -3.4661   -1.9914 C   0  0  0  0  0  0  0  0  0  0  0  0
   -3.7886   -0.2421   -0.5240 C   0  0  0  0  0  0  0  0  0  0  0  0
   -3.1124    0.3627   -1.5370 F   0  0  0  0  0  0  0  0  0  0  0  0
   -7.7266    0.6133   -0.8010 H   0  0  0  0  0  0  0  0  0  0  0  0
   -7.5654    0.8405   -2.6109 H   0  0  0  0  0  0  0  0  0  0  0  0
   -7.5427   -0.7942   -1.9093 H   0  0  0  0  0  0  0  0  0  0  0  0
   -6.9389   -0.9351    0.3945 H   0  0  0  0  0  0  0  0  0  0  0  0
   -7.6891   -1.1463    2.2608 H   0  0  0  0  0  0  0  0  0  0  0  0
   -7.6213   -2.9301    1.8069 H   0  0  0  0  0  0  0  0  0  0  0  0
   -7.6886   -2.4889    3.5245 H   0  0  0  0  0  0  0  0  0  0  0  0
   -1.3322   -2.5827   -0.4129 H   0  0  0  0  0  0  0  0  0  0  0  0
   -0.8376   -2.5357    1.2883 H   0  0  0  0  0  0  0  0  0  0  0  0
    0.8522   -3.6056   -0.6043 H   0  0  0  0  0  0  0  0  0  0  0  0
    2.8489    0.7815   -0.1346 H   0  0  0  0  0  0  0  0  0  0  0  0
    0.3879    2.9246   -1.3724 H   0  0  0  0  0  0  0  0  0  0  0  0
    2.0580    6.1951    0.0853 H   0  0  0  0  0  0  0  0  0  0  0  0
    2.0854    5.3118   -1.5478 H   0  0  0  0  0  0  0  0  0  0  0  0
    0.5541    5.8269   -0.7981 H   0  0  0  0  0  0  0  0  0  0  0  0
    0.8614    1.3571    3.2740 H   0  0  0  0  0  0  0  0  0  0  0  0
    1.7247    2.8495    3.7880 H   0  0  0  0  0  0  0  0  0  0  0  0
    2.6893    1.5390    3.1041 H   0  0  0  0  0  0  0  0  0  0  0  0
    5.1540    0.9622   -0.5978 H   0  0  0  0  0  0  0  0  0  0  0  0
    7.4271    1.6316   -1.2558 H   0  0  0  0  0  0  0  0  0  0  0  0
    8.1552    0.6035   -2.5710 H   0  0  0  0  0  0  0  0  0  0  0  0
    8.6108    0.2894   -0.8757 H   0  0  0  0  0  0  0  0  0  0  0  0
    5.7512   -3.9545   -2.5908 H   0  0  0  0  0  0  0  0  0  0  0  0
    4.7249   -4.0697   -1.0917 H   0  0  0  0  0  0  0  0  0  0  0  0
    4.0465   -3.4735   -2.6594 H   0  0  0  0  0  0  0  0  0  0  0  0
  1  2  1  0
  2  3  1  0
  3  4  2  0
  4  5  1  0
  5  6  1  0
  6  7  1  0
  5  8  2  0
  8  9  1  0
  8 10  1  0
 10 11  1  0
 11 12  1  0
 12 13  1  0
 13 14  2  0
 14 15  1  0
 15 16  2  0
 16 17  1  0
 17 18  2  0
 18 19  1  0
 19 20  1  0
 20 21  2  0
 19 22  1  0
 22 23  2  0
 23 24  1  0
 24 25  1  0
 24 26  1  0
 26 27  2  0
 27 28  1  0
 16 29  1  0
 29 30  2  0
 30 31  1  0
 31 32  1  0
 31 33  1  0
 33 34  2  0
 34 35  1  0
 10 36  2  0
 36 37  1  0
 36  3  1  0
 20 11  1  0
 27 22  1  0
 34 29  1  0
 18 13  1  0
  1 38  1  0
  1 39  1  0
  1 40  1  0
  4 41  1  0
  7 42  1  0
  7 43  1  0
  7 44  1  0
 12 45  1  0
 12 46  1  0
 14 47  1  0
 17 48  1  0
 23 49  1  0
 25 50  1  0
 25 51  1  0
 25 52  1  0
 28 53  1  0
 28 54  1  0
 28 55  1  0
 30 56  1  0
 32 57  1  0
 32 58  1  0
 32 59  1  0
 35 60  1  0
 35 61  1  0
 35 62  1  0
M  END
$$$$
[H]c1nc(-c2c(C([H])([H])[H])nn(C([H])([H])[H])c2[H])c([H])c2c1C([H])([H])N(c1c(F)c(OC([H])([H])[H])c([H])c(OC([H])([H])[H])c1F)C(=O)N2C([H])([H])c1sc(C#N)c([H])c1[H]
     RDKit          3D

 60 64  0  0  0  0  0  0  0  0999 V2000
   -7.3128   -2.6957    1.4528 C   0  0  0  0  0  0  0  0  0  0  0  0
   -5.9082   -2.5883    1.4227 O   0  0  0  0  0  0  0  0  0  0  0  0
   -5.2153   -1.5933    0.7819 C   0  0  0  0  0  0  0  0  0  0  0  0
   -5.8641   -0.5919    0.0977 C   0  0  0  0  0  0  0  0  0  0  0  0
   -5.1362    0.3947   -0.5386 C   0  0  0  0  0  0  0  0  0  0  0  0
   -5.7888    1.4174   -1.2397 O   0  0  0  0  0  0  0  0  0  0  0  0
   -7.2045    1.4300   -1.2913 C   0  0  0  0  0  0  0  0  0  0  0  0
   -3.7648    0.4097   -0.5101 C   0  0  0  0  0  0  0  0  0  0  0  0
   -3.0570    1.3875   -1.1417 F   0  0  0  0  0  0  0  0  0  0  0  0
   -3.1383   -0.6155    0.1893 C   0  0  0  0  0  0  0  0  0  0  0  0
   -1.6916   -0.6243    0.2177 N   0  0  0  0  0  0  0  0  0  0  0  0
   -0.9517   -1.6132   -0.4879 C   0  0  0  0  0  0  0  0  0  0  0  0
    0.4930   -1.4493   -0.3352 C   0  0  0  0  0  0  0  0  0  0  0  0
    1.3268   -2.3770   -0.9731 C   0  0  0  0  0  0  0  0  0  0  0  0
    2.6505   -2.2892   -0.8849 N   0  0  0  0  0  0  0  0  0  0  0  0
    3.3074   -1.3125   -0.1835 C   0  0  0  0  0  0  0  0  0  0  0  0
    2.4876   -0.4046    0.4413 C   0  0  0  0  0  0  0  0  0  0  0  0
    1.0880   -0.4584    0.3762 C   0  0  0  0  0  0  0  0  0  0  0  0
    0.3261    0.5345    1.0726 N   0  0  0  0  0  0  0  0  0  0  0  0
    0.9112    1.5829    1.8307 C   0  0  0  0  0  0  0  0  0  0  0  0
    1.1459    2.8160    0.9878 C   0  0  0  0  0  0  0  0  0  0  0  0
    1.1883    2.8912   -0.3769 C   0  0  0  0  0  0  0  0  0  0  0  0
    1.3932    4.1137   -0.9175 C   0  0  0  0  0  0  0  0  0  0  0  0
    1.5396    5.1612   -0.0503 C   0  0  0  0  0  0  0  0  0  0  0  0
    1.3903    4.4269    1.4764 S   0  0  0  0  0  0  0  0  0  0  0  0
    1.7626    6.5656   -0.3845 C   0  0  0  0  0  0  0  0  0  0  0  0
    1.9165    7.6756   -0.6490 N   0  0  0  0  0  0  0  0  0  0  0  0
   -1.0815    0.4002    0.9579 C   0  0  0  0  0  0  0  0  0  0  0  0
   -1.7609    1.2859    1.5812 O   0  0  0  0  0  0  0  0  0  0  0  0
    4.7402   -1.2971   -0.1225 C   0  0  0  0  0  0  0  0  0  0  0  0
    5.5257   -2.3509   -0.5825 C   0  0  0  0  0  0  0  0  0  0  0  0
    6.8273   -2.0568   -0.4241 N   0  0  0  0  0  0  0  0  0  0  0  0
    7.9612   -2.9193   -0.7872 C   0  0  0  0  0  0  0  0  0  0  0  0
    6.8766   -0.8662    0.1134 N   0  0  0  0  0  0  0  0  0  0  0  0
    5.6402   -0.3696    0.3125 C   0  0  0  0  0  0  0  0  0  0  0  0
    5.3892    0.9526    0.8810 C   0  0  0  0  0  0  0  0  0  0  0  0
   -3.8191   -1.6048    0.8285 C   0  0  0  0  0  0  0  0  0  0  0  0
   -3.2073   -2.6105    1.5122 F   0  0  0  0  0  0  0  0  0  0  0  0
   -7.7463   -2.3703    0.4908 H   0  0  0  0  0  0  0  0  0  0  0  0
   -7.7416   -2.1571    2.3135 H   0  0  0  0  0  0  0  0  0  0  0  0
   -7.5238   -3.8064    1.5354 H   0  0  0  0  0  0  0  0  0  0  0  0
   -6.9478   -0.5579    0.0467 H   0  0  0  0  0  0  0  0  0  0  0  0
   -7.6001    1.3793   -0.2685 H   0  0  0  0  0  0  0  0  0  0  0  0
   -7.5763    0.5484   -1.8665 H   0  0  0  0  0  0  0  0  0  0  0  0
   -7.5145    2.3838   -1.8045 H   0  0  0  0  0  0  0  0  0  0  0  0
   -1.2526   -1.6780   -1.5703 H   0  0  0  0  0  0  0  0  0  0  0  0
   -1.2030   -2.6016    0.0110 H   0  0  0  0  0  0  0  0  0  0  0  0
    0.9185   -3.1918   -1.5545 H   0  0  0  0  0  0  0  0  0  0  0  0
    2.8631    0.4033    1.0280 H   0  0  0  0  0  0  0  0  0  0  0  0
    1.7808    1.3341    2.4469 H   0  0  0  0  0  0  0  0  0  0  0  0
    0.1315    1.9228    2.5799 H   0  0  0  0  0  0  0  0  0  0  0  0
    1.0623    1.9889   -1.0318 H   0  0  0  0  0  0  0  0  0  0  0  0
    1.4456    4.3019   -2.0187 H   0  0  0  0  0  0  0  0  0  0  0  0
    5.1934   -3.2907   -1.0119 H   0  0  0  0  0  0  0  0  0  0  0  0
    7.9069   -3.1650   -1.8808 H   0  0  0  0  0  0  0  0  0  0  0  0
    7.8953   -3.8478   -0.2041 H   0  0  0  0  0  0  0  0  0  0  0  0
    8.8864   -2.3817   -0.5816 H   0  0  0  0  0  0  0  0  0  0  0  0
    4.9857    0.9639    1.9043 H   0  0  0  0  0  0  0  0  0  0  0  0
    6.3232    1.5588    0.9342 H   0  0  0  0  0  0  0  0  0  0  0  0
    4.7275    1.5058    0.1492 H   0  0  0  0  0  0  0  0  0  0  0  0
  1  2  1  0
  2  3  1  0
  3  4  2  0
  4  5  1  0
  5  6  1  0
  6  7  1  0
  5  8  2  0
  8  9  1  0
  8 10  1  0
 10 11  1  0
 11 12  1  0
 12 13  1  0
 13 14  2  0
 14 15  1  0
 15 16  2  0
 16 17  1  0
 17 18  2  0
 18 19  1  0
 19 20  1  0
 20 21  1  0
 21 22  2  0
 22 23  1  0
 23 24  2  0
 24 25  1  0
 24 26  1  0
 26 27  3  0
 19 28  1  0
 28 29  2  0
 16 30  1  0
 30 31  2  0
 31 32  1  0
 32 33  1  0
 32 34  1  0
 34 35  2  0
 35 36  1  0
 10 37  2  0
 37 38  1  0
 37  3  1  0
 28 11  1  0
 35 30  1  0
 18 13  1  0
 25 21  1  0
  1 39  1  0
  1 40  1  0
  1 41  1  0
  4 42  1  0
  7 43  1  0
  7 44  1  0
  7 45  1  0
 12 46  1  0
 12 47  1  0
 14 48  1  0
 17 49  1  0
 20 50  1  0
 20 51  1  0
 22 52  1  0
 23 53  1  0
 31 54  1  0
 33 55  1  0
 33 56  1  0
 33 57  1  0
 36 58  1  0
 36 59  1  0
 36 60  1  0
M  END
$$$$
[H]/C(C(=O)N1C([H])([H])C([H])([H])C([H])(N2C(=O)N(c3c(F)c(OC([H])([H])[H])c([H])c(OC([H])([H])[H])c3F)C([H])([H])c3c([H])nc(N([H])C4([H])C([H])([H])C([H])([H])N(C([H])([H])[H])C([H])([H])C4([H])[H])nc32)C([H])([H])C1([H])[H])=C(/[H])C([H])([H])N(C([H])([H])[H])C([H])([H])[H]
     RDKit          3D

 87 91  0  0  0  0  0  0  0  0999 V2000
   -3.9720   -8.4177    1.4657 C   0  0  0  0  0  0  0  0  0  0  0  0
   -3.7861   -7.0495    1.3768 O   0  0  0  0  0  0  0  0  0  0  0  0
   -3.0709   -6.3218    0.4888 C   0  0  0  0  0  0  0  0  0  0  0  0
   -2.3800   -6.9402   -0.5331 C   0  0  0  0  0  0  0  0  0  0  0  0
   -1.6435   -6.2696   -1.4573 C   0  0  0  0  0  0  0  0  0  0  0  0
   -0.9745   -6.9245   -2.4532 O   0  0  0  0  0  0  0  0  0  0  0  0
   -0.8823   -8.2620   -2.7461 C   0  0  0  0  0  0  0  0  0  0  0  0
   -1.6035   -4.8755   -1.3393 C   0  0  0  0  0  0  0  0  0  0  0  0
   -0.8733   -4.2105   -2.2558 F   0  0  0  0  0  0  0  0  0  0  0  0
   -2.2724   -4.2023   -0.3410 C   0  0  0  0  0  0  0  0  0  0  0  0
   -2.1959   -2.7520   -0.2626 N   0  0  0  0  0  0  0  0  0  0  0  0
   -3.3386   -1.9393   -0.4708 C   0  0  0  0  0  0  0  0  0  0  0  0
   -3.0240   -0.5096   -0.4127 C   0  0  0  0  0  0  0  0  0  0  0  0
   -4.1065    0.3517   -0.6464 C   0  0  0  0  0  0  0  0  0  0  0  0
   -3.8906    1.6584   -0.5975 N   0  0  0  0  0  0  0  0  0  0  0  0
   -2.7056    2.2081   -0.3396 C   0  0  0  0  0  0  0  0  0  0  0  0
   -2.5236    3.6411   -0.3028 N   0  0  0  0  0  0  0  0  0  0  0  0
   -3.5927    4.5746   -0.5326 C   0  0  0  0  0  0  0  0  0  0  0  0
   -4.6704    4.4755    0.5189 C   0  0  0  0  0  0  0  0  0  0  0  0
   -5.6259    5.6323    0.3900 C   0  0  0  0  0  0  0  0  0  0  0  0
   -4.9927    6.9154    0.4392 N   0  0  0  0  0  0  0  0  0  0  0  0
   -4.4788    7.2578    1.7291 C   0  0  0  0  0  0  0  0  0  0  0  0
   -4.0360    7.0584   -0.6219 C   0  0  0  0  0  0  0  0  0  0  0  0
   -3.0297    5.9580   -0.5460 C   0  0  0  0  0  0  0  0  0  0  0  0
   -1.6760    1.3765   -0.1173 N   0  0  0  0  0  0  0  0  0  0  0  0
   -1.8149    0.0609   -0.1496 C   0  0  0  0  0  0  0  0  0  0  0  0
   -0.6957   -0.7660    0.0828 N   0  0  0  0  0  0  0  0  0  0  0  0
    0.6217   -0.2907    0.3797 C   0  0  0  0  0  0  0  0  0  0  0  0
    1.2577    0.4213   -0.8093 C   0  0  0  0  0  0  0  0  0  0  0  0
    2.6985    0.6685   -0.4842 C   0  0  0  0  0  0  0  0  0  0  0  0
    3.0636    0.5736    0.9014 N   0  0  0  0  0  0  0  0  0  0  0  0
    2.1596    0.5949    2.0308 C   0  0  0  0  0  0  0  0  0  0  0  0
    0.7428    0.6289    1.5360 C   0  0  0  0  0  0  0  0  0  0  0  0
    4.4580    0.4467    1.2475 C   0  0  0  0  0  0  0  0  0  0  0  0
    4.7894    0.3670    2.4367 O   0  0  0  0  0  0  0  0  0  0  0  0
    5.4449    0.4151    0.1955 C   0  0  0  0  0  0  0  0  0  0  0  0
    6.7358    0.3017    0.4898 C   0  0  0  0  0  0  0  0  0  0  0  0
    7.8199    0.2593   -0.4973 C   0  0  0  0  0  0  0  0  0  0  0  0
    8.7162    1.3730   -0.2639 N   0  0  0  0  0  0  0  0  0  0  0  0
    9.3774    1.1158    1.0102 C   0  0  0  0  0  0  0  0  0  0  0  0
    9.6828    1.3611   -1.3505 C   0  0  0  0  0  0  0  0  0  0  0  0
   -0.9326   -2.1625    0.0177 C   0  0  0  0  0  0  0  0  0  0  0  0
    0.0508   -2.9605    0.2242 O   0  0  0  0  0  0  0  0  0  0  0  0
   -2.9996   -4.9288    0.5638 C   0  0  0  0  0  0  0  0  0  0  0  0
   -3.6604   -4.2867    1.5509 F   0  0  0  0  0  0  0  0  0  0  0  0
   -4.0388   -8.7966    2.5088 H   0  0  0  0  0  0  0  0  0  0  0  0
   -4.9024   -8.6619    0.8828 H   0  0  0  0  0  0  0  0  0  0  0  0
   -3.1555   -8.9962    0.9984 H   0  0  0  0  0  0  0  0  0  0  0  0
   -2.4224   -8.0226   -0.6152 H   0  0  0  0  0  0  0  0  0  0  0  0
   -1.3317   -8.4505   -3.7505 H   0  0  0  0  0  0  0  0  0  0  0  0
   -1.2856   -8.9139   -1.9755 H   0  0  0  0  0  0  0  0  0  0  0  0
    0.2245   -8.5056   -2.8192 H   0  0  0  0  0  0  0  0  0  0  0  0
   -3.8489   -2.1193   -1.4446 H   0  0  0  0  0  0  0  0  0  0  0  0
   -4.0471   -2.1414    0.3827 H   0  0  0  0  0  0  0  0  0  0  0  0
   -5.0990   -0.0751   -0.8627 H   0  0  0  0  0  0  0  0  0  0  0  0
   -1.5603    3.9690   -0.0971 H   0  0  0  0  0  0  0  0  0  0  0  0
   -4.0320    4.3021   -1.5187 H   0  0  0  0  0  0  0  0  0  0  0  0
   -4.2326    4.4078    1.5361 H   0  0  0  0  0  0  0  0  0  0  0  0
   -5.3008    3.5571    0.4152 H   0  0  0  0  0  0  0  0  0  0  0  0
   -6.3442    5.5824    1.2391 H   0  0  0  0  0  0  0  0  0  0  0  0
   -6.2208    5.5155   -0.5307 H   0  0  0  0  0  0  0  0  0  0  0  0
   -3.8202    8.1534    1.5981 H   0  0  0  0  0  0  0  0  0  0  0  0
   -5.3436    7.5318    2.3808 H   0  0  0  0  0  0  0  0  0  0  0  0
   -3.8951    6.4545    2.2192 H   0  0  0  0  0  0  0  0  0  0  0  0
   -4.5402    7.1372   -1.5946 H   0  0  0  0  0  0  0  0  0  0  0  0
   -3.4775    8.0147   -0.4273 H   0  0  0  0  0  0  0  0  0  0  0  0
   -2.2973    6.0116   -1.3864 H   0  0  0  0  0  0  0  0  0  0  0  0
   -2.4151    6.1080    0.3768 H   0  0  0  0  0  0  0  0  0  0  0  0
    1.2812   -1.1750    0.5455 H   0  0  0  0  0  0  0  0  0  0  0  0
    1.1274   -0.1982   -1.7211 H   0  0  0  0  0  0  0  0  0  0  0  0
    0.7260    1.3807   -0.9423 H   0  0  0  0  0  0  0  0  0  0  0  0
    3.0213    1.6692   -0.9013 H   0  0  0  0  0  0  0  0  0  0  0  0
    3.2826   -0.1278   -1.0132 H   0  0  0  0  0  0  0  0  0  0  0  0
    2.3903    1.5358    2.5906 H   0  0  0  0  0  0  0  0  0  0  0  0
    2.3514   -0.2634    2.7132 H   0  0  0  0  0  0  0  0  0  0  0  0
    0.5618    1.6883    1.1854 H   0  0  0  0  0  0  0  0  0  0  0  0
    0.0918    0.3851    2.3987 H   0  0  0  0  0  0  0  0  0  0  0  0
    5.2102    0.4802   -0.8610 H   0  0  0  0  0  0  0  0  0  0  0  0
    6.9866    0.2380    1.5387 H   0  0  0  0  0  0  0  0  0  0  0  0
    7.4696    0.2027   -1.5386 H   0  0  0  0  0  0  0  0  0  0  0  0
    8.4227   -0.6772   -0.3075 H   0  0  0  0  0  0  0  0  0  0  0  0
    9.4417    0.0391    1.1644 H   0  0  0  0  0  0  0  0  0  0  0  0
   10.3571    1.6269    1.0773 H   0  0  0  0  0  0  0  0  0  0  0  0
    8.7507    1.5481    1.8380 H   0  0  0  0  0  0  0  0  0  0  0  0
    9.1579    1.6126   -2.2757 H   0  0  0  0  0  0  0  0  0  0  0  0
   10.5287    2.0321   -1.1364 H   0  0  0  0  0  0  0  0  0  0  0  0
   10.0571    0.3151   -1.4150 H   0  0  0  0  0  0  0  0  0  0  0  0
  1  2  1  0
  2  3  1  0
  3  4  2  0
  4  5  1  0
  5  6  1  0
  6  7  1  0
  5  8  2  0
  8  9  1  0
  8 10  1  0
 10 11  1  0
 11 12  1  0
 12 13  1  0
 13 14  2  0
 14 15  1  0
 15 16  2  0
 16 17  1  0
 17 18  1  0
 18 19  1  0
 19 20  1  0
 20 21  1  0
 21 22  1  0
 21 23  1  0
 23 24  1  0
 16 25  1  0
 25 26  2  0
 26 27  1  0
 27 28  1  0
 28 29  1  0
 29 30  1  0
 30 31  1  0
 31 32  1  0
 32 33  1  0
 31 34  1  0
 34 35  2  0
 34 36  1  0
 36 37  2  0
 37 38  1  0
 38 39  1  0
 39 40  1  0
 39 41  1  0
 27 42  1  0
 42 43  2  0
 10 44  2  0
 44 45  1  0
 44  3  1  0
 42 11  1  0
 26 13  1  0
 33 28  1  0
 24 18  1  0
  1 46  1  0
  1 47  1  0
  1 48  1  0
  4 49  1  0
  7 50  1  0
  7 51  1  0
  7 52  1  0
 12 53  1  0
 12 54  1  0
 14 55  1  0
 17 56  1  0
 18 57  1  0
 19 58  1  0
 19 59  1  0
 20 60  1  0
 20 61  1  0
 22 62  1  0
 22 63  1  0
 22 64  1  0
 23 65  1  0
 23 66  1  0
 24 67  1  0
 24 68  1  0
 28 69  1  0
 29 70  1  0
 29 71  1  0
 30 72  1  0
 30 73  1  0
 32 74  1  0
 32 75  1  0
 33 76  1  0
 33 77  1  0
 36 78  1  0
 37 79  1  0
 38 80  1  0
 38 81  1  0
 40 82  1  0
 40 83  1  0
 40 84  1  0
 41 85  1  0
 41 86  1  0
 41 87  1  0
M  END
$$$$
[H]c1nc(-c2c([H])nc3c(nnn3-c3c([H])c([H])c(OC([H])([H])C([H])([H])N4C([H])([H])C([H])([H])N([H])C([H])([H])C4([H])[H])c([H])c3[H])c2[H])oc1[H]
     RDKit          3D

 50 54  0  0  0  0  0  0  0  0999 V2000
   -3.4325    0.1922   -1.2728 C   0  0  0  0  0  0  0  0  0  0  0  0
   -4.8487    0.4633   -0.8544 C   0  0  0  0  0  0  0  0  0  0  0  0
   -5.4946   -0.6109   -0.1747 N   0  0  0  0  0  0  0  0  0  0  0  0
   -6.9368   -0.3911   -0.0480 C   0  0  0  0  0  0  0  0  0  0  0  0
   -7.3133    0.8201    0.7215 C   0  0  0  0  0  0  0  0  0  0  0  0
   -6.4158    1.2286    1.7255 N   0  0  0  0  0  0  0  0  0  0  0  0
   -5.3258    0.4002    2.0651 C   0  0  0  0  0  0  0  0  0  0  0  0
   -5.0672   -0.7943    1.2102 C   0  0  0  0  0  0  0  0  0  0  0  0
   -2.6201   -0.1017   -0.1898 O   0  0  0  0  0  0  0  0  0  0  0  0
   -1.2716   -0.4215   -0.3180 C   0  0  0  0  0  0  0  0  0  0  0  0
   -0.6958   -0.4530   -1.5733 C   0  0  0  0  0  0  0  0  0  0  0  0
    0.6283   -0.7682   -1.7263 C   0  0  0  0  0  0  0  0  0  0  0  0
    1.4519   -1.0689   -0.6456 C   0  0  0  0  0  0  0  0  0  0  0  0
    0.8443   -1.0284    0.6032 C   0  0  0  0  0  0  0  0  0  0  0  0
   -0.4931   -0.7109    0.7724 C   0  0  0  0  0  0  0  0  0  0  0  0
    2.8116   -1.4079   -0.8508 N   0  0  0  0  0  0  0  0  0  0  0  0
    3.2512   -2.4919   -1.4805 N   0  0  0  0  0  0  0  0  0  0  0  0
    4.5674   -2.4928   -1.5124 N   0  0  0  0  0  0  0  0  0  0  0  0
    5.0131   -1.3669   -0.8821 C   0  0  0  0  0  0  0  0  0  0  0  0
    6.2983   -0.9047   -0.6554 C   0  0  0  0  0  0  0  0  0  0  0  0
    6.4745    0.2872    0.0141 C   0  0  0  0  0  0  0  0  0  0  0  0
    5.3407    0.9490    0.4209 C   0  0  0  0  0  0  0  0  0  0  0  0
    4.0953    0.4650    0.1816 N   0  0  0  0  0  0  0  0  0  0  0  0
    3.8890   -0.6994   -0.4723 C   0  0  0  0  0  0  0  0  0  0  0  0
    7.8264    0.8215    0.2486 C   0  0  0  0  0  0  0  0  0  0  0  0
    8.1318    1.9464    0.8887 N   0  0  0  0  0  0  0  0  0  0  0  0
    9.4974    2.0724    0.8830 C   0  0  0  0  0  0  0  0  0  0  0  0
    9.9881    0.9818    0.2176 C   0  0  0  0  0  0  0  0  0  0  0  0
    8.9581    0.2804   -0.1326 O   0  0  0  0  0  0  0  0  0  0  0  0
   -3.4225   -0.6384   -2.0482 H   0  0  0  0  0  0  0  0  0  0  0  0
   -3.0745    1.1085   -1.8152 H   0  0  0  0  0  0  0  0  0  0  0  0
   -4.8489    1.4286   -0.2886 H   0  0  0  0  0  0  0  0  0  0  0  0
   -5.4162    0.6276   -1.8241 H   0  0  0  0  0  0  0  0  0  0  0  0
   -7.3057   -1.2859    0.5406 H   0  0  0  0  0  0  0  0  0  0  0  0
   -7.4407   -0.4833   -1.0449 H   0  0  0  0  0  0  0  0  0  0  0  0
   -7.4287    1.6776   -0.0108 H   0  0  0  0  0  0  0  0  0  0  0  0
   -8.3447    0.7146    1.1654 H   0  0  0  0  0  0  0  0  0  0  0  0
   -6.2869    2.2557    1.8446 H   0  0  0  0  0  0  0  0  0  0  0  0
   -4.3962    1.0473    2.0422 H   0  0  0  0  0  0  0  0  0  0  0  0
   -5.3745    0.0414    3.1377 H   0  0  0  0  0  0  0  0  0  0  0  0
   -4.0741   -1.2296    1.3240 H   0  0  0  0  0  0  0  0  0  0  0  0
   -5.7767   -1.5977    1.5943 H   0  0  0  0  0  0  0  0  0  0  0  0
   -1.2797   -0.2276   -2.4729 H   0  0  0  0  0  0  0  0  0  0  0  0
    1.0816   -0.7944   -2.7164 H   0  0  0  0  0  0  0  0  0  0  0  0
    1.4376   -1.2555    1.4688 H   0  0  0  0  0  0  0  0  0  0  0  0
   -0.9018   -0.6961    1.7938 H   0  0  0  0  0  0  0  0  0  0  0  0
    7.1640   -1.4719   -0.9975 H   0  0  0  0  0  0  0  0  0  0  0  0
    5.4810    1.8786    0.9494 H   0  0  0  0  0  0  0  0  0  0  0  0
    9.9979    2.8996    1.3358 H   0  0  0  0  0  0  0  0  0  0  0  0
   11.0577    0.8051    0.0525 H   0  0  0  0  0  0  0  0  0  0  0  0
  1  2  1  0
  2  3  1  0
  3  4  1  0
  4  5  1  0
  5  6  1  0
  6  7  1  0
  7  8  1  0
  1  9  1  0
  9 10  1  0
 10 11  2  0
 11 12  1  0
 12 13  2  0
 13 14  1  0
 14 15  2  0
 13 16  1  0
 16 17  1  0
 17 18  2  0
 18 19  1  0
 19 20  2  0
 20 21  1  0
 21 22  2  0
 22 23  1  0
 23 24  2  0
 21 25  1  0
 25 26  2  0
 26 27  1  0
 27 28  2  0
 28 29  1  0
  8  3  1  0
 15 10  1  0
 24 16  1  0
 29 25  1  0
 24 19  1  0
  1 30  1  0
  1 31  1  0
  2 32  1  0
  2 33  1  0
  4 34  1  0
  4 35  1  0
  5 36  1  0
  5 37  1  0
  6 38  1  0
  7 39  1  0
  7 40  1  0
  8 41  1  0
  8 42  1  0
 11 43  1  0
 12 44  1  0
 14 45  1  0
 15 46  1  0
 20 47  1  0
 22 48  1  0
 27 49  1  0
 28 50  1  0
M  END
$$$$
[H]C([H])=C([H])C(=O)N1C([H])([H])C([H])([H])N(C([H])([H])C([H])([H])C([H])([H])n2c(=O)c(-c3c(Cl)c(OC([H])([H])[H])c([H])c(OC([H])([H])[H])c3Cl)c([H])c3c([H])nc(N([H])C([H])([H])C([H])([H])N(C([H])([H])[H])C([H])([H])[H])nc32)C([H])([H])C1([H])[H]
     RDKit          3D

 79 82  0  0  0  0  0  0  0  0999 V2000
   -5.7826   -7.1144    1.3951 C   0  0  0  0  0  0  0  0  0  0  0  0
   -5.3044   -5.7836    1.4591 O   0  0  0  0  0  0  0  0  0  0  0  0
   -4.3566   -5.3956    0.5254 C   0  0  0  0  0  0  0  0  0  0  0  0
   -3.8775   -6.2516   -0.4425 C   0  0  0  0  0  0  0  0  0  0  0  0
   -2.9260   -5.8368   -1.3681 C   0  0  0  0  0  0  0  0  0  0  0  0
   -2.4518   -6.7078   -2.3377 O   0  0  0  0  0  0  0  0  0  0  0  0
   -2.9550   -8.0280   -2.3672 C   0  0  0  0  0  0  0  0  0  0  0  0
   -2.4828   -4.5361   -1.2771 C   0  0  0  0  0  0  0  0  0  0  0  0
   -1.2729   -3.9609   -2.4327 Cl  0  0  0  0  0  0  0  0  0  0  0  0
   -2.9409   -3.6429   -0.3160 C   0  0  0  0  0  0  0  0  0  0  0  0
   -3.8835   -4.0994    0.5789 C   0  0  0  0  0  0  0  0  0  0  0  0
   -4.4698   -2.9655    1.8041 Cl  0  0  0  0  0  0  0  0  0  0  0  0
   -2.4301   -2.2758   -0.2712 C   0  0  0  0  0  0  0  0  0  0  0  0
   -3.0328   -1.2560   -0.9734 C   0  0  0  0  0  0  0  0  0  0  0  0
   -2.5324    0.0433   -0.9194 C   0  0  0  0  0  0  0  0  0  0  0  0
   -3.1082    1.0724   -1.6089 C   0  0  0  0  0  0  0  0  0  0  0  0
   -2.5546    2.2860   -1.4988 N   0  0  0  0  0  0  0  0  0  0  0  0
   -1.4741    2.5764   -0.7623 C   0  0  0  0  0  0  0  0  0  0  0  0
   -0.9207    3.8950   -0.6881 N   0  0  0  0  0  0  0  0  0  0  0  0
   -1.4832    5.0228   -1.3885 C   0  0  0  0  0  0  0  0  0  0  0  0
   -2.8254    5.4133   -0.8773 C   0  0  0  0  0  0  0  0  0  0  0  0
   -2.8101    5.7971    0.5216 N   0  0  0  0  0  0  0  0  0  0  0  0
   -4.1371    6.1532    0.9710 C   0  0  0  0  0  0  0  0  0  0  0  0
   -1.8825    6.8681    0.7820 C   0  0  0  0  0  0  0  0  0  0  0  0
   -0.8997    1.5518   -0.0744 N   0  0  0  0  0  0  0  0  0  0  0  0
   -1.4192    0.3143   -0.1528 C   0  0  0  0  0  0  0  0  0  0  0  0
   -0.8353   -0.6793    0.5296 N   0  0  0  0  0  0  0  0  0  0  0  0
    0.3249   -0.4034    1.3508 C   0  0  0  0  0  0  0  0  0  0  0  0
    1.5696   -0.5643    0.4750 C   0  0  0  0  0  0  0  0  0  0  0  0
    2.8006   -0.3067    1.3120 C   0  0  0  0  0  0  0  0  0  0  0  0
    3.9670   -0.4651    0.4723 N   0  0  0  0  0  0  0  0  0  0  0  0
    5.1933   -0.3173    1.2149 C   0  0  0  0  0  0  0  0  0  0  0  0
    5.9948    0.8983    0.9157 C   0  0  0  0  0  0  0  0  0  0  0  0
    6.1542    1.1636   -0.4945 N   0  0  0  0  0  0  0  0  0  0  0  0
    5.2207    0.5425   -1.4104 C   0  0  0  0  0  0  0  0  0  0  0  0
    3.9187    0.3447   -0.7145 C   0  0  0  0  0  0  0  0  0  0  0  0
    7.1962    2.0080   -0.9546 C   0  0  0  0  0  0  0  0  0  0  0  0
    7.3604    2.2549   -2.1825 O   0  0  0  0  0  0  0  0  0  0  0  0
    8.1086    2.6140    0.0022 C   0  0  0  0  0  0  0  0  0  0  0  0
    9.0964    3.4068   -0.3974 C   0  0  0  0  0  0  0  0  0  0  0  0
   -1.3204   -1.9566    0.4809 C   0  0  0  0  0  0  0  0  0  0  0  0
   -0.7325   -2.8454    1.1395 O   0  0  0  0  0  0  0  0  0  0  0  0
   -6.6096   -7.2363    2.1294 H   0  0  0  0  0  0  0  0  0  0  0  0
   -4.9494   -7.7721    1.6692 H   0  0  0  0  0  0  0  0  0  0  0  0
   -6.1149   -7.3760    0.3682 H   0  0  0  0  0  0  0  0  0  0  0  0
   -4.2626   -7.2669   -0.4656 H   0  0  0  0  0  0  0  0  0  0  0  0
   -2.6408   -8.5865   -1.4497 H   0  0  0  0  0  0  0  0  0  0  0  0
   -4.0504   -7.9667   -2.3665 H   0  0  0  0  0  0  0  0  0  0  0  0
   -2.6618   -8.5674   -3.2910 H   0  0  0  0  0  0  0  0  0  0  0  0
   -3.8964   -1.4492   -1.5722 H   0  0  0  0  0  0  0  0  0  0  0  0
   -3.9820    0.8463   -2.2065 H   0  0  0  0  0  0  0  0  0  0  0  0
   -0.0621    4.0370   -0.0913 H   0  0  0  0  0  0  0  0  0  0  0  0
   -1.6473    4.6556   -2.4451 H   0  0  0  0  0  0  0  0  0  0  0  0
   -0.7707    5.8566   -1.4963 H   0  0  0  0  0  0  0  0  0  0  0  0
   -3.2346    6.2890   -1.4240 H   0  0  0  0  0  0  0  0  0  0  0  0
   -3.5427    4.5965   -1.0288 H   0  0  0  0  0  0  0  0  0  0  0  0
   -4.7081    5.2903    1.3752 H   0  0  0  0  0  0  0  0  0  0  0  0
   -4.0919    6.9520    1.7616 H   0  0  0  0  0  0  0  0  0  0  0  0
   -4.6747    6.5764    0.1165 H   0  0  0  0  0  0  0  0  0  0  0  0
   -1.5296    7.2426   -0.2073 H   0  0  0  0  0  0  0  0  0  0  0  0
   -2.4434    7.7038    1.2468 H   0  0  0  0  0  0  0  0  0  0  0  0
   -1.0646    6.5976    1.4696 H   0  0  0  0  0  0  0  0  0  0  0  0
    0.2958    0.6683    1.6511 H   0  0  0  0  0  0  0  0  0  0  0  0
    0.3918   -1.0658    2.2153 H   0  0  0  0  0  0  0  0  0  0  0  0
    1.6442   -1.5822    0.0561 H   0  0  0  0  0  0  0  0  0  0  0  0
    1.4998    0.1339   -0.4022 H   0  0  0  0  0  0  0  0  0  0  0  0
    2.7154    0.7276    1.7339 H   0  0  0  0  0  0  0  0  0  0  0  0
    2.8138   -1.0364    2.1278 H   0  0  0  0  0  0  0  0  0  0  0  0
    5.7896   -1.2543    1.1636 H   0  0  0  0  0  0  0  0  0  0  0  0
    4.8977   -0.2426    2.3007 H   0  0  0  0  0  0  0  0  0  0  0  0
    5.6823    1.8036    1.4938 H   0  0  0  0  0  0  0  0  0  0  0  0
    7.0416    0.6815    1.2947 H   0  0  0  0  0  0  0  0  0  0  0  0
    5.0177    1.1963   -2.2926 H   0  0  0  0  0  0  0  0  0  0  0  0
    5.6491   -0.4268   -1.7150 H   0  0  0  0  0  0  0  0  0  0  0  0
    3.5143    1.3530   -0.4308 H   0  0  0  0  0  0  0  0  0  0  0  0
    3.1963   -0.0969   -1.4486 H   0  0  0  0  0  0  0  0  0  0  0  0
    8.0030    2.4340    1.0686 H   0  0  0  0  0  0  0  0  0  0  0  0
    9.2117    3.5969   -1.4700 H   0  0  0  0  0  0  0  0  0  0  0  0
    9.7704    3.8533    0.3112 H   0  0  0  0  0  0  0  0  0  0  0  0
  1  2  1  0
  2  3  1  0
  3  4  2  0
  4  5  1  0
  5  6  1  0
  6  7  1  0
  5  8  2  0
  8  9  1  0
  8 10  1  0
 10 11  2  0
 11 12  1  0
 10 13  1  0
 13 14  2  0
 14 15  1  0
 15 16  2  0
 16 17  1  0
 17 18  2  0
 18 19  1  0
 19 20  1  0
 20 21  1  0
 21 22  1  0
 22 23  1  0
 22 24  1  0
 18 25  1  0
 25 26  2  0
 26 27  1  0
 27 28  1  0
 28 29  1  0
 29 30  1  0
 30 31  1  0
 31 32  1  0
 32 33  1  0
 33 34  1  0
 34 35  1  0
 35 36  1  0
 34 37  1  0
 37 38  2  0
 37 39  1  0
 39 40  2  3
 27 41  1  0
 41 42  2  0
 11  3  1  0
 41 13  1  0
 26 15  1  0
 36 31  1  0
  1 43  1  0
  1 44  1  0
  1 45  1  0
  4 46  1  0
  7 47  1  0
  7 48  1  0
  7 49  1  0
 14 50  1  0
 16 51  1  0
 19 52  1  0
 20 53  1  0
 20 54  1  0
 21 55  1  0
 21 56  1  0
 23 57  1  0
 23 58  1  0
 23 59  1  0
 24 60  1  0
 24 61  1  0
 24 62  1  0
 28 63  1  0
 28 64  1  0
 29 65  1  0
 29 66  1  0
 30 67  1  0
 30 68  1  0
 32 69  1  0
 32 70  1  0
 33 71  1  0
 33 72  1  0
 35 73  1  0
 35 74  1  0
 36 75  1  0
 36 76  1  0
 39 77  1  0
 40 78  1  0
 40 79  1  0
M  END
$$$$
[H]c1nc(N([H])[H])c(-c2c([H])c3c([H])c(-c4c([H])c([H])c([H])c([H])c4Cl)c([H])nc3n2[H])c(N2C([H])([H])C([H])([H])C([H])([H])C([H])([H])C2([H])[H])n1
     RDKit          3D

 50 54  0  0  0  0  0  0  0  0999 V2000
   -1.0704   -4.4009   -0.6629 N   0  0  0  0  0  0  0  0  0  0  0  0
   -2.1946   -3.5077   -0.7233 C   0  0  0  0  0  0  0  0  0  0  0  0
   -3.4130   -3.9888   -0.9658 N   0  0  0  0  0  0  0  0  0  0  0  0
   -4.4581   -3.1654   -1.0798 C   0  0  0  0  0  0  0  0  0  0  0  0
   -4.3036   -1.8679   -0.9548 N   0  0  0  0  0  0  0  0  0  0  0  0
   -3.0419   -1.3358   -0.6998 C   0  0  0  0  0  0  0  0  0  0  0  0
   -2.9860    0.0721   -0.5728 N   0  0  0  0  0  0  0  0  0  0  0  0
   -3.1602    0.9125   -1.7357 C   0  0  0  0  0  0  0  0  0  0  0  0
   -3.8593    2.2015   -1.3567 C   0  0  0  0  0  0  0  0  0  0  0  0
   -4.7471    2.0723   -0.1467 C   0  0  0  0  0  0  0  0  0  0  0  0
   -4.0612    1.5200    1.0721 C   0  0  0  0  0  0  0  0  0  0  0  0
   -2.8151    0.7240    0.7023 C   0  0  0  0  0  0  0  0  0  0  0  0
   -1.9389   -2.1352   -0.5734 C   0  0  0  0  0  0  0  0  0  0  0  0
   -0.6174   -1.6538   -0.1975 C   0  0  0  0  0  0  0  0  0  0  0  0
    0.0413   -0.4836   -0.5010 C   0  0  0  0  0  0  0  0  0  0  0  0
    1.3484   -0.4978    0.0068 C   0  0  0  0  0  0  0  0  0  0  0  0
    2.3758    0.4266   -0.0387 C   0  0  0  0  0  0  0  0  0  0  0  0
    3.5678    0.1137    0.5662 C   0  0  0  0  0  0  0  0  0  0  0  0
    3.6663   -1.1204    1.1902 C   0  0  0  0  0  0  0  0  0  0  0  0
    2.6388   -1.9924    1.2109 N   0  0  0  0  0  0  0  0  0  0  0  0
    1.4611   -1.7093    0.6254 C   0  0  0  0  0  0  0  0  0  0  0  0
    0.2825   -2.3786    0.4924 N   0  0  0  0  0  0  0  0  0  0  0  0
    4.6948    1.0226    0.5581 C   0  0  0  0  0  0  0  0  0  0  0  0
    5.3255    1.2657    1.7724 C   0  0  0  0  0  0  0  0  0  0  0  0
    6.3970    2.1309    1.8118 C   0  0  0  0  0  0  0  0  0  0  0  0
    6.8042    2.7261    0.6338 C   0  0  0  0  0  0  0  0  0  0  0  0
    6.1688    2.4782   -0.5765 C   0  0  0  0  0  0  0  0  0  0  0  0
    5.0936    1.6077   -0.6063 C   0  0  0  0  0  0  0  0  0  0  0  0
    4.3316    1.3159   -2.1453 Cl  0  0  0  0  0  0  0  0  0  0  0  0
   -0.2348   -4.2728   -1.2712 H   0  0  0  0  0  0  0  0  0  0  0  0
   -1.1598   -5.1841    0.0369 H   0  0  0  0  0  0  0  0  0  0  0  0
   -5.4278   -3.6402   -1.2800 H   0  0  0  0  0  0  0  0  0  0  0  0
   -2.2066    1.0938   -2.2543 H   0  0  0  0  0  0  0  0  0  0  0  0
   -3.7954    0.3594   -2.4849 H   0  0  0  0  0  0  0  0  0  0  0  0
   -4.5186    2.4715   -2.2071 H   0  0  0  0  0  0  0  0  0  0  0  0
   -3.1154    2.9979   -1.2639 H   0  0  0  0  0  0  0  0  0  0  0  0
   -5.0778    3.1080    0.1045 H   0  0  0  0  0  0  0  0  0  0  0  0
   -5.6744    1.5069   -0.3586 H   0  0  0  0  0  0  0  0  0  0  0  0
   -4.7525    0.8020    1.5551 H   0  0  0  0  0  0  0  0  0  0  0  0
   -3.8492    2.3108    1.8165 H   0  0  0  0  0  0  0  0  0  0  0  0
   -2.0130    1.5175    0.6218 H   0  0  0  0  0  0  0  0  0  0  0  0
   -2.4936    0.0264    1.4710 H   0  0  0  0  0  0  0  0  0  0  0  0
   -0.3149    0.3602   -1.0558 H   0  0  0  0  0  0  0  0  0  0  0  0
    2.2088    1.3660   -0.5427 H   0  0  0  0  0  0  0  0  0  0  0  0
    4.6288   -1.3508    1.6683 H   0  0  0  0  0  0  0  0  0  0  0  0
    0.1894   -3.3157    0.9336 H   0  0  0  0  0  0  0  0  0  0  0  0
    4.9895    0.7882    2.6832 H   0  0  0  0  0  0  0  0  0  0  0  0
    6.8798    2.3137    2.7557 H   0  0  0  0  0  0  0  0  0  0  0  0
    7.6547    3.4050    0.7012 H   0  0  0  0  0  0  0  0  0  0  0  0
    6.5522    2.9843   -1.4421 H   0  0  0  0  0  0  0  0  0  0  0  0
  1  2  1  0
  2  3  2  0
  3  4  1  0
  4  5  2  0
  5  6  1  0
  6  7  1  0
  7  8  1  0
  8  9  1  0
  9 10  1  0
 10 11  1  0
 11 12  1  0
  6 13  2  0
 13 14  1  0
 14 15  2  0
 15 16  1  0
 16 17  2  0
 17 18  1  0
 18 19  2  0
 19 20  1  0
 20 21  2  0
 21 22  1  0
 18 23  1  0
 23 24  2  0
 24 25  1  0
 25 26  2  0
 26 27  1  0
 27 28  2  0
 28 29  1  0
 13  2  1  0
 22 14  1  0
 28 23  1  0
 12  7  1  0
 21 16  1  0
  1 30  1  0
  1 31  1  0
  4 32  1  0
  8 33  1  0
  8 34  1  0
  9 35  1  0
  9 36  1  0
 10 37  1  0
 10 38  1  0
 11 39  1  0
 11 40  1  0
 12 41  1  0
 12 42  1  0
 15 43  1  0
 17 44  1  0
 19 45  1  0
 22 46  1  0
 24 47  1  0
 25 48  1  0
 26 49  1  0
 27 50  1  0
M  END
$$$$
[H]c1nc(N([H])[H])c(-c2nn(-c3c(Cl)c(OC([H])([H])[H])c([H])c(OC([H])([H])[H])c3Cl)c(=O)c([H])c2[H])nc1-c1c([H])nn(C2([H])C([H])([H])C([H])([H])N([H])C([H])([H])C2([H])[H])c1[H]
     RDKit          3D

 61 65  0  0  0  0  0  0  0  0999 V2000
    8.3414    2.8868    0.5940 C   0  0  0  0  0  0  0  0  0  0  0  0
    7.0256    2.5280    0.8403 O   0  0  0  0  0  0  0  0  0  0  0  0
    6.4571    1.2832    0.8238 C   0  0  0  0  0  0  0  0  0  0  0  0
    7.2225    0.1800    0.5388 C   0  0  0  0  0  0  0  0  0  0  0  0
    6.6715   -1.0974    0.5158 C   0  0  0  0  0  0  0  0  0  0  0  0
    7.4579   -2.1972    0.2268 O   0  0  0  0  0  0  0  0  0  0  0  0
    8.8268   -1.9974   -0.0430 C   0  0  0  0  0  0  0  0  0  0  0  0
    5.3378   -1.2356    0.7853 C   0  0  0  0  0  0  0  0  0  0  0  0
    4.6390   -2.8400    0.7582 Cl  0  0  0  0  0  0  0  0  0  0  0  0
    4.5369   -0.1556    1.0751 C   0  0  0  0  0  0  0  0  0  0  0  0
    5.1211    1.1075    1.0897 C   0  0  0  0  0  0  0  0  0  0  0  0
    4.1231    2.4907    1.4534 Cl  0  0  0  0  0  0  0  0  0  0  0  0
    3.1434   -0.3169    1.3493 N   0  0  0  0  0  0  0  0  0  0  0  0
    2.3053   -0.1731    0.3204 N   0  0  0  0  0  0  0  0  0  0  0  0
    0.9786   -0.3110    0.4851 C   0  0  0  0  0  0  0  0  0  0  0  0
    0.5002   -0.6040    1.7393 C   0  0  0  0  0  0  0  0  0  0  0  0
    1.3550   -0.7565    2.8189 C   0  0  0  0  0  0  0  0  0  0  0  0
    2.7056   -0.6025    2.5833 C   0  0  0  0  0  0  0  0  0  0  0  0
    3.5211   -0.7306    3.5275 O   0  0  0  0  0  0  0  0  0  0  0  0
    0.0837   -0.1527   -0.6418 C   0  0  0  0  0  0  0  0  0  0  0  0
   -1.2676   -0.2855   -0.5149 N   0  0  0  0  0  0  0  0  0  0  0  0
   -2.0889   -0.1407   -1.5507 C   0  0  0  0  0  0  0  0  0  0  0  0
   -1.5548    0.1502   -2.7754 C   0  0  0  0  0  0  0  0  0  0  0  0
   -0.2206    0.2952   -2.9681 N   0  0  0  0  0  0  0  0  0  0  0  0
    0.5719    0.1390   -1.8884 C   0  0  0  0  0  0  0  0  0  0  0  0
    1.9579    0.2860   -2.0644 N   0  0  0  0  0  0  0  0  0  0  0  0
   -3.5207   -0.2913   -1.3852 C   0  0  0  0  0  0  0  0  0  0  0  0
   -4.4694   -0.1614   -2.3971 C   0  0  0  0  0  0  0  0  0  0  0  0
   -5.6776   -0.3743   -1.8450 N   0  0  0  0  0  0  0  0  0  0  0  0
   -5.5400   -0.6309   -0.5411 N   0  0  0  0  0  0  0  0  0  0  0  0
   -4.2398   -0.5850   -0.2440 C   0  0  0  0  0  0  0  0  0  0  0  0
   -6.6023   -0.9148    0.4120 C   0  0  0  0  0  0  0  0  0  0  0  0
   -7.9104   -0.8138   -0.3003 C   0  0  0  0  0  0  0  0  0  0  0  0
   -8.9066    0.0912    0.3871 C   0  0  0  0  0  0  0  0  0  0  0  0
   -8.3682    1.3702    0.7265 N   0  0  0  0  0  0  0  0  0  0  0  0
   -7.0125    1.3594    1.1736 C   0  0  0  0  0  0  0  0  0  0  0  0
   -6.5240    0.0054    1.6104 C   0  0  0  0  0  0  0  0  0  0  0  0
    8.3839    3.9007    0.1222 H   0  0  0  0  0  0  0  0  0  0  0  0
    8.8518    2.1286   -0.0302 H   0  0  0  0  0  0  0  0  0  0  0  0
    8.8463    3.0247    1.5905 H   0  0  0  0  0  0  0  0  0  0  0  0
    8.2672    0.2316    0.3225 H   0  0  0  0  0  0  0  0  0  0  0  0
    9.3623   -1.5575    0.8432 H   0  0  0  0  0  0  0  0  0  0  0  0
    8.9142   -1.3233   -0.9122 H   0  0  0  0  0  0  0  0  0  0  0  0
    9.3096   -2.9872   -0.2520 H   0  0  0  0  0  0  0  0  0  0  0  0
   -0.5620   -0.7126    1.8638 H   0  0  0  0  0  0  0  0  0  0  0  0
    0.9376   -0.9828    3.7708 H   0  0  0  0  0  0  0  0  0  0  0  0
   -2.1917    0.2742   -3.6345 H   0  0  0  0  0  0  0  0  0  0  0  0
    2.3537    1.2505   -2.0129 H   0  0  0  0  0  0  0  0  0  0  0  0
    2.5407   -0.5458   -2.2369 H   0  0  0  0  0  0  0  0  0  0  0  0
   -4.2170    0.0716   -3.4311 H   0  0  0  0  0  0  0  0  0  0  0  0
   -3.7717   -0.7440    0.7175 H   0  0  0  0  0  0  0  0  0  0  0  0
   -6.3966   -1.9488    0.8022 H   0  0  0  0  0  0  0  0  0  0  0  0
   -7.7808   -0.5492   -1.3815 H   0  0  0  0  0  0  0  0  0  0  0  0
   -8.3754   -1.8273   -0.3023 H   0  0  0  0  0  0  0  0  0  0  0  0
   -9.3428   -0.4432    1.2333 H   0  0  0  0  0  0  0  0  0  0  0  0
   -9.7285    0.2703   -0.3640 H   0  0  0  0  0  0  0  0  0  0  0  0
   -8.5096    2.1157    0.0211 H   0  0  0  0  0  0  0  0  0  0  0  0
   -6.9374    2.0349    2.0525 H   0  0  0  0  0  0  0  0  0  0  0  0
   -6.3439    1.7827    0.3832 H   0  0  0  0  0  0  0  0  0  0  0  0
   -7.1271   -0.3657    2.4380 H   0  0  0  0  0  0  0  0  0  0  0  0
   -5.4627    0.0971    1.8926 H   0  0  0  0  0  0  0  0  0  0  0  0
  1  2  1  0
  2  3  1  0
  3  4  2  0
  4  5  1  0
  5  6  1  0
  6  7  1  0
  5  8  2  0
  8  9  1  0
  8 10  1  0
 10 11  2  0
 11 12  1  0
 10 13  1  0
 13 14  1  0
 14 15  2  0
 15 16  1  0
 16 17  2  0
 17 18  1  0
 18 19  2  0
 15 20  1  0
 20 21  2  0
 21 22  1  0
 22 23  2  0
 23 24  1  0
 24 25  2  0
 25 26  1  0
 22 27  1  0
 27 28  1  0
 28 29  2  0
 29 30  1  0
 30 31  1  0
 30 32  1  0
 32 33  1  0
 33 34  1  0
 34 35  1  0
 35 36  1  0
 36 37  1  0
 11  3  1  0
 18 13  1  0
 25 20  1  0
 31 27  2  0
 37 32  1  0
  1 38  1  0
  1 39  1  0
  1 40  1  0
  4 41  1  0
  7 42  1  0
  7 43  1  0
  7 44  1  0
 16 45  1  0
 17 46  1  0
 23 47  1  0
 26 48  1  0
 26 49  1  0
 28 50  1  0
 31 51  1  0
 32 52  1  0
 33 53  1  0
 33 54  1  0
 34 55  1  0
 34 56  1  0
 35 57  1  0
 36 58  1  0
 36 59  1  0
 37 60  1  0
 37 61  1  0
M  END
$$$$
