[H]c1c([H])c([H])c(C(F)(F)F)c(-c2c([H])c([H])c(N3C([H])([H])C([H])([H])N(C(=O)N([H])c4c([H])c(F)c([H])c(-c5c([H])c([H])c([H])c(N6C(=O)C([H])([H])C([H])([H])C6([H])[H])c5[H])c4[H])C([H])([H])C3([H])[H])c([H])c2[H])c1[H]
     RDKit          3D

 74 79  0  0  0  0  0  0  0  0999 V2000
    4.5304   -1.6574   -4.2997 F   0  0  0  0  0  0  0  0  0  0  0  0
    4.1556   -1.2032   -3.0754 C   0  0  0  0  0  0  0  0  0  0  0  0
    2.8731   -1.2785   -2.6072 C   0  0  0  0  0  0  0  0  0  0  0  0
    2.5098   -0.8028   -1.3382 C   0  0  0  0  0  0  0  0  0  0  0  0
    1.1480   -0.9436   -0.9703 N   0  0  0  0  0  0  0  0  0  0  0  0
    0.4839   -0.4755    0.1491 C   0  0  0  0  0  0  0  0  0  0  0  0
    1.1186    0.1930    1.0344 O   0  0  0  0  0  0  0  0  0  0  0  0
   -0.8963   -0.7058    0.3680 N   0  0  0  0  0  0  0  0  0  0  0  0
   -1.5248   -0.1899    1.5863 C   0  0  0  0  0  0  0  0  0  0  0  0
   -2.9725   -0.5730    1.6415 C   0  0  0  0  0  0  0  0  0  0  0  0
   -3.6616   -0.3356    0.3909 N   0  0  0  0  0  0  0  0  0  0  0  0
   -2.9093   -0.4539   -0.8447 C   0  0  0  0  0  0  0  0  0  0  0  0
   -1.7326   -1.4133   -0.5443 C   0  0  0  0  0  0  0  0  0  0  0  0
   -5.0376   -0.0053    0.3911 C   0  0  0  0  0  0  0  0  0  0  0  0
   -5.6695    0.3654   -0.7949 C   0  0  0  0  0  0  0  0  0  0  0  0
   -6.9952    0.6847   -0.8425 C   0  0  0  0  0  0  0  0  0  0  0  0
   -7.7723    0.6548    0.2833 C   0  0  0  0  0  0  0  0  0  0  0  0
   -7.1668    0.2908    1.4657 C   0  0  0  0  0  0  0  0  0  0  0  0
   -5.8116   -0.0383    1.5311 C   0  0  0  0  0  0  0  0  0  0  0  0
   -9.1876    0.9936    0.2530 C   0  0  0  0  0  0  0  0  0  0  0  0
   -9.5324    2.3200    0.5849 C   0  0  0  0  0  0  0  0  0  0  0  0
  -10.8550    2.6819    0.5637 C   0  0  0  0  0  0  0  0  0  0  0  0
  -11.8578    1.7761    0.2243 C   0  0  0  0  0  0  0  0  0  0  0  0
  -11.5144    0.4989   -0.0941 C   0  0  0  0  0  0  0  0  0  0  0  0
  -10.1696    0.0967   -0.0817 C   0  0  0  0  0  0  0  0  0  0  0  0
   -9.8405   -1.2857   -0.4272 C   0  0  0  0  0  0  0  0  0  0  0  0
   -9.0404   -1.4394   -1.5302 F   0  0  0  0  0  0  0  0  0  0  0  0
  -11.0114   -1.9886   -0.7070 F   0  0  0  0  0  0  0  0  0  0  0  0
   -9.2198   -1.9557    0.6203 F   0  0  0  0  0  0  0  0  0  0  0  0
    3.5069   -0.2570   -0.5874 C   0  0  0  0  0  0  0  0  0  0  0  0
    4.8267   -0.1541   -1.0113 C   0  0  0  0  0  0  0  0  0  0  0  0
    5.1312   -0.6338   -2.2604 C   0  0  0  0  0  0  0  0  0  0  0  0
    5.8949    0.4287   -0.2171 C   0  0  0  0  0  0  0  0  0  0  0  0
    5.6442    1.4560    0.6690 C   0  0  0  0  0  0  0  0  0  0  0  0
    6.6356    2.0341    1.4314 C   0  0  0  0  0  0  0  0  0  0  0  0
    7.9261    1.5770    1.3115 C   0  0  0  0  0  0  0  0  0  0  0  0
    8.2289    0.5442    0.4325 C   0  0  0  0  0  0  0  0  0  0  0  0
    7.2069   -0.0048   -0.3099 C   0  0  0  0  0  0  0  0  0  0  0  0
    9.5739    0.0680    0.3037 N   0  0  0  0  0  0  0  0  0  0  0  0
   10.2424   -0.3653   -0.8691 C   0  0  0  0  0  0  0  0  0  0  0  0
    9.8645   -0.1655   -2.0667 O   0  0  0  0  0  0  0  0  0  0  0  0
   11.4746   -1.1033   -0.5299 C   0  0  0  0  0  0  0  0  0  0  0  0
   11.6603   -0.8701    0.9263 C   0  0  0  0  0  0  0  0  0  0  0  0
   10.5075   -0.0528    1.3885 C   0  0  0  0  0  0  0  0  0  0  0  0
    2.1475   -1.7318   -3.2851 H   0  0  0  0  0  0  0  0  0  0  0  0
    0.5482   -1.5003   -1.6607 H   0  0  0  0  0  0  0  0  0  0  0  0
   -1.0337   -0.6180    2.4836 H   0  0  0  0  0  0  0  0  0  0  0  0
   -1.4076    0.9161    1.6022 H   0  0  0  0  0  0  0  0  0  0  0  0
   -3.1191   -1.6268    1.9521 H   0  0  0  0  0  0  0  0  0  0  0  0
   -3.4173    0.0373    2.4665 H   0  0  0  0  0  0  0  0  0  0  0  0
   -3.4863   -0.8812   -1.6750 H   0  0  0  0  0  0  0  0  0  0  0  0
   -2.4198    0.4978   -1.1236 H   0  0  0  0  0  0  0  0  0  0  0  0
   -1.3046   -1.7910   -1.4502 H   0  0  0  0  0  0  0  0  0  0  0  0
   -2.2053   -2.2903   -0.0203 H   0  0  0  0  0  0  0  0  0  0  0  0
   -5.0654    0.3913   -1.6832 H   0  0  0  0  0  0  0  0  0  0  0  0
   -7.4081    0.9658   -1.8171 H   0  0  0  0  0  0  0  0  0  0  0  0
   -7.7297    0.2531    2.3683 H   0  0  0  0  0  0  0  0  0  0  0  0
   -5.4046   -0.3146    2.4845 H   0  0  0  0  0  0  0  0  0  0  0  0
   -8.7305    3.0214    0.8506 H   0  0  0  0  0  0  0  0  0  0  0  0
  -11.1458    3.7067    0.8183 H   0  0  0  0  0  0  0  0  0  0  0  0
  -12.8906    2.0963    0.2174 H   0  0  0  0  0  0  0  0  0  0  0  0
  -12.2599   -0.2508   -0.3671 H   0  0  0  0  0  0  0  0  0  0  0  0
    3.3059    0.1220    0.3911 H   0  0  0  0  0  0  0  0  0  0  0  0
    6.1431   -0.5786   -2.6398 H   0  0  0  0  0  0  0  0  0  0  0  0
    4.6095    1.8208    0.7641 H   0  0  0  0  0  0  0  0  0  0  0  0
    6.4382    2.8388    2.1254 H   0  0  0  0  0  0  0  0  0  0  0  0
    8.7613    1.9914    1.8865 H   0  0  0  0  0  0  0  0  0  0  0  0
    7.3913   -0.8091   -1.0064 H   0  0  0  0  0  0  0  0  0  0  0  0
   12.3474   -0.6709   -1.0827 H   0  0  0  0  0  0  0  0  0  0  0  0
   11.3715   -2.1956   -0.6981 H   0  0  0  0  0  0  0  0  0  0  0  0
   11.6778   -1.8215    1.5242 H   0  0  0  0  0  0  0  0  0  0  0  0
   12.6340   -0.3587    1.1449 H   0  0  0  0  0  0  0  0  0  0  0  0
   10.8875    0.9897    1.6015 H   0  0  0  0  0  0  0  0  0  0  0  0
   10.0000   -0.4579    2.2873 H   0  0  0  0  0  0  0  0  0  0  0  0
  1  2  1  0
  2  3  2  0
  3  4  1  0
  4  5  1  0
  5  6  1  0
  6  7  2  0
  6  8  1  0
  8  9  1  0
  9 10  1  0
 10 11  1  0
 11 12  1  0
 12 13  1  0
 11 14  1  0
 14 15  2  0
 15 16  1  0
 16 17  2  0
 17 18  1  0
 18 19  2  0
 17 20  1  0
 20 21  2  0
 21 22  1  0
 22 23  2  0
 23 24  1  0
 24 25  2  0
 25 26  1  0
 26 27  1  0
 26 28  1  0
 26 29  1  0
  4 30  2  0
 30 31  1  0
 31 32  2  0
 31 33  1  0
 33 34  2  0
 34 35  1  0
 35 36  2  0
 36 37  1  0
 37 38  2  0
 37 39  1  0
 39 40  1  0
 40 41  2  0
 40 42  1  0
 42 43  1  0
 43 44  1  0
 32  2  1  0
 38 33  1  0
 44 39  1  0
 13  8  1  0
 19 14  1  0
 25 20  1  0
  3 45  1  0
  5 46  1  0
  9 47  1  0
  9 48  1  0
 10 49  1  0
 10 50  1  0
 12 51  1  0
 12 52  1  0
 13 53  1  0
 13 54  1  0
 15 55  1  0
 16 56  1  0
 18 57  1  0
 19 58  1  0
 21 59  1  0
 22 60  1  0
 23 61  1  0
 24 62  1  0
 30 63  1  0
 32 64  1  0
 34 65  1  0
 35 66  1  0
 36 67  1  0
 38 68  1  0
 42 69  1  0
 42 70  1  0
 43 71  1  0
 43 72  1  0
 44 73  1  0
 44 74  1  0
M  END
$$$$
[H]c1nc([H])c([H])c(C(=O)N([H])c2nnnn2C([H])([H])[H])c1[H]
     RDKit          3D

 23 24  0  0  0  0  0  0  0  0999 V2000
   -3.3875    0.3204   -0.7070 C   0  0  0  0  0  0  0  0  0  0  0  0
   -3.1018   -0.2152    0.5894 N   0  0  0  0  0  0  0  0  0  0  0  0
   -4.0942   -0.5592    1.4296 N   0  0  0  0  0  0  0  0  0  0  0  0
   -3.5598   -1.0092    2.5157 N   0  0  0  0  0  0  0  0  0  0  0  0
   -2.2806   -0.9651    2.4000 N   0  0  0  0  0  0  0  0  0  0  0  0
   -1.9185   -0.4489    1.1472 C   0  0  0  0  0  0  0  0  0  0  0  0
   -0.5816   -0.2935    0.7622 N   0  0  0  0  0  0  0  0  0  0  0  0
    0.0636    0.1632   -0.3450 C   0  0  0  0  0  0  0  0  0  0  0  0
   -0.4642    0.5970   -1.3870 O   0  0  0  0  0  0  0  0  0  0  0  0
    1.5624    0.1720   -0.3816 C   0  0  0  0  0  0  0  0  0  0  0  0
    2.3289    0.1557    0.7426 C   0  0  0  0  0  0  0  0  0  0  0  0
    3.7222    0.1542    0.6240 C   0  0  0  0  0  0  0  0  0  0  0  0
    4.3287    0.1687   -0.5757 N   0  0  0  0  0  0  0  0  0  0  0  0
    3.5937    0.1853   -1.7020 C   0  0  0  0  0  0  0  0  0  0  0  0
    2.2195    0.1868   -1.5951 C   0  0  0  0  0  0  0  0  0  0  0  0
   -3.0195   -0.3764   -1.4800 H   0  0  0  0  0  0  0  0  0  0  0  0
   -4.5281    0.3628   -0.8350 H   0  0  0  0  0  0  0  0  0  0  0  0
   -3.0312    1.3421   -0.8237 H   0  0  0  0  0  0  0  0  0  0  0  0
    0.0994   -0.6273    1.5590 H   0  0  0  0  0  0  0  0  0  0  0  0
    1.9101    0.1486    1.7120 H   0  0  0  0  0  0  0  0  0  0  0  0
    4.3552    0.1412    1.5015 H   0  0  0  0  0  0  0  0  0  0  0  0
    4.1303    0.1966   -2.6397 H   0  0  0  0  0  0  0  0  0  0  0  0
    1.6531    0.2002   -2.5113 H   0  0  0  0  0  0  0  0  0  0  0  0
  1  2  1  0
  2  3  1  0
  3  4  2  0
  4  5  1  0
  5  6  2  0
  6  7  1  0
  7  8  1  0
  8  9  2  0
  8 10  1  0
 10 11  2  0
 11 12  1  0
 12 13  2  0
 13 14  1  0
 14 15  2  0
  6  2  1  0
 15 10  1  0
  1 16  1  0
  1 17  1  0
  1 18  1  0
  7 19  1  0
 11 20  1  0
 12 21  1  0
 14 22  1  0
 15 23  1  0
M  END
$$$$
[H]c1c([H])c([H])c(C2([H])C([H])([H])C([H])([H])N(S(=O)(=O)N([H])C(=O)c3c([H])c([H])c4c(c3[H])OC([H])([H])C([H])([H])N4[H])C([H])([H])C2([H])[H])c([H])c1[H]
     RDKit          3D

 51 54  0  0  0  0  0  0  0  0999 V2000
    0.8777   -3.4543    0.4689 O   0  0  0  0  0  0  0  0  0  0  0  0
    0.5290   -2.0367    0.9174 S   0  0  0  0  0  0  0  0  0  0  0  0
    0.9746   -2.0256    2.3955 O   0  0  0  0  0  0  0  0  0  0  0  0
    1.4636   -0.9682    0.0670 N   0  0  0  0  0  0  0  0  0  0  0  0
    1.5158    0.3917    0.3524 C   0  0  0  0  0  0  0  0  0  0  0  0
    3.0036    0.7458    0.5697 C   0  0  0  0  0  0  0  0  0  0  0  0
    3.7974    0.3387   -0.6538 C   0  0  0  0  0  0  0  0  0  0  0  0
    3.5535   -1.0649   -1.0605 C   0  0  0  0  0  0  0  0  0  0  0  0
    2.0568   -1.3234   -1.1626 C   0  0  0  0  0  0  0  0  0  0  0  0
    5.1965    0.6729   -0.4111 C   0  0  0  0  0  0  0  0  0  0  0  0
    5.9754    0.0352    0.5532 C   0  0  0  0  0  0  0  0  0  0  0  0
    7.2927    0.3616    0.7649 C   0  0  0  0  0  0  0  0  0  0  0  0
    7.8712    1.3709   -0.0182 C   0  0  0  0  0  0  0  0  0  0  0  0
    7.1402    2.0279   -0.9824 C   0  0  0  0  0  0  0  0  0  0  0  0
    5.8063    1.6587   -1.1565 C   0  0  0  0  0  0  0  0  0  0  0  0
   -1.1582   -1.8116    0.9089 N   0  0  0  0  0  0  0  0  0  0  0  0
   -1.8294   -0.9273    0.0436 C   0  0  0  0  0  0  0  0  0  0  0  0
   -1.2638   -0.2148   -0.8173 O   0  0  0  0  0  0  0  0  0  0  0  0
   -3.3047   -0.7866    0.1168 C   0  0  0  0  0  0  0  0  0  0  0  0
   -4.0906   -1.8362    0.4914 C   0  0  0  0  0  0  0  0  0  0  0  0
   -5.4752   -1.6537    0.5670 C   0  0  0  0  0  0  0  0  0  0  0  0
   -6.0443   -0.4111    0.2622 C   0  0  0  0  0  0  0  0  0  0  0  0
   -7.4439   -0.2018    0.3311 N   0  0  0  0  0  0  0  0  0  0  0  0
   -8.0554    1.0905    0.2217 C   0  0  0  0  0  0  0  0  0  0  0  0
   -7.1927    2.1158   -0.4397 C   0  0  0  0  0  0  0  0  0  0  0  0
   -5.8154    1.8499   -0.4104 O   0  0  0  0  0  0  0  0  0  0  0  0
   -5.2382    0.6347   -0.1136 C   0  0  0  0  0  0  0  0  0  0  0  0
   -3.8669    0.4326   -0.1823 C   0  0  0  0  0  0  0  0  0  0  0  0
    1.2662    1.0082   -0.5728 H   0  0  0  0  0  0  0  0  0  0  0  0
    0.9804    0.7565    1.2276 H   0  0  0  0  0  0  0  0  0  0  0  0
    3.0367    1.8518    0.6213 H   0  0  0  0  0  0  0  0  0  0  0  0
    3.4059    0.3382    1.4894 H   0  0  0  0  0  0  0  0  0  0  0  0
    3.4137    0.9872   -1.4862 H   0  0  0  0  0  0  0  0  0  0  0  0
    3.9516   -1.8309   -0.3691 H   0  0  0  0  0  0  0  0  0  0  0  0
    3.9362   -1.2030   -2.1045 H   0  0  0  0  0  0  0  0  0  0  0  0
    1.9451   -2.4014   -1.4313 H   0  0  0  0  0  0  0  0  0  0  0  0
    1.6152   -0.6714   -1.9652 H   0  0  0  0  0  0  0  0  0  0  0  0
    5.5377   -0.7460    1.1594 H   0  0  0  0  0  0  0  0  0  0  0  0
    7.8581   -0.1678    1.5296 H   0  0  0  0  0  0  0  0  0  0  0  0
    8.9028    1.5981    0.1757 H   0  0  0  0  0  0  0  0  0  0  0  0
    7.6224    2.7973   -1.5601 H   0  0  0  0  0  0  0  0  0  0  0  0
    5.2719    2.2235   -1.9407 H   0  0  0  0  0  0  0  0  0  0  0  0
   -1.7024   -2.3931    1.6138 H   0  0  0  0  0  0  0  0  0  0  0  0
   -3.6464   -2.7872    0.7240 H   0  0  0  0  0  0  0  0  0  0  0  0
   -6.1422   -2.4586    0.8581 H   0  0  0  0  0  0  0  0  0  0  0  0
   -8.0682   -1.0364    0.4660 H   0  0  0  0  0  0  0  0  0  0  0  0
   -8.3323    1.4819    1.2314 H   0  0  0  0  0  0  0  0  0  0  0  0
   -9.0243    0.9477   -0.3369 H   0  0  0  0  0  0  0  0  0  0  0  0
   -7.4927    2.2893   -1.5199 H   0  0  0  0  0  0  0  0  0  0  0  0
   -7.3524    3.1157    0.0596 H   0  0  0  0  0  0  0  0  0  0  0  0
   -3.2591    1.2898   -0.4870 H   0  0  0  0  0  0  0  0  0  0  0  0
  1  2  2  0
  2  3  2  0
  2  4  1  0
  4  5  1  0
  5  6  1  0
  6  7  1  0
  7  8  1  0
  8  9  1  0
  7 10  1  0
 10 11  2  0
 11 12  1  0
 12 13  2  0
 13 14  1  0
 14 15  2  0
  2 16  1  0
 16 17  1  0
 17 18  2  0
 17 19  1  0
 19 20  2  0
 20 21  1  0
 21 22  2  0
 22 23  1  0
 23 24  1  0
 24 25  1  0
 25 26  1  0
 26 27  1  0
 27 28  2  0
  9  4  1  0
 15 10  1  0
 28 19  1  0
 27 22  1  0
  5 29  1  0
  5 30  1  0
  6 31  1  0
  6 32  1  0
  7 33  1  0
  8 34  1  0
  8 35  1  0
  9 36  1  0
  9 37  1  0
 11 38  1  0
 12 39  1  0
 13 40  1  0
 14 41  1  0
 15 42  1  0
 16 43  1  0
 20 44  1  0
 21 45  1  0
 23 46  1  0
 24 47  1  0
 24 48  1  0
 25 49  1  0
 25 50  1  0
 28 51  1  0
M  END
$$$$
[H]c1nc(C(=O)N2C([H])([H])C([H])([H])C([H])([H])C2([H])[H])c([H])c([H])c1C#Cc1c([H])c(N([H])C(=O)n2nnc([H])c2[H])c([H])c([H])c1Br
     RDKit          3D

 47 50  0  0  0  0  0  0  0  0999 V2000
    7.7352   -0.8170   -0.7070 O   0  0  0  0  0  0  0  0  0  0  0  0
    7.1268    0.1983   -0.3610 C   0  0  0  0  0  0  0  0  0  0  0  0
    5.8198    0.1945    0.1115 N   0  0  0  0  0  0  0  0  0  0  0  0
    4.9970   -0.9434    0.2758 C   0  0  0  0  0  0  0  0  0  0  0  0
    5.4479   -2.2260    0.2979 C   0  0  0  0  0  0  0  0  0  0  0  0
    4.5882   -3.2742    0.4406 C   0  0  0  0  0  0  0  0  0  0  0  0
    3.2377   -3.0595    0.5669 C   0  0  0  0  0  0  0  0  0  0  0  0
    2.0845   -4.5649    0.7636 Br  0  0  0  0  0  0  0  0  0  0  0  0
    2.7300   -1.7789    0.5513 C   0  0  0  0  0  0  0  0  0  0  0  0
    3.6159   -0.7552    0.4069 C   0  0  0  0  0  0  0  0  0  0  0  0
    1.3243   -1.5241    0.6816 C   0  0  0  0  0  0  0  0  0  0  0  0
    0.1435   -1.3135    0.8118 C   0  0  0  0  0  0  0  0  0  0  0  0
   -1.2574   -1.0474    0.9863 C   0  0  0  0  0  0  0  0  0  0  0  0
   -1.9384   -1.3767    2.1428 C   0  0  0  0  0  0  0  0  0  0  0  0
   -3.2827   -1.1216    2.3106 C   0  0  0  0  0  0  0  0  0  0  0  0
   -4.0046   -0.5099    1.2916 C   0  0  0  0  0  0  0  0  0  0  0  0
   -3.3330   -0.1983    0.1816 N   0  0  0  0  0  0  0  0  0  0  0  0
   -2.0226   -0.4366   -0.0062 C   0  0  0  0  0  0  0  0  0  0  0  0
   -5.4165   -0.2652    1.5225 C   0  0  0  0  0  0  0  0  0  0  0  0
   -5.9614   -0.5995    2.6091 O   0  0  0  0  0  0  0  0  0  0  0  0
   -6.2579    0.3668    0.5277 N   0  0  0  0  0  0  0  0  0  0  0  0
   -5.7891    0.8080   -0.7524 C   0  0  0  0  0  0  0  0  0  0  0  0
   -6.9786    1.4131   -1.4367 C   0  0  0  0  0  0  0  0  0  0  0  0
   -7.9640    1.6926   -0.3134 C   0  0  0  0  0  0  0  0  0  0  0  0
   -7.6622    0.6231    0.6959 C   0  0  0  0  0  0  0  0  0  0  0  0
    7.8780    1.4338   -0.4799 N   0  0  0  0  0  0  0  0  0  0  0  0
    7.3974    2.6480   -0.1557 C   0  0  0  0  0  0  0  0  0  0  0  0
    8.3911    3.5870   -0.3990 C   0  0  0  0  0  0  0  0  0  0  0  0
    9.4284    2.8941   -0.8602 N   0  0  0  0  0  0  0  0  0  0  0  0
    9.1081    1.6148   -0.9027 N   0  0  0  0  0  0  0  0  0  0  0  0
    5.3709    1.1383    0.3897 H   0  0  0  0  0  0  0  0  0  0  0  0
    6.5094   -2.4764    0.2170 H   0  0  0  0  0  0  0  0  0  0  0  0
    4.9637   -4.2739    0.4549 H   0  0  0  0  0  0  0  0  0  0  0  0
    3.2185    0.2573    0.3936 H   0  0  0  0  0  0  0  0  0  0  0  0
   -1.3355   -1.8566    2.9215 H   0  0  0  0  0  0  0  0  0  0  0  0
   -3.7552   -1.4056    3.2430 H   0  0  0  0  0  0  0  0  0  0  0  0
   -1.5297   -0.1613   -0.9297 H   0  0  0  0  0  0  0  0  0  0  0  0
   -4.9759    1.5656   -0.6685 H   0  0  0  0  0  0  0  0  0  0  0  0
   -5.3906   -0.0413   -1.3710 H   0  0  0  0  0  0  0  0  0  0  0  0
   -6.6572    2.3258   -1.9605 H   0  0  0  0  0  0  0  0  0  0  0  0
   -7.3997    0.7152   -2.1948 H   0  0  0  0  0  0  0  0  0  0  0  0
   -7.7341    2.6928    0.0857 H   0  0  0  0  0  0  0  0  0  0  0  0
   -9.0116    1.6678   -0.6535 H   0  0  0  0  0  0  0  0  0  0  0  0
   -7.8908    0.9686    1.7361 H   0  0  0  0  0  0  0  0  0  0  0  0
   -8.2725   -0.3042    0.5103 H   0  0  0  0  0  0  0  0  0  0  0  0
    6.4151    2.8821    0.2288 H   0  0  0  0  0  0  0  0  0  0  0  0
    8.2896    4.6440   -0.2314 H   0  0  0  0  0  0  0  0  0  0  0  0
  1  2  2  0
  2  3  1  0
  3  4  1  0
  4  5  2  0
  5  6  1  0
  6  7  2  0
  7  8  1  0
  7  9  1  0
  9 10  2  0
  9 11  1  0
 11 12  3  0
 12 13  1  0
 13 14  2  0
 14 15  1  0
 15 16  2  0
 16 17  1  0
 17 18  2  0
 16 19  1  0
 19 20  2  0
 19 21  1  0
 21 22  1  0
 22 23  1  0
 23 24  1  0
 24 25  1  0
  2 26  1  0
 26 27  1  0
 27 28  2  0
 28 29  1  0
 29 30  2  0
 10  4  1  0
 18 13  1  0
 25 21  1  0
 30 26  1  0
  3 31  1  0
  5 32  1  0
  6 33  1  0
 10 34  1  0
 14 35  1  0
 15 36  1  0
 18 37  1  0
 22 38  1  0
 22 39  1  0
 23 40  1  0
 23 41  1  0
 24 42  1  0
 24 43  1  0
 25 44  1  0
 25 45  1  0
 27 46  1  0
 28 47  1  0
M  END
$$$$
[H]c1c([H])c([H])c(C([H])(c2c([H])c([H])c(N([H])C(=O)N([H])c3c([H])c([H])c([H])c(C(F)(F)F)c3[H])c([H])c2[H])C([H])([H])[H])c([H])c1[H]
     RDKit          3D

 47 49  0  0  0  0  0  0  0  0999 V2000
   -4.7844   -1.8483   -0.8167 C   0  0  0  0  0  0  0  0  0  0  0  0
   -4.2776   -0.7467    0.1684 C   0  0  0  0  0  0  0  0  0  0  0  0
   -5.2006    0.3639    0.0890 C   0  0  0  0  0  0  0  0  0  0  0  0
   -5.8533    0.7014   -1.0570 C   0  0  0  0  0  0  0  0  0  0  0  0
   -6.7854    1.6917   -1.0812 C   0  0  0  0  0  0  0  0  0  0  0  0
   -7.1256    2.4086    0.0575 C   0  0  0  0  0  0  0  0  0  0  0  0
   -6.4549    2.0570    1.2070 C   0  0  0  0  0  0  0  0  0  0  0  0
   -5.5136    1.0725    1.2710 C   0  0  0  0  0  0  0  0  0  0  0  0
   -2.8399   -0.6030    0.0672 C   0  0  0  0  0  0  0  0  0  0  0  0
   -2.1657   -1.4600   -0.8265 C   0  0  0  0  0  0  0  0  0  0  0  0
   -0.7940   -1.4649   -0.8294 C   0  0  0  0  0  0  0  0  0  0  0  0
   -0.0148   -0.6517    0.0198 C   0  0  0  0  0  0  0  0  0  0  0  0
    1.3237   -0.9225    0.0522 N   0  0  0  0  0  0  0  0  0  0  0  0
    2.5475   -0.2633   -0.0068 C   0  0  0  0  0  0  0  0  0  0  0  0
    2.6359    0.9658   -0.1009 O   0  0  0  0  0  0  0  0  0  0  0  0
    3.7427   -1.0674    0.0477 N   0  0  0  0  0  0  0  0  0  0  0  0
    5.0439   -0.6576    0.0387 C   0  0  0  0  0  0  0  0  0  0  0  0
    6.0654   -1.6517    0.1531 C   0  0  0  0  0  0  0  0  0  0  0  0
    7.3885   -1.4050    0.1608 C   0  0  0  0  0  0  0  0  0  0  0  0
    7.8151   -0.1066    0.0554 C   0  0  0  0  0  0  0  0  0  0  0  0
    6.8734    0.9075   -0.0546 C   0  0  0  0  0  0  0  0  0  0  0  0
    5.5302    0.6301   -0.0595 C   0  0  0  0  0  0  0  0  0  0  0  0
    7.4548    2.2842   -0.1620 C   0  0  0  0  0  0  0  0  0  0  0  0
    7.4039    2.6875   -1.5116 F   0  0  0  0  0  0  0  0  0  0  0  0
    8.8087    2.2890    0.1811 F   0  0  0  0  0  0  0  0  0  0  0  0
    6.7245    3.1975    0.5712 F   0  0  0  0  0  0  0  0  0  0  0  0
   -0.6695    0.1909    0.8806 C   0  0  0  0  0  0  0  0  0  0  0  0
   -2.0703    0.1846    0.8721 C   0  0  0  0  0  0  0  0  0  0  0  0
   -4.3212   -2.7709   -0.5089 H   0  0  0  0  0  0  0  0  0  0  0  0
   -4.5484   -1.5651   -1.8526 H   0  0  0  0  0  0  0  0  0  0  0  0
   -5.8911   -1.9502   -0.6874 H   0  0  0  0  0  0  0  0  0  0  0  0
   -4.5326   -1.2781    1.1719 H   0  0  0  0  0  0  0  0  0  0  0  0
   -5.6222    0.1444   -2.0152 H   0  0  0  0  0  0  0  0  0  0  0  0
   -7.2915    1.9351   -2.0307 H   0  0  0  0  0  0  0  0  0  0  0  0
   -7.8812    3.1810    0.0445 H   0  0  0  0  0  0  0  0  0  0  0  0
   -6.7119    2.6308    2.1355 H   0  0  0  0  0  0  0  0  0  0  0  0
   -4.9944    0.8111    2.2051 H   0  0  0  0  0  0  0  0  0  0  0  0
   -2.7349   -2.0807   -1.4841 H   0  0  0  0  0  0  0  0  0  0  0  0
   -0.2532   -2.1191   -1.5054 H   0  0  0  0  0  0  0  0  0  0  0  0
    1.5047   -2.0491    0.1752 H   0  0  0  0  0  0  0  0  0  0  0  0
    3.5775   -2.1262    0.1204 H   0  0  0  0  0  0  0  0  0  0  0  0
    5.7359   -2.6827    0.2666 H   0  0  0  0  0  0  0  0  0  0  0  0
    8.1324   -2.1855    0.2423 H   0  0  0  0  0  0  0  0  0  0  0  0
    8.8759    0.1295    0.0731 H   0  0  0  0  0  0  0  0  0  0  0  0
    4.8350    1.4769   -0.1531 H   0  0  0  0  0  0  0  0  0  0  0  0
   -0.1366    0.8550    1.5619 H   0  0  0  0  0  0  0  0  0  0  0  0
   -2.5506    0.8606    1.5799 H   0  0  0  0  0  0  0  0  0  0  0  0
  1  2  1  0
  2  3  1  0
  3  4  2  0
  4  5  1  0
  5  6  2  0
  6  7  1  0
  7  8  2  0
  2  9  1  0
  9 10  2  0
 10 11  1  0
 11 12  2  0
 12 13  1  0
 13 14  1  0
 14 15  2  0
 14 16  1  0
 16 17  1  0
 17 18  2  0
 18 19  1  0
 19 20  2  0
 20 21  1  0
 21 22  2  0
 21 23  1  0
 23 24  1  0
 23 25  1  0
 23 26  1  0
 12 27  1  0
 27 28  2  0
  8  3  1  0
 28  9  1  0
 22 17  1  0
  1 29  1  0
  1 30  1  0
  1 31  1  0
  2 32  1  0
  4 33  1  0
  5 34  1  0
  6 35  1  0
  7 36  1  0
  8 37  1  0
 10 38  1  0
 11 39  1  0
 13 40  1  0
 16 41  1  0
 18 42  1  0
 19 43  1  0
 20 44  1  0
 22 45  1  0
 27 46  1  0
 28 47  1  0
M  END
$$$$
[H]N(C([H])([H])[H])C([H])([H])C([H])([H])C([H])([H])C(=O)N1C([H])([H])C([H])([H])C([H])(N2C([H])([H])C([H])([H])C([H])(C([H])([H])N([H])C(=O)N3C([H])([H])C([H])([H])C([H])([H])C([H])([H])C3([H])[H])C([H])([H])C2([H])[H])C([H])([H])C1([H])[H]
     RDKit          3D

 70 72  0  0  0  0  0  0  0  0999 V2000
    7.1654    2.6522    0.8491 C   0  0  0  0  0  0  0  0  0  0  0  0
    7.7205    1.7603    1.8248 N   0  0  0  0  0  0  0  0  0  0  0  0
    8.2200    0.5240    1.3251 C   0  0  0  0  0  0  0  0  0  0  0  0
    7.2224   -0.4682    0.8728 C   0  0  0  0  0  0  0  0  0  0  0  0
    6.2830   -0.0947   -0.2191 C   0  0  0  0  0  0  0  0  0  0  0  0
    5.4424   -1.2826   -0.5215 C   0  0  0  0  0  0  0  0  0  0  0  0
    5.8651   -2.4106   -0.1673 O   0  0  0  0  0  0  0  0  0  0  0  0
    4.2108   -1.1761   -1.1833 N   0  0  0  0  0  0  0  0  0  0  0  0
    3.6010    0.0672   -1.6017 C   0  0  0  0  0  0  0  0  0  0  0  0
    2.0937   -0.1493   -1.4629 C   0  0  0  0  0  0  0  0  0  0  0  0
    1.8655   -0.9921   -0.2244 C   0  0  0  0  0  0  0  0  0  0  0  0
    2.2427   -2.4284   -0.5598 C   0  0  0  0  0  0  0  0  0  0  0  0
    3.4177   -2.3751   -1.5266 C   0  0  0  0  0  0  0  0  0  0  0  0
    0.5442   -0.8713    0.2741 N   0  0  0  0  0  0  0  0  0  0  0  0
   -0.0175   -2.0838    0.7998 C   0  0  0  0  0  0  0  0  0  0  0  0
   -1.1150   -1.6748    1.7608 C   0  0  0  0  0  0  0  0  0  0  0  0
   -2.2265   -1.0548    0.9513 C   0  0  0  0  0  0  0  0  0  0  0  0
   -3.0167   -0.1644    1.8669 C   0  0  0  0  0  0  0  0  0  0  0  0
   -4.1107    0.5154    1.2671 N   0  0  0  0  0  0  0  0  0  0  0  0
   -5.1969   -0.1380    0.6518 C   0  0  0  0  0  0  0  0  0  0  0  0
   -5.2595   -1.4074    0.6002 O   0  0  0  0  0  0  0  0  0  0  0  0
   -6.2554    0.6005    0.0680 N   0  0  0  0  0  0  0  0  0  0  0  0
   -6.2197    2.0448    0.1218 C   0  0  0  0  0  0  0  0  0  0  0  0
   -7.3824    2.5714   -0.7015 C   0  0  0  0  0  0  0  0  0  0  0  0
   -8.7016    2.0487   -0.1814 C   0  0  0  0  0  0  0  0  0  0  0  0
   -8.7044    0.5349   -0.1221 C   0  0  0  0  0  0  0  0  0  0  0  0
   -7.3806   -0.0306   -0.5956 C   0  0  0  0  0  0  0  0  0  0  0  0
   -1.8060   -0.4181   -0.3132 C   0  0  0  0  0  0  0  0  0  0  0  0
   -0.3582   -0.0465   -0.4275 C   0  0  0  0  0  0  0  0  0  0  0  0
    7.3768    2.3223   -0.1955 H   0  0  0  0  0  0  0  0  0  0  0  0
    6.0737    2.8407    0.9856 H   0  0  0  0  0  0  0  0  0  0  0  0
    7.6904    3.6495    0.9961 H   0  0  0  0  0  0  0  0  0  0  0  0
    8.3934    2.2366    2.4495 H   0  0  0  0  0  0  0  0  0  0  0  0
    9.0042    0.7253    0.5217 H   0  0  0  0  0  0  0  0  0  0  0  0
    8.8633    0.0430    2.1348 H   0  0  0  0  0  0  0  0  0  0  0  0
    7.7413   -1.4305    0.5986 H   0  0  0  0  0  0  0  0  0  0  0  0
    6.5613   -0.7721    1.7517 H   0  0  0  0  0  0  0  0  0  0  0  0
    5.5950    0.7255    0.0581 H   0  0  0  0  0  0  0  0  0  0  0  0
    6.8570    0.2011   -1.1358 H   0  0  0  0  0  0  0  0  0  0  0  0
    3.8919    0.3914   -2.6176 H   0  0  0  0  0  0  0  0  0  0  0  0
    3.8398    0.8938   -0.8947 H   0  0  0  0  0  0  0  0  0  0  0  0
    1.6656    0.8610   -1.3003 H   0  0  0  0  0  0  0  0  0  0  0  0
    1.6916   -0.6689   -2.3640 H   0  0  0  0  0  0  0  0  0  0  0  0
    2.5793   -0.6124    0.5274 H   0  0  0  0  0  0  0  0  0  0  0  0
    2.5793   -2.9646    0.3460 H   0  0  0  0  0  0  0  0  0  0  0  0
    1.4033   -2.9969   -1.0118 H   0  0  0  0  0  0  0  0  0  0  0  0
    4.1038   -3.2334   -1.4315 H   0  0  0  0  0  0  0  0  0  0  0  0
    3.1010   -2.3086   -2.5863 H   0  0  0  0  0  0  0  0  0  0  0  0
   -0.4122   -2.7921    0.0804 H   0  0  0  0  0  0  0  0  0  0  0  0
    0.7672   -2.5523    1.4415 H   0  0  0  0  0  0  0  0  0  0  0  0
   -1.5049   -2.5083    2.3659 H   0  0  0  0  0  0  0  0  0  0  0  0
   -0.7122   -0.8713    2.4211 H   0  0  0  0  0  0  0  0  0  0  0  0
   -2.8995   -1.9209    0.6766 H   0  0  0  0  0  0  0  0  0  0  0  0
   -3.4126   -0.8513    2.6751 H   0  0  0  0  0  0  0  0  0  0  0  0
   -2.3541    0.5406    2.4338 H   0  0  0  0  0  0  0  0  0  0  0  0
   -4.1101    1.5653    1.2838 H   0  0  0  0  0  0  0  0  0  0  0  0
   -6.3186    2.3279    1.1788 H   0  0  0  0  0  0  0  0  0  0  0  0
   -5.2890    2.4589   -0.3246 H   0  0  0  0  0  0  0  0  0  0  0  0
   -7.1970    2.2904   -1.7334 H   0  0  0  0  0  0  0  0  0  0  0  0
   -7.4033    3.6666   -0.6313 H   0  0  0  0  0  0  0  0  0  0  0  0
   -8.9354    2.4959    0.7942 H   0  0  0  0  0  0  0  0  0  0  0  0
   -9.4886    2.3577   -0.8980 H   0  0  0  0  0  0  0  0  0  0  0  0
   -8.7855    0.2562    0.9693 H   0  0  0  0  0  0  0  0  0  0  0  0
   -9.5427    0.0605   -0.6305 H   0  0  0  0  0  0  0  0  0  0  0  0
   -7.3843   -1.1346   -0.4924 H   0  0  0  0  0  0  0  0  0  0  0  0
   -7.3605    0.1816   -1.7047 H   0  0  0  0  0  0  0  0  0  0  0  0
   -2.0812   -1.0319   -1.2221 H   0  0  0  0  0  0  0  0  0  0  0  0
   -2.4009    0.5264   -0.4330 H   0  0  0  0  0  0  0  0  0  0  0  0
   -0.1083   -0.0420   -1.5173 H   0  0  0  0  0  0  0  0  0  0  0  0
   -0.2216    1.0213   -0.0950 H   0  0  0  0  0  0  0  0  0  0  0  0
  1  2  1  0
  2  3  1  0
  3  4  1  0
  4  5  1  0
  5  6  1  0
  6  7  2  0
  6  8  1  0
  8  9  1  0
  9 10  1  0
 10 11  1  0
 11 12  1  0
 12 13  1  0
 11 14  1  0
 14 15  1  0
 15 16  1  0
 16 17  1  0
 17 18  1  0
 18 19  1  0
 19 20  1  0
 20 21  2  0
 20 22  1  0
 22 23  1  0
 23 24  1  0
 24 25  1  0
 25 26  1  0
 26 27  1  0
 17 28  1  0
 28 29  1  0
 13  8  1  0
 29 14  1  0
 27 22  1  0
  1 30  1  0
  1 31  1  0
  1 32  1  0
  2 33  1  0
  3 34  1  0
  3 35  1  0
  4 36  1  0
  4 37  1  0
  5 38  1  0
  5 39  1  0
  9 40  1  0
  9 41  1  0
 10 42  1  0
 10 43  1  0
 11 44  1  0
 12 45  1  0
 12 46  1  0
 13 47  1  0
 13 48  1  0
 15 49  1  0
 15 50  1  0
 16 51  1  0
 16 52  1  0
 17 53  1  0
 18 54  1  0
 18 55  1  0
 19 56  1  0
 23 57  1  0
 23 58  1  0
 24 59  1  0
 24 60  1  0
 25 61  1  0
 25 62  1  0
 26 63  1  0
 26 64  1  0
 27 65  1  0
 27 66  1  0
 28 67  1  0
 28 68  1  0
 29 69  1  0
 29 70  1  0
M  END
$$$$
[H]c1nc2c(N([H])c3c([H])c([H])c([H])c(C(F)(F)F)c3[H])nc(-c3c([H])c(F)c(F)c(F)c3[H])c([H])n2c1-c1c([H])c([H])c([H])c([H])c1[H]
     RDKit          3D

 49 53  0  0  0  0  0  0  0  0999 V2000
   -3.5192    5.6882   -1.2731 F   0  0  0  0  0  0  0  0  0  0  0  0
   -2.7962    4.5538   -1.0280 C   0  0  0  0  0  0  0  0  0  0  0  0
   -3.1897    3.3938   -1.6381 C   0  0  0  0  0  0  0  0  0  0  0  0
   -4.2885    3.3828   -2.4540 F   0  0  0  0  0  0  0  0  0  0  0  0
   -2.4886    2.1910   -1.4419 C   0  0  0  0  0  0  0  0  0  0  0  0
   -1.3921    2.1652   -0.6366 C   0  0  0  0  0  0  0  0  0  0  0  0
   -0.9994    3.3652   -0.0203 C   0  0  0  0  0  0  0  0  0  0  0  0
   -1.6775    4.5497   -0.2024 C   0  0  0  0  0  0  0  0  0  0  0  0
   -1.3299    5.7157    0.3838 F   0  0  0  0  0  0  0  0  0  0  0  0
   -0.7529    0.8976   -0.3374 C   0  0  0  0  0  0  0  0  0  0  0  0
   -1.5769   -0.2325   -0.2120 C   0  0  0  0  0  0  0  0  0  0  0  0
   -1.0633   -1.3845    0.1807 N   0  0  0  0  0  0  0  0  0  0  0  0
   -1.6071   -2.5841    0.3807 C   0  0  0  0  0  0  0  0  0  0  0  0
   -0.5737   -3.4285    0.8122 C   0  0  0  0  0  0  0  0  0  0  0  0
    0.5326   -2.7034    0.8443 N   0  0  0  0  0  0  0  0  0  0  0  0
    0.2593   -1.4649    0.4627 C   0  0  0  0  0  0  0  0  0  0  0  0
    1.1159   -0.3675    0.3495 C   0  0  0  0  0  0  0  0  0  0  0  0
    2.4739   -0.5037    0.6408 N   0  0  0  0  0  0  0  0  0  0  0  0
    3.5090    0.4411    0.3876 C   0  0  0  0  0  0  0  0  0  0  0  0
    3.3795    1.4783   -0.4930 C   0  0  0  0  0  0  0  0  0  0  0  0
    4.4697    2.3349   -0.7625 C   0  0  0  0  0  0  0  0  0  0  0  0
    5.6767    2.1362   -0.1448 C   0  0  0  0  0  0  0  0  0  0  0  0
    5.8195    1.0855    0.7540 C   0  0  0  0  0  0  0  0  0  0  0  0
    4.7383    0.2559    1.0066 C   0  0  0  0  0  0  0  0  0  0  0  0
    7.1420    0.8457    1.4188 C   0  0  0  0  0  0  0  0  0  0  0  0
    8.0278    0.3895    0.4274 F   0  0  0  0  0  0  0  0  0  0  0  0
    7.0174   -0.1584    2.3467 F   0  0  0  0  0  0  0  0  0  0  0  0
    7.6862    1.9822    1.9320 F   0  0  0  0  0  0  0  0  0  0  0  0
    0.5252    0.7694   -0.0561 N   0  0  0  0  0  0  0  0  0  0  0  0
   -2.9779   -3.0727    0.2391 C   0  0  0  0  0  0  0  0  0  0  0  0
   -3.9609   -2.4337   -0.4658 C   0  0  0  0  0  0  0  0  0  0  0  0
   -5.2809   -2.9497   -0.5489 C   0  0  0  0  0  0  0  0  0  0  0  0
   -5.6314   -4.1091    0.0737 C   0  0  0  0  0  0  0  0  0  0  0  0
   -4.6445   -4.7588    0.7845 C   0  0  0  0  0  0  0  0  0  0  0  0
   -3.3697   -4.2566    0.8601 C   0  0  0  0  0  0  0  0  0  0  0  0
   -2.8551    1.2901   -1.9772 H   0  0  0  0  0  0  0  0  0  0  0  0
   -0.1305    3.3780    0.5974 H   0  0  0  0  0  0  0  0  0  0  0  0
   -2.6006   -0.1012   -0.4225 H   0  0  0  0  0  0  0  0  0  0  0  0
   -0.6832   -4.4766    1.0643 H   0  0  0  0  0  0  0  0  0  0  0  0
    2.7719   -1.4390    1.1031 H   0  0  0  0  0  0  0  0  0  0  0  0
    2.4642    1.6935   -1.0110 H   0  0  0  0  0  0  0  0  0  0  0  0
    4.3766    3.1562   -1.4495 H   0  0  0  0  0  0  0  0  0  0  0  0
    6.5564    2.7530   -0.3134 H   0  0  0  0  0  0  0  0  0  0  0  0
    4.8915   -0.5415    1.7197 H   0  0  0  0  0  0  0  0  0  0  0  0
   -3.7953   -1.5515   -1.0194 H   0  0  0  0  0  0  0  0  0  0  0  0
   -6.0507   -2.4275   -1.1208 H   0  0  0  0  0  0  0  0  0  0  0  0
   -6.6385   -4.4948   -0.0133 H   0  0  0  0  0  0  0  0  0  0  0  0
   -4.9502   -5.6804    1.2946 H   0  0  0  0  0  0  0  0  0  0  0  0
   -2.6091   -4.7720    1.4358 H   0  0  0  0  0  0  0  0  0  0  0  0
  1  2  1  0
  2  3  2  0
  3  4  1  0
  3  5  1  0
  5  6  2  0
  6  7  1  0
  7  8  2  0
  8  9  1  0
  6 10  1  0
 10 11  2  0
 11 12  1  0
 12 13  1  0
 13 14  2  0
 14 15  1  0
 15 16  2  0
 16 17  1  0
 17 18  1  0
 18 19  1  0
 19 20  2  0
 20 21  1  0
 21 22  2  0
 22 23  1  0
 23 24  2  0
 23 25  1  0
 25 26  1  0
 25 27  1  0
 25 28  1  0
 17 29  2  0
 13 30  1  0
 30 31  2  0
 31 32  1  0
 32 33  2  0
 33 34  1  0
 34 35  2  0
  8  2  1  0
 29 10  1  0
 35 30  1  0
 16 12  1  0
 24 19  1  0
  5 36  1  0
  7 37  1  0
 11 38  1  0
 14 39  1  0
 18 40  1  0
 20 41  1  0
 21 42  1  0
 22 43  1  0
 24 44  1  0
 31 45  1  0
 32 46  1  0
 33 47  1  0
 34 48  1  0
 35 49  1  0
M  END
$$$$
[H]OC([H])([H])C([H])([H])N([H])S(=O)(=O)c1c([H])c(Cl)c(N([H])c2nc([H])c(Cl)c(N([H])C([H])([H])[H])n2)c([H])c1F
     RDKit          3D

 39 40  0  0  0  0  0  0  0  0999 V2000
   -3.9077    0.0721   -1.9938 C   0  0  0  0  0  0  0  0  0  0  0  0
   -4.6900    0.8808   -1.0834 N   0  0  0  0  0  0  0  0  0  0  0  0
   -4.2037    1.2329    0.2001 C   0  0  0  0  0  0  0  0  0  0  0  0
   -2.9983    0.8407    0.6451 N   0  0  0  0  0  0  0  0  0  0  0  0
   -2.4767    1.1288    1.8281 C   0  0  0  0  0  0  0  0  0  0  0  0
   -1.2202    0.7423    2.3403 N   0  0  0  0  0  0  0  0  0  0  0  0
   -0.2275   -0.0366    1.7206 C   0  0  0  0  0  0  0  0  0  0  0  0
   -0.3045   -0.5799    0.4630 C   0  0  0  0  0  0  0  0  0  0  0  0
    0.7239   -1.3508   -0.1013 C   0  0  0  0  0  0  0  0  0  0  0  0
    0.5672   -1.8604   -1.3604 F   0  0  0  0  0  0  0  0  0  0  0  0
    1.8788   -1.6024    0.5930 C   0  0  0  0  0  0  0  0  0  0  0  0
    1.9760   -1.0677    1.8540 C   0  0  0  0  0  0  0  0  0  0  0  0
    0.9629   -0.3137    2.3984 C   0  0  0  0  0  0  0  0  0  0  0  0
    1.1603    0.3382    4.0203 Cl  0  0  0  0  0  0  0  0  0  0  0  0
    3.1555   -2.5596   -0.1215 S   0  0  0  0  0  0  0  0  0  0  0  0
    4.2502   -2.8508    0.8271 O   0  0  0  0  0  0  0  0  0  0  0  0
    2.5708   -3.8869   -0.5759 O   0  0  0  0  0  0  0  0  0  0  0  0
    3.6997   -1.7553   -1.5428 N   0  0  0  0  0  0  0  0  0  0  0  0
    4.2467   -0.4495   -1.2808 C   0  0  0  0  0  0  0  0  0  0  0  0
    4.6834    0.1463   -2.5904 C   0  0  0  0  0  0  0  0  0  0  0  0
    5.2304    1.4258   -2.4183 O   0  0  0  0  0  0  0  0  0  0  0  0
   -3.2745    1.8979    2.6362 N   0  0  0  0  0  0  0  0  0  0  0  0
   -4.4871    2.3287    2.2671 C   0  0  0  0  0  0  0  0  0  0  0  0
   -4.9971    2.0096    1.0294 C   0  0  0  0  0  0  0  0  0  0  0  0
   -6.5723    2.5441    0.4955 Cl  0  0  0  0  0  0  0  0  0  0  0  0
   -4.2475    0.2722   -3.0284 H   0  0  0  0  0  0  0  0  0  0  0  0
   -3.9773   -1.0150   -1.7715 H   0  0  0  0  0  0  0  0  0  0  0  0
   -2.8275    0.3291   -1.8869 H   0  0  0  0  0  0  0  0  0  0  0  0
   -5.6288    1.2138   -1.3703 H   0  0  0  0  0  0  0  0  0  0  0  0
   -0.9697    1.0791    3.3377 H   0  0  0  0  0  0  0  0  0  0  0  0
   -1.1614   -0.4367   -0.1466 H   0  0  0  0  0  0  0  0  0  0  0  0
    2.8761   -1.2557    2.4130 H   0  0  0  0  0  0  0  0  0  0  0  0
    2.8856   -1.6600   -2.1827 H   0  0  0  0  0  0  0  0  0  0  0  0
    5.0940   -0.4863   -0.5761 H   0  0  0  0  0  0  0  0  0  0  0  0
    3.4331    0.1574   -0.8230 H   0  0  0  0  0  0  0  0  0  0  0  0
    3.8279    0.1583   -3.3002 H   0  0  0  0  0  0  0  0  0  0  0  0
    5.4632   -0.5203   -3.0274 H   0  0  0  0  0  0  0  0  0  0  0  0
    4.5951    1.9546   -1.8560 H   0  0  0  0  0  0  0  0  0  0  0  0
   -5.1092    2.9351    2.9116 H   0  0  0  0  0  0  0  0  0  0  0  0
  1  2  1  0
  2  3  1  0
  3  4  2  0
  4  5  1  0
  5  6  1  0
  6  7  1  0
  7  8  2  0
  8  9  1  0
  9 10  1  0
  9 11  2  0
 11 12  1  0
 12 13  2  0
 13 14  1  0
 11 15  1  0
 15 16  2  0
 15 17  2  0
 15 18  1  0
 18 19  1  0
 19 20  1  0
 20 21  1  0
  5 22  2  0
 22 23  1  0
 23 24  2  0
 24 25  1  0
 24  3  1  0
 13  7  1  0
  1 26  1  0
  1 27  1  0
  1 28  1  0
  2 29  1  0
  6 30  1  0
  8 31  1  0
 12 32  1  0
 18 33  1  0
 19 34  1  0
 19 35  1  0
 20 36  1  0
 20 37  1  0
 21 38  1  0
 23 39  1  0
M  END
$$$$
[H]c1nc2c(c([H])c1N1C([H])([H])C([H])([H])N(C(=O)c3c(F)c([H])c([H])c([H])c3Cl)C([H])([H])C1([H])[H])c([H])c([H])n2[H]
     RDKit          3D

 41 44  0  0  0  0  0  0  0  0999 V2000
    4.6669    1.9931   -0.0279 F   0  0  0  0  0  0  0  0  0  0  0  0
    4.8281    0.6422    0.0294 C   0  0  0  0  0  0  0  0  0  0  0  0
    5.9538    0.1021   -0.5619 C   0  0  0  0  0  0  0  0  0  0  0  0
    6.0832   -1.2643   -0.4845 C   0  0  0  0  0  0  0  0  0  0  0  0
    5.1574   -2.0598    0.1400 C   0  0  0  0  0  0  0  0  0  0  0  0
    4.0491   -1.4900    0.7180 C   0  0  0  0  0  0  0  0  0  0  0  0
    2.8484   -2.5198    1.5277 Cl  0  0  0  0  0  0  0  0  0  0  0  0
    3.8843   -0.1306    0.6618 C   0  0  0  0  0  0  0  0  0  0  0  0
    2.7211    0.5004    1.2647 C   0  0  0  0  0  0  0  0  0  0  0  0
    2.8424    0.8522    2.4779 O   0  0  0  0  0  0  0  0  0  0  0  0
    1.5183    0.7140    0.5470 N   0  0  0  0  0  0  0  0  0  0  0  0
    1.4230    0.3004   -0.8254 C   0  0  0  0  0  0  0  0  0  0  0  0
    0.0486   -0.2094   -1.1745 C   0  0  0  0  0  0  0  0  0  0  0  0
   -1.0054    0.5680   -0.5078 N   0  0  0  0  0  0  0  0  0  0  0  0
   -0.5958    1.7651    0.1438 C   0  0  0  0  0  0  0  0  0  0  0  0
    0.4087    1.3511    1.2296 C   0  0  0  0  0  0  0  0  0  0  0  0
   -2.3358    0.0957   -0.5504 C   0  0  0  0  0  0  0  0  0  0  0  0
   -2.6467   -1.0711   -1.2426 C   0  0  0  0  0  0  0  0  0  0  0  0
   -3.9061   -1.5367   -1.2935 N   0  0  0  0  0  0  0  0  0  0  0  0
   -4.9307   -0.9168   -0.6896 C   0  0  0  0  0  0  0  0  0  0  0  0
   -6.2568   -1.1736   -0.5923 N   0  0  0  0  0  0  0  0  0  0  0  0
   -6.8701   -0.2361    0.1352 C   0  0  0  0  0  0  0  0  0  0  0  0
   -5.8988    0.6577    0.5199 C   0  0  0  0  0  0  0  0  0  0  0  0
   -4.6922    0.2430    0.0125 C   0  0  0  0  0  0  0  0  0  0  0  0
   -3.3802    0.7278    0.0652 C   0  0  0  0  0  0  0  0  0  0  0  0
    6.6877    0.7061   -1.0540 H   0  0  0  0  0  0  0  0  0  0  0  0
    6.9671   -1.7139   -0.9460 H   0  0  0  0  0  0  0  0  0  0  0  0
    5.2788   -3.1514    0.1914 H   0  0  0  0  0  0  0  0  0  0  0  0
    1.6047    1.2166   -1.4576 H   0  0  0  0  0  0  0  0  0  0  0  0
    2.1430   -0.4886   -1.0943 H   0  0  0  0  0  0  0  0  0  0  0  0
   -0.0898   -0.0821   -2.2674 H   0  0  0  0  0  0  0  0  0  0  0  0
   -0.0516   -1.2913   -0.8980 H   0  0  0  0  0  0  0  0  0  0  0  0
   -1.3699    2.4091    0.5457 H   0  0  0  0  0  0  0  0  0  0  0  0
    0.0233    2.3702   -0.5853 H   0  0  0  0  0  0  0  0  0  0  0  0
    0.7232    2.2151    1.8209 H   0  0  0  0  0  0  0  0  0  0  0  0
   -0.0593    0.5966    1.9140 H   0  0  0  0  0  0  0  0  0  0  0  0
   -1.8683   -1.6222   -1.7537 H   0  0  0  0  0  0  0  0  0  0  0  0
   -6.6873   -2.0117   -1.0483 H   0  0  0  0  0  0  0  0  0  0  0  0
   -7.9400   -0.2296    0.3518 H   0  0  0  0  0  0  0  0  0  0  0  0
   -6.0531    1.5393    1.1201 H   0  0  0  0  0  0  0  0  0  0  0  0
   -3.2235    1.6335    0.6200 H   0  0  0  0  0  0  0  0  0  0  0  0
  1  2  1  0
  2  3  2  0
  3  4  1  0
  4  5  2  0
  5  6  1  0
  6  7  1  0
  6  8  2  0
  8  9  1  0
  9 10  2  0
  9 11  1  0
 11 12  1  0
 12 13  1  0
 13 14  1  0
 14 15  1  0
 15 16  1  0
 14 17  1  0
 17 18  2  0
 18 19  1  0
 19 20  2  0
 20 21  1  0
 21 22  1  0
 22 23  2  0
 23 24  1  0
 24 25  2  0
  8  2  1  0
 16 11  1  0
 25 17  1  0
 24 20  1  0
  3 26  1  0
  4 27  1  0
  5 28  1  0
 12 29  1  0
 12 30  1  0
 13 31  1  0
 13 32  1  0
 15 33  1  0
 15 34  1  0
 16 35  1  0
 16 36  1  0
 18 37  1  0
 21 38  1  0
 22 39  1  0
 23 40  1  0
 25 41  1  0
M  END
$$$$
[H]c1c([H])c([H])c(C([H])([H])C#Cc2nc3c([H])c([H])c(C(=O)N([H])[H])c([H])c3s2)c([H])c1[H]
     RDKit          3D

 33 35  0  0  0  0  0  0  0  0999 V2000
   -7.3541   -0.1672    0.4798 N   0  0  0  0  0  0  0  0  0  0  0  0
   -6.5365    0.6295   -0.3555 C   0  0  0  0  0  0  0  0  0  0  0  0
   -7.0862    1.4860   -1.0912 O   0  0  0  0  0  0  0  0  0  0  0  0
   -5.0920    0.5121   -0.4098 C   0  0  0  0  0  0  0  0  0  0  0  0
   -4.3170    1.3068   -1.2383 C   0  0  0  0  0  0  0  0  0  0  0  0
   -2.9674    1.2233   -1.3135 C   0  0  0  0  0  0  0  0  0  0  0  0
   -2.2557    0.2947   -0.5290 C   0  0  0  0  0  0  0  0  0  0  0  0
   -0.9642    0.1237   -0.5161 N   0  0  0  0  0  0  0  0  0  0  0  0
   -0.4189   -0.7781    0.2625 C   0  0  0  0  0  0  0  0  0  0  0  0
   -1.7957   -1.4490    1.0438 S   0  0  0  0  0  0  0  0  0  0  0  0
   -3.0074   -0.4993    0.2963 C   0  0  0  0  0  0  0  0  0  0  0  0
   -4.4005   -0.4017    0.3633 C   0  0  0  0  0  0  0  0  0  0  0  0
    0.9866   -1.1284    0.4295 C   0  0  0  0  0  0  0  0  0  0  0  0
    2.1415   -1.4321    0.5820 C   0  0  0  0  0  0  0  0  0  0  0  0
    3.5515   -1.7992    0.7785 C   0  0  0  0  0  0  0  0  0  0  0  0
    4.4424   -0.7260    0.3193 C   0  0  0  0  0  0  0  0  0  0  0  0
    4.8851   -0.7052   -0.9757 C   0  0  0  0  0  0  0  0  0  0  0  0
    5.7350    0.3040   -1.4441 C   0  0  0  0  0  0  0  0  0  0  0  0
    6.1241    1.2892   -0.5691 C   0  0  0  0  0  0  0  0  0  0  0  0
    5.6908    1.2832    0.7285 C   0  0  0  0  0  0  0  0  0  0  0  0
    4.8380    0.2615    1.1795 C   0  0  0  0  0  0  0  0  0  0  0  0
   -7.6421    0.2245    1.4131 H   0  0  0  0  0  0  0  0  0  0  0  0
   -7.6999   -1.1156    0.2519 H   0  0  0  0  0  0  0  0  0  0  0  0
   -4.8504    2.0236   -1.8458 H   0  0  0  0  0  0  0  0  0  0  0  0
   -2.4455    1.8988   -2.0022 H   0  0  0  0  0  0  0  0  0  0  0  0
   -4.9169   -1.0600    1.0353 H   0  0  0  0  0  0  0  0  0  0  0  0
    3.7172   -2.7189    0.1666 H   0  0  0  0  0  0  0  0  0  0  0  0
    3.7239   -2.0910    1.8355 H   0  0  0  0  0  0  0  0  0  0  0  0
    4.5637   -1.4963   -1.6510 H   0  0  0  0  0  0  0  0  0  0  0  0
    6.0573    0.2830   -2.4623 H   0  0  0  0  0  0  0  0  0  0  0  0
    6.7812    2.0891   -0.8906 H   0  0  0  0  0  0  0  0  0  0  0  0
    6.0061    2.0654    1.4036 H   0  0  0  0  0  0  0  0  0  0  0  0
    4.5060    0.2697    2.2002 H   0  0  0  0  0  0  0  0  0  0  0  0
  1  2  1  0
  2  3  2  0
  2  4  1  0
  4  5  2  0
  5  6  1  0
  6  7  2  0
  7  8  1  0
  8  9  2  0
  9 10  1  0
 10 11  1  0
 11 12  2  0
  9 13  1  0
 13 14  3  0
 14 15  1  0
 15 16  1  0
 16 17  2  0
 17 18  1  0
 18 19  2  0
 19 20  1  0
 20 21  2  0
 12  4  1  0
 21 16  1  0
 11  7  1  0
  1 22  1  0
  1 23  1  0
  5 24  1  0
  6 25  1  0
 12 26  1  0
 15 27  1  0
 15 28  1  0
 17 29  1  0
 18 30  1  0
 19 31  1  0
 20 32  1  0
 21 33  1  0
M  END
$$$$
[H]c1c([H])c([H])c(C(=O)N([H])[C@]2([H])C([H])([H])[C@@]([H])(N([H])C(=O)c3nc(N([H])[H])nc(C(F)(F)F)c3-c3c([H])c([H])c(F)c([H])c3[H])C([H])([H])[C@]2([H])C([H])([H])[H])c([H])c1[H]
     RDKit          3D

 59 62  0  0  0  0  0  0  0  0999 V2000
    2.9917   -2.1040    1.6944 C   0  0  0  0  0  0  0  0  0  0  0  0
    1.9826   -1.4667    0.7942 C   0  0  1  0  0  0  0  0  0  0  0  0
    1.1271   -0.4370    1.4615 C   0  0  0  0  0  0  0  0  0  0  0  0
    0.3926    0.1634    0.2796 C   0  0  2  0  0  0  0  0  0  0  0  0
   -0.7587   -0.6629   -0.0114 N   0  0  0  0  0  0  0  0  0  0  0  0
   -2.1009   -0.1268    0.0805 C   0  0  0  0  0  0  0  0  0  0  0  0
   -2.2579    1.0592    0.4143 O   0  0  0  0  0  0  0  0  0  0  0  0
   -3.1817   -1.0203   -0.2265 C   0  0  0  0  0  0  0  0  0  0  0  0
   -2.9154   -2.3300   -0.5685 N   0  0  0  0  0  0  0  0  0  0  0  0
   -3.8988   -3.1908   -0.8565 C   0  0  0  0  0  0  0  0  0  0  0  0
   -3.5330   -4.5196   -1.1984 N   0  0  0  0  0  0  0  0  0  0  0  0
   -5.1733   -2.7740   -0.8125 N   0  0  0  0  0  0  0  0  0  0  0  0
   -5.4969   -1.4908   -0.4809 C   0  0  0  0  0  0  0  0  0  0  0  0
   -4.4906   -0.6101   -0.1866 C   0  0  0  0  0  0  0  0  0  0  0  0
   -4.8061    0.7559    0.1455 C   0  0  0  0  0  0  0  0  0  0  0  0
   -4.8557    1.7047   -0.8823 C   0  0  0  0  0  0  0  0  0  0  0  0
   -5.1462    3.0296   -0.6726 C   0  0  0  0  0  0  0  0  0  0  0  0
   -5.4042    3.4729    0.5915 C   0  0  0  0  0  0  0  0  0  0  0  0
   -5.6888    4.7746    0.7893 F   0  0  0  0  0  0  0  0  0  0  0  0
   -5.3622    2.5532    1.6333 C   0  0  0  0  0  0  0  0  0  0  0  0
   -5.0697    1.2295    1.4079 C   0  0  0  0  0  0  0  0  0  0  0  0
   -6.9178   -1.1169   -0.4491 C   0  0  0  0  0  0  0  0  0  0  0  0
   -7.2741   -0.0956   -1.2828 F   0  0  0  0  0  0  0  0  0  0  0  0
   -7.2554   -0.7684    0.8398 F   0  0  0  0  0  0  0  0  0  0  0  0
   -7.7203   -2.2476   -0.7146 F   0  0  0  0  0  0  0  0  0  0  0  0
    1.4111    0.1566   -0.8233 C   0  0  0  0  0  0  0  0  0  0  0  0
    2.5239   -0.7767   -0.3933 C   0  0  1  0  0  0  0  0  0  0  0  0
    3.6980    0.0191   -0.1852 N   0  0  0  0  0  0  0  0  0  0  0  0
    4.9206   -0.0943   -0.8251 C   0  0  0  0  0  0  0  0  0  0  0  0
    5.0878   -0.9739   -1.6985 O   0  0  0  0  0  0  0  0  0  0  0  0
    6.0277    0.7793   -0.5166 C   0  0  0  0  0  0  0  0  0  0  0  0
    5.9841    1.7914    0.4008 C   0  0  0  0  0  0  0  0  0  0  0  0
    7.0774    2.5925    0.6520 C   0  0  0  0  0  0  0  0  0  0  0  0
    8.2649    2.4068   -0.0130 C   0  0  0  0  0  0  0  0  0  0  0  0
    8.3371    1.3896   -0.9470 C   0  0  0  0  0  0  0  0  0  0  0  0
    7.2399    0.6058   -1.1812 C   0  0  0  0  0  0  0  0  0  0  0  0
    2.5192   -2.3233    2.6758 H   0  0  0  0  0  0  0  0  0  0  0  0
    3.3116   -3.0683    1.2752 H   0  0  0  0  0  0  0  0  0  0  0  0
    3.8538   -1.4312    1.9265 H   0  0  0  0  0  0  0  0  0  0  0  0
    1.2999   -2.2790    0.4380 H   0  0  0  0  0  0  0  0  0  0  0  0
    1.7632    0.3536    1.8844 H   0  0  0  0  0  0  0  0  0  0  0  0
    0.4348   -0.8539    2.2162 H   0  0  0  0  0  0  0  0  0  0  0  0
    0.0546    1.1784    0.5570 H   0  0  0  0  0  0  0  0  0  0  0  0
   -0.6776   -1.6546   -0.2929 H   0  0  0  0  0  0  0  0  0  0  0  0
   -3.6252   -5.2501   -0.4664 H   0  0  0  0  0  0  0  0  0  0  0  0
   -3.1805   -4.8029   -2.1319 H   0  0  0  0  0  0  0  0  0  0  0  0
   -4.6555    1.3795   -1.8915 H   0  0  0  0  0  0  0  0  0  0  0  0
   -5.1768    3.7418   -1.4931 H   0  0  0  0  0  0  0  0  0  0  0  0
   -5.5741    2.9538    2.6190 H   0  0  0  0  0  0  0  0  0  0  0  0
   -5.0452    0.5550    2.2248 H   0  0  0  0  0  0  0  0  0  0  0  0
    1.0064   -0.1489   -1.7924 H   0  0  0  0  0  0  0  0  0  0  0  0
    1.7683    1.2064   -0.9440 H   0  0  0  0  0  0  0  0  0  0  0  0
    2.7486   -1.5291   -1.1766 H   0  0  0  0  0  0  0  0  0  0  0  0
    3.5802    0.7639    0.5439 H   0  0  0  0  0  0  0  0  0  0  0  0
    5.0929    1.9964    0.9582 H   0  0  0  0  0  0  0  0  0  0  0  0
    7.0068    3.3913    1.3913 H   0  0  0  0  0  0  0  0  0  0  0  0
    9.1204    3.0505    0.1986 H   0  0  0  0  0  0  0  0  0  0  0  0
    9.2904    1.2661   -1.4579 H   0  0  0  0  0  0  0  0  0  0  0  0
    7.3251   -0.1731   -1.9088 H   0  0  0  0  0  0  0  0  0  0  0  0
  1  2  1  0
  2  3  1  0
  3  4  1  0
  4  5  1  0
  5  6  1  0
  6  7  2  0
  6  8  1  0
  8  9  2  0
  9 10  1  0
 10 11  1  0
 10 12  2  0
 12 13  1  0
 13 14  2  0
 14 15  1  0
 15 16  2  0
 16 17  1  0
 17 18  2  0
 18 19  1  0
 18 20  1  0
 20 21  2  0
 13 22  1  0
 22 23  1  0
 22 24  1  0
 22 25  1  0
  4 26  1  0
 26 27  1  0
 27 28  1  0
 28 29  1  0
 29 30  2  0
 29 31  1  0
 31 32  2  0
 32 33  1  0
 33 34  2  0
 34 35  1  0
 35 36  2  0
 27  2  1  0
 36 31  1  0
 14  8  1  0
 21 15  1  0
  1 37  1  0
  1 38  1  0
  1 39  1  0
  2 40  1  6
  3 41  1  0
  3 42  1  0
  4 43  1  1
  5 44  1  0
 11 45  1  0
 11 46  1  0
 16 47  1  0
 17 48  1  0
 20 49  1  0
 21 50  1  0
 26 51  1  0
 26 52  1  0
 27 53  1  6
 28 54  1  0
 32 55  1  0
 33 56  1  0
 34 57  1  0
 35 58  1  0
 36 59  1  0
M  END
$$$$
[H]c1c([H])c(N([H])C(=O)N([H])C([H])([H])C([H])([H])[H])c([H])c(-n2c([H])c(C(=O)N([H])[H])c([H])c2C(=O)N([H])c2c([H])c([H])c([H])c(C(F)(F)F)c2[H])c1[H]
     RDKit          3D

 53 55  0  0  0  0  0  0  0  0999 V2000
    7.8313    1.4376    0.4886 C   0  0  0  0  0  0  0  0  0  0  0  0
    7.1080    2.7828    0.5036 C   0  0  0  0  0  0  0  0  0  0  0  0
    5.6994    2.5658    0.8287 N   0  0  0  0  0  0  0  0  0  0  0  0
    4.8998    1.7532   -0.0207 C   0  0  0  0  0  0  0  0  0  0  0  0
    5.4170    1.2560   -1.0335 O   0  0  0  0  0  0  0  0  0  0  0  0
    3.5383    1.4980    0.2578 N   0  0  0  0  0  0  0  0  0  0  0  0
    2.6778    0.7126   -0.5299 C   0  0  0  0  0  0  0  0  0  0  0  0
    2.7876    0.7284   -1.8970 C   0  0  0  0  0  0  0  0  0  0  0  0
    1.9983   -0.0869   -2.6913 C   0  0  0  0  0  0  0  0  0  0  0  0
    1.0967   -0.9177   -2.0911 C   0  0  0  0  0  0  0  0  0  0  0  0
    0.9378   -0.9793   -0.7092 C   0  0  0  0  0  0  0  0  0  0  0  0
    1.7463   -0.1468    0.0351 C   0  0  0  0  0  0  0  0  0  0  0  0
    0.0144   -1.9084   -0.1532 N   0  0  0  0  0  0  0  0  0  0  0  0
    0.4116   -3.1501    0.2520 C   0  0  0  0  0  0  0  0  0  0  0  0
   -0.6630   -3.8645    0.7324 C   0  0  0  0  0  0  0  0  0  0  0  0
   -1.7473   -2.9891    0.6000 C   0  0  0  0  0  0  0  0  0  0  0  0
   -1.2996   -1.8107    0.0606 C   0  0  0  0  0  0  0  0  0  0  0  0
   -2.1469   -0.6374   -0.2035 C   0  0  0  0  0  0  0  0  0  0  0  0
   -1.5921    0.4158   -0.6120 O   0  0  0  0  0  0  0  0  0  0  0  0
   -3.5243   -0.7321    0.0030 N   0  0  0  0  0  0  0  0  0  0  0  0
   -4.5118    0.2566   -0.1715 C   0  0  0  0  0  0  0  0  0  0  0  0
   -5.8261   -0.0354    0.2117 C   0  0  0  0  0  0  0  0  0  0  0  0
   -6.8538    0.8537    0.1050 C   0  0  0  0  0  0  0  0  0  0  0  0
   -6.6535    2.1188   -0.3942 C   0  0  0  0  0  0  0  0  0  0  0  0
   -5.3723    2.4309   -0.7770 C   0  0  0  0  0  0  0  0  0  0  0  0
   -4.3230    1.5208   -0.6689 C   0  0  0  0  0  0  0  0  0  0  0  0
   -5.1569    3.8037   -1.3162 C   0  0  0  0  0  0  0  0  0  0  0  0
   -5.4659    4.6783   -0.2703 F   0  0  0  0  0  0  0  0  0  0  0  0
   -6.0263    4.0880   -2.3486 F   0  0  0  0  0  0  0  0  0  0  0  0
   -3.8708    4.0259   -1.7117 F   0  0  0  0  0  0  0  0  0  0  0  0
   -0.6674   -5.2218    1.2683 C   0  0  0  0  0  0  0  0  0  0  0  0
   -1.6599   -6.1196    0.8478 N   0  0  0  0  0  0  0  0  0  0  0  0
    0.2006   -5.5830    2.0899 O   0  0  0  0  0  0  0  0  0  0  0  0
    7.1054    0.5965    0.6185 H   0  0  0  0  0  0  0  0  0  0  0  0
    8.5555    1.3449    1.3506 H   0  0  0  0  0  0  0  0  0  0  0  0
    8.4127    1.2830   -0.4400 H   0  0  0  0  0  0  0  0  0  0  0  0
    7.2284    3.3186   -0.4766 H   0  0  0  0  0  0  0  0  0  0  0  0
    7.5769    3.3768    1.3098 H   0  0  0  0  0  0  0  0  0  0  0  0
    5.2870    3.0007    1.6810 H   0  0  0  0  0  0  0  0  0  0  0  0
    3.1270    1.9225    1.1303 H   0  0  0  0  0  0  0  0  0  0  0  0
    3.4745    1.3771   -2.4381 H   0  0  0  0  0  0  0  0  0  0  0  0
    2.1180   -0.0426   -3.7824 H   0  0  0  0  0  0  0  0  0  0  0  0
    0.4797   -1.5547   -2.6892 H   0  0  0  0  0  0  0  0  0  0  0  0
    1.6383   -0.1719    1.1106 H   0  0  0  0  0  0  0  0  0  0  0  0
    1.4214   -3.5377    0.2123 H   0  0  0  0  0  0  0  0  0  0  0  0
   -2.7503   -3.3048    0.9058 H   0  0  0  0  0  0  0  0  0  0  0  0
   -3.8600   -1.6875    0.3426 H   0  0  0  0  0  0  0  0  0  0  0  0
   -6.0579   -1.0279    0.6171 H   0  0  0  0  0  0  0  0  0  0  0  0
   -7.8809    0.6194    0.4056 H   0  0  0  0  0  0  0  0  0  0  0  0
   -7.4765    2.8270   -0.4673 H   0  0  0  0  0  0  0  0  0  0  0  0
   -3.3524    1.8223   -0.9791 H   0  0  0  0  0  0  0  0  0  0  0  0
   -1.6843   -6.4369   -0.1412 H   0  0  0  0  0  0  0  0  0  0  0  0
   -2.3663   -6.4688    1.5151 H   0  0  0  0  0  0  0  0  0  0  0  0
  1  2  1  0
  2  3  1  0
  3  4  1  0
  4  5  2  0
  4  6  1  0
  6  7  1  0
  7  8  2  0
  8  9  1  0
  9 10  2  0
 10 11  1  0
 11 12  2  0
 11 13  1  0
 13 14  1  0
 14 15  2  0
 15 16  1  0
 16 17  2  0
 17 18  1  0
 18 19  2  0
 18 20  1  0
 20 21  1  0
 21 22  2  0
 22 23  1  0
 23 24  2  0
 24 25  1  0
 25 26  2  0
 25 27  1  0
 27 28  1  0
 27 29  1  0
 27 30  1  0
 15 31  1  0
 31 32  1  0
 31 33  2  0
 12  7  1  0
 17 13  1  0
 26 21  1  0
  1 34  1  0
  1 35  1  0
  1 36  1  0
  2 37  1  0
  2 38  1  0
  3 39  1  0
  6 40  1  0
  8 41  1  0
  9 42  1  0
 10 43  1  0
 12 44  1  0
 14 45  1  0
 16 46  1  0
 20 47  1  0
 22 48  1  0
 23 49  1  0
 24 50  1  0
 26 51  1  0
 32 52  1  0
 32 53  1  0
M  END
$$$$
[H]C1=NN([H])C([H])=C(C(F)(F)F)C([H])=C1C(=O)N1C([H])([H])C([H])([H])N(C(=O)c2c([H])c([H])c(-c3c([H])c([H])c4c(c([H])nn4[H])c3[H])c([H])c2[H])C([H])([H])C1([H])[H]
     RDKit          3D

 57 61  0  0  0  0  0  0  0  0999 V2000
    6.5982   -2.6334   -0.7580 F   0  0  0  0  0  0  0  0  0  0  0  0
    7.5532   -1.8754   -0.1088 C   0  0  0  0  0  0  0  0  0  0  0  0
    7.4401   -2.0009    1.2704 F   0  0  0  0  0  0  0  0  0  0  0  0
    8.7955   -2.2719   -0.5602 F   0  0  0  0  0  0  0  0  0  0  0  0
    7.3323   -0.4343   -0.4125 C   0  0  0  0  0  0  0  0  0  0  0  0
    6.0025    0.0809    0.0019 C   0  0  0  0  0  0  0  0  0  0  0  0
    5.5567    1.3099    0.1414 C   0  0  0  0  0  0  0  0  0  0  0  0
    6.4373    2.4820   -0.1363 C   0  0  0  0  0  0  0  0  0  0  0  0
    7.5621    2.5813   -0.7591 N   0  0  0  0  0  0  0  0  0  0  0  0
    8.3049    1.5684   -1.3766 N   0  0  0  0  0  0  0  0  0  0  0  0
    8.3385    0.1763   -1.0078 C   0  0  0  0  0  0  0  0  0  0  0  0
    4.2230    1.6035    0.5988 C   0  0  0  0  0  0  0  0  0  0  0  0
    3.9961    2.9112    0.6030 O   0  0  0  0  0  0  0  0  0  0  0  0
    3.1477    0.8708    1.0234 N   0  0  0  0  0  0  0  0  0  0  0  0
    2.9221   -0.5248    1.2877 C   0  0  0  0  0  0  0  0  0  0  0  0
    2.1442   -1.0124    0.0847 C   0  0  0  0  0  0  0  0  0  0  0  0
    0.7890   -0.3963    0.2034 N   0  0  0  0  0  0  0  0  0  0  0  0
    0.7014    0.9653    0.5668 C   0  0  0  0  0  0  0  0  0  0  0  0
    1.8700    1.6323    1.2210 C   0  0  0  0  0  0  0  0  0  0  0  0
   -0.3028   -1.2489   -0.0036 C   0  0  0  0  0  0  0  0  0  0  0  0
    0.0611   -2.5029   -0.1978 O   0  0  0  0  0  0  0  0  0  0  0  0
   -1.7047   -0.9676   -0.0312 C   0  0  0  0  0  0  0  0  0  0  0  0
   -2.5764   -2.0893    0.0528 C   0  0  0  0  0  0  0  0  0  0  0  0
   -3.9258   -1.9552   -0.0241 C   0  0  0  0  0  0  0  0  0  0  0  0
   -4.4655   -0.6934   -0.1887 C   0  0  0  0  0  0  0  0  0  0  0  0
   -3.6770    0.4261   -0.2772 C   0  0  0  0  0  0  0  0  0  0  0  0
   -2.2819    0.2501   -0.1944 C   0  0  0  0  0  0  0  0  0  0  0  0
   -5.8981   -0.5210   -0.2741 C   0  0  0  0  0  0  0  0  0  0  0  0
   -6.6905   -1.4975   -0.8322 C   0  0  0  0  0  0  0  0  0  0  0  0
   -8.0626   -1.3566   -0.9262 C   0  0  0  0  0  0  0  0  0  0  0  0
   -8.6653   -0.2242   -0.4574 C   0  0  0  0  0  0  0  0  0  0  0  0
   -9.9457    0.1953   -0.4077 N   0  0  0  0  0  0  0  0  0  0  0  0
   -9.9465    1.3726    0.1531 N   0  0  0  0  0  0  0  0  0  0  0  0
   -8.7174    1.7794    0.4912 C   0  0  0  0  0  0  0  0  0  0  0  0
   -7.8728    0.7624    0.1056 C   0  0  0  0  0  0  0  0  0  0  0  0
   -6.4844    0.6154    0.1985 C   0  0  0  0  0  0  0  0  0  0  0  0
    5.2688   -0.6671    0.1950 H   0  0  0  0  0  0  0  0  0  0  0  0
    6.0591    3.4064    0.2629 H   0  0  0  0  0  0  0  0  0  0  0  0
    8.9124    1.7918   -2.1852 H   0  0  0  0  0  0  0  0  0  0  0  0
    9.2338   -0.3795   -1.2344 H   0  0  0  0  0  0  0  0  0  0  0  0
    3.7463   -1.1599    1.5323 H   0  0  0  0  0  0  0  0  0  0  0  0
    2.1566   -0.5829    2.1653 H   0  0  0  0  0  0  0  0  0  0  0  0
    2.0822   -2.1041    0.0633 H   0  0  0  0  0  0  0  0  0  0  0  0
    2.5785   -0.5556   -0.8119 H   0  0  0  0  0  0  0  0  0  0  0  0
    0.5015    1.5695   -0.3687 H   0  0  0  0  0  0  0  0  0  0  0  0
   -0.2089    1.1443    1.2235 H   0  0  0  0  0  0  0  0  0  0  0  0
    1.6880    1.6288    2.3244 H   0  0  0  0  0  0  0  0  0  0  0  0
    2.0113    2.6367    0.8516 H   0  0  0  0  0  0  0  0  0  0  0  0
   -2.1640   -3.0863    0.1843 H   0  0  0  0  0  0  0  0  0  0  0  0
   -4.5878   -2.8346    0.0429 H   0  0  0  0  0  0  0  0  0  0  0  0
   -4.0792    1.4195   -0.4056 H   0  0  0  0  0  0  0  0  0  0  0  0
   -1.7258    1.1622   -0.3124 H   0  0  0  0  0  0  0  0  0  0  0  0
   -6.2516   -2.4114   -1.2159 H   0  0  0  0  0  0  0  0  0  0  0  0
   -8.6201   -2.1533   -1.3711 H   0  0  0  0  0  0  0  0  0  0  0  0
  -10.7755   -0.3533   -0.7666 H   0  0  0  0  0  0  0  0  0  0  0  0
   -8.4438    2.7106    0.9673 H   0  0  0  0  0  0  0  0  0  0  0  0
   -5.9397    1.4410    0.6558 H   0  0  0  0  0  0  0  0  0  0  0  0
  1  2  1  0
  2  3  1  0
  2  4  1  0
  2  5  1  0
  5  6  1  0
  6  7  2  0
  7  8  1  0
  8  9  2  0
  9 10  1  0
 10 11  1  0
  7 12  1  0
 12 13  2  0
 12 14  1  0
 14 15  1  0
 15 16  1  0
 16 17  1  0
 17 18  1  0
 18 19  1  0
 17 20  1  0
 20 21  2  0
 20 22  1  0
 22 23  2  0
 23 24  1  0
 24 25  2  0
 25 26  1  0
 26 27  2  0
 25 28  1  0
 28 29  2  0
 29 30  1  0
 30 31  2  0
 31 32  1  0
 32 33  1  0
 33 34  2  0
 34 35  1  0
 35 36  2  0
 11  5  2  0
 19 14  1  0
 27 22  1  0
 36 28  1  0
 35 31  1  0
  6 37  1  0
  8 38  1  0
 10 39  1  0
 11 40  1  0
 15 41  1  0
 15 42  1  0
 16 43  1  0
 16 44  1  0
 18 45  1  0
 18 46  1  0
 19 47  1  0
 19 48  1  0
 23 49  1  0
 24 50  1  0
 26 51  1  0
 27 52  1  0
 29 53  1  0
 30 54  1  0
 32 55  1  0
 34 56  1  0
 36 57  1  0
M  END
$$$$
[H]c1c([H])c(C([H])([H])[H])c([H])c(S(=O)(=O)C2(c3c([H])c([H])c4c(c3[H])c(C([H])([H])[H])c([H])n4C([H])([H])[H])C([H])([H])C([H])([H])N([H])C([H])([H])C2([H])[H])c1Cl
     RDKit          3D

 53 56  0  0  0  0  0  0  0  0999 V2000
   -5.2517    1.6587    1.5499 C   0  0  0  0  0  0  0  0  0  0  0  0
   -4.0798    1.7342    0.6298 C   0  0  0  0  0  0  0  0  0  0  0  0
   -3.5626    2.9555    0.3107 C   0  0  0  0  0  0  0  0  0  0  0  0
   -2.4829    3.0087   -0.5400 C   0  0  0  0  0  0  0  0  0  0  0  0
   -1.9449    1.8247   -1.0556 C   0  0  0  0  0  0  0  0  0  0  0  0
   -0.6458    2.0814   -2.2132 Cl  0  0  0  0  0  0  0  0  0  0  0  0
   -2.4293    0.6011   -0.7600 C   0  0  0  0  0  0  0  0  0  0  0  0
   -3.5406    0.5822    0.1172 C   0  0  0  0  0  0  0  0  0  0  0  0
   -1.7753   -0.8962   -1.2758 S   0  0  0  0  0  0  0  0  0  0  0  0
   -2.9385   -1.8875   -1.3331 O   0  0  0  0  0  0  0  0  0  0  0  0
   -1.3631   -0.8170   -2.7674 O   0  0  0  0  0  0  0  0  0  0  0  0
   -0.3968   -1.5508   -0.4574 C   0  0  0  0  0  0  0  0  0  0  0  0
   -0.6159   -1.7606    1.0279 C   0  0  0  0  0  0  0  0  0  0  0  0
   -1.4501   -2.9238    1.4050 C   0  0  0  0  0  0  0  0  0  0  0  0
   -1.6430   -3.9121    0.3962 N   0  0  0  0  0  0  0  0  0  0  0  0
   -0.4361   -4.0854   -0.3401 C   0  0  0  0  0  0  0  0  0  0  0  0
   -0.0663   -2.8869   -1.1335 C   0  0  0  0  0  0  0  0  0  0  0  0
    0.8213   -0.7462   -0.5980 C   0  0  0  0  0  0  0  0  0  0  0  0
    1.6090   -0.7737   -1.7525 C   0  0  0  0  0  0  0  0  0  0  0  0
    2.7833   -0.0289   -1.8580 C   0  0  0  0  0  0  0  0  0  0  0  0
    3.2034    0.7631   -0.8150 C   0  0  0  0  0  0  0  0  0  0  0  0
    4.2812    1.5530   -0.7005 N   0  0  0  0  0  0  0  0  0  0  0  0
    5.3172    1.7725   -1.7115 C   0  0  0  0  0  0  0  0  0  0  0  0
    4.2556    2.1269    0.5155 C   0  0  0  0  0  0  0  0  0  0  0  0
    3.1303    1.6791    1.1712 C   0  0  0  0  0  0  0  0  0  0  0  0
    2.7467    2.0714    2.5368 C   0  0  0  0  0  0  0  0  0  0  0  0
    2.4598    0.8145    0.3303 C   0  0  0  0  0  0  0  0  0  0  0  0
    1.2991    0.0740    0.4255 C   0  0  0  0  0  0  0  0  0  0  0  0
   -4.8789    1.1298    2.4683 H   0  0  0  0  0  0  0  0  0  0  0  0
   -6.0811    1.0779    1.1385 H   0  0  0  0  0  0  0  0  0  0  0  0
   -5.5369    2.6732    1.9139 H   0  0  0  0  0  0  0  0  0  0  0  0
   -3.9830    3.8941    0.7155 H   0  0  0  0  0  0  0  0  0  0  0  0
   -2.0671    3.9729   -0.7961 H   0  0  0  0  0  0  0  0  0  0  0  0
   -3.9660   -0.3842    0.3817 H   0  0  0  0  0  0  0  0  0  0  0  0
    0.3900   -1.8710    1.4805 H   0  0  0  0  0  0  0  0  0  0  0  0
   -1.0339   -0.8042    1.4183 H   0  0  0  0  0  0  0  0  0  0  0  0
   -1.0537   -3.4687    2.3114 H   0  0  0  0  0  0  0  0  0  0  0  0
   -2.4764   -2.5749    1.7115 H   0  0  0  0  0  0  0  0  0  0  0  0
   -2.0145   -4.7838    0.8209 H   0  0  0  0  0  0  0  0  0  0  0  0
    0.4222   -4.3838    0.3161 H   0  0  0  0  0  0  0  0  0  0  0  0
   -0.5611   -4.9757   -1.0291 H   0  0  0  0  0  0  0  0  0  0  0  0
    1.0447   -2.9717   -1.3373 H   0  0  0  0  0  0  0  0  0  0  0  0
   -0.5537   -2.9472   -2.1252 H   0  0  0  0  0  0  0  0  0  0  0  0
    1.2590   -1.3967   -2.5564 H   0  0  0  0  0  0  0  0  0  0  0  0
    3.3099   -0.1196   -2.7862 H   0  0  0  0  0  0  0  0  0  0  0  0
    5.0811    2.6769   -2.3028 H   0  0  0  0  0  0  0  0  0  0  0  0
    5.3039    0.9281   -2.4390 H   0  0  0  0  0  0  0  0  0  0  0  0
    6.3027    1.8957   -1.2705 H   0  0  0  0  0  0  0  0  0  0  0  0
    5.0154    2.8123    0.8517 H   0  0  0  0  0  0  0  0  0  0  0  0
    2.5369    3.1506    2.5803 H   0  0  0  0  0  0  0  0  0  0  0  0
    3.6369    1.8257    3.1854 H   0  0  0  0  0  0  0  0  0  0  0  0
    1.8754    1.4792    2.9153 H   0  0  0  0  0  0  0  0  0  0  0  0
    0.7439    0.1328    1.3288 H   0  0  0  0  0  0  0  0  0  0  0  0
  1  2  1  0
  2  3  2  0
  3  4  1  0
  4  5  2  0
  5  6  1  0
  5  7  1  0
  7  8  2  0
  7  9  1  0
  9 10  2  0
  9 11  2  0
  9 12  1  0
 12 13  1  0
 13 14  1  0
 14 15  1  0
 15 16  1  0
 16 17  1  0
 12 18  1  0
 18 19  2  0
 19 20  1  0
 20 21  2  0
 21 22  1  0
 22 23  1  0
 22 24  1  0
 24 25  2  0
 25 26  1  0
 25 27  1  0
 27 28  2  0
  8  2  1  0
 17 12  1  0
 28 18  1  0
 27 21  1  0
  1 29  1  0
  1 30  1  0
  1 31  1  0
  3 32  1  0
  4 33  1  0
  8 34  1  0
 13 35  1  0
 13 36  1  0
 14 37  1  0
 14 38  1  0
 15 39  1  0
 16 40  1  0
 16 41  1  0
 17 42  1  0
 17 43  1  0
 19 44  1  0
 20 45  1  0
 23 46  1  0
 23 47  1  0
 23 48  1  0
 24 49  1  0
 26 50  1  0
 26 51  1  0
 26 52  1  0
 28 53  1  0
M  END
$$$$
[H]c1nc(N2C([H])([H])N(C(=O)C3([H])C([H])([H])C([H])([H])N(C([H])(C([H])([H])[H])C([H])([H])[H])C([H])([H])C3([H])[H])C([H])([H])C2([H])[H])c([H])c([H])c1-c1c([H])nc(C#N)c([H])c1Cl
     RDKit          3D

 58 61  0  0  0  0  0  0  0  0999 V2000
   -6.4860    1.1795    0.2468 C   0  0  0  0  0  0  0  0  0  0  0  0
   -6.3792    0.2834    1.4557 C   0  0  0  0  0  0  0  0  0  0  0  0
   -7.5340   -0.6950    1.4541 C   0  0  0  0  0  0  0  0  0  0  0  0
   -5.1585   -0.4491    1.5266 N   0  0  0  0  0  0  0  0  0  0  0  0
   -3.9699    0.3256    1.6389 C   0  0  0  0  0  0  0  0  0  0  0  0
   -2.7742   -0.5339    1.2765 C   0  0  0  0  0  0  0  0  0  0  0  0
   -2.7889   -0.9521   -0.1594 C   0  0  0  0  0  0  0  0  0  0  0  0
   -4.1796   -1.3800   -0.5296 C   0  0  0  0  0  0  0  0  0  0  0  0
   -5.0739   -1.5862    0.6697 C   0  0  0  0  0  0  0  0  0  0  0  0
   -2.2956    0.1597   -0.9973 C   0  0  0  0  0  0  0  0  0  0  0  0
   -3.1697    0.6703   -1.7819 O   0  0  0  0  0  0  0  0  0  0  0  0
   -0.9921    0.6807   -1.0002 N   0  0  0  0  0  0  0  0  0  0  0  0
   -0.5228    1.7830   -1.8392 C   0  0  0  0  0  0  0  0  0  0  0  0
    0.8161    1.2219   -2.2620 C   0  0  0  0  0  0  0  0  0  0  0  0
    1.3098    0.6239   -1.0573 N   0  0  0  0  0  0  0  0  0  0  0  0
    0.1699    0.2836   -0.2287 C   0  0  0  0  0  0  0  0  0  0  0  0
    2.6685    0.4023   -0.7396 C   0  0  0  0  0  0  0  0  0  0  0  0
    3.6655    0.7461   -1.6474 C   0  0  0  0  0  0  0  0  0  0  0  0
    4.9963    0.5321   -1.3500 C   0  0  0  0  0  0  0  0  0  0  0  0
    5.3677   -0.0237   -0.1534 C   0  0  0  0  0  0  0  0  0  0  0  0
    4.3588   -0.3646    0.7503 C   0  0  0  0  0  0  0  0  0  0  0  0
    3.0842   -0.1359    0.4113 N   0  0  0  0  0  0  0  0  0  0  0  0
    6.7277   -0.2876    0.2593 C   0  0  0  0  0  0  0  0  0  0  0  0
    7.0686   -1.5172    0.7757 C   0  0  0  0  0  0  0  0  0  0  0  0
    8.3506   -1.7831    1.1599 N   0  0  0  0  0  0  0  0  0  0  0  0
    9.3011   -0.8205    1.0303 C   0  0  0  0  0  0  0  0  0  0  0  0
    9.0186    0.4225    0.5227 C   0  0  0  0  0  0  0  0  0  0  0  0
    7.6935    0.6703    0.1353 C   0  0  0  0  0  0  0  0  0  0  0  0
    7.3528    2.2579   -0.4962 Cl  0  0  0  0  0  0  0  0  0  0  0  0
   10.6326   -1.1582    1.4502 C   0  0  0  0  0  0  0  0  0  0  0  0
   11.7025   -1.4446    1.7977 N   0  0  0  0  0  0  0  0  0  0  0  0
   -7.1416    0.6876   -0.4985 H   0  0  0  0  0  0  0  0  0  0  0  0
   -5.5331    1.4630   -0.1939 H   0  0  0  0  0  0  0  0  0  0  0  0
   -7.0149    2.1285    0.5282 H   0  0  0  0  0  0  0  0  0  0  0  0
   -6.4732    0.9063    2.3737 H   0  0  0  0  0  0  0  0  0  0  0  0
   -7.2740   -1.5893    2.0525 H   0  0  0  0  0  0  0  0  0  0  0  0
   -7.8557   -0.9397    0.4173 H   0  0  0  0  0  0  0  0  0  0  0  0
   -8.3935   -0.1958    1.9475 H   0  0  0  0  0  0  0  0  0  0  0  0
   -3.8383    0.5857    2.7239 H   0  0  0  0  0  0  0  0  0  0  0  0
   -3.9650    1.2827    1.0956 H   0  0  0  0  0  0  0  0  0  0  0  0
   -1.8123   -0.0783    1.5478 H   0  0  0  0  0  0  0  0  0  0  0  0
   -2.8619   -1.4650    1.8829 H   0  0  0  0  0  0  0  0  0  0  0  0
   -2.1123   -1.8489   -0.2715 H   0  0  0  0  0  0  0  0  0  0  0  0
   -4.1320   -2.3409   -1.0775 H   0  0  0  0  0  0  0  0  0  0  0  0
   -4.6433   -0.6522   -1.2379 H   0  0  0  0  0  0  0  0  0  0  0  0
   -4.6654   -2.4371    1.2526 H   0  0  0  0  0  0  0  0  0  0  0  0
   -6.0586   -1.9165    0.2827 H   0  0  0  0  0  0  0  0  0  0  0  0
   -0.3260    2.6405   -1.1628 H   0  0  0  0  0  0  0  0  0  0  0  0
   -1.1909    2.0019   -2.6717 H   0  0  0  0  0  0  0  0  0  0  0  0
    1.4861    2.0123   -2.6631 H   0  0  0  0  0  0  0  0  0  0  0  0
    0.5979    0.4645   -3.0550 H   0  0  0  0  0  0  0  0  0  0  0  0
    0.1431   -0.7742    0.0460 H   0  0  0  0  0  0  0  0  0  0  0  0
    0.1759    0.8795    0.7190 H   0  0  0  0  0  0  0  0  0  0  0  0
    3.4091    1.1923   -2.6140 H   0  0  0  0  0  0  0  0  0  0  0  0
    5.7811    0.8004   -2.0720 H   0  0  0  0  0  0  0  0  0  0  0  0
    4.6345   -0.8107    1.7145 H   0  0  0  0  0  0  0  0  0  0  0  0
    6.3250   -2.2881    0.8834 H   0  0  0  0  0  0  0  0  0  0  0  0
    9.7790    1.1801    0.4236 H   0  0  0  0  0  0  0  0  0  0  0  0
  1  2  1  0
  2  3  1  0
  2  4  1  0
  4  5  1  0
  5  6  1  0
  6  7  1  0
  7  8  1  0
  8  9  1  0
  7 10  1  0
 10 11  2  0
 10 12  1  0
 12 13  1  0
 13 14  1  0
 14 15  1  0
 15 16  1  0
 15 17  1  0
 17 18  2  0
 18 19  1  0
 19 20  2  0
 20 21  1  0
 21 22  2  0
 20 23  1  0
 23 24  2  0
 24 25  1  0
 25 26  2  0
 26 27  1  0
 27 28  2  0
 28 29  1  0
 26 30  1  0
 30 31  3  0
  9  4  1  0
 16 12  1  0
 22 17  1  0
 28 23  1  0
  1 32  1  0
  1 33  1  0
  1 34  1  0
  2 35  1  0
  3 36  1  0
  3 37  1  0
  3 38  1  0
  5 39  1  0
  5 40  1  0
  6 41  1  0
  6 42  1  0
  7 43  1  0
  8 44  1  0
  8 45  1  0
  9 46  1  0
  9 47  1  0
 13 48  1  0
 13 49  1  0
 14 50  1  0
 14 51  1  0
 16 52  1  0
 16 53  1  0
 18 54  1  0
 19 55  1  0
 21 56  1  0
 24 57  1  0
 27 58  1  0
M  END
$$$$
[H]c1c([H])c(C([H])([H])C([H])([H])N(C([H])([H])[H])C([H])([H])C([H])([H])C(=O)N([H])[H])c([H])c([H])c1OC([H])([H])[H]
     RDKit          3D

 37 37  0  0  0  0  0  0  0  0999 V2000
    6.5823    0.8573   -0.3164 C   0  0  0  0  0  0  0  0  0  0  0  0
    5.5395    0.7111   -1.2114 O   0  0  0  0  0  0  0  0  0  0  0  0
    4.2767    0.2872   -1.0083 C   0  0  0  0  0  0  0  0  0  0  0  0
    3.3748    0.2120   -2.0699 C   0  0  0  0  0  0  0  0  0  0  0  0
    2.0916   -0.2160   -1.8851 C   0  0  0  0  0  0  0  0  0  0  0  0
    1.6275   -0.5898   -0.6559 C   0  0  0  0  0  0  0  0  0  0  0  0
    0.2166   -1.0530   -0.4283 C   0  0  0  0  0  0  0  0  0  0  0  0
   -0.6068    0.1796   -0.1296 C   0  0  0  0  0  0  0  0  0  0  0  0
   -1.9744   -0.0885    0.1344 N   0  0  0  0  0  0  0  0  0  0  0  0
   -2.2309   -0.7814    1.3524 C   0  0  0  0  0  0  0  0  0  0  0  0
   -2.8314    0.9929   -0.1781 C   0  0  0  0  0  0  0  0  0  0  0  0
   -4.2762    0.7851    0.1079 C   0  0  0  0  0  0  0  0  0  0  0  0
   -4.8471   -0.3624   -0.6357 C   0  0  0  0  0  0  0  0  0  0  0  0
   -6.2376   -0.6391   -0.4142 N   0  0  0  0  0  0  0  0  0  0  0  0
   -4.1713   -1.0793   -1.4283 O   0  0  0  0  0  0  0  0  0  0  0  0
    2.5191   -0.5201    0.4124 C   0  0  0  0  0  0  0  0  0  0  0  0
    3.8193   -0.0854    0.2172 C   0  0  0  0  0  0  0  0  0  0  0  0
    6.5542    1.8690    0.1613 H   0  0  0  0  0  0  0  0  0  0  0  0
    7.5785    0.7099   -0.8118 H   0  0  0  0  0  0  0  0  0  0  0  0
    6.5785    0.0893    0.5104 H   0  0  0  0  0  0  0  0  0  0  0  0
    3.7210    0.5000   -3.0459 H   0  0  0  0  0  0  0  0  0  0  0  0
    1.4481   -0.2515   -2.7491 H   0  0  0  0  0  0  0  0  0  0  0  0
   -0.1199   -1.5649   -1.3355 H   0  0  0  0  0  0  0  0  0  0  0  0
    0.2707   -1.7560    0.4331 H   0  0  0  0  0  0  0  0  0  0  0  0
   -0.0751    0.7787    0.6311 H   0  0  0  0  0  0  0  0  0  0  0  0
   -0.5663    0.7895   -1.0796 H   0  0  0  0  0  0  0  0  0  0  0  0
   -1.5149   -1.6438    1.4133 H   0  0  0  0  0  0  0  0  0  0  0  0
   -2.1475   -0.1489    2.2582 H   0  0  0  0  0  0  0  0  0  0  0  0
   -3.2357   -1.2374    1.3082 H   0  0  0  0  0  0  0  0  0  0  0  0
   -2.4524    1.9198    0.3157 H   0  0  0  0  0  0  0  0  0  0  0  0
   -2.7335    1.2176   -1.2787 H   0  0  0  0  0  0  0  0  0  0  0  0
   -4.8136    1.6921   -0.3018 H   0  0  0  0  0  0  0  0  0  0  0  0
   -4.5297    0.7770    1.1845 H   0  0  0  0  0  0  0  0  0  0  0  0
   -6.9483   -0.0419   -0.8840 H   0  0  0  0  0  0  0  0  0  0  0  0
   -6.4765   -1.4318    0.2125 H   0  0  0  0  0  0  0  0  0  0  0  0
    2.1503   -0.8153    1.3865 H   0  0  0  0  0  0  0  0  0  0  0  0
    4.4401   -0.0618    1.0975 H   0  0  0  0  0  0  0  0  0  0  0  0
  1  2  1  0
  2  3  1  0
  3  4  2  0
  4  5  1  0
  5  6  2  0
  6  7  1  0
  7  8  1  0
  8  9  1  0
  9 10  1  0
  9 11  1  0
 11 12  1  0
 12 13  1  0
 13 14  1  0
 13 15  2  0
  6 16  1  0
 16 17  2  0
 17  3  1  0
  1 18  1  0
  1 19  1  0
  1 20  1  0
  4 21  1  0
  5 22  1  0
  7 23  1  0
  7 24  1  0
  8 25  1  0
  8 26  1  0
 10 27  1  0
 10 28  1  0
 10 29  1  0
 11 30  1  0
 11 31  1  0
 12 32  1  0
 12 33  1  0
 14 34  1  0
 14 35  1  0
 16 36  1  0
 17 37  1  0
M  END
$$$$
[H]c1sc(N([H])C(=O)n2nnc(OC([H])([H])c3c([H])c([H])c(Cl)c([H])c3[H])c2[H])c([H])c1C(=O)N([H])C([H])([H])C([H])([H])N1C([H])([H])C([H])([H])OC([H])([H])C1([H])[H]
     RDKit          3D

 56 59  0  0  0  0  0  0  0  0999 V2000
   10.1293   -3.2347   -1.8120 Cl  0  0  0  0  0  0  0  0  0  0  0  0
    9.5649   -1.9194   -0.8123 C   0  0  0  0  0  0  0  0  0  0  0  0
    8.8553   -2.1502    0.3684 C   0  0  0  0  0  0  0  0  0  0  0  0
    8.4194   -1.1009    1.1422 C   0  0  0  0  0  0  0  0  0  0  0  0
    8.6583    0.2123    0.7946 C   0  0  0  0  0  0  0  0  0  0  0  0
    8.1731    1.3183    1.6408 C   0  0  0  0  0  0  0  0  0  0  0  0
    7.0406    1.9655    1.1097 O   0  0  0  0  0  0  0  0  0  0  0  0
    5.8319    1.3780    0.8489 C   0  0  0  0  0  0  0  0  0  0  0  0
    4.7350    2.0456    0.3306 C   0  0  0  0  0  0  0  0  0  0  0  0
    3.7250    1.1779    0.1993 N   0  0  0  0  0  0  0  0  0  0  0  0
    4.1761    0.0107    0.6202 N   0  0  0  0  0  0  0  0  0  0  0  0
    5.4194    0.1132    1.0075 N   0  0  0  0  0  0  0  0  0  0  0  0
    2.4367    1.4748   -0.2818 C   0  0  0  0  0  0  0  0  0  0  0  0
    2.1639    2.6676   -0.6244 O   0  0  0  0  0  0  0  0  0  0  0  0
    1.4695    0.4409   -0.3747 N   0  0  0  0  0  0  0  0  0  0  0  0
    0.1657    0.8162   -0.8685 C   0  0  0  0  0  0  0  0  0  0  0  0
   -0.9189    0.0070   -1.0830 C   0  0  0  0  0  0  0  0  0  0  0  0
   -2.0408    0.5945   -1.5367 C   0  0  0  0  0  0  0  0  0  0  0  0
   -1.9949    1.9496   -1.7430 C   0  0  0  0  0  0  0  0  0  0  0  0
   -0.4084    2.3587   -1.3034 S   0  0  0  0  0  0  0  0  0  0  0  0
   -3.2800   -0.1830   -1.8307 C   0  0  0  0  0  0  0  0  0  0  0  0
   -3.2840   -1.1649   -2.6107 O   0  0  0  0  0  0  0  0  0  0  0  0
   -4.5023    0.1865   -1.2164 N   0  0  0  0  0  0  0  0  0  0  0  0
   -5.7447   -0.5054   -1.4593 C   0  0  0  0  0  0  0  0  0  0  0  0
   -6.8839    0.0642   -0.6603 C   0  0  0  0  0  0  0  0  0  0  0  0
   -6.6706   -0.0336    0.7588 N   0  0  0  0  0  0  0  0  0  0  0  0
   -7.7868    0.5278    1.4816 C   0  0  0  0  0  0  0  0  0  0  0  0
   -8.4264   -0.4173    2.4608 C   0  0  0  0  0  0  0  0  0  0  0  0
   -8.6479   -1.6737    1.9530 O   0  0  0  0  0  0  0  0  0  0  0  0
   -7.6548   -2.1847    1.1553 C   0  0  0  0  0  0  0  0  0  0  0  0
   -6.4177   -1.3584    1.2446 C   0  0  0  0  0  0  0  0  0  0  0  0
    9.3600    0.4384   -0.3729 C   0  0  0  0  0  0  0  0  0  0  0  0
    9.8082   -0.6082   -1.1672 C   0  0  0  0  0  0  0  0  0  0  0  0
    8.6630   -3.1576    0.6498 H   0  0  0  0  0  0  0  0  0  0  0  0
    7.8757   -1.3238    2.0501 H   0  0  0  0  0  0  0  0  0  0  0  0
    8.9966    2.0763    1.7817 H   0  0  0  0  0  0  0  0  0  0  0  0
    7.8680    0.8963    2.6319 H   0  0  0  0  0  0  0  0  0  0  0  0
    4.7253    3.0964    0.0822 H   0  0  0  0  0  0  0  0  0  0  0  0
    1.6699   -0.5276   -0.1090 H   0  0  0  0  0  0  0  0  0  0  0  0
   -0.8146   -1.0832   -0.8692 H   0  0  0  0  0  0  0  0  0  0  0  0
   -2.8349    2.5674   -2.1134 H   0  0  0  0  0  0  0  0  0  0  0  0
   -4.5240    0.9890   -0.5562 H   0  0  0  0  0  0  0  0  0  0  0  0
   -5.7111   -1.5858   -1.3314 H   0  0  0  0  0  0  0  0  0  0  0  0
   -5.9895   -0.2933   -2.5431 H   0  0  0  0  0  0  0  0  0  0  0  0
   -7.0650    1.1401   -0.9084 H   0  0  0  0  0  0  0  0  0  0  0  0
   -7.8090   -0.4707   -0.9264 H   0  0  0  0  0  0  0  0  0  0  0  0
   -7.4495    1.4162    2.0864 H   0  0  0  0  0  0  0  0  0  0  0  0
   -8.5680    0.9286    0.8088 H   0  0  0  0  0  0  0  0  0  0  0  0
   -9.4335    0.0285    2.6997 H   0  0  0  0  0  0  0  0  0  0  0  0
   -7.8953   -0.4328    3.4546 H   0  0  0  0  0  0  0  0  0  0  0  0
   -8.0130   -2.1795    0.1034 H   0  0  0  0  0  0  0  0  0  0  0  0
   -7.4205   -3.2514    1.3911 H   0  0  0  0  0  0  0  0  0  0  0  0
   -5.6199   -1.8849    0.6791 H   0  0  0  0  0  0  0  0  0  0  0  0
   -6.0336   -1.2532    2.2820 H   0  0  0  0  0  0  0  0  0  0  0  0
    9.5567    1.4602   -0.6638 H   0  0  0  0  0  0  0  0  0  0  0  0
   10.3558   -0.3682   -2.0776 H   0  0  0  0  0  0  0  0  0  0  0  0
  1  2  1  0
  2  3  2  0
  3  4  1  0
  4  5  2  0
  5  6  1  0
  6  7  1  0
  7  8  1  0
  8  9  2  0
  9 10  1  0
 10 11  1  0
 11 12  2  0
 10 13  1  0
 13 14  2  0
 13 15  1  0
 15 16  1  0
 16 17  2  0
 17 18  1  0
 18 19  2  0
 19 20  1  0
 18 21  1  0
 21 22  2  0
 21 23  1  0
 23 24  1  0
 24 25  1  0
 25 26  1  0
 26 27  1  0
 27 28  1  0
 28 29  1  0
 29 30  1  0
 30 31  1  0
  5 32  1  0
 32 33  2  0
 33  2  1  0
 12  8  1  0
 20 16  1  0
 31 26  1  0
  3 34  1  0
  4 35  1  0
  6 36  1  0
  6 37  1  0
  9 38  1  0
 15 39  1  0
 17 40  1  0
 19 41  1  0
 23 42  1  0
 24 43  1  0
 24 44  1  0
 25 45  1  0
 25 46  1  0
 27 47  1  0
 27 48  1  0
 28 49  1  0
 28 50  1  0
 30 51  1  0
 30 52  1  0
 31 53  1  0
 31 54  1  0
 32 55  1  0
 33 56  1  0
M  END
$$$$
[H]c1c(Cl)nc(N([H])[H])c(C(=O)N([H])C([H])([H])C([H])([H])C([H])([H])C([H])([H])C(=O)N([H])C([H])([H])C([H])([H])N([H])C(=O)C([H])([H])C2([H])C([H])([H])C([H])([H])C([H])([H])C([H])([H])C2([H])[H])c1Cl
     RDKit          3D

 62 63  0  0  0  0  0  0  0  0999 V2000
   -8.6021    1.2391   -2.6498 N   0  0  0  0  0  0  0  0  0  0  0  0
   -9.2699    0.3813   -1.7038 C   0  0  0  0  0  0  0  0  0  0  0  0
  -10.5203   -0.0214   -1.9083 N   0  0  0  0  0  0  0  0  0  0  0  0
  -11.1905   -0.8153   -1.0638 C   0  0  0  0  0  0  0  0  0  0  0  0
  -12.8548   -1.3109   -1.4036 Cl  0  0  0  0  0  0  0  0  0  0  0  0
  -10.5652   -1.2429    0.0768 C   0  0  0  0  0  0  0  0  0  0  0  0
   -9.2538   -0.8504    0.3405 C   0  0  0  0  0  0  0  0  0  0  0  0
   -8.5791   -1.4736    1.8359 Cl  0  0  0  0  0  0  0  0  0  0  0  0
   -8.5929   -0.0433   -0.5324 C   0  0  0  0  0  0  0  0  0  0  0  0
   -7.2521    0.4118   -0.3571 C   0  0  0  0  0  0  0  0  0  0  0  0
   -6.7719    1.1708   -1.2867 O   0  0  0  0  0  0  0  0  0  0  0  0
   -6.3585    0.1636    0.6781 N   0  0  0  0  0  0  0  0  0  0  0  0
   -4.9860    0.7613    0.6350 C   0  0  0  0  0  0  0  0  0  0  0  0
   -4.2833    0.3106    1.8837 C   0  0  0  0  0  0  0  0  0  0  0  0
   -2.8854    0.8283    1.9882 C   0  0  0  0  0  0  0  0  0  0  0  0
   -2.0841    0.3364    0.8113 C   0  0  0  0  0  0  0  0  0  0  0  0
   -0.6602    0.8360    0.8829 C   0  0  0  0  0  0  0  0  0  0  0  0
   -0.3601    1.5622    1.8645 O   0  0  0  0  0  0  0  0  0  0  0  0
    0.2147    0.4517   -0.1484 N   0  0  0  0  0  0  0  0  0  0  0  0
    1.6145    0.8295   -0.2424 C   0  0  0  0  0  0  0  0  0  0  0  0
    2.3270    0.2723    0.9730 C   0  0  0  0  0  0  0  0  0  0  0  0
    3.7197    0.5636    1.0278 N   0  0  0  0  0  0  0  0  0  0  0  0
    4.6600    0.1389    0.0484 C   0  0  0  0  0  0  0  0  0  0  0  0
    4.2313   -0.5383   -0.9226 O   0  0  0  0  0  0  0  0  0  0  0  0
    6.0884    0.4621    0.1371 C   0  0  0  0  0  0  0  0  0  0  0  0
    6.9611   -0.1756   -0.8968 C   0  0  0  0  0  0  0  0  0  0  0  0
    6.9567   -1.6583   -0.8448 C   0  0  0  0  0  0  0  0  0  0  0  0
    8.0988   -2.2433   -0.0182 C   0  0  0  0  0  0  0  0  0  0  0  0
    9.3827   -1.7441   -0.6409 C   0  0  0  0  0  0  0  0  0  0  0  0
    9.4168   -0.2478   -0.2971 C   0  0  0  0  0  0  0  0  0  0  0  0
    8.3129    0.4734   -1.0003 C   0  0  0  0  0  0  0  0  0  0  0  0
   -8.7439    2.2484   -2.5349 H   0  0  0  0  0  0  0  0  0  0  0  0
   -8.0108    0.8380   -3.4040 H   0  0  0  0  0  0  0  0  0  0  0  0
  -11.0671   -1.8782    0.7780 H   0  0  0  0  0  0  0  0  0  0  0  0
   -6.5791   -0.4161    1.4915 H   0  0  0  0  0  0  0  0  0  0  0  0
   -4.4786    0.3729   -0.2763 H   0  0  0  0  0  0  0  0  0  0  0  0
   -5.1042    1.8629    0.5825 H   0  0  0  0  0  0  0  0  0  0  0  0
   -4.2292   -0.8148    1.8215 H   0  0  0  0  0  0  0  0  0  0  0  0
   -4.9094    0.5909    2.7626 H   0  0  0  0  0  0  0  0  0  0  0  0
   -2.4596    0.4944    2.9551 H   0  0  0  0  0  0  0  0  0  0  0  0
   -2.8857    1.9531    1.9623 H   0  0  0  0  0  0  0  0  0  0  0  0
   -2.4916    0.7899   -0.1138 H   0  0  0  0  0  0  0  0  0  0  0  0
   -2.0846   -0.7482    0.7138 H   0  0  0  0  0  0  0  0  0  0  0  0
   -0.1615   -0.1622   -0.9258 H   0  0  0  0  0  0  0  0  0  0  0  0
    2.0297    0.4059   -1.1796 H   0  0  0  0  0  0  0  0  0  0  0  0
    1.6796    1.9468   -0.2640 H   0  0  0  0  0  0  0  0  0  0  0  0
    2.2237   -0.8532    0.8630 H   0  0  0  0  0  0  0  0  0  0  0  0
    1.8347    0.6098    1.8986 H   0  0  0  0  0  0  0  0  0  0  0  0
    4.0923    1.1259    1.8335 H   0  0  0  0  0  0  0  0  0  0  0  0
    6.2920    1.5531    0.1345 H   0  0  0  0  0  0  0  0  0  0  0  0
    6.4510    0.1097    1.1474 H   0  0  0  0  0  0  0  0  0  0  0  0
    6.4552    0.0829   -1.8922 H   0  0  0  0  0  0  0  0  0  0  0  0
    7.1075   -2.0969   -1.8747 H   0  0  0  0  0  0  0  0  0  0  0  0
    6.0043   -2.0180   -0.4096 H   0  0  0  0  0  0  0  0  0  0  0  0
    8.0541   -1.9118    1.0393 H   0  0  0  0  0  0  0  0  0  0  0  0
    8.0147   -3.3471   -0.0770 H   0  0  0  0  0  0  0  0  0  0  0  0
   10.2862   -2.2054   -0.1961 H   0  0  0  0  0  0  0  0  0  0  0  0
    9.3209   -1.8465   -1.7341 H   0  0  0  0  0  0  0  0  0  0  0  0
   10.3794    0.1390   -0.6334 H   0  0  0  0  0  0  0  0  0  0  0  0
    9.2701   -0.1835    0.8028 H   0  0  0  0  0  0  0  0  0  0  0  0
    8.5774    0.7213   -2.0473 H   0  0  0  0  0  0  0  0  0  0  0  0
    8.2183    1.4771   -0.4901 H   0  0  0  0  0  0  0  0  0  0  0  0
  1  2  1  0
  2  3  2  0
  3  4  1  0
  4  5  1  0
  4  6  2  0
  6  7  1  0
  7  8  1  0
  7  9  2  0
  9 10  1  0
 10 11  2  0
 10 12  1  0
 12 13  1  0
 13 14  1  0
 14 15  1  0
 15 16  1  0
 16 17  1  0
 17 18  2  0
 17 19  1  0
 19 20  1  0
 20 21  1  0
 21 22  1  0
 22 23  1  0
 23 24  2  0
 23 25  1  0
 25 26  1  0
 26 27  1  0
 27 28  1  0
 28 29  1  0
 29 30  1  0
 30 31  1  0
  9  2  1  0
 31 26  1  0
  1 32  1  0
  1 33  1  0
  6 34  1  0
 12 35  1  0
 13 36  1  0
 13 37  1  0
 14 38  1  0
 14 39  1  0
 15 40  1  0
 15 41  1  0
 16 42  1  0
 16 43  1  0
 19 44  1  0
 20 45  1  0
 20 46  1  0
 21 47  1  0
 21 48  1  0
 22 49  1  0
 25 50  1  0
 25 51  1  0
 26 52  1  0
 27 53  1  0
 27 54  1  0
 28 55  1  0
 28 56  1  0
 29 57  1  0
 29 58  1  0
 30 59  1  0
 30 60  1  0
 31 61  1  0
 31 62  1  0
M  END
$$$$
[H]c1c(N2C([H])([H])C([H])([H])C([H])([H])C([H])(C(=O)N3C([H])([H])C([H])([H])C([H])([H])[C@]([H])(N([H])[H])C3([H])[H])C([H])([H])C2([H])[H])c([H])c2nc(C#N)n([H])c2c1[H]
     RDKit          3D

 53 56  0  0  0  0  0  0  0  0999 V2000
   -6.3875    0.1628    0.1020 N   0  0  0  0  0  0  0  0  0  0  0  0
   -5.1542    0.2268    0.8390 C   0  0  1  0  0  0  0  0  0  0  0  0
   -4.4908   -1.1272    0.7823 C   0  0  0  0  0  0  0  0  0  0  0  0
   -3.9567   -1.4619   -0.5923 C   0  0  0  0  0  0  0  0  0  0  0  0
   -3.6103   -0.2037   -1.3645 C   0  0  0  0  0  0  0  0  0  0  0  0
   -3.1863    0.8618   -0.4841 N   0  0  0  0  0  0  0  0  0  0  0  0
   -4.2582    1.3568    0.4034 C   0  0  0  0  0  0  0  0  0  0  0  0
   -1.8766    1.4123   -0.4328 C   0  0  0  0  0  0  0  0  0  0  0  0
   -1.7675    2.3717    0.4149 O   0  0  0  0  0  0  0  0  0  0  0  0
   -0.7520    0.9561   -1.2433 C   0  0  0  0  0  0  0  0  0  0  0  0
    0.4361    1.8253   -1.2862 C   0  0  0  0  0  0  0  0  0  0  0  0
    0.9821    2.4326   -0.0650 C   0  0  0  0  0  0  0  0  0  0  0  0
    1.3551    1.5156    1.0512 C   0  0  0  0  0  0  0  0  0  0  0  0
    1.3732    0.1185    0.6403 N   0  0  0  0  0  0  0  0  0  0  0  0
    0.1451   -0.6443    0.4832 C   0  0  0  0  0  0  0  0  0  0  0  0
   -0.2797   -0.4529   -0.9507 C   0  0  0  0  0  0  0  0  0  0  0  0
    2.6224   -0.4983    0.3619 C   0  0  0  0  0  0  0  0  0  0  0  0
    2.8016   -1.8571    0.2655 C   0  0  0  0  0  0  0  0  0  0  0  0
    4.0439   -2.4104   -0.0229 C   0  0  0  0  0  0  0  0  0  0  0  0
    5.1510   -1.6274   -0.2252 C   0  0  0  0  0  0  0  0  0  0  0  0
    6.4502   -1.8680   -0.5121 N   0  0  0  0  0  0  0  0  0  0  0  0
    7.0762   -0.6879   -0.5949 C   0  0  0  0  0  0  0  0  0  0  0  0
    6.1839    0.3073   -0.3623 N   0  0  0  0  0  0  0  0  0  0  0  0
    4.9930   -0.2715   -0.1335 C   0  0  0  0  0  0  0  0  0  0  0  0
    3.7593    0.2889    0.1532 C   0  0  0  0  0  0  0  0  0  0  0  0
    8.4627   -0.4815   -0.8813 C   0  0  0  0  0  0  0  0  0  0  0  0
    9.5804   -0.3147   -1.1301 N   0  0  0  0  0  0  0  0  0  0  0  0
   -6.6205   -0.7814   -0.2442 H   0  0  0  0  0  0  0  0  0  0  0  0
   -6.5263    0.9180   -0.5770 H   0  0  0  0  0  0  0  0  0  0  0  0
   -5.4093    0.4102    1.9033 H   0  0  0  0  0  0  0  0  0  0  0  0
   -5.2665   -1.8701    1.0598 H   0  0  0  0  0  0  0  0  0  0  0  0
   -3.7055   -1.1833    1.5598 H   0  0  0  0  0  0  0  0  0  0  0  0
   -3.0341   -2.0570   -0.4660 H   0  0  0  0  0  0  0  0  0  0  0  0
   -4.7159   -2.0140   -1.1656 H   0  0  0  0  0  0  0  0  0  0  0  0
   -4.5626    0.1733   -1.8435 H   0  0  0  0  0  0  0  0  0  0  0  0
   -2.9345   -0.4664   -2.1636 H   0  0  0  0  0  0  0  0  0  0  0  0
   -4.8721    2.0306   -0.2310 H   0  0  0  0  0  0  0  0  0  0  0  0
   -3.8514    1.9143    1.2503 H   0  0  0  0  0  0  0  0  0  0  0  0
   -1.1425    0.9008   -2.3078 H   0  0  0  0  0  0  0  0  0  0  0  0
    0.3172    2.6583   -2.0465 H   0  0  0  0  0  0  0  0  0  0  0  0
    1.2733    1.2126   -1.7436 H   0  0  0  0  0  0  0  0  0  0  0  0
    0.4360    3.3499    0.3044 H   0  0  0  0  0  0  0  0  0  0  0  0
    1.9729    2.9034   -0.3877 H   0  0  0  0  0  0  0  0  0  0  0  0
    2.3095    1.7270    1.5553 H   0  0  0  0  0  0  0  0  0  0  0  0
    0.5884    1.6108    1.8818 H   0  0  0  0  0  0  0  0  0  0  0  0
   -0.6342   -0.3143    1.2030 H   0  0  0  0  0  0  0  0  0  0  0  0
    0.2657   -1.7172    0.6577 H   0  0  0  0  0  0  0  0  0  0  0  0
    0.6755   -0.5627   -1.5508 H   0  0  0  0  0  0  0  0  0  0  0  0
   -0.9156   -1.2539   -1.2849 H   0  0  0  0  0  0  0  0  0  0  0  0
    1.9941   -2.5509    0.4092 H   0  0  0  0  0  0  0  0  0  0  0  0
    4.1437   -3.4901   -0.0905 H   0  0  0  0  0  0  0  0  0  0  0  0
    6.8249   -2.8354   -0.6332 H   0  0  0  0  0  0  0  0  0  0  0  0
    3.6934    1.3574    0.2061 H   0  0  0  0  0  0  0  0  0  0  0  0
  1  2  1  0
  2  3  1  0
  3  4  1  0
  4  5  1  0
  5  6  1  0
  6  7  1  0
  6  8  1  0
  8  9  2  0
  8 10  1  0
 10 11  1  0
 11 12  1  0
 12 13  1  0
 13 14  1  0
 14 15  1  0
 15 16  1  0
 14 17  1  0
 17 18  2  0
 18 19  1  0
 19 20  2  0
 20 21  1  0
 21 22  1  0
 22 23  2  0
 23 24  1  0
 24 25  2  0
 22 26  1  0
 26 27  3  0
  7  2  1  0
 16 10  1  0
 25 17  1  0
 24 20  1  0
  1 28  1  0
  1 29  1  0
  2 30  1  1
  3 31  1  0
  3 32  1  0
  4 33  1  0
  4 34  1  0
  5 35  1  0
  5 36  1  0
  7 37  1  0
  7 38  1  0
 10 39  1  0
 11 40  1  0
 11 41  1  0
 12 42  1  0
 12 43  1  0
 13 44  1  0
 13 45  1  0
 15 46  1  0
 15 47  1  0
 16 48  1  0
 16 49  1  0
 18 50  1  0
 19 51  1  0
 21 52  1  0
 25 53  1  0
M  END
$$$$
[H]c1c([H])c(-c2c([H])c(C(F)(F)F)nc3c([H])c([H])c([H])c([H])c23)c([H])c(OC2([H])C([H])([H])C2([H])[H])c1OC([H])([H])[H]
     RDKit          3D

 42 45  0  0  0  0  0  0  0  0999 V2000
   -3.2897    0.5810    3.4730 C   0  0  0  0  0  0  0  0  0  0  0  0
   -3.2332    0.3923    2.0684 O   0  0  0  0  0  0  0  0  0  0  0  0
   -1.9567    0.4122    1.4692 C   0  0  0  0  0  0  0  0  0  0  0  0
   -0.8217    0.5985    2.2048 C   0  0  0  0  0  0  0  0  0  0  0  0
    0.4196    0.6147    1.6307 C   0  0  0  0  0  0  0  0  0  0  0  0
    0.5125    0.4387    0.2468 C   0  0  0  0  0  0  0  0  0  0  0  0
   -0.6325    0.2632   -0.4504 C   0  0  0  0  0  0  0  0  0  0  0  0
   -1.9098    0.2362    0.0750 C   0  0  0  0  0  0  0  0  0  0  0  0
   -3.0099    0.0623   -0.6507 O   0  0  0  0  0  0  0  0  0  0  0  0
   -4.3365   -0.1325   -0.5502 C   0  0  0  0  0  0  0  0  0  0  0  0
   -5.0732   -0.4400   -1.8087 C   0  0  0  0  0  0  0  0  0  0  0  0
   -5.3639    0.8300   -1.0576 C   0  0  0  0  0  0  0  0  0  0  0  0
    1.8371    0.3726   -0.3593 C   0  0  0  0  0  0  0  0  0  0  0  0
    2.4466    1.3830   -1.0669 C   0  0  0  0  0  0  0  0  0  0  0  0
    3.6965    1.2413   -1.6290 C   0  0  0  0  0  0  0  0  0  0  0  0
    4.3622    0.0815   -1.4934 N   0  0  0  0  0  0  0  0  0  0  0  0
    3.8269   -0.9675   -0.8056 C   0  0  0  0  0  0  0  0  0  0  0  0
    4.5485   -2.1340   -0.7206 C   0  0  0  0  0  0  0  0  0  0  0  0
    3.9644   -3.1787   -0.0372 C   0  0  0  0  0  0  0  0  0  0  0  0
    2.7151   -3.0451    0.5306 C   0  0  0  0  0  0  0  0  0  0  0  0
    2.0250   -1.8737    0.4284 C   0  0  0  0  0  0  0  0  0  0  0  0
    2.5721   -0.8243   -0.2414 C   0  0  0  0  0  0  0  0  0  0  0  0
    4.3240    2.3464   -2.3945 C   0  0  0  0  0  0  0  0  0  0  0  0
    5.3470    2.9704   -1.7005 F   0  0  0  0  0  0  0  0  0  0  0  0
    3.3850    3.3492   -2.6747 F   0  0  0  0  0  0  0  0  0  0  0  0
    4.7734    1.9171   -3.6307 F   0  0  0  0  0  0  0  0  0  0  0  0
   -2.8638    1.6066    3.7196 H   0  0  0  0  0  0  0  0  0  0  0  0
   -4.3053    0.5547    3.8775 H   0  0  0  0  0  0  0  0  0  0  0  0
   -2.6615   -0.1491    4.0190 H   0  0  0  0  0  0  0  0  0  0  0  0
   -0.8779    0.7286    3.2905 H   0  0  0  0  0  0  0  0  0  0  0  0
    1.2999    0.7605    2.2040 H   0  0  0  0  0  0  0  0  0  0  0  0
   -0.5578    0.1344   -1.5328 H   0  0  0  0  0  0  0  0  0  0  0  0
   -4.6872   -0.6112    0.4174 H   0  0  0  0  0  0  0  0  0  0  0  0
   -4.5286   -0.2630   -2.7720 H   0  0  0  0  0  0  0  0  0  0  0  0
   -5.9018   -1.1939   -1.8291 H   0  0  0  0  0  0  0  0  0  0  0  0
   -6.3641    0.8689   -0.5323 H   0  0  0  0  0  0  0  0  0  0  0  0
   -4.9565    1.8111   -1.3656 H   0  0  0  0  0  0  0  0  0  0  0  0
    1.9039    2.3053   -1.1606 H   0  0  0  0  0  0  0  0  0  0  0  0
    5.5191   -2.2563   -1.1586 H   0  0  0  0  0  0  0  0  0  0  0  0
    4.5184   -4.1249    0.0412 H   0  0  0  0  0  0  0  0  0  0  0  0
    2.3012   -3.9003    1.0596 H   0  0  0  0  0  0  0  0  0  0  0  0
    1.0332   -1.7660    0.8668 H   0  0  0  0  0  0  0  0  0  0  0  0
  1  2  1  0
  2  3  1  0
  3  4  2  0
  4  5  1  0
  5  6  2  0
  6  7  1  0
  7  8  2  0
  8  9  1  0
  9 10  1  0
 10 11  1  0
 11 12  1  0
  6 13  1  0
 13 14  2  0
 14 15  1  0
 15 16  2  0
 16 17  1  0
 17 18  2  0
 18 19  1  0
 19 20  2  0
 20 21  1  0
 21 22  2  0
 15 23  1  0
 23 24  1  0
 23 25  1  0
 23 26  1  0
  8  3  1  0
 12 10  1  0
 22 13  1  0
 22 17  1  0
  1 27  1  0
  1 28  1  0
  1 29  1  0
  4 30  1  0
  5 31  1  0
  7 32  1  0
 10 33  1  0
 11 34  1  0
 11 35  1  0
 12 36  1  0
 12 37  1  0
 14 38  1  0
 18 39  1  0
 19 40  1  0
 20 41  1  0
 21 42  1  0
M  END
$$$$
[H]c1nc(-c2c([H])c([H])c3c([H])c2C([H])([H])C([H])([H])N(C2([H])C([H])([H])C([H])([H])N(C(=O)N([H])c4c([H])c([H])c(C(=O)N([H])C([H])([H])[H])c([H])c4[H])C([H])([H])C2([H])[H])C3([H])[H])c([H])c([H])c1[H]
     RDKit          2D

 66 70  0  0  0  0  0  0  0  0999 V2000
   12.6571   12.5852    0.0000 C   0  0  0  0  0  0  0  0  0  0  0  0
   12.0402   11.2179    0.0000 N   0  0  0  0  0  0  0  0  0  0  0  0
   10.5477   11.0686    0.0000 C   0  0  0  0  0  0  0  0  0  0  0  0
    9.6720   12.2865    0.0000 O   0  0  0  0  0  0  0  0  0  0  0  0
    9.9307    9.7013    0.0000 C   0  0  0  0  0  0  0  0  0  0  0  0
   10.8063    8.4834    0.0000 C   0  0  0  0  0  0  0  0  0  0  0  0
   10.1894    7.1161    0.0000 C   0  0  0  0  0  0  0  0  0  0  0  0
    8.6969    6.9668    0.0000 C   0  0  0  0  0  0  0  0  0  0  0  0
    8.0799    5.5995    0.0000 N   0  0  0  0  0  0  0  0  0  0  0  0
    6.5874    5.4502    0.0000 C   0  0  0  0  0  0  0  0  0  0  0  0
    5.7118    6.6681    0.0000 O   0  0  0  0  0  0  0  0  0  0  0  0
    5.9705    4.0829    0.0000 N   0  0  0  0  0  0  0  0  0  0  0  0
    6.8461    2.8650    0.0000 C   0  0  0  0  0  0  0  0  0  0  0  0
    6.2291    1.4978    0.0000 C   0  0  0  0  0  0  0  0  0  0  0  0
    4.7366    1.3484    0.0000 C   0  0  0  0  0  0  0  0  0  0  0  0
    3.8610    2.5663    0.0000 C   0  0  0  0  0  0  0  0  0  0  0  0
    4.4779    3.9336    0.0000 C   0  0  0  0  0  0  0  0  0  0  0  0
    3.3851    0.6976    0.0000 N   0  0  0  0  0  0  0  0  0  0  0  0
    3.3851   -0.8024    0.0000 C   0  0  0  0  0  0  0  0  0  0  0  0
    2.2124   -1.7376    0.0000 C   0  0  0  0  0  0  0  0  0  0  0  0
    0.7500   -1.2990    0.0000 C   0  0  0  0  0  0  0  0  0  0  0  0
    1.5000    0.0000    0.0000 C   0  0  0  0  0  0  0  0  0  0  0  0
    0.7500    1.2990    0.0000 C   0  0  0  0  0  0  0  0  0  0  0  0
   -0.7500    1.2990    0.0000 C   0  0  0  0  0  0  0  0  0  0  0  0
   -1.5000    0.0000    0.0000 C   0  0  0  0  0  0  0  0  0  0  0  0
   -0.7500   -1.2990    0.0000 C   0  0  0  0  0  0  0  0  0  0  0  0
   -1.5000   -2.5981    0.0000 C   0  0  0  0  0  0  0  0  0  0  0  0
   -3.0000   -2.5981    0.0000 C   0  0  0  0  0  0  0  0  0  0  0  0
   -3.7500   -3.8971    0.0000 C   0  0  0  0  0  0  0  0  0  0  0  0
   -3.0000   -5.1962    0.0000 C   0  0  0  0  0  0  0  0  0  0  0  0
   -1.5000   -5.1962    0.0000 C   0  0  0  0  0  0  0  0  0  0  0  0
   -0.7500   -3.8971    0.0000 N   0  0  0  0  0  0  0  0  0  0  0  0
    2.2124    1.6328    0.0000 C   0  0  0  0  0  0  0  0  0  0  0  0
    7.8212    8.1847    0.0000 C   0  0  0  0  0  0  0  0  0  0  0  0
    8.4382    9.5520    0.0000 C   0  0  0  0  0  0  0  0  0  0  0  0
   13.2741   13.9524    0.0000 H   0  0  0  0  0  0  0  0  0  0  0  0
   14.0244   11.9683    0.0000 H   0  0  0  0  0  0  0  0  0  0  0  0
   11.2899   13.2021    0.0000 H   0  0  0  0  0  0  0  0  0  0  0  0
   12.9158   10.0000    0.0000 H   0  0  0  0  0  0  0  0  0  0  0  0
   12.2989    8.6328    0.0000 H   0  0  0  0  0  0  0  0  0  0  0  0
   11.0650    5.8982    0.0000 H   0  0  0  0  0  0  0  0  0  0  0  0
    8.9555    4.3816    0.0000 H   0  0  0  0  0  0  0  0  0  0  0  0
    8.0854    2.0200    0.0000 H   0  0  0  0  0  0  0  0  0  0  0  0
    7.8934    3.9388    0.0000 H   0  0  0  0  0  0  0  0  0  0  0  0
    6.1383    0.2862    0.0000 H   0  0  0  0  0  0  0  0  0  0  0  0
    7.6828    1.1276    0.0000 H   0  0  0  0  0  0  0  0  0  0  0  0
    5.2058    0.2277    0.0000 H   0  0  0  0  0  0  0  0  0  0  0  0
    3.1291    3.0653    0.0000 H   0  0  0  0  0  0  0  0  0  0  0  0
    2.9307    1.9915    0.0000 H   0  0  0  0  0  0  0  0  0  0  0  0
    4.5900    5.4294    0.0000 H   0  0  0  0  0  0  0  0  0  0  0  0
    3.0243    4.3037    0.0000 H   0  0  0  0  0  0  0  0  0  0  0  0
    4.8773   -0.6494    0.0000 H   0  0  0  0  0  0  0  0  0  0  0  0
    4.1958   -2.0645    0.0000 H   0  0  0  0  0  0  0  0  0  0  0  0
    3.2624   -2.8089    0.0000 H   0  0  0  0  0  0  0  0  0  0  0  0
    1.5616   -3.0891    0.0000 H   0  0  0  0  0  0  0  0  0  0  0  0
    2.6789   -0.2940    0.0000 H   0  0  0  0  0  0  0  0  0  0  0  0
   -1.5000    2.5981    0.0000 H   0  0  0  0  0  0  0  0  0  0  0  0
   -3.0000    0.0000    0.0000 H   0  0  0  0  0  0  0  0  0  0  0  0
   -3.7500   -1.2990    0.0000 H   0  0  0  0  0  0  0  0  0  0  0  0
   -5.2500   -3.8971    0.0000 H   0  0  0  0  0  0  0  0  0  0  0  0
   -3.7500   -6.4952    0.0000 H   0  0  0  0  0  0  0  0  0  0  0  0
   -0.7500   -6.4952    0.0000 H   0  0  0  0  0  0  0  0  0  0  0  0
    1.5616    2.9843    0.0000 H   0  0  0  0  0  0  0  0  0  0  0  0
    2.6969    2.2659    0.0000 H   0  0  0  0  0  0  0  0  0  0  0  0
    6.3287    8.0354    0.0000 H   0  0  0  0  0  0  0  0  0  0  0  0
    7.5626   10.7699    0.0000 H   0  0  0  0  0  0  0  0  0  0  0  0
  1  2  1  0
  2  3  1  0
  3  4  2  0
  3  5  1  0
  5  6  2  0
  6  7  1  0
  7  8  2  0
  8  9  1  0
  9 10  1  0
 10 11  2  0
 10 12  1  0
 12 13  1  0
 13 14  1  0
 14 15  1  0
 15 16  1  0
 16 17  1  0
 15 18  1  0
 18 19  1  0
 19 20  1  0
 20 21  1  0
 21 22  1  0
 22 23  2  0
 23 24  1  0
 24 25  2  0
 25 26  1  0
 26 27  1  0
 27 28  2  0
 28 29  1  0
 29 30  2  0
 30 31  1  0
 31 32  2  0
 23 33  1  0
  8 34  1  0
 34 35  2  0
 35  5  1  0
 17 12  1  0
 33 18  1  0
 26 21  2  0
 32 27  1  0
  1 36  1  0
  1 37  1  0
  1 38  1  0
  2 39  1  0
  6 40  1  0
  7 41  1  0
  9 42  1  0
 13 43  1  0
 13 44  1  0
 14 45  1  0
 14 46  1  0
 15 47  1  0
 16 48  1  0
 16 49  1  0
 17 50  1  0
 17 51  1  0
 19 52  1  0
 19 53  1  0
 20 54  1  0
 20 55  1  0
 22 56  1  0
 24 57  1  0
 25 58  1  0
 28 59  1  0
 29 60  1  0
 30 61  1  0
 31 62  1  0
 33 63  1  0
 33 64  1  0
 34 65  1  0
 35 66  1  0
M  END
$$$$
[H]c1c([H])c([H])c(C([H])([H])[C@@]([H])(c2c([H])c3c([H])c4c(c([H])c3n2[H])C([H])([H])N(C([H])([H])C(=O)N([H])[H])C([H])([H])C4([H])[H])N([H])S(=O)(=O)c2c([H])c([H])c([H])c([H])c2[H])c([H])c1[H]
     RDKit          3D

 63 67  0  0  0  0  0  0  0  0999 V2000
    5.4826    0.9147   -3.5397 N   0  0  0  0  0  0  0  0  0  0  0  0
    6.4469    0.7346   -2.5353 C   0  0  0  0  0  0  0  0  0  0  0  0
    7.5541    1.3092   -2.6691 O   0  0  0  0  0  0  0  0  0  0  0  0
    6.2215   -0.0804   -1.3605 C   0  0  0  0  0  0  0  0  0  0  0  0
    4.9425   -0.7159   -1.2342 N   0  0  0  0  0  0  0  0  0  0  0  0
    4.9095   -1.5349   -0.0404 C   0  0  0  0  0  0  0  0  0  0  0  0
    4.4490   -0.6939    1.1658 C   0  0  0  0  0  0  0  0  0  0  0  0
    3.0117   -0.4192    0.8542 C   0  0  0  0  0  0  0  0  0  0  0  0
    1.9870   -0.5251    1.7521 C   0  0  0  0  0  0  0  0  0  0  0  0
    0.6675   -0.2629    1.3720 C   0  0  0  0  0  0  0  0  0  0  0  0
   -0.5358   -0.2883    2.0448 C   0  0  0  0  0  0  0  0  0  0  0  0
   -1.5582    0.0609    1.1877 C   0  0  0  0  0  0  0  0  0  0  0  0
   -0.9828    0.2991   -0.0052 N   0  0  0  0  0  0  0  0  0  0  0  0
    0.3662    0.1095    0.0809 C   0  0  0  0  0  0  0  0  0  0  0  0
    1.3970    0.2167   -0.8238 C   0  0  0  0  0  0  0  0  0  0  0  0
    2.7254   -0.0482   -0.4365 C   0  0  0  0  0  0  0  0  0  0  0  0
    3.8052    0.0938   -1.4401 C   0  0  0  0  0  0  0  0  0  0  0  0
   -3.0180    0.1524    1.5356 C   0  0  2  0  0  0  0  0  0  0  0  0
   -3.3454    1.4524    2.2011 C   0  0  0  0  0  0  0  0  0  0  0  0
   -3.0694    2.6469    1.4243 C   0  0  0  0  0  0  0  0  0  0  0  0
   -3.9796    3.2417    0.5688 C   0  0  0  0  0  0  0  0  0  0  0  0
   -3.6249    4.3890   -0.1380 C   0  0  0  0  0  0  0  0  0  0  0  0
   -2.3848    4.9685   -0.0208 C   0  0  0  0  0  0  0  0  0  0  0  0
   -1.4804    4.3779    0.8289 C   0  0  0  0  0  0  0  0  0  0  0  0
   -1.8266    3.2444    1.5292 C   0  0  0  0  0  0  0  0  0  0  0  0
   -3.4676   -0.9626    2.3139 N   0  0  0  0  0  0  0  0  0  0  0  0
   -4.5953   -1.9770    1.5587 S   0  0  0  0  0  0  0  0  0  0  0  0
   -5.0169   -3.1301    2.4225 O   0  0  0  0  0  0  0  0  0  0  0  0
   -5.8302   -1.2604    1.0982 O   0  0  0  0  0  0  0  0  0  0  0  0
   -3.8521   -2.6656    0.1327 C   0  0  0  0  0  0  0  0  0  0  0  0
   -4.0093   -2.0445   -1.0870 C   0  0  0  0  0  0  0  0  0  0  0  0
   -3.4479   -2.5320   -2.2491 C   0  0  0  0  0  0  0  0  0  0  0  0
   -2.6993   -3.6896   -2.1812 C   0  0  0  0  0  0  0  0  0  0  0  0
   -2.5159   -4.3450   -0.9801 C   0  0  0  0  0  0  0  0  0  0  0  0
   -3.0982   -3.8201    0.1647 C   0  0  0  0  0  0  0  0  0  0  0  0
    5.1787    0.1054   -4.1108 H   0  0  0  0  0  0  0  0  0  0  0  0
    5.0643    1.8416   -3.7259 H   0  0  0  0  0  0  0  0  0  0  0  0
    6.9793   -0.9201   -1.3866 H   0  0  0  0  0  0  0  0  0  0  0  0
    6.5043    0.4874   -0.4340 H   0  0  0  0  0  0  0  0  0  0  0  0
    4.1360   -2.3197   -0.1714 H   0  0  0  0  0  0  0  0  0  0  0  0
    5.8757   -2.0020    0.1290 H   0  0  0  0  0  0  0  0  0  0  0  0
    5.0407    0.2125    1.2707 H   0  0  0  0  0  0  0  0  0  0  0  0
    4.5803   -1.3263    2.0467 H   0  0  0  0  0  0  0  0  0  0  0  0
    2.2239   -0.8177    2.7663 H   0  0  0  0  0  0  0  0  0  0  0  0
   -0.5960   -0.5535    3.0950 H   0  0  0  0  0  0  0  0  0  0  0  0
   -1.4649    0.5889   -0.8921 H   0  0  0  0  0  0  0  0  0  0  0  0
    1.1831    0.5081   -1.8446 H   0  0  0  0  0  0  0  0  0  0  0  0
    4.0429    1.2038   -1.4329 H   0  0  0  0  0  0  0  0  0  0  0  0
    3.3653   -0.0423   -2.4792 H   0  0  0  0  0  0  0  0  0  0  0  0
   -3.5511    0.0788    0.5652 H   0  0  0  0  0  0  0  0  0  0  0  0
   -4.4283    1.3987    2.4854 H   0  0  0  0  0  0  0  0  0  0  0  0
   -2.7615    1.5132    3.1428 H   0  0  0  0  0  0  0  0  0  0  0  0
   -4.9333    2.7711    0.4974 H   0  0  0  0  0  0  0  0  0  0  0  0
   -4.3721    4.8279   -0.8032 H   0  0  0  0  0  0  0  0  0  0  0  0
   -2.1540    5.8556   -0.5868 H   0  0  0  0  0  0  0  0  0  0  0  0
   -0.5016    4.8495    0.9107 H   0  0  0  0  0  0  0  0  0  0  0  0
   -1.0539    2.8363    2.1824 H   0  0  0  0  0  0  0  0  0  0  0  0
   -2.6636   -1.5128    2.6251 H   0  0  0  0  0  0  0  0  0  0  0  0
   -4.5879   -1.1395   -1.1937 H   0  0  0  0  0  0  0  0  0  0  0  0
   -3.5921   -2.0168   -3.1910 H   0  0  0  0  0  0  0  0  0  0  0  0
   -2.2672   -4.0593   -3.0924 H   0  0  0  0  0  0  0  0  0  0  0  0
   -1.9237   -5.2455   -0.9749 H   0  0  0  0  0  0  0  0  0  0  0  0
   -2.9512   -4.3391    1.1079 H   0  0  0  0  0  0  0  0  0  0  0  0
  1  2  1  0
  2  3  2  0
  2  4  1  0
  4  5  1  0
  5  6  1  0
  6  7  1  0
  7  8  1  0
  8  9  2  0
  9 10  1  0
 10 11  1  0
 11 12  2  0
 12 13  1  0
 13 14  1  0
 14 15  1  0
 15 16  2  0
 16 17  1  0
 12 18  1  0
 18 19  1  0
 19 20  1  0
 20 21  2  0
 21 22  1  0
 22 23  2  0
 23 24  1  0
 24 25  2  0
 18 26  1  0
 26 27  1  0
 27 28  2  0
 27 29  2  0
 27 30  1  0
 30 31  2  0
 31 32  1  0
 32 33  2  0
 33 34  1  0
 34 35  2  0
 17  5  1  0
 25 20  1  0
 35 30  1  0
 16  8  1  0
 14 10  2  0
  1 36  1  0
  1 37  1  0
  4 38  1  0
  4 39  1  0
  6 40  1  0
  6 41  1  0
  7 42  1  0
  7 43  1  0
  9 44  1  0
 11 45  1  0
 13 46  1  0
 15 47  1  0
 17 48  1  0
 17 49  1  0
 18 50  1  6
 19 51  1  0
 19 52  1  0
 21 53  1  0
 22 54  1  0
 23 55  1  0
 24 56  1  0
 25 57  1  0
 26 58  1  0
 31 59  1  0
 32 60  1  0
 33 61  1  0
 34 62  1  0
 35 63  1  0
M  END
$$$$
[H]C([H])=C(N([H])C(=O)C([H])([H])N(C(=O)c1c([H])n([H])c2c([H])c([H])c([H])c([H])c12)c1c([H])c([H])c(Oc2c([H])c([H])nc3c([H])c(OC([H])([H])[H])c(OC([H])([H])[H])c([H])c23)c([H])c1[H])C([H])([H])[H]
     RDKit          3D

 68 72  0  0  0  0  0  0  0  0999 V2000
    9.2083   -0.0747   -2.2218 C   0  0  0  0  0  0  0  0  0  0  0  0
    8.4566    0.6514   -1.2679 O   0  0  0  0  0  0  0  0  0  0  0  0
    7.0993    0.3779   -1.1110 C   0  0  0  0  0  0  0  0  0  0  0  0
    6.4443   -0.5793   -1.8530 C   0  0  0  0  0  0  0  0  0  0  0  0
    5.1031   -0.8564   -1.7049 C   0  0  0  0  0  0  0  0  0  0  0  0
    4.4671   -1.7978   -2.4327 N   0  0  0  0  0  0  0  0  0  0  0  0
    3.1649   -2.0678   -2.2864 C   0  0  0  0  0  0  0  0  0  0  0  0
    2.3750   -1.3988   -1.3761 C   0  0  0  0  0  0  0  0  0  0  0  0
    2.9881   -0.4209   -0.6055 C   0  0  0  0  0  0  0  0  0  0  0  0
    2.2876    0.3157    0.3403 O   0  0  0  0  0  0  0  0  0  0  0  0
    0.9446    0.0837    0.5573 C   0  0  0  0  0  0  0  0  0  0  0  0
   -0.0448    0.6742   -0.1819 C   0  0  0  0  0  0  0  0  0  0  0  0
   -1.3880    0.4155    0.0675 C   0  0  0  0  0  0  0  0  0  0  0  0
   -1.7541   -0.4449    1.0710 C   0  0  0  0  0  0  0  0  0  0  0  0
   -0.7128   -1.0326    1.8108 C   0  0  0  0  0  0  0  0  0  0  0  0
    0.5964   -0.7898    1.5772 C   0  0  0  0  0  0  0  0  0  0  0  0
   -3.1025   -0.7703    1.3870 N   0  0  0  0  0  0  0  0  0  0  0  0
   -3.5066   -2.1298    1.1816 C   0  0  0  0  0  0  0  0  0  0  0  0
   -4.0554   -2.4037   -0.1851 C   0  0  0  0  0  0  0  0  0  0  0  0
   -4.1181   -1.4777   -1.0321 O   0  0  0  0  0  0  0  0  0  0  0  0
   -4.4739   -3.6946   -0.4508 N   0  0  0  0  0  0  0  0  0  0  0  0
   -5.0074   -4.1798   -1.6419 C   0  0  0  0  0  0  0  0  0  0  0  0
   -5.4241   -5.6544   -1.7343 C   0  0  0  0  0  0  0  0  0  0  0  0
   -5.2115   -3.5095   -2.7324 C   0  0  0  0  0  0  0  0  0  0  0  0
   -3.9756    0.1991    1.8904 C   0  0  0  0  0  0  0  0  0  0  0  0
   -5.1809   -0.1688    2.1595 O   0  0  0  0  0  0  0  0  0  0  0  0
   -3.6976    1.5965    2.1593 C   0  0  0  0  0  0  0  0  0  0  0  0
   -3.1220    2.0653    3.3546 C   0  0  0  0  0  0  0  0  0  0  0  0
   -2.9860    3.3855    3.2835 N   0  0  0  0  0  0  0  0  0  0  0  0
   -3.4502    3.7943    2.0898 C   0  0  0  0  0  0  0  0  0  0  0  0
   -3.5173    5.0847    1.5794 C   0  0  0  0  0  0  0  0  0  0  0  0
   -4.0550    5.2397    0.3140 C   0  0  0  0  0  0  0  0  0  0  0  0
   -4.5030    4.1482   -0.4020 C   0  0  0  0  0  0  0  0  0  0  0  0
   -4.4268    2.8799    0.1217 C   0  0  0  0  0  0  0  0  0  0  0  0
   -3.8970    2.7083    1.3731 C   0  0  0  0  0  0  0  0  0  0  0  0
    4.3452   -0.1648   -0.7819 C   0  0  0  0  0  0  0  0  0  0  0  0
    5.0014    0.8039   -0.0289 C   0  0  0  0  0  0  0  0  0  0  0  0
    6.3475    1.0757   -0.1828 C   0  0  0  0  0  0  0  0  0  0  0  0
    6.9726    2.0419    0.5789 O   0  0  0  0  0  0  0  0  0  0  0  0
    6.3889    2.8388    1.5598 C   0  0  0  0  0  0  0  0  0  0  0  0
   10.2777    0.0934   -2.0624 H   0  0  0  0  0  0  0  0  0  0  0  0
    8.9967   -1.1640   -2.0528 H   0  0  0  0  0  0  0  0  0  0  0  0
    8.8611    0.1432   -3.2560 H   0  0  0  0  0  0  0  0  0  0  0  0
    7.0293   -1.1407   -2.5924 H   0  0  0  0  0  0  0  0  0  0  0  0
    2.6865   -2.8333   -2.8896 H   0  0  0  0  0  0  0  0  0  0  0  0
    1.3205   -1.6093   -1.2503 H   0  0  0  0  0  0  0  0  0  0  0  0
    0.1999    1.3723   -0.9953 H   0  0  0  0  0  0  0  0  0  0  0  0
   -2.1669    0.8842   -0.5318 H   0  0  0  0  0  0  0  0  0  0  0  0
   -1.0022   -1.7230    2.6156 H   0  0  0  0  0  0  0  0  0  0  0  0
    1.3374   -1.2833    2.1921 H   0  0  0  0  0  0  0  0  0  0  0  0
   -2.6827   -2.8024    1.4407 H   0  0  0  0  0  0  0  0  0  0  0  0
   -4.3761   -2.3076    1.8836 H   0  0  0  0  0  0  0  0  0  0  0  0
   -4.3881   -4.4213    0.3324 H   0  0  0  0  0  0  0  0  0  0  0  0
   -6.4857   -5.7175   -1.4542 H   0  0  0  0  0  0  0  0  0  0  0  0
   -5.2927   -6.0288   -2.7570 H   0  0  0  0  0  0  0  0  0  0  0  0
   -4.8483   -6.2708   -1.0505 H   0  0  0  0  0  0  0  0  0  0  0  0
   -5.6439   -4.0200   -3.6135 H   0  0  0  0  0  0  0  0  0  0  0  0
   -4.9924   -2.4866   -2.8614 H   0  0  0  0  0  0  0  0  0  0  0  0
   -2.8439    1.4403    4.1828 H   0  0  0  0  0  0  0  0  0  0  0  0
   -2.5912    4.0017    4.0162 H   0  0  0  0  0  0  0  0  0  0  0  0
   -3.1818    5.9485    2.1058 H   0  0  0  0  0  0  0  0  0  0  0  0
   -4.1412    6.2318   -0.1552 H   0  0  0  0  0  0  0  0  0  0  0  0
   -4.9122    4.3157   -1.3771 H   0  0  0  0  0  0  0  0  0  0  0  0
   -4.7823    2.0062   -0.4425 H   0  0  0  0  0  0  0  0  0  0  0  0
    4.3784    1.3361    0.6941 H   0  0  0  0  0  0  0  0  0  0  0  0
    7.1161    3.0874    2.3800 H   0  0  0  0  0  0  0  0  0  0  0  0
    6.0259    3.8261    1.1875 H   0  0  0  0  0  0  0  0  0  0  0  0
    5.5218    2.3579    2.0674 H   0  0  0  0  0  0  0  0  0  0  0  0
  1  2  1  0
  2  3  1  0
  3  4  2  0
  4  5  1  0
  5  6  2  0
  6  7  1  0
  7  8  2  0
  8  9  1  0
  9 10  1  0
 10 11  1  0
 11 12  2  0
 12 13  1  0
 13 14  2  0
 14 15  1  0
 15 16  2  0
 14 17  1  0
 17 18  1  0
 18 19  1  0
 19 20  2  0
 19 21  1  0
 21 22  1  0
 22 23  1  0
 22 24  2  3
 17 25  1  0
 25 26  2  0
 25 27  1  0
 27 28  2  0
 28 29  1  0
 29 30  1  0
 30 31  2  0
 31 32  1  0
 32 33  2  0
 33 34  1  0
 34 35  2  0
  9 36  2  0
 36 37  1  0
 37 38  2  0
 38 39  1  0
 39 40  1  0
 38  3  1  0
 36  5  1  0
 16 11  1  0
 35 27  1  0
 35 30  1  0
  1 41  1  0
  1 42  1  0
  1 43  1  0
  4 44  1  0
  7 45  1  0
  8 46  1  0
 12 47  1  0
 13 48  1  0
 15 49  1  0
 16 50  1  0
 18 51  1  0
 18 52  1  0
 21 53  1  0
 23 54  1  0
 23 55  1  0
 23 56  1  0
 24 57  1  0
 24 58  1  0
 28 59  1  0
 29 60  1  0
 31 61  1  0
 32 62  1  0
 33 63  1  0
 34 64  1  0
 37 65  1  0
 40 66  1  0
 40 67  1  0
 40 68  1  0
M  END
$$$$
[H]c1nc(N([H])c2c([H])c([H])c3nnn([H])c(=O)c3c2[H])nc(C([H])([H])N2C([H])([H])C([H])([H])C(OC([H])([H])[H])(C([H])([H])C([H])([H])[H])C([H])([H])C2([H])[H])c1Cl
     RDKit          3D

 54 57  0  0  0  0  0  0  0  0999 V2000
   -6.1962    2.1466   -0.2306 C   0  0  0  0  0  0  0  0  0  0  0  0
   -6.0142    0.7900    0.3239 C   0  0  0  0  0  0  0  0  0  0  0  0
   -4.7073    0.1716   -0.1552 C   0  0  0  0  0  0  0  0  0  0  0  0
   -4.6123    0.0339   -1.5107 O   0  0  0  0  0  0  0  0  0  0  0  0
   -5.5447   -0.7579   -2.1155 C   0  0  0  0  0  0  0  0  0  0  0  0
   -3.5401    1.0271    0.2995 C   0  0  0  0  0  0  0  0  0  0  0  0
   -2.2791    0.2425   -0.1755 C   0  0  0  0  0  0  0  0  0  0  0  0
   -2.1650   -0.9555    0.5292 N   0  0  0  0  0  0  0  0  0  0  0  0
   -0.9707   -1.6854    0.3941 C   0  0  0  0  0  0  0  0  0  0  0  0
    0.2898   -1.0341    0.7189 C   0  0  0  0  0  0  0  0  0  0  0  0
    1.3333   -1.1184   -0.1143 N   0  0  0  0  0  0  0  0  0  0  0  0
    2.5704   -0.6667    0.1421 C   0  0  0  0  0  0  0  0  0  0  0  0
    3.6561   -0.8484   -0.7427 N   0  0  0  0  0  0  0  0  0  0  0  0
    4.9819   -0.4368   -0.5795 C   0  0  0  0  0  0  0  0  0  0  0  0
    5.9557   -1.3169   -1.1052 C   0  0  0  0  0  0  0  0  0  0  0  0
    7.2717   -1.0014   -0.9777 C   0  0  0  0  0  0  0  0  0  0  0  0
    7.6412    0.1581   -0.3434 C   0  0  0  0  0  0  0  0  0  0  0  0
    8.9430    0.5252   -0.1888 N   0  0  0  0  0  0  0  0  0  0  0  0
    9.2597    1.6295    0.4127 N   0  0  0  0  0  0  0  0  0  0  0  0
    8.4350    2.5239    0.9380 N   0  0  0  0  0  0  0  0  0  0  0  0
    7.1059    2.1822    0.7975 C   0  0  0  0  0  0  0  0  0  0  0  0
    6.2746    2.9908    1.2741 O   0  0  0  0  0  0  0  0  0  0  0  0
    6.7101    1.0393    0.1792 C   0  0  0  0  0  0  0  0  0  0  0  0
    5.3704    0.7073    0.0439 C   0  0  0  0  0  0  0  0  0  0  0  0
    2.8045   -0.0610    1.3455 N   0  0  0  0  0  0  0  0  0  0  0  0
    1.8001    0.0484    2.2044 C   0  0  0  0  0  0  0  0  0  0  0  0
    0.5414   -0.4159    1.9392 C   0  0  0  0  0  0  0  0  0  0  0  0
   -0.7438   -0.2151    3.0784 Cl  0  0  0  0  0  0  0  0  0  0  0  0
   -3.2909   -1.8174    0.5467 C   0  0  0  0  0  0  0  0  0  0  0  0
   -4.6056   -1.1449    0.6056 C   0  0  0  0  0  0  0  0  0  0  0  0
   -6.0667    2.8772    0.5891 H   0  0  0  0  0  0  0  0  0  0  0  0
   -7.2430    2.3013   -0.6033 H   0  0  0  0  0  0  0  0  0  0  0  0
   -5.5081    2.3506   -1.0637 H   0  0  0  0  0  0  0  0  0  0  0  0
   -5.9146    0.7984    1.4608 H   0  0  0  0  0  0  0  0  0  0  0  0
   -6.8541    0.1125    0.1109 H   0  0  0  0  0  0  0  0  0  0  0  0
   -5.5440   -1.8160   -1.8033 H   0  0  0  0  0  0  0  0  0  0  0  0
   -5.3890   -0.7110   -3.2120 H   0  0  0  0  0  0  0  0  0  0  0  0
   -6.5922   -0.3597   -1.9548 H   0  0  0  0  0  0  0  0  0  0  0  0
   -3.5335    2.0390   -0.0968 H   0  0  0  0  0  0  0  0  0  0  0  0
   -3.5857    0.9949    1.4191 H   0  0  0  0  0  0  0  0  0  0  0  0
   -2.3534    0.1477   -1.2683 H   0  0  0  0  0  0  0  0  0  0  0  0
   -1.4125    0.9034    0.0644 H   0  0  0  0  0  0  0  0  0  0  0  0
   -0.9142   -2.1213   -0.6542 H   0  0  0  0  0  0  0  0  0  0  0  0
   -1.0145   -2.6076    1.0660 H   0  0  0  0  0  0  0  0  0  0  0  0
    3.3934   -1.3647   -1.6511 H   0  0  0  0  0  0  0  0  0  0  0  0
    5.6068   -2.2179   -1.5969 H   0  0  0  0  0  0  0  0  0  0  0  0
    8.0597   -1.6183   -1.3684 H   0  0  0  0  0  0  0  0  0  0  0  0
    8.7362    3.3909    1.4029 H   0  0  0  0  0  0  0  0  0  0  0  0
    4.6545    1.4070    0.4545 H   0  0  0  0  0  0  0  0  0  0  0  0
    1.9738    0.5190    3.1503 H   0  0  0  0  0  0  0  0  0  0  0  0
   -3.2071   -2.4631    1.4753 H   0  0  0  0  0  0  0  0  0  0  0  0
   -3.3035   -2.5541   -0.2773 H   0  0  0  0  0  0  0  0  0  0  0  0
   -5.3748   -1.8204    0.1915 H   0  0  0  0  0  0  0  0  0  0  0  0
   -4.8882   -0.9287    1.6466 H   0  0  0  0  0  0  0  0  0  0  0  0
  1  2  1  0
  2  3  1  0
  3  4  1  0
  4  5  1  0
  3  6  1  0
  6  7  1  0
  7  8  1  0
  8  9  1  0
  9 10  1  0
 10 11  2  0
 11 12  1  0
 12 13  1  0
 13 14  1  0
 14 15  2  0
 15 16  1  0
 16 17  2  0
 17 18  1  0
 18 19  2  0
 19 20  1  0
 20 21  1  0
 21 22  2  0
 21 23  1  0
 23 24  2  0
 12 25  2  0
 25 26  1  0
 26 27  2  0
 27 28  1  0
  8 29  1  0
 29 30  1  0
 30  3  1  0
 27 10  1  0
 24 14  1  0
 23 17  1  0
  1 31  1  0
  1 32  1  0
  1 33  1  0
  2 34  1  0
  2 35  1  0
  5 36  1  0
  5 37  1  0
  5 38  1  0
  6 39  1  0
  6 40  1  0
  7 41  1  0
  7 42  1  0
  9 43  1  0
  9 44  1  0
 13 45  1  0
 15 46  1  0
 16 47  1  0
 20 48  1  0
 24 49  1  0
 26 50  1  0
 29 51  1  0
 29 52  1  0
 30 53  1  0
 30 54  1  0
M  END
$$$$
[H]c1c(C([H])([H])[H])nc(C(C([H])([H])[H])(C([H])([H])[H])C([H])([H])[H])c([H])c1-c1c([H])c([H])c(-n2c(C3([H])C([H])([H])C([H])([H])OC([H])([H])C3([H])[H])nc3c([H])c([H])c([H])c([H])c32)c([H])c1F
     RDKit          3D

 63 67  0  0  0  0  0  0  0  0999 V2000
    4.3390   -3.2655   -2.1925 C   0  0  0  0  0  0  0  0  0  0  0  0
    4.0180   -2.0802   -1.3651 C   0  0  0  0  0  0  0  0  0  0  0  0
    2.7097   -1.6562   -1.2517 C   0  0  0  0  0  0  0  0  0  0  0  0
    2.3715   -0.5411   -0.5030 C   0  0  0  0  0  0  0  0  0  0  0  0
    3.4088    0.1346    0.1285 C   0  0  0  0  0  0  0  0  0  0  0  0
    4.7259   -0.3018    0.0085 C   0  0  0  0  0  0  0  0  0  0  0  0
    4.9928   -1.3970   -0.7337 N   0  0  0  0  0  0  0  0  0  0  0  0
    5.8029    0.4611    0.6970 C   0  0  0  0  0  0  0  0  0  0  0  0
    6.1634    1.7313   -0.0517 C   0  0  0  0  0  0  0  0  0  0  0  0
    7.0562   -0.4201    0.6925 C   0  0  0  0  0  0  0  0  0  0  0  0
    5.4735    0.7750    2.1223 C   0  0  0  0  0  0  0  0  0  0  0  0
    0.9869   -0.1157   -0.3850 C   0  0  0  0  0  0  0  0  0  0  0  0
    0.1329   -0.0283   -1.4825 C   0  0  0  0  0  0  0  0  0  0  0  0
   -1.1810    0.3745   -1.3765 C   0  0  0  0  0  0  0  0  0  0  0  0
   -1.6908    0.7087   -0.1494 C   0  0  0  0  0  0  0  0  0  0  0  0
   -0.8740    0.6315    0.9544 C   0  0  0  0  0  0  0  0  0  0  0  0
    0.4486    0.2254    0.8522 C   0  0  0  0  0  0  0  0  0  0  0  0
    1.1820    0.1729    1.9806 F   0  0  0  0  0  0  0  0  0  0  0  0
   -3.0356    1.1262   -0.0297 N   0  0  0  0  0  0  0  0  0  0  0  0
   -4.1226    0.3791    0.2329 C   0  0  0  0  0  0  0  0  0  0  0  0
   -5.1974    1.1434    0.2589 N   0  0  0  0  0  0  0  0  0  0  0  0
   -4.8710    2.4216    0.0138 C   0  0  0  0  0  0  0  0  0  0  0  0
   -5.5480    3.6208   -0.0717 C   0  0  0  0  0  0  0  0  0  0  0  0
   -4.8634    4.8000   -0.3382 C   0  0  0  0  0  0  0  0  0  0  0  0
   -3.4997    4.7672   -0.5174 C   0  0  0  0  0  0  0  0  0  0  0  0
   -2.8012    3.5548   -0.4356 C   0  0  0  0  0  0  0  0  0  0  0  0
   -3.5076    2.4032   -0.1686 C   0  0  0  0  0  0  0  0  0  0  0  0
   -4.0863   -1.1027    0.4374 C   0  0  0  0  0  0  0  0  0  0  0  0
   -5.1376   -1.8157   -0.3321 C   0  0  0  0  0  0  0  0  0  0  0  0
   -5.0466   -3.2951   -0.0252 C   0  0  0  0  0  0  0  0  0  0  0  0
   -5.1833   -3.5339    1.3423 O   0  0  0  0  0  0  0  0  0  0  0  0
   -4.2271   -2.8706    2.1050 C   0  0  0  0  0  0  0  0  0  0  0  0
   -4.3547   -1.3523    1.9222 C   0  0  0  0  0  0  0  0  0  0  0  0
    3.4435   -3.5906   -2.7708 H   0  0  0  0  0  0  0  0  0  0  0  0
    5.1712   -2.9666   -2.8908 H   0  0  0  0  0  0  0  0  0  0  0  0
    4.7165   -4.0415   -1.5289 H   0  0  0  0  0  0  0  0  0  0  0  0
    1.8894   -2.1840   -1.7486 H   0  0  0  0  0  0  0  0  0  0  0  0
    3.2069    1.0098    0.7222 H   0  0  0  0  0  0  0  0  0  0  0  0
    5.4361    2.5490    0.1483 H   0  0  0  0  0  0  0  0  0  0  0  0
    6.3188    1.5578   -1.1259 H   0  0  0  0  0  0  0  0  0  0  0  0
    7.1584    2.0721    0.3595 H   0  0  0  0  0  0  0  0  0  0  0  0
    7.4079   -0.5618   -0.3521 H   0  0  0  0  0  0  0  0  0  0  0  0
    6.6984   -1.4454    1.0081 H   0  0  0  0  0  0  0  0  0  0  0  0
    7.8364   -0.0632    1.3767 H   0  0  0  0  0  0  0  0  0  0  0  0
    4.4067    0.5745    2.3611 H   0  0  0  0  0  0  0  0  0  0  0  0
    6.0548    0.1605    2.8462 H   0  0  0  0  0  0  0  0  0  0  0  0
    5.6859    1.8348    2.3786 H   0  0  0  0  0  0  0  0  0  0  0  0
    0.5173   -0.2935   -2.4630 H   0  0  0  0  0  0  0  0  0  0  0  0
   -1.8071    0.4315   -2.2301 H   0  0  0  0  0  0  0  0  0  0  0  0
   -1.2245    0.8890    1.9447 H   0  0  0  0  0  0  0  0  0  0  0  0
   -6.6143    3.6515    0.0655 H   0  0  0  0  0  0  0  0  0  0  0  0
   -5.3567    5.7629   -0.4118 H   0  0  0  0  0  0  0  0  0  0  0  0
   -2.9113    5.6511   -0.7155 H   0  0  0  0  0  0  0  0  0  0  0  0
   -1.7388    3.5021   -0.5672 H   0  0  0  0  0  0  0  0  0  0  0  0
   -3.0928   -1.5234    0.2454 H   0  0  0  0  0  0  0  0  0  0  0  0
   -6.1239   -1.4027   -0.0140 H   0  0  0  0  0  0  0  0  0  0  0  0
   -5.0582   -1.6666   -1.4366 H   0  0  0  0  0  0  0  0  0  0  0  0
   -4.1125   -3.6888   -0.4448 H   0  0  0  0  0  0  0  0  0  0  0  0
   -5.9408   -3.7585   -0.5178 H   0  0  0  0  0  0  0  0  0  0  0  0
   -4.4485   -3.0904    3.1522 H   0  0  0  0  0  0  0  0  0  0  0  0
   -3.1976   -3.1304    1.8345 H   0  0  0  0  0  0  0  0  0  0  0  0
   -5.3555   -1.0147    2.1972 H   0  0  0  0  0  0  0  0  0  0  0  0
   -3.5497   -0.8797    2.4994 H   0  0  0  0  0  0  0  0  0  0  0  0
  1  2  1  0
  2  3  2  0
  3  4  1  0
  4  5  2  0
  5  6  1  0
  6  7  2  0
  6  8  1  0
  8  9  1  0
  8 10  1  0
  8 11  1  0
  4 12  1  0
 12 13  2  0
 13 14  1  0
 14 15  2  0
 15 16  1  0
 16 17  2  0
 17 18  1  0
 15 19  1  0
 19 20  1  0
 20 21  2  0
 21 22  1  0
 22 23  2  0
 23 24  1  0
 24 25  2  0
 25 26  1  0
 26 27  2  0
 20 28  1  0
 28 29  1  0
 29 30  1  0
 30 31  1  0
 31 32  1  0
 32 33  1  0
  7  2  1  0
 17 12  1  0
 27 19  1  0
 33 28  1  0
 27 22  1  0
  1 34  1  0
  1 35  1  0
  1 36  1  0
  3 37  1  0
  5 38  1  0
  9 39  1  0
  9 40  1  0
  9 41  1  0
 10 42  1  0
 10 43  1  0
 10 44  1  0
 11 45  1  0
 11 46  1  0
 11 47  1  0
 13 48  1  0
 14 49  1  0
 16 50  1  0
 23 51  1  0
 24 52  1  0
 25 53  1  0
 26 54  1  0
 28 55  1  0
 29 56  1  0
 29 57  1  0
 30 58  1  0
 30 59  1  0
 32 60  1  0
 32 61  1  0
 33 62  1  0
 33 63  1  0
M  END
$$$$
[H]c1c([H])c2c([H])c([H])c1C(=O)N(C([H])([H])c1c([H])c([H])c(C(=O)N([H])[H])c([H])c1[H])C([H])([H])C([H])([H])c1c(n([H])c(=S)n1[H])C2([H])[H]
     RDKit          3D

 48 51  0  0  0  0  0  0  0  0999 V2000
    7.0150    0.7584    1.6165 N   0  0  0  0  0  0  0  0  0  0  0  0
    6.6088   -0.0350    0.5217 C   0  0  0  0  0  0  0  0  0  0  0  0
    7.4342   -0.8097   -0.0078 O   0  0  0  0  0  0  0  0  0  0  0  0
    5.2617    0.0151   -0.0151 C   0  0  0  0  0  0  0  0  0  0  0  0
    4.3632    0.8665    0.5674 C   0  0  0  0  0  0  0  0  0  0  0  0
    3.0806    0.9158    0.0587 C   0  0  0  0  0  0  0  0  0  0  0  0
    2.6300    0.1647   -1.0022 C   0  0  0  0  0  0  0  0  0  0  0  0
    1.2991    0.2236   -1.5322 C   0  0  0  0  0  0  0  0  0  0  0  0
    0.2298   -0.5165   -0.9295 N   0  0  0  0  0  0  0  0  0  0  0  0
   -0.5451    0.2284    0.0095 C   0  0  0  0  0  0  0  0  0  0  0  0
   -1.7469    0.9860   -0.2355 C   0  0  0  0  0  0  0  0  0  0  0  0
   -2.8086    1.1521    0.7713 C   0  0  0  0  0  0  0  0  0  0  0  0
   -2.5595    1.8583    1.9473 N   0  0  0  0  0  0  0  0  0  0  0  0
   -3.6404    1.9391    2.7154 C   0  0  0  0  0  0  0  0  0  0  0  0
   -3.8012    2.6737    4.1755 S   0  0  0  0  0  0  0  0  0  0  0  0
   -4.5894    1.2925    2.0533 N   0  0  0  0  0  0  0  0  0  0  0  0
   -4.0876    0.8001    0.8531 C   0  0  0  0  0  0  0  0  0  0  0  0
   -5.0058   -0.0511   -0.0237 C   0  0  0  0  0  0  0  0  0  0  0  0
   -4.0892   -1.2178   -0.5376 C   0  0  0  0  0  0  0  0  0  0  0  0
   -3.3825   -1.7855    0.4752 C   0  0  0  0  0  0  0  0  0  0  0  0
   -2.0823   -2.2885    0.0892 C   0  0  0  0  0  0  0  0  0  0  0  0
   -1.6036   -2.2031   -1.1907 C   0  0  0  0  0  0  0  0  0  0  0  0
   -2.3595   -1.6728   -2.2010 C   0  0  0  0  0  0  0  0  0  0  0  0
   -3.6681   -1.1571   -1.8301 C   0  0  0  0  0  0  0  0  0  0  0  0
   -0.0547   -1.9615   -1.3116 C   0  0  0  0  0  0  0  0  0  0  0  0
    0.9561   -2.5156   -1.5950 O   0  0  0  0  0  0  0  0  0  0  0  0
    3.5762   -0.6913   -1.5704 C   0  0  0  0  0  0  0  0  0  0  0  0
    4.8605   -0.7554   -1.0778 C   0  0  0  0  0  0  0  0  0  0  0  0
    7.3371    1.7607    1.5229 H   0  0  0  0  0  0  0  0  0  0  0  0
    6.9998    0.3344    2.5907 H   0  0  0  0  0  0  0  0  0  0  0  0
    4.6553    1.4982    1.4221 H   0  0  0  0  0  0  0  0  0  0  0  0
    2.4012    1.6312    0.5614 H   0  0  0  0  0  0  0  0  0  0  0  0
    1.3578   -0.1310   -2.6153 H   0  0  0  0  0  0  0  0  0  0  0  0
    1.0375    1.3077   -1.6657 H   0  0  0  0  0  0  0  0  0  0  0  0
    0.2209    0.9679    0.4754 H   0  0  0  0  0  0  0  0  0  0  0  0
   -0.6961   -0.3966    0.9636 H   0  0  0  0  0  0  0  0  0  0  0  0
   -1.3137    2.1289   -0.2855 H   0  0  0  0  0  0  0  0  0  0  0  0
   -2.0406    1.0124   -1.2879 H   0  0  0  0  0  0  0  0  0  0  0  0
   -1.6500    2.2772    2.2236 H   0  0  0  0  0  0  0  0  0  0  0  0
   -5.5608    1.1958    2.4187 H   0  0  0  0  0  0  0  0  0  0  0  0
   -5.8865   -0.3884    0.4913 H   0  0  0  0  0  0  0  0  0  0  0  0
   -5.4002    0.6466   -0.7241 H   0  0  0  0  0  0  0  0  0  0  0  0
   -3.5962   -2.0813    1.5494 H   0  0  0  0  0  0  0  0  0  0  0  0
   -1.7283   -2.7689    1.0403 H   0  0  0  0  0  0  0  0  0  0  0  0
   -2.2460   -1.5930   -3.3193 H   0  0  0  0  0  0  0  0  0  0  0  0
   -4.1420   -0.8471   -2.7840 H   0  0  0  0  0  0  0  0  0  0  0  0
    3.3669   -1.3323   -2.4213 H   0  0  0  0  0  0  0  0  0  0  0  0
    5.5929   -1.4361   -1.5377 H   0  0  0  0  0  0  0  0  0  0  0  0
  1  2  1  0
  2  3  2  0
  2  4  1  0
  4  5  2  0
  5  6  1  0
  6  7  2  0
  7  8  1  0
  8  9  1  0
  9 10  1  0
 10 11  1  0
 11 12  1  0
 12 13  1  0
 13 14  1  0
 14 15  2  0
 14 16  1  0
 16 17  1  0
 17 18  1  0
 18 19  1  0
 19 20  2  0
 20 21  1  0
 21 22  2  0
 22 23  1  0
 23 24  2  0
 22 25  1  0
 25 26  2  0
  7 27  1  0
 27 28  2  0
 28  4  1  0
 25  9  1  0
 17 12  2  0
 24 19  1  0
  1 29  1  0
  1 30  1  0
  5 31  1  0
  6 32  1  0
  8 33  1  0
  8 34  1  0
 10 35  1  0
 10 36  1  0
 11 37  1  0
 11 38  1  0
 13 39  1  0
 16 40  1  0
 18 41  1  0
 18 42  1  0
 20 43  1  0
 21 44  1  0
 23 45  1  0
 24 46  1  0
 27 47  1  0
 28 48  1  0
M  END
$$$$
[H]OC(=O)C([H])([H])C([H])([H])c1c([H])c([H])c(-c2nc([H])nc(N([H])C(=O)c3c([H])c([H])c(C(F)(F)F)c([H])c3[H])c2[H])c([H])c1[H]
     RDKit          3D

 46 48  0  0  0  0  0  0  0  0999 V2000
   -9.0962    1.2317   -0.3325 O   0  0  0  0  0  0  0  0  0  0  0  0
   -8.1619    0.8300    0.6590 C   0  0  0  0  0  0  0  0  0  0  0  0
   -8.5720    0.8401    1.8447 O   0  0  0  0  0  0  0  0  0  0  0  0
   -6.8298    0.4541    0.2013 C   0  0  0  0  0  0  0  0  0  0  0  0
   -5.9241    0.0660    1.3760 C   0  0  0  0  0  0  0  0  0  0  0  0
   -4.5949   -0.2944    0.7463 C   0  0  0  0  0  0  0  0  0  0  0  0
   -4.3318   -1.5750    0.3027 C   0  0  0  0  0  0  0  0  0  0  0  0
   -3.1206   -1.9106   -0.3156 C   0  0  0  0  0  0  0  0  0  0  0  0
   -2.1474   -0.9723   -0.4916 C   0  0  0  0  0  0  0  0  0  0  0  0
   -2.3925    0.3392   -0.0416 C   0  0  0  0  0  0  0  0  0  0  0  0
   -3.6057    0.6527    0.5639 C   0  0  0  0  0  0  0  0  0  0  0  0
   -0.9517   -1.1776   -1.2893 C   0  0  0  0  0  0  0  0  0  0  0  0
    0.2841   -0.6904   -0.8565 C   0  0  0  0  0  0  0  0  0  0  0  0
    1.4499   -0.9253   -1.5072 C   0  0  0  0  0  0  0  0  0  0  0  0
    2.7423   -0.5817   -1.1012 N   0  0  0  0  0  0  0  0  0  0  0  0
    3.0892   -0.1528    0.1751 C   0  0  0  0  0  0  0  0  0  0  0  0
    2.2644   -0.0966    1.0943 O   0  0  0  0  0  0  0  0  0  0  0  0
    4.4840    0.2720    0.4758 C   0  0  0  0  0  0  0  0  0  0  0  0
    4.7219    1.2644    1.3645 C   0  0  0  0  0  0  0  0  0  0  0  0
    6.0302    1.6579    1.6348 C   0  0  0  0  0  0  0  0  0  0  0  0
    7.0725    1.0328    0.9953 C   0  0  0  0  0  0  0  0  0  0  0  0
    6.7928    0.0068    0.0777 C   0  0  0  0  0  0  0  0  0  0  0  0
    5.4963   -0.3743   -0.1808 C   0  0  0  0  0  0  0  0  0  0  0  0
    8.4876    1.4556    1.2098 C   0  0  0  0  0  0  0  0  0  0  0  0
    8.7158    1.7473    2.5612 F   0  0  0  0  0  0  0  0  0  0  0  0
    9.2979    0.3441    0.9144 F   0  0  0  0  0  0  0  0  0  0  0  0
    8.9121    2.4662    0.3732 F   0  0  0  0  0  0  0  0  0  0  0  0
    1.3598   -1.6913   -2.6475 N   0  0  0  0  0  0  0  0  0  0  0  0
    0.1818   -2.1765   -3.0904 C   0  0  0  0  0  0  0  0  0  0  0  0
   -0.9328   -1.9054   -2.4051 N   0  0  0  0  0  0  0  0  0  0  0  0
   -8.9513    2.1083   -0.8437 H   0  0  0  0  0  0  0  0  0  0  0  0
   -6.9114   -0.4112   -0.5221 H   0  0  0  0  0  0  0  0  0  0  0  0
   -6.3475    1.3337   -0.2807 H   0  0  0  0  0  0  0  0  0  0  0  0
   -5.8468    0.9526    2.0044 H   0  0  0  0  0  0  0  0  0  0  0  0
   -6.3568   -0.8212    1.9037 H   0  0  0  0  0  0  0  0  0  0  0  0
   -5.0946   -2.3700    0.4195 H   0  0  0  0  0  0  0  0  0  0  0  0
   -2.9217   -2.9135   -0.6677 H   0  0  0  0  0  0  0  0  0  0  0  0
   -1.6725    1.1292   -0.1717 H   0  0  0  0  0  0  0  0  0  0  0  0
   -3.7636    1.6885    0.8722 H   0  0  0  0  0  0  0  0  0  0  0  0
    0.2600   -0.1097    0.0328 H   0  0  0  0  0  0  0  0  0  0  0  0
    3.5526   -0.5874   -1.8284 H   0  0  0  0  0  0  0  0  0  0  0  0
    3.9609    1.7862    1.8935 H   0  0  0  0  0  0  0  0  0  0  0  0
    6.2065    2.4612    2.3529 H   0  0  0  0  0  0  0  0  0  0  0  0
    7.6509   -0.4548   -0.4039 H   0  0  0  0  0  0  0  0  0  0  0  0
    5.3366   -1.1843   -0.8935 H   0  0  0  0  0  0  0  0  0  0  0  0
    0.1773   -2.7446   -4.0087 H   0  0  0  0  0  0  0  0  0  0  0  0
  1  2  1  0
  2  3  2  0
  2  4  1  0
  4  5  1  0
  5  6  1  0
  6  7  2  0
  7  8  1  0
  8  9  2  0
  9 10  1  0
 10 11  2  0
  9 12  1  0
 12 13  2  0
 13 14  1  0
 14 15  1  0
 15 16  1  0
 16 17  2  0
 16 18  1  0
 18 19  2  0
 19 20  1  0
 20 21  2  0
 21 22  1  0
 22 23  2  0
 21 24  1  0
 24 25  1  0
 24 26  1  0
 24 27  1  0
 14 28  2  0
 28 29  1  0
 29 30  2  0
 11  6  1  0
 30 12  1  0
 23 18  1  0
  1 31  1  0
  4 32  1  0
  4 33  1  0
  5 34  1  0
  5 35  1  0
  7 36  1  0
  8 37  1  0
 10 38  1  0
 11 39  1  0
 13 40  1  0
 15 41  1  0
 19 42  1  0
 20 43  1  0
 22 44  1  0
 23 45  1  0
 29 46  1  0
M  END
$$$$
[H]c1nc(N([H])c2c([H])c([H])c(N3C([H])([H])C([H])([H])N(C([H])([H])C([H])([H])[H])C([H])([H])C3([H])[H])c([H])c2[H])nc(-c2c([H])nc(N([H])C(=O)N([H])c3nc(C([H])([H])[H])nc(C([H])([H])[H])c3[H])c([H])c2[H])c1[H]
     RDKit          3D

 71 75  0  0  0  0  0  0  0  0999 V2000
   -7.8496    4.1179   -1.0420 C   0  0  0  0  0  0  0  0  0  0  0  0
   -8.4260    2.7337   -0.9454 C   0  0  0  0  0  0  0  0  0  0  0  0
   -7.7553    1.8278   -1.8244 N   0  0  0  0  0  0  0  0  0  0  0  0
   -8.2412    0.4938   -1.7820 C   0  0  0  0  0  0  0  0  0  0  0  0
   -7.3272   -0.5575   -1.2929 C   0  0  0  0  0  0  0  0  0  0  0  0
   -6.1032   -0.1215   -0.6834 N   0  0  0  0  0  0  0  0  0  0  0  0
   -5.8486    1.2855   -0.5352 C   0  0  0  0  0  0  0  0  0  0  0  0
   -6.3354    1.9546   -1.8314 C   0  0  0  0  0  0  0  0  0  0  0  0
   -5.1979   -1.1446   -0.2435 C   0  0  0  0  0  0  0  0  0  0  0  0
   -5.5825   -2.4777   -0.2731 C   0  0  0  0  0  0  0  0  0  0  0  0
   -4.7443   -3.4868    0.1336 C   0  0  0  0  0  0  0  0  0  0  0  0
   -3.4462   -3.2314    0.6044 C   0  0  0  0  0  0  0  0  0  0  0  0
   -2.6360   -4.3167    1.0256 N   0  0  0  0  0  0  0  0  0  0  0  0
   -1.2514   -4.3436    1.1999 C   0  0  0  0  0  0  0  0  0  0  0  0
   -0.6742   -5.5078    1.6287 N   0  0  0  0  0  0  0  0  0  0  0  0
    0.6407   -5.6571    1.8113 C   0  0  0  0  0  0  0  0  0  0  0  0
    1.5005   -4.6033    1.5653 C   0  0  0  0  0  0  0  0  0  0  0  0
    0.9509   -3.4320    1.1372 C   0  0  0  0  0  0  0  0  0  0  0  0
   -0.3813   -3.3545    0.9758 N   0  0  0  0  0  0  0  0  0  0  0  0
    1.7797   -2.2662    0.8479 C   0  0  0  0  0  0  0  0  0  0  0  0
    1.1627   -1.0771    0.4299 C   0  0  0  0  0  0  0  0  0  0  0  0
    1.9183    0.0291    0.1443 C   0  0  0  0  0  0  0  0  0  0  0  0
    3.2886    0.0344    0.2489 C   0  0  0  0  0  0  0  0  0  0  0  0
    4.0786    1.1781   -0.0461 N   0  0  0  0  0  0  0  0  0  0  0  0
    5.4927    1.1090    0.0710 C   0  0  0  0  0  0  0  0  0  0  0  0
    6.0762    0.0476    0.4346 O   0  0  0  0  0  0  0  0  0  0  0  0
    6.3100    2.2332   -0.2167 N   0  0  0  0  0  0  0  0  0  0  0  0
    7.7154    2.1878   -0.1117 C   0  0  0  0  0  0  0  0  0  0  0  0
    8.4843    3.2935   -0.3969 C   0  0  0  0  0  0  0  0  0  0  0  0
    9.8525    3.2117   -0.2875 C   0  0  0  0  0  0  0  0  0  0  0  0
   10.7178    4.3829   -0.5887 C   0  0  0  0  0  0  0  0  0  0  0  0
   10.4341    2.0600    0.0952 N   0  0  0  0  0  0  0  0  0  0  0  0
    9.6706    0.9836    0.3721 C   0  0  0  0  0  0  0  0  0  0  0  0
   10.3077   -0.2961    0.7967 C   0  0  0  0  0  0  0  0  0  0  0  0
    8.3407    1.0600    0.2668 N   0  0  0  0  0  0  0  0  0  0  0  0
    3.8524   -1.1298    0.6552 N   0  0  0  0  0  0  0  0  0  0  0  0
    3.1449   -2.2392    0.9459 C   0  0  0  0  0  0  0  0  0  0  0  0
   -3.0839   -1.9117    0.6271 C   0  0  0  0  0  0  0  0  0  0  0  0
   -3.9312   -0.8813    0.2149 C   0  0  0  0  0  0  0  0  0  0  0  0
   -7.6728    4.4336   -2.0919 H   0  0  0  0  0  0  0  0  0  0  0  0
   -8.6260    4.8322   -0.6400 H   0  0  0  0  0  0  0  0  0  0  0  0
   -6.9617    4.2482   -0.3896 H   0  0  0  0  0  0  0  0  0  0  0  0
   -8.3462    2.3990    0.1196 H   0  0  0  0  0  0  0  0  0  0  0  0
   -9.5140    2.7593   -1.1648 H   0  0  0  0  0  0  0  0  0  0  0  0
   -8.5255    0.2137   -2.8397 H   0  0  0  0  0  0  0  0  0  0  0  0
   -9.2110    0.5010   -1.2377 H   0  0  0  0  0  0  0  0  0  0  0  0
   -7.1016   -1.3373   -2.0574 H   0  0  0  0  0  0  0  0  0  0  0  0
   -7.8734   -1.1285   -0.4814 H   0  0  0  0  0  0  0  0  0  0  0  0
   -4.7796    1.5502   -0.4559 H   0  0  0  0  0  0  0  0  0  0  0  0
   -6.4404    1.6897    0.3213 H   0  0  0  0  0  0  0  0  0  0  0  0
   -5.8637    1.4109   -2.6551 H   0  0  0  0  0  0  0  0  0  0  0  0
   -6.0747    3.0307   -1.7816 H   0  0  0  0  0  0  0  0  0  0  0  0
   -6.5892   -2.7023   -0.6360 H   0  0  0  0  0  0  0  0  0  0  0  0
   -5.0576   -4.5362    0.1060 H   0  0  0  0  0  0  0  0  0  0  0  0
   -3.1569   -5.2329    1.2406 H   0  0  0  0  0  0  0  0  0  0  0  0
    1.0619   -6.5824    2.1477 H   0  0  0  0  0  0  0  0  0  0  0  0
    2.5631   -4.6754    1.6981 H   0  0  0  0  0  0  0  0  0  0  0  0
    0.0904   -1.0249    0.3293 H   0  0  0  0  0  0  0  0  0  0  0  0
    1.4746    0.9818   -0.1857 H   0  0  0  0  0  0  0  0  0  0  0  0
    3.6018    2.0378   -0.3411 H   0  0  0  0  0  0  0  0  0  0  0  0
    5.8475    3.1214   -0.5186 H   0  0  0  0  0  0  0  0  0  0  0  0
    8.0304    4.2444   -0.7102 H   0  0  0  0  0  0  0  0  0  0  0  0
   10.1985    5.1753   -1.1466 H   0  0  0  0  0  0  0  0  0  0  0  0
   11.1717    4.7884    0.3351 H   0  0  0  0  0  0  0  0  0  0  0  0
   11.5184    4.0007   -1.2843 H   0  0  0  0  0  0  0  0  0  0  0  0
    9.6303   -0.8336    1.4874 H   0  0  0  0  0  0  0  0  0  0  0  0
   11.2645   -0.0582    1.3146 H   0  0  0  0  0  0  0  0  0  0  0  0
   10.4785   -0.9029   -0.1156 H   0  0  0  0  0  0  0  0  0  0  0  0
    3.6770   -3.1379    1.2671 H   0  0  0  0  0  0  0  0  0  0  0  0
   -2.1315   -1.6089    0.9723 H   0  0  0  0  0  0  0  0  0  0  0  0
   -3.5866    0.1544    0.2569 H   0  0  0  0  0  0  0  0  0  0  0  0
  1  2  1  0
  2  3  1  0
  3  4  1  0
  4  5  1  0
  5  6  1  0
  6  7  1  0
  7  8  1  0
  6  9  1  0
  9 10  2  0
 10 11  1  0
 11 12  2  0
 12 13  1  0
 13 14  1  0
 14 15  2  0
 15 16  1  0
 16 17  2  0
 17 18  1  0
 18 19  2  0
 18 20  1  0
 20 21  2  0
 21 22  1  0
 22 23  2  0
 23 24  1  0
 24 25  1  0
 25 26  2  0
 25 27  1  0
 27 28  1  0
 28 29  2  0
 29 30  1  0
 30 31  1  0
 30 32  2  0
 32 33  1  0
 33 34  1  0
 33 35  2  0
 23 36  1  0
 36 37  2  0
 12 38  1  0
 38 39  2  0
  8  3  1  0
 39  9  1  0
 19 14  1  0
 37 20  1  0
 35 28  1  0
  1 40  1  0
  1 41  1  0
  1 42  1  0
  2 43  1  0
  2 44  1  0
  4 45  1  0
  4 46  1  0
  5 47  1  0
  5 48  1  0
  7 49  1  0
  7 50  1  0
  8 51  1  0
  8 52  1  0
 10 53  1  0
 11 54  1  0
 13 55  1  0
 16 56  1  0
 17 57  1  0
 21 58  1  0
 22 59  1  0
 24 60  1  0
 27 61  1  0
 29 62  1  0
 31 63  1  0
 31 64  1  0
 31 65  1  0
 34 66  1  0
 34 67  1  0
 34 68  1  0
 37 69  1  0
 38 70  1  0
 39 71  1  0
M  END
$$$$
[H]c1nc(N([H])C(=O)N2C([H])([H])C([H])([H])C3([H])N([H])C(=O)[C@]([H])(C([H])([H])[H])OC(=O)[C@@]([H])(C2([H])[H])C3([H])[H])c(C(F)(F)F)c([H])c1[H]
     RDKit          3D

 47 49  0  0  0  0  0  0  0  0999 V2000
    4.6319    2.2332   -0.1204 C   0  0  0  0  0  0  0  0  0  0  0  0
    3.3729    1.7335   -0.7899 C   0  0  2  0  0  0  0  0  0  0  0  0
    2.2484    1.8527    0.0443 O   0  0  0  0  0  0  0  0  0  0  0  0
    1.8001    1.2597    1.1832 C   0  0  0  0  0  0  0  0  0  0  0  0
    1.0569    2.0540    1.8465 O   0  0  0  0  0  0  0  0  0  0  0  0
    1.9125   -0.0210    1.8829 C   0  0  2  0  0  0  0  0  0  0  0  0
    2.9212   -0.9644    1.3908 C   0  0  0  0  0  0  0  0  0  0  0  0
    2.7581   -1.6468    0.1067 C   0  0  0  0  0  0  0  0  0  0  0  0
    1.4706   -2.3775   -0.1054 C   0  0  0  0  0  0  0  0  0  0  0  0
    0.2777   -1.4905   -0.3234 C   0  0  0  0  0  0  0  0  0  0  0  0
   -0.1480   -0.8424    0.9044 N   0  0  0  0  0  0  0  0  0  0  0  0
    0.5928   -0.7178    2.1134 C   0  0  0  0  0  0  0  0  0  0  0  0
   -1.4423   -0.2576    0.9345 C   0  0  0  0  0  0  0  0  0  0  0  0
   -1.8480    0.3135    2.0026 O   0  0  0  0  0  0  0  0  0  0  0  0
   -2.2879   -0.3050   -0.2188 N   0  0  0  0  0  0  0  0  0  0  0  0
   -3.5649    0.2728   -0.1992 C   0  0  0  0  0  0  0  0  0  0  0  0
   -4.0006    0.8954    0.9177 N   0  0  0  0  0  0  0  0  0  0  0  0
   -5.2021    1.4800    1.0154 C   0  0  0  0  0  0  0  0  0  0  0  0
   -6.0480    1.4529   -0.0715 C   0  0  0  0  0  0  0  0  0  0  0  0
   -5.6234    0.8273   -1.2094 C   0  0  0  0  0  0  0  0  0  0  0  0
   -4.3703    0.2240   -1.2939 C   0  0  0  0  0  0  0  0  0  0  0  0
   -4.0113   -0.4322   -2.5596 C   0  0  0  0  0  0  0  0  0  0  0  0
   -3.7940   -1.7796   -2.3120 F   0  0  0  0  0  0  0  0  0  0  0  0
   -2.9115    0.1459   -3.1635 F   0  0  0  0  0  0  0  0  0  0  0  0
   -5.0439   -0.3492   -3.4712 F   0  0  0  0  0  0  0  0  0  0  0  0
    3.0720   -0.8903   -1.0775 N   0  0  0  0  0  0  0  0  0  0  0  0
    3.5229    0.4083   -1.4043 C   0  0  0  0  0  0  0  0  0  0  0  0
    4.2192    0.4571   -2.4722 O   0  0  0  0  0  0  0  0  0  0  0  0
    5.3395    2.6640   -0.8531 H   0  0  0  0  0  0  0  0  0  0  0  0
    5.1493    1.3648    0.3468 H   0  0  0  0  0  0  0  0  0  0  0  0
    4.3842    3.0086    0.6239 H   0  0  0  0  0  0  0  0  0  0  0  0
    3.1896    2.4522   -1.6440 H   0  0  0  0  0  0  0  0  0  0  0  0
    2.2455    0.2584    2.9351 H   0  0  0  0  0  0  0  0  0  0  0  0
    3.9154   -0.4410    1.3752 H   0  0  0  0  0  0  0  0  0  0  0  0
    3.0567   -1.7566    2.1873 H   0  0  0  0  0  0  0  0  0  0  0  0
    3.5413   -2.4767    0.1050 H   0  0  0  0  0  0  0  0  0  0  0  0
    1.2239   -3.0803    0.6997 H   0  0  0  0  0  0  0  0  0  0  0  0
    1.5915   -2.9883   -1.0316 H   0  0  0  0  0  0  0  0  0  0  0  0
    0.3744   -0.7964   -1.1784 H   0  0  0  0  0  0  0  0  0  0  0  0
   -0.5620   -2.1852   -0.6016 H   0  0  0  0  0  0  0  0  0  0  0  0
    0.0133   -0.2662    2.9384 H   0  0  0  0  0  0  0  0  0  0  0  0
    0.8559   -1.7539    2.4757 H   0  0  0  0  0  0  0  0  0  0  0  0
   -1.9375   -0.7719   -1.0698 H   0  0  0  0  0  0  0  0  0  0  0  0
   -5.5437    1.9741    1.9071 H   0  0  0  0  0  0  0  0  0  0  0  0
   -7.0437    1.9196   -0.0377 H   0  0  0  0  0  0  0  0  0  0  0  0
   -6.2809    0.8022   -2.0647 H   0  0  0  0  0  0  0  0  0  0  0  0
    2.9262   -1.4633   -1.9377 H   0  0  0  0  0  0  0  0  0  0  0  0
  1  2  1  0
  2  3  1  0
  3  4  1  0
  4  5  2  0
  4  6  1  0
  6  7  1  0
  7  8  1  0
  8  9  1  0
  9 10  1  0
 10 11  1  0
 11 12  1  0
 11 13  1  0
 13 14  2  0
 13 15  1  0
 15 16  1  0
 16 17  2  0
 17 18  1  0
 18 19  2  0
 19 20  1  0
 20 21  2  0
 21 22  1  0
 22 23  1  0
 22 24  1  0
 22 25  1  0
  8 26  1  0
 26 27  1  0
 27 28  2  0
 27  2  1  0
 12  6  1  0
 21 16  1  0
  1 29  1  0
  1 30  1  0
  1 31  1  0
  2 32  1  6
  6 33  1  1
  7 34  1  0
  7 35  1  0
  8 36  1  0
  9 37  1  0
  9 38  1  0
 10 39  1  0
 10 40  1  0
 12 41  1  0
 12 42  1  0
 15 43  1  0
 18 44  1  0
 19 45  1  0
 20 46  1  0
 26 47  1  0
M  END
$$$$
[H]c1nn([H])c([H])c1-c1c([H])c(F)c([H])c(N2C([H])([H])C([H])([H])N(C(=O)c3c([H])c(C([H])([H])N([H])C(=O)N([H])c4c([H])c([H])c([H])c([H])c4[H])c([H])c([H])c3F)C([H])([H])C2([H])[H])c1[H]
     RDKit          3D

 64 68  0  0  0  0  0  0  0  0999 V2000
    0.4286    2.3033    0.1908 F   0  0  0  0  0  0  0  0  0  0  0  0
    1.2926    1.2761   -0.0521 C   0  0  0  0  0  0  0  0  0  0  0  0
    2.3531    1.4017   -0.9278 C   0  0  0  0  0  0  0  0  0  0  0  0
    3.2166    0.3531   -1.1615 C   0  0  0  0  0  0  0  0  0  0  0  0
    2.9866   -0.8286   -0.4909 C   0  0  0  0  0  0  0  0  0  0  0  0
    3.8965   -1.9849   -0.7120 C   0  0  0  0  0  0  0  0  0  0  0  0
    5.0524   -1.6340   -1.4809 N   0  0  0  0  0  0  0  0  0  0  0  0
    6.1598   -0.8996   -0.8800 C   0  0  0  0  0  0  0  0  0  0  0  0
    6.0601   -0.5883    0.3330 O   0  0  0  0  0  0  0  0  0  0  0  0
    7.2846   -0.5589   -1.6291 N   0  0  0  0  0  0  0  0  0  0  0  0
    8.4347    0.1287   -1.2108 C   0  0  0  0  0  0  0  0  0  0  0  0
    9.3384    0.6201   -2.1779 C   0  0  0  0  0  0  0  0  0  0  0  0
   10.4899    1.2896   -1.8370 C   0  0  0  0  0  0  0  0  0  0  0  0
   10.8071    1.5076   -0.5228 C   0  0  0  0  0  0  0  0  0  0  0  0
    9.9637    1.0505    0.4481 C   0  0  0  0  0  0  0  0  0  0  0  0
    8.7949    0.3705    0.0906 C   0  0  0  0  0  0  0  0  0  0  0  0
    1.9231   -0.9490    0.3851 C   0  0  0  0  0  0  0  0  0  0  0  0
    1.0469    0.0991    0.6290 C   0  0  0  0  0  0  0  0  0  0  0  0
   -0.0665   -0.0435    1.5581 C   0  0  0  0  0  0  0  0  0  0  0  0
    0.1626    0.2595    2.7726 O   0  0  0  0  0  0  0  0  0  0  0  0
   -1.3514   -0.4937    1.1656 N   0  0  0  0  0  0  0  0  0  0  0  0
   -2.4167   -0.6165    2.1307 C   0  0  0  0  0  0  0  0  0  0  0  0
   -3.5207    0.3608    1.7151 C   0  0  0  0  0  0  0  0  0  0  0  0
   -3.8094    0.1579    0.2877 N   0  0  0  0  0  0  0  0  0  0  0  0
   -2.7295    0.1329   -0.6524 C   0  0  0  0  0  0  0  0  0  0  0  0
   -1.6442   -0.8472   -0.2042 C   0  0  0  0  0  0  0  0  0  0  0  0
   -5.1655    0.0148   -0.0758 C   0  0  0  0  0  0  0  0  0  0  0  0
   -5.5228   -0.6051   -1.2391 C   0  0  0  0  0  0  0  0  0  0  0  0
   -6.8615   -0.7493   -1.6352 C   0  0  0  0  0  0  0  0  0  0  0  0
   -7.1559   -1.3778   -2.8086 F   0  0  0  0  0  0  0  0  0  0  0  0
   -7.8483   -0.2444   -0.8146 C   0  0  0  0  0  0  0  0  0  0  0  0
   -7.5288    0.3818    0.3564 C   0  0  0  0  0  0  0  0  0  0  0  0
   -6.1856    0.5123    0.7277 C   0  0  0  0  0  0  0  0  0  0  0  0
   -8.5708    0.9152    1.2258 C   0  0  0  0  0  0  0  0  0  0  0  0
   -8.4249    2.0231    2.0357 C   0  0  0  0  0  0  0  0  0  0  0  0
   -9.6135    2.1617    2.6576 N   0  0  0  0  0  0  0  0  0  0  0  0
  -10.4405    1.2209    2.2734 N   0  0  0  0  0  0  0  0  0  0  0  0
   -9.8479    0.4161    1.3838 C   0  0  0  0  0  0  0  0  0  0  0  0
    2.5248    2.3377   -1.4506 H   0  0  0  0  0  0  0  0  0  0  0  0
    4.0610    0.4432   -1.8538 H   0  0  0  0  0  0  0  0  0  0  0  0
    4.1599   -2.4001    0.2970 H   0  0  0  0  0  0  0  0  0  0  0  0
    3.3287   -2.7866   -1.2180 H   0  0  0  0  0  0  0  0  0  0  0  0
    5.1684   -1.8737   -2.4824 H   0  0  0  0  0  0  0  0  0  0  0  0
    7.2624   -0.8679   -2.6540 H   0  0  0  0  0  0  0  0  0  0  0  0
    9.0690    0.4398   -3.2051 H   0  0  0  0  0  0  0  0  0  0  0  0
   11.1643    1.6554   -2.6001 H   0  0  0  0  0  0  0  0  0  0  0  0
   11.7009    2.0279   -0.2585 H   0  0  0  0  0  0  0  0  0  0  0  0
   10.1628    1.1952    1.5214 H   0  0  0  0  0  0  0  0  0  0  0  0
    8.1657    0.0194    0.8881 H   0  0  0  0  0  0  0  0  0  0  0  0
    1.7423   -1.8903    0.9174 H   0  0  0  0  0  0  0  0  0  0  0  0
   -2.0659   -0.3216    3.1387 H   0  0  0  0  0  0  0  0  0  0  0  0
   -2.8424   -1.6277    2.0959 H   0  0  0  0  0  0  0  0  0  0  0  0
   -3.2636    1.4032    1.8994 H   0  0  0  0  0  0  0  0  0  0  0  0
   -4.3846    0.0923    2.3461 H   0  0  0  0  0  0  0  0  0  0  0  0
   -2.1938    1.1305   -0.6723 H   0  0  0  0  0  0  0  0  0  0  0  0
   -3.0622   -0.0333   -1.6797 H   0  0  0  0  0  0  0  0  0  0  0  0
   -2.0897   -1.8701   -0.2305 H   0  0  0  0  0  0  0  0  0  0  0  0
   -0.7792   -0.7376   -0.8829 H   0  0  0  0  0  0  0  0  0  0  0  0
   -4.7592   -1.0078   -1.8821 H   0  0  0  0  0  0  0  0  0  0  0  0
   -8.8818   -0.3676   -1.1406 H   0  0  0  0  0  0  0  0  0  0  0  0
   -6.0019    1.0197    1.6573 H   0  0  0  0  0  0  0  0  0  0  0  0
   -7.5369    2.6181    2.1216 H   0  0  0  0  0  0  0  0  0  0  0  0
  -11.4262    1.1122    2.6134 H   0  0  0  0  0  0  0  0  0  0  0  0
  -10.2107   -0.4484    0.8602 H   0  0  0  0  0  0  0  0  0  0  0  0
  1  2  1  0
  2  3  2  0
  3  4  1  0
  4  5  2  0
  5  6  1  0
  6  7  1  0
  7  8  1  0
  8  9  2  0
  8 10  1  0
 10 11  1  0
 11 12  2  0
 12 13  1  0
 13 14  2  0
 14 15  1  0
 15 16  2  0
  5 17  1  0
 17 18  2  0
 18 19  1  0
 19 20  2  0
 19 21  1  0
 21 22  1  0
 22 23  1  0
 23 24  1  0
 24 25  1  0
 25 26  1  0
 24 27  1  0
 27 28  2  0
 28 29  1  0
 29 30  1  0
 29 31  2  0
 31 32  1  0
 32 33  2  0
 32 34  1  0
 34 35  1  0
 35 36  2  0
 36 37  1  0
 37 38  1  0
 18  2  1  0
 26 21  1  0
 33 27  1  0
 38 34  2  0
 16 11  1  0
  3 39  1  0
  4 40  1  0
  6 41  1  0
  6 42  1  0
  7 43  1  0
 10 44  1  0
 12 45  1  0
 13 46  1  0
 14 47  1  0
 15 48  1  0
 16 49  1  0
 17 50  1  0
 22 51  1  0
 22 52  1  0
 23 53  1  0
 23 54  1  0
 25 55  1  0
 25 56  1  0
 26 57  1  0
 26 58  1  0
 28 59  1  0
 31 60  1  0
 33 61  1  0
 35 62  1  0
 37 63  1  0
 38 64  1  0
M  END
$$$$
[H]c1c([H])c(N([H])C(=O)c2c([H])c([H])c(C([H])([H])[H])c([H])c2[H])c([H])c([H])c1OC(F)(F)F
     RDKit          3D

 33 34  0  0  0  0  0  0  0  0999 V2000
   -6.3776    0.0183    0.2255 C   0  0  0  0  0  0  0  0  0  0  0  0
   -4.9099    0.0340   -0.0104 C   0  0  0  0  0  0  0  0  0  0  0  0
   -4.0525   -0.7081    0.7610 C   0  0  0  0  0  0  0  0  0  0  0  0
   -2.6686   -0.6965    0.5424 C   0  0  0  0  0  0  0  0  0  0  0  0
   -2.1379    0.0696   -0.4628 C   0  0  0  0  0  0  0  0  0  0  0  0
   -3.0210    0.8104   -1.2289 C   0  0  0  0  0  0  0  0  0  0  0  0
   -4.3795    0.7961   -1.0110 C   0  0  0  0  0  0  0  0  0  0  0  0
   -0.7058    0.1263   -0.7320 C   0  0  0  0  0  0  0  0  0  0  0  0
   -0.3473    0.6085   -1.8188 O   0  0  0  0  0  0  0  0  0  0  0  0
    0.2381   -0.3436    0.1968 N   0  0  0  0  0  0  0  0  0  0  0  0
    1.6458   -0.3574    0.0692 C   0  0  0  0  0  0  0  0  0  0  0  0
    2.3584   -0.1114   -1.0712 C   0  0  0  0  0  0  0  0  0  0  0  0
    3.7602   -0.1375   -1.0749 C   0  0  0  0  0  0  0  0  0  0  0  0
    4.4269   -0.4141    0.0812 C   0  0  0  0  0  0  0  0  0  0  0  0
    5.8098   -0.4427    0.0895 O   0  0  0  0  0  0  0  0  0  0  0  0
    6.5300    0.7673    0.3730 C   0  0  0  0  0  0  0  0  0  0  0  0
    6.2469    1.7491   -0.5326 F   0  0  0  0  0  0  0  0  0  0  0  0
    6.0276    1.2000    1.6056 F   0  0  0  0  0  0  0  0  0  0  0  0
    7.8663    0.5100    0.5162 F   0  0  0  0  0  0  0  0  0  0  0  0
    3.7205   -0.6605    1.2208 C   0  0  0  0  0  0  0  0  0  0  0  0
    2.3582   -0.6402    1.2475 C   0  0  0  0  0  0  0  0  0  0  0  0
   -6.6358   -0.4087    1.2116 H   0  0  0  0  0  0  0  0  0  0  0  0
   -6.8152   -0.6642   -0.5441 H   0  0  0  0  0  0  0  0  0  0  0  0
   -6.7913    1.0380    0.1379 H   0  0  0  0  0  0  0  0  0  0  0  0
   -4.4472   -1.3294    1.5711 H   0  0  0  0  0  0  0  0  0  0  0  0
   -2.0763   -1.3147    1.1961 H   0  0  0  0  0  0  0  0  0  0  0  0
   -2.5911    1.4082   -2.0158 H   0  0  0  0  0  0  0  0  0  0  0  0
   -5.0740    1.3783   -1.6130 H   0  0  0  0  0  0  0  0  0  0  0  0
   -0.2033   -0.7317    1.0975 H   0  0  0  0  0  0  0  0  0  0  0  0
    1.8682    0.1003   -1.9964 H   0  0  0  0  0  0  0  0  0  0  0  0
    4.2694    0.0669   -2.0137 H   0  0  0  0  0  0  0  0  0  0  0  0
    4.2892   -0.8795    2.1322 H   0  0  0  0  0  0  0  0  0  0  0  0
    1.8187   -0.8413    2.1779 H   0  0  0  0  0  0  0  0  0  0  0  0
  1  2  1  0
  2  3  2  0
  3  4  1  0
  4  5  2  0
  5  6  1  0
  6  7  2  0
  5  8  1  0
  8  9  2  0
  8 10  1  0
 10 11  1  0
 11 12  2  0
 12 13  1  0
 13 14  2  0
 14 15  1  0
 15 16  1  0
 16 17  1  0
 16 18  1  0
 16 19  1  0
 14 20  1  0
 20 21  2  0
  7  2  1  0
 21 11  1  0
  1 22  1  0
  1 23  1  0
  1 24  1  0
  3 25  1  0
  4 26  1  0
  6 27  1  0
  7 28  1  0
 10 29  1  0
 12 30  1  0
 13 31  1  0
 20 32  1  0
 21 33  1  0
M  END
$$$$
[H]c1nc([H])n(C([H])([H])n2nc(N([H])c3c([H])c(F)c([H])c([H])c3N([H])C(=O)C([H])([H])[H])c([H])c2[H])c1[H]
     RDKit          3D

 38 40  0  0  0  0  0  0  0  0999 V2000
    3.9414    3.1548    1.2994 C   0  0  0  0  0  0  0  0  0  0  0  0
    4.1803    1.7574    0.7519 C   0  0  0  0  0  0  0  0  0  0  0  0
    5.3684    1.4368    0.6639 O   0  0  0  0  0  0  0  0  0  0  0  0
    3.1009    0.9638    0.4006 N   0  0  0  0  0  0  0  0  0  0  0  0
    3.1686   -0.3385   -0.1219 C   0  0  0  0  0  0  0  0  0  0  0  0
    4.3307   -0.8875   -0.6153 C   0  0  0  0  0  0  0  0  0  0  0  0
    4.3661   -2.1509   -1.2002 C   0  0  0  0  0  0  0  0  0  0  0  0
    3.2060   -2.8592   -1.2818 C   0  0  0  0  0  0  0  0  0  0  0  0
    3.2181   -4.0830   -1.8450 F   0  0  0  0  0  0  0  0  0  0  0  0
    2.0200   -2.3090   -0.7814 C   0  0  0  0  0  0  0  0  0  0  0  0
    1.9554   -1.0638   -0.1988 C   0  0  0  0  0  0  0  0  0  0  0  0
    0.8179   -0.5217    0.4068 N   0  0  0  0  0  0  0  0  0  0  0  0
   -0.5345   -0.8167    0.1300 C   0  0  0  0  0  0  0  0  0  0  0  0
   -1.1320   -1.5667   -0.8367 C   0  0  0  0  0  0  0  0  0  0  0  0
   -2.5287   -1.5806   -0.6605 C   0  0  0  0  0  0  0  0  0  0  0  0
   -2.7244   -0.8220    0.4272 N   0  0  0  0  0  0  0  0  0  0  0  0
   -4.0544   -0.5486    0.9953 C   0  0  0  0  0  0  0  0  0  0  0  0
   -4.6234    0.6457    0.4045 N   0  0  0  0  0  0  0  0  0  0  0  0
   -5.3930    0.7129   -0.6969 C   0  0  0  0  0  0  0  0  0  0  0  0
   -5.7135    2.0450   -0.9010 C   0  0  0  0  0  0  0  0  0  0  0  0
   -5.1155    2.7187    0.0964 N   0  0  0  0  0  0  0  0  0  0  0  0
   -4.4428    1.8834    0.9075 C   0  0  0  0  0  0  0  0  0  0  0  0
   -1.5886   -0.3739    0.8952 N   0  0  0  0  0  0  0  0  0  0  0  0
    4.5769    3.8259    0.6967 H   0  0  0  0  0  0  0  0  0  0  0  0
    2.8761    3.3860    1.2543 H   0  0  0  0  0  0  0  0  0  0  0  0
    4.2984    3.1984    2.3516 H   0  0  0  0  0  0  0  0  0  0  0  0
    2.1434    1.4249    0.5239 H   0  0  0  0  0  0  0  0  0  0  0  0
    5.2871   -0.3697   -0.5899 H   0  0  0  0  0  0  0  0  0  0  0  0
    5.3081   -2.5519   -1.5802 H   0  0  0  0  0  0  0  0  0  0  0  0
    1.1365   -2.9353   -0.8439 H   0  0  0  0  0  0  0  0  0  0  0  0
    0.9930    0.1829    1.2026 H   0  0  0  0  0  0  0  0  0  0  0  0
   -0.6860   -2.0887   -1.6687 H   0  0  0  0  0  0  0  0  0  0  0  0
   -3.2583   -2.0962   -1.2788 H   0  0  0  0  0  0  0  0  0  0  0  0
   -3.8976   -0.4265    2.0846 H   0  0  0  0  0  0  0  0  0  0  0  0
   -4.7110   -1.4111    0.8258 H   0  0  0  0  0  0  0  0  0  0  0  0
   -5.6980   -0.1318   -1.3034 H   0  0  0  0  0  0  0  0  0  0  0  0
   -6.3258    2.4552   -1.7076 H   0  0  0  0  0  0  0  0  0  0  0  0
   -3.8658    2.1415    1.7936 H   0  0  0  0  0  0  0  0  0  0  0  0
  1  2  1  0
  2  3  2  0
  2  4  1  0
  4  5  1  0
  5  6  2  0
  6  7  1  0
  7  8  2  0
  8  9  1  0
  8 10  1  0
 10 11  2  0
 11 12  1  0
 12 13  1  0
 13 14  1  0
 14 15  2  0
 15 16  1  0
 16 17  1  0
 17 18  1  0
 18 19  1  0
 19 20  2  0
 20 21  1  0
 21 22  2  0
 16 23  1  0
 11  5  1  0
 23 13  2  0
 22 18  1  0
  1 24  1  0
  1 25  1  0
  1 26  1  0
  4 27  1  0
  6 28  1  0
  7 29  1  0
 10 30  1  0
 12 31  1  0
 14 32  1  0
 15 33  1  0
 17 34  1  0
 17 35  1  0
 19 36  1  0
 20 37  1  0
 22 38  1  0
M  END
$$$$
[H]OC(=O)C([H])([H])N(c1nc([H])c(C([H])([H])[H])c(Cl)n1)c1c([H])c([H])c(N([H])C(=O)c2c([H])c([H])c([H])c(-c3c([H])c(Cl)c(Cl)c([H])c3Cl)c2[H])c([H])c1[H]
     RDKit          3D

 55 58  0  0  0  0  0  0  0  0999 V2000
    6.7153   -3.8500    2.0033 O   0  0  0  0  0  0  0  0  0  0  0  0
    6.0826   -2.6075    1.8765 C   0  0  0  0  0  0  0  0  0  0  0  0
    6.5461   -1.6682    2.5306 O   0  0  0  0  0  0  0  0  0  0  0  0
    4.9432   -2.5132    0.9969 C   0  0  0  0  0  0  0  0  0  0  0  0
    4.5257   -1.2555    0.4951 N   0  0  0  0  0  0  0  0  0  0  0  0
    3.1200   -1.1500    0.1368 C   0  0  0  0  0  0  0  0  0  0  0  0
    2.1948   -0.6837    1.0360 C   0  0  0  0  0  0  0  0  0  0  0  0
    0.8390   -0.5833    0.6849 C   0  0  0  0  0  0  0  0  0  0  0  0
    0.3866   -0.9408   -0.5520 C   0  0  0  0  0  0  0  0  0  0  0  0
   -0.9596   -0.8506   -1.0074 N   0  0  0  0  0  0  0  0  0  0  0  0
   -2.0101   -0.1350   -0.4215 C   0  0  0  0  0  0  0  0  0  0  0  0
   -1.8241    0.5277    0.6244 O   0  0  0  0  0  0  0  0  0  0  0  0
   -3.3613   -0.1439   -1.0207 C   0  0  0  0  0  0  0  0  0  0  0  0
   -3.5359   -0.4985   -2.3344 C   0  0  0  0  0  0  0  0  0  0  0  0
   -4.8455   -0.4915   -2.8322 C   0  0  0  0  0  0  0  0  0  0  0  0
   -5.9044   -0.1406   -2.0231 C   0  0  0  0  0  0  0  0  0  0  0  0
   -5.7225    0.2167   -0.6978 C   0  0  0  0  0  0  0  0  0  0  0  0
   -6.9021    0.5827    0.0861 C   0  0  0  0  0  0  0  0  0  0  0  0
   -7.8254    1.5075   -0.4220 C   0  0  0  0  0  0  0  0  0  0  0  0
   -8.9239    1.8478    0.3335 C   0  0  0  0  0  0  0  0  0  0  0  0
  -10.0763    3.0159   -0.3300 Cl  0  0  0  0  0  0  0  0  0  0  0  0
   -9.1700    1.3249    1.5751 C   0  0  0  0  0  0  0  0  0  0  0  0
  -10.5890    1.8201    2.4502 Cl  0  0  0  0  0  0  0  0  0  0  0  0
   -8.2557    0.4190    2.0597 C   0  0  0  0  0  0  0  0  0  0  0  0
   -7.1409    0.0536    1.3287 C   0  0  0  0  0  0  0  0  0  0  0  0
   -5.9940   -1.1246    1.9793 Cl  0  0  0  0  0  0  0  0  0  0  0  0
   -4.4397    0.2129   -0.2005 C   0  0  0  0  0  0  0  0  0  0  0  0
    1.3504   -1.4177   -1.4607 C   0  0  0  0  0  0  0  0  0  0  0  0
    2.6794   -1.5152   -1.1140 C   0  0  0  0  0  0  0  0  0  0  0  0
    5.3317   -0.1242    0.2288 C   0  0  0  0  0  0  0  0  0  0  0  0
    6.6583   -0.0913    0.2263 N   0  0  0  0  0  0  0  0  0  0  0  0
    7.4343    0.9522   -0.0150 C   0  0  0  0  0  0  0  0  0  0  0  0
    6.8279    2.1679   -0.3020 C   0  0  0  0  0  0  0  0  0  0  0  0
    7.6019    3.3933   -0.5852 C   0  0  0  0  0  0  0  0  0  0  0  0
    5.4527    2.1761   -0.3092 C   0  0  0  0  0  0  0  0  0  0  0  0
    4.6523    3.7126   -0.6711 Cl  0  0  0  0  0  0  0  0  0  0  0  0
    4.7279    1.0805   -0.0555 N   0  0  0  0  0  0  0  0  0  0  0  0
    7.3515   -4.2216    1.3135 H   0  0  0  0  0  0  0  0  0  0  0  0
    4.0173   -3.0047    1.4550 H   0  0  0  0  0  0  0  0  0  0  0  0
    5.0904   -3.2016    0.0826 H   0  0  0  0  0  0  0  0  0  0  0  0
    2.5185   -0.3909    2.0264 H   0  0  0  0  0  0  0  0  0  0  0  0
    0.1713   -0.2203    1.4417 H   0  0  0  0  0  0  0  0  0  0  0  0
   -1.2290   -1.3919   -1.8945 H   0  0  0  0  0  0  0  0  0  0  0  0
   -2.7219   -0.7769   -3.0065 H   0  0  0  0  0  0  0  0  0  0  0  0
   -4.9627   -0.7741   -3.8707 H   0  0  0  0  0  0  0  0  0  0  0  0
   -6.9068   -0.1446   -2.4380 H   0  0  0  0  0  0  0  0  0  0  0  0
   -7.6703    1.9426   -1.3919 H   0  0  0  0  0  0  0  0  0  0  0  0
   -8.4081   -0.0193    3.0335 H   0  0  0  0  0  0  0  0  0  0  0  0
   -4.2317    0.4865    0.8214 H   0  0  0  0  0  0  0  0  0  0  0  0
    1.0193   -1.7058   -2.4408 H   0  0  0  0  0  0  0  0  0  0  0  0
    3.4342   -1.8880   -1.8228 H   0  0  0  0  0  0  0  0  0  0  0  0
    8.5090    0.8942    0.0029 H   0  0  0  0  0  0  0  0  0  0  0  0
    8.6670    3.2874   -0.3085 H   0  0  0  0  0  0  0  0  0  0  0  0
    7.5558    3.6896   -1.6378 H   0  0  0  0  0  0  0  0  0  0  0  0
    7.2068    4.2131    0.0691 H   0  0  0  0  0  0  0  0  0  0  0  0
  1  2  1  0
  2  3  2  0
  2  4  1  0
  4  5  1  0
  5  6  1  0
  6  7  2  0
  7  8  1  0
  8  9  2  0
  9 10  1  0
 10 11  1  0
 11 12  2  0
 11 13  1  0
 13 14  2  0
 14 15  1  0
 15 16  2  0
 16 17  1  0
 17 18  1  0
 18 19  2  0
 19 20  1  0
 20 21  1  0
 20 22  2  0
 22 23  1  0
 22 24  1  0
 24 25  2  0
 25 26  1  0
 17 27  2  0
  9 28  1  0
 28 29  2  0
  5 30  1  0
 30 31  2  0
 31 32  1  0
 32 33  2  0
 33 34  1  0
 33 35  1  0
 35 36  1  0
 35 37  2  0
 29  6  1  0
 37 30  1  0
 27 13  1  0
 25 18  1  0
  1 38  1  0
  4 39  1  0
  4 40  1  0
  7 41  1  0
  8 42  1  0
 10 43  1  0
 14 44  1  0
 15 45  1  0
 16 46  1  0
 19 47  1  0
 24 48  1  0
 27 49  1  0
 28 50  1  0
 29 51  1  0
 32 52  1  0
 34 53  1  0
 34 54  1  0
 34 55  1  0
M  END
$$$$
[H]OC(=O)C1([H])C([H])([H])C([H])([H])N(C(=O)N([H])c2c([H])c(-c3c([H])c([H])c([H])c([H])c3F)nc3c(Br)c([H])c(O[H])c([H])c23)C([H])([H])C1([H])[H]
     RDKit          3D

 50 53  0  0  0  0  0  0  0  0999 V2000
    7.0660   -1.2529   -0.7483 O   0  0  0  0  0  0  0  0  0  0  0  0
    6.3169   -0.9778    0.3752 C   0  0  0  0  0  0  0  0  0  0  0  0
    6.5334   -1.6211    1.4250 O   0  0  0  0  0  0  0  0  0  0  0  0
    5.2790    0.0590    0.3341 C   0  0  0  0  0  0  0  0  0  0  0  0
    4.6138    0.1690    1.6596 C   0  0  0  0  0  0  0  0  0  0  0  0
    3.3842    1.0487    1.6707 C   0  0  0  0  0  0  0  0  0  0  0  0
    2.5876    0.8498    0.4663 N   0  0  0  0  0  0  0  0  0  0  0  0
    3.2946    0.9445   -0.7709 C   0  0  0  0  0  0  0  0  0  0  0  0
    4.2684   -0.2507   -0.7635 C   0  0  0  0  0  0  0  0  0  0  0  0
    1.1890    0.5760    0.5003 C   0  0  0  0  0  0  0  0  0  0  0  0
    0.7175    0.5364    1.6629 O   0  0  0  0  0  0  0  0  0  0  0  0
    0.4139    0.3701   -0.6544 N   0  0  0  0  0  0  0  0  0  0  0  0
   -0.9771    0.1061   -0.6749 C   0  0  0  0  0  0  0  0  0  0  0  0
   -1.8157    0.2825    0.4307 C   0  0  0  0  0  0  0  0  0  0  0  0
   -3.1644    0.0659    0.3526 C   0  0  0  0  0  0  0  0  0  0  0  0
   -3.7037   -0.3343   -0.8404 N   0  0  0  0  0  0  0  0  0  0  0  0
   -2.9613   -0.5174   -1.9180 C   0  0  0  0  0  0  0  0  0  0  0  0
   -3.5398   -0.9309   -3.1133 C   0  0  0  0  0  0  0  0  0  0  0  0
   -5.4172   -1.2143   -3.1604 Br  0  0  0  0  0  0  0  0  0  0  0  0
   -2.7821   -1.1330   -4.2403 C   0  0  0  0  0  0  0  0  0  0  0  0
   -1.4356   -0.9214   -4.1754 C   0  0  0  0  0  0  0  0  0  0  0  0
   -0.6232   -1.1120   -5.2871 O   0  0  0  0  0  0  0  0  0  0  0  0
   -0.8282   -0.5045   -2.9835 C   0  0  0  0  0  0  0  0  0  0  0  0
   -1.5906   -0.3036   -1.8625 C   0  0  0  0  0  0  0  0  0  0  0  0
   -4.0709    0.2158    1.4867 C   0  0  0  0  0  0  0  0  0  0  0  0
   -5.3815   -0.2770    1.3368 C   0  0  0  0  0  0  0  0  0  0  0  0
   -6.3307   -0.1732    2.3202 C   0  0  0  0  0  0  0  0  0  0  0  0
   -6.0316    0.4272    3.5106 C   0  0  0  0  0  0  0  0  0  0  0  0
   -4.7814    0.9135    3.6908 C   0  0  0  0  0  0  0  0  0  0  0  0
   -3.8101    0.8057    2.6796 C   0  0  0  0  0  0  0  0  0  0  0  0
   -2.6006    1.3484    2.9543 F   0  0  0  0  0  0  0  0  0  0  0  0
    7.8240   -0.6613   -1.0276 H   0  0  0  0  0  0  0  0  0  0  0  0
    5.7769    1.0311    0.0910 H   0  0  0  0  0  0  0  0  0  0  0  0
    4.3562   -0.8309    2.0292 H   0  0  0  0  0  0  0  0  0  0  0  0
    5.3504    0.6577    2.3619 H   0  0  0  0  0  0  0  0  0  0  0  0
    2.7951    0.7768    2.5685 H   0  0  0  0  0  0  0  0  0  0  0  0
    3.6805    2.1020    1.7732 H   0  0  0  0  0  0  0  0  0  0  0  0
    2.7306    0.9953   -1.6872 H   0  0  0  0  0  0  0  0  0  0  0  0
    4.0073    1.8313   -0.6718 H   0  0  0  0  0  0  0  0  0  0  0  0
    3.6840   -1.1221   -0.4232 H   0  0  0  0  0  0  0  0  0  0  0  0
    4.7325   -0.3523   -1.7401 H   0  0  0  0  0  0  0  0  0  0  0  0
    0.9220    0.4374   -1.5896 H   0  0  0  0  0  0  0  0  0  0  0  0
   -1.3725    0.5946    1.3545 H   0  0  0  0  0  0  0  0  0  0  0  0
   -3.2460   -1.4619   -5.1896 H   0  0  0  0  0  0  0  0  0  0  0  0
   -1.0078   -1.4096   -6.1636 H   0  0  0  0  0  0  0  0  0  0  0  0
    0.2445   -0.3616   -2.9854 H   0  0  0  0  0  0  0  0  0  0  0  0
   -5.6341   -0.7516    0.4121 H   0  0  0  0  0  0  0  0  0  0  0  0
   -7.3353   -0.5623    2.1782 H   0  0  0  0  0  0  0  0  0  0  0  0
   -6.8113    0.4968    4.2821 H   0  0  0  0  0  0  0  0  0  0  0  0
   -4.5158    1.3959    4.6277 H   0  0  0  0  0  0  0  0  0  0  0  0
  1  2  1  0
  2  3  2  0
  2  4  1  0
  4  5  1  0
  5  6  1  0
  6  7  1  0
  7  8  1  0
  8  9  1  0
  7 10  1  0
 10 11  2  0
 10 12  1  0
 12 13  1  0
 13 14  2  0
 14 15  1  0
 15 16  2  0
 16 17  1  0
 17 18  2  0
 18 19  1  0
 18 20  1  0
 20 21  2  0
 21 22  1  0
 21 23  1  0
 23 24  2  0
 15 25  1  0
 25 26  2  0
 26 27  1  0
 27 28  2  0
 28 29  1  0
 29 30  2  0
 30 31  1  0
  9  4  1  0
 24 13  1  0
 30 25  1  0
 24 17  1  0
  1 32  1  0
  4 33  1  0
  5 34  1  0
  5 35  1  0
  6 36  1  0
  6 37  1  0
  8 38  1  0
  8 39  1  0
  9 40  1  0
  9 41  1  0
 12 42  1  0
 14 43  1  0
 20 44  1  0
 22 45  1  0
 23 46  1  0
 26 47  1  0
 27 48  1  0
 28 49  1  0
 29 50  1  0
M  END
$$$$
[H]/C(=C(/[H])c1c([H])c([H])c(C([H])(C(=O)N2C([H])([H])C([H])([H])C([H])(c3c([H])c([H])c([H])c([H])c3C(F)(F)F)C([H])([H])C2([H])[H])C([H])([H])[H])c([H])c1[H])c1c([H])c([H])c([H])c([H])c1[H]
     RDKit          3D

 62 65  0  0  0  0  0  0  0  0999 V2000
    0.0896    2.5378    1.1016 C   0  0  0  0  0  0  0  0  0  0  0  0
    0.0950    1.1366    0.4269 C   0  0  0  0  0  0  0  0  0  0  0  0
   -0.6674    0.1994    1.2244 C   0  0  0  0  0  0  0  0  0  0  0  0
   -0.1317   -0.5736    2.0374 O   0  0  0  0  0  0  0  0  0  0  0  0
   -2.0899    0.1209    1.1073 N   0  0  0  0  0  0  0  0  0  0  0  0
   -2.7019    0.9801    0.1192 C   0  0  0  0  0  0  0  0  0  0  0  0
   -4.1457    1.2466    0.4394 C   0  0  0  0  0  0  0  0  0  0  0  0
   -4.8334   -0.0736    0.8241 C   0  0  0  0  0  0  0  0  0  0  0  0
   -4.3074   -0.5083    2.0716 C   0  0  0  0  0  0  0  0  0  0  0  0
   -2.7728   -0.7748    1.9593 C   0  0  0  0  0  0  0  0  0  0  0  0
   -6.0757   -0.3024    0.1499 C   0  0  0  0  0  0  0  0  0  0  0  0
   -6.1232    0.1067   -1.2141 C   0  0  0  0  0  0  0  0  0  0  0  0
   -7.1664   -0.1258   -2.0627 C   0  0  0  0  0  0  0  0  0  0  0  0
   -8.2465   -0.7992   -1.5794 C   0  0  0  0  0  0  0  0  0  0  0  0
   -8.2347   -1.2058   -0.2749 C   0  0  0  0  0  0  0  0  0  0  0  0
   -7.1675   -0.9730    0.6191 C   0  0  0  0  0  0  0  0  0  0  0  0
   -7.2823   -1.3709    2.0035 C   0  0  0  0  0  0  0  0  0  0  0  0
   -7.1622   -0.3899    2.9661 F   0  0  0  0  0  0  0  0  0  0  0  0
   -8.7478   -1.4991    2.1701 F   0  0  0  0  0  0  0  0  0  0  0  0
   -6.9854   -2.6475    2.3703 F   0  0  0  0  0  0  0  0  0  0  0  0
    1.5068    0.8679    0.1668 C   0  0  0  0  0  0  0  0  0  0  0  0
    2.1295    1.8502   -0.6362 C   0  0  0  0  0  0  0  0  0  0  0  0
    3.4491    1.7248   -0.9947 C   0  0  0  0  0  0  0  0  0  0  0  0
    4.2269    0.6594   -0.6023 C   0  0  0  0  0  0  0  0  0  0  0  0
    5.6170    0.5897   -1.0183 C   0  0  0  0  0  0  0  0  0  0  0  0
    6.4533   -0.3842   -0.7430 C   0  0  0  0  0  0  0  0  0  0  0  0
    7.8370   -0.4280   -1.1697 C   0  0  0  0  0  0  0  0  0  0  0  0
    8.6147   -1.5629   -0.8346 C   0  0  0  0  0  0  0  0  0  0  0  0
    9.9156   -1.6689   -1.1843 C   0  0  0  0  0  0  0  0  0  0  0  0
   10.5738   -0.7021   -1.8784 C   0  0  0  0  0  0  0  0  0  0  0  0
    9.8092    0.4288   -2.2152 C   0  0  0  0  0  0  0  0  0  0  0  0
    8.4893    0.5338   -1.8601 C   0  0  0  0  0  0  0  0  0  0  0  0
    3.6323   -0.2959    0.1778 C   0  0  0  0  0  0  0  0  0  0  0  0
    2.2795   -0.1688    0.5454 C   0  0  0  0  0  0  0  0  0  0  0  0
   -0.1448    3.2888    0.3342 H   0  0  0  0  0  0  0  0  0  0  0  0
   -0.6265    2.5172    1.9431 H   0  0  0  0  0  0  0  0  0  0  0  0
    1.0807    2.7438    1.5491 H   0  0  0  0  0  0  0  0  0  0  0  0
   -0.4113    1.2960   -0.5739 H   0  0  0  0  0  0  0  0  0  0  0  0
   -2.2130    1.9962    0.0557 H   0  0  0  0  0  0  0  0  0  0  0  0
   -2.5963    0.5387   -0.9151 H   0  0  0  0  0  0  0  0  0  0  0  0
   -4.6341    1.8317   -0.3086 H   0  0  0  0  0  0  0  0  0  0  0  0
   -4.0249    1.8609    1.4137 H   0  0  0  0  0  0  0  0  0  0  0  0
   -4.1547   -0.7752    0.0953 H   0  0  0  0  0  0  0  0  0  0  0  0
   -4.2962    0.2578    2.9124 H   0  0  0  0  0  0  0  0  0  0  0  0
   -4.6127   -1.5048    2.4839 H   0  0  0  0  0  0  0  0  0  0  0  0
   -2.6013   -1.8110    1.5779 H   0  0  0  0  0  0  0  0  0  0  0  0
   -2.3226   -0.7729    2.9715 H   0  0  0  0  0  0  0  0  0  0  0  0
   -5.2315    0.6284   -1.5935 H   0  0  0  0  0  0  0  0  0  0  0  0
   -7.1047    0.2322   -3.0942 H   0  0  0  0  0  0  0  0  0  0  0  0
   -9.0874   -1.0104   -2.2129 H   0  0  0  0  0  0  0  0  0  0  0  0
   -9.0937   -1.7614    0.1437 H   0  0  0  0  0  0  0  0  0  0  0  0
    1.5747    2.7155   -0.9769 H   0  0  0  0  0  0  0  0  0  0  0  0
    3.9158    2.5022   -1.6161 H   0  0  0  0  0  0  0  0  0  0  0  0
    6.0556    1.4108   -1.6246 H   0  0  0  0  0  0  0  0  0  0  0  0
    6.0629   -1.2181   -0.1455 H   0  0  0  0  0  0  0  0  0  0  0  0
    8.1307   -2.3556   -0.2856 H   0  0  0  0  0  0  0  0  0  0  0  0
   10.5019   -2.5685   -0.9087 H   0  0  0  0  0  0  0  0  0  0  0  0
   11.5876   -0.7491   -2.1681 H   0  0  0  0  0  0  0  0  0  0  0  0
   10.3266    1.2074   -2.7660 H   0  0  0  0  0  0  0  0  0  0  0  0
    7.9797    1.4325   -2.1676 H   0  0  0  0  0  0  0  0  0  0  0  0
    4.1958   -1.1387    0.5137 H   0  0  0  0  0  0  0  0  0  0  0  0
    1.8671   -0.9605    1.1512 H   0  0  0  0  0  0  0  0  0  0  0  0
  1  2  1  0
  2  3  1  0
  3  4  2  0
  3  5  1  0
  5  6  1  0
  6  7  1  0
  7  8  1  0
  8  9  1  0
  9 10  1  0
  8 11  1  0
 11 12  2  0
 12 13  1  0
 13 14  2  0
 14 15  1  0
 15 16  2  0
 16 17  1  0
 17 18  1  0
 17 19  1  0
 17 20  1  0
  2 21  1  0
 21 22  2  0
 22 23  1  0
 23 24  2  0
 24 25  1  0
 25 26  2  0
 26 27  1  0
 27 28  2  0
 28 29  1  0
 29 30  2  0
 30 31  1  0
 31 32  2  0
 24 33  1  0
 33 34  2  0
 10  5  1  0
 16 11  1  0
 34 21  1  0
 32 27  1  0
  1 35  1  0
  1 36  1  0
  1 37  1  0
  2 38  1  0
  6 39  1  0
  6 40  1  0
  7 41  1  0
  7 42  1  0
  8 43  1  0
  9 44  1  0
  9 45  1  0
 10 46  1  0
 10 47  1  0
 12 48  1  0
 13 49  1  0
 14 50  1  0
 15 51  1  0
 22 52  1  0
 23 53  1  0
 25 54  1  0
 26 55  1  0
 28 56  1  0
 29 57  1  0
 30 58  1  0
 31 59  1  0
 32 60  1  0
 33 61  1  0
 34 62  1  0
M  END
$$$$
[H]c1nc(-c2c([H])c(-c3c([H])c([H])c([H])c([H])c3[H])c3c(c2[H])C([H])([H])N(C(=O)C([H])([H])[H])C3=O)c([H])c([H])c1[H]
     RDKit          3D

 41 44  0  0  0  0  0  0  0  0999 V2000
   -4.4763    3.0409   -0.1921 C   0  0  0  0  0  0  0  0  0  0  0  0
   -3.1827    3.3834   -0.7735 C   0  0  0  0  0  0  0  0  0  0  0  0
   -3.0253    4.4709   -1.3607 O   0  0  0  0  0  0  0  0  0  0  0  0
   -2.0923    2.4804   -0.6753 N   0  0  0  0  0  0  0  0  0  0  0  0
   -0.7777    2.6958   -1.2006 C   0  0  0  0  0  0  0  0  0  0  0  0
    0.0171    1.5176   -0.7933 C   0  0  0  0  0  0  0  0  0  0  0  0
    1.3826    1.2418   -1.0073 C   0  0  0  0  0  0  0  0  0  0  0  0
    1.8802    0.0595   -0.5281 C   0  0  0  0  0  0  0  0  0  0  0  0
    1.0531   -0.8088    0.1337 C   0  0  0  0  0  0  0  0  0  0  0  0
   -0.3045   -0.5533    0.3554 C   0  0  0  0  0  0  0  0  0  0  0  0
   -0.8139    0.6483   -0.1287 C   0  0  0  0  0  0  0  0  0  0  0  0
   -2.1539    1.1933   -0.0199 C   0  0  0  0  0  0  0  0  0  0  0  0
   -3.1881    0.7093    0.5143 O   0  0  0  0  0  0  0  0  0  0  0  0
   -1.1308   -1.5410    1.0318 C   0  0  0  0  0  0  0  0  0  0  0  0
   -0.8033   -1.9629    2.3156 C   0  0  0  0  0  0  0  0  0  0  0  0
   -1.5347   -2.9216    2.9797 C   0  0  0  0  0  0  0  0  0  0  0  0
   -2.6297   -3.5020    2.3862 C   0  0  0  0  0  0  0  0  0  0  0  0
   -2.9832   -3.1010    1.1010 C   0  0  0  0  0  0  0  0  0  0  0  0
   -2.2307   -2.1388    0.4620 C   0  0  0  0  0  0  0  0  0  0  0  0
    3.2853   -0.2842   -0.7165 C   0  0  0  0  0  0  0  0  0  0  0  0
    4.1751    0.5303   -1.3670 C   0  0  0  0  0  0  0  0  0  0  0  0
    5.5108    0.1321   -1.5094 C   0  0  0  0  0  0  0  0  0  0  0  0
    5.9637   -1.0632   -1.0120 C   0  0  0  0  0  0  0  0  0  0  0  0
    5.0284   -1.8561   -0.3608 C   0  0  0  0  0  0  0  0  0  0  0  0
    3.7701   -1.4547   -0.2402 N   0  0  0  0  0  0  0  0  0  0  0  0
   -5.2606    3.7962   -0.3685 H   0  0  0  0  0  0  0  0  0  0  0  0
   -4.8857    2.0840   -0.6274 H   0  0  0  0  0  0  0  0  0  0  0  0
   -4.4366    2.8699    0.9097 H   0  0  0  0  0  0  0  0  0  0  0  0
   -0.3199    3.6470   -0.8478 H   0  0  0  0  0  0  0  0  0  0  0  0
   -0.7902    2.7896   -2.3139 H   0  0  0  0  0  0  0  0  0  0  0  0
    1.9546    1.9837   -1.5384 H   0  0  0  0  0  0  0  0  0  0  0  0
    1.4217   -1.7475    0.5208 H   0  0  0  0  0  0  0  0  0  0  0  0
    0.0575   -1.5214    2.8098 H   0  0  0  0  0  0  0  0  0  0  0  0
   -1.2916   -3.2620    3.9833 H   0  0  0  0  0  0  0  0  0  0  0  0
   -3.2139   -4.2626    2.9073 H   0  0  0  0  0  0  0  0  0  0  0  0
   -3.8433   -3.5523    0.6260 H   0  0  0  0  0  0  0  0  0  0  0  0
   -2.5510   -1.8654   -0.5567 H   0  0  0  0  0  0  0  0  0  0  0  0
    3.8786    1.4827   -1.7801 H   0  0  0  0  0  0  0  0  0  0  0  0
    6.1708    0.8178   -2.0338 H   0  0  0  0  0  0  0  0  0  0  0  0
    6.9969   -1.3601   -1.1278 H   0  0  0  0  0  0  0  0  0  0  0  0
    5.3736   -2.8154    0.0432 H   0  0  0  0  0  0  0  0  0  0  0  0
  1  2  1  0
  2  3  2  0
  2  4  1  0
  4  5  1  0
  5  6  1  0
  6  7  2  0
  7  8  1  0
  8  9  2  0
  9 10  1  0
 10 11  2  0
 11 12  1  0
 12 13  2  0
 10 14  1  0
 14 15  2  0
 15 16  1  0
 16 17  2  0
 17 18  1  0
 18 19  2  0
  8 20  1  0
 20 21  2  0
 21 22  1  0
 22 23  2  0
 23 24  1  0
 24 25  2  0
 12  4  1  0
 19 14  1  0
 25 20  1  0
 11  6  1  0
  1 26  1  0
  1 27  1  0
  1 28  1  0
  5 29  1  0
  5 30  1  0
  7 31  1  0
  9 32  1  0
 15 33  1  0
 16 34  1  0
 17 35  1  0
 18 36  1  0
 19 37  1  0
 21 38  1  0
 22 39  1  0
 23 40  1  0
 24 41  1  0
M  END
$$$$
[H]c1c([H])c(C(=O)N([H])[H])c([H])c(C2=NN(C3([H])C([H])([H])C([H])([H])C([H])([H])C([H])([H])C3([H])[H])C(=O)C2([H])[H])c1[H]
     RDKit          3D

 40 42  0  0  0  0  0  0  0  0999 V2000
    6.1686    2.3229    1.3136 N   0  0  0  0  0  0  0  0  0  0  0  0
    4.7798    2.0942    1.2053 C   0  0  0  0  0  0  0  0  0  0  0  0
    3.9836    2.9413    1.6588 O   0  0  0  0  0  0  0  0  0  0  0  0
    4.2839    0.8892    0.5747 C   0  0  0  0  0  0  0  0  0  0  0  0
    5.1321   -0.0705    0.0612 C   0  0  0  0  0  0  0  0  0  0  0  0
    4.7017   -1.2212   -0.5415 C   0  0  0  0  0  0  0  0  0  0  0  0
    3.3546   -1.4611   -0.6559 C   0  0  0  0  0  0  0  0  0  0  0  0
    2.4719   -0.5337   -0.1591 C   0  0  0  0  0  0  0  0  0  0  0  0
    2.9281    0.6387    0.4548 C   0  0  0  0  0  0  0  0  0  0  0  0
    1.0351   -0.7760   -0.2740 C   0  0  0  0  0  0  0  0  0  0  0  0
    0.0935    0.0286    0.1587 N   0  0  0  0  0  0  0  0  0  0  0  0
   -1.1710   -0.4966   -0.1069 N   0  0  0  0  0  0  0  0  0  0  0  0
   -2.4142    0.1359    0.2377 C   0  0  0  0  0  0  0  0  0  0  0  0
   -3.1537    0.4374   -1.0376 C   0  0  0  0  0  0  0  0  0  0  0  0
   -4.6404    0.5817   -0.8172 C   0  0  0  0  0  0  0  0  0  0  0  0
   -4.8347    1.1032    0.5914 C   0  0  0  0  0  0  0  0  0  0  0  0
   -4.5161   -0.0441    1.5307 C   0  0  0  0  0  0  0  0  0  0  0  0
   -3.2248   -0.7120    1.1880 C   0  0  0  0  0  0  0  0  0  0  0  0
   -1.0075   -1.7490   -0.7687 C   0  0  0  0  0  0  0  0  0  0  0  0
   -1.9720   -2.4574   -1.1335 O   0  0  0  0  0  0  0  0  0  0  0  0
    0.4486   -1.9812   -0.9041 C   0  0  0  0  0  0  0  0  0  0  0  0
    6.6649    1.9372    2.1437 H   0  0  0  0  0  0  0  0  0  0  0  0
    6.7314    2.8521    0.6183 H   0  0  0  0  0  0  0  0  0  0  0  0
    6.2152    0.0987    0.1407 H   0  0  0  0  0  0  0  0  0  0  0  0
    5.3915   -1.9775   -0.9464 H   0  0  0  0  0  0  0  0  0  0  0  0
    2.9916   -2.3797   -1.1369 H   0  0  0  0  0  0  0  0  0  0  0  0
    2.1865    1.3468    0.8348 H   0  0  0  0  0  0  0  0  0  0  0  0
   -2.2290    1.1009    0.7449 H   0  0  0  0  0  0  0  0  0  0  0  0
   -2.8077    1.4327   -1.4423 H   0  0  0  0  0  0  0  0  0  0  0  0
   -2.9227   -0.2870   -1.8555 H   0  0  0  0  0  0  0  0  0  0  0  0
   -5.1066   -0.4370   -0.8895 H   0  0  0  0  0  0  0  0  0  0  0  0
   -5.0855    1.2605   -1.5738 H   0  0  0  0  0  0  0  0  0  0  0  0
   -5.8795    1.4220    0.7532 H   0  0  0  0  0  0  0  0  0  0  0  0
   -4.1023    1.9087    0.8026 H   0  0  0  0  0  0  0  0  0  0  0  0
   -4.6031    0.2465    2.5991 H   0  0  0  0  0  0  0  0  0  0  0  0
   -5.3390   -0.8005    1.3657 H   0  0  0  0  0  0  0  0  0  0  0  0
   -3.3675   -1.7131    0.7572 H   0  0  0  0  0  0  0  0  0  0  0  0
   -2.6221   -0.7592    2.1426 H   0  0  0  0  0  0  0  0  0  0  0  0
    0.6631   -2.0044   -2.0035 H   0  0  0  0  0  0  0  0  0  0  0  0
    0.7736   -2.9178   -0.4089 H   0  0  0  0  0  0  0  0  0  0  0  0
  1  2  1  0
  2  3  2  0
  2  4  1  0
  4  5  2  0
  5  6  1  0
  6  7  2  0
  7  8  1  0
  8  9  2  0
  8 10  1  0
 10 11  2  0
 11 12  1  0
 12 13  1  0
 13 14  1  0
 14 15  1  0
 15 16  1  0
 16 17  1  0
 17 18  1  0
 12 19  1  0
 19 20  2  0
 19 21  1  0
  9  4  1  0
 21 10  1  0
 18 13  1  0
  1 22  1  0
  1 23  1  0
  5 24  1  0
  6 25  1  0
  7 26  1  0
  9 27  1  0
 13 28  1  0
 14 29  1  0
 14 30  1  0
 15 31  1  0
 15 32  1  0
 16 33  1  0
 16 34  1  0
 17 35  1  0
 17 36  1  0
 18 37  1  0
 18 38  1  0
 21 39  1  0
 21 40  1  0
M  END
$$$$
[H]c1nc(N2C([H])([H])C([H])([H])[C@]([H])(C([H])([H])N(C(=O)C([H])([H])Oc3c([H])c([H])c(Cl)c(OC([H])([H])C(F)(F)F)c3[H])C([H])([H])[H])C2([H])[H])nc([H])c1Cl
     RDKit          3D

 53 55  0  0  0  0  0  0  0  0999 V2000
   -1.2443   -3.4985   -0.1069 C   0  0  0  0  0  0  0  0  0  0  0  0
   -1.1456   -2.4567   -1.1004 N   0  0  0  0  0  0  0  0  0  0  0  0
   -2.1876   -2.2653   -2.0485 C   0  0  0  0  0  0  0  0  0  0  0  0
   -3.2855   -1.3504   -1.6602 C   0  0  1  0  0  0  0  0  0  0  0  0
   -4.0296   -1.8135   -0.3995 C   0  0  0  0  0  0  0  0  0  0  0  0
   -4.9370   -0.5940   -0.1888 C   0  0  0  0  0  0  0  0  0  0  0  0
   -4.0878    0.5004   -0.5476 N   0  0  0  0  0  0  0  0  0  0  0  0
   -2.8577    0.0216   -1.1983 C   0  0  0  0  0  0  0  0  0  0  0  0
   -4.3797    1.8678   -0.3139 C   0  0  0  0  0  0  0  0  0  0  0  0
   -5.5203    2.2512    0.2857 N   0  0  0  0  0  0  0  0  0  0  0  0
   -5.8401    3.5335    0.5281 C   0  0  0  0  0  0  0  0  0  0  0  0
   -4.9595    4.5245    0.1463 C   0  0  0  0  0  0  0  0  0  0  0  0
   -5.3458    6.2114    0.4477 Cl  0  0  0  0  0  0  0  0  0  0  0  0
   -3.7857    4.1568   -0.4691 C   0  0  0  0  0  0  0  0  0  0  0  0
   -3.5336    2.8564   -0.6784 N   0  0  0  0  0  0  0  0  0  0  0  0
    0.0006   -1.6279   -1.1117 C   0  0  0  0  0  0  0  0  0  0  0  0
    0.1572   -0.6996   -1.9566 O   0  0  0  0  0  0  0  0  0  0  0  0
    1.0722   -1.8293   -0.1121 C   0  0  0  0  0  0  0  0  0  0  0  0
    2.1328   -0.9087   -0.2813 O   0  0  0  0  0  0  0  0  0  0  0  0
    3.2408   -0.9241    0.5517 C   0  0  0  0  0  0  0  0  0  0  0  0
    3.3605   -1.8330    1.5790 C   0  0  0  0  0  0  0  0  0  0  0  0
    4.4702   -1.8340    2.3983 C   0  0  0  0  0  0  0  0  0  0  0  0
    5.4808   -0.9383    2.2185 C   0  0  0  0  0  0  0  0  0  0  0  0
    6.8706   -0.9792    3.2854 Cl  0  0  0  0  0  0  0  0  0  0  0  0
    5.4057    0.0117    1.1821 C   0  0  0  0  0  0  0  0  0  0  0  0
    6.3922    0.8652    1.0252 O   0  0  0  0  0  0  0  0  0  0  0  0
    6.9328    1.8910    0.3779 C   0  0  0  0  0  0  0  0  0  0  0  0
    6.2676    3.2313    0.3669 C   0  0  0  0  0  0  0  0  0  0  0  0
    7.1196    4.0589   -0.3951 F   0  0  0  0  0  0  0  0  0  0  0  0
    6.2042    3.8151    1.6085 F   0  0  0  0  0  0  0  0  0  0  0  0
    5.0608    3.3054   -0.2523 F   0  0  0  0  0  0  0  0  0  0  0  0
    4.2860   -0.0205    0.3888 C   0  0  0  0  0  0  0  0  0  0  0  0
   -1.0569   -3.0059    0.8824 H   0  0  0  0  0  0  0  0  0  0  0  0
   -2.2038   -4.0255   -0.1167 H   0  0  0  0  0  0  0  0  0  0  0  0
   -0.4467   -4.2826   -0.2362 H   0  0  0  0  0  0  0  0  0  0  0  0
   -1.7988   -1.9012   -3.0435 H   0  0  0  0  0  0  0  0  0  0  0  0
   -2.6743   -3.2510   -2.3110 H   0  0  0  0  0  0  0  0  0  0  0  0
   -4.0382   -1.2249   -2.4334 H   0  0  0  0  0  0  0  0  0  0  0  0
   -4.6043   -2.7216   -0.5665 H   0  0  0  0  0  0  0  0  0  0  0  0
   -3.3524   -1.8420    0.4776 H   0  0  0  0  0  0  0  0  0  0  0  0
   -5.3191   -0.5460    0.8420 H   0  0  0  0  0  0  0  0  0  0  0  0
   -5.7455   -0.7033   -0.9510 H   0  0  0  0  0  0  0  0  0  0  0  0
   -2.5036    0.6802   -1.9878 H   0  0  0  0  0  0  0  0  0  0  0  0
   -2.1508   -0.1137   -0.3406 H   0  0  0  0  0  0  0  0  0  0  0  0
   -6.7754    3.8226    1.0182 H   0  0  0  0  0  0  0  0  0  0  0  0
   -3.1039    4.9357   -0.7640 H   0  0  0  0  0  0  0  0  0  0  0  0
    0.6846   -1.6977    0.9316 H   0  0  0  0  0  0  0  0  0  0  0  0
    1.4926   -2.8569   -0.2270 H   0  0  0  0  0  0  0  0  0  0  0  0
    2.5441   -2.5410    1.7085 H   0  0  0  0  0  0  0  0  0  0  0  0
    4.5258   -2.5774    3.2069 H   0  0  0  0  0  0  0  0  0  0  0  0
    8.0414    2.0412    0.6354 H   0  0  0  0  0  0  0  0  0  0  0  0
    7.0309    1.6114   -0.7333 H   0  0  0  0  0  0  0  0  0  0  0  0
    4.1389    0.6701   -0.4571 H   0  0  0  0  0  0  0  0  0  0  0  0
  1  2  1  0
  2  3  1  0
  3  4  1  0
  4  5  1  0
  5  6  1  0
  6  7  1  0
  7  8  1  0
  7  9  1  0
  9 10  2  0
 10 11  1  0
 11 12  2  0
 12 13  1  0
 12 14  1  0
 14 15  2  0
  2 16  1  0
 16 17  2  0
 16 18  1  0
 18 19  1  0
 19 20  1  0
 20 21  2  0
 21 22  1  0
 22 23  2  0
 23 24  1  0
 23 25  1  0
 25 26  1  0
 26 27  1  0
 27 28  1  0
 28 29  1  0
 28 30  1  0
 28 31  1  0
 25 32  2  0
  8  4  1  0
 15  9  1  0
 32 20  1  0
  1 33  1  0
  1 34  1  0
  1 35  1  0
  3 36  1  0
  3 37  1  0
  4 38  1  6
  5 39  1  0
  5 40  1  0
  6 41  1  0
  6 42  1  0
  8 43  1  0
  8 44  1  0
 11 45  1  0
 14 46  1  0
 18 47  1  0
 18 48  1  0
 21 49  1  0
 22 50  1  0
 27 51  1  0
 27 52  1  0
 32 53  1  0
M  END
$$$$
[H]c1c(F)c(C([H])([H])[H])c([H])c(C(=O)N([H])C([H])([H])[H])c1-c1nc(N2C([H])([H])C3([H])N(C([H])([H])[H])[C@]([H])(C2([H])[H])C([H])([H])C([H])([H])C3([H])[H])c([H])c(S(=O)(=O)C([H])([H])C([H])([H])[H])c1[H]
     RDKit          3D

 64 67  0  0  0  0  0  0  0  0999 V2000
    5.9019   -2.2915   -0.7666 C   0  0  0  0  0  0  0  0  0  0  0  0
    4.5927   -1.6885   -0.7983 N   0  0  0  0  0  0  0  0  0  0  0  0
    4.5979   -0.2824   -0.9825 C   0  0  0  0  0  0  0  0  0  0  0  0
    5.0610    0.5057    0.2233 C   0  0  0  0  0  0  0  0  0  0  0  0
    5.1709   -0.3294    1.4603 C   0  0  0  0  0  0  0  0  0  0  0  0
    4.0026   -1.2714    1.5549 C   0  0  0  0  0  0  0  0  0  0  0  0
    3.7501   -2.0724    0.3159 C   0  0  1  0  0  0  0  0  0  0  0  0
    2.3218   -1.8588   -0.1833 C   0  0  0  0  0  0  0  0  0  0  0  0
    2.1670   -0.5245   -0.6918 N   0  0  0  0  0  0  0  0  0  0  0  0
    3.2206    0.2011   -1.3343 C   0  0  0  0  0  0  0  0  0  0  0  0
    0.8793    0.1278   -0.5928 C   0  0  0  0  0  0  0  0  0  0  0  0
    0.6786    1.4642   -0.5600 C   0  0  0  0  0  0  0  0  0  0  0  0
   -0.5914    2.0223   -0.4963 C   0  0  0  0  0  0  0  0  0  0  0  0
   -1.6617    1.1365   -0.4677 C   0  0  0  0  0  0  0  0  0  0  0  0
   -1.4882   -0.2123   -0.4976 C   0  0  0  0  0  0  0  0  0  0  0  0
   -0.1890   -0.6668   -0.5612 N   0  0  0  0  0  0  0  0  0  0  0  0
   -2.4978   -1.2553   -0.5198 C   0  0  0  0  0  0  0  0  0  0  0  0
   -2.1547   -2.4857   -1.1146 C   0  0  0  0  0  0  0  0  0  0  0  0
   -2.9918   -3.5657   -1.1258 C   0  0  0  0  0  0  0  0  0  0  0  0
   -2.6589   -4.7497   -1.6953 F   0  0  0  0  0  0  0  0  0  0  0  0
   -4.2384   -3.4276   -0.5166 C   0  0  0  0  0  0  0  0  0  0  0  0
   -5.1254   -4.6234   -0.5418 C   0  0  0  0  0  0  0  0  0  0  0  0
   -4.5910   -2.2666    0.0589 C   0  0  0  0  0  0  0  0  0  0  0  0
   -3.7159   -1.1535    0.0654 C   0  0  0  0  0  0  0  0  0  0  0  0
   -4.2506    0.0099    0.7571 C   0  0  0  0  0  0  0  0  0  0  0  0
   -3.7100    0.3001    1.8666 O   0  0  0  0  0  0  0  0  0  0  0  0
   -5.3045    0.7920    0.2734 N   0  0  0  0  0  0  0  0  0  0  0  0
   -5.7745    1.9279    1.0130 C   0  0  0  0  0  0  0  0  0  0  0  0
   -0.9080    3.7252   -0.4506 S   0  0  0  0  0  0  0  0  0  0  0  0
    0.2198    4.3981   -1.2215 O   0  0  0  0  0  0  0  0  0  0  0  0
   -2.1577    3.9818   -1.2433 O   0  0  0  0  0  0  0  0  0  0  0  0
   -1.0004    4.4060    1.1658 C   0  0  0  0  0  0  0  0  0  0  0  0
   -1.2741    5.9070    1.0081 C   0  0  0  0  0  0  0  0  0  0  0  0
    5.9395   -3.0482   -1.5769 H   0  0  0  0  0  0  0  0  0  0  0  0
    6.0478   -2.8198    0.1870 H   0  0  0  0  0  0  0  0  0  0  0  0
    6.7114   -1.5619   -0.9831 H   0  0  0  0  0  0  0  0  0  0  0  0
    5.3116   -0.0094   -1.8021 H   0  0  0  0  0  0  0  0  0  0  0  0
    6.0540    0.9848    0.0618 H   0  0  0  0  0  0  0  0  0  0  0  0
    4.3794    1.3692    0.4534 H   0  0  0  0  0  0  0  0  0  0  0  0
    6.1572   -0.8260    1.5507 H   0  0  0  0  0  0  0  0  0  0  0  0
    5.1024    0.3695    2.3393 H   0  0  0  0  0  0  0  0  0  0  0  0
    4.1611   -1.8859    2.4720 H   0  0  0  0  0  0  0  0  0  0  0  0
    3.1036   -0.6247    1.7718 H   0  0  0  0  0  0  0  0  0  0  0  0
    3.9299   -3.1326    0.5468 H   0  0  0  0  0  0  0  0  0  0  0  0
    1.5787   -2.1033    0.5829 H   0  0  0  0  0  0  0  0  0  0  0  0
    2.1870   -2.5669   -1.0470 H   0  0  0  0  0  0  0  0  0  0  0  0
    3.1333    1.3074   -1.2000 H   0  0  0  0  0  0  0  0  0  0  0  0
    3.0961   -0.0247   -2.4426 H   0  0  0  0  0  0  0  0  0  0  0  0
    1.5041    2.1438   -0.5745 H   0  0  0  0  0  0  0  0  0  0  0  0
   -2.6537    1.5577   -0.4552 H   0  0  0  0  0  0  0  0  0  0  0  0
   -1.1827   -2.5605   -1.5806 H   0  0  0  0  0  0  0  0  0  0  0  0
   -5.7467   -4.6643    0.3610 H   0  0  0  0  0  0  0  0  0  0  0  0
   -5.7846   -4.5236   -1.4321 H   0  0  0  0  0  0  0  0  0  0  0  0
   -4.5305   -5.5729   -0.6274 H   0  0  0  0  0  0  0  0  0  0  0  0
   -5.5784   -2.1977    0.5238 H   0  0  0  0  0  0  0  0  0  0  0  0
   -5.7899    0.5784   -0.6283 H   0  0  0  0  0  0  0  0  0  0  0  0
   -6.5741    1.5963    1.6945 H   0  0  0  0  0  0  0  0  0  0  0  0
   -6.1155    2.7818    0.3811 H   0  0  0  0  0  0  0  0  0  0  0  0
   -4.9059    2.2927    1.6410 H   0  0  0  0  0  0  0  0  0  0  0  0
   -0.0371    4.2445    1.6862 H   0  0  0  0  0  0  0  0  0  0  0  0
   -1.8415    3.9402    1.7243 H   0  0  0  0  0  0  0  0  0  0  0  0
   -1.6289    6.1393   -0.0070 H   0  0  0  0  0  0  0  0  0  0  0  0
   -1.9924    6.1874    1.8096 H   0  0  0  0  0  0  0  0  0  0  0  0
   -0.3159    6.4493    1.1686 H   0  0  0  0  0  0  0  0  0  0  0  0
  1  2  1  0
  2  3  1  0
  3  4  1  0
  4  5  1  0
  5  6  1  0
  6  7  1  0
  7  8  1  0
  8  9  1  0
  9 10  1  0
  9 11  1  0
 11 12  2  0
 12 13  1  0
 13 14  2  0
 14 15  1  0
 15 16  2  0
 15 17  1  0
 17 18  2  0
 18 19  1  0
 19 20  1  0
 19 21  2  0
 21 22  1  0
 21 23  1  0
 23 24  2  0
 24 25  1  0
 25 26  2  0
 25 27  1  0
 27 28  1  0
 13 29  1  0
 29 30  2  0
 29 31  2  0
 29 32  1  0
 32 33  1  0
  7  2  1  0
 16 11  1  0
 24 17  1  0
 10  3  1  0
  1 34  1  0
  1 35  1  0
  1 36  1  0
  3 37  1  0
  4 38  1  0
  4 39  1  0
  5 40  1  0
  5 41  1  0
  6 42  1  0
  6 43  1  0
  7 44  1  1
  8 45  1  0
  8 46  1  0
 10 47  1  0
 10 48  1  0
 12 49  1  0
 14 50  1  0
 18 51  1  0
 22 52  1  0
 22 53  1  0
 22 54  1  0
 23 55  1  0
 27 56  1  0
 28 57  1  0
 28 58  1  0
 28 59  1  0
 32 60  1  0
 32 61  1  0
 33 62  1  0
 33 63  1  0
 33 64  1  0
M  END
$$$$
[H]C1=C(C(=O)N([H])C([H])([H])C([H])([H])N([H])S(=O)(=O)c2c([H])nc(C([H])([H])[H])c([H])c2[H])c2c([H])c([H])c(Cl)c([H])c2N(C([H])([H])[H])N1C([H])([H])C([H])([H])C([H])([H])C([H])([H])C([H])([H])[H]
     RDKit          3D

 63 65  0  0  0  0  0  0  0  0999 V2000
   -3.6225    1.9588   -3.2370 C   0  0  0  0  0  0  0  0  0  0  0  0
   -4.9650    1.3145   -2.9572 C   0  0  0  0  0  0  0  0  0  0  0  0
   -4.8625   -0.1693   -2.7772 C   0  0  0  0  0  0  0  0  0  0  0  0
   -3.9785   -0.5833   -1.6454 C   0  0  0  0  0  0  0  0  0  0  0  0
   -4.4303   -0.0623   -0.3099 C   0  0  0  0  0  0  0  0  0  0  0  0
   -3.5380   -0.4925    0.7784 N   0  0  0  0  0  0  0  0  0  0  0  0
   -2.2292    0.0551    0.8307 C   0  0  0  0  0  0  0  0  0  0  0  0
   -1.3100   -0.2533    1.7785 C   0  0  0  0  0  0  0  0  0  0  0  0
   -0.0246    0.3591    1.7317 C   0  0  0  0  0  0  0  0  0  0  0  0
    0.0569    1.1886    0.6829 O   0  0  0  0  0  0  0  0  0  0  0  0
    1.1545    0.3687    2.4195 N   0  0  0  0  0  0  0  0  0  0  0  0
    2.2856    1.2116    1.9523 C   0  0  0  0  0  0  0  0  0  0  0  0
    2.8027    0.8339    0.6167 C   0  0  0  0  0  0  0  0  0  0  0  0
    3.2795   -0.5543    0.5799 N   0  0  0  0  0  0  0  0  0  0  0  0
    3.8718   -0.9527   -0.9884 S   0  0  0  0  0  0  0  0  0  0  0  0
    2.7398   -0.7441   -1.9673 O   0  0  0  0  0  0  0  0  0  0  0  0
    4.3675   -2.3530   -1.0118 O   0  0  0  0  0  0  0  0  0  0  0  0
    5.2168    0.1048   -1.3302 C   0  0  0  0  0  0  0  0  0  0  0  0
    5.0039    1.3181   -1.9471 C   0  0  0  0  0  0  0  0  0  0  0  0
    6.1007    2.1116   -2.1933 C   0  0  0  0  0  0  0  0  0  0  0  0
    7.3614    1.6860   -1.8262 C   0  0  0  0  0  0  0  0  0  0  0  0
    8.5578    2.5252   -2.0826 C   0  0  0  0  0  0  0  0  0  0  0  0
    7.5370    0.4861   -1.2206 N   0  0  0  0  0  0  0  0  0  0  0  0
    6.4825   -0.2940   -0.9754 C   0  0  0  0  0  0  0  0  0  0  0  0
   -1.7676   -1.2059    2.7609 C   0  0  0  0  0  0  0  0  0  0  0  0
   -0.9672   -1.6198    3.7823 C   0  0  0  0  0  0  0  0  0  0  0  0
   -1.3607   -2.5252    4.7452 C   0  0  0  0  0  0  0  0  0  0  0  0
   -2.6201   -3.0559    4.6998 C   0  0  0  0  0  0  0  0  0  0  0  0
   -3.1669   -4.2152    5.9076 Cl  0  0  0  0  0  0  0  0  0  0  0  0
   -3.4798   -2.6817    3.6955 C   0  0  0  0  0  0  0  0  0  0  0  0
   -3.0570   -1.7757    2.7486 C   0  0  0  0  0  0  0  0  0  0  0  0
   -3.9645   -1.3980    1.7155 N   0  0  0  0  0  0  0  0  0  0  0  0
   -5.2584   -2.0168    1.7247 C   0  0  0  0  0  0  0  0  0  0  0  0
   -3.7465    2.8748   -3.8845 H   0  0  0  0  0  0  0  0  0  0  0  0
   -2.9401    1.2895   -3.7774 H   0  0  0  0  0  0  0  0  0  0  0  0
   -3.2058    2.3301   -2.2784 H   0  0  0  0  0  0  0  0  0  0  0  0
   -5.4792    1.8139   -2.0966 H   0  0  0  0  0  0  0  0  0  0  0  0
   -5.6069    1.5069   -3.8419 H   0  0  0  0  0  0  0  0  0  0  0  0
   -5.8894   -0.5694   -2.7073 H   0  0  0  0  0  0  0  0  0  0  0  0
   -4.4291   -0.5880   -3.7096 H   0  0  0  0  0  0  0  0  0  0  0  0
   -2.9379   -0.2766   -1.8835 H   0  0  0  0  0  0  0  0  0  0  0  0
   -3.9820   -1.6914   -1.5965 H   0  0  0  0  0  0  0  0  0  0  0  0
   -5.4709   -0.1067   -0.0841 H   0  0  0  0  0  0  0  0  0  0  0  0
   -4.1999    1.0609   -0.3676 H   0  0  0  0  0  0  0  0  0  0  0  0
   -1.9689    0.7691    0.0454 H   0  0  0  0  0  0  0  0  0  0  0  0
    1.4140   -0.1442    3.2679 H   0  0  0  0  0  0  0  0  0  0  0  0
    3.1011    1.2150    2.6911 H   0  0  0  0  0  0  0  0  0  0  0  0
    1.9102    2.2753    1.8917 H   0  0  0  0  0  0  0  0  0  0  0  0
    3.7645    1.4266    0.4378 H   0  0  0  0  0  0  0  0  0  0  0  0
    2.1860    1.0323   -0.2456 H   0  0  0  0  0  0  0  0  0  0  0  0
    4.0149   -0.6560    1.3105 H   0  0  0  0  0  0  0  0  0  0  0  0
    3.9966    1.5789   -2.2019 H   0  0  0  0  0  0  0  0  0  0  0  0
    5.9313    3.0623   -2.6768 H   0  0  0  0  0  0  0  0  0  0  0  0
    9.1968    2.0097   -2.8362 H   0  0  0  0  0  0  0  0  0  0  0  0
    9.1648    2.6638   -1.1810 H   0  0  0  0  0  0  0  0  0  0  0  0
    8.2258    3.4996   -2.4709 H   0  0  0  0  0  0  0  0  0  0  0  0
    6.6779   -1.2581   -0.4819 H   0  0  0  0  0  0  0  0  0  0  0  0
    0.0160   -1.2155    3.8292 H   0  0  0  0  0  0  0  0  0  0  0  0
   -0.6517   -2.7994    5.5278 H   0  0  0  0  0  0  0  0  0  0  0  0
   -4.4734   -3.0801    3.6392 H   0  0  0  0  0  0  0  0  0  0  0  0
   -5.8537   -1.6916    0.8675 H   0  0  0  0  0  0  0  0  0  0  0  0
   -5.8476   -1.7733    2.6411 H   0  0  0  0  0  0  0  0  0  0  0  0
   -5.1322   -3.1271    1.7521 H   0  0  0  0  0  0  0  0  0  0  0  0
  1  2  1  0
  2  3  1  0
  3  4  1  0
  4  5  1  0
  5  6  1  0
  6  7  1  0
  7  8  2  0
  8  9  1  0
  9 10  2  0
  9 11  1  0
 11 12  1  0
 12 13  1  0
 13 14  1  0
 14 15  1  0
 15 16  2  0
 15 17  2  0
 15 18  1  0
 18 19  2  0
 19 20  1  0
 20 21  2  0
 21 22  1  0
 21 23  1  0
 23 24  2  0
  8 25  1  0
 25 26  2  0
 26 27  1  0
 27 28  2  0
 28 29  1  0
 28 30  1  0
 30 31  2  0
 31 32  1  0
 32 33  1  0
 32  6  1  0
 24 18  1  0
 31 25  1  0
  1 34  1  0
  1 35  1  0
  1 36  1  0
  2 37  1  0
  2 38  1  0
  3 39  1  0
  3 40  1  0
  4 41  1  0
  4 42  1  0
  5 43  1  0
  5 44  1  0
  7 45  1  0
 11 46  1  0
 12 47  1  0
 12 48  1  0
 13 49  1  0
 13 50  1  0
 14 51  1  0
 19 52  1  0
 20 53  1  0
 22 54  1  0
 22 55  1  0
 22 56  1  0
 24 57  1  0
 26 58  1  0
 27 59  1  0
 30 60  1  0
 33 61  1  0
 33 62  1  0
 33 63  1  0
M  END
$$$$
[H]ON([H])C(=O)C1([H])C([H])([H])N([C@@]2([H])OC(c3c([H])c([H])c(F)c([H])c3[H])=C([H])[C@@]([H])(Oc3c([H])c([H])c(Cl)c([H])c3N([H])[H])C2([H])[H])C1([H])[H]
     RDKit          3D

 51 54  0  0  0  0  0  0  0  0999 V2000
   -2.8971    3.9281    0.8738 N   0  0  0  0  0  0  0  0  0  0  0  0
   -2.4075    4.0219   -0.4502 C   0  0  0  0  0  0  0  0  0  0  0  0
   -2.6638    5.1149   -1.2162 C   0  0  0  0  0  0  0  0  0  0  0  0
   -2.1818    5.1821   -2.4868 C   0  0  0  0  0  0  0  0  0  0  0  0
   -2.4651    6.5489   -3.5349 Cl  0  0  0  0  0  0  0  0  0  0  0  0
   -1.4415    4.1404   -2.9759 C   0  0  0  0  0  0  0  0  0  0  0  0
   -1.1643    2.9991   -2.1995 C   0  0  0  0  0  0  0  0  0  0  0  0
   -1.6535    2.9401   -0.9216 C   0  0  0  0  0  0  0  0  0  0  0  0
   -1.4223    1.8641   -0.1149 O   0  0  0  0  0  0  0  0  0  0  0  0
   -0.6863    0.7449   -0.4718 C   0  0  2  0  0  0  0  0  0  0  0  0
   -1.5993   -0.4642   -0.4478 C   0  0  0  0  0  0  0  0  0  0  0  0
   -1.2632   -1.5954    0.1068 C   0  0  0  0  0  0  0  0  0  0  0  0
   -0.0173   -1.7757    0.7288 O   0  0  0  0  0  0  0  0  0  0  0  0
    0.9994   -0.8427    0.4582 C   0  0  1  0  0  0  0  0  0  0  0  0
    0.3512    0.5416    0.6231 C   0  0  0  0  0  0  0  0  0  0  0  0
    2.0758   -0.8957    1.3991 N   0  0  0  0  0  0  0  0  0  0  0  0
    3.1078    0.0919    1.1466 C   0  0  0  0  0  0  0  0  0  0  0  0
    4.1024   -0.8967    1.7176 C   0  0  0  0  0  0  0  0  0  0  0  0
    3.0765   -1.9159    1.2014 C   0  0  0  0  0  0  0  0  0  0  0  0
    5.4030   -0.9633    1.0615 C   0  0  0  0  0  0  0  0  0  0  0  0
    5.7920   -2.0356    0.5542 O   0  0  0  0  0  0  0  0  0  0  0  0
    6.2339    0.1759    0.9914 N   0  0  0  0  0  0  0  0  0  0  0  0
    7.4202    0.1079    0.3911 O   0  0  0  0  0  0  0  0  0  0  0  0
   -2.1760   -2.7610    0.1149 C   0  0  0  0  0  0  0  0  0  0  0  0
   -3.4090   -2.7245   -0.4520 C   0  0  0  0  0  0  0  0  0  0  0  0
   -4.2917   -3.8122   -0.4581 C   0  0  0  0  0  0  0  0  0  0  0  0
   -3.8698   -4.9713    0.1473 C   0  0  0  0  0  0  0  0  0  0  0  0
   -4.7384   -6.0290    0.1368 F   0  0  0  0  0  0  0  0  0  0  0  0
   -2.6227   -5.0361    0.7307 C   0  0  0  0  0  0  0  0  0  0  0  0
   -1.7799   -3.9336    0.7136 C   0  0  0  0  0  0  0  0  0  0  0  0
   -2.4185    3.3942    1.6269 H   0  0  0  0  0  0  0  0  0  0  0  0
   -3.7825    4.4159    1.1168 H   0  0  0  0  0  0  0  0  0  0  0  0
   -3.2464    5.9466   -0.8470 H   0  0  0  0  0  0  0  0  0  0  0  0
   -1.0334    4.1328   -3.9703 H   0  0  0  0  0  0  0  0  0  0  0  0
   -0.5827    2.2042   -2.6160 H   0  0  0  0  0  0  0  0  0  0  0  0
   -0.2364    0.7306   -1.4616 H   0  0  0  0  0  0  0  0  0  0  0  0
   -2.5849   -0.3354   -0.9347 H   0  0  0  0  0  0  0  0  0  0  0  0
    1.3410   -0.9506   -0.5967 H   0  0  0  0  0  0  0  0  0  0  0  0
   -0.1427    0.5307    1.6086 H   0  0  0  0  0  0  0  0  0  0  0  0
    1.1494    1.2813    0.5583 H   0  0  0  0  0  0  0  0  0  0  0  0
    2.9852    1.0267    1.7433 H   0  0  0  0  0  0  0  0  0  0  0  0
    3.3028    0.3019    0.0697 H   0  0  0  0  0  0  0  0  0  0  0  0
    4.1082   -0.8117    2.8239 H   0  0  0  0  0  0  0  0  0  0  0  0
    2.9380   -2.7216    1.9482 H   0  0  0  0  0  0  0  0  0  0  0  0
    3.3020   -2.2019    0.1767 H   0  0  0  0  0  0  0  0  0  0  0  0
    5.9306    1.1042    1.4137 H   0  0  0  0  0  0  0  0  0  0  0  0
    7.3872   -0.2116   -0.5334 H   0  0  0  0  0  0  0  0  0  0  0  0
   -3.8028   -1.8482   -0.9434 H   0  0  0  0  0  0  0  0  0  0  0  0
   -5.2761   -3.7408   -0.9258 H   0  0  0  0  0  0  0  0  0  0  0  0
   -2.3339   -5.9678    1.1949 H   0  0  0  0  0  0  0  0  0  0  0  0
   -0.8156   -4.0286    1.1806 H   0  0  0  0  0  0  0  0  0  0  0  0
  1  2  1  0
  2  3  2  0
  3  4  1  0
  4  5  1  0
  4  6  2  0
  6  7  1  0
  7  8  2  0
  8  9  1  0
  9 10  1  0
 10 11  1  0
 11 12  2  0
 12 13  1  0
 13 14  1  0
 14 15  1  0
 14 16  1  0
 16 17  1  0
 17 18  1  0
 18 19  1  0
 18 20  1  0
 20 21  2  0
 20 22  1  0
 22 23  1  0
 12 24  1  0
 24 25  2  0
 25 26  1  0
 26 27  2  0
 27 28  1  0
 27 29  1  0
 29 30  2  0
  8  2  1  0
 15 10  1  0
 19 16  1  0
 30 24  1  0
  1 31  1  0
  1 32  1  0
  3 33  1  0
  6 34  1  0
  7 35  1  0
 10 36  1  6
 11 37  1  0
 14 38  1  6
 15 39  1  0
 15 40  1  0
 17 41  1  0
 17 42  1  0
 18 43  1  0
 19 44  1  0
 19 45  1  0
 22 46  1  0
 23 47  1  0
 25 48  1  0
 26 49  1  0
 29 50  1  0
 30 51  1  0
M  END
$$$$
[H]c1c([H])c(N(c2c([H])c([H])c3c(c2[H])c(C([H])([H])C([H])([H])N([H])[H])c([H])n3[H])C([H])([H])[H])c([H])c([N+](=O)[O-])c1[H]
     RDKit          3D

 41 43  0  0  0  0  0  0  0  0999 V2000
    1.4073    0.3410    2.4833 C   0  0  0  0  0  0  0  0  0  0  0  0
    1.3622    0.2953    1.0364 N   0  0  0  0  0  0  0  0  0  0  0  0
    2.4502   -0.2621    0.3356 C   0  0  0  0  0  0  0  0  0  0  0  0
    2.2646   -1.0778   -0.7557 C   0  0  0  0  0  0  0  0  0  0  0  0
    3.3506   -1.6101   -1.4625 C   0  0  0  0  0  0  0  0  0  0  0  0
    4.6389   -1.3235   -1.0760 C   0  0  0  0  0  0  0  0  0  0  0  0
    4.8470   -0.4913    0.0360 C   0  0  0  0  0  0  0  0  0  0  0  0
    3.7560    0.0149    0.7099 C   0  0  0  0  0  0  0  0  0  0  0  0
    6.1752   -0.1666    0.4434 N   0  0  0  0  0  0  0  0  0  0  0  0
    6.3342    0.6868    1.5016 O   0  0  0  0  0  0  0  0  0  0  0  0
    7.1083   -0.6849   -0.1899 O   0  0  0  0  0  0  0  0  0  0  0  0
    0.2657    0.8316    0.3407 C   0  0  0  0  0  0  0  0  0  0  0  0
    0.3615    2.1458   -0.1146 C   0  0  0  0  0  0  0  0  0  0  0  0
   -0.6369    2.7618   -0.7938 C   0  0  0  0  0  0  0  0  0  0  0  0
   -1.8051    2.0281   -1.0365 C   0  0  0  0  0  0  0  0  0  0  0  0
   -2.9488    2.3411   -1.6687 N   0  0  0  0  0  0  0  0  0  0  0  0
   -3.7998    1.3066   -1.6586 C   0  0  0  0  0  0  0  0  0  0  0  0
   -3.1864    0.2466   -0.9808 C   0  0  0  0  0  0  0  0  0  0  0  0
   -3.7951   -1.0829   -0.7305 C   0  0  0  0  0  0  0  0  0  0  0  0
   -4.3181   -1.1410    0.6919 C   0  0  0  0  0  0  0  0  0  0  0  0
   -4.9324   -2.3903    1.0011 N   0  0  0  0  0  0  0  0  0  0  0  0
   -1.9520    0.7194   -0.6048 C   0  0  0  0  0  0  0  0  0  0  0  0
   -0.8812    0.1368    0.0938 C   0  0  0  0  0  0  0  0  0  0  0  0
    0.4602    0.7044    2.9154 H   0  0  0  0  0  0  0  0  0  0  0  0
    2.2026    1.0440    2.8539 H   0  0  0  0  0  0  0  0  0  0  0  0
    1.5747   -0.6861    2.9247 H   0  0  0  0  0  0  0  0  0  0  0  0
    1.2688   -1.3379   -1.1055 H   0  0  0  0  0  0  0  0  0  0  0  0
    3.1778   -2.2560   -2.3200 H   0  0  0  0  0  0  0  0  0  0  0  0
    5.5186   -1.7139   -1.5912 H   0  0  0  0  0  0  0  0  0  0  0  0
    3.9093    0.6616    1.5685 H   0  0  0  0  0  0  0  0  0  0  0  0
    1.2758    2.6828    0.0847 H   0  0  0  0  0  0  0  0  0  0  0  0
   -0.5797    3.7778   -1.1547 H   0  0  0  0  0  0  0  0  0  0  0  0
   -3.1029    3.2955   -2.0985 H   0  0  0  0  0  0  0  0  0  0  0  0
   -4.8092    1.2732   -2.1013 H   0  0  0  0  0  0  0  0  0  0  0  0
   -4.6013   -1.2745   -1.4769 H   0  0  0  0  0  0  0  0  0  0  0  0
   -3.0175   -1.8623   -0.8303 H   0  0  0  0  0  0  0  0  0  0  0  0
   -3.4580   -0.9440    1.3655 H   0  0  0  0  0  0  0  0  0  0  0  0
   -5.0310   -0.2944    0.8170 H   0  0  0  0  0  0  0  0  0  0  0  0
   -4.6807   -2.8341    1.8834 H   0  0  0  0  0  0  0  0  0  0  0  0
   -5.2006   -2.9845    0.2151 H   0  0  0  0  0  0  0  0  0  0  0  0
   -0.9727   -0.8767    0.4487 H   0  0  0  0  0  0  0  0  0  0  0  0
  1  2  1  0
  2  3  1  0
  3  4  2  0
  4  5  1  0
  5  6  2  0
  6  7  1  0
  7  8  2  0
  7  9  1  0
  9 10  1  0
  9 11  2  0
  2 12  1  0
 12 13  2  0
 13 14  1  0
 14 15  2  0
 15 16  1  0
 16 17  1  0
 17 18  2  0
 18 19  1  0
 19 20  1  0
 20 21  1  0
 18 22  1  0
 22 23  2  0
  8  3  1  0
 23 12  1  0
 22 15  1  0
  1 24  1  0
  1 25  1  0
  1 26  1  0
  4 27  1  0
  5 28  1  0
  6 29  1  0
  8 30  1  0
 13 31  1  0
 14 32  1  0
 16 33  1  0
 17 34  1  0
 19 35  1  0
 19 36  1  0
 20 37  1  0
 20 38  1  0
 21 39  1  0
 21 40  1  0
 23 41  1  0
M  CHG  2   9   1  10  -1
M  END
$$$$
[H]c1c([H])c(N(C([H])([H])[H])C([H])([H])[H])c([H])c([H])c1-c1nn(C([H])([H])[H])c2c1C([H])([H])N(C(=O)c1nc([H])n(C(C([H])([H])[H])(C([H])([H])[H])C([H])([H])[H])c1[H])C([H])([H])C2([H])[H]
     RDKit          3D

 60 63  0  0  0  0  0  0  0  0999 V2000
   -7.9059   -2.2023   -0.6683 C   0  0  0  0  0  0  0  0  0  0  0  0
   -7.0424   -1.8541    0.4311 N   0  0  0  0  0  0  0  0  0  0  0  0
   -7.2991   -2.3767    1.7358 C   0  0  0  0  0  0  0  0  0  0  0  0
   -5.9461   -0.9920    0.1933 C   0  0  0  0  0  0  0  0  0  0  0  0
   -5.0723   -0.6142    1.2060 C   0  0  0  0  0  0  0  0  0  0  0  0
   -3.9997    0.2304    0.9694 C   0  0  0  0  0  0  0  0  0  0  0  0
   -3.7489    0.7365   -0.2855 C   0  0  0  0  0  0  0  0  0  0  0  0
   -4.6252    0.3568   -1.2979 C   0  0  0  0  0  0  0  0  0  0  0  0
   -5.6932   -0.4834   -1.0649 C   0  0  0  0  0  0  0  0  0  0  0  0
   -2.6429    1.6259   -0.6132 C   0  0  0  0  0  0  0  0  0  0  0  0
   -2.7756    2.7518   -1.3751 N   0  0  0  0  0  0  0  0  0  0  0  0
   -1.6231    3.3573   -1.5128 N   0  0  0  0  0  0  0  0  0  0  0  0
   -1.3457    4.5853   -2.2500 C   0  0  0  0  0  0  0  0  0  0  0  0
   -0.7179    2.6346   -0.8417 C   0  0  0  0  0  0  0  0  0  0  0  0
    0.7368    2.8621   -0.6685 C   0  0  0  0  0  0  0  0  0  0  0  0
    1.1056    2.2591    0.6981 C   0  0  0  0  0  0  0  0  0  0  0  0
    0.8484    0.8593    0.5758 N   0  0  0  0  0  0  0  0  0  0  0  0
   -0.6017    0.5252    0.5539 C   0  0  0  0  0  0  0  0  0  0  0  0
   -1.3180    1.5447   -0.2659 C   0  0  0  0  0  0  0  0  0  0  0  0
    1.7563   -0.2045    0.4629 C   0  0  0  0  0  0  0  0  0  0  0  0
    1.2967   -1.4040    0.3721 O   0  0  0  0  0  0  0  0  0  0  0  0
    3.1888   -0.0387    0.4410 C   0  0  0  0  0  0  0  0  0  0  0  0
    4.1151   -1.0781    0.3327 C   0  0  0  0  0  0  0  0  0  0  0  0
    5.3556   -0.5276    0.3475 N   0  0  0  0  0  0  0  0  0  0  0  0
    5.2362    0.8037    0.4599 C   0  0  0  0  0  0  0  0  0  0  0  0
    3.9419    1.0649    0.5133 N   0  0  0  0  0  0  0  0  0  0  0  0
    6.5630   -1.2984    0.2547 C   0  0  0  0  0  0  0  0  0  0  0  0
    6.3567   -2.4532   -0.6838 C   0  0  0  0  0  0  0  0  0  0  0  0
    7.7178   -0.4539   -0.2395 C   0  0  0  0  0  0  0  0  0  0  0  0
    6.9752   -1.8748    1.5984 C   0  0  0  0  0  0  0  0  0  0  0  0
   -8.2768   -1.2305   -1.1018 H   0  0  0  0  0  0  0  0  0  0  0  0
   -7.3689   -2.7071   -1.4926 H   0  0  0  0  0  0  0  0  0  0  0  0
   -8.8049   -2.7635   -0.3404 H   0  0  0  0  0  0  0  0  0  0  0  0
   -8.2958   -2.8066    1.8655 H   0  0  0  0  0  0  0  0  0  0  0  0
   -7.2236   -1.5442    2.4953 H   0  0  0  0  0  0  0  0  0  0  0  0
   -6.5615   -3.1416    2.0613 H   0  0  0  0  0  0  0  0  0  0  0  0
   -5.2742   -1.0163    2.1943 H   0  0  0  0  0  0  0  0  0  0  0  0
   -3.3374    0.5081    1.7803 H   0  0  0  0  0  0  0  0  0  0  0  0
   -4.4367    0.7540   -2.3057 H   0  0  0  0  0  0  0  0  0  0  0  0
   -6.3626   -0.7648   -1.8721 H   0  0  0  0  0  0  0  0  0  0  0  0
   -0.2929    4.5918   -2.5680 H   0  0  0  0  0  0  0  0  0  0  0  0
   -1.5177    5.4541   -1.5878 H   0  0  0  0  0  0  0  0  0  0  0  0
   -2.0566    4.7028   -3.1078 H   0  0  0  0  0  0  0  0  0  0  0  0
    1.0288    3.9134   -0.7328 H   0  0  0  0  0  0  0  0  0  0  0  0
    1.2415    2.2682   -1.4769 H   0  0  0  0  0  0  0  0  0  0  0  0
    0.3180    2.6873    1.4009 H   0  0  0  0  0  0  0  0  0  0  0  0
    2.0735    2.5740    1.0552 H   0  0  0  0  0  0  0  0  0  0  0  0
   -0.9623    0.4590    1.5804 H   0  0  0  0  0  0  0  0  0  0  0  0
   -0.7330   -0.4544    0.0615 H   0  0  0  0  0  0  0  0  0  0  0  0
    3.8443   -2.1040    0.2550 H   0  0  0  0  0  0  0  0  0  0  0  0
    6.0381    1.5151    0.4988 H   0  0  0  0  0  0  0  0  0  0  0  0
    5.5363   -3.1101   -0.3185 H   0  0  0  0  0  0  0  0  0  0  0  0
    6.0676   -2.0969   -1.6951 H   0  0  0  0  0  0  0  0  0  0  0  0
    7.3147   -3.0017   -0.8075 H   0  0  0  0  0  0  0  0  0  0  0  0
    7.5839   -0.1074   -1.2653 H   0  0  0  0  0  0  0  0  0  0  0  0
    8.6629   -1.0088   -0.1645 H   0  0  0  0  0  0  0  0  0  0  0  0
    7.7908    0.4583    0.4155 H   0  0  0  0  0  0  0  0  0  0  0  0
    7.2415   -1.0363    2.2739 H   0  0  0  0  0  0  0  0  0  0  0  0
    7.8036   -2.5989    1.4616 H   0  0  0  0  0  0  0  0  0  0  0  0
    6.1230   -2.4341    2.0583 H   0  0  0  0  0  0  0  0  0  0  0  0
  1  2  1  0
  2  3  1  0
  2  4  1  0
  4  5  2  0
  5  6  1  0
  6  7  2  0
  7  8  1  0
  8  9  2  0
  7 10  1  0
 10 11  2  0
 11 12  1  0
 12 13  1  0
 12 14  1  0
 14 15  1  0
 15 16  1  0
 16 17  1  0
 17 18  1  0
 18 19  1  0
 17 20  1  0
 20 21  2  0
 20 22  1  0
 22 23  2  0
 23 24  1  0
 24 25  1  0
 25 26  2  0
 24 27  1  0
 27 28  1  0
 27 29  1  0
 27 30  1  0
  9  4  1  0
 19 10  1  0
 26 22  1  0
 19 14  2  0
  1 31  1  0
  1 32  1  0
  1 33  1  0
  3 34  1  0
  3 35  1  0
  3 36  1  0
  5 37  1  0
  6 38  1  0
  8 39  1  0
  9 40  1  0
 13 41  1  0
 13 42  1  0
 13 43  1  0
 15 44  1  0
 15 45  1  0
 16 46  1  0
 16 47  1  0
 18 48  1  0
 18 49  1  0
 23 50  1  0
 25 51  1  0
 28 52  1  0
 28 53  1  0
 28 54  1  0
 29 55  1  0
 29 56  1  0
 29 57  1  0
 30 58  1  0
 30 59  1  0
 30 60  1  0
M  END
$$$$
[H]c1nc(N([H])c2c([H])c([H])c(F)c(C#Cc3c([H])c([H])c([H])c([H])c3[H])c2[H])c2c([H])c(OC([H])([H])[H])c(OC([H])([H])[H])c([H])c2n1
     RDKit          3D

 48 51  0  0  0  0  0  0  0  0999 V2000
   -8.0905    0.7259   -0.5620 C   0  0  0  0  0  0  0  0  0  0  0  0
   -6.8900    1.0878    0.0637 O   0  0  0  0  0  0  0  0  0  0  0  0
   -5.6870    0.4403   -0.1652 C   0  0  0  0  0  0  0  0  0  0  0  0
   -5.5897   -0.6116   -1.0307 C   0  0  0  0  0  0  0  0  0  0  0  0
   -4.3579   -1.2134   -1.2132 C   0  0  0  0  0  0  0  0  0  0  0  0
   -4.2349   -2.2577   -2.0635 N   0  0  0  0  0  0  0  0  0  0  0  0
   -3.0798   -2.8928   -2.2929 C   0  0  0  0  0  0  0  0  0  0  0  0
   -2.0013   -2.4575   -1.6377 N   0  0  0  0  0  0  0  0  0  0  0  0
   -1.9815   -1.4452   -0.7766 C   0  0  0  0  0  0  0  0  0  0  0  0
   -0.8282   -0.9868   -0.1209 N   0  0  0  0  0  0  0  0  0  0  0  0
    0.4653   -1.5474   -0.2147 C   0  0  0  0  0  0  0  0  0  0  0  0
    0.6876   -2.8462   -0.5272 C   0  0  0  0  0  0  0  0  0  0  0  0
    1.9836   -3.3638   -0.6410 C   0  0  0  0  0  0  0  0  0  0  0  0
    3.0835   -2.5598   -0.4356 C   0  0  0  0  0  0  0  0  0  0  0  0
    4.3546   -2.9973   -0.5301 F   0  0  0  0  0  0  0  0  0  0  0  0
    2.8651   -1.2194   -0.1121 C   0  0  0  0  0  0  0  0  0  0  0  0
    1.5846   -0.7198   -0.0030 C   0  0  0  0  0  0  0  0  0  0  0  0
    4.0088   -0.3790    0.1030 C   0  0  0  0  0  0  0  0  0  0  0  0
    4.9724    0.3265    0.2772 C   0  0  0  0  0  0  0  0  0  0  0  0
    6.1362    1.1538    0.4830 C   0  0  0  0  0  0  0  0  0  0  0  0
    6.2630    2.0167    1.5463 C   0  0  0  0  0  0  0  0  0  0  0  0
    7.3767    2.8101    1.7455 C   0  0  0  0  0  0  0  0  0  0  0  0
    8.3921    2.7182    0.8288 C   0  0  0  0  0  0  0  0  0  0  0  0
    8.3237    1.8676   -0.2635 C   0  0  0  0  0  0  0  0  0  0  0  0
    7.1915    1.0921   -0.4242 C   0  0  0  0  0  0  0  0  0  0  0  0
   -3.2011   -0.7902   -0.5473 C   0  0  0  0  0  0  0  0  0  0  0  0
   -3.3290    0.2641    0.3123 C   0  0  0  0  0  0  0  0  0  0  0  0
   -4.5552    0.8648    0.4954 C   0  0  0  0  0  0  0  0  0  0  0  0
   -4.6465    1.9505    1.3912 O   0  0  0  0  0  0  0  0  0  0  0  0
   -3.5024    2.3808    2.0599 C   0  0  0  0  0  0  0  0  0  0  0  0
   -8.1844   -0.3651   -0.7230 H   0  0  0  0  0  0  0  0  0  0  0  0
   -8.9247    1.0593    0.1198 H   0  0  0  0  0  0  0  0  0  0  0  0
   -8.1850    1.2073   -1.5587 H   0  0  0  0  0  0  0  0  0  0  0  0
   -6.4421   -0.9916   -1.5792 H   0  0  0  0  0  0  0  0  0  0  0  0
   -3.0112   -3.7400   -2.9909 H   0  0  0  0  0  0  0  0  0  0  0  0
   -0.8741   -0.1352    0.5275 H   0  0  0  0  0  0  0  0  0  0  0  0
   -0.0913   -3.5510   -0.6857 H   0  0  0  0  0  0  0  0  0  0  0  0
    2.1279   -4.4008   -0.8915 H   0  0  0  0  0  0  0  0  0  0  0  0
    1.3824    0.3063    0.2433 H   0  0  0  0  0  0  0  0  0  0  0  0
    5.4456    2.0728    2.2601 H   0  0  0  0  0  0  0  0  0  0  0  0
    7.4163    3.4714    2.6053 H   0  0  0  0  0  0  0  0  0  0  0  0
    9.2592    3.3389    0.9879 H   0  0  0  0  0  0  0  0  0  0  0  0
    9.1635    1.8483   -0.9452 H   0  0  0  0  0  0  0  0  0  0  0  0
    7.1308    0.4226   -1.2786 H   0  0  0  0  0  0  0  0  0  0  0  0
   -2.4917    0.6460    0.8607 H   0  0  0  0  0  0  0  0  0  0  0  0
   -3.6600    3.2277    2.7302 H   0  0  0  0  0  0  0  0  0  0  0  0
   -2.6851    2.6526    1.3314 H   0  0  0  0  0  0  0  0  0  0  0  0
   -3.0896    1.5190    2.6541 H   0  0  0  0  0  0  0  0  0  0  0  0
  1  2  1  0
  2  3  1  0
  3  4  2  0
  4  5  1  0
  5  6  2  0
  6  7  1  0
  7  8  2  0
  8  9  1  0
  9 10  1  0
 10 11  1  0
 11 12  2  0
 12 13  1  0
 13 14  2  0
 14 15  1  0
 14 16  1  0
 16 17  2  0
 16 18  1  0
 18 19  3  0
 19 20  1  0
 20 21  2  0
 21 22  1  0
 22 23  2  0
 23 24  1  0
 24 25  2  0
  9 26  2  0
 26 27  1  0
 27 28  2  0
 28 29  1  0
 29 30  1  0
 28  3  1  0
 26  5  1  0
 17 11  1  0
 25 20  1  0
  1 31  1  0
  1 32  1  0
  1 33  1  0
  4 34  1  0
  7 35  1  0
 10 36  1  0
 12 37  1  0
 13 38  1  0
 17 39  1  0
 21 40  1  0
 22 41  1  0
 23 42  1  0
 24 43  1  0
 25 44  1  0
 27 45  1  0
 30 46  1  0
 30 47  1  0
 30 48  1  0
M  END
$$$$
[H]OC(c1nc([H])c(-c2nn([H])c3c([H])c(Cl)c(-c4c([H])nc(C([H])([H])[H])c([H])c4[H])c([H])c23)c([H])c1[H])(C(F)(F)F)C(F)(F)F
     RDKit          3D

 46 49  0  0  0  0  0  0  0  0999 V2000
    6.4229    3.1243    0.7970 C   0  0  0  0  0  0  0  0  0  0  0  0
    5.4836    1.9834    0.5948 C   0  0  0  0  0  0  0  0  0  0  0  0
    4.5511    2.0433   -0.4130 C   0  0  0  0  0  0  0  0  0  0  0  0
    3.6698    0.9713   -0.6030 C   0  0  0  0  0  0  0  0  0  0  0  0
    3.7156   -0.1479    0.2009 C   0  0  0  0  0  0  0  0  0  0  0  0
    4.6746   -0.1548    1.2026 C   0  0  0  0  0  0  0  0  0  0  0  0
    5.5096    0.8963    1.3578 N   0  0  0  0  0  0  0  0  0  0  0  0
    2.8156   -1.2636    0.0386 C   0  0  0  0  0  0  0  0  0  0  0  0
    1.4397   -1.1057    0.0056 C   0  0  0  0  0  0  0  0  0  0  0  0
    0.6316   -2.2114   -0.1265 C   0  0  0  0  0  0  0  0  0  0  0  0
   -0.7385   -2.3413   -0.1800 C   0  0  0  0  0  0  0  0  0  0  0  0
   -0.9656   -3.6818   -0.3107 N   0  0  0  0  0  0  0  0  0  0  0  0
    0.1835   -4.3250   -0.3359 N   0  0  0  0  0  0  0  0  0  0  0  0
    1.2220   -3.4620   -0.2243 C   0  0  0  0  0  0  0  0  0  0  0  0
    2.5896   -3.6548   -0.1959 C   0  0  0  0  0  0  0  0  0  0  0  0
    3.3896   -2.5376   -0.0629 C   0  0  0  0  0  0  0  0  0  0  0  0
    5.1438   -2.7018   -0.0426 Cl  0  0  0  0  0  0  0  0  0  0  0  0
   -1.7953   -1.3418   -0.1137 C   0  0  0  0  0  0  0  0  0  0  0  0
   -1.7771   -0.2979    0.7768 C   0  0  0  0  0  0  0  0  0  0  0  0
   -2.8050    0.6518    0.8523 C   0  0  0  0  0  0  0  0  0  0  0  0
   -3.8750    0.5247   -0.0068 C   0  0  0  0  0  0  0  0  0  0  0  0
   -3.8787   -0.5033   -0.8741 N   0  0  0  0  0  0  0  0  0  0  0  0
   -2.9071   -1.4084   -0.9522 C   0  0  0  0  0  0  0  0  0  0  0  0
   -4.9845    1.5096    0.0533 C   0  0  0  0  0  0  0  0  0  0  0  0
   -4.7150    2.4431    1.0428 O   0  0  0  0  0  0  0  0  0  0  0  0
   -6.2926    0.8214    0.4222 C   0  0  0  0  0  0  0  0  0  0  0  0
   -6.1879    0.2005    1.6603 F   0  0  0  0  0  0  0  0  0  0  0  0
   -6.7467   -0.0356   -0.5332 F   0  0  0  0  0  0  0  0  0  0  0  0
   -7.2335    1.8277    0.5976 F   0  0  0  0  0  0  0  0  0  0  0  0
   -5.1834    2.1567   -1.2975 C   0  0  0  0  0  0  0  0  0  0  0  0
   -5.4928    1.1922   -2.2284 F   0  0  0  0  0  0  0  0  0  0  0  0
   -4.0708    2.8886   -1.6790 F   0  0  0  0  0  0  0  0  0  0  0  0
   -6.2485    3.0290   -1.2247 F   0  0  0  0  0  0  0  0  0  0  0  0
    6.8593    3.3440   -0.1984 H   0  0  0  0  0  0  0  0  0  0  0  0
    5.9228    4.0403    1.1484 H   0  0  0  0  0  0  0  0  0  0  0  0
    7.2795    2.8209    1.4330 H   0  0  0  0  0  0  0  0  0  0  0  0
    4.5142    2.9184   -1.0465 H   0  0  0  0  0  0  0  0  0  0  0  0
    2.9676    1.0851   -1.4122 H   0  0  0  0  0  0  0  0  0  0  0  0
    4.8167   -0.9597    1.9114 H   0  0  0  0  0  0  0  0  0  0  0  0
    0.9997   -0.1367    0.0817 H   0  0  0  0  0  0  0  0  0  0  0  0
    0.2890   -5.3691   -0.4300 H   0  0  0  0  0  0  0  0  0  0  0  0
    3.0279   -4.6579   -0.2740 H   0  0  0  0  0  0  0  0  0  0  0  0
   -0.9434   -0.1701    1.4702 H   0  0  0  0  0  0  0  0  0  0  0  0
   -2.7880    1.4687    1.5493 H   0  0  0  0  0  0  0  0  0  0  0  0
   -2.9038   -2.2456   -1.6544 H   0  0  0  0  0  0  0  0  0  0  0  0
   -5.5859    2.7725    1.3925 H   0  0  0  0  0  0  0  0  0  0  0  0
  1  2  1  0
  2  3  2  0
  3  4  1  0
  4  5  2  0
  5  6  1  0
  6  7  2  0
  5  8  1  0
  8  9  2  0
  9 10  1  0
 10 11  1  0
 11 12  2  0
 12 13  1  0
 13 14  1  0
 14 15  1  0
 15 16  2  0
 16 17  1  0
 11 18  1  0
 18 19  2  0
 19 20  1  0
 20 21  2  0
 21 22  1  0
 22 23  2  0
 21 24  1  0
 24 25  1  0
 24 26  1  0
 26 27  1  0
 26 28  1  0
 26 29  1  0
 24 30  1  0
 30 31  1  0
 30 32  1  0
 30 33  1  0
  7  2  1  0
 16  8  1  0
 23 18  1  0
 14 10  2  0
  1 34  1  0
  1 35  1  0
  1 36  1  0
  3 37  1  0
  4 38  1  0
  6 39  1  0
  9 40  1  0
 13 41  1  0
 15 42  1  0
 19 43  1  0
 20 44  1  0
 23 45  1  0
 25 46  1  0
M  END
$$$$
[H]S[C@@]([H])(C(=O)N([H])[C@]1([H])C([H])([H])N(C(=O)c2c([H])c([H])c([H])c([H])c2OC([H])([H])[H])C([H])([H])C1([H])[H])C([H])([H])c1nc(-c2oc([H])c([H])c2[H])oc1[H]
     RDKit          3D

 54 57  0  0  0  0  0  0  0  0999 V2000
   -7.3521   -0.6524   -1.5463 C   0  0  0  0  0  0  0  0  0  0  0  0
   -6.2054    0.0525   -1.1269 O   0  0  0  0  0  0  0  0  0  0  0  0
   -5.9403    0.3080    0.2126 C   0  0  0  0  0  0  0  0  0  0  0  0
   -6.8282   -0.1422    1.1724 C   0  0  0  0  0  0  0  0  0  0  0  0
   -6.6030    0.0902    2.5164 C   0  0  0  0  0  0  0  0  0  0  0  0
   -5.4788    0.7769    2.8685 C   0  0  0  0  0  0  0  0  0  0  0  0
   -4.6013    1.2208    1.9057 C   0  0  0  0  0  0  0  0  0  0  0  0
   -4.8014    1.0031    0.5606 C   0  0  0  0  0  0  0  0  0  0  0  0
   -3.8280    1.5039   -0.3928 C   0  0  0  0  0  0  0  0  0  0  0  0
   -4.0032    2.6635   -0.8450 O   0  0  0  0  0  0  0  0  0  0  0  0
   -2.7382    0.6990   -0.7786 N   0  0  0  0  0  0  0  0  0  0  0  0
   -2.4709   -0.6364   -0.3051 C   0  0  0  0  0  0  0  0  0  0  0  0
   -1.9929   -1.3133   -1.5719 C   0  0  0  0  0  0  0  0  0  0  0  0
   -1.0417   -0.2698   -2.1169 C   0  0  1  0  0  0  0  0  0  0  0  0
   -1.6870    1.0364   -1.7067 C   0  0  0  0  0  0  0  0  0  0  0  0
    0.2142   -0.4271   -1.3654 N   0  0  0  0  0  0  0  0  0  0  0  0
    1.4232   -0.6671   -2.0570 C   0  0  0  0  0  0  0  0  0  0  0  0
    1.4306   -0.7476   -3.3255 O   0  0  0  0  0  0  0  0  0  0  0  0
    2.6859   -0.8262   -1.3158 C   0  0  2  0  0  0  0  0  0  0  0  0
    2.5809   -2.2450   -0.1607 S   0  0  0  0  0  0  0  0  0  0  0  0
    2.9643    0.4320   -0.5168 C   0  0  0  0  0  0  0  0  0  0  0  0
    4.2498    0.2450    0.2254 C   0  0  0  0  0  0  0  0  0  0  0  0
    4.3372   -0.2834    1.4860 C   0  0  0  0  0  0  0  0  0  0  0  0
    5.6026   -0.2942    1.8102 O   0  0  0  0  0  0  0  0  0  0  0  0
    6.3034    0.1982    0.8199 C   0  0  0  0  0  0  0  0  0  0  0  0
    5.4830    0.5382   -0.1716 N   0  0  0  0  0  0  0  0  0  0  0  0
    7.7761    0.3346    0.8475 C   0  0  0  0  0  0  0  0  0  0  0  0
    8.6247   -0.0168    1.8734 C   0  0  0  0  0  0  0  0  0  0  0  0
    9.9280    0.2843    1.4740 C   0  0  0  0  0  0  0  0  0  0  0  0
    9.7867    0.8092    0.2077 C   0  0  0  0  0  0  0  0  0  0  0  0
    8.5183    0.8194   -0.1159 O   0  0  0  0  0  0  0  0  0  0  0  0
   -7.1755   -1.0310   -2.5950 H   0  0  0  0  0  0  0  0  0  0  0  0
   -8.2597   -0.0409   -1.5221 H   0  0  0  0  0  0  0  0  0  0  0  0
   -7.5268   -1.5617   -0.9235 H   0  0  0  0  0  0  0  0  0  0  0  0
   -7.7252   -0.6885    0.9129 H   0  0  0  0  0  0  0  0  0  0  0  0
   -7.2990   -0.2632    3.2608 H   0  0  0  0  0  0  0  0  0  0  0  0
   -5.2788    0.9716    3.9051 H   0  0  0  0  0  0  0  0  0  0  0  0
   -3.7020    1.7716    2.2074 H   0  0  0  0  0  0  0  0  0  0  0  0
   -3.3712   -1.1289    0.1139 H   0  0  0  0  0  0  0  0  0  0  0  0
   -1.6414   -0.5893    0.4440 H   0  0  0  0  0  0  0  0  0  0  0  0
   -1.4962   -2.2814   -1.3834 H   0  0  0  0  0  0  0  0  0  0  0  0
   -2.8551   -1.3990   -2.2637 H   0  0  0  0  0  0  0  0  0  0  0  0
   -0.8767   -0.3612   -3.1898 H   0  0  0  0  0  0  0  0  0  0  0  0
   -0.9444    1.6578   -1.1385 H   0  0  0  0  0  0  0  0  0  0  0  0
   -2.0644    1.5793   -2.5957 H   0  0  0  0  0  0  0  0  0  0  0  0
    0.2267   -0.3645   -0.3344 H   0  0  0  0  0  0  0  0  0  0  0  0
    3.5094   -1.0182   -2.0073 H   0  0  0  0  0  0  0  0  0  0  0  0
    1.5988   -1.8715    0.8039 H   0  0  0  0  0  0  0  0  0  0  0  0
    2.1652    0.6529    0.1952 H   0  0  0  0  0  0  0  0  0  0  0  0
    3.0919    1.2785   -1.2181 H   0  0  0  0  0  0  0  0  0  0  0  0
    3.5124   -0.6338    2.1138 H   0  0  0  0  0  0  0  0  0  0  0  0
    8.3250   -0.4500    2.8200 H   0  0  0  0  0  0  0  0  0  0  0  0
   10.8339    0.1311    2.0480 H   0  0  0  0  0  0  0  0  0  0  0  0
   10.6164    1.1467   -0.3889 H   0  0  0  0  0  0  0  0  0  0  0  0
  1  2  1  0
  2  3  1  0
  3  4  2  0
  4  5  1  0
  5  6  2  0
  6  7  1  0
  7  8  2  0
  8  9  1  0
  9 10  2  0
  9 11  1  0
 11 12  1  0
 12 13  1  0
 13 14  1  0
 14 15  1  0
 14 16  1  0
 16 17  1  0
 17 18  2  0
 17 19  1  0
 19 20  1  0
 19 21  1  0
 21 22  1  0
 22 23  2  0
 23 24  1  0
 24 25  1  0
 25 26  2  0
 25 27  1  0
 27 28  2  0
 28 29  1  0
 29 30  2  0
 30 31  1  0
  8  3  1  0
 15 11  1  0
 26 22  1  0
 31 27  1  0
  1 32  1  0
  1 33  1  0
  1 34  1  0
  4 35  1  0
  5 36  1  0
  6 37  1  0
  7 38  1  0
 12 39  1  0
 12 40  1  0
 13 41  1  0
 13 42  1  0
 14 43  1  6
 15 44  1  0
 15 45  1  0
 16 46  1  0
 19 47  1  6
 20 48  1  0
 21 49  1  0
 21 50  1  0
 23 51  1  0
 28 52  1  0
 29 53  1  0
 30 54  1  0
M  END
$$$$
[H]N=C(N([H])C([H])([H])[H])N1C([H])([H])C([H])([H])C([H])([H])C([H])(C([H])([H])C([H])([H])C([H])([H])N([H])c2nc3c([H])c([H])c([H])c([H])c3c3c([H])c(C(=O)N([H])[H])c([H])c([H])c23)C1([H])c1c([H])c([H])c([H])c([H])c1[H]
     RDKit          3D

 71 75  0  0  0  0  0  0  0  0999 V2000
   -3.4184    3.6449    1.1506 C   0  0  0  0  0  0  0  0  0  0  0  0
   -2.7384    2.3817    1.0419 N   0  0  0  0  0  0  0  0  0  0  0  0
   -3.1581    1.2672    1.8280 C   0  0  0  0  0  0  0  0  0  0  0  0
   -3.2039    1.3952    3.1083 N   0  0  0  0  0  0  0  0  0  0  0  0
   -3.5178    0.0383    1.1979 N   0  0  0  0  0  0  0  0  0  0  0  0
   -3.9734   -1.0498    2.0068 C   0  0  0  0  0  0  0  0  0  0  0  0
   -3.3994   -2.3815    1.5924 C   0  0  0  0  0  0  0  0  0  0  0  0
   -3.2943   -2.5064    0.0912 C   0  0  0  0  0  0  0  0  0  0  0  0
   -2.6198   -1.3423   -0.5473 C   0  0  0  0  0  0  0  0  0  0  0  0
   -1.1918   -1.1877   -0.0444 C   0  0  0  0  0  0  0  0  0  0  0  0
   -0.4149   -2.4217   -0.3718 C   0  0  0  0  0  0  0  0  0  0  0  0
    1.0361   -2.2915    0.1056 C   0  0  0  0  0  0  0  0  0  0  0  0
    1.6074   -1.1506   -0.5885 N   0  0  0  0  0  0  0  0  0  0  0  0
    2.9766   -0.8307   -0.2644 C   0  0  0  0  0  0  0  0  0  0  0  0
    3.6549   -1.5664    0.6311 N   0  0  0  0  0  0  0  0  0  0  0  0
    4.9274   -1.3471    0.9976 C   0  0  0  0  0  0  0  0  0  0  0  0
    5.5748   -2.1371    1.9238 C   0  0  0  0  0  0  0  0  0  0  0  0
    6.8781   -1.9264    2.3103 C   0  0  0  0  0  0  0  0  0  0  0  0
    7.5508   -0.8811    1.7408 C   0  0  0  0  0  0  0  0  0  0  0  0
    6.9138   -0.0637    0.7961 C   0  0  0  0  0  0  0  0  0  0  0  0
    5.6083   -0.2732    0.4079 C   0  0  0  0  0  0  0  0  0  0  0  0
    4.9774    0.5146   -0.5102 C   0  0  0  0  0  0  0  0  0  0  0  0
    5.6615    1.5612   -1.0775 C   0  0  0  0  0  0  0  0  0  0  0  0
    4.9965    2.3453   -2.0090 C   0  0  0  0  0  0  0  0  0  0  0  0
    5.6746    3.4567   -2.6303 C   0  0  0  0  0  0  0  0  0  0  0  0
    6.9979    3.7801   -2.2645 N   0  0  0  0  0  0  0  0  0  0  0  0
    5.0875    4.1354   -3.4955 O   0  0  0  0  0  0  0  0  0  0  0  0
    3.6765    2.0689   -2.3493 C   0  0  0  0  0  0  0  0  0  0  0  0
    3.0292    1.0162   -1.7610 C   0  0  0  0  0  0  0  0  0  0  0  0
    3.6530    0.2219   -0.8388 C   0  0  0  0  0  0  0  0  0  0  0  0
   -3.4020   -0.0645   -0.2578 C   0  0  0  0  0  0  0  0  0  0  0  0
   -4.7064   -0.1244   -0.9083 C   0  0  0  0  0  0  0  0  0  0  0  0
   -5.7272    0.6605   -0.3632 C   0  0  0  0  0  0  0  0  0  0  0  0
   -6.9933    0.7000   -0.9064 C   0  0  0  0  0  0  0  0  0  0  0  0
   -7.2752   -0.0622   -2.0337 C   0  0  0  0  0  0  0  0  0  0  0  0
   -6.2937   -0.8377   -2.5847 C   0  0  0  0  0  0  0  0  0  0  0  0
   -5.0242   -0.8467   -2.0003 C   0  0  0  0  0  0  0  0  0  0  0  0
   -2.7696    4.4433    1.5260 H   0  0  0  0  0  0  0  0  0  0  0  0
   -3.8681    3.9721    0.1894 H   0  0  0  0  0  0  0  0  0  0  0  0
   -4.2751    3.5731    1.8692 H   0  0  0  0  0  0  0  0  0  0  0  0
   -1.9439    2.3023    0.3844 H   0  0  0  0  0  0  0  0  0  0  0  0
   -2.9342    2.3045    3.5283 H   0  0  0  0  0  0  0  0  0  0  0  0
   -3.8469   -0.8266    3.0615 H   0  0  0  0  0  0  0  0  0  0  0  0
   -5.0845   -1.1308    1.8159 H   0  0  0  0  0  0  0  0  0  0  0  0
   -2.4060   -2.4845    2.0724 H   0  0  0  0  0  0  0  0  0  0  0  0
   -4.0298   -3.2116    1.9729 H   0  0  0  0  0  0  0  0  0  0  0  0
   -4.3214   -2.6944   -0.3083 H   0  0  0  0  0  0  0  0  0  0  0  0
   -2.7365   -3.4276   -0.1582 H   0  0  0  0  0  0  0  0  0  0  0  0
   -2.5878   -1.4846   -1.6344 H   0  0  0  0  0  0  0  0  0  0  0  0
   -1.2613   -1.1271    1.0681 H   0  0  0  0  0  0  0  0  0  0  0  0
   -0.8003   -0.2760   -0.4989 H   0  0  0  0  0  0  0  0  0  0  0  0
   -0.3758   -2.5344   -1.4728 H   0  0  0  0  0  0  0  0  0  0  0  0
   -0.7918   -3.3260    0.1490 H   0  0  0  0  0  0  0  0  0  0  0  0
    1.5833   -3.2213   -0.1473 H   0  0  0  0  0  0  0  0  0  0  0  0
    1.0351   -2.1256    1.2008 H   0  0  0  0  0  0  0  0  0  0  0  0
    1.0363   -0.6376   -1.2580 H   0  0  0  0  0  0  0  0  0  0  0  0
    5.0318   -2.9561    2.3627 H   0  0  0  0  0  0  0  0  0  0  0  0
    7.3849   -2.5528    3.0409 H   0  0  0  0  0  0  0  0  0  0  0  0
    8.5859   -0.6916    2.0290 H   0  0  0  0  0  0  0  0  0  0  0  0
    7.5129    0.7312    0.4003 H   0  0  0  0  0  0  0  0  0  0  0  0
    6.6757    1.8400   -0.8706 H   0  0  0  0  0  0  0  0  0  0  0  0
    7.1703    4.5066   -1.5538 H   0  0  0  0  0  0  0  0  0  0  0  0
    7.7886    3.2891   -2.7094 H   0  0  0  0  0  0  0  0  0  0  0  0
    3.1616    2.6731   -3.0683 H   0  0  0  0  0  0  0  0  0  0  0  0
    2.0138    0.8425   -2.0556 H   0  0  0  0  0  0  0  0  0  0  0  0
   -2.7700    0.7600   -0.6599 H   0  0  0  0  0  0  0  0  0  0  0  0
   -5.5081    1.2460    0.5062 H   0  0  0  0  0  0  0  0  0  0  0  0
   -7.7889    1.3056   -0.4894 H   0  0  0  0  0  0  0  0  0  0  0  0
   -8.2537   -0.0499   -2.4768 H   0  0  0  0  0  0  0  0  0  0  0  0
   -6.4506   -1.4461   -3.4539 H   0  0  0  0  0  0  0  0  0  0  0  0
   -4.3059   -1.4802   -2.4902 H   0  0  0  0  0  0  0  0  0  0  0  0
  1  2  1  0
  2  3  1  0
  3  4  2  3
  3  5  1  0
  5  6  1  0
  6  7  1  0
  7  8  1  0
  8  9  1  0
  9 10  1  0
 10 11  1  0
 11 12  1  0
 12 13  1  0
 13 14  1  0
 14 15  2  0
 15 16  1  0
 16 17  2  0
 17 18  1  0
 18 19  2  0
 19 20  1  0
 20 21  2  0
 21 22  1  0
 22 23  2  0
 23 24  1  0
 24 25  1  0
 25 26  1  0
 25 27  2  0
 24 28  2  0
 28 29  1  0
 29 30  2  0
  9 31  1  0
 31 32  1  0
 32 33  2  0
 33 34  1  0
 34 35  2  0
 35 36  1  0
 36 37  2  0
 31  5  1  0
 37 32  1  0
 30 14  1  0
 21 16  1  0
 30 22  1  0
  1 38  1  0
  1 39  1  0
  1 40  1  0
  2 41  1  0
  4 42  1  0
  6 43  1  0
  6 44  1  0
  7 45  1  0
  7 46  1  0
  8 47  1  0
  8 48  1  0
  9 49  1  0
 10 50  1  0
 10 51  1  0
 11 52  1  0
 11 53  1  0
 12 54  1  0
 12 55  1  0
 13 56  1  0
 17 57  1  0
 18 58  1  0
 19 59  1  0
 20 60  1  0
 23 61  1  0
 26 62  1  0
 26 63  1  0
 28 64  1  0
 29 65  1  0
 31 66  1  0
 33 67  1  0
 34 68  1  0
 35 69  1  0
 36 70  1  0
 37 71  1  0
M  END
$$$$
[H]c1nc([H])c(-c2nnc(N([H])C(=O)c3c([H])c(C([H])([H])Oc4c([H])c([H])c([H])c([H])c4[H])c([H])c([H])c3OC([H])([H])c3c([H])c([H])c([H])c([H])c3[H])o2)c([H])c1[H]
     RDKit          3D

 58 62  0  0  0  0  0  0  0  0999 V2000
    1.3796   -1.9595    0.9571 O   0  0  0  0  0  0  0  0  0  0  0  0
    0.8958   -0.8641    0.4723 C   0  0  0  0  0  0  0  0  0  0  0  0
    1.8263    0.1531    0.2889 N   0  0  0  0  0  0  0  0  0  0  0  0
    3.2261   -0.0259    0.6240 C   0  0  0  0  0  0  0  0  0  0  0  0
    3.7035   -1.1681    1.1254 N   0  0  0  0  0  0  0  0  0  0  0  0
    5.0035   -0.9837    1.3110 N   0  0  0  0  0  0  0  0  0  0  0  0
    5.3332    0.2726    0.9250 C   0  0  0  0  0  0  0  0  0  0  0  0
    4.2127    0.8141    0.5142 O   0  0  0  0  0  0  0  0  0  0  0  0
    6.6659    0.8616    0.9721 C   0  0  0  0  0  0  0  0  0  0  0  0
    6.8514    2.1564    0.5420 C   0  0  0  0  0  0  0  0  0  0  0  0
    8.1295    2.6663    0.6072 C   0  0  0  0  0  0  0  0  0  0  0  0
    9.1697    1.9074    1.0828 C   0  0  0  0  0  0  0  0  0  0  0  0
    8.9820    0.6536    1.4978 N   0  0  0  0  0  0  0  0  0  0  0  0
    7.7298    0.1277    1.4434 C   0  0  0  0  0  0  0  0  0  0  0  0
   -0.5178   -0.8389    0.1901 C   0  0  0  0  0  0  0  0  0  0  0  0
   -1.2761   -2.0032    0.4595 C   0  0  0  0  0  0  0  0  0  0  0  0
   -2.6179   -2.0813    0.2281 C   0  0  0  0  0  0  0  0  0  0  0  0
   -3.4149   -3.3138    0.5142 C   0  0  0  0  0  0  0  0  0  0  0  0
   -4.7465   -3.0709    0.1792 O   0  0  0  0  0  0  0  0  0  0  0  0
   -5.7844   -3.9505    0.2957 C   0  0  0  0  0  0  0  0  0  0  0  0
   -5.7015   -5.2347    0.7647 C   0  0  0  0  0  0  0  0  0  0  0  0
   -6.8111   -6.0499    0.8451 C   0  0  0  0  0  0  0  0  0  0  0  0
   -8.0557   -5.6032    0.4545 C   0  0  0  0  0  0  0  0  0  0  0  0
   -8.1565   -4.3140   -0.0196 C   0  0  0  0  0  0  0  0  0  0  0  0
   -7.0477   -3.4985   -0.1002 C   0  0  0  0  0  0  0  0  0  0  0  0
   -3.2244   -0.9570   -0.2906 C   0  0  0  0  0  0  0  0  0  0  0  0
   -2.5202    0.1891   -0.5640 C   0  0  0  0  0  0  0  0  0  0  0  0
   -1.1438    0.2635   -0.3246 C   0  0  0  0  0  0  0  0  0  0  0  0
   -0.4922    1.4552   -0.6243 O   0  0  0  0  0  0  0  0  0  0  0  0
   -1.1345    2.5719   -1.1474 C   0  0  0  0  0  0  0  0  0  0  0  0
   -0.1428    3.6608   -1.3441 C   0  0  0  0  0  0  0  0  0  0  0  0
    0.1026    4.5743   -0.3304 C   0  0  0  0  0  0  0  0  0  0  0  0
    1.0172    5.5870   -0.4985 C   0  0  0  0  0  0  0  0  0  0  0  0
    1.7116    5.7197   -1.6756 C   0  0  0  0  0  0  0  0  0  0  0  0
    1.4951    4.8363   -2.6976 C   0  0  0  0  0  0  0  0  0  0  0  0
    0.5743    3.8282   -2.5093 C   0  0  0  0  0  0  0  0  0  0  0  0
    1.5929    1.0885   -0.0904 H   0  0  0  0  0  0  0  0  0  0  0  0
    6.0676    2.7918    0.1607 H   0  0  0  0  0  0  0  0  0  0  0  0
    8.3427    3.6734    0.2860 H   0  0  0  0  0  0  0  0  0  0  0  0
   10.1933    2.3000    1.1408 H   0  0  0  0  0  0  0  0  0  0  0  0
    7.6106   -0.8928    1.7876 H   0  0  0  0  0  0  0  0  0  0  0  0
   -0.7747   -2.8824    0.8703 H   0  0  0  0  0  0  0  0  0  0  0  0
   -3.3582   -3.5321    1.6046 H   0  0  0  0  0  0  0  0  0  0  0  0
   -2.9956   -4.1936   -0.0271 H   0  0  0  0  0  0  0  0  0  0  0  0
   -4.7232   -5.5843    1.0711 H   0  0  0  0  0  0  0  0  0  0  0  0
   -6.7391   -7.0517    1.2124 H   0  0  0  0  0  0  0  0  0  0  0  0
   -8.9287   -6.2618    0.5238 H   0  0  0  0  0  0  0  0  0  0  0  0
   -9.1324   -3.9310   -0.3373 H   0  0  0  0  0  0  0  0  0  0  0  0
   -7.1710   -2.4928   -0.4784 H   0  0  0  0  0  0  0  0  0  0  0  0
   -4.2990   -1.0200   -0.4758 H   0  0  0  0  0  0  0  0  0  0  0  0
   -3.0076    1.0687   -0.9724 H   0  0  0  0  0  0  0  0  0  0  0  0
   -1.6134    2.2924   -2.1049 H   0  0  0  0  0  0  0  0  0  0  0  0
   -1.9063    2.9430   -0.4314 H   0  0  0  0  0  0  0  0  0  0  0  0
   -0.4352    4.4836    0.6012 H   0  0  0  0  0  0  0  0  0  0  0  0
    1.2070    6.2948    0.2878 H   0  0  0  0  0  0  0  0  0  0  0  0
    2.4397    6.5114   -1.8331 H   0  0  0  0  0  0  0  0  0  0  0  0
    2.0069    4.8834   -3.6488 H   0  0  0  0  0  0  0  0  0  0  0  0
    0.4024    3.1301   -3.3148 H   0  0  0  0  0  0  0  0  0  0  0  0
  1  2  2  0
  2  3  1  0
  3  4  1  0
  4  5  2  0
  5  6  1  0
  6  7  2  0
  7  8  1  0
  7  9  1  0
  9 10  2  0
 10 11  1  0
 11 12  2  0
 12 13  1  0
 13 14  2  0
  2 15  1  0
 15 16  2  0
 16 17  1  0
 17 18  1  0
 18 19  1  0
 19 20  1  0
 20 21  2  0
 21 22  1  0
 22 23  2  0
 23 24  1  0
 24 25  2  0
 17 26  2  0
 26 27  1  0
 27 28  2  0
 28 29  1  0
 29 30  1  0
 30 31  1  0
 31 32  2  0
 32 33  1  0
 33 34  2  0
 34 35  1  0
 35 36  2  0
  8  4  1  0
 14  9  1  0
 28 15  1  0
 36 31  1  0
 25 20  1  0
  3 37  1  0
 10 38  1  0
 11 39  1  0
 12 40  1  0
 14 41  1  0
 16 42  1  0
 18 43  1  0
 18 44  1  0
 21 45  1  0
 22 46  1  0
 23 47  1  0
 24 48  1  0
 25 49  1  0
 26 50  1  0
 27 51  1  0
 30 52  1  0
 30 53  1  0
 32 54  1  0
 33 55  1  0
 34 56  1  0
 35 57  1  0
 36 58  1  0
M  END
$$$$
[H]c1c([H])c(-c2c(F)c([H])c([H])c([H])c2C(F)(F)F)c([H])c(N([H])C(=O)c2c([H])c([H])c(C([H])([H])[H])c(C(=O)N(C([H])([H])[H])C([H])([H])[H])c2[H])c1[H]
     RDKit          3D

 52 54  0  0  0  0  0  0  0  0999 V2000
   -4.8317    1.9950   -0.0218 C   0  0  0  0  0  0  0  0  0  0  0  0
   -5.4487    0.8250    0.5481 N   0  0  0  0  0  0  0  0  0  0  0  0
   -6.5188    0.9876    1.5046 C   0  0  0  0  0  0  0  0  0  0  0  0
   -5.0099   -0.4613    0.1749 C   0  0  0  0  0  0  0  0  0  0  0  0
   -5.5658   -1.4784    0.6928 O   0  0  0  0  0  0  0  0  0  0  0  0
   -3.9319   -0.5935   -0.7930 C   0  0  0  0  0  0  0  0  0  0  0  0
   -2.5968   -0.6165   -0.3575 C   0  0  0  0  0  0  0  0  0  0  0  0
   -1.6108   -0.7376   -1.2982 C   0  0  0  0  0  0  0  0  0  0  0  0
   -1.9502   -0.8331   -2.6418 C   0  0  0  0  0  0  0  0  0  0  0  0
   -3.2712   -0.8106   -3.0763 C   0  0  0  0  0  0  0  0  0  0  0  0
   -4.2579   -0.6889   -2.1241 C   0  0  0  0  0  0  0  0  0  0  0  0
   -5.6867   -0.6637   -2.5156 C   0  0  0  0  0  0  0  0  0  0  0  0
   -0.1933   -0.7752   -0.8884 C   0  0  0  0  0  0  0  0  0  0  0  0
    0.6272   -0.5533   -1.8117 O   0  0  0  0  0  0  0  0  0  0  0  0
    0.1937   -1.0405    0.4336 N   0  0  0  0  0  0  0  0  0  0  0  0
    1.5140   -1.0867    0.9110 C   0  0  0  0  0  0  0  0  0  0  0  0
    1.7230   -1.7497    2.1389 C   0  0  0  0  0  0  0  0  0  0  0  0
    2.9898   -1.8124    2.6708 C   0  0  0  0  0  0  0  0  0  0  0  0
    4.0741   -1.2532    2.0554 C   0  0  0  0  0  0  0  0  0  0  0  0
    3.8809   -0.6140    0.8748 C   0  0  0  0  0  0  0  0  0  0  0  0
    2.6239   -0.5322    0.3134 C   0  0  0  0  0  0  0  0  0  0  0  0
    5.0063   -0.0259    0.1814 C   0  0  0  0  0  0  0  0  0  0  0  0
    5.7749   -0.7913   -0.7073 C   0  0  0  0  0  0  0  0  0  0  0  0
    5.4197   -2.0814   -0.8990 F   0  0  0  0  0  0  0  0  0  0  0  0
    6.8578   -0.2731   -1.3746 C   0  0  0  0  0  0  0  0  0  0  0  0
    7.1877    1.0485   -1.1516 C   0  0  0  0  0  0  0  0  0  0  0  0
    6.4307    1.8047   -0.2756 C   0  0  0  0  0  0  0  0  0  0  0  0
    5.3264    1.2898    0.4099 C   0  0  0  0  0  0  0  0  0  0  0  0
    4.6065    2.1875    1.3062 C   0  0  0  0  0  0  0  0  0  0  0  0
    5.2186    3.4459    1.3113 F   0  0  0  0  0  0  0  0  0  0  0  0
    3.3112    2.4081    0.8177 F   0  0  0  0  0  0  0  0  0  0  0  0
    4.4772    1.7665    2.5985 F   0  0  0  0  0  0  0  0  0  0  0  0
   -3.7189    1.8956    0.0862 H   0  0  0  0  0  0  0  0  0  0  0  0
   -5.0668    2.0514   -1.0841 H   0  0  0  0  0  0  0  0  0  0  0  0
   -5.1547    2.9271    0.5089 H   0  0  0  0  0  0  0  0  0  0  0  0
   -6.4666    1.9738    2.0204 H   0  0  0  0  0  0  0  0  0  0  0  0
   -6.3806    0.2166    2.3181 H   0  0  0  0  0  0  0  0  0  0  0  0
   -7.5198    0.8169    1.0823 H   0  0  0  0  0  0  0  0  0  0  0  0
   -2.3778   -0.5357    0.6922 H   0  0  0  0  0  0  0  0  0  0  0  0
   -1.1419   -0.9297   -3.3818 H   0  0  0  0  0  0  0  0  0  0  0  0
   -3.5255   -0.8859   -4.1296 H   0  0  0  0  0  0  0  0  0  0  0  0
   -5.7793   -0.1552   -3.4995 H   0  0  0  0  0  0  0  0  0  0  0  0
   -6.3083   -0.2228   -1.7345 H   0  0  0  0  0  0  0  0  0  0  0  0
   -6.0004   -1.7357   -2.6090 H   0  0  0  0  0  0  0  0  0  0  0  0
   -0.5836   -1.2219    1.1438 H   0  0  0  0  0  0  0  0  0  0  0  0
    0.8659   -2.2045    2.6450 H   0  0  0  0  0  0  0  0  0  0  0  0
    3.0943   -2.3386    3.6248 H   0  0  0  0  0  0  0  0  0  0  0  0
    5.0392   -1.3220    2.4970 H   0  0  0  0  0  0  0  0  0  0  0  0
    2.5001    0.0074   -0.6435 H   0  0  0  0  0  0  0  0  0  0  0  0
    7.4016   -0.9223   -2.0427 H   0  0  0  0  0  0  0  0  0  0  0  0
    8.0430    1.4617   -1.6770 H   0  0  0  0  0  0  0  0  0  0  0  0
    6.7107    2.8377   -0.1188 H   0  0  0  0  0  0  0  0  0  0  0  0
  1  2  1  0
  2  3  1  0
  2  4  1  0
  4  5  2  0
  4  6  1  0
  6  7  2  0
  7  8  1  0
  8  9  2  0
  9 10  1  0
 10 11  2  0
 11 12  1  0
  8 13  1  0
 13 14  2  0
 13 15  1  0
 15 16  1  0
 16 17  2  0
 17 18  1  0
 18 19  2  0
 19 20  1  0
 20 21  2  0
 20 22  1  0
 22 23  2  0
 23 24  1  0
 23 25  1  0
 25 26  2  0
 26 27  1  0
 27 28  2  0
 28 29  1  0
 29 30  1  0
 29 31  1  0
 29 32  1  0
 11  6  1  0
 21 16  1  0
 28 22  1  0
  1 33  1  0
  1 34  1  0
  1 35  1  0
  3 36  1  0
  3 37  1  0
  3 38  1  0
  7 39  1  0
  9 40  1  0
 10 41  1  0
 12 42  1  0
 12 43  1  0
 12 44  1  0
 15 45  1  0
 17 46  1  0
 18 47  1  0
 19 48  1  0
 21 49  1  0
 25 50  1  0
 26 51  1  0
 27 52  1  0
M  END
$$$$
[H]c1c([H])c([H])c(N2C(=O)c3c(C([H])([H])[H])nn(C([H])([H])[H])c3C2=O)c([H])c1[H]
     RDKit          3D

 29 31  0  0  0  0  0  0  0  0999 V2000
   -3.3789   -2.6498   -0.2650 C   0  0  0  0  0  0  0  0  0  0  0  0
   -2.9199   -1.2377   -0.0902 C   0  0  0  0  0  0  0  0  0  0  0  0
   -3.7131   -0.1603    0.0985 N   0  0  0  0  0  0  0  0  0  0  0  0
   -2.9840    0.9359    0.2182 N   0  0  0  0  0  0  0  0  0  0  0  0
   -3.4049    2.3109    0.4318 C   0  0  0  0  0  0  0  0  0  0  0  0
   -1.6733    0.5782    0.1061 C   0  0  0  0  0  0  0  0  0  0  0  0
   -0.2951    1.0423    0.1064 C   0  0  0  0  0  0  0  0  0  0  0  0
    0.0476    2.2378    0.2581 O   0  0  0  0  0  0  0  0  0  0  0  0
    0.6170   -0.0486   -0.0893 N   0  0  0  0  0  0  0  0  0  0  0  0
   -0.2177   -1.1936   -0.2108 C   0  0  0  0  0  0  0  0  0  0  0  0
    0.2211   -2.3517   -0.3938 O   0  0  0  0  0  0  0  0  0  0  0  0
   -1.6183   -0.7861   -0.0879 C   0  0  0  0  0  0  0  0  0  0  0  0
    2.0347    0.0644   -0.1348 C   0  0  0  0  0  0  0  0  0  0  0  0
    2.8491   -0.7114    0.6582 C   0  0  0  0  0  0  0  0  0  0  0  0
    4.2280   -0.6295    0.6530 C   0  0  0  0  0  0  0  0  0  0  0  0
    4.8167    0.2816   -0.1956 C   0  0  0  0  0  0  0  0  0  0  0  0
    4.0462    1.0814   -1.0094 C   0  0  0  0  0  0  0  0  0  0  0  0
    2.6718    0.9739   -0.9794 C   0  0  0  0  0  0  0  0  0  0  0  0
   -2.6636   -3.2857    0.2939 H   0  0  0  0  0  0  0  0  0  0  0  0
   -4.4160   -2.7285    0.1775 H   0  0  0  0  0  0  0  0  0  0  0  0
   -3.4020   -2.8549   -1.3519 H   0  0  0  0  0  0  0  0  0  0  0  0
   -2.8253    2.7642    1.2601 H   0  0  0  0  0  0  0  0  0  0  0  0
   -4.4698    2.3998    0.6295 H   0  0  0  0  0  0  0  0  0  0  0  0
   -3.1864    2.9455   -0.4721 H   0  0  0  0  0  0  0  0  0  0  0  0
    2.3985   -1.4437    1.3405 H   0  0  0  0  0  0  0  0  0  0  0  0
    4.8178   -1.2831    1.3147 H   0  0  0  0  0  0  0  0  0  0  0  0
    5.8957    0.3688   -0.2221 H   0  0  0  0  0  0  0  0  0  0  0  0
    4.5076    1.8003   -1.6781 H   0  0  0  0  0  0  0  0  0  0  0  0
    2.0166    1.5794   -1.5970 H   0  0  0  0  0  0  0  0  0  0  0  0
  1  2  1  0
  2  3  2  0
  3  4  1  0
  4  5  1  0
  4  6  1  0
  6  7  1  0
  7  8  2  0
  7  9  1  0
  9 10  1  0
 10 11  2  0
 10 12  1  0
  9 13  1  0
 13 14  2  0
 14 15  1  0
 15 16  2  0
 16 17  1  0
 17 18  2  0
 12  2  1  0
 18 13  1  0
 12  6  2  0
  1 19  1  0
  1 20  1  0
  1 21  1  0
  5 22  1  0
  5 23  1  0
  5 24  1  0
 14 25  1  0
 15 26  1  0
 16 27  1  0
 17 28  1  0
 18 29  1  0
M  END
$$$$
[H]c1c([H])c([H])c(Oc2c([H])c([H])c(C([H])([H])C([H])(C(=O)N3C([H])([H])C([H])([H])C([H])([H])C([H])([H])C([H])([H])C3([H])[H])C(=O)N([H])S(=O)(=O)c3c([H])c([H])c(Cl)c([H])c3[H])c([H])c2[H])c([H])c1[H]
     RDKit          3D

 66 69  0  0  0  0  0  0  0  0999 V2000
   -6.7499    6.3514    0.6190 Cl  0  0  0  0  0  0  0  0  0  0  0  0
   -5.3410    5.3172    0.8683 C   0  0  0  0  0  0  0  0  0  0  0  0
   -5.4508    4.1553    1.5910 C   0  0  0  0  0  0  0  0  0  0  0  0
   -4.3675    3.3444    1.7933 C   0  0  0  0  0  0  0  0  0  0  0  0
   -3.1424    3.6848    1.2709 C   0  0  0  0  0  0  0  0  0  0  0  0
   -3.0041    4.8447    0.5419 C   0  0  0  0  0  0  0  0  0  0  0  0
   -4.1039    5.6500    0.3473 C   0  0  0  0  0  0  0  0  0  0  0  0
   -1.7700    2.6417    1.5387 S   0  0  0  0  0  0  0  0  0  0  0  0
   -1.9804    1.9497    2.8496 O   0  0  0  0  0  0  0  0  0  0  0  0
   -0.5390    3.4891    1.5548 O   0  0  0  0  0  0  0  0  0  0  0  0
   -1.6385    1.4738    0.2763 N   0  0  0  0  0  0  0  0  0  0  0  0
   -0.8248    0.3089    0.4275 C   0  0  0  0  0  0  0  0  0  0  0  0
   -0.2168    0.1587    1.4886 O   0  0  0  0  0  0  0  0  0  0  0  0
   -0.7839   -0.6331   -0.7262 C   0  0  0  0  0  0  0  0  0  0  0  0
   -0.1013   -0.0220   -1.8654 C   0  0  0  0  0  0  0  0  0  0  0  0
    1.2764    0.3913   -1.7920 C   0  0  0  0  0  0  0  0  0  0  0  0
    1.6839    1.5888   -1.2722 C   0  0  0  0  0  0  0  0  0  0  0  0
    3.0275    1.9813   -1.2317 C   0  0  0  0  0  0  0  0  0  0  0  0
    3.9771    1.1506   -1.7249 C   0  0  0  0  0  0  0  0  0  0  0  0
    5.3262    1.5530   -1.6790 O   0  0  0  0  0  0  0  0  0  0  0  0
    6.1128    1.2112   -0.5887 C   0  0  0  0  0  0  0  0  0  0  0  0
    5.6610    0.4956    0.4817 C   0  0  0  0  0  0  0  0  0  0  0  0
    6.4723    0.1713    1.5543 C   0  0  0  0  0  0  0  0  0  0  0  0
    7.8000    0.5742    1.5721 C   0  0  0  0  0  0  0  0  0  0  0  0
    8.2795    1.3029    0.4939 C   0  0  0  0  0  0  0  0  0  0  0  0
    7.4432    1.6103   -0.5614 C   0  0  0  0  0  0  0  0  0  0  0  0
    3.6291   -0.0542   -2.2558 C   0  0  0  0  0  0  0  0  0  0  0  0
    2.2778   -0.4180   -2.2822 C   0  0  0  0  0  0  0  0  0  0  0  0
   -0.4378   -1.9969   -0.3291 C   0  0  0  0  0  0  0  0  0  0  0  0
    0.6835   -2.4890   -0.6040 O   0  0  0  0  0  0  0  0  0  0  0  0
   -1.3255   -2.8484    0.3856 N   0  0  0  0  0  0  0  0  0  0  0  0
   -0.7729   -4.1713    0.7119 C   0  0  0  0  0  0  0  0  0  0  0  0
   -1.8359   -5.2278    0.6780 C   0  0  0  0  0  0  0  0  0  0  0  0
   -2.7505   -5.1330   -0.5016 C   0  0  0  0  0  0  0  0  0  0  0  0
   -3.9632   -4.2509   -0.2110 C   0  0  0  0  0  0  0  0  0  0  0  0
   -3.5476   -2.8122   -0.4498 C   0  0  0  0  0  0  0  0  0  0  0  0
   -2.6499   -2.4142    0.7292 C   0  0  0  0  0  0  0  0  0  0  0  0
   -6.4010    3.8680    2.0097 H   0  0  0  0  0  0  0  0  0  0  0  0
   -4.4686    2.4283    2.3672 H   0  0  0  0  0  0  0  0  0  0  0  0
   -2.0412    5.1344    0.1178 H   0  0  0  0  0  0  0  0  0  0  0  0
   -4.0368    6.5701   -0.2192 H   0  0  0  0  0  0  0  0  0  0  0  0
   -2.1777    1.6598   -0.5955 H   0  0  0  0  0  0  0  0  0  0  0  0
   -1.8857   -0.6999   -1.0304 H   0  0  0  0  0  0  0  0  0  0  0  0
   -0.7139    0.8632   -2.1960 H   0  0  0  0  0  0  0  0  0  0  0  0
   -0.2230   -0.7317   -2.7491 H   0  0  0  0  0  0  0  0  0  0  0  0
    0.9878    2.2784   -0.8782 H   0  0  0  0  0  0  0  0  0  0  0  0
    3.2947    2.9513   -0.8026 H   0  0  0  0  0  0  0  0  0  0  0  0
    4.6353    0.1683    0.4988 H   0  0  0  0  0  0  0  0  0  0  0  0
    6.1289   -0.3969    2.4117 H   0  0  0  0  0  0  0  0  0  0  0  0
    8.4336    0.3200    2.4099 H   0  0  0  0  0  0  0  0  0  0  0  0
    9.3167    1.6181    0.5074 H   0  0  0  0  0  0  0  0  0  0  0  0
    7.8466    2.1844   -1.3955 H   0  0  0  0  0  0  0  0  0  0  0  0
    4.4077   -0.6942   -2.6414 H   0  0  0  0  0  0  0  0  0  0  0  0
    2.1028   -1.3795   -2.7372 H   0  0  0  0  0  0  0  0  0  0  0  0
   -0.4499   -4.0761    1.7883 H   0  0  0  0  0  0  0  0  0  0  0  0
    0.0943   -4.4221    0.0927 H   0  0  0  0  0  0  0  0  0  0  0  0
   -1.3313   -6.2171    0.6668 H   0  0  0  0  0  0  0  0  0  0  0  0
   -2.4143   -5.1724    1.6213 H   0  0  0  0  0  0  0  0  0  0  0  0
   -2.2055   -4.7874   -1.3986 H   0  0  0  0  0  0  0  0  0  0  0  0
   -3.1484   -6.1561   -0.6893 H   0  0  0  0  0  0  0  0  0  0  0  0
   -4.2400   -4.3492    0.8484 H   0  0  0  0  0  0  0  0  0  0  0  0
   -4.7711   -4.5678   -0.9106 H   0  0  0  0  0  0  0  0  0  0  0  0
   -4.3815   -2.1259   -0.5938 H   0  0  0  0  0  0  0  0  0  0  0  0
   -2.9282   -2.8329   -1.3829 H   0  0  0  0  0  0  0  0  0  0  0  0
   -3.0150   -2.9932    1.6294 H   0  0  0  0  0  0  0  0  0  0  0  0
   -2.7678   -1.3711    0.9989 H   0  0  0  0  0  0  0  0  0  0  0  0
  1  2  1  0
  2  3  2  0
  3  4  1  0
  4  5  2  0
  5  6  1  0
  6  7  2  0
  5  8  1  0
  8  9  2  0
  8 10  2  0
  8 11  1  0
 11 12  1  0
 12 13  2  0
 12 14  1  0
 14 15  1  0
 15 16  1  0
 16 17  2  0
 17 18  1  0
 18 19  2  0
 19 20  1  0
 20 21  1  0
 21 22  2  0
 22 23  1  0
 23 24  2  0
 24 25  1  0
 25 26  2  0
 19 27  1  0
 27 28  2  0
 14 29  1  0
 29 30  2  0
 29 31  1  0
 31 32  1  0
 32 33  1  0
 33 34  1  0
 34 35  1  0
 35 36  1  0
 36 37  1  0
  7  2  1  0
 28 16  1  0
 37 31  1  0
 26 21  1  0
  3 38  1  0
  4 39  1  0
  6 40  1  0
  7 41  1  0
 11 42  1  0
 14 43  1  0
 15 44  1  0
 15 45  1  0
 17 46  1  0
 18 47  1  0
 22 48  1  0
 23 49  1  0
 24 50  1  0
 25 51  1  0
 26 52  1  0
 27 53  1  0
 28 54  1  0
 32 55  1  0
 32 56  1  0
 33 57  1  0
 33 58  1  0
 34 59  1  0
 34 60  1  0
 35 61  1  0
 35 62  1  0
 36 63  1  0
 36 64  1  0
 37 65  1  0
 37 66  1  0
M  END
$$$$
[H]c1nc([H])c2c(c1[H])C([H])([H])C([H])(C(F)(F)F)C([H])([H])C([H])([H])N2S(=O)(=O)c1c(Cl)c([H])c(Cl)c([H])c1N1C([H])([H])N(C([H])([H])[H])C([H])([H])C1([H])[H]
     RDKit          3D

 53 56  0  0  0  0  0  0  0  0999 V2000
   -3.6644   -2.5438    0.6296 C   0  0  0  0  0  0  0  0  0  0  0  0
   -4.0936   -1.1782    0.5714 N   0  0  0  0  0  0  0  0  0  0  0  0
   -3.6658   -0.4992    1.7633 C   0  0  0  0  0  0  0  0  0  0  0  0
   -2.3605    0.1488    1.3228 C   0  0  0  0  0  0  0  0  0  0  0  0
   -2.6736    0.5417   -0.0255 N   0  0  0  0  0  0  0  0  0  0  0  0
   -3.5253   -0.4731   -0.5706 C   0  0  0  0  0  0  0  0  0  0  0  0
   -2.2499    1.7330   -0.6829 C   0  0  0  0  0  0  0  0  0  0  0  0
   -3.1073    2.8241   -0.4243 C   0  0  0  0  0  0  0  0  0  0  0  0
   -2.8029    4.0439   -0.9407 C   0  0  0  0  0  0  0  0  0  0  0  0
   -3.8551    5.4201   -0.6325 Cl  0  0  0  0  0  0  0  0  0  0  0  0
   -1.6744    4.2266   -1.7091 C   0  0  0  0  0  0  0  0  0  0  0  0
   -0.8563    3.1504   -1.9483 C   0  0  0  0  0  0  0  0  0  0  0  0
    0.5437    3.4923   -2.9623 Cl  0  0  0  0  0  0  0  0  0  0  0  0
   -1.1247    1.8701   -1.4392 C   0  0  0  0  0  0  0  0  0  0  0  0
   -0.0240    0.6245   -1.8845 S   0  0  0  0  0  0  0  0  0  0  0  0
    0.7269    1.2321   -3.1329 O   0  0  0  0  0  0  0  0  0  0  0  0
   -0.6710   -0.5114   -2.6840 O   0  0  0  0  0  0  0  0  0  0  0  0
    1.2843    0.2171   -0.9183 N   0  0  0  0  0  0  0  0  0  0  0  0
    2.2971    1.2486   -0.6008 C   0  0  0  0  0  0  0  0  0  0  0  0
    2.9097    0.9015    0.7312 C   0  0  0  0  0  0  0  0  0  0  0  0
    4.1200    0.0575    0.6566 C   0  0  0  0  0  0  0  0  0  0  0  0
    4.0204   -1.1785   -0.1421 C   0  0  0  0  0  0  0  0  0  0  0  0
    2.6812   -1.7947   -0.2010 C   0  0  0  0  0  0  0  0  0  0  0  0
    2.6216   -3.1271    0.0960 C   0  0  0  0  0  0  0  0  0  0  0  0
    1.4273   -3.8054    0.0714 C   0  0  0  0  0  0  0  0  0  0  0  0
    0.3052   -3.1606   -0.2454 N   0  0  0  0  0  0  0  0  0  0  0  0
    0.3265   -1.8645   -0.5390 C   0  0  0  0  0  0  0  0  0  0  0  0
    1.4844   -1.1244   -0.5357 C   0  0  0  0  0  0  0  0  0  0  0  0
    4.5065   -0.3280    2.0834 C   0  0  0  0  0  0  0  0  0  0  0  0
    3.4214   -1.0289    2.6187 F   0  0  0  0  0  0  0  0  0  0  0  0
    4.6581    0.8166    2.8156 F   0  0  0  0  0  0  0  0  0  0  0  0
    5.6072   -1.1231    2.1239 F   0  0  0  0  0  0  0  0  0  0  0  0
   -2.5679   -2.5995    0.6046 H   0  0  0  0  0  0  0  0  0  0  0  0
   -4.1253   -3.0976   -0.2303 H   0  0  0  0  0  0  0  0  0  0  0  0
   -3.9834   -2.9716    1.6021 H   0  0  0  0  0  0  0  0  0  0  0  0
   -4.4203    0.2472    2.0305 H   0  0  0  0  0  0  0  0  0  0  0  0
   -3.4587   -1.2126    2.5943 H   0  0  0  0  0  0  0  0  0  0  0  0
   -1.5780   -0.5943    1.4090 H   0  0  0  0  0  0  0  0  0  0  0  0
   -2.1968    1.0236    1.9928 H   0  0  0  0  0  0  0  0  0  0  0  0
   -4.4005   -0.0513   -1.1244 H   0  0  0  0  0  0  0  0  0  0  0  0
   -3.0548   -1.1966   -1.2335 H   0  0  0  0  0  0  0  0  0  0  0  0
   -4.0149    2.6782    0.1926 H   0  0  0  0  0  0  0  0  0  0  0  0
   -1.4591    5.2289   -2.1101 H   0  0  0  0  0  0  0  0  0  0  0  0
    3.0366    1.3443   -1.3973 H   0  0  0  0  0  0  0  0  0  0  0  0
    1.8191    2.2310   -0.4476 H   0  0  0  0  0  0  0  0  0  0  0  0
    3.1785    1.8312    1.3050 H   0  0  0  0  0  0  0  0  0  0  0  0
    2.1417    0.3976    1.3884 H   0  0  0  0  0  0  0  0  0  0  0  0
    4.9691    0.6717    0.2775 H   0  0  0  0  0  0  0  0  0  0  0  0
    4.3932   -0.9518   -1.1828 H   0  0  0  0  0  0  0  0  0  0  0  0
    4.7345   -1.9477    0.2649 H   0  0  0  0  0  0  0  0  0  0  0  0
    3.5533   -3.6536    0.3576 H   0  0  0  0  0  0  0  0  0  0  0  0
    1.3916   -4.8877    0.3139 H   0  0  0  0  0  0  0  0  0  0  0  0
   -0.5507   -1.2972   -0.7682 H   0  0  0  0  0  0  0  0  0  0  0  0
  1  2  1  0
  2  3  1  0
  3  4  1  0
  4  5  1  0
  5  6  1  0
  5  7  1  0
  7  8  2  0
  8  9  1  0
  9 10  1  0
  9 11  2  0
 11 12  1  0
 12 13  1  0
 12 14  2  0
 14 15  1  0
 15 16  2  0
 15 17  2  0
 15 18  1  0
 18 19  1  0
 19 20  1  0
 20 21  1  0
 21 22  1  0
 22 23  1  0
 23 24  2  0
 24 25  1  0
 25 26  2  0
 26 27  1  0
 27 28  2  0
 21 29  1  0
 29 30  1  0
 29 31  1  0
 29 32  1  0
  6  2  1  0
 14  7  1  0
 28 18  1  0
 28 23  1  0
  1 33  1  0
  1 34  1  0
  1 35  1  0
  3 36  1  0
  3 37  1  0
  4 38  1  0
  4 39  1  0
  6 40  1  0
  6 41  1  0
  8 42  1  0
 11 43  1  0
 19 44  1  0
 19 45  1  0
 20 46  1  0
 20 47  1  0
 21 48  1  0
 22 49  1  0
 22 50  1  0
 24 51  1  0
 25 52  1  0
 27 53  1  0
M  END
$$$$
[H]OC(O[H])(c1c([H])c([H])c([H])c([H])c1[H])C([H])([H])N([H])C(=O)N(C([H])([H])[H])C([H])([H])c1c([H])c([H])c([H])c([H])c1[H]
     RDKit          3D

 42 43  0  0  0  0  0  0  0  0999 V2000
    2.1082   -1.8170    1.3870 C   0  0  0  0  0  0  0  0  0  0  0  0
    1.9143   -0.4017    1.3752 N   0  0  0  0  0  0  0  0  0  0  0  0
    3.0369    0.4365    1.7313 C   0  0  0  0  0  0  0  0  0  0  0  0
    4.0032    0.5421    0.5976 C   0  0  0  0  0  0  0  0  0  0  0  0
    5.2034   -0.1802    0.6477 C   0  0  0  0  0  0  0  0  0  0  0  0
    6.1154   -0.1474   -0.3823 C   0  0  0  0  0  0  0  0  0  0  0  0
    5.8928    0.6010   -1.5198 C   0  0  0  0  0  0  0  0  0  0  0  0
    4.7158    1.3123   -1.5758 C   0  0  0  0  0  0  0  0  0  0  0  0
    3.7883    1.2819   -0.5316 C   0  0  0  0  0  0  0  0  0  0  0  0
    0.6938    0.1757    1.0057 C   0  0  0  0  0  0  0  0  0  0  0  0
    0.5564    1.4673    1.0526 O   0  0  0  0  0  0  0  0  0  0  0  0
   -0.4131   -0.5741    0.5803 N   0  0  0  0  0  0  0  0  0  0  0  0
   -1.6597    0.1101    0.2387 C   0  0  0  0  0  0  0  0  0  0  0  0
   -2.6973   -0.8832   -0.2245 C   0  0  0  0  0  0  0  0  0  0  0  0
   -2.8507   -1.8278    0.8302 O   0  0  0  0  0  0  0  0  0  0  0  0
   -2.3464   -1.5306   -1.4022 O   0  0  0  0  0  0  0  0  0  0  0  0
   -3.9706   -0.1425   -0.3415 C   0  0  0  0  0  0  0  0  0  0  0  0
   -5.0695   -0.5832    0.3525 C   0  0  0  0  0  0  0  0  0  0  0  0
   -6.2755    0.1117    0.2637 C   0  0  0  0  0  0  0  0  0  0  0  0
   -6.3464    1.2459   -0.5315 C   0  0  0  0  0  0  0  0  0  0  0  0
   -5.2479    1.7015   -1.2368 C   0  0  0  0  0  0  0  0  0  0  0  0
   -4.0529    0.9761   -1.1225 C   0  0  0  0  0  0  0  0  0  0  0  0
    2.3516   -2.1336    2.4452 H   0  0  0  0  0  0  0  0  0  0  0  0
    1.2927   -2.4331    1.0308 H   0  0  0  0  0  0  0  0  0  0  0  0
    3.0715   -2.0902    0.8442 H   0  0  0  0  0  0  0  0  0  0  0  0
    2.6235    1.4369    2.0075 H   0  0  0  0  0  0  0  0  0  0  0  0
    3.5608    0.0959    2.6445 H   0  0  0  0  0  0  0  0  0  0  0  0
    5.3579   -0.7650    1.5578 H   0  0  0  0  0  0  0  0  0  0  0  0
    7.0358   -0.7172   -0.3277 H   0  0  0  0  0  0  0  0  0  0  0  0
    6.6090    0.6268   -2.3407 H   0  0  0  0  0  0  0  0  0  0  0  0
    4.5340    1.9022   -2.4739 H   0  0  0  0  0  0  0  0  0  0  0  0
    2.8771    1.8577   -0.6205 H   0  0  0  0  0  0  0  0  0  0  0  0
   -0.3569   -1.5908    0.5076 H   0  0  0  0  0  0  0  0  0  0  0  0
   -1.4276    0.7582   -0.6153 H   0  0  0  0  0  0  0  0  0  0  0  0
   -2.0695    0.7046    1.0487 H   0  0  0  0  0  0  0  0  0  0  0  0
   -2.6813   -2.7257    0.4447 H   0  0  0  0  0  0  0  0  0  0  0  0
   -1.9681   -0.8322   -2.0175 H   0  0  0  0  0  0  0  0  0  0  0  0
   -4.9973   -1.4673    0.9678 H   0  0  0  0  0  0  0  0  0  0  0  0
   -7.1545   -0.2065    0.7952 H   0  0  0  0  0  0  0  0  0  0  0  0
   -7.2876    1.8066   -0.6217 H   0  0  0  0  0  0  0  0  0  0  0  0
   -5.2844    2.5765   -1.8586 H   0  0  0  0  0  0  0  0  0  0  0  0
   -3.1853    1.3218   -1.6737 H   0  0  0  0  0  0  0  0  0  0  0  0
  1  2  1  0
  2  3  1  0
  3  4  1  0
  4  5  2  0
  5  6  1  0
  6  7  2  0
  7  8  1  0
  8  9  2  0
  2 10  1  0
 10 11  2  0
 10 12  1  0
 12 13  1  0
 13 14  1  0
 14 15  1  0
 14 16  1  0
 14 17  1  0
 17 18  2  0
 18 19  1  0
 19 20  2  0
 20 21  1  0
 21 22  2  0
  9  4  1  0
 22 17  1  0
  1 23  1  0
  1 24  1  0
  1 25  1  0
  3 26  1  0
  3 27  1  0
  5 28  1  0
  6 29  1  0
  7 30  1  0
  8 31  1  0
  9 32  1  0
 12 33  1  0
 13 34  1  0
 13 35  1  0
 15 36  1  0
 16 37  1  0
 18 38  1  0
 19 39  1  0
 20 40  1  0
 21 41  1  0
 22 42  1  0
M  END
$$$$
[H]c1c([H])c(C([H])([H])N2C([H])([H])C([H])([H])N(S(=O)(=O)C([H])([H])[H])C([H])([H])C2([H])[H])c([H])c([H])c1[N+](=O)[O-]
     RDKit          3D

 37 38  0  0  0  0  0  0  0  0999 V2000
    4.0379   -1.8123    0.7340 C   0  0  0  0  0  0  0  0  0  0  0  0
    4.3520   -0.5025   -0.3991 S   0  0  0  0  0  0  0  0  0  0  0  0
    4.8887   -0.9793   -1.7144 O   0  0  0  0  0  0  0  0  0  0  0  0
    5.4410    0.3747    0.2046 O   0  0  0  0  0  0  0  0  0  0  0  0
    2.9960    0.5081   -0.6651 N   0  0  0  0  0  0  0  0  0  0  0  0
    2.5500    1.1717    0.5400 C   0  0  0  0  0  0  0  0  0  0  0  0
    1.3466    1.9976    0.1787 C   0  0  0  0  0  0  0  0  0  0  0  0
    0.2333    1.1881   -0.3155 N   0  0  0  0  0  0  0  0  0  0  0  0
   -0.8154    1.3209    0.6572 C   0  0  0  0  0  0  0  0  0  0  0  0
   -2.0659    0.6216    0.3569 C   0  0  0  0  0  0  0  0  0  0  0  0
   -2.4804    0.2957   -0.9159 C   0  0  0  0  0  0  0  0  0  0  0  0
   -3.6824   -0.3750   -1.1401 C   0  0  0  0  0  0  0  0  0  0  0  0
   -4.5043   -0.7387   -0.0953 C   0  0  0  0  0  0  0  0  0  0  0  0
   -4.0987   -0.4173    1.1822 C   0  0  0  0  0  0  0  0  0  0  0  0
   -2.9086    0.2463    1.3990 C   0  0  0  0  0  0  0  0  0  0  0  0
   -5.7358   -1.4237   -0.3026 N   0  0  0  0  0  0  0  0  0  0  0  0
   -6.1681   -1.7585   -1.5628 O   0  0  0  0  0  0  0  0  0  0  0  0
   -6.4462   -1.7321    0.6694 O   0  0  0  0  0  0  0  0  0  0  0  0
    0.6854   -0.1795   -0.4719 C   0  0  0  0  0  0  0  0  0  0  0  0
    1.9236   -0.1269   -1.3778 C   0  0  0  0  0  0  0  0  0  0  0  0
    4.4153   -2.7670    0.2795 H   0  0  0  0  0  0  0  0  0  0  0  0
    2.9684   -1.9573    0.9340 H   0  0  0  0  0  0  0  0  0  0  0  0
    4.6038   -1.7078    1.6933 H   0  0  0  0  0  0  0  0  0  0  0  0
    3.3544    1.9005    0.8088 H   0  0  0  0  0  0  0  0  0  0  0  0
    2.3818    0.4487    1.3403 H   0  0  0  0  0  0  0  0  0  0  0  0
    1.6683    2.6554   -0.6805 H   0  0  0  0  0  0  0  0  0  0  0  0
    1.0319    2.6986    0.9750 H   0  0  0  0  0  0  0  0  0  0  0  0
   -0.4206    0.9401    1.6285 H   0  0  0  0  0  0  0  0  0  0  0  0
   -0.9753    2.4145    0.8175 H   0  0  0  0  0  0  0  0  0  0  0  0
   -1.8627    0.5671   -1.7642 H   0  0  0  0  0  0  0  0  0  0  0  0
   -4.0084   -0.6310   -2.1378 H   0  0  0  0  0  0  0  0  0  0  0  0
   -4.7665   -0.7160    1.9926 H   0  0  0  0  0  0  0  0  0  0  0  0
   -2.5999    0.4950    2.4214 H   0  0  0  0  0  0  0  0  0  0  0  0
    0.9138   -0.6793    0.4809 H   0  0  0  0  0  0  0  0  0  0  0  0
   -0.0470   -0.7829   -1.0050 H   0  0  0  0  0  0  0  0  0  0  0  0
    1.6391    0.5483   -2.2254 H   0  0  0  0  0  0  0  0  0  0  0  0
    2.1549   -1.1055   -1.7910 H   0  0  0  0  0  0  0  0  0  0  0  0
  1  2  1  0
  2  3  2  0
  2  4  2  0
  2  5  1  0
  5  6  1  0
  6  7  1  0
  7  8  1  0
  8  9  1  0
  9 10  1  0
 10 11  2  0
 11 12  1  0
 12 13  2  0
 13 14  1  0
 14 15  2  0
 13 16  1  0
 16 17  1  0
 16 18  2  0
  8 19  1  0
 19 20  1  0
 20  5  1  0
 15 10  1  0
  1 21  1  0
  1 22  1  0
  1 23  1  0
  6 24  1  0
  6 25  1  0
  7 26  1  0
  7 27  1  0
  9 28  1  0
  9 29  1  0
 11 30  1  0
 12 31  1  0
 14 32  1  0
 15 33  1  0
 19 34  1  0
 19 35  1  0
 20 36  1  0
 20 37  1  0
M  CHG  2  16   1  17  -1
M  END
$$$$
[H]c1nc2nc(N([H])C([H])([H])[H])oc2c([H])c1C(=O)N([H])C([H])([H])c1c([H])c([H])c(C([H])([H])[H])c(C(=O)N2Oc3c(N([H])[H])c([H])c([H])c([H])c3C([H])([H])C2([H])[H])c1[H]
     RDKit          3D

 59 63  0  0  0  0  0  0  0  0999 V2000
   11.0306   -0.5441   -1.6436 C   0  0  0  0  0  0  0  0  0  0  0  0
    9.8165   -1.2949   -1.6964 N   0  0  0  0  0  0  0  0  0  0  0  0
    8.6733   -0.8776   -0.9332 C   0  0  0  0  0  0  0  0  0  0  0  0
    8.6160    0.2038   -0.1281 N   0  0  0  0  0  0  0  0  0  0  0  0
    7.3909    0.2789    0.4204 C   0  0  0  0  0  0  0  0  0  0  0  0
    6.7712    1.1214    1.2795 N   0  0  0  0  0  0  0  0  0  0  0  0
    5.4873    0.9243    1.6548 C   0  0  0  0  0  0  0  0  0  0  0  0
    4.7297   -0.1354    1.1940 C   0  0  0  0  0  0  0  0  0  0  0  0
    5.3534   -0.9974    0.3194 C   0  0  0  0  0  0  0  0  0  0  0  0
    6.6806   -0.7961   -0.0703 C   0  0  0  0  0  0  0  0  0  0  0  0
    7.4969   -1.4437   -0.8678 O   0  0  0  0  0  0  0  0  0  0  0  0
    3.3494   -0.2846    1.6351 C   0  0  0  0  0  0  0  0  0  0  0  0
    2.8514    0.5666    2.4210 O   0  0  0  0  0  0  0  0  0  0  0  0
    2.5136   -1.3556    1.2222 N   0  0  0  0  0  0  0  0  0  0  0  0
    1.1472   -1.4624    1.6832 C   0  0  0  0  0  0  0  0  0  0  0  0
    0.2976   -0.4747    0.9375 C   0  0  0  0  0  0  0  0  0  0  0  0
    0.7762    0.1785   -0.1761 C   0  0  0  0  0  0  0  0  0  0  0  0
   -0.0194    1.0999   -0.8566 C   0  0  0  0  0  0  0  0  0  0  0  0
   -1.2955    1.3657   -0.4193 C   0  0  0  0  0  0  0  0  0  0  0  0
   -2.1296    2.3552   -1.1599 C   0  0  0  0  0  0  0  0  0  0  0  0
   -1.7507    0.6990    0.6972 C   0  0  0  0  0  0  0  0  0  0  0  0
   -0.9687   -0.2158    1.3774 C   0  0  0  0  0  0  0  0  0  0  0  0
   -3.0913    0.9667    1.1773 C   0  0  0  0  0  0  0  0  0  0  0  0
   -3.2109    1.9005    2.0178 O   0  0  0  0  0  0  0  0  0  0  0  0
   -4.2312    0.2195    0.7306 N   0  0  0  0  0  0  0  0  0  0  0  0
   -4.1139   -0.8558   -0.2318 C   0  0  0  0  0  0  0  0  0  0  0  0
   -4.9600   -0.4824   -1.4177 C   0  0  0  0  0  0  0  0  0  0  0  0
   -6.3382   -0.1947   -0.9164 C   0  0  0  0  0  0  0  0  0  0  0  0
   -7.4160   -0.4148   -1.7795 C   0  0  0  0  0  0  0  0  0  0  0  0
   -8.6877   -0.1493   -1.3245 C   0  0  0  0  0  0  0  0  0  0  0  0
   -8.9215    0.3259   -0.0452 C   0  0  0  0  0  0  0  0  0  0  0  0
   -7.8577    0.5405    0.7995 C   0  0  0  0  0  0  0  0  0  0  0  0
   -8.0295    1.0260    2.1178 N   0  0  0  0  0  0  0  0  0  0  0  0
   -6.5989    0.2784    0.3517 C   0  0  0  0  0  0  0  0  0  0  0  0
   -5.4951    0.4888    1.1956 O   0  0  0  0  0  0  0  0  0  0  0  0
   11.5597   -0.6732   -2.6284 H   0  0  0  0  0  0  0  0  0  0  0  0
   11.7458   -0.8948   -0.8632 H   0  0  0  0  0  0  0  0  0  0  0  0
   10.7782    0.5390   -1.5137 H   0  0  0  0  0  0  0  0  0  0  0  0
    9.7469   -2.1468   -2.2852 H   0  0  0  0  0  0  0  0  0  0  0  0
    4.9930    1.6126    2.3523 H   0  0  0  0  0  0  0  0  0  0  0  0
    4.8170   -1.8445   -0.0767 H   0  0  0  0  0  0  0  0  0  0  0  0
    2.9114   -2.0680    0.5748 H   0  0  0  0  0  0  0  0  0  0  0  0
    1.1357   -1.2906    2.7699 H   0  0  0  0  0  0  0  0  0  0  0  0
    0.7531   -2.4653    1.4389 H   0  0  0  0  0  0  0  0  0  0  0  0
    1.7809   -0.0430   -0.5071 H   0  0  0  0  0  0  0  0  0  0  0  0
    0.3668    1.6074   -1.7305 H   0  0  0  0  0  0  0  0  0  0  0  0
   -2.3416    1.8908   -2.1538 H   0  0  0  0  0  0  0  0  0  0  0  0
   -3.0895    2.5308   -0.6807 H   0  0  0  0  0  0  0  0  0  0  0  0
   -1.6013    3.3162   -1.3106 H   0  0  0  0  0  0  0  0  0  0  0  0
   -1.3283   -0.7447    2.2612 H   0  0  0  0  0  0  0  0  0  0  0  0
   -3.0699   -1.0916   -0.4993 H   0  0  0  0  0  0  0  0  0  0  0  0
   -4.5643   -1.7862    0.2138 H   0  0  0  0  0  0  0  0  0  0  0  0
   -4.9782   -1.2779   -2.1918 H   0  0  0  0  0  0  0  0  0  0  0  0
   -4.5301    0.4489   -1.8647 H   0  0  0  0  0  0  0  0  0  0  0  0
   -7.2500   -0.7891   -2.7909 H   0  0  0  0  0  0  0  0  0  0  0  0
   -9.5270   -0.3135   -1.9772 H   0  0  0  0  0  0  0  0  0  0  0  0
   -9.9555    0.5249    0.2771 H   0  0  0  0  0  0  0  0  0  0  0  0
   -7.3546    1.6736    2.5714 H   0  0  0  0  0  0  0  0  0  0  0  0
   -8.8643    0.7245    2.6605 H   0  0  0  0  0  0  0  0  0  0  0  0
  1  2  1  0
  2  3  1  0
  3  4  2  0
  4  5  1  0
  5  6  2  0
  6  7  1  0
  7  8  2  0
  8  9  1  0
  9 10  2  0
 10 11  1  0
  8 12  1  0
 12 13  2  0
 12 14  1  0
 14 15  1  0
 15 16  1  0
 16 17  2  0
 17 18  1  0
 18 19  2  0
 19 20  1  0
 19 21  1  0
 21 22  2  0
 21 23  1  0
 23 24  2  0
 23 25  1  0
 25 26  1  0
 26 27  1  0
 27 28  1  0
 28 29  2  0
 29 30  1  0
 30 31  2  0
 31 32  1  0
 32 33  1  0
 32 34  2  0
 34 35  1  0
 11  3  1  0
 22 16  1  0
 35 25  1  0
 10  5  1  0
 34 28  1  0
  1 36  1  0
  1 37  1  0
  1 38  1  0
  2 39  1  0
  7 40  1  0
  9 41  1  0
 14 42  1  0
 15 43  1  0
 15 44  1  0
 17 45  1  0
 18 46  1  0
 20 47  1  0
 20 48  1  0
 20 49  1  0
 22 50  1  0
 26 51  1  0
 26 52  1  0
 27 53  1  0
 27 54  1  0
 29 55  1  0
 30 56  1  0
 31 57  1  0
 33 58  1  0
 33 59  1  0
M  END
$$$$
[H]OC(=O)c1c([H])nc(N([H])C([H])([H])[C@]([H])(O[H])c2c([H])c([H])c([H])c3c([H])c([H])c([H])c([H])c23)c2c([H])c(C(O[H])(C([H])([H])[H])C([H])([H])[H])c(-c3c([H])c([H])nc(N([H])C([H])(C([H])([H])[H])C([H])([H])[H])c3[H])c([H])c12
     RDKit          3D

 75 79  0  0  0  0  0  0  0  0999 V2000
    8.4676    0.6797    2.0186 C   0  0  0  0  0  0  0  0  0  0  0  0
    7.8933    1.6713    1.0520 C   0  0  0  0  0  0  0  0  0  0  0  0
    8.3394    3.0539    1.4626 C   0  0  0  0  0  0  0  0  0  0  0  0
    6.4435    1.5818    0.9716 N   0  0  0  0  0  0  0  0  0  0  0  0
    5.7932    0.3798    0.5647 C   0  0  0  0  0  0  0  0  0  0  0  0
    4.4098    0.2910    0.4869 C   0  0  0  0  0  0  0  0  0  0  0  0
    3.7819   -0.8614    0.0972 C   0  0  0  0  0  0  0  0  0  0  0  0
    4.5346   -1.9479   -0.2217 C   0  0  0  0  0  0  0  0  0  0  0  0
    5.9137   -1.8613   -0.1451 C   0  0  0  0  0  0  0  0  0  0  0  0
    6.5019   -0.7135    0.2415 N   0  0  0  0  0  0  0  0  0  0  0  0
    2.3341   -0.9250    0.0843 C   0  0  0  0  0  0  0  0  0  0  0  0
    1.6697   -1.1181    1.3143 C   0  0  0  0  0  0  0  0  0  0  0  0
    0.3080   -1.2123    1.4043 C   0  0  0  0  0  0  0  0  0  0  0  0
   -0.3223   -1.3889    2.6176 C   0  0  0  0  0  0  0  0  0  0  0  0
   -1.7306   -1.4576    2.6102 C   0  0  0  0  0  0  0  0  0  0  0  0
   -2.4341   -1.3605    1.4967 N   0  0  0  0  0  0  0  0  0  0  0  0
   -1.8091   -1.1868    0.2914 C   0  0  0  0  0  0  0  0  0  0  0  0
   -2.5719   -1.1306   -0.8940 N   0  0  0  0  0  0  0  0  0  0  0  0
   -4.0165   -1.1546   -0.9067 C   0  0  0  0  0  0  0  0  0  0  0  0
   -4.6910    0.1429   -0.6160 C   0  0  2  0  0  0  0  0  0  0  0  0
   -4.3476    0.5843    0.6544 O   0  0  0  0  0  0  0  0  0  0  0  0
   -6.1486   -0.0344   -0.6495 C   0  0  0  0  0  0  0  0  0  0  0  0
   -6.6812   -1.3081   -0.7709 C   0  0  0  0  0  0  0  0  0  0  0  0
   -8.0500   -1.4799   -0.7893 C   0  0  0  0  0  0  0  0  0  0  0  0
   -8.8992   -0.4048   -0.6889 C   0  0  0  0  0  0  0  0  0  0  0  0
   -8.3847    0.8769   -0.5672 C   0  0  0  0  0  0  0  0  0  0  0  0
   -9.2191    1.9754   -0.4692 C   0  0  0  0  0  0  0  0  0  0  0  0
   -8.6538    3.2245   -0.3553 C   0  0  0  0  0  0  0  0  0  0  0  0
   -7.2989    3.4323   -0.3345 C   0  0  0  0  0  0  0  0  0  0  0  0
   -6.4748    2.3201   -0.4337 C   0  0  0  0  0  0  0  0  0  0  0  0
   -6.9904    1.0404   -0.5497 C   0  0  0  0  0  0  0  0  0  0  0  0
   -0.4306   -1.1091    0.2196 C   0  0  0  0  0  0  0  0  0  0  0  0
    0.2315   -0.9198   -0.9755 C   0  0  0  0  0  0  0  0  0  0  0  0
    1.6288   -0.8217   -1.0835 C   0  0  0  0  0  0  0  0  0  0  0  0
    2.2433   -0.5943   -2.4121 C   0  0  0  0  0  0  0  0  0  0  0  0
    2.9251    0.7645   -2.5195 C   0  0  0  0  0  0  0  0  0  0  0  0
    1.1663   -0.5950   -3.5130 C   0  0  0  0  0  0  0  0  0  0  0  0
    3.1321   -1.5718   -2.8212 O   0  0  0  0  0  0  0  0  0  0  0  0
    0.3459   -1.5496    3.8761 C   0  0  0  0  0  0  0  0  0  0  0  0
    1.6601   -1.8058    4.0749 O   0  0  0  0  0  0  0  0  0  0  0  0
   -0.3549   -1.4483    4.9363 O   0  0  0  0  0  0  0  0  0  0  0  0
    8.7004   -0.2968    1.5473 H   0  0  0  0  0  0  0  0  0  0  0  0
    9.3729    1.1256    2.4777 H   0  0  0  0  0  0  0  0  0  0  0  0
    7.7433    0.5118    2.8570 H   0  0  0  0  0  0  0  0  0  0  0  0
    8.3286    1.4266    0.0441 H   0  0  0  0  0  0  0  0  0  0  0  0
    7.6160    3.4568    2.2090 H   0  0  0  0  0  0  0  0  0  0  0  0
    9.3188    3.0117    2.0074 H   0  0  0  0  0  0  0  0  0  0  0  0
    8.4282    3.7570    0.6354 H   0  0  0  0  0  0  0  0  0  0  0  0
    5.9070    2.4396    1.2261 H   0  0  0  0  0  0  0  0  0  0  0  0
    3.8435    1.1819    0.7505 H   0  0  0  0  0  0  0  0  0  0  0  0
    4.1216   -2.9204   -0.5333 H   0  0  0  0  0  0  0  0  0  0  0  0
    6.5304   -2.7072   -0.3926 H   0  0  0  0  0  0  0  0  0  0  0  0
    2.2984   -1.1742    2.1870 H   0  0  0  0  0  0  0  0  0  0  0  0
   -2.2836   -1.5953    3.5412 H   0  0  0  0  0  0  0  0  0  0  0  0
   -2.0999   -1.0738   -1.8147 H   0  0  0  0  0  0  0  0  0  0  0  0
   -4.3849   -1.6453   -1.8194 H   0  0  0  0  0  0  0  0  0  0  0  0
   -4.2942   -1.8490   -0.0520 H   0  0  0  0  0  0  0  0  0  0  0  0
   -4.3394    0.9631   -1.2905 H   0  0  0  0  0  0  0  0  0  0  0  0
   -5.0175    0.2388    1.2840 H   0  0  0  0  0  0  0  0  0  0  0  0
   -6.0848   -2.2092   -0.8579 H   0  0  0  0  0  0  0  0  0  0  0  0
   -8.4934   -2.4630   -0.8830 H   0  0  0  0  0  0  0  0  0  0  0  0
   -9.9750   -0.5158   -0.7007 H   0  0  0  0  0  0  0  0  0  0  0  0
  -10.2899    1.8125   -0.4856 H   0  0  0  0  0  0  0  0  0  0  0  0
   -9.3551    4.0691   -0.2799 H   0  0  0  0  0  0  0  0  0  0  0  0
   -6.8335    4.3955   -0.2469 H   0  0  0  0  0  0  0  0  0  0  0  0
   -5.3963    2.4231   -0.4291 H   0  0  0  0  0  0  0  0  0  0  0  0
   -0.3001   -0.8319   -1.9034 H   0  0  0  0  0  0  0  0  0  0  0  0
    2.6371    1.1940   -3.5030 H   0  0  0  0  0  0  0  0  0  0  0  0
    4.0291    0.6596   -2.5746 H   0  0  0  0  0  0  0  0  0  0  0  0
    2.5876    1.4720   -1.7589 H   0  0  0  0  0  0  0  0  0  0  0  0
    1.6712   -0.5881   -4.5153 H   0  0  0  0  0  0  0  0  0  0  0  0
    0.4582    0.2128   -3.3903 H   0  0  0  0  0  0  0  0  0  0  0  0
    0.6653   -1.5721   -3.4533 H   0  0  0  0  0  0  0  0  0  0  0  0
    2.6117   -2.3544   -3.1819 H   0  0  0  0  0  0  0  0  0  0  0  0
    2.0638   -2.6125    4.5409 H   0  0  0  0  0  0  0  0  0  0  0  0
  1  2  1  0
  2  3  1  0
  2  4  1  0
  4  5  1  0
  5  6  2  0
  6  7  1  0
  7  8  2  0
  8  9  1  0
  9 10  2  0
  7 11  1  0
 11 12  2  0
 12 13  1  0
 13 14  2  0
 14 15  1  0
 15 16  2  0
 16 17  1  0
 17 18  1  0
 18 19  1  0
 19 20  1  0
 20 21  1  0
 20 22  1  0
 22 23  2  0
 23 24  1  0
 24 25  2  0
 25 26  1  0
 26 27  2  0
 27 28  1  0
 28 29  2  0
 29 30  1  0
 30 31  2  0
 17 32  2  0
 32 33  1  0
 33 34  2  0
 34 35  1  0
 35 36  1  0
 35 37  1  0
 35 38  1  0
 14 39  1  0
 39 40  1  0
 39 41  2  0
 10  5  1  0
 34 11  1  0
 32 13  1  0
 31 22  1  0
 31 26  1  0
  1 42  1  0
  1 43  1  0
  1 44  1  0
  2 45  1  0
  3 46  1  0
  3 47  1  0
  3 48  1  0
  4 49  1  0
  6 50  1  0
  8 51  1  0
  9 52  1  0
 12 53  1  0
 15 54  1  0
 18 55  1  0
 19 56  1  0
 19 57  1  0
 20 58  1  6
 21 59  1  0
 23 60  1  0
 24 61  1  0
 25 62  1  0
 27 63  1  0
 28 64  1  0
 29 65  1  0
 30 66  1  0
 33 67  1  0
 36 68  1  0
 36 69  1  0
 36 70  1  0
 37 71  1  0
 37 72  1  0
 37 73  1  0
 38 74  1  0
 40 75  1  0
M  END
$$$$
[H]c1nc([H])c(N([H])c2nc(-c3c([H])c([H])c4c(c3[H])C([H])([H])C([H])([H])[C@@]([H])(N([H])c3c(C(=O)N([H])[H])nc([H])c5c([H])c(-c6c([H])c([H])c([H])c([H])c6F)c([H])c([H])c35)C([H])([H])[C@]4([H])N([H])[H])c([H])s2)c([H])c1[H]
     RDKit          3D

 75 81  0  0  0  0  0  0  0  0999 V2000
    0.0014    2.8788    0.4244 N   0  0  0  0  0  0  0  0  0  0  0  0
    0.8062    2.0359    1.2541 C   0  0  1  0  0  0  0  0  0  0  0  0
    0.0322    1.1052    2.1295 C   0  0  0  0  0  0  0  0  0  0  0  0
   -0.9930    0.2994    1.3542 C   0  0  2  0  0  0  0  0  0  0  0  0
   -2.0182   -0.1193    2.2828 N   0  0  0  0  0  0  0  0  0  0  0  0
   -3.0326   -1.0720    1.9850 C   0  0  0  0  0  0  0  0  0  0  0  0
   -2.8503   -2.3703    2.3810 C   0  0  0  0  0  0  0  0  0  0  0  0
   -3.8064   -3.2701    1.9905 N   0  0  0  0  0  0  0  0  0  0  0  0
   -4.8744   -2.9148    1.2606 C   0  0  0  0  0  0  0  0  0  0  0  0
   -5.0860   -1.6101    0.8506 C   0  0  0  0  0  0  0  0  0  0  0  0
   -6.2025   -1.2688    0.1104 C   0  0  0  0  0  0  0  0  0  0  0  0
   -6.4305    0.0371   -0.2932 C   0  0  0  0  0  0  0  0  0  0  0  0
   -5.4894    0.9679    0.0826 C   0  0  0  0  0  0  0  0  0  0  0  0
   -4.3581    0.6185    0.8329 C   0  0  0  0  0  0  0  0  0  0  0  0
   -4.1394   -0.6794    1.2271 C   0  0  0  0  0  0  0  0  0  0  0  0
   -7.6133    0.3797   -1.0708 C   0  0  0  0  0  0  0  0  0  0  0  0
   -8.8826   -0.0633   -0.7360 C   0  0  0  0  0  0  0  0  0  0  0  0
   -9.9945    0.2561   -1.4583 C   0  0  0  0  0  0  0  0  0  0  0  0
   -9.8608    1.0548   -2.5727 C   0  0  0  0  0  0  0  0  0  0  0  0
   -8.6090    1.5234   -2.9484 C   0  0  0  0  0  0  0  0  0  0  0  0
   -7.4916    1.1765   -2.1856 C   0  0  0  0  0  0  0  0  0  0  0  0
   -6.2617    1.6187   -2.5346 F   0  0  0  0  0  0  0  0  0  0  0  0
   -1.7827   -2.8422    3.2494 C   0  0  0  0  0  0  0  0  0  0  0  0
   -1.6443   -4.2306    3.5668 N   0  0  0  0  0  0  0  0  0  0  0  0
   -0.9304   -2.0864    3.7677 O   0  0  0  0  0  0  0  0  0  0  0  0
   -0.4330   -0.8380    0.5778 C   0  0  0  0  0  0  0  0  0  0  0  0
    0.2288   -0.3895   -0.7177 C   0  0  0  0  0  0  0  0  0  0  0  0
    1.5501    0.2204   -0.3912 C   0  0  0  0  0  0  0  0  0  0  0  0
    2.5935   -0.3927   -1.0612 C   0  0  0  0  0  0  0  0  0  0  0  0
    3.8928    0.0140   -0.9032 C   0  0  0  0  0  0  0  0  0  0  0  0
    4.1126    1.0645   -0.0438 C   0  0  0  0  0  0  0  0  0  0  0  0
    3.0962    1.6938    0.6360 C   0  0  0  0  0  0  0  0  0  0  0  0
    1.8010    1.2599    0.4542 C   0  0  0  0  0  0  0  0  0  0  0  0
    5.0054   -0.6597   -1.6348 C   0  0  0  0  0  0  0  0  0  0  0  0
    4.7586   -1.7066   -2.4909 C   0  0  0  0  0  0  0  0  0  0  0  0
    6.3337   -2.0821   -3.0349 S   0  0  0  0  0  0  0  0  0  0  0  0
    7.2109   -0.8762   -2.1332 C   0  0  0  0  0  0  0  0  0  0  0  0
    8.6286   -0.6690   -2.1497 N   0  0  0  0  0  0  0  0  0  0  0  0
    9.3228    0.3009   -1.4383 C   0  0  0  0  0  0  0  0  0  0  0  0
    8.7645    1.3165   -0.7096 C   0  0  0  0  0  0  0  0  0  0  0  0
    9.6175    2.1912   -0.0508 C   0  0  0  0  0  0  0  0  0  0  0  0
   10.9898    2.0911   -0.0922 C   0  0  0  0  0  0  0  0  0  0  0  0
   11.5014    1.0841   -0.8160 N   0  0  0  0  0  0  0  0  0  0  0  0
   10.7300    0.2224   -1.4633 C   0  0  0  0  0  0  0  0  0  0  0  0
    6.2320   -0.2883   -1.4933 N   0  0  0  0  0  0  0  0  0  0  0  0
   -0.9740    2.9921    0.7135 H   0  0  0  0  0  0  0  0  0  0  0  0
    0.1832    2.8236   -0.5816 H   0  0  0  0  0  0  0  0  0  0  0  0
    1.3902    2.7132    1.9368 H   0  0  0  0  0  0  0  0  0  0  0  0
   -0.5330    1.6846    2.9019 H   0  0  0  0  0  0  0  0  0  0  0  0
    0.7544    0.4413    2.6440 H   0  0  0  0  0  0  0  0  0  0  0  0
   -1.4586    1.0123    0.6169 H   0  0  0  0  0  0  0  0  0  0  0  0
   -2.0521    0.2830    3.2518 H   0  0  0  0  0  0  0  0  0  0  0  0
   -5.6266   -3.6374    0.9555 H   0  0  0  0  0  0  0  0  0  0  0  0
   -6.9239   -2.0349   -0.1662 H   0  0  0  0  0  0  0  0  0  0  0  0
   -5.5903    1.9938   -0.1839 H   0  0  0  0  0  0  0  0  0  0  0  0
   -3.6467    1.3750    1.1275 H   0  0  0  0  0  0  0  0  0  0  0  0
   -8.9973   -0.6907    0.1370 H   0  0  0  0  0  0  0  0  0  0  0  0
  -10.9551   -0.1226   -1.1424 H   0  0  0  0  0  0  0  0  0  0  0  0
  -10.7567    1.2907   -3.1237 H   0  0  0  0  0  0  0  0  0  0  0  0
   -8.5294    2.1412   -3.8162 H   0  0  0  0  0  0  0  0  0  0  0  0
   -1.5542   -4.9827    2.8787 H   0  0  0  0  0  0  0  0  0  0  0  0
   -1.6358   -4.4836    4.5801 H   0  0  0  0  0  0  0  0  0  0  0  0
    0.3560   -1.3848    1.1488 H   0  0  0  0  0  0  0  0  0  0  0  0
   -1.2707   -1.5120    0.3063 H   0  0  0  0  0  0  0  0  0  0  0  0
   -0.3913    0.4305   -1.1530 H   0  0  0  0  0  0  0  0  0  0  0  0
    0.3147   -1.2145   -1.4240 H   0  0  0  0  0  0  0  0  0  0  0  0
    2.3537   -1.2274   -1.7348 H   0  0  0  0  0  0  0  0  0  0  0  0
    5.1378    1.3947    0.0886 H   0  0  0  0  0  0  0  0  0  0  0  0
    3.2896    2.5292    1.3165 H   0  0  0  0  0  0  0  0  0  0  0  0
    3.7914   -2.1749   -2.7520 H   0  0  0  0  0  0  0  0  0  0  0  0
    9.1672   -1.3478   -2.7873 H   0  0  0  0  0  0  0  0  0  0  0  0
    7.6974    1.4282   -0.6597 H   0  0  0  0  0  0  0  0  0  0  0  0
    9.1953    2.9973    0.5282 H   0  0  0  0  0  0  0  0  0  0  0  0
   11.6416    2.7755    0.4231 H   0  0  0  0  0  0  0  0  0  0  0  0
   11.1978   -0.5608   -2.0242 H   0  0  0  0  0  0  0  0  0  0  0  0
  1  2  1  0
  2  3  1  0
  3  4  1  0
  4  5  1  0
  5  6  1  0
  6  7  2  0
  7  8  1  0
  8  9  2  0
  9 10  1  0
 10 11  2  0
 11 12  1  0
 12 13  2  0
 13 14  1  0
 14 15  2  0
 12 16  1  0
 16 17  2  0
 17 18  1  0
 18 19  2  0
 19 20  1  0
 20 21  2  0
 21 22  1  0
  7 23  1  0
 23 24  1  0
 23 25  2  0
  4 26  1  0
 26 27  1  0
 27 28  1  0
 28 29  2  0
 29 30  1  0
 30 31  2  0
 31 32  1  0
 32 33  2  0
 30 34  1  0
 34 35  2  0
 35 36  1  0
 36 37  1  0
 37 38  1  0
 38 39  1  0
 39 40  2  0
 40 41  1  0
 41 42  2  0
 42 43  1  0
 43 44  2  0
 37 45  2  0
 33  2  1  0
 45 34  1  0
 15  6  1  0
 21 16  1  0
 33 28  1  0
 44 39  1  0
 15 10  1  0
  1 46  1  0
  1 47  1  0
  2 48  1  1
  3 49  1  0
  3 50  1  0
  4 51  1  6
  5 52  1  0
  9 53  1  0
 11 54  1  0
 13 55  1  0
 14 56  1  0
 17 57  1  0
 18 58  1  0
 19 59  1  0
 20 60  1  0
 24 61  1  0
 24 62  1  0
 26 63  1  0
 26 64  1  0
 27 65  1  0
 27 66  1  0
 29 67  1  0
 31 68  1  0
 32 69  1  0
 35 70  1  0
 38 71  1  0
 40 72  1  0
 41 73  1  0
 42 74  1  0
 44 75  1  0
M  END
$$$$
[H]C1=C2OC([H])(C([H])([H])c3c([H])c([H])c([H])c4c([H])c([H])c([H])c([H])c34)C([H])([H])C([H])([H])C2([H])C([H])([H])C1([H])c1c([H])c([H])c([H])c(C(F)(F)F)c1[H]
     RDKit          3D

 53 57  0  0  0  0  0  0  0  0999 V2000
   -7.3067   -2.7556    1.4851 F   0  0  0  0  0  0  0  0  0  0  0  0
   -6.0748   -2.2448    1.8899 C   0  0  0  0  0  0  0  0  0  0  0  0
   -6.2791   -1.6660    3.1010 F   0  0  0  0  0  0  0  0  0  0  0  0
   -5.2445   -3.3538    2.0162 F   0  0  0  0  0  0  0  0  0  0  0  0
   -5.5502   -1.2882    0.8687 C   0  0  0  0  0  0  0  0  0  0  0  0
   -6.1091   -1.2873   -0.4023 C   0  0  0  0  0  0  0  0  0  0  0  0
   -5.6877   -0.4188   -1.3824 C   0  0  0  0  0  0  0  0  0  0  0  0
   -4.6854    0.4664   -1.0801 C   0  0  0  0  0  0  0  0  0  0  0  0
   -4.0732    0.5246    0.1790 C   0  0  0  0  0  0  0  0  0  0  0  0
   -4.5533   -0.3972    1.1417 C   0  0  0  0  0  0  0  0  0  0  0  0
   -3.0597    1.5108    0.4560 C   0  0  0  0  0  0  0  0  0  0  0  0
   -2.4412    2.0262   -0.8721 C   0  0  0  0  0  0  0  0  0  0  0  0
   -1.6455    0.7822   -1.1539 C   0  0  0  0  0  0  0  0  0  0  0  0
   -0.7477    0.7675   -2.3082 C   0  0  0  0  0  0  0  0  0  0  0  0
    0.6222    1.2349   -1.9947 C   0  0  0  0  0  0  0  0  0  0  0  0
    1.3039    0.3090   -0.9250 C   0  0  0  0  0  0  0  0  0  0  0  0
    2.5717    1.0219   -0.6745 C   0  0  0  0  0  0  0  0  0  0  0  0
    3.5988    0.5940    0.2045 C   0  0  0  0  0  0  0  0  0  0  0  0
    3.8118    1.2174    1.4315 C   0  0  0  0  0  0  0  0  0  0  0  0
    4.8678    0.8714    2.2740 C   0  0  0  0  0  0  0  0  0  0  0  0
    5.7305   -0.1169    1.8893 C   0  0  0  0  0  0  0  0  0  0  0  0
    5.5703   -0.7667    0.6909 C   0  0  0  0  0  0  0  0  0  0  0  0
    6.4790   -1.7438    0.3439 C   0  0  0  0  0  0  0  0  0  0  0  0
    6.3213   -2.3852   -0.8881 C   0  0  0  0  0  0  0  0  0  0  0  0
    5.2673   -2.0262   -1.7082 C   0  0  0  0  0  0  0  0  0  0  0  0
    4.3465   -1.0353   -1.3508 C   0  0  0  0  0  0  0  0  0  0  0  0
    4.5133   -0.4117   -0.1397 C   0  0  0  0  0  0  0  0  0  0  0  0
    0.4034    0.1715    0.1677 O   0  0  0  0  0  0  0  0  0  0  0  0
   -0.9033    0.6498    0.1621 C   0  0  0  0  0  0  0  0  0  0  0  0
   -1.7576    1.0700    1.0659 C   0  0  0  0  0  0  0  0  0  0  0  0
   -6.9121   -1.9997   -0.5872 H   0  0  0  0  0  0  0  0  0  0  0  0
   -6.1267   -0.4059   -2.3838 H   0  0  0  0  0  0  0  0  0  0  0  0
   -4.3436    1.1408   -1.8386 H   0  0  0  0  0  0  0  0  0  0  0  0
   -4.0904   -0.3867    2.1309 H   0  0  0  0  0  0  0  0  0  0  0  0
   -3.4474    2.3994    1.0230 H   0  0  0  0  0  0  0  0  0  0  0  0
   -1.7127    2.8323   -0.5070 H   0  0  0  0  0  0  0  0  0  0  0  0
   -3.1235    2.3906   -1.5835 H   0  0  0  0  0  0  0  0  0  0  0  0
   -2.3406   -0.0946   -1.1689 H   0  0  0  0  0  0  0  0  0  0  0  0
   -0.6860   -0.2653   -2.7317 H   0  0  0  0  0  0  0  0  0  0  0  0
   -1.1440    1.3757   -3.1636 H   0  0  0  0  0  0  0  0  0  0  0  0
    1.2485    1.0890   -2.8887 H   0  0  0  0  0  0  0  0  0  0  0  0
    0.6777    2.2650   -1.5920 H   0  0  0  0  0  0  0  0  0  0  0  0
    1.3624   -0.6719   -1.3888 H   0  0  0  0  0  0  0  0  0  0  0  0
    2.2233    2.1023   -0.4137 H   0  0  0  0  0  0  0  0  0  0  0  0
    2.9778    1.2475   -1.7459 H   0  0  0  0  0  0  0  0  0  0  0  0
    3.1228    1.9976    1.7351 H   0  0  0  0  0  0  0  0  0  0  0  0
    5.0187    1.3617    3.2230 H   0  0  0  0  0  0  0  0  0  0  0  0
    6.5554   -0.3865    2.5314 H   0  0  0  0  0  0  0  0  0  0  0  0
    7.2796   -1.9497    1.0349 H   0  0  0  0  0  0  0  0  0  0  0  0
    7.0521   -3.1478   -1.1461 H   0  0  0  0  0  0  0  0  0  0  0  0
    5.1446   -2.5187   -2.6741 H   0  0  0  0  0  0  0  0  0  0  0  0
    3.5472   -0.7986   -2.0337 H   0  0  0  0  0  0  0  0  0  0  0  0
   -1.5719    1.1036    2.1517 H   0  0  0  0  0  0  0  0  0  0  0  0
  1  2  1  0
  2  3  1  0
  2  4  1  0
  2  5  1  0
  5  6  2  0
  6  7  1  0
  7  8  2  0
  8  9  1  0
  9 10  2  0
  9 11  1  0
 11 12  1  0
 12 13  1  0
 13 14  1  0
 14 15  1  0
 15 16  1  0
 16 17  1  0
 17 18  1  0
 18 19  2  0
 19 20  1  0
 20 21  2  0
 21 22  1  0
 22 23  2  0
 23 24  1  0
 24 25  2  0
 25 26  1  0
 26 27  2  0
 16 28  1  0
 28 29  1  0
 29 30  2  0
 10  5  1  0
 30 11  1  0
 29 13  1  0
 27 18  1  0
 27 22  1  0
  6 31  1  0
  7 32  1  0
  8 33  1  0
 10 34  1  0
 11 35  1  0
 12 36  1  0
 12 37  1  0
 13 38  1  0
 14 39  1  0
 14 40  1  0
 15 41  1  0
 15 42  1  0
 16 43  1  0
 17 44  1  0
 17 45  1  0
 19 46  1  0
 20 47  1  0
 21 48  1  0
 23 49  1  0
 24 50  1  0
 25 51  1  0
 26 52  1  0
 30 53  1  0
M  END
$$$$
[H]c1sc(C([H])(N([H])C(=O)c2c([H])c([H])c3c(c([H])nn3C([H])([H])[H])c2[H])C([H])([H])C([H])([H])C([H])([H])N2C([H])([H])C([H])([H])C([H])([H])C2([H])[H])c([H])c1[H]
     RDKit          3D

 53 56  0  0  0  0  0  0  0  0999 V2000
    7.2995   -3.0126    0.3004 C   0  0  0  0  0  0  0  0  0  0  0  0
    6.2470   -2.2463    0.9581 N   0  0  0  0  0  0  0  0  0  0  0  0
    6.1246   -1.9230    2.2327 N   0  0  0  0  0  0  0  0  0  0  0  0
    5.0010   -1.2041    2.4274 C   0  0  0  0  0  0  0  0  0  0  0  0
    4.3673   -1.0607    1.1963 C   0  0  0  0  0  0  0  0  0  0  0  0
    3.2085   -0.4397    0.7810 C   0  0  0  0  0  0  0  0  0  0  0  0
    2.7957   -0.4461   -0.5311 C   0  0  0  0  0  0  0  0  0  0  0  0
    3.6133   -1.1197   -1.4432 C   0  0  0  0  0  0  0  0  0  0  0  0
    4.7602   -1.7298   -1.0086 C   0  0  0  0  0  0  0  0  0  0  0  0
    5.1780   -1.7266    0.3024 C   0  0  0  0  0  0  0  0  0  0  0  0
    1.5719    0.2031   -1.0034 C   0  0  0  0  0  0  0  0  0  0  0  0
    1.2823    0.1401   -2.2227 O   0  0  0  0  0  0  0  0  0  0  0  0
    0.7209    0.8909   -0.1233 N   0  0  0  0  0  0  0  0  0  0  0  0
   -0.4701    1.5179   -0.6073 C   0  0  0  0  0  0  0  0  0  0  0  0
   -1.6983    0.9735    0.0906 C   0  0  0  0  0  0  0  0  0  0  0  0
   -1.7409   -0.5216   -0.2001 C   0  0  0  0  0  0  0  0  0  0  0  0
   -2.9728   -1.0545    0.5027 C   0  0  0  0  0  0  0  0  0  0  0  0
   -4.1195   -0.3598   -0.0499 N   0  0  0  0  0  0  0  0  0  0  0  0
   -5.3589   -0.7662    0.5332 C   0  0  0  0  0  0  0  0  0  0  0  0
   -6.2060   -1.3834   -0.5311 C   0  0  0  0  0  0  0  0  0  0  0  0
   -5.6500   -0.7838   -1.8037 C   0  0  0  0  0  0  0  0  0  0  0  0
   -4.1777   -0.6719   -1.4638 C   0  0  0  0  0  0  0  0  0  0  0  0
   -0.3361    2.9913   -0.3220 C   0  0  0  0  0  0  0  0  0  0  0  0
   -0.6142    4.0470   -1.1494 C   0  0  0  0  0  0  0  0  0  0  0  0
   -0.4124    5.2758   -0.6641 C   0  0  0  0  0  0  0  0  0  0  0  0
    0.0556    5.3806    0.6202 C   0  0  0  0  0  0  0  0  0  0  0  0
    0.1972    3.7514    1.1044 S   0  0  0  0  0  0  0  0  0  0  0  0
    8.1722   -3.1335    0.9535 H   0  0  0  0  0  0  0  0  0  0  0  0
    6.8975   -3.9853   -0.0689 H   0  0  0  0  0  0  0  0  0  0  0  0
    7.6555   -2.4717   -0.6231 H   0  0  0  0  0  0  0  0  0  0  0  0
    4.6065   -0.7860    3.3435 H   0  0  0  0  0  0  0  0  0  0  0  0
    2.5990    0.0721    1.5100 H   0  0  0  0  0  0  0  0  0  0  0  0
    3.3368   -1.1556   -2.4842 H   0  0  0  0  0  0  0  0  0  0  0  0
    5.3998   -2.2553   -1.7152 H   0  0  0  0  0  0  0  0  0  0  0  0
    0.9222    0.9674    0.8912 H   0  0  0  0  0  0  0  0  0  0  0  0
   -0.6249    1.3979   -1.6965 H   0  0  0  0  0  0  0  0  0  0  0  0
   -2.6089    1.4792   -0.2400 H   0  0  0  0  0  0  0  0  0  0  0  0
   -1.5695    1.1770    1.1674 H   0  0  0  0  0  0  0  0  0  0  0  0
   -0.8285   -1.0276    0.1322 H   0  0  0  0  0  0  0  0  0  0  0  0
   -1.9223   -0.6108   -1.2903 H   0  0  0  0  0  0  0  0  0  0  0  0
   -3.0186   -2.1468    0.3141 H   0  0  0  0  0  0  0  0  0  0  0  0
   -2.8964   -0.9317    1.6074 H   0  0  0  0  0  0  0  0  0  0  0  0
   -5.2372   -1.4278    1.4152 H   0  0  0  0  0  0  0  0  0  0  0  0
   -5.8653    0.1599    0.9259 H   0  0  0  0  0  0  0  0  0  0  0  0
   -7.2857   -1.1810   -0.3986 H   0  0  0  0  0  0  0  0  0  0  0  0
   -5.9689   -2.4686   -0.5649 H   0  0  0  0  0  0  0  0  0  0  0  0
   -6.0387    0.2158   -2.0079 H   0  0  0  0  0  0  0  0  0  0  0  0
   -5.7489   -1.5010   -2.6343 H   0  0  0  0  0  0  0  0  0  0  0  0
   -3.6748    0.1431   -2.0125 H   0  0  0  0  0  0  0  0  0  0  0  0
   -3.6432   -1.6138   -1.7182 H   0  0  0  0  0  0  0  0  0  0  0  0
   -0.9920    3.8470   -2.1796 H   0  0  0  0  0  0  0  0  0  0  0  0
   -0.6079    6.2005   -1.2561 H   0  0  0  0  0  0  0  0  0  0  0  0
    0.2763    6.3151    1.1747 H   0  0  0  0  0  0  0  0  0  0  0  0
  1  2  1  0
  2  3  1  0
  3  4  2  0
  4  5  1  0
  5  6  2  0
  6  7  1  0
  7  8  2  0
  8  9  1  0
  9 10  2  0
  7 11  1  0
 11 12  2  0
 11 13  1  0
 13 14  1  0
 14 15  1  0
 15 16  1  0
 16 17  1  0
 17 18  1  0
 18 19  1  0
 19 20  1  0
 20 21  1  0
 21 22  1  0
 14 23  1  0
 23 24  2  0
 24 25  1  0
 25 26  2  0
 26 27  1  0
 10  2  1  0
 22 18  1  0
 27 23  1  0
 10  5  1  0
  1 28  1  0
  1 29  1  0
  1 30  1  0
  4 31  1  0
  6 32  1  0
  8 33  1  0
  9 34  1  0
 13 35  1  0
 14 36  1  0
 15 37  1  0
 15 38  1  0
 16 39  1  0
 16 40  1  0
 17 41  1  0
 17 42  1  0
 19 43  1  0
 19 44  1  0
 20 45  1  0
 20 46  1  0
 21 47  1  0
 21 48  1  0
 22 49  1  0
 22 50  1  0
 24 51  1  0
 25 52  1  0
 26 53  1  0
M  END
$$$$
[H]Oc1c([H])c([H])c(C#CC(=NN([H])C(=O)N([H])c2c([H])c([H])c(C3([H])C([H])([H])N(C([H])([H])[H])C([H])([H])C3([H])[H])c([H])c2[H])C([H])([H])[H])c([H])c1[H]
     RDKit          3D

 52 54  0  0  0  0  0  0  0  0999 V2000
   -9.0964   -0.3169    0.3680 C   0  0  0  0  0  0  0  0  0  0  0  0
   -8.0782    0.6087   -0.0373 N   0  0  0  0  0  0  0  0  0  0  0  0
   -6.8156    0.2952    0.5791 C   0  0  0  0  0  0  0  0  0  0  0  0
   -5.8124    0.8785   -0.3702 C   0  0  0  0  0  0  0  0  0  0  0  0
   -6.4021    0.5150   -1.7198 C   0  0  0  0  0  0  0  0  0  0  0  0
   -7.8873    0.6877   -1.4485 C   0  0  0  0  0  0  0  0  0  0  0  0
   -4.4499    0.3445   -0.1954 C   0  0  0  0  0  0  0  0  0  0  0  0
   -3.3522    1.1625   -0.0306 C   0  0  0  0  0  0  0  0  0  0  0  0
   -2.0558    0.6671    0.1359 C   0  0  0  0  0  0  0  0  0  0  0  0
   -1.8266   -0.6690    0.1409 C   0  0  0  0  0  0  0  0  0  0  0  0
   -0.5633   -1.2437    0.2881 N   0  0  0  0  0  0  0  0  0  0  0  0
    0.6743   -0.5962    0.2588 C   0  0  0  0  0  0  0  0  0  0  0  0
    0.8471    0.6248    0.0887 O   0  0  0  0  0  0  0  0  0  0  0  0
    1.8856   -1.3601    0.4351 N   0  0  0  0  0  0  0  0  0  0  0  0
    3.1123   -0.7396    0.4092 N   0  0  0  0  0  0  0  0  0  0  0  0
    4.1376   -1.3414   -0.0687 C   0  0  0  0  0  0  0  0  0  0  0  0
    3.9732   -2.7179   -0.5916 C   0  0  0  0  0  0  0  0  0  0  0  0
    5.3886   -0.6371   -0.0660 C   0  0  0  0  0  0  0  0  0  0  0  0
    6.4453   -0.0537   -0.0799 C   0  0  0  0  0  0  0  0  0  0  0  0
    7.7054    0.6336   -0.1175 C   0  0  0  0  0  0  0  0  0  0  0  0
    7.7514    1.9926   -0.3441 C   0  0  0  0  0  0  0  0  0  0  0  0
    8.9712    2.6359   -0.3767 C   0  0  0  0  0  0  0  0  0  0  0  0
   10.1590    1.9748   -0.1911 C   0  0  0  0  0  0  0  0  0  0  0  0
   11.3921    2.6578   -0.2296 O   0  0  0  0  0  0  0  0  0  0  0  0
   10.1256    0.6175    0.0360 C   0  0  0  0  0  0  0  0  0  0  0  0
    8.9094   -0.0140    0.0669 C   0  0  0  0  0  0  0  0  0  0  0  0
   -2.9264   -1.5041   -0.0244 C   0  0  0  0  0  0  0  0  0  0  0  0
   -4.1968   -1.0071   -0.1871 C   0  0  0  0  0  0  0  0  0  0  0  0
   -8.9570   -0.6432    1.4158 H   0  0  0  0  0  0  0  0  0  0  0  0
  -10.1164    0.1649    0.3458 H   0  0  0  0  0  0  0  0  0  0  0  0
   -9.1097   -1.2339   -0.2723 H   0  0  0  0  0  0  0  0  0  0  0  0
   -6.7331    0.6556    1.6079 H   0  0  0  0  0  0  0  0  0  0  0  0
   -6.6827   -0.8050    0.5692 H   0  0  0  0  0  0  0  0  0  0  0  0
   -5.7497    1.9795   -0.3403 H   0  0  0  0  0  0  0  0  0  0  0  0
   -6.0471    1.1716   -2.5281 H   0  0  0  0  0  0  0  0  0  0  0  0
   -6.2458   -0.5606   -1.9276 H   0  0  0  0  0  0  0  0  0  0  0  0
   -8.5071   -0.0178   -2.0381 H   0  0  0  0  0  0  0  0  0  0  0  0
   -8.1278    1.7362   -1.7917 H   0  0  0  0  0  0  0  0  0  0  0  0
   -3.4723    2.2379   -0.0262 H   0  0  0  0  0  0  0  0  0  0  0  0
   -1.2686    1.3874    0.2654 H   0  0  0  0  0  0  0  0  0  0  0  0
   -0.5192   -2.3161    0.4471 H   0  0  0  0  0  0  0  0  0  0  0  0
    1.7545   -2.3949    0.5800 H   0  0  0  0  0  0  0  0  0  0  0  0
    4.8219   -2.9075   -1.2741 H   0  0  0  0  0  0  0  0  0  0  0  0
    4.0852   -3.4157    0.2560 H   0  0  0  0  0  0  0  0  0  0  0  0
    2.9881   -2.7931   -1.0908 H   0  0  0  0  0  0  0  0  0  0  0  0
    6.8316    2.5781   -0.5002 H   0  0  0  0  0  0  0  0  0  0  0  0
    9.0314    3.7211   -0.5562 H   0  0  0  0  0  0  0  0  0  0  0  0
   11.8083    2.6996   -1.1689 H   0  0  0  0  0  0  0  0  0  0  0  0
   11.0361    0.0616    0.1866 H   0  0  0  0  0  0  0  0  0  0  0  0
    8.9344   -1.0949    0.2509 H   0  0  0  0  0  0  0  0  0  0  0  0
   -2.7712   -2.5786   -0.0244 H   0  0  0  0  0  0  0  0  0  0  0  0
   -4.9991   -1.7273   -0.3098 H   0  0  0  0  0  0  0  0  0  0  0  0
  1  2  1  0
  2  3  1  0
  3  4  1  0
  4  5  1  0
  5  6  1  0
  4  7  1  0
  7  8  2  0
  8  9  1  0
  9 10  2  0
 10 11  1  0
 11 12  1  0
 12 13  2  0
 12 14  1  0
 14 15  1  0
 15 16  2  3
 16 17  1  0
 16 18  1  0
 18 19  3  0
 19 20  1  0
 20 21  2  0
 21 22  1  0
 22 23  2  0
 23 24  1  0
 23 25  1  0
 25 26  2  0
 10 27  1  0
 27 28  2  0
  6  2  1  0
 28  7  1  0
 26 20  1  0
  1 29  1  0
  1 30  1  0
  1 31  1  0
  3 32  1  0
  3 33  1  0
  4 34  1  0
  5 35  1  0
  5 36  1  0
  6 37  1  0
  6 38  1  0
  8 39  1  0
  9 40  1  0
 11 41  1  0
 14 42  1  0
 17 43  1  0
 17 44  1  0
 17 45  1  0
 21 46  1  0
 22 47  1  0
 24 48  1  0
 25 49  1  0
 26 50  1  0
 27 51  1  0
 28 52  1  0
M  END
$$$$
