[H]OC([H])([H])C(O[C@]1([H])C([H])(N([H])[H])C([H])([H])C1([H])C([H])([H])N([H])c1nc([H])c([H])c(-n2c([H])nc3c([H])c(C(F)(F)F)c([H])c(C(F)(F)F)c32)n1)(C([H])([H])O[H])C([H])([H])O[H]
     RDKit          3D

 62 65  0  0  0  0  0  0  0  0999 V2000
   -1.8373   -2.4071    1.0584 N   0  0  0  0  0  0  0  0  0  0  0  0
   -2.8336   -1.4406    1.4841 C   0  0  0  0  0  0  0  0  0  0  0  0
   -2.2024   -0.0210    1.6502 C   0  0  0  0  0  0  0  0  0  0  0  0
   -2.6946    0.2833    0.2824 C   0  0  0  0  0  0  0  0  0  0  0  0
   -1.7350    0.3108   -0.8279 C   0  0  0  0  0  0  0  0  0  0  0  0
   -0.7941    1.3677   -0.7887 N   0  0  0  0  0  0  0  0  0  0  0  0
    0.5560    1.5300   -0.5888 C   0  0  0  0  0  0  0  0  0  0  0  0
    0.9818    2.8458   -0.6674 N   0  0  0  0  0  0  0  0  0  0  0  0
    2.2287    3.2723   -0.4509 C   0  0  0  0  0  0  0  0  0  0  0  0
    3.1530    2.3561   -0.1250 C   0  0  0  0  0  0  0  0  0  0  0  0
    2.7766    0.9833   -0.0340 C   0  0  0  0  0  0  0  0  0  0  0  0
    1.5568    0.6765   -0.2633 N   0  0  0  0  0  0  0  0  0  0  0  0
    3.8465    0.2599    0.5197 N   0  0  0  0  0  0  0  0  0  0  0  0
    3.8725    0.0165    1.8993 C   0  0  0  0  0  0  0  0  0  0  0  0
    5.0900   -0.3396    2.2723 N   0  0  0  0  0  0  0  0  0  0  0  0
    5.8838   -0.3569    1.1926 C   0  0  0  0  0  0  0  0  0  0  0  0
    7.2310   -0.6128    1.0521 C   0  0  0  0  0  0  0  0  0  0  0  0
    7.8342   -0.5188   -0.1670 C   0  0  0  0  0  0  0  0  0  0  0  0
    7.0428   -0.1715   -1.2175 C   0  0  0  0  0  0  0  0  0  0  0  0
    5.6755    0.0973   -1.1560 C   0  0  0  0  0  0  0  0  0  0  0  0
    5.0799    0.0162    0.0916 C   0  0  0  0  0  0  0  0  0  0  0  0
    4.8845    0.3073   -2.3694 C   0  0  0  0  0  0  0  0  0  0  0  0
    5.8750    0.1269   -3.4225 F   0  0  0  0  0  0  0  0  0  0  0  0
    4.0835   -0.7974   -2.6848 F   0  0  0  0  0  0  0  0  0  0  0  0
    4.4199    1.4923   -2.7511 F   0  0  0  0  0  0  0  0  0  0  0  0
    9.3280   -0.6614   -0.2683 C   0  0  0  0  0  0  0  0  0  0  0  0
    9.8061    0.5747    0.2460 F   0  0  0  0  0  0  0  0  0  0  0  0
    9.7466   -0.8457   -1.5420 F   0  0  0  0  0  0  0  0  0  0  0  0
    9.8210   -1.5981    0.6200 F   0  0  0  0  0  0  0  0  0  0  0  0
   -3.6706   -0.8674    0.3906 C   0  0  2  0  0  0  0  0  0  0  0  0
   -4.8808   -0.3695    0.8312 O   0  0  0  0  0  0  0  0  0  0  0  0
   -5.9546   -0.5734    0.0233 C   0  0  0  0  0  0  0  0  0  0  0  0
   -5.8132    0.1143   -1.3193 C   0  0  0  0  0  0  0  0  0  0  0  0
   -5.6709    1.4941   -1.1630 O   0  0  0  0  0  0  0  0  0  0  0  0
   -7.1830    0.0290    0.6672 C   0  0  0  0  0  0  0  0  0  0  0  0
   -6.9466    1.3904    0.8264 O   0  0  0  0  0  0  0  0  0  0  0  0
   -6.2171   -2.0468   -0.1897 C   0  0  0  0  0  0  0  0  0  0  0  0
   -6.4865   -2.6360    1.0389 O   0  0  0  0  0  0  0  0  0  0  0  0
   -0.8727   -2.0394    1.1374 H   0  0  0  0  0  0  0  0  0  0  0  0
   -2.0620   -2.6896    0.0723 H   0  0  0  0  0  0  0  0  0  0  0  0
   -3.3549   -1.7935    2.3850 H   0  0  0  0  0  0  0  0  0  0  0  0
   -1.1481   -0.1165    1.8518 H   0  0  0  0  0  0  0  0  0  0  0  0
   -2.8019    0.4560    2.4949 H   0  0  0  0  0  0  0  0  0  0  0  0
   -3.2190    1.2968    0.3207 H   0  0  0  0  0  0  0  0  0  0  0  0
   -1.2348   -0.6813   -1.0181 H   0  0  0  0  0  0  0  0  0  0  0  0
   -2.3558    0.4774   -1.7680 H   0  0  0  0  0  0  0  0  0  0  0  0
   -1.3102    2.3506   -0.9755 H   0  0  0  0  0  0  0  0  0  0  0  0
    2.4530    4.3557   -0.5473 H   0  0  0  0  0  0  0  0  0  0  0  0
    4.1681    2.6196    0.0528 H   0  0  0  0  0  0  0  0  0  0  0  0
    2.9557    0.1174    2.4660 H   0  0  0  0  0  0  0  0  0  0  0  0
    7.7719   -0.8689    1.9830 H   0  0  0  0  0  0  0  0  0  0  0  0
    7.4987   -0.1025   -2.2127 H   0  0  0  0  0  0  0  0  0  0  0  0
   -3.6774   -1.4971   -0.5215 H   0  0  0  0  0  0  0  0  0  0  0  0
   -6.8087   -0.0481   -1.8273 H   0  0  0  0  0  0  0  0  0  0  0  0
   -5.0375   -0.3107   -1.9465 H   0  0  0  0  0  0  0  0  0  0  0  0
   -6.2547    2.0133   -1.7621 H   0  0  0  0  0  0  0  0  0  0  0  0
   -7.3703   -0.3659    1.6995 H   0  0  0  0  0  0  0  0  0  0  0  0
   -8.0816   -0.0942    0.0277 H   0  0  0  0  0  0  0  0  0  0  0  0
   -6.7576    1.6570    1.7673 H   0  0  0  0  0  0  0  0  0  0  0  0
   -5.3844   -2.5570   -0.6726 H   0  0  0  0  0  0  0  0  0  0  0  0
   -7.1532   -2.1774   -0.8098 H   0  0  0  0  0  0  0  0  0  0  0  0
   -5.8159   -3.2823    1.3215 H   0  0  0  0  0  0  0  0  0  0  0  0
  1  2  1  0
  2  3  1  0
  3  4  1  0
  4  5  1  0
  5  6  1  0
  6  7  1  0
  7  8  2  0
  8  9  1  0
  9 10  2  0
 10 11  1  0
 11 12  2  0
 11 13  1  0
 13 14  1  0
 14 15  2  0
 15 16  1  0
 16 17  2  0
 17 18  1  0
 18 19  2  0
 19 20  1  0
 20 21  2  0
 20 22  1  0
 22 23  1  0
 22 24  1  0
 22 25  1  0
 18 26  1  0
 26 27  1  0
 26 28  1  0
 26 29  1  0
  4 30  1  0
 30 31  1  0
 31 32  1  0
 32 33  1  0
 33 34  1  0
 32 35  1  0
 35 36  1  0
 32 37  1  0
 37 38  1  0
 30  2  1  0
 12  7  1  0
 21 13  1  0
 21 16  1  0
  1 39  1  0
  1 40  1  0
  2 41  1  0
  3 42  1  0
  3 43  1  0
  4 44  1  0
  5 45  1  0
  5 46  1  0
  6 47  1  0
  9 48  1  0
 10 49  1  0
 14 50  1  0
 17 51  1  0
 19 52  1  0
 30 53  1  6
 33 54  1  0
 33 55  1  0
 34 56  1  0
 35 57  1  0
 35 58  1  0
 36 59  1  0
 37 60  1  0
 37 61  1  0
 38 62  1  0
M  END
$$$$
[H]c1c([H])c([H])c(OC(=O)C([H])([H])SC(=O)c2c([H])c([H])c([H])c([H])c2[H])c([H])c1[H]
     RDKit          3D

 31 32  0  0  0  0  0  0  0  0999 V2000
   -2.4010    2.4864   -1.3473 O   0  0  0  0  0  0  0  0  0  0  0  0
   -1.3180    2.1274   -0.8211 C   0  0  0  0  0  0  0  0  0  0  0  0
   -0.0420    2.8520   -1.1188 C   0  0  0  0  0  0  0  0  0  0  0  0
    1.3424    2.1327   -0.2329 S   0  0  0  0  0  0  0  0  0  0  0  0
    1.7005    0.4718   -0.8033 C   0  0  0  0  0  0  0  0  0  0  0  0
    1.0177   -0.0519   -1.7161 O   0  0  0  0  0  0  0  0  0  0  0  0
    2.7871   -0.2982   -0.2200 C   0  0  0  0  0  0  0  0  0  0  0  0
    3.5891    0.2156    0.7968 C   0  0  0  0  0  0  0  0  0  0  0  0
    4.6164   -0.5029    1.3530 C   0  0  0  0  0  0  0  0  0  0  0  0
    4.8854   -1.7811    0.9078 C   0  0  0  0  0  0  0  0  0  0  0  0
    4.1137   -2.3111   -0.0897 C   0  0  0  0  0  0  0  0  0  0  0  0
    3.0778   -1.5743   -0.6440 C   0  0  0  0  0  0  0  0  0  0  0  0
   -1.3564    1.0399    0.0400 O   0  0  0  0  0  0  0  0  0  0  0  0
   -2.5302    0.3552    0.3284 C   0  0  0  0  0  0  0  0  0  0  0  0
   -2.9509   -0.7176   -0.4267 C   0  0  0  0  0  0  0  0  0  0  0  0
   -4.1196   -1.4056   -0.1459 C   0  0  0  0  0  0  0  0  0  0  0  0
   -4.9165   -1.0349    0.9169 C   0  0  0  0  0  0  0  0  0  0  0  0
   -4.4952    0.0391    1.6727 C   0  0  0  0  0  0  0  0  0  0  0  0
   -3.3208    0.7343    1.3945 C   0  0  0  0  0  0  0  0  0  0  0  0
    0.1192    2.7405   -2.2084 H   0  0  0  0  0  0  0  0  0  0  0  0
   -0.0990    3.9177   -0.9030 H   0  0  0  0  0  0  0  0  0  0  0  0
    3.3569    1.2248    1.1301 H   0  0  0  0  0  0  0  0  0  0  0  0
    5.1951   -0.0463    2.1332 H   0  0  0  0  0  0  0  0  0  0  0  0
    5.7103   -2.3594    1.3528 H   0  0  0  0  0  0  0  0  0  0  0  0
    4.3024   -3.3091   -0.4569 H   0  0  0  0  0  0  0  0  0  0  0  0
    2.4950   -2.0200   -1.4216 H   0  0  0  0  0  0  0  0  0  0  0  0
   -2.3360   -1.0183   -1.2627 H   0  0  0  0  0  0  0  0  0  0  0  0
   -4.4526   -2.2540   -0.7429 H   0  0  0  0  0  0  0  0  0  0  0  0
   -5.8393   -1.5555    1.1620 H   0  0  0  0  0  0  0  0  0  0  0  0
   -5.1274    0.3231    2.5055 H   0  0  0  0  0  0  0  0  0  0  0  0
   -3.0042    1.5800    2.0025 H   0  0  0  0  0  0  0  0  0  0  0  0
  1  2  2  0
  2  3  1  0
  3  4  1  0
  4  5  1  0
  5  6  2  0
  5  7  1  0
  7  8  2  0
  8  9  1  0
  9 10  2  0
 10 11  1  0
 11 12  2  0
  2 13  1  0
 13 14  1  0
 14 15  2  0
 15 16  1  0
 16 17  2  0
 17 18  1  0
 18 19  2  0
 12  7  1  0
 19 14  1  0
  3 20  1  0
  3 21  1  0
  8 22  1  0
  9 23  1  0
 10 24  1  0
 11 25  1  0
 12 26  1  0
 15 27  1  0
 16 28  1  0
 17 29  1  0
 18 30  1  0
 19 31  1  0
M  END
$$$$
[H]c1c([H])c([H])c(N2C([H])([H])C([H])(N([H])C(=O)[C@]3([H])c4c([H])c([H])c([H])c([H])c4-c4c([H])c([H])c([H])c([H])c4C3([H])[H])C2([H])[H])c(OC([H])([H])[H])c1[H]
     RDKit          3D

 53 57  0  0  0  0  0  0  0  0999 V2000
    5.8608    2.1968    0.9870 C   0  0  0  0  0  0  0  0  0  0  0  0
    4.9623    1.1998    0.5714 O   0  0  0  0  0  0  0  0  0  0  0  0
    5.3549    0.1149   -0.2153 C   0  0  0  0  0  0  0  0  0  0  0  0
    6.6651   -0.0231   -0.6227 C   0  0  0  0  0  0  0  0  0  0  0  0
    7.0554   -1.1064   -1.4078 C   0  0  0  0  0  0  0  0  0  0  0  0
    6.1269   -2.0437   -1.7783 C   0  0  0  0  0  0  0  0  0  0  0  0
    4.8385   -1.8800   -1.3599 C   0  0  0  0  0  0  0  0  0  0  0  0
    4.3971   -0.8248   -0.5802 C   0  0  0  0  0  0  0  0  0  0  0  0
    3.0473   -0.6925   -0.1666 N   0  0  0  0  0  0  0  0  0  0  0  0
    2.2985   -0.6241    1.0693 C   0  0  0  0  0  0  0  0  0  0  0  0
    1.1533    0.0251    0.3425 C   0  0  0  0  0  0  0  0  0  0  0  0
    1.7960   -0.5644   -0.8832 C   0  0  0  0  0  0  0  0  0  0  0  0
   -0.1535   -0.5343    0.6465 N   0  0  0  0  0  0  0  0  0  0  0  0
   -1.2644    0.2551    0.9532 C   0  0  0  0  0  0  0  0  0  0  0  0
   -1.1446    1.5030    0.9731 O   0  0  0  0  0  0  0  0  0  0  0  0
   -2.6030   -0.3241    1.2628 C   0  0  1  0  0  0  0  0  0  0  0  0
   -3.5409    0.7461    1.7450 C   0  0  0  0  0  0  0  0  0  0  0  0
   -4.2618    1.4829    0.7110 C   0  0  0  0  0  0  0  0  0  0  0  0
   -4.7279    2.7895    0.9385 C   0  0  0  0  0  0  0  0  0  0  0  0
   -5.4791    3.4511    0.0011 C   0  0  0  0  0  0  0  0  0  0  0  0
   -5.7768    2.8145   -1.1819 C   0  0  0  0  0  0  0  0  0  0  0  0
   -5.3228    1.5190   -1.4280 C   0  0  0  0  0  0  0  0  0  0  0  0
   -4.5721    0.8630   -0.4906 C   0  0  0  0  0  0  0  0  0  0  0  0
   -4.0226   -0.4461   -0.8088 C   0  0  0  0  0  0  0  0  0  0  0  0
   -4.4648   -1.0853   -1.9367 C   0  0  0  0  0  0  0  0  0  0  0  0
   -4.0233   -2.3945   -2.1421 C   0  0  0  0  0  0  0  0  0  0  0  0
   -3.1900   -3.0386   -1.2801 C   0  0  0  0  0  0  0  0  0  0  0  0
   -2.7729   -2.3637   -0.1709 C   0  0  0  0  0  0  0  0  0  0  0  0
   -3.1600   -1.0752    0.0994 C   0  0  0  0  0  0  0  0  0  0  0  0
    6.5397    2.4727    0.1402 H   0  0  0  0  0  0  0  0  0  0  0  0
    5.2917    3.1135    1.2853 H   0  0  0  0  0  0  0  0  0  0  0  0
    6.4975    1.8535    1.8210 H   0  0  0  0  0  0  0  0  0  0  0  0
    7.4190    0.6996   -0.3461 H   0  0  0  0  0  0  0  0  0  0  0  0
    8.0852   -1.2163   -1.7290 H   0  0  0  0  0  0  0  0  0  0  0  0
    6.4305   -2.8880   -2.3901 H   0  0  0  0  0  0  0  0  0  0  0  0
    4.1020   -2.6203   -1.6517 H   0  0  0  0  0  0  0  0  0  0  0  0
    2.7922    0.0848    1.7641 H   0  0  0  0  0  0  0  0  0  0  0  0
    2.0731   -1.6043    1.5335 H   0  0  0  0  0  0  0  0  0  0  0  0
    1.2077    1.1187    0.3713 H   0  0  0  0  0  0  0  0  0  0  0  0
    1.8511    0.1142   -1.7572 H   0  0  0  0  0  0  0  0  0  0  0  0
    1.4017   -1.5875   -1.1154 H   0  0  0  0  0  0  0  0  0  0  0  0
   -0.2401   -1.5647    0.6326 H   0  0  0  0  0  0  0  0  0  0  0  0
   -2.5136   -1.0774    2.1038 H   0  0  0  0  0  0  0  0  0  0  0  0
   -4.3268    0.2148    2.3607 H   0  0  0  0  0  0  0  0  0  0  0  0
   -2.9939    1.4157    2.4449 H   0  0  0  0  0  0  0  0  0  0  0  0
   -4.4760    3.2520    1.8707 H   0  0  0  0  0  0  0  0  0  0  0  0
   -5.8389    4.4758    0.1912 H   0  0  0  0  0  0  0  0  0  0  0  0
   -6.3611    3.3338   -1.9034 H   0  0  0  0  0  0  0  0  0  0  0  0
   -5.5791    1.0927   -2.3408 H   0  0  0  0  0  0  0  0  0  0  0  0
   -5.1078   -0.7191   -2.6880 H   0  0  0  0  0  0  0  0  0  0  0  0
   -4.3444   -2.9555   -3.0279 H   0  0  0  0  0  0  0  0  0  0  0  0
   -2.8617   -4.0490   -1.4547 H   0  0  0  0  0  0  0  0  0  0  0  0
   -2.1236   -2.8997    0.5079 H   0  0  0  0  0  0  0  0  0  0  0  0
  1  2  1  0
  2  3  1  0
  3  4  2  0
  4  5  1  0
  5  6  2  0
  6  7  1  0
  7  8  2  0
  8  9  1  0
  9 10  1  0
 10 11  1  0
 11 12  1  0
 11 13  1  0
 13 14  1  0
 14 15  2  0
 14 16  1  0
 16 17  1  0
 17 18  1  0
 18 19  2  0
 19 20  1  0
 20 21  2  0
 21 22  1  0
 22 23  2  0
 23 24  1  0
 24 25  2  0
 25 26  1  0
 26 27  2  0
 27 28  1  0
 28 29  2  0
  8  3  1  0
 12  9  1  0
 29 16  1  0
 23 18  1  0
 29 24  1  0
  1 30  1  0
  1 31  1  0
  1 32  1  0
  4 33  1  0
  5 34  1  0
  6 35  1  0
  7 36  1  0
 10 37  1  0
 10 38  1  0
 11 39  1  0
 12 40  1  0
 12 41  1  0
 13 42  1  0
 16 43  1  1
 17 44  1  0
 17 45  1  0
 19 46  1  0
 20 47  1  0
 21 48  1  0
 22 49  1  0
 25 50  1  0
 26 51  1  0
 27 52  1  0
 28 53  1  0
M  END
$$$$
[H]c1nc([H])c(C(=O)OC2([H])C([H])([H])C3([H])N(C([H])([H])[H])C([H])(C([H])([H])C3([H])[H])C2([H])[H])c([H])c1[H]
     RDKit          3D

 36 38  0  0  0  0  0  0  0  0999 V2000
   -4.1099   -1.4740   -0.6172 C   0  0  0  0  0  0  0  0  0  0  0  0
   -2.7196   -1.1016   -0.4830 N   0  0  0  0  0  0  0  0  0  0  0  0
   -2.3631   -0.7914    0.8854 C   0  0  0  0  0  0  0  0  0  0  0  0
   -2.9775    0.5637    1.1325 C   0  0  0  0  0  0  0  0  0  0  0  0
   -2.8531    1.2361   -0.1997 C   0  0  0  0  0  0  0  0  0  0  0  0
   -2.4318    0.1489   -1.1508 C   0  0  0  0  0  0  0  0  0  0  0  0
   -0.9122    0.1595   -1.3763 C   0  0  0  0  0  0  0  0  0  0  0  0
   -0.2666    0.2498   -0.0303 C   0  0  0  0  0  0  0  0  0  0  0  0
   -0.8671   -0.6804    0.9844 C   0  0  0  0  0  0  0  0  0  0  0  0
    1.1131    0.0018   -0.0362 O   0  0  0  0  0  0  0  0  0  0  0  0
    2.0858    0.8890    0.3517 C   0  0  0  0  0  0  0  0  0  0  0  0
    1.7540    2.0071    0.7439 O   0  0  0  0  0  0  0  0  0  0  0  0
    3.4911    0.5176    0.3018 C   0  0  0  0  0  0  0  0  0  0  0  0
    3.8902   -0.7252   -0.1322 C   0  0  0  0  0  0  0  0  0  0  0  0
    5.2359   -1.0278   -0.1603 C   0  0  0  0  0  0  0  0  0  0  0  0
    6.1215   -0.0508    0.2554 C   0  0  0  0  0  0  0  0  0  0  0  0
    5.7184    1.1508    0.6739 N   0  0  0  0  0  0  0  0  0  0  0  0
    4.4188    1.4402    0.7001 C   0  0  0  0  0  0  0  0  0  0  0  0
   -4.1487   -2.4788   -1.0579 H   0  0  0  0  0  0  0  0  0  0  0  0
   -4.5672   -0.7759   -1.3626 H   0  0  0  0  0  0  0  0  0  0  0  0
   -4.6887   -1.3597    0.3148 H   0  0  0  0  0  0  0  0  0  0  0  0
   -2.6980   -1.5663    1.5836 H   0  0  0  0  0  0  0  0  0  0  0  0
   -2.4210    1.0964    1.9371 H   0  0  0  0  0  0  0  0  0  0  0  0
   -4.0362    0.4299    1.4275 H   0  0  0  0  0  0  0  0  0  0  0  0
   -3.8744    1.5857   -0.5104 H   0  0  0  0  0  0  0  0  0  0  0  0
   -2.2031    2.1103   -0.2028 H   0  0  0  0  0  0  0  0  0  0  0  0
   -2.8973    0.2242   -2.1463 H   0  0  0  0  0  0  0  0  0  0  0  0
   -0.7223    1.0520   -1.9833 H   0  0  0  0  0  0  0  0  0  0  0  0
   -0.6920   -0.7939   -1.8975 H   0  0  0  0  0  0  0  0  0  0  0  0
   -0.4122    1.2920    0.3454 H   0  0  0  0  0  0  0  0  0  0  0  0
   -0.4462   -1.6991    0.7719 H   0  0  0  0  0  0  0  0  0  0  0  0
   -0.5571   -0.3399    1.9933 H   0  0  0  0  0  0  0  0  0  0  0  0
    3.1477   -1.4723   -0.4541 H   0  0  0  0  0  0  0  0  0  0  0  0
    5.5741   -2.0078   -0.5011 H   0  0  0  0  0  0  0  0  0  0  0  0
    7.1769   -0.2541    0.2459 H   0  0  0  0  0  0  0  0  0  0  0  0
    4.1377    2.4439    1.0531 H   0  0  0  0  0  0  0  0  0  0  0  0
  1  2  1  0
  2  3  1  0
  3  4  1  0
  4  5  1  0
  5  6  1  0
  6  7  1  0
  7  8  1  0
  8  9  1  0
  8 10  1  0
 10 11  1  0
 11 12  2  0
 11 13  1  0
 13 14  2  0
 14 15  1  0
 15 16  2  0
 16 17  1  0
 17 18  2  0
  6  2  1  0
 18 13  1  0
  9  3  1  0
  1 19  1  0
  1 20  1  0
  1 21  1  0
  3 22  1  0
  4 23  1  0
  4 24  1  0
  5 25  1  0
  5 26  1  0
  6 27  1  0
  7 28  1  0
  7 29  1  0
  8 30  1  0
  9 31  1  0
  9 32  1  0
 14 33  1  0
 15 34  1  0
 16 35  1  0
 18 36  1  0
M  END
$$$$
[H]c1c([H])c([H])c2c(c1[H])C(=O)OC21C([H])([H])C([H])([H])N(N([H])C(=O)c2c([H])c([H])c(C([H])([H])C([H])([H])C([H])([H])C([H])([H])[H])c([H])c2[H])C([H])([H])C1([H])[H]
     RDKit          3D

 54 57  0  0  0  0  0  0  0  0999 V2000
   -8.3909    1.6689   -0.5892 C   0  0  0  0  0  0  0  0  0  0  0  0
   -8.2390    0.3521    0.1247 C   0  0  0  0  0  0  0  0  0  0  0  0
   -6.8069   -0.0217    0.3625 C   0  0  0  0  0  0  0  0  0  0  0  0
   -6.0188   -0.1579   -0.9212 C   0  0  0  0  0  0  0  0  0  0  0  0
   -4.6274   -0.5292   -0.5620 C   0  0  0  0  0  0  0  0  0  0  0  0
   -3.7056    0.4603   -0.3848 C   0  0  0  0  0  0  0  0  0  0  0  0
   -2.3912    0.1451   -0.0470 C   0  0  0  0  0  0  0  0  0  0  0  0
   -2.0001   -1.1700    0.1144 C   0  0  0  0  0  0  0  0  0  0  0  0
   -2.9577   -2.1398   -0.0720 C   0  0  0  0  0  0  0  0  0  0  0  0
   -4.2665   -1.8515   -0.4075 C   0  0  0  0  0  0  0  0  0  0  0  0
   -0.6418   -1.5468    0.4471 C   0  0  0  0  0  0  0  0  0  0  0  0
   -0.3730   -2.6729    0.9543 O   0  0  0  0  0  0  0  0  0  0  0  0
    0.4167   -0.6523    0.2049 N   0  0  0  0  0  0  0  0  0  0  0  0
    1.7251   -1.0129    0.5208 N   0  0  0  0  0  0  0  0  0  0  0  0
    2.5497   -1.0889   -0.6480 C   0  0  0  0  0  0  0  0  0  0  0  0
    3.5129    0.0413   -0.8171 C   0  0  0  0  0  0  0  0  0  0  0  0
    4.2620    0.3973    0.4396 C   0  0  0  0  0  0  0  0  0  0  0  0
    3.7338   -0.4093    1.6350 C   0  0  0  0  0  0  0  0  0  0  0  0
    2.2177   -0.1781    1.5593 C   0  0  0  0  0  0  0  0  0  0  0  0
    4.0011    1.7520    0.7478 O   0  0  0  0  0  0  0  0  0  0  0  0
    5.1952    2.4613    0.8165 C   0  0  0  0  0  0  0  0  0  0  0  0
    5.2746    3.6879    1.0846 O   0  0  0  0  0  0  0  0  0  0  0  0
    6.2748    1.5293    0.5265 C   0  0  0  0  0  0  0  0  0  0  0  0
    7.6342    1.7400    0.4649 C   0  0  0  0  0  0  0  0  0  0  0  0
    8.4903    0.6973    0.1606 C   0  0  0  0  0  0  0  0  0  0  0  0
    7.9606   -0.5519   -0.0788 C   0  0  0  0  0  0  0  0  0  0  0  0
    6.5894   -0.7491   -0.0130 C   0  0  0  0  0  0  0  0  0  0  0  0
    5.7209    0.2772    0.2886 C   0  0  0  0  0  0  0  0  0  0  0  0
   -8.2473    2.5264    0.1258 H   0  0  0  0  0  0  0  0  0  0  0  0
   -9.4664    1.7346   -0.9217 H   0  0  0  0  0  0  0  0  0  0  0  0
   -7.7928    1.7683   -1.5014 H   0  0  0  0  0  0  0  0  0  0  0  0
   -8.7498   -0.4294   -0.4826 H   0  0  0  0  0  0  0  0  0  0  0  0
   -8.7642    0.4268    1.0878 H   0  0  0  0  0  0  0  0  0  0  0  0
   -6.7750   -1.0249    0.8419 H   0  0  0  0  0  0  0  0  0  0  0  0
   -6.3320    0.6898    1.0655 H   0  0  0  0  0  0  0  0  0  0  0  0
   -6.4841   -0.8746   -1.6206 H   0  0  0  0  0  0  0  0  0  0  0  0
   -5.9975    0.8210   -1.4901 H   0  0  0  0  0  0  0  0  0  0  0  0
   -3.9896    1.4846   -0.5044 H   0  0  0  0  0  0  0  0  0  0  0  0
   -1.6530    0.9237    0.0996 H   0  0  0  0  0  0  0  0  0  0  0  0
   -2.7170   -3.1945    0.0377 H   0  0  0  0  0  0  0  0  0  0  0  0
   -5.0375   -2.5821   -0.5618 H   0  0  0  0  0  0  0  0  0  0  0  0
    0.2247    0.2768   -0.2147 H   0  0  0  0  0  0  0  0  0  0  0  0
    1.8803   -1.1124   -1.5285 H   0  0  0  0  0  0  0  0  0  0  0  0
    3.0725   -2.0673   -0.6244 H   0  0  0  0  0  0  0  0  0  0  0  0
    4.2786   -0.2812   -1.5588 H   0  0  0  0  0  0  0  0  0  0  0  0
    3.0332    0.9425   -1.2464 H   0  0  0  0  0  0  0  0  0  0  0  0
    3.9583   -1.4736    1.4999 H   0  0  0  0  0  0  0  0  0  0  0  0
    4.1541    0.0400    2.5567 H   0  0  0  0  0  0  0  0  0  0  0  0
    1.7297   -0.4518    2.5018 H   0  0  0  0  0  0  0  0  0  0  0  0
    2.0561    0.8862    1.2993 H   0  0  0  0  0  0  0  0  0  0  0  0
    8.0723    2.7184    0.6491 H   0  0  0  0  0  0  0  0  0  0  0  0
    9.5354    0.8722    0.1162 H   0  0  0  0  0  0  0  0  0  0  0  0
    8.6458   -1.3495   -0.3139 H   0  0  0  0  0  0  0  0  0  0  0  0
    6.2248   -1.7480   -0.2086 H   0  0  0  0  0  0  0  0  0  0  0  0
  1  2  1  0
  2  3  1  0
  3  4  1  0
  4  5  1  0
  5  6  2  0
  6  7  1  0
  7  8  2  0
  8  9  1  0
  9 10  2  0
  8 11  1  0
 11 12  2  0
 11 13  1  0
 13 14  1  0
 14 15  1  0
 15 16  1  0
 16 17  1  0
 17 18  1  0
 18 19  1  0
 17 20  1  0
 20 21  1  0
 21 22  2  0
 21 23  1  0
 23 24  2  0
 24 25  1  0
 25 26  2  0
 26 27  1  0
 27 28  2  0
 10  5  1  0
 19 14  1  0
 28 23  1  0
 28 17  1  0
  1 29  1  0
  1 30  1  0
  1 31  1  0
  2 32  1  0
  2 33  1  0
  3 34  1  0
  3 35  1  0
  4 36  1  0
  4 37  1  0
  6 38  1  0
  7 39  1  0
  9 40  1  0
 10 41  1  0
 13 42  1  0
 15 43  1  0
 15 44  1  0
 16 45  1  0
 16 46  1  0
 18 47  1  0
 18 48  1  0
 19 49  1  0
 19 50  1  0
 24 51  1  0
 25 52  1  0
 26 53  1  0
 27 54  1  0
M  END
$$$$
[H]c1nc([H])c(-c2c([H])c([H])c(Br)c([H])c2[H])c([H])c1C(=O)N([H])C([H])([H])c1c([H])c([H])c(F)c([H])c1OC([H])([H])[H]
     RDKit          3D

 42 44  0  0  0  0  0  0  0  0999 V2000
   -5.6753    1.2656    3.0581 C   0  0  0  0  0  0  0  0  0  0  0  0
   -4.4084    1.0973    2.4642 O   0  0  0  0  0  0  0  0  0  0  0  0
   -4.3084    0.3292    1.3280 C   0  0  0  0  0  0  0  0  0  0  0  0
   -5.4444   -0.2479    0.8096 C   0  0  0  0  0  0  0  0  0  0  0  0
   -5.3475   -1.0228   -0.3357 C   0  0  0  0  0  0  0  0  0  0  0  0
   -6.4437   -1.6172   -0.8918 F   0  0  0  0  0  0  0  0  0  0  0  0
   -4.1123   -1.1921   -0.9214 C   0  0  0  0  0  0  0  0  0  0  0  0
   -2.9780   -0.5952   -0.3732 C   0  0  0  0  0  0  0  0  0  0  0  0
   -3.0673    0.1699    0.7545 C   0  0  0  0  0  0  0  0  0  0  0  0
   -1.9108    0.8057    1.4005 C   0  0  0  0  0  0  0  0  0  0  0  0
   -0.6565    0.6586    0.7517 N   0  0  0  0  0  0  0  0  0  0  0  0
   -0.3704    1.2420   -0.5100 C   0  0  0  0  0  0  0  0  0  0  0  0
   -1.3024    1.9274   -1.0459 O   0  0  0  0  0  0  0  0  0  0  0  0
    0.9162    1.0881   -1.1938 C   0  0  0  0  0  0  0  0  0  0  0  0
    1.0670    1.7000   -2.4336 C   0  0  0  0  0  0  0  0  0  0  0  0
    2.2454    1.5576   -3.0569 N   0  0  0  0  0  0  0  0  0  0  0  0
    3.2842    0.8650   -2.5625 C   0  0  0  0  0  0  0  0  0  0  0  0
    3.1777    0.2427   -1.3370 C   0  0  0  0  0  0  0  0  0  0  0  0
    1.9612    0.3771   -0.6700 C   0  0  0  0  0  0  0  0  0  0  0  0
    4.2696   -0.5245   -0.7444 C   0  0  0  0  0  0  0  0  0  0  0  0
    5.5785   -0.1499   -0.9992 C   0  0  0  0  0  0  0  0  0  0  0  0
    6.6423   -0.8439   -0.4605 C   0  0  0  0  0  0  0  0  0  0  0  0
    6.4423   -1.9399    0.3545 C   0  0  0  0  0  0  0  0  0  0  0  0
    7.9421   -2.8858    1.0901 Br  0  0  0  0  0  0  0  0  0  0  0  0
    5.1418   -2.3262    0.6182 C   0  0  0  0  0  0  0  0  0  0  0  0
    4.0724   -1.6198    0.0701 C   0  0  0  0  0  0  0  0  0  0  0  0
   -5.6210    1.8415    4.0013 H   0  0  0  0  0  0  0  0  0  0  0  0
   -6.1701    0.2732    3.2054 H   0  0  0  0  0  0  0  0  0  0  0  0
   -6.3503    1.8445    2.3649 H   0  0  0  0  0  0  0  0  0  0  0  0
   -6.4324   -0.1473    1.2280 H   0  0  0  0  0  0  0  0  0  0  0  0
   -4.0580   -1.8054   -1.8221 H   0  0  0  0  0  0  0  0  0  0  0  0
   -2.0457   -0.7793   -0.8672 H   0  0  0  0  0  0  0  0  0  0  0  0
   -2.1367    1.9068    1.6019 H   0  0  0  0  0  0  0  0  0  0  0  0
   -1.7952    0.4103    2.4610 H   0  0  0  0  0  0  0  0  0  0  0  0
    0.1034    0.1038    1.1981 H   0  0  0  0  0  0  0  0  0  0  0  0
    0.2785    2.2759   -2.9017 H   0  0  0  0  0  0  0  0  0  0  0  0
    4.2204    0.7702   -3.0910 H   0  0  0  0  0  0  0  0  0  0  0  0
    1.8825   -0.1070    0.2806 H   0  0  0  0  0  0  0  0  0  0  0  0
    5.7516    0.7197   -1.6453 H   0  0  0  0  0  0  0  0  0  0  0  0
    7.6627   -0.5554   -0.6563 H   0  0  0  0  0  0  0  0  0  0  0  0
    4.9444   -3.1950    1.2638 H   0  0  0  0  0  0  0  0  0  0  0  0
    3.0502   -1.9175    0.2732 H   0  0  0  0  0  0  0  0  0  0  0  0
  1  2  1  0
  2  3  1  0
  3  4  2  0
  4  5  1  0
  5  6  1  0
  5  7  2  0
  7  8  1  0
  8  9  2  0
  9 10  1  0
 10 11  1  0
 11 12  1  0
 12 13  2  0
 12 14  1  0
 14 15  2  0
 15 16  1  0
 16 17  2  0
 17 18  1  0
 18 19  2  0
 18 20  1  0
 20 21  2  0
 21 22  1  0
 22 23  2  0
 23 24  1  0
 23 25  1  0
 25 26  2  0
  9  3  1  0
 19 14  1  0
 26 20  1  0
  1 27  1  0
  1 28  1  0
  1 29  1  0
  4 30  1  0
  7 31  1  0
  8 32  1  0
 10 33  1  0
 10 34  1  0
 11 35  1  0
 15 36  1  0
 17 37  1  0
 19 38  1  0
 21 39  1  0
 22 40  1  0
 25 41  1  0
 26 42  1  0
M  END
$$$$
[H]c1nc2c([H])c(-c3c([H])nn(C4([H])C([H])([H])C([H])([H])N([H])C([H])([H])C4([H])[H])c3[H])c([H])c([H])c2c(N([H])[H])c1-c1c([H])c([H])c(C([H])([H])N2C([H])([H])C([H])([H])N(C([H])([H])[H])C([H])([H])C2([H])[H])c([H])c1[H]
     RDKit          3D

 71 76  0  0  0  0  0  0  0  0999 V2000
   -9.1921   -1.4409    2.6137 C   0  0  0  0  0  0  0  0  0  0  0  0
   -8.6814   -0.1342    2.3288 N   0  0  0  0  0  0  0  0  0  0  0  0
   -9.2335    0.4177    1.1077 C   0  0  0  0  0  0  0  0  0  0  0  0
   -8.7475   -0.3109   -0.1267 C   0  0  0  0  0  0  0  0  0  0  0  0
   -7.2972   -0.4137   -0.1417 N   0  0  0  0  0  0  0  0  0  0  0  0
   -6.7180    0.8055   -0.6029 C   0  0  0  0  0  0  0  0  0  0  0  0
   -5.2367    0.8086   -0.6620 C   0  0  0  0  0  0  0  0  0  0  0  0
   -4.5735    0.2208   -1.7213 C   0  0  0  0  0  0  0  0  0  0  0  0
   -3.1971    0.2176   -1.8028 C   0  0  0  0  0  0  0  0  0  0  0  0
   -2.4022    0.7974   -0.8374 C   0  0  0  0  0  0  0  0  0  0  0  0
   -3.0739    1.3899    0.2305 C   0  0  0  0  0  0  0  0  0  0  0  0
   -4.4499    1.3957    0.3164 C   0  0  0  0  0  0  0  0  0  0  0  0
   -0.9476    0.8080   -0.8905 C   0  0  0  0  0  0  0  0  0  0  0  0
   -0.2087    1.9599   -0.6775 C   0  0  0  0  0  0  0  0  0  0  0  0
    1.1477    1.9471   -0.7394 N   0  0  0  0  0  0  0  0  0  0  0  0
    1.8448    0.8237   -1.0090 C   0  0  0  0  0  0  0  0  0  0  0  0
    3.2252    0.8127   -1.0726 C   0  0  0  0  0  0  0  0  0  0  0  0
    3.9193   -0.3500   -1.3511 C   0  0  0  0  0  0  0  0  0  0  0  0
    3.1559   -1.4824   -1.5587 C   0  0  0  0  0  0  0  0  0  0  0  0
    1.7924   -1.5017   -1.5025 C   0  0  0  0  0  0  0  0  0  0  0  0
    1.1079   -0.3326   -1.2230 C   0  0  0  0  0  0  0  0  0  0  0  0
   -0.2768   -0.3427   -1.1646 C   0  0  0  0  0  0  0  0  0  0  0  0
   -0.9631   -1.5613   -1.3870 N   0  0  0  0  0  0  0  0  0  0  0  0
    5.3770   -0.3713   -1.4208 C   0  0  0  0  0  0  0  0  0  0  0  0
    6.1799   -1.1758   -2.2029 C   0  0  0  0  0  0  0  0  0  0  0  0
    7.4392   -0.8574   -1.9471 N   0  0  0  0  0  0  0  0  0  0  0  0
    7.5352    0.1121   -1.0407 N   0  0  0  0  0  0  0  0  0  0  0  0
    6.2681    0.4183   -0.7104 C   0  0  0  0  0  0  0  0  0  0  0  0
    8.7795    0.7032   -0.5271 C   0  0  0  0  0  0  0  0  0  0  0  0
    9.7687   -0.3808   -0.1650 C   0  0  0  0  0  0  0  0  0  0  0  0
    9.4792   -0.9964    1.1782 C   0  0  0  0  0  0  0  0  0  0  0  0
    9.4106    0.0209    2.1868 N   0  0  0  0  0  0  0  0  0  0  0  0
    8.3379    0.9630    1.9263 C   0  0  0  0  0  0  0  0  0  0  0  0
    8.5103    1.6482    0.5905 C   0  0  0  0  0  0  0  0  0  0  0  0
   -6.7715   -0.8783    1.1043 C   0  0  0  0  0  0  0  0  0  0  0  0
   -7.2462   -0.0556    2.2818 C   0  0  0  0  0  0  0  0  0  0  0  0
   -8.4141   -2.2151    2.7610 H   0  0  0  0  0  0  0  0  0  0  0  0
   -9.8490   -1.3838    3.5061 H   0  0  0  0  0  0  0  0  0  0  0  0
   -9.7955   -1.7634    1.7167 H   0  0  0  0  0  0  0  0  0  0  0  0
  -10.3313    0.3010    1.1563 H   0  0  0  0  0  0  0  0  0  0  0  0
   -9.0077    1.5004    1.0690 H   0  0  0  0  0  0  0  0  0  0  0  0
   -9.2553   -1.2774   -0.2228 H   0  0  0  0  0  0  0  0  0  0  0  0
   -9.0369    0.3088   -1.0002 H   0  0  0  0  0  0  0  0  0  0  0  0
   -7.1554    1.0058   -1.6253 H   0  0  0  0  0  0  0  0  0  0  0  0
   -7.1108    1.6303    0.0294 H   0  0  0  0  0  0  0  0  0  0  0  0
   -5.1858   -0.2467   -2.5012 H   0  0  0  0  0  0  0  0  0  0  0  0
   -2.7633   -0.2542   -2.6568 H   0  0  0  0  0  0  0  0  0  0  0  0
   -2.4586    1.8550    1.0059 H   0  0  0  0  0  0  0  0  0  0  0  0
   -4.9764    1.8548    1.1436 H   0  0  0  0  0  0  0  0  0  0  0  0
   -0.7540    2.8671   -0.4609 H   0  0  0  0  0  0  0  0  0  0  0  0
    3.7337    1.7457   -0.8962 H   0  0  0  0  0  0  0  0  0  0  0  0
    3.6663   -2.4094   -1.7787 H   0  0  0  0  0  0  0  0  0  0  0  0
    1.1958   -2.3983   -1.6671 H   0  0  0  0  0  0  0  0  0  0  0  0
   -0.9321   -2.0800   -2.2984 H   0  0  0  0  0  0  0  0  0  0  0  0
   -1.5342   -1.9698   -0.6000 H   0  0  0  0  0  0  0  0  0  0  0  0
    5.7844   -1.9187   -2.8863 H   0  0  0  0  0  0  0  0  0  0  0  0
    5.9387    1.1551   -0.0074 H   0  0  0  0  0  0  0  0  0  0  0  0
    9.2243    1.2779   -1.3654 H   0  0  0  0  0  0  0  0  0  0  0  0
   10.7918    0.0160   -0.1518 H   0  0  0  0  0  0  0  0  0  0  0  0
    9.7226   -1.1736   -0.9247 H   0  0  0  0  0  0  0  0  0  0  0  0
    8.5933   -1.6630    1.1770 H   0  0  0  0  0  0  0  0  0  0  0  0
   10.3527   -1.6504    1.4224 H   0  0  0  0  0  0  0  0  0  0  0  0
    9.1856   -0.4449    3.0989 H   0  0  0  0  0  0  0  0  0  0  0  0
    7.3386    0.4899    2.0352 H   0  0  0  0  0  0  0  0  0  0  0  0
    8.3993    1.7495    2.7071 H   0  0  0  0  0  0  0  0  0  0  0  0
    7.6082    2.2385    0.3677 H   0  0  0  0  0  0  0  0  0  0  0  0
    9.4059    2.3253    0.7133 H   0  0  0  0  0  0  0  0  0  0  0  0
   -5.6673   -0.8313    1.0894 H   0  0  0  0  0  0  0  0  0  0  0  0
   -7.0187   -1.9515    1.2935 H   0  0  0  0  0  0  0  0  0  0  0  0
   -6.7923   -0.5030    3.1954 H   0  0  0  0  0  0  0  0  0  0  0  0
   -6.9644    0.9953    2.1753 H   0  0  0  0  0  0  0  0  0  0  0  0
  1  2  1  0
  2  3  1  0
  3  4  1  0
  4  5  1  0
  5  6  1  0
  6  7  1  0
  7  8  2  0
  8  9  1  0
  9 10  2  0
 10 11  1  0
 11 12  2  0
 10 13  1  0
 13 14  2  0
 14 15  1  0
 15 16  2  0
 16 17  1  0
 17 18  2  0
 18 19  1  0
 19 20  2  0
 20 21  1  0
 21 22  2  0
 22 23  1  0
 18 24  1  0
 24 25  1  0
 25 26  2  0
 26 27  1  0
 27 28  1  0
 27 29  1  0
 29 30  1  0
 30 31  1  0
 31 32  1  0
 32 33  1  0
 33 34  1  0
  5 35  1  0
 35 36  1  0
 36  2  1  0
 12  7  1  0
 22 13  1  0
 28 24  2  0
 34 29  1  0
 21 16  1  0
  1 37  1  0
  1 38  1  0
  1 39  1  0
  3 40  1  0
  3 41  1  0
  4 42  1  0
  4 43  1  0
  6 44  1  0
  6 45  1  0
  8 46  1  0
  9 47  1  0
 11 48  1  0
 12 49  1  0
 14 50  1  0
 17 51  1  0
 19 52  1  0
 20 53  1  0
 23 54  1  0
 23 55  1  0
 25 56  1  0
 28 57  1  0
 29 58  1  0
 30 59  1  0
 30 60  1  0
 31 61  1  0
 31 62  1  0
 32 63  1  0
 33 64  1  0
 33 65  1  0
 34 66  1  0
 34 67  1  0
 35 68  1  0
 35 69  1  0
 36 70  1  0
 36 71  1  0
M  END
$$$$
[H]c1c([H])c(N([H])C(=O)N([H])C([H])([H])C([H])([H])[H])c(C#N)c([H])c1-c1nc(C([H])([H])[H])c(C#N)s1
     RDKit          3D

 35 36  0  0  0  0  0  0  0  0999 V2000
   -5.9144    0.4666   -1.7203 C   0  0  0  0  0  0  0  0  0  0  0  0
   -5.9026    1.1722   -0.3848 C   0  0  0  0  0  0  0  0  0  0  0  0
   -4.8555    0.5995    0.4293 N   0  0  0  0  0  0  0  0  0  0  0  0
   -3.4711    0.6324    0.0088 C   0  0  0  0  0  0  0  0  0  0  0  0
   -3.2688    1.1864   -1.0932 O   0  0  0  0  0  0  0  0  0  0  0  0
   -2.5021    0.0533    0.8554 N   0  0  0  0  0  0  0  0  0  0  0  0
   -1.1071   -0.0132    0.6204 C   0  0  0  0  0  0  0  0  0  0  0  0
   -0.4616    0.4819   -0.4845 C   0  0  0  0  0  0  0  0  0  0  0  0
    0.9229    0.3599   -0.6115 C   0  0  0  0  0  0  0  0  0  0  0  0
    1.6702   -0.2506    0.3516 C   0  0  0  0  0  0  0  0  0  0  0  0
    1.0003   -0.7377    1.4476 C   0  0  0  0  0  0  0  0  0  0  0  0
   -0.3562   -0.6436    1.6203 C   0  0  0  0  0  0  0  0  0  0  0  0
   -0.9971   -1.1854    2.8124 C   0  0  0  0  0  0  0  0  0  0  0  0
   -1.5164   -1.6028    3.7432 N   0  0  0  0  0  0  0  0  0  0  0  0
    3.1223   -0.4005    0.2599 C   0  0  0  0  0  0  0  0  0  0  0  0
    3.9838   -0.0365   -0.6523 N   0  0  0  0  0  0  0  0  0  0  0  0
    5.2468   -0.2837   -0.5107 C   0  0  0  0  0  0  0  0  0  0  0  0
    6.2727    0.1239   -1.5481 C   0  0  0  0  0  0  0  0  0  0  0  0
    5.6461   -0.9383    0.6256 C   0  0  0  0  0  0  0  0  0  0  0  0
    4.1391   -1.1559    1.4274 S   0  0  0  0  0  0  0  0  0  0  0  0
    6.9764   -1.3351    1.0330 C   0  0  0  0  0  0  0  0  0  0  0  0
    8.0278   -1.6586    1.3748 N   0  0  0  0  0  0  0  0  0  0  0  0
   -6.9542    0.3957   -2.0841 H   0  0  0  0  0  0  0  0  0  0  0  0
   -5.3439    1.1193   -2.4413 H   0  0  0  0  0  0  0  0  0  0  0  0
   -5.4204   -0.4995   -1.6192 H   0  0  0  0  0  0  0  0  0  0  0  0
   -5.7848    2.2744   -0.4949 H   0  0  0  0  0  0  0  0  0  0  0  0
   -6.8754    0.9661    0.0957 H   0  0  0  0  0  0  0  0  0  0  0  0
   -5.0707    0.1501    1.3367 H   0  0  0  0  0  0  0  0  0  0  0  0
   -2.8908   -0.3725    1.7626 H   0  0  0  0  0  0  0  0  0  0  0  0
   -1.0135    0.9712   -1.2685 H   0  0  0  0  0  0  0  0  0  0  0  0
    1.3991    0.7622   -1.4968 H   0  0  0  0  0  0  0  0  0  0  0  0
    1.5927   -1.2343    2.2350 H   0  0  0  0  0  0  0  0  0  0  0  0
    6.5927   -0.7729   -2.1301 H   0  0  0  0  0  0  0  0  0  0  0  0
    7.2067    0.4700   -1.0157 H   0  0  0  0  0  0  0  0  0  0  0  0
    5.9071    0.9363   -2.1848 H   0  0  0  0  0  0  0  0  0  0  0  0
  1  2  1  0
  2  3  1  0
  3  4  1  0
  4  5  2  0
  4  6  1  0
  6  7  1  0
  7  8  2  0
  8  9  1  0
  9 10  2  0
 10 11  1  0
 11 12  2  0
 12 13  1  0
 13 14  3  0
 10 15  1  0
 15 16  2  0
 16 17  1  0
 17 18  1  0
 17 19  2  0
 19 20  1  0
 19 21  1  0
 21 22  3  0
 12  7  1  0
 20 15  1  0
  1 23  1  0
  1 24  1  0
  1 25  1  0
  2 26  1  0
  2 27  1  0
  3 28  1  0
  6 29  1  0
  8 30  1  0
  9 31  1  0
 11 32  1  0
 18 33  1  0
 18 34  1  0
 18 35  1  0
M  END
$$$$
[H]c1c([H])c([H])c(N([H])c2c([H])c([H])c3c(c2[H])C([H])([H])C([H])([H])[C@]([H])(N([H])[N+](=O)[O-])C([H])([H])C(=O)N3C([H])([H])[H])c([H])c1[H]
     RDKit          3D

 45 47  0  0  0  0  0  0  0  0999 V2000
    6.5268    2.2015   -0.2900 O   0  0  0  0  0  0  0  0  0  0  0  0
    5.7118    1.4760   -1.1208 N   0  0  0  0  0  0  0  0  0  0  0  0
    5.4246    1.8460   -2.2563 O   0  0  0  0  0  0  0  0  0  0  0  0
    5.1762    0.2618   -0.6731 N   0  0  0  0  0  0  0  0  0  0  0  0
    4.0814    0.1976    0.2879 C   0  0  1  0  0  0  0  0  0  0  0  0
    2.9242    0.9064   -0.3269 C   0  0  0  0  0  0  0  0  0  0  0  0
    1.8490    1.3431    0.6399 C   0  0  0  0  0  0  0  0  0  0  0  0
    0.6577    0.4270    0.4617 C   0  0  0  0  0  0  0  0  0  0  0  0
   -0.4414    1.1432    0.8062 C   0  0  0  0  0  0  0  0  0  0  0  0
   -1.6932    0.5058    0.7284 C   0  0  0  0  0  0  0  0  0  0  0  0
   -2.8413    1.2424    1.1238 N   0  0  0  0  0  0  0  0  0  0  0  0
   -4.1299    0.9923    0.6191 C   0  0  0  0  0  0  0  0  0  0  0  0
   -5.2238    1.3622    1.4173 C   0  0  0  0  0  0  0  0  0  0  0  0
   -6.5156    1.1954    1.0106 C   0  0  0  0  0  0  0  0  0  0  0  0
   -6.8153    0.6516   -0.2127 C   0  0  0  0  0  0  0  0  0  0  0  0
   -5.7690    0.2771   -1.0231 C   0  0  0  0  0  0  0  0  0  0  0  0
   -4.4523    0.4546   -0.5928 C   0  0  0  0  0  0  0  0  0  0  0  0
   -1.7787   -0.8008    0.3153 C   0  0  0  0  0  0  0  0  0  0  0  0
   -0.6488   -1.5149   -0.0320 C   0  0  0  0  0  0  0  0  0  0  0  0
    0.5711   -0.8925    0.0435 C   0  0  0  0  0  0  0  0  0  0  0  0
    1.5211   -1.8598   -0.3692 N   0  0  0  0  0  0  0  0  0  0  0  0
    0.9517   -2.8562   -1.2249 C   0  0  0  0  0  0  0  0  0  0  0  0
    2.9089   -1.9883   -0.0798 C   0  0  0  0  0  0  0  0  0  0  0  0
    3.3698   -3.0336   -0.6448 O   0  0  0  0  0  0  0  0  0  0  0  0
    3.8826   -1.2068    0.6980 C   0  0  0  0  0  0  0  0  0  0  0  0
    5.5848   -0.6040   -1.0491 H   0  0  0  0  0  0  0  0  0  0  0  0
    4.4607    0.7510    1.1833 H   0  0  0  0  0  0  0  0  0  0  0  0
    2.5476    0.3616   -1.1999 H   0  0  0  0  0  0  0  0  0  0  0  0
    3.3415    1.8700   -0.7512 H   0  0  0  0  0  0  0  0  0  0  0  0
    1.4647    2.3556    0.4328 H   0  0  0  0  0  0  0  0  0  0  0  0
    2.2031    1.2811    1.6826 H   0  0  0  0  0  0  0  0  0  0  0  0
   -0.3300    2.1543    1.1220 H   0  0  0  0  0  0  0  0  0  0  0  0
   -2.7102    2.0245    1.8406 H   0  0  0  0  0  0  0  0  0  0  0  0
   -5.0062    1.7905    2.3802 H   0  0  0  0  0  0  0  0  0  0  0  0
   -7.3542    1.4885    1.6435 H   0  0  0  0  0  0  0  0  0  0  0  0
   -7.8515    0.5286   -0.5140 H   0  0  0  0  0  0  0  0  0  0  0  0
   -5.9902   -0.1490   -1.9812 H   0  0  0  0  0  0  0  0  0  0  0  0
   -3.6568    0.1618   -1.2699 H   0  0  0  0  0  0  0  0  0  0  0  0
   -2.7156   -1.3220    0.2621 H   0  0  0  0  0  0  0  0  0  0  0  0
   -0.6683   -2.5370   -0.3566 H   0  0  0  0  0  0  0  0  0  0  0  0
    1.8615   -3.1487   -1.8641 H   0  0  0  0  0  0  0  0  0  0  0  0
    0.3163   -2.4935   -2.0557 H   0  0  0  0  0  0  0  0  0  0  0  0
    0.7384   -3.8351   -0.8027 H   0  0  0  0  0  0  0  0  0  0  0  0
    3.6447   -1.2709    1.7995 H   0  0  0  0  0  0  0  0  0  0  0  0
    4.8720   -1.7381    0.5998 H   0  0  0  0  0  0  0  0  0  0  0  0
  1  2  1  0
  2  3  2  0
  2  4  1  0
  4  5  1  0
  5  6  1  0
  6  7  1  0
  7  8  1  0
  8  9  2  0
  9 10  1  0
 10 11  1  0
 11 12  1  0
 12 13  2  0
 13 14  1  0
 14 15  2  0
 15 16  1  0
 16 17  2  0
 10 18  2  0
 18 19  1  0
 19 20  2  0
 20 21  1  0
 21 22  1  0
 21 23  1  0
 23 24  2  0
 23 25  1  0
 25  5  1  0
 20  8  1  0
 17 12  1  0
  4 26  1  0
  5 27  1  1
  6 28  1  0
  6 29  1  0
  7 30  1  0
  7 31  1  0
  9 32  1  0
 11 33  1  0
 13 34  1  0
 14 35  1  0
 15 36  1  0
 16 37  1  0
 17 38  1  0
 18 39  1  0
 19 40  1  0
 22 41  1  0
 22 42  1  0
 22 43  1  0
 25 44  1  0
 25 45  1  0
M  CHG  2   1  -1   2   1
M  END
$$$$
[H]c1nc2c(-c3c([H])c([H])c(N4C(=O)C5(N=C4N([H])[H])C([H])([H])C([H])([H])C([H])([H])C([H])([H])C5([H])[H])c([H])c3[H])c([H])c([H])c([H])c2c([H])c1[H]
     RDKit          3D

 50 54  0  0  0  0  0  0  0  0999 V2000
   -1.7694    2.5711    1.4394 N   0  0  0  0  0  0  0  0  0  0  0  0
   -2.3587    1.4479    0.7755 C   0  0  0  0  0  0  0  0  0  0  0  0
   -3.5999    1.2023    0.7978 N   0  0  0  0  0  0  0  0  0  0  0  0
   -3.8881    0.0056    0.0394 C   0  0  0  0  0  0  0  0  0  0  0  0
   -4.5213   -0.9890    0.9853 C   0  0  0  0  0  0  0  0  0  0  0  0
   -5.4658   -1.9351    0.2786 C   0  0  0  0  0  0  0  0  0  0  0  0
   -6.5456   -1.2292   -0.4862 C   0  0  0  0  0  0  0  0  0  0  0  0
   -6.2363    0.2645   -0.5696 C   0  0  0  0  0  0  0  0  0  0  0  0
   -4.8339    0.4032   -1.0728 C   0  0  0  0  0  0  0  0  0  0  0  0
   -2.5786   -0.4269   -0.4489 C   0  0  0  0  0  0  0  0  0  0  0  0
   -2.3381   -1.4219   -1.1533 O   0  0  0  0  0  0  0  0  0  0  0  0
   -1.6190    0.4933    0.0237 N   0  0  0  0  0  0  0  0  0  0  0  0
   -0.2038    0.4831   -0.1958 C   0  0  0  0  0  0  0  0  0  0  0  0
    0.6878    0.7962    0.7876 C   0  0  0  0  0  0  0  0  0  0  0  0
    2.0725    0.7973    0.6156 C   0  0  0  0  0  0  0  0  0  0  0  0
    2.5908    0.4642   -0.6157 C   0  0  0  0  0  0  0  0  0  0  0  0
    1.6921    0.1417   -1.6320 C   0  0  0  0  0  0  0  0  0  0  0  0
    0.3272    0.1457   -1.4451 C   0  0  0  0  0  0  0  0  0  0  0  0
    4.0197    0.4406   -0.8501 C   0  0  0  0  0  0  0  0  0  0  0  0
    4.5621    1.0852   -1.9569 C   0  0  0  0  0  0  0  0  0  0  0  0
    5.9128    1.0919   -2.2088 C   0  0  0  0  0  0  0  0  0  0  0  0
    6.7422    0.4368   -1.3308 C   0  0  0  0  0  0  0  0  0  0  0  0
    6.1992   -0.2113   -0.2186 C   0  0  0  0  0  0  0  0  0  0  0  0
    7.0598   -0.8663    0.6468 C   0  0  0  0  0  0  0  0  0  0  0  0
    6.5170   -1.5081    1.7418 C   0  0  0  0  0  0  0  0  0  0  0  0
    5.1505   -1.4948    1.9648 C   0  0  0  0  0  0  0  0  0  0  0  0
    4.3255   -0.8585    1.1226 N   0  0  0  0  0  0  0  0  0  0  0  0
    4.8471   -0.2274    0.0483 C   0  0  0  0  0  0  0  0  0  0  0  0
   -1.2062    3.2893    0.9521 H   0  0  0  0  0  0  0  0  0  0  0  0
   -1.8981    2.7019    2.4818 H   0  0  0  0  0  0  0  0  0  0  0  0
   -3.7326   -1.5851    1.4594 H   0  0  0  0  0  0  0  0  0  0  0  0
   -5.0602   -0.4510    1.7927 H   0  0  0  0  0  0  0  0  0  0  0  0
   -4.8976   -2.6665   -0.3319 H   0  0  0  0  0  0  0  0  0  0  0  0
   -5.9547   -2.5377    1.0905 H   0  0  0  0  0  0  0  0  0  0  0  0
   -7.5401   -1.3043    0.0213 H   0  0  0  0  0  0  0  0  0  0  0  0
   -6.6856   -1.6090   -1.5168 H   0  0  0  0  0  0  0  0  0  0  0  0
   -6.9940    0.7479   -1.2006 H   0  0  0  0  0  0  0  0  0  0  0  0
   -6.2743    0.6600    0.4666 H   0  0  0  0  0  0  0  0  0  0  0  0
   -4.6032    1.4054   -1.4824 H   0  0  0  0  0  0  0  0  0  0  0  0
   -4.6963   -0.3447   -1.8918 H   0  0  0  0  0  0  0  0  0  0  0  0
    0.3117    1.0647    1.7764 H   0  0  0  0  0  0  0  0  0  0  0  0
    2.6926    1.0709    1.4733 H   0  0  0  0  0  0  0  0  0  0  0  0
    2.0576   -0.1246   -2.6119 H   0  0  0  0  0  0  0  0  0  0  0  0
   -0.3731   -0.1072   -2.2431 H   0  0  0  0  0  0  0  0  0  0  0  0
    3.9158    1.5967   -2.6432 H   0  0  0  0  0  0  0  0  0  0  0  0
    6.3131    1.5965   -3.0712 H   0  0  0  0  0  0  0  0  0  0  0  0
    7.8227    0.4196   -1.4985 H   0  0  0  0  0  0  0  0  0  0  0  0
    8.1208   -0.8837    0.4843 H   0  0  0  0  0  0  0  0  0  0  0  0
    7.1691   -2.0322    2.4404 H   0  0  0  0  0  0  0  0  0  0  0  0
    4.7645   -2.0090    2.8339 H   0  0  0  0  0  0  0  0  0  0  0  0
  1  2  1  0
  2  3  2  0
  3  4  1  0
  4  5  1  0
  5  6  1  0
  6  7  1  0
  7  8  1  0
  8  9  1  0
  4 10  1  0
 10 11  2  0
 10 12  1  0
 12 13  1  0
 13 14  2  0
 14 15  1  0
 15 16  2  0
 16 17  1  0
 17 18  2  0
 16 19  1  0
 19 20  2  0
 20 21  1  0
 21 22  2  0
 22 23  1  0
 23 24  2  0
 24 25  1  0
 25 26  2  0
 26 27  1  0
 27 28  2  0
 12  2  1  0
 18 13  1  0
 28 19  1  0
  9  4  1  0
 28 23  1  0
  1 29  1  0
  1 30  1  0
  5 31  1  0
  5 32  1  0
  6 33  1  0
  6 34  1  0
  7 35  1  0
  7 36  1  0
  8 37  1  0
  8 38  1  0
  9 39  1  0
  9 40  1  0
 14 41  1  0
 15 42  1  0
 17 43  1  0
 18 44  1  0
 20 45  1  0
 21 46  1  0
 22 47  1  0
 24 48  1  0
 25 49  1  0
 26 50  1  0
M  END
$$$$
[H]c1nc(-c2nc(N3C([H])([H])C([H])([H])OC([H])([H])C3([H])[H])c3c(n2)N(C([H])(C([H])([H])[H])C([H])([H])[H])C([H])([H])C3([H])[H])n(C([H])(C([H])([H])[H])C([H])([H])[H])n1
     RDKit          3D

 53 56  0  0  0  0  0  0  0  0999 V2000
   -1.5910   -3.7538    1.2333 C   0  0  0  0  0  0  0  0  0  0  0  0
   -1.8852   -3.3495   -0.1926 C   0  0  0  0  0  0  0  0  0  0  0  0
   -2.5965   -4.5389   -0.8434 C   0  0  0  0  0  0  0  0  0  0  0  0
   -2.8092   -2.2435   -0.1766 N   0  0  0  0  0  0  0  0  0  0  0  0
   -4.1336   -2.4119   -0.1932 N   0  0  0  0  0  0  0  0  0  0  0  0
   -4.7392   -1.2155   -0.1705 C   0  0  0  0  0  0  0  0  0  0  0  0
   -3.7475   -0.3162   -0.1396 N   0  0  0  0  0  0  0  0  0  0  0  0
   -2.5257   -0.9517   -0.1431 C   0  0  0  0  0  0  0  0  0  0  0  0
   -1.2380   -0.2739   -0.1103 C   0  0  0  0  0  0  0  0  0  0  0  0
   -0.0613   -0.8929   -0.1144 N   0  0  0  0  0  0  0  0  0  0  0  0
    1.0977   -0.2041   -0.0761 C   0  0  0  0  0  0  0  0  0  0  0  0
    2.4255   -0.6490   -0.0736 N   0  0  0  0  0  0  0  0  0  0  0  0
    3.1947    0.4294    0.5655 C   0  0  0  0  0  0  0  0  0  0  0  0
    2.4632    1.6368    0.0071 C   0  0  0  0  0  0  0  0  0  0  0  0
    1.0565    1.1762   -0.0315 C   0  0  0  0  0  0  0  0  0  0  0  0
   -0.1558    1.8562   -0.0262 C   0  0  0  0  0  0  0  0  0  0  0  0
   -1.2505    1.0888   -0.0662 N   0  0  0  0  0  0  0  0  0  0  0  0
   -0.1929    3.2689    0.0178 N   0  0  0  0  0  0  0  0  0  0  0  0
    0.3538    4.0615    1.0748 C   0  0  0  0  0  0  0  0  0  0  0  0
   -0.4725    5.2865    1.3774 C   0  0  0  0  0  0  0  0  0  0  0  0
   -1.5904    5.3903    0.5574 O   0  0  0  0  0  0  0  0  0  0  0  0
   -1.1249    5.3967   -0.7568 C   0  0  0  0  0  0  0  0  0  0  0  0
   -0.8486    3.9494   -1.1107 C   0  0  0  0  0  0  0  0  0  0  0  0
    3.0289   -1.8467   -0.5484 C   0  0  0  0  0  0  0  0  0  0  0  0
    2.0985   -2.8121   -1.1873 C   0  0  0  0  0  0  0  0  0  0  0  0
    3.8191   -2.5088    0.5814 C   0  0  0  0  0  0  0  0  0  0  0  0
   -2.5262   -3.5944    1.8079 H   0  0  0  0  0  0  0  0  0  0  0  0
   -1.4223   -4.8672    1.2250 H   0  0  0  0  0  0  0  0  0  0  0  0
   -0.7397   -3.2285    1.6764 H   0  0  0  0  0  0  0  0  0  0  0  0
   -0.9608   -3.1511   -0.7240 H   0  0  0  0  0  0  0  0  0  0  0  0
   -2.1433   -5.4487   -0.4157 H   0  0  0  0  0  0  0  0  0  0  0  0
   -3.6528   -4.4621   -0.5599 H   0  0  0  0  0  0  0  0  0  0  0  0
   -2.4179   -4.5517   -1.9219 H   0  0  0  0  0  0  0  0  0  0  0  0
   -5.8091   -1.0644   -0.1771 H   0  0  0  0  0  0  0  0  0  0  0  0
    3.0106    0.3921    1.6409 H   0  0  0  0  0  0  0  0  0  0  0  0
    4.2458    0.3989    0.2692 H   0  0  0  0  0  0  0  0  0  0  0  0
    2.6607    2.4577    0.6935 H   0  0  0  0  0  0  0  0  0  0  0  0
    2.8200    1.7992   -1.0091 H   0  0  0  0  0  0  0  0  0  0  0  0
    0.4408    3.4916    2.0178 H   0  0  0  0  0  0  0  0  0  0  0  0
    1.3556    4.4527    0.7289 H   0  0  0  0  0  0  0  0  0  0  0  0
    0.1123    6.2209    1.2724 H   0  0  0  0  0  0  0  0  0  0  0  0
   -0.8546    5.2865    2.4245 H   0  0  0  0  0  0  0  0  0  0  0  0
   -1.8887    5.7591   -1.4740 H   0  0  0  0  0  0  0  0  0  0  0  0
   -0.1749    5.9619   -0.8685 H   0  0  0  0  0  0  0  0  0  0  0  0
   -1.8376    3.4542   -1.2161 H   0  0  0  0  0  0  0  0  0  0  0  0
   -0.3032    3.8214   -2.0461 H   0  0  0  0  0  0  0  0  0  0  0  0
    3.7997   -1.5508   -1.3175 H   0  0  0  0  0  0  0  0  0  0  0  0
    2.6761   -3.4916   -1.8456 H   0  0  0  0  0  0  0  0  0  0  0  0
    1.4037   -2.2523   -1.8490 H   0  0  0  0  0  0  0  0  0  0  0  0
    1.5631   -3.4389   -0.4462 H   0  0  0  0  0  0  0  0  0  0  0  0
    3.6953   -3.6005    0.5703 H   0  0  0  0  0  0  0  0  0  0  0  0
    3.4747   -2.1086    1.5700 H   0  0  0  0  0  0  0  0  0  0  0  0
    4.8975   -2.2579    0.5200 H   0  0  0  0  0  0  0  0  0  0  0  0
  1  2  1  0
  2  3  1  0
  2  4  1  0
  4  5  1  0
  5  6  2  0
  6  7  1  0
  7  8  2  0
  8  9  1  0
  9 10  2  0
 10 11  1  0
 11 12  1  0
 12 13  1  0
 13 14  1  0
 14 15  1  0
 15 16  1  0
 16 17  2  0
 16 18  1  0
 18 19  1  0
 19 20  1  0
 20 21  1  0
 21 22  1  0
 22 23  1  0
 12 24  1  0
 24 25  1  0
 24 26  1  0
  8  4  1  0
 17  9  1  0
 23 18  1  0
 15 11  2  0
  1 27  1  0
  1 28  1  0
  1 29  1  0
  2 30  1  0
  3 31  1  0
  3 32  1  0
  3 33  1  0
  6 34  1  0
 13 35  1  0
 13 36  1  0
 14 37  1  0
 14 38  1  0
 19 39  1  0
 19 40  1  0
 20 41  1  0
 20 42  1  0
 22 43  1  0
 22 44  1  0
 23 45  1  0
 23 46  1  0
 24 47  1  0
 25 48  1  0
 25 49  1  0
 25 50  1  0
 26 51  1  0
 26 52  1  0
 26 53  1  0
M  END
$$$$
[H]OC([H])(C([H])(C([H])([H])[H])C([H])([H])[H])[C@]1([H])O[C@@]([H])(OC(=O)C2([H])C([H])([H])C([H])([H])C([H])([H])C2([H])[H])[C@@]([H])(OC([H])([H])[H])C([H])([H])[C@]1([H])C([H])([H])[H]
     RDKit          3D

 52 53  0  0  0  0  0  0  0  0999 V2000
    1.1826    4.4858   -0.2193 C   0  0  0  0  0  0  0  0  0  0  0  0
    0.6297    3.2205   -0.4700 O   0  0  0  0  0  0  0  0  0  0  0  0
   -0.0296    2.8178    0.6924 C   0  0  1  0  0  0  0  0  0  0  0  0
   -1.5102    2.8100    0.3559 C   0  0  0  0  0  0  0  0  0  0  0  0
   -1.7757    1.5411   -0.4514 C   0  0  2  0  0  0  0  0  0  0  0  0
   -3.1142    1.6010   -1.1179 C   0  0  0  0  0  0  0  0  0  0  0  0
   -1.4404    0.3086    0.2892 C   0  0  1  0  0  0  0  0  0  0  0  0
   -0.7982    0.7326    1.4704 O   0  0  0  0  0  0  0  0  0  0  0  0
    0.3526    1.4711    1.1751 C   0  0  1  0  0  0  0  0  0  0  0  0
    1.1410    0.6919    0.3712 O   0  0  0  0  0  0  0  0  0  0  0  0
    2.3638    0.1760    0.7610 C   0  0  0  0  0  0  0  0  0  0  0  0
    2.6908    0.4861    1.9238 O   0  0  0  0  0  0  0  0  0  0  0  0
    3.2131   -0.6683   -0.1167 C   0  0  0  0  0  0  0  0  0  0  0  0
    2.5252   -1.9243   -0.5448 C   0  0  0  0  0  0  0  0  0  0  0  0
    3.5275   -3.0534   -0.4276 C   0  0  0  0  0  0  0  0  0  0  0  0
    4.8412   -2.3569   -0.1176 C   0  0  0  0  0  0  0  0  0  0  0  0
    4.3711   -1.1754    0.7197 C   0  0  0  0  0  0  0  0  0  0  0  0
   -2.5049   -0.6822    0.5700 C   0  0  0  0  0  0  0  0  0  0  0  0
   -3.5541   -0.2580    1.3574 O   0  0  0  0  0  0  0  0  0  0  0  0
   -3.0164   -1.4875   -0.5656 C   0  0  0  0  0  0  0  0  0  0  0  0
   -1.9377   -2.3184   -1.2347 C   0  0  0  0  0  0  0  0  0  0  0  0
   -3.9988   -2.5106    0.0444 C   0  0  0  0  0  0  0  0  0  0  0  0
    1.8958    4.3861    0.6393 H   0  0  0  0  0  0  0  0  0  0  0  0
    0.4027    5.2497   -0.0219 H   0  0  0  0  0  0  0  0  0  0  0  0
    1.7869    4.8441   -1.0788 H   0  0  0  0  0  0  0  0  0  0  0  0
    0.0545    3.5971    1.5059 H   0  0  0  0  0  0  0  0  0  0  0  0
   -2.1568    2.9070    1.2243 H   0  0  0  0  0  0  0  0  0  0  0  0
   -1.7799    3.6538   -0.3381 H   0  0  0  0  0  0  0  0  0  0  0  0
   -1.0168    1.6389   -1.2916 H   0  0  0  0  0  0  0  0  0  0  0  0
   -3.0062    1.1516   -2.1475 H   0  0  0  0  0  0  0  0  0  0  0  0
   -3.2646    2.7014   -1.3717 H   0  0  0  0  0  0  0  0  0  0  0  0
   -3.9531    1.2129   -0.5445 H   0  0  0  0  0  0  0  0  0  0  0  0
   -0.6419   -0.2381   -0.2606 H   0  0  0  0  0  0  0  0  0  0  0  0
    0.8711    1.6032    2.1697 H   0  0  0  0  0  0  0  0  0  0  0  0
    3.5453   -0.0317   -0.9602 H   0  0  0  0  0  0  0  0  0  0  0  0
    1.6409   -2.1897    0.0632 H   0  0  0  0  0  0  0  0  0  0  0  0
    2.2229   -1.8795   -1.6237 H   0  0  0  0  0  0  0  0  0  0  0  0
    3.2815   -3.7418    0.4066 H   0  0  0  0  0  0  0  0  0  0  0  0
    3.6044   -3.6449   -1.3695 H   0  0  0  0  0  0  0  0  0  0  0  0
    5.5375   -3.0081    0.4291 H   0  0  0  0  0  0  0  0  0  0  0  0
    5.2717   -1.9640   -1.0760 H   0  0  0  0  0  0  0  0  0  0  0  0
    3.9333   -1.5981    1.6458 H   0  0  0  0  0  0  0  0  0  0  0  0
    5.1455   -0.4261    0.8791 H   0  0  0  0  0  0  0  0  0  0  0  0
   -1.9814   -1.4612    1.2472 H   0  0  0  0  0  0  0  0  0  0  0  0
   -3.2786    0.1520    2.2139 H   0  0  0  0  0  0  0  0  0  0  0  0
   -3.5800   -0.9958   -1.3415 H   0  0  0  0  0  0  0  0  0  0  0  0
   -1.3088   -2.7407   -0.4206 H   0  0  0  0  0  0  0  0  0  0  0  0
   -1.3777   -1.7253   -1.9701 H   0  0  0  0  0  0  0  0  0  0  0  0
   -2.4387   -3.1694   -1.7236 H   0  0  0  0  0  0  0  0  0  0  0  0
   -4.6487   -1.9447    0.7540 H   0  0  0  0  0  0  0  0  0  0  0  0
   -4.5608   -3.0353   -0.7327 H   0  0  0  0  0  0  0  0  0  0  0  0
   -3.3585   -3.2110    0.6296 H   0  0  0  0  0  0  0  0  0  0  0  0
  1  2  1  0
  2  3  1  0
  3  4  1  0
  4  5  1  0
  5  6  1  0
  5  7  1  0
  7  8  1  0
  8  9  1  0
  9 10  1  0
 10 11  1  0
 11 12  2  0
 11 13  1  0
 13 14  1  0
 14 15  1  0
 15 16  1  0
 16 17  1  0
  7 18  1  0
 18 19  1  0
 18 20  1  0
 20 21  1  0
 20 22  1  0
  9  3  1  0
 17 13  1  0
  1 23  1  0
  1 24  1  0
  1 25  1  0
  3 26  1  1
  4 27  1  0
  4 28  1  0
  5 29  1  6
  6 30  1  0
  6 31  1  0
  6 32  1  0
  7 33  1  6
  9 34  1  1
 13 35  1  0
 14 36  1  0
 14 37  1  0
 15 38  1  0
 15 39  1  0
 16 40  1  0
 16 41  1  0
 17 42  1  0
 17 43  1  0
 18 44  1  0
 19 45  1  0
 20 46  1  0
 21 47  1  0
 21 48  1  0
 21 49  1  0
 22 50  1  0
 22 51  1  0
 22 52  1  0
M  END
$$$$
[H]OC([H])([H])[C@@]1([H])O[C@]([H])(O[C@@]2([H])C(=O)O[C@]([H])(C([H])=C([H])[H])[C@]2([H])O[H])[C@@]([H])(O[H])[C@@]1([H])O[H]
     RDKit          3D

 35 36  0  0  0  0  0  0  0  0999 V2000
   -3.9354   -0.0973    2.1473 O   0  0  0  0  0  0  0  0  0  0  0  0
   -3.9889    0.8878    1.1839 C   0  0  0  0  0  0  0  0  0  0  0  0
   -2.9742    0.7254    0.1000 C   0  0  1  0  0  0  0  0  0  0  0  0
   -1.6727    0.7387    0.5193 O   0  0  0  0  0  0  0  0  0  0  0  0
   -0.9549   -0.1824   -0.2245 C   0  0  2  0  0  0  0  0  0  0  0  0
    0.3265    0.1564   -0.4846 O   0  0  0  0  0  0  0  0  0  0  0  0
    1.3148   -0.6290   -0.0114 C   0  0  2  0  0  0  0  0  0  0  0  0
    2.2329    0.2110    0.8872 C   0  0  1  0  0  0  0  0  0  0  0  0
    3.0177   -0.6436    1.6434 O   0  0  0  0  0  0  0  0  0  0  0  0
    3.0967    0.9073   -0.1287 C   0  0  2  0  0  0  0  0  0  0  0  0
    3.3673   -0.1113   -1.0624 O   0  0  0  0  0  0  0  0  0  0  0  0
    2.2640   -0.9512   -1.1337 C   0  0  0  0  0  0  0  0  0  0  0  0
    2.0538   -1.8581   -1.9934 O   0  0  0  0  0  0  0  0  0  0  0  0
    4.3036    1.4656    0.4883 C   0  0  0  0  0  0  0  0  0  0  0  0
    5.4877    1.3392   -0.0878 C   0  0  0  0  0  0  0  0  0  0  0  0
   -1.8113   -0.4899   -1.4248 C   0  0  1  0  0  0  0  0  0  0  0  0
   -1.4953   -1.6468   -2.0677 O   0  0  0  0  0  0  0  0  0  0  0  0
   -3.1496   -0.5605   -0.6835 C   0  0  1  0  0  0  0  0  0  0  0  0
   -3.1112   -1.6398    0.1922 O   0  0  0  0  0  0  0  0  0  0  0  0
   -4.7508   -0.1150    2.6787 H   0  0  0  0  0  0  0  0  0  0  0  0
   -3.8774    1.9093    1.5998 H   0  0  0  0  0  0  0  0  0  0  0  0
   -4.9954    0.8534    0.7094 H   0  0  0  0  0  0  0  0  0  0  0  0
   -3.1140    1.5558   -0.6219 H   0  0  0  0  0  0  0  0  0  0  0  0
   -0.9453   -1.1310    0.3857 H   0  0  0  0  0  0  0  0  0  0  0  0
    1.0428   -1.5059    0.5619 H   0  0  0  0  0  0  0  0  0  0  0  0
    1.6418    0.9085    1.5025 H   0  0  0  0  0  0  0  0  0  0  0  0
    2.9003   -1.5865    1.3620 H   0  0  0  0  0  0  0  0  0  0  0  0
    2.5329    1.7048   -0.6503 H   0  0  0  0  0  0  0  0  0  0  0  0
    4.2247    1.9900    1.4308 H   0  0  0  0  0  0  0  0  0  0  0  0
    6.3732    1.7546    0.3750 H   0  0  0  0  0  0  0  0  0  0  0  0
    5.5727    0.8164   -1.0295 H   0  0  0  0  0  0  0  0  0  0  0  0
   -1.9292    0.3961   -2.0966 H   0  0  0  0  0  0  0  0  0  0  0  0
   -2.3199   -2.1817   -2.1999 H   0  0  0  0  0  0  0  0  0  0  0  0
   -3.9986   -0.5561   -1.3512 H   0  0  0  0  0  0  0  0  0  0  0  0
   -2.7292   -2.4340   -0.2167 H   0  0  0  0  0  0  0  0  0  0  0  0
  1  2  1  0
  2  3  1  0
  3  4  1  0
  4  5  1  0
  5  6  1  0
  6  7  1  0
  7  8  1  0
  8  9  1  0
  8 10  1  0
 10 11  1  0
 11 12  1  0
 12 13  2  0
 10 14  1  0
 14 15  2  3
  5 16  1  0
 16 17  1  0
 16 18  1  0
 18 19  1  0
 18  3  1  0
 12  7  1  0
  1 20  1  0
  2 21  1  0
  2 22  1  0
  3 23  1  6
  5 24  1  1
  7 25  1  1
  8 26  1  1
  9 27  1  0
 10 28  1  6
 14 29  1  0
 15 30  1  0
 15 31  1  0
 16 32  1  6
 17 33  1  0
 18 34  1  6
 19 35  1  0
M  END
$$$$
[H]C1=C(c2nn([H])c3c2sc2c([H])c([H])c(C([H])([H])N([H])C([H])([H])C([H])([H])OC([H])([H])[H])c([H])c23)C([H])([H])C([H])([H])C([H])([H])C([H])([H])C([H])([H])C1([H])[H]
     RDKit          3D

 53 56  0  0  0  0  0  0  0  0999 V2000
    9.2303    1.0496    0.8158 C   0  0  0  0  0  0  0  0  0  0  0  0
    8.4058   -0.0038    1.2624 O   0  0  0  0  0  0  0  0  0  0  0  0
    7.1122    0.2033    0.8110 C   0  0  0  0  0  0  0  0  0  0  0  0
    6.1875   -0.9046    1.2569 C   0  0  0  0  0  0  0  0  0  0  0  0
    4.8253   -0.7231    0.8031 N   0  0  0  0  0  0  0  0  0  0  0  0
    4.7017   -0.8576   -0.6215 C   0  0  0  0  0  0  0  0  0  0  0  0
    3.3143   -0.6933   -1.1286 C   0  0  0  0  0  0  0  0  0  0  0  0
    3.2053   -0.6285   -2.5135 C   0  0  0  0  0  0  0  0  0  0  0  0
    1.9284   -0.4857   -2.9985 C   0  0  0  0  0  0  0  0  0  0  0  0
    0.8276   -0.4134   -2.1275 C   0  0  0  0  0  0  0  0  0  0  0  0
   -0.8467   -0.2460   -2.3677 S   0  0  0  0  0  0  0  0  0  0  0  0
   -1.3821   -0.2599   -0.7408 C   0  0  0  0  0  0  0  0  0  0  0  0
   -2.4653   -0.1934    0.1083 C   0  0  0  0  0  0  0  0  0  0  0  0
   -3.8841   -0.0493   -0.1931 C   0  0  0  0  0  0  0  0  0  0  0  0
   -4.1183    0.0259   -1.4968 C   0  0  0  0  0  0  0  0  0  0  0  0
   -5.4443    0.1819   -2.2909 C   0  0  0  0  0  0  0  0  0  0  0  0
   -6.4360    0.4519   -1.3349 C   0  0  0  0  0  0  0  0  0  0  0  0
   -7.5753    0.8160   -0.6216 C   0  0  0  0  0  0  0  0  0  0  0  0
   -7.1953    0.7114    0.8879 C   0  0  0  0  0  0  0  0  0  0  0  0
   -5.7560    1.0044    1.1999 C   0  0  0  0  0  0  0  0  0  0  0  0
   -4.7210   -0.0325    1.0818 C   0  0  0  0  0  0  0  0  0  0  0  0
   -1.9223   -0.2940    1.3434 N   0  0  0  0  0  0  0  0  0  0  0  0
   -0.6222   -0.4125    1.2706 N   0  0  0  0  0  0  0  0  0  0  0  0
   -0.2098   -0.3976   -0.0475 C   0  0  0  0  0  0  0  0  0  0  0  0
    0.9427   -0.4779   -0.7663 C   0  0  0  0  0  0  0  0  0  0  0  0
    2.2645   -0.6250   -0.2748 C   0  0  0  0  0  0  0  0  0  0  0  0
   10.2805    0.8735    1.1834 H   0  0  0  0  0  0  0  0  0  0  0  0
    9.2277    1.1014   -0.2907 H   0  0  0  0  0  0  0  0  0  0  0  0
    8.8692    2.0180    1.2380 H   0  0  0  0  0  0  0  0  0  0  0  0
    6.7411    1.1494    1.2773 H   0  0  0  0  0  0  0  0  0  0  0  0
    7.1380    0.2713   -0.3014 H   0  0  0  0  0  0  0  0  0  0  0  0
    6.1548   -0.8549    2.3798 H   0  0  0  0  0  0  0  0  0  0  0  0
    6.5955   -1.9233    1.0275 H   0  0  0  0  0  0  0  0  0  0  0  0
    4.2620   -1.4411    1.3122 H   0  0  0  0  0  0  0  0  0  0  0  0
    5.2942   -0.0242   -1.1027 H   0  0  0  0  0  0  0  0  0  0  0  0
    5.1518   -1.7992   -1.0036 H   0  0  0  0  0  0  0  0  0  0  0  0
    4.0435   -0.6840   -3.1724 H   0  0  0  0  0  0  0  0  0  0  0  0
    1.6841   -0.4211   -4.0467 H   0  0  0  0  0  0  0  0  0  0  0  0
   -3.2944   -0.0241   -2.1408 H   0  0  0  0  0  0  0  0  0  0  0  0
   -5.4939   -0.7417   -2.9026 H   0  0  0  0  0  0  0  0  0  0  0  0
   -5.1742    0.9939   -3.0302 H   0  0  0  0  0  0  0  0  0  0  0  0
   -5.8349    1.3246   -0.9029 H   0  0  0  0  0  0  0  0  0  0  0  0
   -6.3053   -0.5629   -0.8288 H   0  0  0  0  0  0  0  0  0  0  0  0
   -8.4431    0.1224   -0.7447 H   0  0  0  0  0  0  0  0  0  0  0  0
   -8.0133    1.8355   -0.7235 H   0  0  0  0  0  0  0  0  0  0  0  0
   -7.8650    1.3623    1.4634 H   0  0  0  0  0  0  0  0  0  0  0  0
   -7.3664   -0.3471    1.1618 H   0  0  0  0  0  0  0  0  0  0  0  0
   -5.4314    2.0439    0.9019 H   0  0  0  0  0  0  0  0  0  0  0  0
   -5.8239    1.1833    2.3368 H   0  0  0  0  0  0  0  0  0  0  0  0
   -5.2085   -1.0284    1.2262 H   0  0  0  0  0  0  0  0  0  0  0  0
   -3.9827    0.0126    1.9143 H   0  0  0  0  0  0  0  0  0  0  0  0
   -0.0337   -0.5017    2.1236 H   0  0  0  0  0  0  0  0  0  0  0  0
    2.4612   -0.6845    0.7981 H   0  0  0  0  0  0  0  0  0  0  0  0
  1  2  1  0
  2  3  1  0
  3  4  1  0
  4  5  1  0
  5  6  1  0
  6  7  1  0
  7  8  2  0
  8  9  1  0
  9 10  2  0
 10 11  1  0
 11 12  1  0
 12 13  1  0
 13 14  1  0
 14 15  2  0
 15 16  1  0
 16 17  1  0
 17 18  1  0
 18 19  1  0
 19 20  1  0
 20 21  1  0
 13 22  2  0
 22 23  1  0
 23 24  1  0
 24 25  1  0
 25 26  2  0
 26  7  1  0
 25 10  1  0
 24 12  2  0
 21 14  1  0
  1 27  1  0
  1 28  1  0
  1 29  1  0
  3 30  1  0
  3 31  1  0
  4 32  1  0
  4 33  1  0
  5 34  1  0
  6 35  1  0
  6 36  1  0
  8 37  1  0
  9 38  1  0
 15 39  1  0
 16 40  1  0
 16 41  1  0
 17 42  1  0
 17 43  1  0
 18 44  1  0
 18 45  1  0
 19 46  1  0
 19 47  1  0
 20 48  1  0
 20 49  1  0
 21 50  1  0
 21 51  1  0
 23 52  1  0
 26 53  1  0
M  END
$$$$
[H]c1c([H])c([H])c(N2C([H])([H])C([H])([H])N(S(=O)(=O)c3c([H])c([H])c(N([H])C(=O)C([H])(C([H])([H])[H])C([H])([H])[H])c([H])c3[H])C([H])([H])C2([H])[H])c([H])c1[H]
     RDKit          3D

 52 54  0  0  0  0  0  0  0  0999 V2000
   -6.5341   -1.1311   -2.1817 C   0  0  0  0  0  0  0  0  0  0  0  0
   -6.9520   -0.1434   -1.0883 C   0  0  0  0  0  0  0  0  0  0  0  0
   -7.9190   -0.8430   -0.1940 C   0  0  0  0  0  0  0  0  0  0  0  0
   -5.6769    0.1671   -0.3379 C   0  0  0  0  0  0  0  0  0  0  0  0
   -5.6839   -0.1144    0.8640 O   0  0  0  0  0  0  0  0  0  0  0  0
   -4.6043    0.7327   -1.0191 N   0  0  0  0  0  0  0  0  0  0  0  0
   -3.3658    1.0601   -0.4348 C   0  0  0  0  0  0  0  0  0  0  0  0
   -2.8957    0.5969    0.7698 C   0  0  0  0  0  0  0  0  0  0  0  0
   -1.6583    0.9805    1.3028 C   0  0  0  0  0  0  0  0  0  0  0  0
   -0.8711    1.8587    0.5971 C   0  0  0  0  0  0  0  0  0  0  0  0
   -1.2920    2.3591   -0.6236 C   0  0  0  0  0  0  0  0  0  0  0  0
   -2.5062    1.9560   -1.1020 C   0  0  0  0  0  0  0  0  0  0  0  0
    0.6832    2.3817    1.1931 S   0  0  0  0  0  0  0  0  0  0  0  0
    0.9531    3.7466    0.6412 O   0  0  0  0  0  0  0  0  0  0  0  0
    0.6911    2.4946    2.6925 O   0  0  0  0  0  0  0  0  0  0  0  0
    1.8852    1.3217    0.6129 N   0  0  0  0  0  0  0  0  0  0  0  0
    1.7546   -0.0376    1.0292 C   0  0  0  0  0  0  0  0  0  0  0  0
    2.7365   -0.8599    0.1842 C   0  0  0  0  0  0  0  0  0  0  0  0
    4.0779   -0.3869    0.4557 N   0  0  0  0  0  0  0  0  0  0  0  0
    4.2294    0.8279    1.2180 C   0  0  0  0  0  0  0  0  0  0  0  0
    3.2114    1.8396    0.6907 C   0  0  0  0  0  0  0  0  0  0  0  0
    5.1758   -1.1476   -0.0465 C   0  0  0  0  0  0  0  0  0  0  0  0
    6.4834   -0.8231    0.1888 C   0  0  0  0  0  0  0  0  0  0  0  0
    7.4969   -1.6149   -0.3388 C   0  0  0  0  0  0  0  0  0  0  0  0
    7.2291   -2.7348   -1.1037 C   0  0  0  0  0  0  0  0  0  0  0  0
    5.9174   -3.0664   -1.3436 C   0  0  0  0  0  0  0  0  0  0  0  0
    4.9312   -2.2816   -0.8205 C   0  0  0  0  0  0  0  0  0  0  0  0
   -5.5019   -0.9081   -2.4819 H   0  0  0  0  0  0  0  0  0  0  0  0
   -7.1883   -0.9268   -3.0505 H   0  0  0  0  0  0  0  0  0  0  0  0
   -6.6348   -2.1415   -1.7782 H   0  0  0  0  0  0  0  0  0  0  0  0
   -7.4149    0.7567   -1.4909 H   0  0  0  0  0  0  0  0  0  0  0  0
   -7.4856   -1.7929    0.2296 H   0  0  0  0  0  0  0  0  0  0  0  0
   -8.2088   -0.2346    0.6832 H   0  0  0  0  0  0  0  0  0  0  0  0
   -8.8215   -1.1254   -0.7501 H   0  0  0  0  0  0  0  0  0  0  0  0
   -4.6974    0.9410   -2.0655 H   0  0  0  0  0  0  0  0  0  0  0  0
   -3.4712   -0.1044    1.3533 H   0  0  0  0  0  0  0  0  0  0  0  0
   -1.3434    0.5798    2.2593 H   0  0  0  0  0  0  0  0  0  0  0  0
   -0.6522    3.0653   -1.1852 H   0  0  0  0  0  0  0  0  0  0  0  0
   -2.8618    2.3347   -2.0583 H   0  0  0  0  0  0  0  0  0  0  0  0
    2.0340   -0.2193    2.0879 H   0  0  0  0  0  0  0  0  0  0  0  0
    0.7607   -0.4528    0.8088 H   0  0  0  0  0  0  0  0  0  0  0  0
    2.6130   -1.9331    0.4360 H   0  0  0  0  0  0  0  0  0  0  0  0
    2.5094   -0.7484   -0.8856 H   0  0  0  0  0  0  0  0  0  0  0  0
    5.2000    1.3103    1.1118 H   0  0  0  0  0  0  0  0  0  0  0  0
    3.9445    0.6588    2.2911 H   0  0  0  0  0  0  0  0  0  0  0  0
    3.5528    2.2417   -0.2752 H   0  0  0  0  0  0  0  0  0  0  0  0
    3.2028    2.6610    1.4614 H   0  0  0  0  0  0  0  0  0  0  0  0
    6.7301    0.0532    0.7894 H   0  0  0  0  0  0  0  0  0  0  0  0
    8.5308   -1.3368   -0.1384 H   0  0  0  0  0  0  0  0  0  0  0  0
    8.0652   -3.3202   -1.4929 H   0  0  0  0  0  0  0  0  0  0  0  0
    5.7361   -3.9482   -1.9458 H   0  0  0  0  0  0  0  0  0  0  0  0
    3.9056   -2.5488   -1.0140 H   0  0  0  0  0  0  0  0  0  0  0  0
  1  2  1  0
  2  3  1  0
  2  4  1  0
  4  5  2  0
  4  6  1  0
  6  7  1  0
  7  8  2  0
  8  9  1  0
  9 10  2  0
 10 11  1  0
 11 12  2  0
 10 13  1  0
 13 14  2  0
 13 15  2  0
 13 16  1  0
 16 17  1  0
 17 18  1  0
 18 19  1  0
 19 20  1  0
 20 21  1  0
 19 22  1  0
 22 23  2  0
 23 24  1  0
 24 25  2  0
 25 26  1  0
 26 27  2  0
 12  7  1  0
 21 16  1  0
 27 22  1  0
  1 28  1  0
  1 29  1  0
  1 30  1  0
  2 31  1  0
  3 32  1  0
  3 33  1  0
  3 34  1  0
  6 35  1  0
  8 36  1  0
  9 37  1  0
 11 38  1  0
 12 39  1  0
 17 40  1  0
 17 41  1  0
 18 42  1  0
 18 43  1  0
 20 44  1  0
 20 45  1  0
 21 46  1  0
 21 47  1  0
 23 48  1  0
 24 49  1  0
 25 50  1  0
 26 51  1  0
 27 52  1  0
M  END
$$$$
[H]c1c([H])c([H])c(C([H])([H])c2c([H])c([H])c(C([H])([H])N3C([H])([H])C([H])([H])C([H])([H])C([H])([H])C3([H])[H])c(-c3c([H])c([H])c(C(=O)C([H])([H])C([H])([H])[H])c([H])c3[H])c2[H])c(OC(F)(F)F)c1[H]
     RDKit          3D

 65 68  0  0  0  0  0  0  0  0999 V2000
   -4.6858    5.8400   -1.9041 C   0  0  0  0  0  0  0  0  0  0  0  0
   -3.8006    4.6348   -1.8796 C   0  0  0  0  0  0  0  0  0  0  0  0
   -3.2380    4.3815   -0.5285 C   0  0  0  0  0  0  0  0  0  0  0  0
   -3.5630    5.1671    0.4029 O   0  0  0  0  0  0  0  0  0  0  0  0
   -2.3386    3.2662   -0.2700 C   0  0  0  0  0  0  0  0  0  0  0  0
   -1.9686    2.4059   -1.2745 C   0  0  0  0  0  0  0  0  0  0  0  0
   -1.1002    1.3396   -0.9940 C   0  0  0  0  0  0  0  0  0  0  0  0
   -0.6123    1.1356    0.2619 C   0  0  0  0  0  0  0  0  0  0  0  0
   -0.9987    2.0159    1.2578 C   0  0  0  0  0  0  0  0  0  0  0  0
   -1.8505    3.0737    1.0129 C   0  0  0  0  0  0  0  0  0  0  0  0
    0.2621    0.0371    0.6155 C   0  0  0  0  0  0  0  0  0  0  0  0
    1.5597    0.3395    1.0681 C   0  0  0  0  0  0  0  0  0  0  0  0
    2.4939   -0.5913    1.4144 C   0  0  0  0  0  0  0  0  0  0  0  0
    3.8405   -0.1821    1.8757 C   0  0  0  0  0  0  0  0  0  0  0  0
    4.9002   -0.2742    0.8767 C   0  0  0  0  0  0  0  0  0  0  0  0
    5.7602   -1.3707    0.9269 C   0  0  0  0  0  0  0  0  0  0  0  0
    6.7804   -1.5411    0.0142 C   0  0  0  0  0  0  0  0  0  0  0  0
    6.9870   -0.6227   -0.9903 C   0  0  0  0  0  0  0  0  0  0  0  0
    6.1479    0.4679   -1.0565 C   0  0  0  0  0  0  0  0  0  0  0  0
    5.1158    0.6349   -0.1283 C   0  0  0  0  0  0  0  0  0  0  0  0
    4.2731    1.7215   -0.1843 O   0  0  0  0  0  0  0  0  0  0  0  0
    4.3757    2.7216   -1.1452 C   0  0  0  0  0  0  0  0  0  0  0  0
    3.3762    3.6577   -0.9031 F   0  0  0  0  0  0  0  0  0  0  0  0
    4.1363    2.1453   -2.3961 F   0  0  0  0  0  0  0  0  0  0  0  0
    5.5755    3.4064   -1.1341 F   0  0  0  0  0  0  0  0  0  0  0  0
    2.1254   -1.9133    1.3078 C   0  0  0  0  0  0  0  0  0  0  0  0
    0.8444   -2.2504    0.8621 C   0  0  0  0  0  0  0  0  0  0  0  0
   -0.0984   -1.3120    0.5137 C   0  0  0  0  0  0  0  0  0  0  0  0
   -1.4417   -1.6582    0.0539 C   0  0  0  0  0  0  0  0  0  0  0  0
   -1.7976   -3.0294    0.0190 N   0  0  0  0  0  0  0  0  0  0  0  0
   -1.8942   -3.7273    1.2454 C   0  0  0  0  0  0  0  0  0  0  0  0
   -3.3018   -4.0159    1.6956 C   0  0  0  0  0  0  0  0  0  0  0  0
   -4.1738   -4.5373    0.5829 C   0  0  0  0  0  0  0  0  0  0  0  0
   -4.1484   -3.4965   -0.5215 C   0  0  0  0  0  0  0  0  0  0  0  0
   -2.7098   -3.4269   -0.9983 C   0  0  0  0  0  0  0  0  0  0  0  0
   -5.0386    6.1532   -0.8943 H   0  0  0  0  0  0  0  0  0  0  0  0
   -4.1918    6.7492   -2.3270 H   0  0  0  0  0  0  0  0  0  0  0  0
   -5.5541    5.6498   -2.5544 H   0  0  0  0  0  0  0  0  0  0  0  0
   -4.4270    3.7447   -2.1748 H   0  0  0  0  0  0  0  0  0  0  0  0
   -3.0074    4.7677   -2.6467 H   0  0  0  0  0  0  0  0  0  0  0  0
   -2.3545    2.5684   -2.2606 H   0  0  0  0  0  0  0  0  0  0  0  0
   -0.8205    0.7063   -1.8117 H   0  0  0  0  0  0  0  0  0  0  0  0
   -0.6407    1.8999    2.2702 H   0  0  0  0  0  0  0  0  0  0  0  0
   -2.1207    3.7307    1.8217 H   0  0  0  0  0  0  0  0  0  0  0  0
    1.7835    1.4031    1.1386 H   0  0  0  0  0  0  0  0  0  0  0  0
    4.0644   -0.7764    2.8027 H   0  0  0  0  0  0  0  0  0  0  0  0
    3.7272    0.8700    2.2788 H   0  0  0  0  0  0  0  0  0  0  0  0
    5.6032   -2.0952    1.7125 H   0  0  0  0  0  0  0  0  0  0  0  0
    7.4343   -2.4139    0.0865 H   0  0  0  0  0  0  0  0  0  0  0  0
    7.7914   -0.7536   -1.7128 H   0  0  0  0  0  0  0  0  0  0  0  0
    6.3295    1.1661   -1.8444 H   0  0  0  0  0  0  0  0  0  0  0  0
    2.8406   -2.6635    1.5734 H   0  0  0  0  0  0  0  0  0  0  0  0
    0.5939   -3.2991    0.7767 H   0  0  0  0  0  0  0  0  0  0  0  0
   -1.5633   -1.2833   -1.0083 H   0  0  0  0  0  0  0  0  0  0  0  0
   -2.2139   -1.0561    0.6116 H   0  0  0  0  0  0  0  0  0  0  0  0
   -1.3053   -4.6858    1.1872 H   0  0  0  0  0  0  0  0  0  0  0  0
   -1.4168   -3.1330    2.0516 H   0  0  0  0  0  0  0  0  0  0  0  0
   -3.2504   -4.8009    2.4759 H   0  0  0  0  0  0  0  0  0  0  0  0
   -3.7812   -3.1360    2.1286 H   0  0  0  0  0  0  0  0  0  0  0  0
   -5.1888   -4.6884    0.9953 H   0  0  0  0  0  0  0  0  0  0  0  0
   -3.8305   -5.5257    0.2031 H   0  0  0  0  0  0  0  0  0  0  0  0
   -4.4473   -2.5346   -0.0632 H   0  0  0  0  0  0  0  0  0  0  0  0
   -4.7927   -3.7994   -1.3598 H   0  0  0  0  0  0  0  0  0  0  0  0
   -2.6051   -2.7226   -1.8537 H   0  0  0  0  0  0  0  0  0  0  0  0
   -2.4503   -4.4844   -1.3020 H   0  0  0  0  0  0  0  0  0  0  0  0
  1  2  1  0
  2  3  1  0
  3  4  2  0
  3  5  1  0
  5  6  2  0
  6  7  1  0
  7  8  2  0
  8  9  1  0
  9 10  2  0
  8 11  1  0
 11 12  2  0
 12 13  1  0
 13 14  1  0
 14 15  1  0
 15 16  2  0
 16 17  1  0
 17 18  2  0
 18 19  1  0
 19 20  2  0
 20 21  1  0
 21 22  1  0
 22 23  1  0
 22 24  1  0
 22 25  1  0
 13 26  2  0
 26 27  1  0
 27 28  2  0
 28 29  1  0
 29 30  1  0
 30 31  1  0
 31 32  1  0
 32 33  1  0
 33 34  1  0
 34 35  1  0
 10  5  1  0
 28 11  1  0
 35 30  1  0
 20 15  1  0
  1 36  1  0
  1 37  1  0
  1 38  1  0
  2 39  1  0
  2 40  1  0
  6 41  1  0
  7 42  1  0
  9 43  1  0
 10 44  1  0
 12 45  1  0
 14 46  1  0
 14 47  1  0
 16 48  1  0
 17 49  1  0
 18 50  1  0
 19 51  1  0
 26 52  1  0
 27 53  1  0
 29 54  1  0
 29 55  1  0
 31 56  1  0
 31 57  1  0
 32 58  1  0
 32 59  1  0
 33 60  1  0
 33 61  1  0
 34 62  1  0
 34 63  1  0
 35 64  1  0
 35 65  1  0
M  END
$$$$
[H]c1c([H])c(C([H])([H])N([H])C(=O)c2nc(-c3c([H])c([H])c(OC([H])([H])[H])c4nc(C(C([H])([H])[H])(C([H])([H])[H])C([H])([H])[H])c([H])c([H])c34)oc2C(F)(F)F)c([H])c(F)c1F
     RDKit          3D

 59 62  0  0  0  0  0  0  0  0999 V2000
   -5.6067   -4.4633   -0.1290 C   0  0  0  0  0  0  0  0  0  0  0  0
   -5.2609   -3.0803   -0.0176 O   0  0  0  0  0  0  0  0  0  0  0  0
   -3.9147   -2.7418   -0.0365 C   0  0  0  0  0  0  0  0  0  0  0  0
   -2.9137   -3.6750   -0.1564 C   0  0  0  0  0  0  0  0  0  0  0  0
   -1.5987   -3.2792   -0.1692 C   0  0  0  0  0  0  0  0  0  0  0  0
   -1.2173   -1.9259   -0.0625 C   0  0  0  0  0  0  0  0  0  0  0  0
    0.1786   -1.5776   -0.0812 C   0  0  0  0  0  0  0  0  0  0  0  0
    0.8028   -0.4272   -0.0227 N   0  0  0  0  0  0  0  0  0  0  0  0
    2.1703   -0.5714   -0.0751 C   0  0  0  0  0  0  0  0  0  0  0  0
    3.0302    0.5623   -0.0305 C   0  0  0  0  0  0  0  0  0  0  0  0
    2.4485    1.7406    0.0500 O   0  0  0  0  0  0  0  0  0  0  0  0
    4.4130    0.6774   -0.0568 N   0  0  0  0  0  0  0  0  0  0  0  0
    5.0375    1.9998   -0.0012 C   0  0  0  0  0  0  0  0  0  0  0  0
    6.5093    1.9073   -0.1052 C   0  0  0  0  0  0  0  0  0  0  0  0
    7.3312    2.1415    0.9761 C   0  0  0  0  0  0  0  0  0  0  0  0
    8.7027    2.0429    0.8267 C   0  0  0  0  0  0  0  0  0  0  0  0
    9.3107    1.7137   -0.3771 C   0  0  0  0  0  0  0  0  0  0  0  0
   10.6601    1.6329   -0.4628 F   0  0  0  0  0  0  0  0  0  0  0  0
    8.4829    1.4803   -1.4549 C   0  0  0  0  0  0  0  0  0  0  0  0
    9.0132    1.1550   -2.6620 F   0  0  0  0  0  0  0  0  0  0  0  0
    7.1153    1.5786   -1.3068 C   0  0  0  0  0  0  0  0  0  0  0  0
    2.3434   -1.9106   -0.1711 C   0  0  0  0  0  0  0  0  0  0  0  0
    1.1334   -2.4857   -0.1727 O   0  0  0  0  0  0  0  0  0  0  0  0
    3.6299   -2.6299   -0.2595 C   0  0  0  0  0  0  0  0  0  0  0  0
    3.2488   -4.0052   -0.3406 F   0  0  0  0  0  0  0  0  0  0  0  0
    4.3207   -2.4456   -1.4211 F   0  0  0  0  0  0  0  0  0  0  0  0
    4.3774   -2.6069    0.8928 F   0  0  0  0  0  0  0  0  0  0  0  0
   -2.2215   -1.0088    0.0566 C   0  0  0  0  0  0  0  0  0  0  0  0
   -1.9710    0.3406    0.1690 C   0  0  0  0  0  0  0  0  0  0  0  0
   -3.0415    1.2410    0.2893 C   0  0  0  0  0  0  0  0  0  0  0  0
   -4.3499    0.8304    0.3003 C   0  0  0  0  0  0  0  0  0  0  0  0
   -4.5534   -0.4875    0.1891 N   0  0  0  0  0  0  0  0  0  0  0  0
   -3.5670   -1.4066    0.0701 C   0  0  0  0  0  0  0  0  0  0  0  0
   -5.4505    1.8258    0.4321 C   0  0  0  0  0  0  0  0  0  0  0  0
   -5.0191    3.1127   -0.2401 C   0  0  0  0  0  0  0  0  0  0  0  0
   -6.7234    1.3830   -0.2428 C   0  0  0  0  0  0  0  0  0  0  0  0
   -5.7234    2.0405    1.8847 C   0  0  0  0  0  0  0  0  0  0  0  0
   -5.1494   -5.0711    0.6720 H   0  0  0  0  0  0  0  0  0  0  0  0
   -5.2092   -4.7954   -1.1005 H   0  0  0  0  0  0  0  0  0  0  0  0
   -6.6971   -4.5457   -0.0242 H   0  0  0  0  0  0  0  0  0  0  0  0
   -3.1646   -4.7389   -0.2403 H   0  0  0  0  0  0  0  0  0  0  0  0
   -0.7854   -3.9859   -0.2623 H   0  0  0  0  0  0  0  0  0  0  0  0
    5.0562   -0.1040   -0.1128 H   0  0  0  0  0  0  0  0  0  0  0  0
    4.6013    2.5930   -0.8258 H   0  0  0  0  0  0  0  0  0  0  0  0
    4.7263    2.5109    0.9491 H   0  0  0  0  0  0  0  0  0  0  0  0
    6.8738    2.4029    1.9340 H   0  0  0  0  0  0  0  0  0  0  0  0
    9.3412    2.2301    1.6862 H   0  0  0  0  0  0  0  0  0  0  0  0
    6.4476    1.3976   -2.1469 H   0  0  0  0  0  0  0  0  0  0  0  0
   -0.9862    0.7335    0.1700 H   0  0  0  0  0  0  0  0  0  0  0  0
   -2.8095    2.2962    0.3779 H   0  0  0  0  0  0  0  0  0  0  0  0
   -4.4236    2.8498   -1.1343 H   0  0  0  0  0  0  0  0  0  0  0  0
   -5.9302    3.6885   -0.4934 H   0  0  0  0  0  0  0  0  0  0  0  0
   -4.4265    3.6921    0.4761 H   0  0  0  0  0  0  0  0  0  0  0  0
   -7.5234    2.0803    0.1397 H   0  0  0  0  0  0  0  0  0  0  0  0
   -7.0294    0.3636   -0.0041 H   0  0  0  0  0  0  0  0  0  0  0  0
   -6.6583    1.5437   -1.3440 H   0  0  0  0  0  0  0  0  0  0  0  0
   -6.0958    1.0767    2.3112 H   0  0  0  0  0  0  0  0  0  0  0  0
   -4.7961    2.2870    2.4305 H   0  0  0  0  0  0  0  0  0  0  0  0
   -6.4890    2.8177    2.0726 H   0  0  0  0  0  0  0  0  0  0  0  0
  1  2  1  0
  2  3  1  0
  3  4  2  0
  4  5  1  0
  5  6  2  0
  6  7  1  0
  7  8  2  0
  8  9  1  0
  9 10  1  0
 10 11  2  0
 10 12  1  0
 12 13  1  0
 13 14  1  0
 14 15  2  0
 15 16  1  0
 16 17  2  0
 17 18  1  0
 17 19  1  0
 19 20  1  0
 19 21  2  0
  9 22  2  0
 22 23  1  0
 22 24  1  0
 24 25  1  0
 24 26  1  0
 24 27  1  0
  6 28  1  0
 28 29  2  0
 29 30  1  0
 30 31  2  0
 31 32  1  0
 32 33  2  0
 31 34  1  0
 34 35  1  0
 34 36  1  0
 34 37  1  0
 33  3  1  0
 23  7  1  0
 33 28  1  0
 21 14  1  0
  1 38  1  0
  1 39  1  0
  1 40  1  0
  4 41  1  0
  5 42  1  0
 12 43  1  0
 13 44  1  0
 13 45  1  0
 15 46  1  0
 16 47  1  0
 21 48  1  0
 29 49  1  0
 30 50  1  0
 35 51  1  0
 35 52  1  0
 35 53  1  0
 36 54  1  0
 36 55  1  0
 36 56  1  0
 37 57  1  0
 37 58  1  0
 37 59  1  0
M  END
$$$$
[H]N=C(c1c([H])c([H])c(C([H])([H])N([H])C(=O)[C@@]2([H])N(C(=O)N3C([H])([H])C([H])([H])C([H])([H])[C@@]3([H])C(=O)N3C([H])([H])C([H])([H])[C@]3([H])C(C([H])([H])[H])(C([H])([H])[H])C([H])([H])[H])[C@@]([H])(C([H])([H])c3c([H])c([H])c([H])c([H])c3[H])C2([H])[H])c([H])c1[H])N([H])[H]
     RDKit          3D

 83 87  0  0  0  0  0  0  0  0999 V2000
   -5.8661    0.9450    0.1618 C   0  0  0  0  0  0  0  0  0  0  0  0
   -5.6667   -0.2236    1.0750 C   0  0  0  0  0  0  0  0  0  0  0  0
   -6.8575   -1.1272    0.8885 C   0  0  0  0  0  0  0  0  0  0  0  0
   -5.8374    0.3537    2.4971 C   0  0  0  0  0  0  0  0  0  0  0  0
   -4.3408   -0.8709    1.0463 C   0  0  1  0  0  0  0  0  0  0  0  0
   -4.2771   -2.0502    2.0087 C   0  0  0  0  0  0  0  0  0  0  0  0
   -4.3990   -2.8407    0.7214 C   0  0  0  0  0  0  0  0  0  0  0  0
   -3.9115   -1.6943   -0.0161 N   0  0  0  0  0  0  0  0  0  0  0  0
   -3.2527   -1.5408   -1.2634 C   0  0  0  0  0  0  0  0  0  0  0  0
   -3.0686   -2.5791   -1.9429 O   0  0  0  0  0  0  0  0  0  0  0  0
   -2.8457   -0.1841   -1.6411 C   0  0  2  0  0  0  0  0  0  0  0  0
   -3.6004    0.2227   -2.9236 C   0  0  0  0  0  0  0  0  0  0  0  0
   -2.6566    1.1585   -3.6380 C   0  0  0  0  0  0  0  0  0  0  0  0
   -1.5010    1.3237   -2.6435 C   0  0  0  0  0  0  0  0  0  0  0  0
   -1.4651   -0.0038   -2.0608 N   0  0  0  0  0  0  0  0  0  0  0  0
   -0.3631   -0.8460   -1.9578 C   0  0  0  0  0  0  0  0  0  0  0  0
   -0.4720   -2.0327   -1.4864 O   0  0  0  0  0  0  0  0  0  0  0  0
    0.9615   -0.4664   -2.3611 N   0  0  0  0  0  0  0  0  0  0  0  0
    1.8021    0.5364   -2.8600 C   0  0  1  0  0  0  0  0  0  0  0  0
    2.4881    1.5609   -2.0407 C   0  0  0  0  0  0  0  0  0  0  0  0
    1.7642    2.5018   -1.2324 C   0  0  0  0  0  0  0  0  0  0  0  0
    1.3471    3.7137   -1.7258 C   0  0  0  0  0  0  0  0  0  0  0  0
    0.6669    4.6634   -1.0096 C   0  0  0  0  0  0  0  0  0  0  0  0
    0.3706    4.3823    0.3308 C   0  0  0  0  0  0  0  0  0  0  0  0
    0.7708    3.1742    0.8710 C   0  0  0  0  0  0  0  0  0  0  0  0
    1.4653    2.2450    0.0806 C   0  0  0  0  0  0  0  0  0  0  0  0
    2.8162   -0.5339   -3.3089 C   0  0  0  0  0  0  0  0  0  0  0  0
    2.0988   -1.4123   -2.4002 C   0  0  1  0  0  0  0  0  0  0  0  0
    2.6274   -1.8906   -1.1429 C   0  0  0  0  0  0  0  0  0  0  0  0
    3.6388   -2.6813   -1.2205 O   0  0  0  0  0  0  0  0  0  0  0  0
    2.1686   -1.6061    0.1441 N   0  0  0  0  0  0  0  0  0  0  0  0
    2.7680   -2.1888    1.3054 C   0  0  0  0  0  0  0  0  0  0  0  0
    4.0203   -1.6253    1.7752 C   0  0  0  0  0  0  0  0  0  0  0  0
    4.5667   -0.4943    1.2407 C   0  0  0  0  0  0  0  0  0  0  0  0
    5.7702    0.0664    1.6881 C   0  0  0  0  0  0  0  0  0  0  0  0
    6.4688   -0.5235    2.7187 C   0  0  0  0  0  0  0  0  0  0  0  0
    5.9105   -1.6656    3.2519 C   0  0  0  0  0  0  0  0  0  0  0  0
    4.7380   -2.2192    2.8224 C   0  0  0  0  0  0  0  0  0  0  0  0
    7.7183    0.0270    3.2184 C   0  0  0  0  0  0  0  0  0  0  0  0
    8.4081   -0.6202    4.3000 N   0  0  0  0  0  0  0  0  0  0  0  0
    8.2176    1.0831    2.7198 N   0  0  0  0  0  0  0  0  0  0  0  0
   -6.2801    0.6255   -0.8360 H   0  0  0  0  0  0  0  0  0  0  0  0
   -6.6562    1.5926    0.5938 H   0  0  0  0  0  0  0  0  0  0  0  0
   -4.9717    1.5858    0.0334 H   0  0  0  0  0  0  0  0  0  0  0  0
   -7.7550   -0.4738    1.0201 H   0  0  0  0  0  0  0  0  0  0  0  0
   -6.9283   -1.5188   -0.1462 H   0  0  0  0  0  0  0  0  0  0  0  0
   -6.9471   -1.9093    1.6565 H   0  0  0  0  0  0  0  0  0  0  0  0
   -5.1777   -0.1989    3.1807 H   0  0  0  0  0  0  0  0  0  0  0  0
   -5.4637    1.3988    2.4741 H   0  0  0  0  0  0  0  0  0  0  0  0
   -6.8985    0.3464    2.8072 H   0  0  0  0  0  0  0  0  0  0  0  0
   -3.5719   -0.1199    1.4185 H   0  0  0  0  0  0  0  0  0  0  0  0
   -3.2958   -2.1670    2.5149 H   0  0  0  0  0  0  0  0  0  0  0  0
   -5.0932   -2.1599    2.7144 H   0  0  0  0  0  0  0  0  0  0  0  0
   -5.3603   -3.2603    0.4619 H   0  0  0  0  0  0  0  0  0  0  0  0
   -3.6584   -3.6912    0.7773 H   0  0  0  0  0  0  0  0  0  0  0  0
   -2.9847    0.5524   -0.8303 H   0  0  0  0  0  0  0  0  0  0  0  0
   -4.5782    0.6568   -2.6975 H   0  0  0  0  0  0  0  0  0  0  0  0
   -3.7247   -0.7274   -3.5015 H   0  0  0  0  0  0  0  0  0  0  0  0
   -3.1381    2.1338   -3.8586 H   0  0  0  0  0  0  0  0  0  0  0  0
   -2.2760    0.7059   -4.5628 H   0  0  0  0  0  0  0  0  0  0  0  0
   -1.9079    2.0630   -1.8915 H   0  0  0  0  0  0  0  0  0  0  0  0
   -0.6013    1.6723   -3.1113 H   0  0  0  0  0  0  0  0  0  0  0  0
    1.4520    0.9961   -3.8628 H   0  0  0  0  0  0  0  0  0  0  0  0
    3.2958    1.0100   -1.4603 H   0  0  0  0  0  0  0  0  0  0  0  0
    3.1567    2.1441   -2.7874 H   0  0  0  0  0  0  0  0  0  0  0  0
    1.5745    3.9379   -2.7600 H   0  0  0  0  0  0  0  0  0  0  0  0
    0.3431    5.6158   -1.4121 H   0  0  0  0  0  0  0  0  0  0  0  0
   -0.1680    5.1208    0.9188 H   0  0  0  0  0  0  0  0  0  0  0  0
    0.5295    2.9823    1.9041 H   0  0  0  0  0  0  0  0  0  0  0  0
    1.7324    1.3443    0.6098 H   0  0  0  0  0  0  0  0  0  0  0  0
    3.8408   -0.2388   -2.9953 H   0  0  0  0  0  0  0  0  0  0  0  0
    2.7532   -0.7725   -4.4098 H   0  0  0  0  0  0  0  0  0  0  0  0
    1.7383   -2.3424   -3.0101 H   0  0  0  0  0  0  0  0  0  0  0  0
    1.3800   -0.9515    0.2917 H   0  0  0  0  0  0  0  0  0  0  0  0
    1.9882   -2.1999    2.1244 H   0  0  0  0  0  0  0  0  0  0  0  0
    2.9413   -3.3003    1.1435 H   0  0  0  0  0  0  0  0  0  0  0  0
    4.0787    0.0194    0.4391 H   0  0  0  0  0  0  0  0  0  0  0  0
    6.1793    0.9705    1.2383 H   0  0  0  0  0  0  0  0  0  0  0  0
    6.4862   -2.1212    4.0701 H   0  0  0  0  0  0  0  0  0  0  0  0
    4.3108   -3.1122    3.2459 H   0  0  0  0  0  0  0  0  0  0  0  0
    7.9575   -0.7434    5.2428 H   0  0  0  0  0  0  0  0  0  0  0  0
    9.3742   -0.9804    4.1693 H   0  0  0  0  0  0  0  0  0  0  0  0
    9.1327    1.4779    3.0931 H   0  0  0  0  0  0  0  0  0  0  0  0
  1  2  1  0
  2  3  1  0
  2  4  1  0
  2  5  1  0
  5  6  1  0
  6  7  1  0
  7  8  1  0
  8  9  1  0
  9 10  2  0
  9 11  1  0
 11 12  1  0
 12 13  1  0
 13 14  1  0
 14 15  1  0
 15 16  1  0
 16 17  2  0
 16 18  1  0
 18 19  1  0
 19 20  1  0
 20 21  1  0
 21 22  2  0
 22 23  1  0
 23 24  2  0
 24 25  1  0
 25 26  2  0
 19 27  1  0
 27 28  1  0
 28 29  1  0
 29 30  2  0
 29 31  1  0
 31 32  1  0
 32 33  1  0
 33 34  2  0
 34 35  1  0
 35 36  2  0
 36 37  1  0
 37 38  2  0
 36 39  1  0
 39 40  1  0
 39 41  2  3
  8  5  1  0
 15 11  1  0
 28 18  1  0
 38 33  1  0
 26 21  1  0
  1 42  1  0
  1 43  1  0
  1 44  1  0
  3 45  1  0
  3 46  1  0
  3 47  1  0
  4 48  1  0
  4 49  1  0
  4 50  1  0
  5 51  1  1
  6 52  1  0
  6 53  1  0
  7 54  1  0
  7 55  1  0
 11 56  1  1
 12 57  1  0
 12 58  1  0
 13 59  1  0
 13 60  1  0
 14 61  1  0
 14 62  1  0
 19 63  1  6
 20 64  1  0
 20 65  1  0
 22 66  1  0
 23 67  1  0
 24 68  1  0
 25 69  1  0
 26 70  1  0
 27 71  1  0
 27 72  1  0
 28 73  1  6
 31 74  1  0
 32 75  1  0
 32 76  1  0
 34 77  1  0
 35 78  1  0
 37 79  1  0
 38 80  1  0
 40 81  1  0
 40 82  1  0
 41 83  1  0
M  END
$$$$
[H]c1nc2c([H])c(OC([H])([H])[H])c(OC([H])([H])[H])c([H])c2c(Oc2c([H])c([H])c(N([H])C(=O)N([H])c3c([H])c([H])c([H])c(Cl)c3F)c([H])c2[H])c1[H]
     RDKit          3D

 52 55  0  0  0  0  0  0  0  0999 V2000
   -9.1306   -0.6381   -1.1894 C   0  0  0  0  0  0  0  0  0  0  0  0
   -7.8612   -0.4343   -1.2644 O   0  0  0  0  0  0  0  0  0  0  0  0
   -6.5846   -0.2163   -1.3623 C   0  0  0  0  0  0  0  0  0  0  0  0
   -5.9809    0.4616   -2.4016 C   0  0  0  0  0  0  0  0  0  0  0  0
   -4.6170    0.6373   -2.4082 C   0  0  0  0  0  0  0  0  0  0  0  0
   -4.0400    1.2988   -3.4259 N   0  0  0  0  0  0  0  0  0  0  0  0
   -2.7153    1.4699   -3.4325 C   0  0  0  0  0  0  0  0  0  0  0  0
   -1.8801    0.9946   -2.4273 C   0  0  0  0  0  0  0  0  0  0  0  0
   -2.4506    0.3149   -1.3754 C   0  0  0  0  0  0  0  0  0  0  0  0
   -1.6948   -0.1679   -0.3692 O   0  0  0  0  0  0  0  0  0  0  0  0
   -0.3672   -0.1787   -0.1289 C   0  0  0  0  0  0  0  0  0  0  0  0
    0.2650    0.9705    0.2997 C   0  0  0  0  0  0  0  0  0  0  0  0
    1.6252    1.0235    0.5689 C   0  0  0  0  0  0  0  0  0  0  0  0
    2.4252   -0.0839    0.4206 C   0  0  0  0  0  0  0  0  0  0  0  0
    3.8136   -0.1341    0.6643 N   0  0  0  0  0  0  0  0  0  0  0  0
    4.7475    0.9504    0.4307 C   0  0  0  0  0  0  0  0  0  0  0  0
    4.2470    2.0135   -0.0666 O   0  0  0  0  0  0  0  0  0  0  0  0
    6.0717    0.7990    0.7448 N   0  0  0  0  0  0  0  0  0  0  0  0
    7.3542    0.6574    1.0471 C   0  0  0  0  0  0  0  0  0  0  0  0
    8.2821    1.6868    1.2056 C   0  0  0  0  0  0  0  0  0  0  0  0
    9.5820    1.4324    1.6045 C   0  0  0  0  0  0  0  0  0  0  0  0
    9.9976    0.1519    1.8565 C   0  0  0  0  0  0  0  0  0  0  0  0
    9.1003   -0.8747    1.7070 C   0  0  0  0  0  0  0  0  0  0  0  0
    9.7038   -2.4967    2.0567 Cl  0  0  0  0  0  0  0  0  0  0  0  0
    7.8211   -0.6722    1.3196 C   0  0  0  0  0  0  0  0  0  0  0  0
    6.9471   -1.6947    1.1651 F   0  0  0  0  0  0  0  0  0  0  0  0
    1.7847   -1.2538   -0.0156 C   0  0  0  0  0  0  0  0  0  0  0  0
    0.4365   -1.2949   -0.2800 C   0  0  0  0  0  0  0  0  0  0  0  0
   -3.8221    0.1463   -1.3851 C   0  0  0  0  0  0  0  0  0  0  0  0
   -4.3850   -0.5262   -0.3465 C   0  0  0  0  0  0  0  0  0  0  0  0
   -5.7798   -0.7343   -0.2918 C   0  0  0  0  0  0  0  0  0  0  0  0
   -6.3138   -1.3609    0.6723 O   0  0  0  0  0  0  0  0  0  0  0  0
   -6.8557   -1.9971    1.6513 C   0  0  0  0  0  0  0  0  0  0  0  0
   -9.6206   -0.6746   -0.1663 H   0  0  0  0  0  0  0  0  0  0  0  0
   -9.5532   -1.5392   -1.7245 H   0  0  0  0  0  0  0  0  0  0  0  0
   -9.7207    0.2129   -1.6775 H   0  0  0  0  0  0  0  0  0  0  0  0
   -6.5997    0.8469   -3.1998 H   0  0  0  0  0  0  0  0  0  0  0  0
   -2.3120    2.0149   -4.2873 H   0  0  0  0  0  0  0  0  0  0  0  0
   -0.8383    1.1902   -2.5332 H   0  0  0  0  0  0  0  0  0  0  0  0
   -0.3027    1.8771    0.4372 H   0  0  0  0  0  0  0  0  0  0  0  0
    2.0881    1.9495    0.9176 H   0  0  0  0  0  0  0  0  0  0  0  0
    4.1910   -1.0169    1.0457 H   0  0  0  0  0  0  0  0  0  0  0  0
    6.3339    1.9666   -0.0052 H   0  0  0  0  0  0  0  0  0  0  0  0
    8.0184    2.7106    1.0373 H   0  0  0  0  0  0  0  0  0  0  0  0
   10.2673    2.2823    1.7114 H   0  0  0  0  0  0  0  0  0  0  0  0
   11.0153    0.0007    2.1616 H   0  0  0  0  0  0  0  0  0  0  0  0
    2.4067   -2.1508   -0.1403 H   0  0  0  0  0  0  0  0  0  0  0  0
   -0.0736   -2.1957   -0.6201 H   0  0  0  0  0  0  0  0  0  0  0  0
   -3.7561   -0.9113    0.4537 H   0  0  0  0  0  0  0  0  0  0  0  0
   -6.1956   -2.7060    2.2556 H   0  0  0  0  0  0  0  0  0  0  0  0
   -7.3884   -1.3729    2.4608 H   0  0  0  0  0  0  0  0  0  0  0  0
   -7.6859   -2.7347    1.3342 H   0  0  0  0  0  0  0  0  0  0  0  0
  1  2  1  0
  2  3  1  0
  3  4  2  0
  4  5  1  0
  5  6  2  0
  6  7  1  0
  7  8  2  0
  8  9  1  0
  9 10  1  0
 10 11  1  0
 11 12  2  0
 12 13  1  0
 13 14  2  0
 14 15  1  0
 15 16  1  0
 16 17  2  0
 16 18  1  0
 18 19  1  0
 19 20  2  0
 20 21  1  0
 21 22  2  0
 22 23  1  0
 23 24  1  0
 23 25  2  0
 25 26  1  0
 14 27  1  0
 27 28  2  0
  9 29  2  0
 29 30  1  0
 30 31  2  0
 31 32  1  0
 32 33  1  0
 31  3  1  0
 29  5  1  0
 28 11  1  0
 25 19  1  0
  1 34  1  0
  1 35  1  0
  1 36  1  0
  4 37  1  0
  7 38  1  0
  8 39  1  0
 12 40  1  0
 13 41  1  0
 15 42  1  0
 18 43  1  0
 20 44  1  0
 21 45  1  0
 22 46  1  0
 27 47  1  0
 28 48  1  0
 30 49  1  0
 33 50  1  0
 33 51  1  0
 33 52  1  0
M  END
$$$$
[H]c1c([H])c(S(=O)(=O)N([H])C([H])([H])c2c([H])c3c([H])c(Cl)c([H])c([H])c3n2[H])c([H])c([H])c1F
     RDKit          3D

 34 36  0  0  0  0  0  0  0  0999 V2000
   -5.5742    2.9953    0.3280 F   0  0  0  0  0  0  0  0  0  0  0  0
   -4.8420    1.8526    0.2777 C   0  0  0  0  0  0  0  0  0  0  0  0
   -4.7506    1.1239   -0.8903 C   0  0  0  0  0  0  0  0  0  0  0  0
   -4.0163   -0.0405   -0.9770 C   0  0  0  0  0  0  0  0  0  0  0  0
   -3.3299   -0.5290    0.1313 C   0  0  0  0  0  0  0  0  0  0  0  0
   -3.4267    0.2057    1.2947 C   0  0  0  0  0  0  0  0  0  0  0  0
   -4.1626    1.3699    1.3765 C   0  0  0  0  0  0  0  0  0  0  0  0
   -2.3994   -2.0021    0.0283 S   0  0  0  0  0  0  0  0  0  0  0  0
   -3.0143   -2.9374   -0.9838 O   0  0  0  0  0  0  0  0  0  0  0  0
   -2.4004   -2.7412    1.3485 O   0  0  0  0  0  0  0  0  0  0  0  0
   -0.7644   -1.6238   -0.4493 N   0  0  0  0  0  0  0  0  0  0  0  0
   -0.2093   -0.7832    0.5683 C   0  0  0  0  0  0  0  0  0  0  0  0
    1.2075   -0.4167    0.2188 C   0  0  0  0  0  0  0  0  0  0  0  0
    1.9364   -0.7887   -0.8891 C   0  0  0  0  0  0  0  0  0  0  0  0
    3.2047   -0.2469   -0.8479 C   0  0  0  0  0  0  0  0  0  0  0  0
    4.3172   -0.2841   -1.6604 C   0  0  0  0  0  0  0  0  0  0  0  0
    5.4644    0.3929   -1.3138 C   0  0  0  0  0  0  0  0  0  0  0  0
    6.9114    0.3939   -2.2888 Cl  0  0  0  0  0  0  0  0  0  0  0  0
    5.4689    1.1081   -0.1327 C   0  0  0  0  0  0  0  0  0  0  0  0
    4.3723    1.1608    0.6947 C   0  0  0  0  0  0  0  0  0  0  0  0
    3.2232    0.4824    0.3470 C   0  0  0  0  0  0  0  0  0  0  0  0
    2.0198    0.3603    0.9571 N   0  0  0  0  0  0  0  0  0  0  0  0
   -5.2786    1.4910   -1.7598 H   0  0  0  0  0  0  0  0  0  0  0  0
   -3.9485   -0.6124   -1.9055 H   0  0  0  0  0  0  0  0  0  0  0  0
   -2.8891   -0.1824    2.1520 H   0  0  0  0  0  0  0  0  0  0  0  0
   -4.2220    1.9320    2.3107 H   0  0  0  0  0  0  0  0  0  0  0  0
   -0.2051   -2.4861   -0.5736 H   0  0  0  0  0  0  0  0  0  0  0  0
   -0.1970   -1.2403    1.5688 H   0  0  0  0  0  0  0  0  0  0  0  0
   -0.8320    0.1447    0.6442 H   0  0  0  0  0  0  0  0  0  0  0  0
    1.5621   -1.4176   -1.6776 H   0  0  0  0  0  0  0  0  0  0  0  0
    4.2927   -0.8477   -2.5770 H   0  0  0  0  0  0  0  0  0  0  0  0
    6.3641    1.6387    0.1416 H   0  0  0  0  0  0  0  0  0  0  0  0
    4.3587    1.7161    1.6233 H   0  0  0  0  0  0  0  0  0  0  0  0
    1.7587    0.8118    1.8808 H   0  0  0  0  0  0  0  0  0  0  0  0
  1  2  1  0
  2  3  2  0
  3  4  1  0
  4  5  2  0
  5  6  1  0
  6  7  2  0
  5  8  1  0
  8  9  2  0
  8 10  2  0
  8 11  1  0
 11 12  1  0
 12 13  1  0
 13 14  2  0
 14 15  1  0
 15 16  2  0
 16 17  1  0
 17 18  1  0
 17 19  2  0
 19 20  1  0
 20 21  2  0
 21 22  1  0
  7  2  1  0
 22 13  1  0
 21 15  1  0
  3 23  1  0
  4 24  1  0
  6 25  1  0
  7 26  1  0
 11 27  1  0
 12 28  1  0
 12 29  1  0
 14 30  1  0
 16 31  1  0
 19 32  1  0
 20 33  1  0
 22 34  1  0
M  END
$$$$
[H]OC(=O)[C@@]([H])(N([H])C(=O)[C@]([H])(N([H])[H])C([H])([H])[C@@]([H])(C(=O)O[H])N([H])[H])C([H])([H])c1c([H])c([H])c(O[H])c([H])c1O[H]
     RDKit          3D

 43 43  0  0  0  0  0  0  0  0999 V2000
    2.8879    0.9014   -2.6125 N   0  0  0  0  0  0  0  0  0  0  0  0
    2.1936    0.6219   -1.3756 C   0  0  2  0  0  0  0  0  0  0  0  0
    1.8764   -0.8373   -1.3201 C   0  0  0  0  0  0  0  0  0  0  0  0
    3.1424   -1.6358   -1.3678 C   0  0  2  0  0  0  0  0  0  0  0  0
    3.9320   -1.4323   -2.5572 N   0  0  0  0  0  0  0  0  0  0  0  0
    2.8665   -3.1069   -1.2539 C   0  0  0  0  0  0  0  0  0  0  0  0
    2.0985   -3.5721   -0.1801 O   0  0  0  0  0  0  0  0  0  0  0  0
    3.3137   -3.9058   -2.1019 O   0  0  0  0  0  0  0  0  0  0  0  0
    0.9861    1.4779   -1.2406 C   0  0  0  0  0  0  0  0  0  0  0  0
    0.7441    2.3028   -2.1432 O   0  0  0  0  0  0  0  0  0  0  0  0
    0.1084    1.3996   -0.1456 N   0  0  0  0  0  0  0  0  0  0  0  0
   -1.0760    2.2606   -0.0399 C   0  0  1  0  0  0  0  0  0  0  0  0
   -2.3203    1.4546   -0.1520 C   0  0  0  0  0  0  0  0  0  0  0  0
   -2.5098    0.3892    0.8360 C   0  0  0  0  0  0  0  0  0  0  0  0
   -1.9041   -0.8676    0.5969 C   0  0  0  0  0  0  0  0  0  0  0  0
   -1.9434   -1.8903    1.5108 C   0  0  0  0  0  0  0  0  0  0  0  0
   -2.5872   -1.7243    2.7161 C   0  0  0  0  0  0  0  0  0  0  0  0
   -2.6254   -2.7693    3.6507 O   0  0  0  0  0  0  0  0  0  0  0  0
   -3.1812   -0.5237    2.9716 C   0  0  0  0  0  0  0  0  0  0  0  0
   -3.1362    0.5185    2.0255 C   0  0  0  0  0  0  0  0  0  0  0  0
   -3.7816    1.6774    2.3789 O   0  0  0  0  0  0  0  0  0  0  0  0
   -0.9606    3.1692    1.0931 C   0  0  0  0  0  0  0  0  0  0  0  0
   -1.8081    4.2198    1.3986 O   0  0  0  0  0  0  0  0  0  0  0  0
    0.0349    2.9832    1.8932 O   0  0  0  0  0  0  0  0  0  0  0  0
    3.0929    1.9159   -2.7555 H   0  0  0  0  0  0  0  0  0  0  0  0
    2.3695    0.4696   -3.4101 H   0  0  0  0  0  0  0  0  0  0  0  0
    2.8297    0.8725   -0.4922 H   0  0  0  0  0  0  0  0  0  0  0  0
    1.3218   -1.1378   -0.4115 H   0  0  0  0  0  0  0  0  0  0  0  0
    1.2933   -1.1322   -2.2383 H   0  0  0  0  0  0  0  0  0  0  0  0
    3.8158   -1.4029   -0.4939 H   0  0  0  0  0  0  0  0  0  0  0  0
    4.2442   -2.3321   -2.9867 H   0  0  0  0  0  0  0  0  0  0  0  0
    4.7627   -0.8655   -2.3596 H   0  0  0  0  0  0  0  0  0  0  0  0
    2.3635   -3.3536    0.7653 H   0  0  0  0  0  0  0  0  0  0  0  0
    0.2780    0.7312    0.6136 H   0  0  0  0  0  0  0  0  0  0  0  0
   -1.0623    2.9273   -0.9655 H   0  0  0  0  0  0  0  0  0  0  0  0
   -2.4035    1.0196   -1.1946 H   0  0  0  0  0  0  0  0  0  0  0  0
   -3.1757    2.1965   -0.1435 H   0  0  0  0  0  0  0  0  0  0  0  0
   -1.4003   -0.9953   -0.3483 H   0  0  0  0  0  0  0  0  0  0  0  0
   -1.4601   -2.8442    1.2808 H   0  0  0  0  0  0  0  0  0  0  0  0
   -3.3674   -3.4570    3.6609 H   0  0  0  0  0  0  0  0  0  0  0  0
   -3.6884   -0.3797    3.9095 H   0  0  0  0  0  0  0  0  0  0  0  0
   -3.8722    2.4395    1.7511 H   0  0  0  0  0  0  0  0  0  0  0  0
   -2.2920    4.2175    2.2834 H   0  0  0  0  0  0  0  0  0  0  0  0
  1  2  1  0
  2  3  1  0
  3  4  1  0
  4  5  1  0
  4  6  1  0
  6  7  1  0
  6  8  2  0
  2  9  1  0
  9 10  2  0
  9 11  1  0
 11 12  1  0
 12 13  1  0
 13 14  1  0
 14 15  2  0
 15 16  1  0
 16 17  2  0
 17 18  1  0
 17 19  1  0
 19 20  2  0
 20 21  1  0
 12 22  1  0
 22 23  1  0
 22 24  2  0
 20 14  1  0
  1 25  1  0
  1 26  1  0
  2 27  1  1
  3 28  1  0
  3 29  1  0
  4 30  1  1
  5 31  1  0
  5 32  1  0
  7 33  1  0
 11 34  1  0
 12 35  1  6
 13 36  1  0
 13 37  1  0
 15 38  1  0
 16 39  1  0
 18 40  1  0
 19 41  1  0
 21 42  1  0
 23 43  1  0
M  END
$$$$
[H]OC([H])(C([H])([H])C(=O)N([H])c1c([H])c([H])c(Br)c(OC([H])([H])[H])c1[H])C([H])(C([H])([H])[H])C([H])([H])[H]
     RDKit          3D

 36 36  0  0  0  0  0  0  0  0999 V2000
    5.7588    0.5411   -1.3601 C   0  0  0  0  0  0  0  0  0  0  0  0
    5.5194    0.2006   -0.0247 O   0  0  0  0  0  0  0  0  0  0  0  0
    4.2730   -0.0301    0.5080 C   0  0  0  0  0  0  0  0  0  0  0  0
    3.1271    0.0531   -0.2312 C   0  0  0  0  0  0  0  0  0  0  0  0
    1.8327   -0.1763    0.2802 C   0  0  0  0  0  0  0  0  0  0  0  0
    0.7219   -0.0449   -0.5734 N   0  0  0  0  0  0  0  0  0  0  0  0
   -0.5719   -0.4853   -0.3081 C   0  0  0  0  0  0  0  0  0  0  0  0
   -0.9254   -1.0692    0.7359 O   0  0  0  0  0  0  0  0  0  0  0  0
   -1.6408   -0.2520   -1.3401 C   0  0  0  0  0  0  0  0  0  0  0  0
   -3.0145   -0.6352   -0.8713 C   0  0  0  0  0  0  0  0  0  0  0  0
   -3.0348   -1.9807   -0.5119 O   0  0  0  0  0  0  0  0  0  0  0  0
   -3.4844    0.2435    0.2516 C   0  0  0  0  0  0  0  0  0  0  0  0
   -3.5411    1.7034   -0.1651 C   0  0  0  0  0  0  0  0  0  0  0  0
   -4.9359   -0.1798    0.5398 C   0  0  0  0  0  0  0  0  0  0  0  0
    1.7909   -0.4994    1.6126 C   0  0  0  0  0  0  0  0  0  0  0  0
    2.9256   -0.5975    2.4089 C   0  0  0  0  0  0  0  0  0  0  0  0
    4.1526   -0.3597    1.8391 C   0  0  0  0  0  0  0  0  0  0  0  0
    5.6879   -0.5074    2.9789 Br  0  0  0  0  0  0  0  0  0  0  0  0
    5.0313    0.0904   -2.0742 H   0  0  0  0  0  0  0  0  0  0  0  0
    6.7749    0.1949   -1.7043 H   0  0  0  0  0  0  0  0  0  0  0  0
    5.7829    1.6484   -1.4555 H   0  0  0  0  0  0  0  0  0  0  0  0
    3.1633    0.3082   -1.2847 H   0  0  0  0  0  0  0  0  0  0  0  0
    0.8715    0.4366   -1.5092 H   0  0  0  0  0  0  0  0  0  0  0  0
   -1.5898    0.8394   -1.5862 H   0  0  0  0  0  0  0  0  0  0  0  0
   -1.3281   -0.8135   -2.2298 H   0  0  0  0  0  0  0  0  0  0  0  0
   -3.7373   -0.4837   -1.7455 H   0  0  0  0  0  0  0  0  0  0  0  0
   -3.8653   -2.1779   -0.0367 H   0  0  0  0  0  0  0  0  0  0  0  0
   -2.8800    0.1760    1.1573 H   0  0  0  0  0  0  0  0  0  0  0  0
   -2.5320    2.1238   -0.2562 H   0  0  0  0  0  0  0  0  0  0  0  0
   -4.1351    1.8231   -1.0950 H   0  0  0  0  0  0  0  0  0  0  0  0
   -4.1026    2.2542    0.6420 H   0  0  0  0  0  0  0  0  0  0  0  0
   -4.8992   -0.9960    1.2672 H   0  0  0  0  0  0  0  0  0  0  0  0
   -5.4077   -0.5144   -0.3936 H   0  0  0  0  0  0  0  0  0  0  0  0
   -5.4359    0.7111    0.9666 H   0  0  0  0  0  0  0  0  0  0  0  0
    0.8355   -0.6845    2.1050 H   0  0  0  0  0  0  0  0  0  0  0  0
    2.8122   -0.8602    3.4637 H   0  0  0  0  0  0  0  0  0  0  0  0
  1  2  1  0
  2  3  1  0
  3  4  2  0
  4  5  1  0
  5  6  1  0
  6  7  1  0
  7  8  2  0
  7  9  1  0
  9 10  1  0
 10 11  1  0
 10 12  1  0
 12 13  1  0
 12 14  1  0
  5 15  2  0
 15 16  1  0
 16 17  2  0
 17 18  1  0
 17  3  1  0
  1 19  1  0
  1 20  1  0
  1 21  1  0
  4 22  1  0
  6 23  1  0
  9 24  1  0
  9 25  1  0
 10 26  1  0
 11 27  1  0
 12 28  1  0
 13 29  1  0
 13 30  1  0
 13 31  1  0
 14 32  1  0
 14 33  1  0
 14 34  1  0
 15 35  1  0
 16 36  1  0
M  END
$$$$
[H]c1nc2c([H])c([H])c([H])c(-c3c([H])nn4c([H])c(-c5c([H])c([H])c(N6C([H])([H])C([H])([H])N(S(=O)(=O)C([H])([H])[H])C([H])([H])C6([H])[H])c([H])c5[H])c([H])nc34)c2c([H])c1[H]
     RDKit          3D

 59 64  0  0  0  0  0  0  0  0999 V2000
    9.7073   -0.1007    0.8610 C   0  0  0  0  0  0  0  0  0  0  0  0
    8.3612   -1.2282    0.4732 S   0  0  0  0  0  0  0  0  0  0  0  0
    7.6796   -1.6658    1.7154 O   0  0  0  0  0  0  0  0  0  0  0  0
    9.0060   -2.3878   -0.2548 O   0  0  0  0  0  0  0  0  0  0  0  0
    7.3367   -0.4067   -0.6378 N   0  0  0  0  0  0  0  0  0  0  0  0
    6.7726    0.7911   -0.0911 C   0  0  0  0  0  0  0  0  0  0  0  0
    5.3691    0.6057    0.4395 C   0  0  0  0  0  0  0  0  0  0  0  0
    4.4710    0.0676   -0.5847 N   0  0  0  0  0  0  0  0  0  0  0  0
    5.1204   -0.5438   -1.7142 C   0  0  0  0  0  0  0  0  0  0  0  0
    6.3443   -1.2822   -1.2156 C   0  0  0  0  0  0  0  0  0  0  0  0
    3.0769    0.1517   -0.5094 C   0  0  0  0  0  0  0  0  0  0  0  0
    2.4568    1.1247    0.2832 C   0  0  0  0  0  0  0  0  0  0  0  0
    1.0751    1.2160    0.3833 C   0  0  0  0  0  0  0  0  0  0  0  0
    0.2644    0.3494   -0.2947 C   0  0  0  0  0  0  0  0  0  0  0  0
    0.8362   -0.6134   -1.0779 C   0  0  0  0  0  0  0  0  0  0  0  0
    2.2318   -0.7030   -1.1777 C   0  0  0  0  0  0  0  0  0  0  0  0
   -1.1735    0.4520   -0.1546 C   0  0  0  0  0  0  0  0  0  0  0  0
   -2.0599    0.1146   -1.1599 C   0  0  0  0  0  0  0  0  0  0  0  0
   -3.3619    0.2289   -0.9225 N   0  0  0  0  0  0  0  0  0  0  0  0
   -3.8125    0.6664    0.2805 C   0  0  0  0  0  0  0  0  0  0  0  0
   -5.0989    0.8325    0.7428 C   0  0  0  0  0  0  0  0  0  0  0  0
   -4.9642    1.2848    2.0494 C   0  0  0  0  0  0  0  0  0  0  0  0
   -3.6689    1.3857    2.3632 N   0  0  0  0  0  0  0  0  0  0  0  0
   -2.9807    1.0034    1.2752 N   0  0  0  0  0  0  0  0  0  0  0  0
   -1.6553    0.9038    1.0779 C   0  0  0  0  0  0  0  0  0  0  0  0
   -6.3391    0.6027   -0.0076 C   0  0  0  0  0  0  0  0  0  0  0  0
   -6.5828    1.2945   -1.1864 C   0  0  0  0  0  0  0  0  0  0  0  0
   -7.7709    1.1249   -1.8620 C   0  0  0  0  0  0  0  0  0  0  0  0
   -8.7677    0.2797   -1.4275 C   0  0  0  0  0  0  0  0  0  0  0  0
   -8.5223   -0.4156   -0.2472 C   0  0  0  0  0  0  0  0  0  0  0  0
   -9.4948   -1.2615    0.1581 N   0  0  0  0  0  0  0  0  0  0  0  0
   -9.2793   -1.9676    1.2796 C   0  0  0  0  0  0  0  0  0  0  0  0
   -8.1265   -1.8599    2.0127 C   0  0  0  0  0  0  0  0  0  0  0  0
   -7.1282   -0.9828    1.5863 C   0  0  0  0  0  0  0  0  0  0  0  0
   -7.3318   -0.2478    0.4357 C   0  0  0  0  0  0  0  0  0  0  0  0
   10.5968   -0.6616    1.1592 H   0  0  0  0  0  0  0  0  0  0  0  0
    9.9473    0.5108   -0.0234 H   0  0  0  0  0  0  0  0  0  0  0  0
    9.3916    0.5273    1.7273 H   0  0  0  0  0  0  0  0  0  0  0  0
    6.8131    1.5806   -0.8429 H   0  0  0  0  0  0  0  0  0  0  0  0
    7.3971    1.1167    0.7737 H   0  0  0  0  0  0  0  0  0  0  0  0
    5.0089    1.6251    0.6687 H   0  0  0  0  0  0  0  0  0  0  0  0
    5.3325    0.0204    1.3704 H   0  0  0  0  0  0  0  0  0  0  0  0
    5.5099    0.2823   -2.3614 H   0  0  0  0  0  0  0  0  0  0  0  0
    4.5100   -1.2555   -2.2574 H   0  0  0  0  0  0  0  0  0  0  0  0
    6.0909   -2.1455   -0.5763 H   0  0  0  0  0  0  0  0  0  0  0  0
    6.8195   -1.7123   -2.1422 H   0  0  0  0  0  0  0  0  0  0  0  0
    3.1001    1.8110    0.8167 H   0  0  0  0  0  0  0  0  0  0  0  0
    0.6924    2.0035    1.0237 H   0  0  0  0  0  0  0  0  0  0  0  0
    0.2282   -1.3114   -1.6238 H   0  0  0  0  0  0  0  0  0  0  0  0
    2.6414   -1.4777   -1.7986 H   0  0  0  0  0  0  0  0  0  0  0  0
   -1.6482   -0.2297   -2.0926 H   0  0  0  0  0  0  0  0  0  0  0  0
   -5.8409    1.5028    2.6636 H   0  0  0  0  0  0  0  0  0  0  0  0
   -0.9539    1.1694    1.8549 H   0  0  0  0  0  0  0  0  0  0  0  0
   -5.8014    1.9585   -1.5341 H   0  0  0  0  0  0  0  0  0  0  0  0
   -7.9501    1.6774   -2.7877 H   0  0  0  0  0  0  0  0  0  0  0  0
   -9.6912    0.1651   -1.9772 H   0  0  0  0  0  0  0  0  0  0  0  0
  -10.0454   -2.6469    1.6116 H   0  0  0  0  0  0  0  0  0  0  0  0
   -7.9184   -2.4137    2.9166 H   0  0  0  0  0  0  0  0  0  0  0  0
   -6.2204   -0.9103    2.1519 H   0  0  0  0  0  0  0  0  0  0  0  0
  1  2  1  0
  2  3  2  0
  2  4  2  0
  2  5  1  0
  5  6  1  0
  6  7  1  0
  7  8  1  0
  8  9  1  0
  9 10  1  0
  8 11  1  0
 11 12  2  0
 12 13  1  0
 13 14  2  0
 14 15  1  0
 15 16  2  0
 14 17  1  0
 17 18  1  0
 18 19  2  0
 19 20  1  0
 20 21  2  0
 21 22  1  0
 22 23  2  0
 23 24  1  0
 24 25  1  0
 21 26  1  0
 26 27  2  0
 27 28  1  0
 28 29  2  0
 29 30  1  0
 30 31  2  0
 31 32  1  0
 32 33  2  0
 33 34  1  0
 34 35  2  0
 10  5  1  0
 16 11  1  0
 25 17  2  0
 35 26  1  0
 24 20  1  0
 35 30  1  0
  1 36  1  0
  1 37  1  0
  1 38  1  0
  6 39  1  0
  6 40  1  0
  7 41  1  0
  7 42  1  0
  9 43  1  0
  9 44  1  0
 10 45  1  0
 10 46  1  0
 12 47  1  0
 13 48  1  0
 15 49  1  0
 16 50  1  0
 18 51  1  0
 22 52  1  0
 25 53  1  0
 27 54  1  0
 28 55  1  0
 29 56  1  0
 32 57  1  0
 33 58  1  0
 34 59  1  0
M  END
$$$$
[H]c1c([H])c([H])c(N([H])C(=O)C([H])([H])N([H])C(=O)c2c([H])c(N([H])C(=O)C([H])([H])C([H])([H])C([H])([H])[H])c([H])c(C(F)(F)F)c2[H])c(Cl)c1[H]
     RDKit          3D

 49 50  0  0  0  0  0  0  0  0999 V2000
    7.9698   -0.0372   -1.1932 C   0  0  0  0  0  0  0  0  0  0  0  0
    7.4232   -1.4455   -1.0469 C   0  0  0  0  0  0  0  0  0  0  0  0
    6.0112   -1.5603   -1.4613 C   0  0  0  0  0  0  0  0  0  0  0  0
    5.1131   -0.7205   -0.6056 C   0  0  0  0  0  0  0  0  0  0  0  0
    5.6827   -0.0230    0.2555 O   0  0  0  0  0  0  0  0  0  0  0  0
    3.7360   -0.7531   -0.8066 N   0  0  0  0  0  0  0  0  0  0  0  0
    2.7338   -0.0511   -0.1205 C   0  0  0  0  0  0  0  0  0  0  0  0
    1.4168   -0.1440   -0.5825 C   0  0  0  0  0  0  0  0  0  0  0  0
    0.3579    0.4962   -0.0317 C   0  0  0  0  0  0  0  0  0  0  0  0
    0.6143    1.3062    1.0795 C   0  0  0  0  0  0  0  0  0  0  0  0
    1.8784    1.4180    1.5512 C   0  0  0  0  0  0  0  0  0  0  0  0
    2.9734    0.7606    0.9889 C   0  0  0  0  0  0  0  0  0  0  0  0
    2.1331    2.3160    2.7267 C   0  0  0  0  0  0  0  0  0  0  0  0
    3.4642    2.4496    2.9759 F   0  0  0  0  0  0  0  0  0  0  0  0
    1.4276    1.7997    3.7804 F   0  0  0  0  0  0  0  0  0  0  0  0
    1.5676    3.5587    2.3836 F   0  0  0  0  0  0  0  0  0  0  0  0
   -1.0022    0.4240   -0.5690 C   0  0  0  0  0  0  0  0  0  0  0  0
   -1.7306    1.4686   -0.4600 O   0  0  0  0  0  0  0  0  0  0  0  0
   -1.4552   -0.7701   -1.1801 N   0  0  0  0  0  0  0  0  0  0  0  0
   -2.7958   -0.7349   -1.7115 C   0  0  0  0  0  0  0  0  0  0  0  0
   -3.7797   -0.5196   -0.5940 C   0  0  0  0  0  0  0  0  0  0  0  0
   -3.4010   -0.5045    0.5811 O   0  0  0  0  0  0  0  0  0  0  0  0
   -5.1295   -0.3301   -0.9805 N   0  0  0  0  0  0  0  0  0  0  0  0
   -6.2164   -0.1129   -0.1228 C   0  0  0  0  0  0  0  0  0  0  0  0
   -6.1941   -0.4184    1.2040 C   0  0  0  0  0  0  0  0  0  0  0  0
   -7.3257   -0.2063    1.9912 C   0  0  0  0  0  0  0  0  0  0  0  0
   -8.4800    0.3122    1.4603 C   0  0  0  0  0  0  0  0  0  0  0  0
   -8.5177    0.6304    0.0940 C   0  0  0  0  0  0  0  0  0  0  0  0
   -7.4008    0.4151   -0.6640 C   0  0  0  0  0  0  0  0  0  0  0  0
   -7.4176    0.8354   -2.3757 Cl  0  0  0  0  0  0  0  0  0  0  0  0
    7.1790    0.6330   -1.6486 H   0  0  0  0  0  0  0  0  0  0  0  0
    8.2999    0.3649   -0.2319 H   0  0  0  0  0  0  0  0  0  0  0  0
    8.8824   -0.0640   -1.8497 H   0  0  0  0  0  0  0  0  0  0  0  0
    8.0700   -2.1597   -1.6328 H   0  0  0  0  0  0  0  0  0  0  0  0
    7.5787   -1.7782    0.0251 H   0  0  0  0  0  0  0  0  0  0  0  0
    5.8963   -1.1778   -2.5100 H   0  0  0  0  0  0  0  0  0  0  0  0
    5.6665   -2.6033   -1.3753 H   0  0  0  0  0  0  0  0  0  0  0  0
    3.4013   -1.4146   -1.5800 H   0  0  0  0  0  0  0  0  0  0  0  0
    1.2117   -0.7760   -1.4617 H   0  0  0  0  0  0  0  0  0  0  0  0
   -0.2674    1.8013    1.4914 H   0  0  0  0  0  0  0  0  0  0  0  0
    3.9440    0.8795    1.3937 H   0  0  0  0  0  0  0  0  0  0  0  0
   -0.8282   -1.6161   -1.2248 H   0  0  0  0  0  0  0  0  0  0  0  0
   -2.9598   -0.0182   -2.5152 H   0  0  0  0  0  0  0  0  0  0  0  0
   -2.9963   -1.7524   -2.1421 H   0  0  0  0  0  0  0  0  0  0  0  0
   -5.3368   -0.3637   -2.0510 H   0  0  0  0  0  0  0  0  0  0  0  0
   -5.3488   -0.8452    1.7149 H   0  0  0  0  0  0  0  0  0  0  0  0
   -7.2359   -0.4771    3.0364 H   0  0  0  0  0  0  0  0  0  0  0  0
   -9.3543    0.4690    2.0856 H   0  0  0  0  0  0  0  0  0  0  0  0
   -9.4594    1.0396   -0.2884 H   0  0  0  0  0  0  0  0  0  0  0  0
  1  2  1  0
  2  3  1  0
  3  4  1  0
  4  5  2  0
  4  6  1  0
  6  7  1  0
  7  8  2  0
  8  9  1  0
  9 10  2  0
 10 11  1  0
 11 12  2  0
 11 13  1  0
 13 14  1  0
 13 15  1  0
 13 16  1  0
  9 17  1  0
 17 18  2  0
 17 19  1  0
 19 20  1  0
 20 21  1  0
 21 22  2  0
 21 23  1  0
 23 24  1  0
 24 25  2  0
 25 26  1  0
 26 27  2  0
 27 28  1  0
 28 29  2  0
 29 30  1  0
 12  7  1  0
 29 24  1  0
  1 31  1  0
  1 32  1  0
  1 33  1  0
  2 34  1  0
  2 35  1  0
  3 36  1  0
  3 37  1  0
  6 38  1  0
  8 39  1  0
 10 40  1  0
 12 41  1  0
 19 42  1  0
 20 43  1  0
 20 44  1  0
 23 45  1  0
 25 46  1  0
 26 47  1  0
 27 48  1  0
 28 49  1  0
M  END
$$$$
[H]Oc1c([H])c([H])c2c(c1[H])[C@@]([H])(C([H])([H])[H])O[C@@]([H])(c1c([H])c([H])c(C#N)c([H])c1[H])[C@]([H])(c1c([H])c([H])c(N3C([H])([H])C([H])([H])O[C@]([H])(C([H])([H])[H])C3([H])[H])c([H])c1[H])O2
     RDKit          3D

 62 66  0  0  0  0  0  0  0  0999 V2000
    6.9798    0.2557   -1.2383 C   0  0  0  0  0  0  0  0  0  0  0  0
    6.2110    0.5236    0.0636 C   0  0  2  0  0  0  0  0  0  0  0  0
    4.9086   -0.2428   -0.0770 C   0  0  0  0  0  0  0  0  0  0  0  0
    3.9925    0.3577    0.8846 N   0  0  0  0  0  0  0  0  0  0  0  0
    4.6408    1.1493    1.9079 C   0  0  0  0  0  0  0  0  0  0  0  0
    5.2378    2.3450    1.1475 C   0  0  0  0  0  0  0  0  0  0  0  0
    6.0497    1.8830    0.1483 O   0  0  0  0  0  0  0  0  0  0  0  0
    2.5968    0.1604    0.7908 C   0  0  0  0  0  0  0  0  0  0  0  0
    1.6909    0.7528    1.6419 C   0  0  0  0  0  0  0  0  0  0  0  0
    0.3167    0.5505    1.5337 C   0  0  0  0  0  0  0  0  0  0  0  0
   -0.1191   -0.2660    0.5431 C   0  0  0  0  0  0  0  0  0  0  0  0
    0.7840   -0.8712   -0.3228 C   0  0  0  0  0  0  0  0  0  0  0  0
    2.1396   -0.6805   -0.2275 C   0  0  0  0  0  0  0  0  0  0  0  0
   -1.5717   -0.5897    0.2782 C   0  0  2  0  0  0  0  0  0  0  0  0
   -1.5632   -1.9794    0.1408 O   0  0  0  0  0  0  0  0  0  0  0  0
   -2.6025   -2.7949   -0.1996 C   0  0  0  0  0  0  0  0  0  0  0  0
   -2.3938   -4.0843    0.2482 C   0  0  0  0  0  0  0  0  0  0  0  0
   -3.3354   -5.0350   -0.0051 C   0  0  0  0  0  0  0  0  0  0  0  0
   -4.4846   -4.7097   -0.7024 C   0  0  0  0  0  0  0  0  0  0  0  0
   -5.4659   -5.6499   -0.9792 O   0  0  0  0  0  0  0  0  0  0  0  0
   -4.6677   -3.3982   -1.1430 C   0  0  0  0  0  0  0  0  0  0  0  0
   -3.7248   -2.4236   -0.8950 C   0  0  0  0  0  0  0  0  0  0  0  0
   -4.0715   -1.0899   -1.4397 C   0  0  1  0  0  0  0  0  0  0  0  0
   -5.4335   -0.6604   -0.9019 C   0  0  0  0  0  0  0  0  0  0  0  0
   -3.1586   -0.1734   -1.5502 O   0  0  0  0  0  0  0  0  0  0  0  0
   -2.0792    0.1769   -0.9199 C   0  0  1  0  0  0  0  0  0  0  0  0
   -1.9852    1.6539   -0.5752 C   0  0  0  0  0  0  0  0  0  0  0  0
   -3.0116    2.3186    0.0550 C   0  0  0  0  0  0  0  0  0  0  0  0
   -2.9456    3.6580    0.3641 C   0  0  0  0  0  0  0  0  0  0  0  0
   -1.8119    4.3880    0.0386 C   0  0  0  0  0  0  0  0  0  0  0  0
   -0.7809    3.7569   -0.5854 C   0  0  0  0  0  0  0  0  0  0  0  0
   -0.8805    2.4155   -0.8798 C   0  0  0  0  0  0  0  0  0  0  0  0
   -1.6935    5.7965    0.3422 C   0  0  0  0  0  0  0  0  0  0  0  0
   -1.6072    6.9121    0.5737 N   0  0  0  0  0  0  0  0  0  0  0  0
    6.6506    1.0082   -1.9851 H   0  0  0  0  0  0  0  0  0  0  0  0
    6.7046   -0.7662   -1.6183 H   0  0  0  0  0  0  0  0  0  0  0  0
    8.0503    0.3316   -1.0382 H   0  0  0  0  0  0  0  0  0  0  0  0
    6.8100    0.0757    0.8684 H   0  0  0  0  0  0  0  0  0  0  0  0
    5.1125   -1.2932    0.1757 H   0  0  0  0  0  0  0  0  0  0  0  0
    4.4932   -0.0857   -1.0921 H   0  0  0  0  0  0  0  0  0  0  0  0
    5.4997    0.5763    2.3701 H   0  0  0  0  0  0  0  0  0  0  0  0
    4.0182    1.4537    2.7385 H   0  0  0  0  0  0  0  0  0  0  0  0
    5.6518    3.1014    1.8077 H   0  0  0  0  0  0  0  0  0  0  0  0
    4.3400    2.8112    0.6455 H   0  0  0  0  0  0  0  0  0  0  0  0
    2.0342    1.3973    2.4226 H   0  0  0  0  0  0  0  0  0  0  0  0
   -0.4008    1.0068    2.1891 H   0  0  0  0  0  0  0  0  0  0  0  0
    0.4264   -1.5322   -1.1221 H   0  0  0  0  0  0  0  0  0  0  0  0
    2.7880   -1.1676   -0.9174 H   0  0  0  0  0  0  0  0  0  0  0  0
   -2.1052   -0.3224    1.2098 H   0  0  0  0  0  0  0  0  0  0  0  0
   -1.5005   -4.3423    0.7922 H   0  0  0  0  0  0  0  0  0  0  0  0
   -3.2076   -6.0552    0.3288 H   0  0  0  0  0  0  0  0  0  0  0  0
   -5.4094   -6.6058   -0.6992 H   0  0  0  0  0  0  0  0  0  0  0  0
   -5.5822   -3.1828   -1.6849 H   0  0  0  0  0  0  0  0  0  0  0  0
   -4.3497   -1.3612   -2.5291 H   0  0  0  0  0  0  0  0  0  0  0  0
   -6.2786   -1.2077   -1.3912 H   0  0  0  0  0  0  0  0  0  0  0  0
   -5.6332    0.4036   -1.0481 H   0  0  0  0  0  0  0  0  0  0  0  0
   -5.4781   -0.9743    0.1736 H   0  0  0  0  0  0  0  0  0  0  0  0
   -1.2232    0.0545   -1.6683 H   0  0  0  0  0  0  0  0  0  0  0  0
   -3.9077    1.7901    0.3259 H   0  0  0  0  0  0  0  0  0  0  0  0
   -3.7589    4.1851    0.8645 H   0  0  0  0  0  0  0  0  0  0  0  0
    0.1288    4.3269   -0.8518 H   0  0  0  0  0  0  0  0  0  0  0  0
   -0.0336    1.9690   -1.3792 H   0  0  0  0  0  0  0  0  0  0  0  0
  1  2  1  0
  2  3  1  0
  3  4  1  0
  4  5  1  0
  5  6  1  0
  6  7  1  0
  4  8  1  0
  8  9  2  0
  9 10  1  0
 10 11  2  0
 11 12  1  0
 12 13  2  0
 11 14  1  0
 14 15  1  0
 15 16  1  0
 16 17  2  0
 17 18  1  0
 18 19  2  0
 19 20  1  0
 19 21  1  0
 21 22  2  0
 22 23  1  0
 23 24  1  0
 23 25  1  0
 25 26  1  0
 26 27  1  0
 27 28  2  0
 28 29  1  0
 29 30  2  0
 30 31  1  0
 31 32  2  0
 30 33  1  0
 33 34  3  0
  7  2  1  0
 13  8  1  0
 26 14  1  0
 32 27  1  0
 22 16  1  0
  1 35  1  0
  1 36  1  0
  1 37  1  0
  2 38  1  1
  3 39  1  0
  3 40  1  0
  5 41  1  0
  5 42  1  0
  6 43  1  0
  6 44  1  0
  9 45  1  0
 10 46  1  0
 12 47  1  0
 13 48  1  0
 14 49  1  1
 17 50  1  0
 18 51  1  0
 20 52  1  0
 21 53  1  0
 23 54  1  6
 24 55  1  0
 24 56  1  0
 24 57  1  0
 26 58  1  6
 28 59  1  0
 29 60  1  0
 31 61  1  0
 32 62  1  0
M  END
$$$$
[H]c1nc([H])c(OC([H])([H])[H])c(-c2nc(N([H])c3c([H])c([H])c4c(c3[H])OC([H])([H])O4)nc(OC([H])([H])[H])c2[H])c1[H]
     RDKit          3D

 42 45  0  0  0  0  0  0  0  0999 V2000
   -2.8872    3.6899   -0.6727 C   0  0  0  0  0  0  0  0  0  0  0  0
   -2.7355    2.3123   -0.4070 O   0  0  0  0  0  0  0  0  0  0  0  0
   -3.8755    1.5400   -0.2013 C   0  0  0  0  0  0  0  0  0  0  0  0
   -5.1213    2.1243   -0.2592 C   0  0  0  0  0  0  0  0  0  0  0  0
   -6.1892    1.3354   -0.0535 N   0  0  0  0  0  0  0  0  0  0  0  0
   -6.1053    0.0294    0.2011 C   0  0  0  0  0  0  0  0  0  0  0  0
   -4.8549   -0.5812    0.2640 C   0  0  0  0  0  0  0  0  0  0  0  0
   -3.7264    0.1740    0.0622 C   0  0  0  0  0  0  0  0  0  0  0  0
   -2.3609   -0.3784    0.1083 C   0  0  0  0  0  0  0  0  0  0  0  0
   -2.1327   -1.7136    0.3620 C   0  0  0  0  0  0  0  0  0  0  0  0
   -0.8496   -2.2276    0.4042 C   0  0  0  0  0  0  0  0  0  0  0  0
   -0.6153   -3.5842    0.6619 O   0  0  0  0  0  0  0  0  0  0  0  0
    0.7124   -4.0645    0.6953 C   0  0  0  0  0  0  0  0  0  0  0  0
    0.1415   -1.3581    0.1861 N   0  0  0  0  0  0  0  0  0  0  0  0
   -0.0296   -0.0541   -0.0640 C   0  0  0  0  0  0  0  0  0  0  0  0
    1.0031    0.8777   -0.2962 N   0  0  0  0  0  0  0  0  0  0  0  0
    2.3797    0.6541   -0.3076 C   0  0  0  0  0  0  0  0  0  0  0  0
    3.2051    1.6726   -0.8121 C   0  0  0  0  0  0  0  0  0  0  0  0
    4.5768    1.5332   -0.8450 C   0  0  0  0  0  0  0  0  0  0  0  0
    5.2002    0.4011   -0.3902 C   0  0  0  0  0  0  0  0  0  0  0  0
    6.5194   -0.0186   -0.2966 O   0  0  0  0  0  0  0  0  0  0  0  0
    6.5666   -1.0893    0.6586 C   0  0  0  0  0  0  0  0  0  0  0  0
    5.2718   -1.6382    0.5015 O   0  0  0  0  0  0  0  0  0  0  0  0
    4.4302   -0.6073    0.1062 C   0  0  0  0  0  0  0  0  0  0  0  0
    3.0300   -0.4603    0.1380 C   0  0  0  0  0  0  0  0  0  0  0  0
   -1.3172    0.4323   -0.1006 N   0  0  0  0  0  0  0  0  0  0  0  0
   -3.3862    4.1644    0.1856 H   0  0  0  0  0  0  0  0  0  0  0  0
   -3.5069    3.8815   -1.5796 H   0  0  0  0  0  0  0  0  0  0  0  0
   -1.9198    4.1866   -0.8149 H   0  0  0  0  0  0  0  0  0  0  0  0
   -5.2196    3.1861   -0.4648 H   0  0  0  0  0  0  0  0  0  0  0  0
   -6.9889   -0.6039    0.3674 H   0  0  0  0  0  0  0  0  0  0  0  0
   -4.7720   -1.6495    0.4717 H   0  0  0  0  0  0  0  0  0  0  0  0
   -2.9283   -2.4158    0.5378 H   0  0  0  0  0  0  0  0  0  0  0  0
    1.4258   -3.4000    0.1768 H   0  0  0  0  0  0  0  0  0  0  0  0
    1.0330   -4.2971    1.7403 H   0  0  0  0  0  0  0  0  0  0  0  0
    0.7411   -5.0332    0.1145 H   0  0  0  0  0  0  0  0  0  0  0  0
    0.6956    1.8936   -0.4855 H   0  0  0  0  0  0  0  0  0  0  0  0
    2.8109    2.5963   -1.1911 H   0  0  0  0  0  0  0  0  0  0  0  0
    5.1990    2.3261   -1.2363 H   0  0  0  0  0  0  0  0  0  0  0  0
    6.7520   -0.7157    1.6740 H   0  0  0  0  0  0  0  0  0  0  0  0
    7.3212   -1.8318    0.3127 H   0  0  0  0  0  0  0  0  0  0  0  0
    2.5070   -1.2886    0.5480 H   0  0  0  0  0  0  0  0  0  0  0  0
  1  2  1  0
  2  3  1  0
  3  4  2  0
  4  5  1  0
  5  6  2  0
  6  7  1  0
  7  8  2  0
  8  9  1  0
  9 10  2  0
 10 11  1  0
 11 12  1  0
 12 13  1  0
 11 14  2  0
 14 15  1  0
 15 16  1  0
 16 17  1  0
 17 18  2  0
 18 19  1  0
 19 20  2  0
 20 21  1  0
 21 22  1  0
 22 23  1  0
 23 24  1  0
 24 25  2  0
 15 26  2  0
  8  3  1  0
 26  9  1  0
 25 17  1  0
 24 20  1  0
  1 27  1  0
  1 28  1  0
  1 29  1  0
  4 30  1  0
  6 31  1  0
  7 32  1  0
 10 33  1  0
 13 34  1  0
 13 35  1  0
 13 36  1  0
 16 37  1  0
 18 38  1  0
 19 39  1  0
 22 40  1  0
 22 41  1  0
 25 42  1  0
M  END
$$$$
[H]OC(=O)C([H])([H])C([H])([H])N(C([H])([H])C([H])([H])[H])C1([H])C([H])([H])C([H])([H])C([H])(C(=O)N([H])[H])C([H])([H])C1([H])[H]
     RDKit          3D

 39 39  0  0  0  0  0  0  0  0999 V2000
   -1.0829    2.7498    0.8331 C   0  0  0  0  0  0  0  0  0  0  0  0
   -1.9440    1.7421    0.2186 C   0  0  0  0  0  0  0  0  0  0  0  0
   -1.4859    0.5206   -0.2474 N   0  0  0  0  0  0  0  0  0  0  0  0
   -2.4532   -0.2287   -0.9499 C   0  0  0  0  0  0  0  0  0  0  0  0
   -3.5855   -0.6559   -0.0772 C   0  0  0  0  0  0  0  0  0  0  0  0
   -3.2533   -1.5132    1.0588 C   0  0  0  0  0  0  0  0  0  0  0  0
   -2.0679   -2.1297    1.3001 O   0  0  0  0  0  0  0  0  0  0  0  0
   -4.1922   -1.6984    1.9150 O   0  0  0  0  0  0  0  0  0  0  0  0
   -0.1331    0.2612   -0.4365 C   0  0  0  0  0  0  0  0  0  0  0  0
    0.6141    0.2032    0.8689 C   0  0  0  0  0  0  0  0  0  0  0  0
    2.0709    0.4747    0.5574 C   0  0  0  0  0  0  0  0  0  0  0  0
    2.5298   -0.7638   -0.2279 C   0  0  0  0  0  0  0  0  0  0  0  0
    1.7247   -0.8962   -1.4712 C   0  0  0  0  0  0  0  0  0  0  0  0
    0.2135   -0.9887   -1.1942 C   0  0  0  0  0  0  0  0  0  0  0  0
    3.9417   -0.5514   -0.5576 C   0  0  0  0  0  0  0  0  0  0  0  0
    4.9650   -0.3654    0.4209 N   0  0  0  0  0  0  0  0  0  0  0  0
    4.3070   -0.5259   -1.7494 O   0  0  0  0  0  0  0  0  0  0  0  0
   -0.0321    2.7961    0.5248 H   0  0  0  0  0  0  0  0  0  0  0  0
   -1.0775    2.7179    1.9555 H   0  0  0  0  0  0  0  0  0  0  0  0
   -1.4660    3.8014    0.6274 H   0  0  0  0  0  0  0  0  0  0  0  0
   -2.7870    1.5378    0.9580 H   0  0  0  0  0  0  0  0  0  0  0  0
   -2.5133    2.2461   -0.6264 H   0  0  0  0  0  0  0  0  0  0  0  0
   -2.9115    0.4382   -1.7449 H   0  0  0  0  0  0  0  0  0  0  0  0
   -2.0598   -1.1620   -1.4110 H   0  0  0  0  0  0  0  0  0  0  0  0
   -4.1396    0.2251    0.3702 H   0  0  0  0  0  0  0  0  0  0  0  0
   -4.4075   -1.1446   -0.7002 H   0  0  0  0  0  0  0  0  0  0  0  0
   -1.7337   -2.9554    0.7826 H   0  0  0  0  0  0  0  0  0  0  0  0
    0.3687    1.0686   -1.1091 H   0  0  0  0  0  0  0  0  0  0  0  0
    0.5930   -0.8979    1.1857 H   0  0  0  0  0  0  0  0  0  0  0  0
    0.2095    0.7340    1.7076 H   0  0  0  0  0  0  0  0  0  0  0  0
    2.1227    1.3422   -0.1033 H   0  0  0  0  0  0  0  0  0  0  0  0
    2.6777    0.6083    1.4609 H   0  0  0  0  0  0  0  0  0  0  0  0
    2.4732   -1.6640    0.4258 H   0  0  0  0  0  0  0  0  0  0  0  0
    1.9395    0.0156   -2.0915 H   0  0  0  0  0  0  0  0  0  0  0  0
    2.0609   -1.7971   -2.0172 H   0  0  0  0  0  0  0  0  0  0  0  0
   -0.2241   -1.0015   -2.2263 H   0  0  0  0  0  0  0  0  0  0  0  0
    0.0717   -1.9228   -0.6404 H   0  0  0  0  0  0  0  0  0  0  0  0
    4.9633    0.4812    1.0397 H   0  0  0  0  0  0  0  0  0  0  0  0
    5.7031   -1.1016    0.4870 H   0  0  0  0  0  0  0  0  0  0  0  0
  1  2  1  0
  2  3  1  0
  3  4  1  0
  4  5  1  0
  5  6  1  0
  6  7  1  0
  6  8  2  0
  3  9  1  0
  9 10  1  0
 10 11  1  0
 11 12  1  0
 12 13  1  0
 13 14  1  0
 12 15  1  0
 15 16  1  0
 15 17  2  0
 14  9  1  0
  1 18  1  0
  1 19  1  0
  1 20  1  0
  2 21  1  0
  2 22  1  0
  4 23  1  0
  4 24  1  0
  5 25  1  0
  5 26  1  0
  7 27  1  0
  9 28  1  0
 10 29  1  0
 10 30  1  0
 11 31  1  0
 11 32  1  0
 12 33  1  0
 13 34  1  0
 13 35  1  0
 14 36  1  0
 14 37  1  0
 16 38  1  0
 16 39  1  0
M  END
$$$$
[H]c1nc(N2C([H])([H])N(C3([H])C([H])([H])C([H])([H])N([H])C([H])([H])C3([H])[H])C([H])([H])C2([H])[H])c([H])c([H])c1-c1c([H])nc2c(-c3c([H])c([H])c([H])c4c([H])c([H])c([H])c([H])c34)c([H])nn2c1[H]
     RDKit          3D

 65 71  0  0  0  0  0  0  0  0999 V2000
   -4.6678    0.6225   -0.6816 C   0  0  0  0  0  0  0  0  0  0  0  0
   -5.5792    0.6772    0.4713 N   0  0  0  0  0  0  0  0  0  0  0  0
   -5.6508    2.0691    0.7854 C   0  0  0  0  0  0  0  0  0  0  0  0
   -4.3178    2.6390    0.3456 C   0  0  0  0  0  0  0  0  0  0  0  0
   -3.6040    1.4920   -0.2263 N   0  0  0  0  0  0  0  0  0  0  0  0
   -2.2208    1.2736   -0.3171 C   0  0  0  0  0  0  0  0  0  0  0  0
   -1.7389    0.1025   -0.8646 C   0  0  0  0  0  0  0  0  0  0  0  0
   -0.3721   -0.1487   -0.9744 C   0  0  0  0  0  0  0  0  0  0  0  0
    0.5364    0.8065   -0.5198 C   0  0  0  0  0  0  0  0  0  0  0  0
    0.0137    1.9581    0.0182 C   0  0  0  0  0  0  0  0  0  0  0  0
   -1.2993    2.1578    0.1043 N   0  0  0  0  0  0  0  0  0  0  0  0
    1.9611    0.5541   -0.6284 C   0  0  0  0  0  0  0  0  0  0  0  0
    2.9000    1.0403    0.2568 C   0  0  0  0  0  0  0  0  0  0  0  0
    4.2002    0.7366    0.0491 N   0  0  0  0  0  0  0  0  0  0  0  0
    4.6172   -0.0241   -0.9910 C   0  0  0  0  0  0  0  0  0  0  0  0
    5.8539   -0.4495   -1.3898 C   0  0  0  0  0  0  0  0  0  0  0  0
    5.6442   -1.2060   -2.5389 C   0  0  0  0  0  0  0  0  0  0  0  0
    4.3415   -1.2323   -2.8147 N   0  0  0  0  0  0  0  0  0  0  0  0
    3.7201   -0.5111   -1.8694 N   0  0  0  0  0  0  0  0  0  0  0  0
    2.4264   -0.2147   -1.6709 C   0  0  0  0  0  0  0  0  0  0  0  0
    7.1559   -0.1954   -0.7831 C   0  0  0  0  0  0  0  0  0  0  0  0
    8.0675    0.6498   -1.4009 C   0  0  0  0  0  0  0  0  0  0  0  0
    9.3059    0.9130   -0.8608 C   0  0  0  0  0  0  0  0  0  0  0  0
    9.6368    0.3126    0.3286 C   0  0  0  0  0  0  0  0  0  0  0  0
    8.7661   -0.5361    0.9832 C   0  0  0  0  0  0  0  0  0  0  0  0
    9.1491   -1.1081    2.1663 C   0  0  0  0  0  0  0  0  0  0  0  0
    8.2837   -1.9518    2.8164 C   0  0  0  0  0  0  0  0  0  0  0  0
    7.0257   -2.2246    2.2764 C   0  0  0  0  0  0  0  0  0  0  0  0
    6.6714   -1.6345    1.0863 C   0  0  0  0  0  0  0  0  0  0  0  0
    7.5170   -0.7828    0.4099 C   0  0  0  0  0  0  0  0  0  0  0  0
   -6.8320    0.1362   -0.0100 C   0  0  0  0  0  0  0  0  0  0  0  0
   -6.5774   -1.3061   -0.4174 C   0  0  0  0  0  0  0  0  0  0  0  0
   -7.8604   -2.1181   -0.2178 C   0  0  0  0  0  0  0  0  0  0  0  0
   -9.0405   -1.3361   -0.5079 N   0  0  0  0  0  0  0  0  0  0  0  0
   -9.2200   -0.2095    0.3518 C   0  0  0  0  0  0  0  0  0  0  0  0
   -7.9127    0.1256    1.0432 C   0  0  0  0  0  0  0  0  0  0  0  0
   -5.1686    1.0722   -1.5611 H   0  0  0  0  0  0  0  0  0  0  0  0
   -4.3764   -0.4197   -0.8099 H   0  0  0  0  0  0  0  0  0  0  0  0
   -6.5070    2.5893    0.3117 H   0  0  0  0  0  0  0  0  0  0  0  0
   -5.6690    2.1588    1.9055 H   0  0  0  0  0  0  0  0  0  0  0  0
   -3.7153    3.0360    1.1588 H   0  0  0  0  0  0  0  0  0  0  0  0
   -4.4443    3.3759   -0.4794 H   0  0  0  0  0  0  0  0  0  0  0  0
   -2.3964   -0.6711   -1.2313 H   0  0  0  0  0  0  0  0  0  0  0  0
   -0.0176   -1.0647   -1.4016 H   0  0  0  0  0  0  0  0  0  0  0  0
    0.7437    2.7005    0.3717 H   0  0  0  0  0  0  0  0  0  0  0  0
    2.5921    1.6428    1.0850 H   0  0  0  0  0  0  0  0  0  0  0  0
    6.4568   -1.6758   -3.0791 H   0  0  0  0  0  0  0  0  0  0  0  0
    1.7051   -0.6183   -2.3965 H   0  0  0  0  0  0  0  0  0  0  0  0
    7.8169    1.1239   -2.3335 H   0  0  0  0  0  0  0  0  0  0  0  0
   10.0035    1.5787   -1.3627 H   0  0  0  0  0  0  0  0  0  0  0  0
   10.5963    0.4994    0.7704 H   0  0  0  0  0  0  0  0  0  0  0  0
   10.1075   -0.9074    2.5884 H   0  0  0  0  0  0  0  0  0  0  0  0
    8.5161   -2.4378    3.7518 H   0  0  0  0  0  0  0  0  0  0  0  0
    6.3523   -2.8902    2.7957 H   0  0  0  0  0  0  0  0  0  0  0  0
    5.6847   -1.8482    0.6646 H   0  0  0  0  0  0  0  0  0  0  0  0
   -7.2159    0.7063   -0.8759 H   0  0  0  0  0  0  0  0  0  0  0  0
   -6.2235   -1.3749   -1.4645 H   0  0  0  0  0  0  0  0  0  0  0  0
   -5.8084   -1.7990    0.2145 H   0  0  0  0  0  0  0  0  0  0  0  0
   -7.7959   -2.9555   -0.9535 H   0  0  0  0  0  0  0  0  0  0  0  0
   -7.8547   -2.5717    0.7779 H   0  0  0  0  0  0  0  0  0  0  0  0
   -9.0280   -1.0974   -1.5223 H   0  0  0  0  0  0  0  0  0  0  0  0
   -9.4396    0.6785   -0.3101 H   0  0  0  0  0  0  0  0  0  0  0  0
  -10.0471   -0.3420    1.0846 H   0  0  0  0  0  0  0  0  0  0  0  0
   -7.7451   -0.6553    1.8124 H   0  0  0  0  0  0  0  0  0  0  0  0
   -8.0225    1.0899    1.5560 H   0  0  0  0  0  0  0  0  0  0  0  0
  1  2  1  0
  2  3  1  0
  3  4  1  0
  4  5  1  0
  5  6  1  0
  6  7  2  0
  7  8  1  0
  8  9  2  0
  9 10  1  0
 10 11  2  0
  9 12  1  0
 12 13  1  0
 13 14  2  0
 14 15  1  0
 15 16  2  0
 16 17  1  0
 17 18  2  0
 18 19  1  0
 19 20  1  0
 16 21  1  0
 21 22  2  0
 22 23  1  0
 23 24  2  0
 24 25  1  0
 25 26  2  0
 26 27  1  0
 27 28  2  0
 28 29  1  0
 29 30  2  0
  2 31  1  0
 31 32  1  0
 32 33  1  0
 33 34  1  0
 34 35  1  0
 35 36  1  0
  5  1  1  0
 11  6  1  0
 20 12  2  0
 30 21  1  0
 36 31  1  0
 19 15  1  0
 30 25  1  0
  1 37  1  0
  1 38  1  0
  3 39  1  0
  3 40  1  0
  4 41  1  0
  4 42  1  0
  7 43  1  0
  8 44  1  0
 10 45  1  0
 13 46  1  0
 17 47  1  0
 20 48  1  0
 22 49  1  0
 23 50  1  0
 24 51  1  0
 26 52  1  0
 27 53  1  0
 28 54  1  0
 29 55  1  0
 31 56  1  0
 32 57  1  0
 32 58  1  0
 33 59  1  0
 33 60  1  0
 34 61  1  0
 35 62  1  0
 35 63  1  0
 36 64  1  0
 36 65  1  0
M  END
$$$$
[H]C([H])([H])OC([H])([H])C([H])([H])N1C([H])([H])C([H])([H])N(C([H])([H])C([H])([H])N2C([H])([H])C([H])([H])C([H])([H])C([H])([H])C2([H])[H])C([H])([H])C1([H])[H]
     RDKit          3D

 47 48  0  0  0  0  0  0  0  0999 V2000
    6.4365    1.3130    0.2312 C   0  0  0  0  0  0  0  0  0  0  0  0
    6.0383    0.1270   -0.3218 O   0  0  0  0  0  0  0  0  0  0  0  0
    4.7613   -0.2952   -0.0362 C   0  0  0  0  0  0  0  0  0  0  0  0
    3.7680    0.7053   -0.5181 C   0  0  0  0  0  0  0  0  0  0  0  0
    2.3952    0.3638   -0.2720 N   0  0  0  0  0  0  0  0  0  0  0  0
    2.0296    0.3635    1.1135 C   0  0  0  0  0  0  0  0  0  0  0  0
    0.5945    0.1883    1.2891 C   0  0  0  0  0  0  0  0  0  0  0  0
   -0.2392   -0.3657    0.2775 N   0  0  0  0  0  0  0  0  0  0  0  0
   -1.0779   -1.4406    0.7904 C   0  0  0  0  0  0  0  0  0  0  0  0
   -2.1842   -1.8896   -0.0729 C   0  0  0  0  0  0  0  0  0  0  0  0
   -3.2074   -0.9253   -0.3676 N   0  0  0  0  0  0  0  0  0  0  0  0
   -4.0041   -0.5781    0.7805 C   0  0  0  0  0  0  0  0  0  0  0  0
   -4.5557    0.8104    0.7794 C   0  0  0  0  0  0  0  0  0  0  0  0
   -5.0315    1.2834   -0.5760 C   0  0  0  0  0  0  0  0  0  0  0  0
   -4.1319    0.8543   -1.6847 C   0  0  0  0  0  0  0  0  0  0  0  0
   -2.8487    0.1727   -1.1869 C   0  0  0  0  0  0  0  0  0  0  0  0
    0.4191   -0.7282   -0.9368 C   0  0  0  0  0  0  0  0  0  0  0  0
    1.9196   -0.8370   -0.8579 C   0  0  0  0  0  0  0  0  0  0  0  0
    6.4239    1.3470    1.3454 H   0  0  0  0  0  0  0  0  0  0  0  0
    7.5062    1.4906   -0.0877 H   0  0  0  0  0  0  0  0  0  0  0  0
    5.9063    2.2104   -0.1387 H   0  0  0  0  0  0  0  0  0  0  0  0
    4.6094   -1.2463   -0.6360 H   0  0  0  0  0  0  0  0  0  0  0  0
    4.6369   -0.6108    1.0214 H   0  0  0  0  0  0  0  0  0  0  0  0
    3.9625    0.8847   -1.5946 H   0  0  0  0  0  0  0  0  0  0  0  0
    3.9602    1.6745   -0.0099 H   0  0  0  0  0  0  0  0  0  0  0  0
    2.6014   -0.5033    1.5685 H   0  0  0  0  0  0  0  0  0  0  0  0
    2.3618    1.3205    1.5956 H   0  0  0  0  0  0  0  0  0  0  0  0
    0.3241   -0.3715    2.2455 H   0  0  0  0  0  0  0  0  0  0  0  0
    0.1477    1.2124    1.5091 H   0  0  0  0  0  0  0  0  0  0  0  0
   -0.3707   -2.2786    1.0192 H   0  0  0  0  0  0  0  0  0  0  0  0
   -1.4178   -1.0827    1.7995 H   0  0  0  0  0  0  0  0  0  0  0  0
   -1.8209   -2.2716   -1.0407 H   0  0  0  0  0  0  0  0  0  0  0  0
   -2.6994   -2.7370    0.4577 H   0  0  0  0  0  0  0  0  0  0  0  0
   -3.4581   -0.7161    1.7442 H   0  0  0  0  0  0  0  0  0  0  0  0
   -4.8560   -1.2858    0.8017 H   0  0  0  0  0  0  0  0  0  0  0  0
   -3.9074    1.5524    1.2886 H   0  0  0  0  0  0  0  0  0  0  0  0
   -5.4947    0.7834    1.4159 H   0  0  0  0  0  0  0  0  0  0  0  0
   -5.1597    2.3835   -0.5098 H   0  0  0  0  0  0  0  0  0  0  0  0
   -6.0416    0.8690   -0.8000 H   0  0  0  0  0  0  0  0  0  0  0  0
   -4.6395    0.1740   -2.4117 H   0  0  0  0  0  0  0  0  0  0  0  0
   -3.8017    1.7373   -2.2660 H   0  0  0  0  0  0  0  0  0  0  0  0
   -2.3894   -0.2202   -2.1303 H   0  0  0  0  0  0  0  0  0  0  0  0
   -2.2506    0.9673   -0.6983 H   0  0  0  0  0  0  0  0  0  0  0  0
    0.1923    0.0091   -1.7212 H   0  0  0  0  0  0  0  0  0  0  0  0
    0.0491   -1.7137   -1.2704 H   0  0  0  0  0  0  0  0  0  0  0  0
    2.3254   -0.9288   -1.8832 H   0  0  0  0  0  0  0  0  0  0  0  0
    2.2188   -1.7720   -0.3188 H   0  0  0  0  0  0  0  0  0  0  0  0
  1  2  1  0
  2  3  1  0
  3  4  1  0
  4  5  1  0
  5  6  1  0
  6  7  1  0
  7  8  1  0
  8  9  1  0
  9 10  1  0
 10 11  1  0
 11 12  1  0
 12 13  1  0
 13 14  1  0
 14 15  1  0
 15 16  1  0
  8 17  1  0
 17 18  1  0
 18  5  1  0
 16 11  1  0
  1 19  1  0
  1 20  1  0
  1 21  1  0
  3 22  1  0
  3 23  1  0
  4 24  1  0
  4 25  1  0
  6 26  1  0
  6 27  1  0
  7 28  1  0
  7 29  1  0
  9 30  1  0
  9 31  1  0
 10 32  1  0
 10 33  1  0
 12 34  1  0
 12 35  1  0
 13 36  1  0
 13 37  1  0
 14 38  1  0
 14 39  1  0
 15 40  1  0
 15 41  1  0
 16 42  1  0
 16 43  1  0
 17 44  1  0
 17 45  1  0
 18 46  1  0
 18 47  1  0
M  END
$$$$
[H]C1=C([H])C([H])(F)C([H])([H])C([H])=C1N([H])C(=O)C1(C(=O)N([H])c2c([H])c([H])c(Oc3c([H])c([H])nc4c([H])c(OC([H])([H])C([H])([H])C([H])([H])N5C([H])([H])C([H])([H])C([H])([H])C5([H])[H])c(OC([H])([H])[H])c([H])c34)c(F)c2[H])C([H])([H])C1([H])[H]
     RDKit          3D

 81 86  0  0  0  0  0  0  0  0999 V2000
   -3.5877    0.0230   -2.5605 C   0  0  0  0  0  0  0  0  0  0  0  0
   -4.4433   -0.0435   -1.4508 O   0  0  0  0  0  0  0  0  0  0  0  0
   -3.9880   -0.2494   -0.1491 C   0  0  0  0  0  0  0  0  0  0  0  0
   -2.6478   -0.3994    0.1096 C   0  0  0  0  0  0  0  0  0  0  0  0
   -2.1587   -0.6042    1.3755 C   0  0  0  0  0  0  0  0  0  0  0  0
   -0.7923   -0.7567    1.6112 C   0  0  0  0  0  0  0  0  0  0  0  0
    0.0250   -0.6916    0.5279 O   0  0  0  0  0  0  0  0  0  0  0  0
    1.3913   -0.8525    0.4754 C   0  0  0  0  0  0  0  0  0  0  0  0
    2.2342    0.1729    0.0692 C   0  0  0  0  0  0  0  0  0  0  0  0
    3.5918   -0.0103    0.0220 C   0  0  0  0  0  0  0  0  0  0  0  0
    4.2120   -1.2204    0.3732 C   0  0  0  0  0  0  0  0  0  0  0  0
    5.6358   -1.3113    0.3171 N   0  0  0  0  0  0  0  0  0  0  0  0
    6.4056   -2.4553    0.1478 C   0  0  0  0  0  0  0  0  0  0  0  0
    5.7718   -3.5663    0.0427 O   0  0  0  0  0  0  0  0  0  0  0  0
    7.8601   -2.5227    0.0895 C   0  0  0  0  0  0  0  0  0  0  0  0
    8.4588   -3.8753   -0.2867 C   0  0  0  0  0  0  0  0  0  0  0  0
    8.4428   -3.4847    1.1392 C   0  0  0  0  0  0  0  0  0  0  0  0
    8.7035   -1.3424   -0.2300 C   0  0  0  0  0  0  0  0  0  0  0  0
    9.9255   -1.4864    0.1717 O   0  0  0  0  0  0  0  0  0  0  0  0
    8.2626   -0.2155   -0.8859 N   0  0  0  0  0  0  0  0  0  0  0  0
    8.9663    0.9916   -1.2279 C   0  0  0  0  0  0  0  0  0  0  0  0
   10.2261    1.1961   -0.9431 C   0  0  0  0  0  0  0  0  0  0  0  0
   10.9546    2.4310   -1.2907 C   0  0  0  0  0  0  0  0  0  0  0  0
   10.1946    3.4846   -1.9837 C   0  0  0  0  0  0  0  0  0  0  0  0
   10.2335    4.6437   -1.1848 F   0  0  0  0  0  0  0  0  0  0  0  0
    8.8021    3.1813   -2.2644 C   0  0  0  0  0  0  0  0  0  0  0  0
    8.2359    2.0634   -1.9301 C   0  0  0  0  0  0  0  0  0  0  0  0
    3.3805   -2.2291    0.7736 C   0  0  0  0  0  0  0  0  0  0  0  0
    1.9865   -2.0377    0.8203 C   0  0  0  0  0  0  0  0  0  0  0  0
    1.2365   -3.0982    1.2142 F   0  0  0  0  0  0  0  0  0  0  0  0
   -0.4287   -0.9581    2.9201 C   0  0  0  0  0  0  0  0  0  0  0  0
   -1.3521   -1.0070    3.9339 C   0  0  0  0  0  0  0  0  0  0  0  0
   -2.6377   -0.8567    3.6575 N   0  0  0  0  0  0  0  0  0  0  0  0
   -3.0892   -0.6527    2.3915 C   0  0  0  0  0  0  0  0  0  0  0  0
   -4.4416   -0.5052    2.1646 C   0  0  0  0  0  0  0  0  0  0  0  0
   -4.8811   -0.3029    0.8827 C   0  0  0  0  0  0  0  0  0  0  0  0
   -6.2490   -0.1596    0.6965 O   0  0  0  0  0  0  0  0  0  0  0  0
   -7.1921   -0.2052    1.7204 C   0  0  0  0  0  0  0  0  0  0  0  0
   -8.5663   -0.0150    1.1322 C   0  0  0  0  0  0  0  0  0  0  0  0
   -8.6955    1.3020    0.4220 C   0  0  0  0  0  0  0  0  0  0  0  0
  -10.0037    1.4621   -0.1281 N   0  0  0  0  0  0  0  0  0  0  0  0
  -10.2287    2.6808   -0.8350 C   0  0  0  0  0  0  0  0  0  0  0  0
  -11.1566    2.3511   -2.0081 C   0  0  0  0  0  0  0  0  0  0  0  0
  -11.7165    1.0092   -1.5741 C   0  0  0  0  0  0  0  0  0  0  0  0
  -10.4689    0.3786   -0.9383 C   0  0  0  0  0  0  0  0  0  0  0  0
   -4.1462    0.4826   -3.4058 H   0  0  0  0  0  0  0  0  0  0  0  0
   -2.7486    0.7305   -2.3481 H   0  0  0  0  0  0  0  0  0  0  0  0
   -3.2042   -0.9751   -2.8684 H   0  0  0  0  0  0  0  0  0  0  0  0
   -1.9172   -0.3599   -0.6920 H   0  0  0  0  0  0  0  0  0  0  0  0
    1.7492    1.1006   -0.1989 H   0  0  0  0  0  0  0  0  0  0  0  0
    4.2444    0.7990   -0.2985 H   0  0  0  0  0  0  0  0  0  0  0  0
    6.1068   -0.3582    0.4880 H   0  0  0  0  0  0  0  0  0  0  0  0
    7.7266   -4.6220   -0.6534 H   0  0  0  0  0  0  0  0  0  0  0  0
    9.4183   -3.8918   -0.8472 H   0  0  0  0  0  0  0  0  0  0  0  0
    9.4104   -3.1476    1.6028 H   0  0  0  0  0  0  0  0  0  0  0  0
    7.7630   -3.9592    1.8454 H   0  0  0  0  0  0  0  0  0  0  0  0
    7.2650   -0.2466   -1.2614 H   0  0  0  0  0  0  0  0  0  0  0  0
   10.8241    0.4296   -0.4110 H   0  0  0  0  0  0  0  0  0  0  0  0
   11.8456    2.1794   -1.9484 H   0  0  0  0  0  0  0  0  0  0  0  0
   11.3908    2.8108   -0.3161 H   0  0  0  0  0  0  0  0  0  0  0  0
   10.6645    3.7949   -2.9610 H   0  0  0  0  0  0  0  0  0  0  0  0
    8.2315    3.9729   -2.7929 H   0  0  0  0  0  0  0  0  0  0  0  0
    7.1670    1.8981   -2.1758 H   0  0  0  0  0  0  0  0  0  0  0  0
    3.7856   -3.1876    1.0764 H   0  0  0  0  0  0  0  0  0  0  0  0
    0.6075   -1.0712    3.1537 H   0  0  0  0  0  0  0  0  0  0  0  0
   -1.0717   -1.1659    4.9745 H   0  0  0  0  0  0  0  0  0  0  0  0
   -5.1120   -0.5552    3.0169 H   0  0  0  0  0  0  0  0  0  0  0  0
   -7.1820   -1.2490    2.1462 H   0  0  0  0  0  0  0  0  0  0  0  0
   -6.9796    0.4646    2.5680 H   0  0  0  0  0  0  0  0  0  0  0  0
   -9.3685   -0.0413    1.9143 H   0  0  0  0  0  0  0  0  0  0  0  0
   -8.7385   -0.8568    0.4359 H   0  0  0  0  0  0  0  0  0  0  0  0
   -8.5595    2.1075    1.1881 H   0  0  0  0  0  0  0  0  0  0  0  0
   -7.8715    1.4342   -0.3151 H   0  0  0  0  0  0  0  0  0  0  0  0
  -10.7856    3.4045   -0.1999 H   0  0  0  0  0  0  0  0  0  0  0  0
   -9.3011    3.1863   -1.1756 H   0  0  0  0  0  0  0  0  0  0  0  0
  -11.9700    3.1048   -2.1030 H   0  0  0  0  0  0  0  0  0  0  0  0
  -10.5960    2.2617   -2.9622 H   0  0  0  0  0  0  0  0  0  0  0  0
  -12.4672    1.2054   -0.7918 H   0  0  0  0  0  0  0  0  0  0  0  0
  -12.0978    0.4163   -2.4102 H   0  0  0  0  0  0  0  0  0  0  0  0
  -10.7030   -0.5229   -0.3684 H   0  0  0  0  0  0  0  0  0  0  0  0
   -9.7919    0.1704   -1.8195 H   0  0  0  0  0  0  0  0  0  0  0  0
  1  2  1  0
  2  3  1  0
  3  4  2  0
  4  5  1  0
  5  6  2  0
  6  7  1  0
  7  8  1  0
  8  9  2  0
  9 10  1  0
 10 11  2  0
 11 12  1  0
 12 13  1  0
 13 14  2  0
 13 15  1  0
 15 16  1  0
 16 17  1  0
 15 18  1  0
 18 19  2  0
 18 20  1  0
 20 21  1  0
 21 22  2  0
 22 23  1  0
 23 24  1  0
 24 25  1  0
 24 26  1  0
 26 27  2  0
 11 28  1  0
 28 29  2  0
 29 30  1  0
  6 31  1  0
 31 32  2  0
 32 33  1  0
 33 34  2  0
 34 35  1  0
 35 36  2  0
 36 37  1  0
 37 38  1  0
 38 39  1  0
 39 40  1  0
 40 41  1  0
 41 42  1  0
 42 43  1  0
 43 44  1  0
 44 45  1  0
 36  3  1  0
 45 41  1  0
 34  5  1  0
 29  8  1  0
 17 15  1  0
 27 21  1  0
  1 46  1  0
  1 47  1  0
  1 48  1  0
  4 49  1  0
  9 50  1  0
 10 51  1  0
 12 52  1  0
 16 53  1  0
 16 54  1  0
 17 55  1  0
 17 56  1  0
 20 57  1  0
 22 58  1  0
 23 59  1  0
 23 60  1  0
 24 61  1  0
 26 62  1  0
 27 63  1  0
 28 64  1  0
 31 65  1  0
 32 66  1  0
 35 67  1  0
 38 68  1  0
 38 69  1  0
 39 70  1  0
 39 71  1  0
 40 72  1  0
 40 73  1  0
 42 74  1  0
 42 75  1  0
 43 76  1  0
 43 77  1  0
 44 78  1  0
 44 79  1  0
 45 80  1  0
 45 81  1  0
M  END
$$$$
[H]c1nc([H])c(-c2c([H])c([H])c(C([H])([H])n3c([H])nc([H])c3[H])c([H])c2[H])c([H])c1[H]
     RDKit          3D

 31 33  0  0  0  0  0  0  0  0999 V2000
    3.6418    0.7838   -0.4608 C   0  0  0  0  0  0  0  0  0  0  0  0
    5.0140    0.5632   -0.5164 C   0  0  0  0  0  0  0  0  0  0  0  0
    5.5509   -0.4839    0.1973 C   0  0  0  0  0  0  0  0  0  0  0  0
    4.7434   -1.2551    0.9196 N   0  0  0  0  0  0  0  0  0  0  0  0
    3.4147   -1.0598    0.9876 C   0  0  0  0  0  0  0  0  0  0  0  0
    2.8234   -0.0267    0.2935 C   0  0  0  0  0  0  0  0  0  0  0  0
    1.3846    0.2436    0.3225 C   0  0  0  0  0  0  0  0  0  0  0  0
    0.7459    0.7802   -0.7822 C   0  0  0  0  0  0  0  0  0  0  0  0
   -0.6028    1.0330   -0.7553 C   0  0  0  0  0  0  0  0  0  0  0  0
   -1.3821    0.7727    0.3502 C   0  0  0  0  0  0  0  0  0  0  0  0
   -2.8139    1.0646    0.3169 C   0  0  0  0  0  0  0  0  0  0  0  0
   -3.6204   -0.0382   -0.1498 N   0  0  0  0  0  0  0  0  0  0  0  0
   -4.1327   -0.9762    0.6737 C   0  0  0  0  0  0  0  0  0  0  0  0
   -4.8445   -1.8747   -0.0907 C   0  0  0  0  0  0  0  0  0  0  0  0
   -4.7614   -1.4791   -1.3731 N   0  0  0  0  0  0  0  0  0  0  0  0
   -4.0123   -0.3579   -1.3962 C   0  0  0  0  0  0  0  0  0  0  0  0
   -0.7402    0.2388    1.4459 C   0  0  0  0  0  0  0  0  0  0  0  0
    0.6190   -0.0256    1.4445 C   0  0  0  0  0  0  0  0  0  0  0  0
    3.2617    1.6191   -1.0382 H   0  0  0  0  0  0  0  0  0  0  0  0
    5.6893    1.1670   -1.0888 H   0  0  0  0  0  0  0  0  0  0  0  0
    6.6188   -0.7146    0.1991 H   0  0  0  0  0  0  0  0  0  0  0  0
    2.7881   -1.7276    1.6012 H   0  0  0  0  0  0  0  0  0  0  0  0
    1.3480    0.9955   -1.6741 H   0  0  0  0  0  0  0  0  0  0  0  0
   -1.0764    1.4601   -1.6529 H   0  0  0  0  0  0  0  0  0  0  0  0
   -3.2128    1.3805    1.3157 H   0  0  0  0  0  0  0  0  0  0  0  0
   -3.0591    1.9318   -0.3605 H   0  0  0  0  0  0  0  0  0  0  0  0
   -4.0260   -1.0480    1.7635 H   0  0  0  0  0  0  0  0  0  0  0  0
   -5.3743   -2.7493    0.3120 H   0  0  0  0  0  0  0  0  0  0  0  0
   -3.7676    0.1968   -2.2917 H   0  0  0  0  0  0  0  0  0  0  0  0
   -1.3348    0.0298    2.3166 H   0  0  0  0  0  0  0  0  0  0  0  0
    1.1178   -0.4436    2.3058 H   0  0  0  0  0  0  0  0  0  0  0  0
  1  2  2  0
  2  3  1  0
  3  4  2  0
  4  5  1  0
  5  6  2  0
  6  7  1  0
  7  8  2  0
  8  9  1  0
  9 10  2  0
 10 11  1  0
 11 12  1  0
 12 13  1  0
 13 14  2  0
 14 15  1  0
 15 16  2  0
 10 17  1  0
 17 18  2  0
  6  1  1  0
 18  7  1  0
 16 12  1  0
  1 19  1  0
  2 20  1  0
  3 21  1  0
  5 22  1  0
  8 23  1  0
  9 24  1  0
 11 25  1  0
 11 26  1  0
 13 27  1  0
 14 28  1  0
 16 29  1  0
 17 30  1  0
 18 31  1  0
M  END
$$$$
[H]C(=O)c1c([H])c(I)c(OC([H])(C([H])([H])[H])C([H])([H])[H])c([H])c1C([H])([H])C1([H])C([H])([H])C([H])([H])N([H])C([H])([H])C1([H])[H]
     RDKit          3D

 42 43  0  0  0  0  0  0  0  0999 V2000
    4.0890   -1.7129    1.9015 C   0  0  0  0  0  0  0  0  0  0  0  0
    3.7459   -1.1220    0.5470 C   0  0  0  0  0  0  0  0  0  0  0  0
    5.0144   -1.2751   -0.3033 C   0  0  0  0  0  0  0  0  0  0  0  0
    3.4637    0.2363    0.6043 O   0  0  0  0  0  0  0  0  0  0  0  0
    2.3222    0.8778    0.1598 C   0  0  0  0  0  0  0  0  0  0  0  0
    1.2533    0.2528   -0.4232 C   0  0  0  0  0  0  0  0  0  0  0  0
    0.0940    0.9152   -0.8732 C   0  0  0  0  0  0  0  0  0  0  0  0
   -1.0319    0.1002   -1.3774 C   0  0  0  0  0  0  0  0  0  0  0  0
   -1.9866   -0.3943   -0.3342 C   0  0  0  0  0  0  0  0  0  0  0  0
   -2.6640    0.6355    0.4587 C   0  0  0  0  0  0  0  0  0  0  0  0
   -3.6993    0.0481    1.4192 C   0  0  0  0  0  0  0  0  0  0  0  0
   -4.7036   -0.5235    0.5237 N   0  0  0  0  0  0  0  0  0  0  0  0
   -4.1238   -1.6895   -0.0585 C   0  0  0  0  0  0  0  0  0  0  0  0
   -2.8930   -1.4625   -0.8851 C   0  0  0  0  0  0  0  0  0  0  0  0
    0.0627    2.2637   -0.7089 C   0  0  0  0  0  0  0  0  0  0  0  0
   -0.9951    3.1227   -1.2277 C   0  0  0  0  0  0  0  0  0  0  0  0
   -1.7643    2.8014   -2.1284 O   0  0  0  0  0  0  0  0  0  0  0  0
    1.1623    2.9257   -0.1040 C   0  0  0  0  0  0  0  0  0  0  0  0
    2.2661    2.2464    0.3199 C   0  0  0  0  0  0  0  0  0  0  0  0
    3.8681    3.3107    1.2136 I   0  0  0  0  0  0  0  0  0  0  0  0
    3.2823   -1.5324    2.6538 H   0  0  0  0  0  0  0  0  0  0  0  0
    4.1244   -2.8227    1.7475 H   0  0  0  0  0  0  0  0  0  0  0  0
    5.0789   -1.4036    2.2386 H   0  0  0  0  0  0  0  0  0  0  0  0
    2.9627   -1.7224    0.0836 H   0  0  0  0  0  0  0  0  0  0  0  0
    4.7339   -1.2437   -1.3725 H   0  0  0  0  0  0  0  0  0  0  0  0
    5.6598   -0.3929   -0.1231 H   0  0  0  0  0  0  0  0  0  0  0  0
    5.5568   -2.1902   -0.0614 H   0  0  0  0  0  0  0  0  0  0  0  0
    1.2703   -0.8039   -0.5591 H   0  0  0  0  0  0  0  0  0  0  0  0
   -0.5731   -0.8672   -1.8189 H   0  0  0  0  0  0  0  0  0  0  0  0
   -1.5446    0.5170   -2.2653 H   0  0  0  0  0  0  0  0  0  0  0  0
   -1.3230   -0.9649    0.4070 H   0  0  0  0  0  0  0  0  0  0  0  0
   -3.2838    1.3259   -0.1870 H   0  0  0  0  0  0  0  0  0  0  0  0
   -2.0229    1.2838    1.0767 H   0  0  0  0  0  0  0  0  0  0  0  0
   -4.1198    0.8667    2.0042 H   0  0  0  0  0  0  0  0  0  0  0  0
   -3.2912   -0.7554    2.0352 H   0  0  0  0  0  0  0  0  0  0  0  0
   -5.5491   -0.7868    1.0383 H   0  0  0  0  0  0  0  0  0  0  0  0
   -4.9431   -2.1702   -0.6739 H   0  0  0  0  0  0  0  0  0  0  0  0
   -3.9247   -2.4227    0.7611 H   0  0  0  0  0  0  0  0  0  0  0  0
   -2.3644   -2.4314   -0.9900 H   0  0  0  0  0  0  0  0  0  0  0  0
   -3.2142   -1.1526   -1.8983 H   0  0  0  0  0  0  0  0  0  0  0  0
   -1.1061    4.1178   -0.7804 H   0  0  0  0  0  0  0  0  0  0  0  0
    1.1105    3.9950    0.0182 H   0  0  0  0  0  0  0  0  0  0  0  0
  1  2  1  0
  2  3  1  0
  2  4  1  0
  4  5  1  0
  5  6  2  0
  6  7  1  0
  7  8  1  0
  8  9  1  0
  9 10  1  0
 10 11  1  0
 11 12  1  0
 12 13  1  0
 13 14  1  0
  7 15  2  0
 15 16  1  0
 16 17  2  0
 15 18  1  0
 18 19  2  0
 19 20  1  0
 19  5  1  0
 14  9  1  0
  1 21  1  0
  1 22  1  0
  1 23  1  0
  2 24  1  0
  3 25  1  0
  3 26  1  0
  3 27  1  0
  6 28  1  0
  8 29  1  0
  8 30  1  0
  9 31  1  0
 10 32  1  0
 10 33  1  0
 11 34  1  0
 11 35  1  0
 12 36  1  0
 13 37  1  0
 13 38  1  0
 14 39  1  0
 14 40  1  0
 16 41  1  0
 18 42  1  0
M  END
$$$$
[H]c1nc(C(F)(F)F)c([H])nc1N1C([H])([H])[C@]2([H])N(C([H])([H])[H])C(N([H])[H])=N[C@]1([H])C([H])([H])C2([H])[H]
     RDKit          2D

 36 38  0  0  0  0  0  0  0  0999 V2000
    3.2286   -0.0000    0.0000 C   0  0  0  0  0  0  0  0  0  0  0  0
    1.7286    0.0000    0.0000 N   0  0  0  0  0  0  0  0  0  0  0  0
    1.0777    1.3515    0.0000 C   0  0  0  0  0  0  0  0  0  0  0  0
    2.0130    2.5242    0.0000 N   0  0  0  0  0  0  0  0  0  0  0  0
   -0.3846    1.6852    0.0000 N   0  0  0  0  0  0  0  0  0  0  0  0
   -1.5574    0.7500    0.0000 C   0  0  0  0  0  0  0  0  0  0  0  0
   -1.5574   -0.7500    0.0000 C   0  0  0  0  0  0  0  0  0  0  0  0
   -0.3846   -1.6852    0.0000 C   0  0  0  0  0  0  0  0  0  0  0  0
    1.0777   -1.3515    0.0000 C   0  0  0  0  0  0  0  0  0  0  0  0
    0.4471   -0.1552    0.0000 C   0  0  0  0  0  0  0  0  0  0  0  0
   -0.2508    0.4013    0.0000 N   0  0  0  0  0  0  0  0  0  0  0  0
    0.2388    2.5462    0.0000 C   0  0  0  0  0  0  0  0  0  0  0  0
    1.6721    2.9883    0.0000 C   0  0  0  0  0  0  0  0  0  0  0  0
    2.0059    4.4507    0.0000 N   0  0  0  0  0  0  0  0  0  0  0  0
    0.9063    5.4710    0.0000 C   0  0  0  0  0  0  0  0  0  0  0  0
   -0.5270    5.0288    0.0000 C   0  0  0  0  0  0  0  0  0  0  0  0
   -0.8608    3.5664    0.0000 N   0  0  0  0  0  0  0  0  0  0  0  0
    1.2401    6.9333    0.0000 C   0  0  0  0  0  0  0  0  0  0  0  0
    1.5739    8.3957    0.0000 F   0  0  0  0  0  0  0  0  0  0  0  0
    2.7025    6.5996    0.0000 F   0  0  0  0  0  0  0  0  0  0  0  0
   -0.2223    7.2671    0.0000 F   0  0  0  0  0  0  0  0  0  0  0  0
    4.7286    0.0000    0.0000 H   0  0  0  0  0  0  0  0  0  0  0  0
    3.2286   -1.5000    0.0000 H   0  0  0  0  0  0  0  0  0  0  0  0
    3.5915    1.4554    0.0000 H   0  0  0  0  0  0  0  0  0  0  0  0
    3.4962    2.3006    0.0000 H   0  0  0  0  0  0  0  0  0  0  0  0
    1.8191    4.0116    0.0000 H   0  0  0  0  0  0  0  0  0  0  0  0
   -2.9088    1.4008    0.0000 H   0  0  0  0  0  0  0  0  0  0  0  0
   -2.3681   -2.0120    0.0000 H   0  0  0  0  0  0  0  0  0  0  0  0
   -3.0198   -0.4162    0.0000 H   0  0  0  0  0  0  0  0  0  0  0  0
    0.2662   -3.0367    0.0000 H   0  0  0  0  0  0  0  0  0  0  0  0
   -1.4346   -2.7564    0.0000 H   0  0  0  0  0  0  0  0  0  0  0  0
    2.0130   -2.5242    0.0000 H   0  0  0  0  0  0  0  0  0  0  0  0
    2.5256    0.5405    0.0000 H   0  0  0  0  0  0  0  0  0  0  0  0
    1.3822    1.6173    0.0000 H   0  0  0  0  0  0  0  0  0  0  0  0
    2.9859    2.2644    0.0000 H   0  0  0  0  0  0  0  0  0  0  0  0
   -1.6266    6.0491    0.0000 H   0  0  0  0  0  0  0  0  0  0  0  0
  1  2  1  0
  2  3  1  0
  3  4  1  0
  3  5  2  0
  5  6  1  0
  6  7  1  0
  7  8  1  0
  8  9  1  0
  9 10  1  0
 10 11  1  0
 11 12  1  0
 12 13  2  0
 13 14  1  0
 14 15  2  0
 15 16  1  0
 16 17  2  0
 15 18  1  0
 18 19  1  0
 18 20  1  0
 18 21  1  0
  9  2  1  0
 17 12  1  0
 11  6  1  0
  1 22  1  0
  1 23  1  0
  1 24  1  0
  4 25  1  0
  4 26  1  0
  6 27  1  6
  7 28  1  0
  7 29  1  0
  8 30  1  0
  8 31  1  0
  9 32  1  1
 10 33  1  0
 10 34  1  0
 13 35  1  0
 16 36  1  0
M  END
$$$$
[H]OC([H])([H])[C@@]1([H])N([H])[C@@]([H])(O[H])[C@@]([H])(O[H])[C@]([H])(O[H])[C@@]([H])(O[H])[C@]1([H])OP(=O)(O[H])O[H]
     RDKit          3D

 34 34  0  0  0  0  0  0  0  0999 V2000
   -0.7333    3.4075   -0.8249 O   0  0  0  0  0  0  0  0  0  0  0  0
    0.2786    2.4576   -0.6881 C   0  0  0  0  0  0  0  0  0  0  0  0
   -0.3303    1.2607    0.0038 C   0  0  1  0  0  0  0  0  0  0  0  0
   -1.4269    0.6983   -0.7617 N   0  0  0  0  0  0  0  0  0  0  0  0
   -2.3773    0.0042    0.0879 C   0  0  1  0  0  0  0  0  0  0  0  0
   -3.6426    0.2176   -0.4886 O   0  0  0  0  0  0  0  0  0  0  0  0
   -2.1549   -1.4737    0.1365 C   0  0  1  0  0  0  0  0  0  0  0  0
   -2.7046   -2.0375   -1.0365 O   0  0  0  0  0  0  0  0  0  0  0  0
   -0.6881   -1.8448    0.2703 C   0  0  2  0  0  0  0  0  0  0  0  0
   -0.5674   -3.1447    0.7532 O   0  0  0  0  0  0  0  0  0  0  0  0
    0.0466   -0.8583    1.1377 C   0  0  1  0  0  0  0  0  0  0  0  0
    1.0366   -1.4223    1.8987 O   0  0  0  0  0  0  0  0  0  0  0  0
    0.6901    0.1588    0.1864 C   0  0  2  0  0  0  0  0  0  0  0  0
    1.8797    0.5914    0.7145 O   0  0  0  0  0  0  0  0  0  0  0  0
    3.1674    0.2486   -0.2940 P   0  0  0  0  0  0  0  0  0  0  0  0
    4.4831   -0.3807    0.5785 O   0  0  0  0  0  0  0  0  0  0  0  0
    3.7291    1.6178   -1.1124 O   0  0  0  0  0  0  0  0  0  0  0  0
    2.8066   -0.7752   -1.3665 O   0  0  0  0  0  0  0  0  0  0  0  0
   -0.4043    4.2744   -0.5382 H   0  0  0  0  0  0  0  0  0  0  0  0
    0.6999    2.1965   -1.6607 H   0  0  0  0  0  0  0  0  0  0  0  0
    1.0746    2.8701   -0.0475 H   0  0  0  0  0  0  0  0  0  0  0  0
   -0.7179    1.5084    1.0058 H   0  0  0  0  0  0  0  0  0  0  0  0
   -1.8699    1.4725   -1.3049 H   0  0  0  0  0  0  0  0  0  0  0  0
   -2.4199    0.4737    1.0996 H   0  0  0  0  0  0  0  0  0  0  0  0
   -4.2805   -0.2588    0.0839 H   0  0  0  0  0  0  0  0  0  0  0  0
   -2.6763   -1.8913    1.0123 H   0  0  0  0  0  0  0  0  0  0  0  0
   -3.2992   -2.7830   -0.8246 H   0  0  0  0  0  0  0  0  0  0  0  0
   -0.2833   -1.8338   -0.7840 H   0  0  0  0  0  0  0  0  0  0  0  0
    0.1666   -3.6040    0.2698 H   0  0  0  0  0  0  0  0  0  0  0  0
   -0.6734   -0.3589    1.8156 H   0  0  0  0  0  0  0  0  0  0  0  0
    1.0303   -2.3942    1.9573 H   0  0  0  0  0  0  0  0  0  0  0  0
    0.8994   -0.3190   -0.7998 H   0  0  0  0  0  0  0  0  0  0  0  0
    5.2823   -0.4214    0.0261 H   0  0  0  0  0  0  0  0  0  0  0  0
    3.9793    2.3438   -0.5054 H   0  0  0  0  0  0  0  0  0  0  0  0
  1  2  1  0
  2  3  1  0
  3  4  1  0
  4  5  1  0
  5  6  1  0
  5  7  1  0
  7  8  1  0
  7  9  1  0
  9 10  1  0
  9 11  1  0
 11 12  1  0
 11 13  1  0
 13 14  1  0
 14 15  1  0
 15 16  1  0
 15 17  1  0
 15 18  2  0
 13  3  1  0
  1 19  1  0
  2 20  1  0
  2 21  1  0
  3 22  1  1
  4 23  1  0
  5 24  1  1
  6 25  1  0
  7 26  1  1
  8 27  1  0
  9 28  1  6
 10 29  1  0
 11 30  1  1
 12 31  1  0
 13 32  1  6
 16 33  1  0
 17 34  1  0
M  END
$$$$
[H]OC(=O)C([H])([H])C(=O)N([H])C([H])([H])C([H])(C([H])([H])c1c([H])c([H])c([H])c([H])c1C(F)(F)F)C([H])([H])C([H])([H])[H]
     RDKit          3D

 40 40  0  0  0  0  0  0  0  0999 V2000
    0.5775   -3.5735   -0.3363 C   0  0  0  0  0  0  0  0  0  0  0  0
   -0.0493   -2.4716   -1.1094 C   0  0  0  0  0  0  0  0  0  0  0  0
   -0.6212   -1.3703   -0.2072 C   0  0  0  0  0  0  0  0  0  0  0  0
    0.5639   -0.8490    0.5853 C   0  0  0  0  0  0  0  0  0  0  0  0
    1.6165   -0.3162   -0.2300 N   0  0  0  0  0  0  0  0  0  0  0  0
    2.7826    0.1869    0.4238 C   0  0  0  0  0  0  0  0  0  0  0  0
    2.8555    0.1573    1.6765 O   0  0  0  0  0  0  0  0  0  0  0  0
    3.8693    0.7285   -0.4478 C   0  0  0  0  0  0  0  0  0  0  0  0
    5.0006    1.2146    0.3686 C   0  0  0  0  0  0  0  0  0  0  0  0
    6.1167    1.7304   -0.2691 O   0  0  0  0  0  0  0  0  0  0  0  0
    4.9708    1.1696    1.6210 O   0  0  0  0  0  0  0  0  0  0  0  0
   -1.2472   -0.3785   -1.1167 C   0  0  0  0  0  0  0  0  0  0  0  0
   -1.9049    0.7799   -0.5684 C   0  0  0  0  0  0  0  0  0  0  0  0
   -1.1830    1.9659   -0.4651 C   0  0  0  0  0  0  0  0  0  0  0  0
   -1.7363    3.1082    0.0640 C   0  0  0  0  0  0  0  0  0  0  0  0
   -3.0166    3.1334    0.5116 C   0  0  0  0  0  0  0  0  0  0  0  0
   -3.7529    1.9821    0.4225 C   0  0  0  0  0  0  0  0  0  0  0  0
   -3.2069    0.8042   -0.1152 C   0  0  0  0  0  0  0  0  0  0  0  0
   -4.1062   -0.3469   -0.1767 C   0  0  0  0  0  0  0  0  0  0  0  0
   -4.2554   -0.8559   -1.4799 F   0  0  0  0  0  0  0  0  0  0  0  0
   -5.4410    0.1065    0.0769 F   0  0  0  0  0  0  0  0  0  0  0  0
   -3.9472   -1.3144    0.7726 F   0  0  0  0  0  0  0  0  0  0  0  0
    1.7009   -3.5394   -0.3452 H   0  0  0  0  0  0  0  0  0  0  0  0
    0.2289   -3.6742    0.7061 H   0  0  0  0  0  0  0  0  0  0  0  0
    0.3341   -4.5385   -0.8276 H   0  0  0  0  0  0  0  0  0  0  0  0
    0.6772   -1.9816   -1.7722 H   0  0  0  0  0  0  0  0  0  0  0  0
   -0.8688   -2.8885   -1.7457 H   0  0  0  0  0  0  0  0  0  0  0  0
   -1.2834   -1.8312    0.5421 H   0  0  0  0  0  0  0  0  0  0  0  0
    0.9697   -1.7486    1.1351 H   0  0  0  0  0  0  0  0  0  0  0  0
    0.2455   -0.1536    1.4063 H   0  0  0  0  0  0  0  0  0  0  0  0
    1.5517   -0.2817   -1.2682 H   0  0  0  0  0  0  0  0  0  0  0  0
    4.2266   -0.0742   -1.1298 H   0  0  0  0  0  0  0  0  0  0  0  0
    3.4507    1.5957   -0.9834 H   0  0  0  0  0  0  0  0  0  0  0  0
    6.6775    2.4132    0.1966 H   0  0  0  0  0  0  0  0  0  0  0  0
   -0.3978    0.0050   -1.7770 H   0  0  0  0  0  0  0  0  0  0  0  0
   -1.8554   -0.9649   -1.8479 H   0  0  0  0  0  0  0  0  0  0  0  0
   -0.1404    2.0330   -0.8122 H   0  0  0  0  0  0  0  0  0  0  0  0
   -1.1370    4.0089    0.1240 H   0  0  0  0  0  0  0  0  0  0  0  0
   -3.4910    4.0255    0.9387 H   0  0  0  0  0  0  0  0  0  0  0  0
   -4.7744    2.0040    0.7813 H   0  0  0  0  0  0  0  0  0  0  0  0
  1  2  1  0
  2  3  1  0
  3  4  1  0
  4  5  1  0
  5  6  1  0
  6  7  2  0
  6  8  1  0
  8  9  1  0
  9 10  1  0
  9 11  2  0
  3 12  1  0
 12 13  1  0
 13 14  2  0
 14 15  1  0
 15 16  2  0
 16 17  1  0
 17 18  2  0
 18 19  1  0
 19 20  1  0
 19 21  1  0
 19 22  1  0
 18 13  1  0
  1 23  1  0
  1 24  1  0
  1 25  1  0
  2 26  1  0
  2 27  1  0
  3 28  1  0
  4 29  1  0
  4 30  1  0
  5 31  1  0
  8 32  1  0
  8 33  1  0
 10 34  1  0
 12 35  1  0
 12 36  1  0
 14 37  1  0
 15 38  1  0
 16 39  1  0
 17 40  1  0
M  END
$$$$
[H]c1c([H])c(Cl)c2oc(SC([H])([H])C(=O)N([H])C([H])([H])C([H])([H])C([H])([H])N([H])C(=O)N([H])c3c([H])c([H])c4c(C([H])([H])[H])c(C(=O)N([H])[H])c(=O)oc4c3[H])nc2c1[H]
     RDKit          3D

 59 62  0  0  0  0  0  0  0  0999 V2000
   -8.3766    0.3783    1.3039 C   0  0  0  0  0  0  0  0  0  0  0  0
   -7.4279   -0.2839    0.3735 C   0  0  0  0  0  0  0  0  0  0  0  0
   -7.8287   -0.6446   -0.9133 C   0  0  0  0  0  0  0  0  0  0  0  0
   -9.1529   -0.5367   -1.3727 C   0  0  0  0  0  0  0  0  0  0  0  0
  -10.3356   -0.2506   -0.6181 N   0  0  0  0  0  0  0  0  0  0  0  0
   -9.3609   -0.6880   -2.6396 O   0  0  0  0  0  0  0  0  0  0  0  0
   -6.7888   -1.0899   -1.7779 C   0  0  0  0  0  0  0  0  0  0  0  0
   -7.1051   -1.4401   -2.9309 O   0  0  0  0  0  0  0  0  0  0  0  0
   -5.5803   -1.1697   -1.4428 O   0  0  0  0  0  0  0  0  0  0  0  0
   -5.1442   -0.8277   -0.2016 C   0  0  0  0  0  0  0  0  0  0  0  0
   -3.8572   -0.8900    0.0909 C   0  0  0  0  0  0  0  0  0  0  0  0
   -3.3924   -0.4805    1.4297 C   0  0  0  0  0  0  0  0  0  0  0  0
   -2.0194   -0.2484    1.3039 N   0  0  0  0  0  0  0  0  0  0  0  0
   -0.6665   -0.0630    1.2308 C   0  0  0  0  0  0  0  0  0  0  0  0
    0.1552   -0.4704    2.0162 O   0  0  0  0  0  0  0  0  0  0  0  0
   -0.4038    0.6896    0.0153 N   0  0  0  0  0  0  0  0  0  0  0  0
    0.5467    1.2328   -0.7956 C   0  0  0  0  0  0  0  0  0  0  0  0
    1.3248    0.3191   -1.6420 C   0  0  0  0  0  0  0  0  0  0  0  0
    2.3615   -0.5200   -0.7828 C   0  0  0  0  0  0  0  0  0  0  0  0
    3.0867    0.5166   -0.2441 N   0  0  0  0  0  0  0  0  0  0  0  0
    3.7972    1.5410    0.2973 C   0  0  0  0  0  0  0  0  0  0  0  0
    3.8036    2.1492    1.3254 O   0  0  0  0  0  0  0  0  0  0  0  0
    4.8126    2.0155   -0.7745 C   0  0  0  0  0  0  0  0  0  0  0  0
    6.2708    2.8326   -0.2384 S   0  0  0  0  0  0  0  0  0  0  0  0
    7.4223    1.4638    0.1673 C   0  0  0  0  0  0  0  0  0  0  0  0
    7.9555    0.7854   -0.9373 N   0  0  0  0  0  0  0  0  0  0  0  0
    8.7415   -0.1484   -0.4756 C   0  0  0  0  0  0  0  0  0  0  0  0
    9.5031   -1.1235   -1.1017 C   0  0  0  0  0  0  0  0  0  0  0  0
   10.2349   -2.0025   -0.3673 C   0  0  0  0  0  0  0  0  0  0  0  0
   10.2024   -1.9041    1.0154 C   0  0  0  0  0  0  0  0  0  0  0  0
    9.4454   -0.9491    1.6764 C   0  0  0  0  0  0  0  0  0  0  0  0
    9.4884   -0.8657    3.4026 Cl  0  0  0  0  0  0  0  0  0  0  0  0
    8.7178   -0.0819    0.9275 C   0  0  0  0  0  0  0  0  0  0  0  0
    7.8841    0.9476    1.2115 O   0  0  0  0  0  0  0  0  0  0  0  0
   -4.2750   -0.0816    2.3132 C   0  0  0  0  0  0  0  0  0  0  0  0
   -5.6557   -0.0221    1.9950 C   0  0  0  0  0  0  0  0  0  0  0  0
   -6.1106   -0.3903    0.7079 C   0  0  0  0  0  0  0  0  0  0  0  0
   -7.8709    1.0180    2.0807 H   0  0  0  0  0  0  0  0  0  0  0  0
   -8.8038    1.2306    0.6411 H   0  0  0  0  0  0  0  0  0  0  0  0
   -9.1870   -0.2213    1.6695 H   0  0  0  0  0  0  0  0  0  0  0  0
  -10.7486   -0.9166    0.0276 H   0  0  0  0  0  0  0  0  0  0  0  0
  -10.6940    0.7185   -0.6989 H   0  0  0  0  0  0  0  0  0  0  0  0
   -3.1118   -1.2157   -0.5736 H   0  0  0  0  0  0  0  0  0  0  0  0
   -2.2014    1.0236    0.8569 H   0  0  0  0  0  0  0  0  0  0  0  0
   -1.4391    0.7894   -0.5066 H   0  0  0  0  0  0  0  0  0  0  0  0
    1.2755    1.9248   -0.2434 H   0  0  0  0  0  0  0  0  0  0  0  0
    0.1092    2.0166   -1.5057 H   0  0  0  0  0  0  0  0  0  0  0  0
    2.0708    0.9577   -2.2297 H   0  0  0  0  0  0  0  0  0  0  0  0
    0.8391   -0.3491   -2.3301 H   0  0  0  0  0  0  0  0  0  0  0  0
    1.7282   -1.2032   -0.2541 H   0  0  0  0  0  0  0  0  0  0  0  0
    2.9519   -1.0821   -1.5970 H   0  0  0  0  0  0  0  0  0  0  0  0
    2.5811    0.2370    0.9986 H   0  0  0  0  0  0  0  0  0  0  0  0
    5.1527    0.9480   -1.1937 H   0  0  0  0  0  0  0  0  0  0  0  0
    4.3026    2.4339   -1.6563 H   0  0  0  0  0  0  0  0  0  0  0  0
    9.4964   -1.1614   -2.1812 H   0  0  0  0  0  0  0  0  0  0  0  0
   10.8218   -2.7557   -0.8685 H   0  0  0  0  0  0  0  0  0  0  0  0
   10.7988   -2.5972    1.6140 H   0  0  0  0  0  0  0  0  0  0  0  0
   -3.9814    0.2236    3.3009 H   0  0  0  0  0  0  0  0  0  0  0  0
   -6.3634    0.2818    2.7142 H   0  0  0  0  0  0  0  0  0  0  0  0
  1  2  1  0
  2  3  2  0
  3  4  1  0
  4  5  1  0
  4  6  2  0
  3  7  1  0
  7  8  2  0
  7  9  1  0
  9 10  1  0
 10 11  2  0
 11 12  1  0
 12 13  1  0
 13 14  1  0
 14 15  2  0
 14 16  1  0
 16 17  1  0
 17 18  1  0
 18 19  1  0
 19 20  1  0
 20 21  1  0
 21 22  2  0
 21 23  1  0
 23 24  1  0
 24 25  1  0
 25 26  2  0
 26 27  1  0
 27 28  2  0
 28 29  1  0
 29 30  2  0
 30 31  1  0
 31 32  1  0
 31 33  2  0
 33 34  1  0
 12 35  2  0
 35 36  1  0
 36 37  2  0
 37  2  1  0
 37 10  1  0
 34 25  1  0
 33 27  1  0
  1 38  1  0
  1 39  1  0
  1 40  1  0
  5 41  1  0
  5 42  1  0
 11 43  1  0
 13 44  1  0
 16 45  1  0
 17 46  1  0
 17 47  1  0
 18 48  1  0
 18 49  1  0
 19 50  1  0
 19 51  1  0
 20 52  1  0
 23 53  1  0
 23 54  1  0
 28 55  1  0
 29 56  1  0
 30 57  1  0
 35 58  1  0
 36 59  1  0
M  END
$$$$
[H]OC(=O)/C(=C(/[H])c1oc(-c2c([H])c([H])c3nc([H])nc(N([H])c4c([H])c([H])c(OC([H])([H])c5c([H])c([H])c([H])c([H])c5[H])c(Cl)c4[H])c3c2[H])c([H])c1[H])C([H])([H])C([H])([H])C([H])([H])C([H])([H])C([H])([H])S[H]
     RDKit          3D

 72 76  0  0  0  0  0  0  0  0999 V2000
   -7.6996   -4.9627    1.1580 S   0  0  0  0  0  0  0  0  0  0  0  0
   -8.1128   -3.9621   -0.3313 C   0  0  0  0  0  0  0  0  0  0  0  0
   -8.8643   -2.7077    0.1097 C   0  0  0  0  0  0  0  0  0  0  0  0
   -7.9154   -1.9561    1.0269 C   0  0  0  0  0  0  0  0  0  0  0  0
   -8.5877   -0.6913    1.5343 C   0  0  0  0  0  0  0  0  0  0  0  0
   -7.6593    0.0678    2.4241 C   0  0  0  0  0  0  0  0  0  0  0  0
   -6.4098    0.5333    1.6836 C   0  0  0  0  0  0  0  0  0  0  0  0
   -5.2472    0.0421    1.9893 C   0  0  0  0  0  0  0  0  0  0  0  0
   -3.9428    0.3355    1.4212 C   0  0  0  0  0  0  0  0  0  0  0  0
   -2.7652    0.4136    2.2250 C   0  0  0  0  0  0  0  0  0  0  0  0
   -1.7178    0.6997    1.3865 C   0  0  0  0  0  0  0  0  0  0  0  0
   -2.2449    0.7921    0.1163 C   0  0  0  0  0  0  0  0  0  0  0  0
   -3.4995    0.5723    0.2351 O   0  0  0  0  0  0  0  0  0  0  0  0
   -1.4528    1.0975   -1.0938 C   0  0  0  0  0  0  0  0  0  0  0  0
   -2.0033    1.2997   -2.3295 C   0  0  0  0  0  0  0  0  0  0  0  0
   -1.2804    1.6092   -3.4460 C   0  0  0  0  0  0  0  0  0  0  0  0
    0.0973    1.7263   -3.3189 C   0  0  0  0  0  0  0  0  0  0  0  0
    0.8441    2.0544   -4.3891 N   0  0  0  0  0  0  0  0  0  0  0  0
    2.1710    2.1882   -4.2672 C   0  0  0  0  0  0  0  0  0  0  0  0
    2.7899    1.9946   -3.0643 N   0  0  0  0  0  0  0  0  0  0  0  0
    2.1079    1.6641   -1.9525 C   0  0  0  0  0  0  0  0  0  0  0  0
    2.7454    1.3852   -0.7313 N   0  0  0  0  0  0  0  0  0  0  0  0
    4.1230    1.5434   -0.4682 C   0  0  0  0  0  0  0  0  0  0  0  0
    4.7310    0.6250    0.3589 C   0  0  0  0  0  0  0  0  0  0  0  0
    6.0513    0.7250    0.7320 C   0  0  0  0  0  0  0  0  0  0  0  0
    6.8108    1.7836    0.2679 C   0  0  0  0  0  0  0  0  0  0  0  0
    8.1585    1.8893    0.6674 O   0  0  0  0  0  0  0  0  0  0  0  0
    8.8372    0.9843    1.4532 C   0  0  0  0  0  0  0  0  0  0  0  0
    9.0219   -0.3688    0.8888 C   0  0  0  0  0  0  0  0  0  0  0  0
    9.3623   -1.4572    1.6948 C   0  0  0  0  0  0  0  0  0  0  0  0
    9.5605   -2.7144    1.1864 C   0  0  0  0  0  0  0  0  0  0  0  0
    9.4281   -2.9585   -0.1580 C   0  0  0  0  0  0  0  0  0  0  0  0
    9.0927   -1.9047   -0.9821 C   0  0  0  0  0  0  0  0  0  0  0  0
    8.8945   -0.6325   -0.4579 C   0  0  0  0  0  0  0  0  0  0  0  0
    6.2399    2.7171   -0.5592 C   0  0  0  0  0  0  0  0  0  0  0  0
    7.1548    4.0801   -1.1874 Cl  0  0  0  0  0  0  0  0  0  0  0  0
    4.8945    2.5788   -0.9160 C   0  0  0  0  0  0  0  0  0  0  0  0
    0.7282    1.5293   -2.0810 C   0  0  0  0  0  0  0  0  0  0  0  0
   -0.0756    1.2188   -1.0008 C   0  0  0  0  0  0  0  0  0  0  0  0
   -6.5630    1.5553    0.6805 C   0  0  0  0  0  0  0  0  0  0  0  0
   -5.5881    2.1548   -0.0656 O   0  0  0  0  0  0  0  0  0  0  0  0
   -7.7622    1.9566    0.4579 O   0  0  0  0  0  0  0  0  0  0  0  0
   -6.9281   -6.0644    0.7398 H   0  0  0  0  0  0  0  0  0  0  0  0
   -7.1469   -3.6989   -0.8172 H   0  0  0  0  0  0  0  0  0  0  0  0
   -8.7217   -4.6016   -0.9783 H   0  0  0  0  0  0  0  0  0  0  0  0
   -9.0933   -2.1009   -0.7867 H   0  0  0  0  0  0  0  0  0  0  0  0
   -9.7817   -3.0362    0.6245 H   0  0  0  0  0  0  0  0  0  0  0  0
   -6.9605   -1.7249    0.5385 H   0  0  0  0  0  0  0  0  0  0  0  0
   -7.6979   -2.6504    1.8858 H   0  0  0  0  0  0  0  0  0  0  0  0
   -9.0079   -0.1228    0.6969 H   0  0  0  0  0  0  0  0  0  0  0  0
   -9.4624   -1.0130    2.1463 H   0  0  0  0  0  0  0  0  0  0  0  0
   -8.1244    1.0343    2.7625 H   0  0  0  0  0  0  0  0  0  0  0  0
   -7.3555   -0.5166    3.2925 H   0  0  0  0  0  0  0  0  0  0  0  0
   -5.2700   -0.7104    2.8133 H   0  0  0  0  0  0  0  0  0  0  0  0
   -2.7622    0.2669    3.2777 H   0  0  0  0  0  0  0  0  0  0  0  0
   -0.6584    0.8317    1.6859 H   0  0  0  0  0  0  0  0  0  0  0  0
   -3.0873    1.2059   -2.4224 H   0  0  0  0  0  0  0  0  0  0  0  0
   -1.7346    1.7722   -4.4287 H   0  0  0  0  0  0  0  0  0  0  0  0
    2.7276    2.4560   -5.1567 H   0  0  0  0  0  0  0  0  0  0  0  0
    2.1881    1.0219    0.0927 H   0  0  0  0  0  0  0  0  0  0  0  0
    4.1463   -0.2290    0.7454 H   0  0  0  0  0  0  0  0  0  0  0  0
    6.4779   -0.0098    1.3879 H   0  0  0  0  0  0  0  0  0  0  0  0
    9.8187    1.4413    1.7365 H   0  0  0  0  0  0  0  0  0  0  0  0
    8.3394    0.8158    2.4569 H   0  0  0  0  0  0  0  0  0  0  0  0
    9.4607   -1.2129    2.7601 H   0  0  0  0  0  0  0  0  0  0  0  0
    9.8225   -3.5142    1.8633 H   0  0  0  0  0  0  0  0  0  0  0  0
    9.5851   -3.9686   -0.5783 H   0  0  0  0  0  0  0  0  0  0  0  0
    8.9839   -2.0808   -2.0527 H   0  0  0  0  0  0  0  0  0  0  0  0
    8.6326    0.1711   -1.1242 H   0  0  0  0  0  0  0  0  0  0  0  0
    4.4426    3.3056   -1.5631 H   0  0  0  0  0  0  0  0  0  0  0  0
    0.3460    1.0577   -0.0211 H   0  0  0  0  0  0  0  0  0  0  0  0
   -5.6321    2.3742   -1.0551 H   0  0  0  0  0  0  0  0  0  0  0  0
  1  2  1  0
  2  3  1  0
  3  4  1  0
  4  5  1  0
  5  6  1  0
  6  7  1  0
  7  8  2  0
  8  9  1  0
  9 10  2  0
 10 11  1  0
 11 12  2  0
 12 13  1  0
 12 14  1  0
 14 15  2  0
 15 16  1  0
 16 17  2  0
 17 18  1  0
 18 19  2  0
 19 20  1  0
 20 21  2  0
 21 22  1  0
 22 23  1  0
 23 24  2  0
 24 25  1  0
 25 26  2  0
 26 27  1  0
 27 28  1  0
 28 29  1  0
 29 30  2  0
 30 31  1  0
 31 32  2  0
 32 33  1  0
 33 34  2  0
 26 35  1  0
 35 36  1  0
 35 37  2  0
 21 38  1  0
 38 39  2  0
  7 40  1  0
 40 41  1  0
 40 42  2  0
 13  9  1  0
 39 14  1  0
 38 17  1  0
 37 23  1  0
 34 29  1  0
  1 43  1  0
  2 44  1  0
  2 45  1  0
  3 46  1  0
  3 47  1  0
  4 48  1  0
  4 49  1  0
  5 50  1  0
  5 51  1  0
  6 52  1  0
  6 53  1  0
  8 54  1  0
 10 55  1  0
 11 56  1  0
 15 57  1  0
 16 58  1  0
 19 59  1  0
 22 60  1  0
 24 61  1  0
 25 62  1  0
 28 63  1  0
 28 64  1  0
 30 65  1  0
 31 66  1  0
 32 67  1  0
 33 68  1  0
 34 69  1  0
 37 70  1  0
 39 71  1  0
 41 72  1  0
M  END
$$$$
[H]c1c([H])c(C([H])([H])N2C([H])([H])C([H])([H])C([H])([H])C(C([H])([H])[H])(C([H])([H])[H])C2([H])[H])c([H])c([H])c1-c1noc2c([H])c([H])c3c4c([H])c(C([H])([H])[H])c([H])c([H])c4n([H])c3c12
     RDKit          3D

 61 66  0  0  0  0  0  0  0  0999 V2000
   -8.7070    1.0731    1.5727 C   0  0  0  0  0  0  0  0  0  0  0  0
   -7.2744    0.8938    1.2364 C   0  0  0  0  0  0  0  0  0  0  0  0
   -6.4250    1.9757    1.1444 C   0  0  0  0  0  0  0  0  0  0  0  0
   -5.0970    1.7838    0.8303 C   0  0  0  0  0  0  0  0  0  0  0  0
   -4.6416    0.4819    0.6108 C   0  0  0  0  0  0  0  0  0  0  0  0
   -3.4162   -0.0229    0.2916 N   0  0  0  0  0  0  0  0  0  0  0  0
   -3.5048   -1.3504    0.1928 C   0  0  0  0  0  0  0  0  0  0  0  0
   -4.8152   -1.7408    0.4487 C   0  0  0  0  0  0  0  0  0  0  0  0
   -5.1662   -3.0606    0.3878 C   0  0  0  0  0  0  0  0  0  0  0  0
   -4.2296   -4.0173    0.0724 C   0  0  0  0  0  0  0  0  0  0  0  0
   -2.9257   -3.6716   -0.1862 C   0  0  0  0  0  0  0  0  0  0  0  0
   -1.8425   -4.3210   -0.5047 O   0  0  0  0  0  0  0  0  0  0  0  0
   -0.8437   -3.5450   -0.6470 N   0  0  0  0  0  0  0  0  0  0  0  0
   -1.2228   -2.2343   -0.4153 C   0  0  0  0  0  0  0  0  0  0  0  0
   -0.2851   -1.1418   -0.5180 C   0  0  0  0  0  0  0  0  0  0  0  0
    0.0342   -0.2337    0.4564 C   0  0  0  0  0  0  0  0  0  0  0  0
    0.9243    0.7931    0.3344 C   0  0  0  0  0  0  0  0  0  0  0  0
    1.5648    0.9322   -0.8848 C   0  0  0  0  0  0  0  0  0  0  0  0
    2.5411    2.0234   -1.0859 C   0  0  0  0  0  0  0  0  0  0  0  0
    3.8665    1.6623   -0.7749 N   0  0  0  0  0  0  0  0  0  0  0  0
    4.8681    2.6248   -0.9312 C   0  0  0  0  0  0  0  0  0  0  0  0
    6.2267    2.2334   -0.4175 C   0  0  0  0  0  0  0  0  0  0  0  0
    6.0268    1.3225    0.7755 C   0  0  0  0  0  0  0  0  0  0  0  0
    5.4016    0.0450    0.2561 C   0  0  0  0  0  0  0  0  0  0  0  0
    5.0510   -0.7978    1.4756 C   0  0  0  0  0  0  0  0  0  0  0  0
    6.4815   -0.7079   -0.4910 C   0  0  0  0  0  0  0  0  0  0  0  0
    4.2003    0.3155   -0.6085 C   0  0  0  0  0  0  0  0  0  0  0  0
    1.2903    0.0489   -1.9158 C   0  0  0  0  0  0  0  0  0  0  0  0
    0.3773   -0.9792   -1.7432 C   0  0  0  0  0  0  0  0  0  0  0  0
   -2.5552   -2.3212   -0.1242 C   0  0  0  0  0  0  0  0  0  0  0  0
   -5.5117   -0.5680    0.7103 C   0  0  0  0  0  0  0  0  0  0  0  0
   -6.8323   -0.3940    1.0211 C   0  0  0  0  0  0  0  0  0  0  0  0
   -9.3087    0.7008    0.7168 H   0  0  0  0  0  0  0  0  0  0  0  0
   -9.0010    0.4569    2.4597 H   0  0  0  0  0  0  0  0  0  0  0  0
   -8.9615    2.1170    1.8414 H   0  0  0  0  0  0  0  0  0  0  0  0
   -6.7707    2.9989    1.3141 H   0  0  0  0  0  0  0  0  0  0  0  0
   -4.4091    2.6156    0.7517 H   0  0  0  0  0  0  0  0  0  0  0  0
   -2.6326    0.6129    0.1576 H   0  0  0  0  0  0  0  0  0  0  0  0
   -6.2134   -3.3277    0.5977 H   0  0  0  0  0  0  0  0  0  0  0  0
   -4.5486   -5.0461    0.0342 H   0  0  0  0  0  0  0  0  0  0  0  0
   -0.4739   -0.3495    1.4126 H   0  0  0  0  0  0  0  0  0  0  0  0
    1.1545    1.4952    1.1281 H   0  0  0  0  0  0  0  0  0  0  0  0
    2.2499    2.9170   -0.4927 H   0  0  0  0  0  0  0  0  0  0  0  0
    2.4976    2.3134   -2.1750 H   0  0  0  0  0  0  0  0  0  0  0  0
    4.5789    3.5661   -0.3951 H   0  0  0  0  0  0  0  0  0  0  0  0
    4.9949    2.9402   -2.0054 H   0  0  0  0  0  0  0  0  0  0  0  0
    6.7649    3.1319   -0.0513 H   0  0  0  0  0  0  0  0  0  0  0  0
    6.8036    1.7562   -1.2207 H   0  0  0  0  0  0  0  0  0  0  0  0
    6.9818    1.0422    1.2652 H   0  0  0  0  0  0  0  0  0  0  0  0
    5.3278    1.8511    1.4601 H   0  0  0  0  0  0  0  0  0  0  0  0
    5.9001   -0.7197    2.1806 H   0  0  0  0  0  0  0  0  0  0  0  0
    4.8915   -1.8624    1.1440 H   0  0  0  0  0  0  0  0  0  0  0  0
    4.1035   -0.3851    1.8753 H   0  0  0  0  0  0  0  0  0  0  0  0
    6.3376   -0.6242   -1.5868 H   0  0  0  0  0  0  0  0  0  0  0  0
    7.4936   -0.3177   -0.2670 H   0  0  0  0  0  0  0  0  0  0  0  0
    6.4995   -1.7856   -0.2331 H   0  0  0  0  0  0  0  0  0  0  0  0
    4.3696   -0.2018   -1.5979 H   0  0  0  0  0  0  0  0  0  0  0  0
    3.3466   -0.2377   -0.1485 H   0  0  0  0  0  0  0  0  0  0  0  0
    1.7965    0.1707   -2.8574 H   0  0  0  0  0  0  0  0  0  0  0  0
    0.1481   -1.6796   -2.5336 H   0  0  0  0  0  0  0  0  0  0  0  0
   -7.4795   -1.2511    1.0885 H   0  0  0  0  0  0  0  0  0  0  0  0
  1  2  1  0
  2  3  2  0
  3  4  1  0
  4  5  2  0
  5  6  1  0
  6  7  1  0
  7  8  2  0
  8  9  1  0
  9 10  2  0
 10 11  1  0
 11 12  1  0
 12 13  1  0
 13 14  2  0
 14 15  1  0
 15 16  2  0
 16 17  1  0
 17 18  2  0
 18 19  1  0
 19 20  1  0
 20 21  1  0
 21 22  1  0
 22 23  1  0
 23 24  1  0
 24 25  1  0
 24 26  1  0
 24 27  1  0
 18 28  1  0
 28 29  2  0
 14 30  1  0
  8 31  1  0
 31 32  2  0
 32  2  1  0
 31  5  1  0
 30  7  1  0
 30 11  2  0
 29 15  1  0
 27 20  1  0
  1 33  1  0
  1 34  1  0
  1 35  1  0
  3 36  1  0
  4 37  1  0
  6 38  1  0
  9 39  1  0
 10 40  1  0
 16 41  1  0
 17 42  1  0
 19 43  1  0
 19 44  1  0
 21 45  1  0
 21 46  1  0
 22 47  1  0
 22 48  1  0
 23 49  1  0
 23 50  1  0
 25 51  1  0
 25 52  1  0
 25 53  1  0
 26 54  1  0
 26 55  1  0
 26 56  1  0
 27 57  1  0
 27 58  1  0
 28 59  1  0
 29 60  1  0
 32 61  1  0
M  END
$$$$
[H]c1c([H])c(F)c(-c2c([H])c3c([H])nc(N([H])c4c([H])c([H])c(N5C([H])([H])C([H])([H])C([H])(N([H])[H])C([H])([H])C5([H])[H])c([H])c4[H])nc3n2C2([H])C([H])([H])C([H])([H])C([H])([H])C([H])([H])C2([H])[H])c(F)c1[H]
     RDKit          3D

 69 74  0  0  0  0  0  0  0  0999 V2000
   10.2075    0.5396    0.8044 N   0  0  0  0  0  0  0  0  0  0  0  0
    8.7536    0.3625    0.8359 C   0  0  0  0  0  0  0  0  0  0  0  0
    8.1208    1.4730    0.0694 C   0  0  0  0  0  0  0  0  0  0  0  0
    7.3357    0.8858   -1.1133 C   0  0  0  0  0  0  0  0  0  0  0  0
    6.4091   -0.0433   -0.5278 N   0  0  0  0  0  0  0  0  0  0  0  0
    6.9872   -1.2391    0.0616 C   0  0  0  0  0  0  0  0  0  0  0  0
    8.4632   -1.0151    0.3454 C   0  0  0  0  0  0  0  0  0  0  0  0
    5.0053    0.1450   -0.4931 C   0  0  0  0  0  0  0  0  0  0  0  0
    4.1820   -0.8349    0.0241 C   0  0  0  0  0  0  0  0  0  0  0  0
    2.7903   -0.6893    0.0805 C   0  0  0  0  0  0  0  0  0  0  0  0
    2.1789    0.4296   -0.3743 C   0  0  0  0  0  0  0  0  0  0  0  0
    0.8186    0.6407   -0.3756 N   0  0  0  0  0  0  0  0  0  0  0  0
   -0.1922   -0.3299   -0.2642 C   0  0  0  0  0  0  0  0  0  0  0  0
   -0.0246   -1.6505   -0.1471 N   0  0  0  0  0  0  0  0  0  0  0  0
   -1.0059   -2.5498   -0.0426 C   0  0  0  0  0  0  0  0  0  0  0  0
   -2.3103   -2.0403   -0.0597 C   0  0  0  0  0  0  0  0  0  0  0  0
   -3.5316   -2.6537    0.0281 C   0  0  0  0  0  0  0  0  0  0  0  0
   -4.5187   -1.6373   -0.0402 C   0  0  0  0  0  0  0  0  0  0  0  0
   -5.9039   -2.0203    0.1512 C   0  0  0  0  0  0  0  0  0  0  0  0
   -6.1910   -3.0398    1.0935 C   0  0  0  0  0  0  0  0  0  0  0  0
   -5.2108   -3.5396    1.9043 F   0  0  0  0  0  0  0  0  0  0  0  0
   -7.4499   -3.5506    1.2597 C   0  0  0  0  0  0  0  0  0  0  0  0
   -8.4628   -3.0522    0.4841 C   0  0  0  0  0  0  0  0  0  0  0  0
   -8.2088   -2.0686   -0.4321 C   0  0  0  0  0  0  0  0  0  0  0  0
   -6.9198   -1.5377   -0.6131 C   0  0  0  0  0  0  0  0  0  0  0  0
   -6.8275   -0.6373   -1.6027 F   0  0  0  0  0  0  0  0  0  0  0  0
   -3.8794   -0.4762   -0.1617 N   0  0  0  0  0  0  0  0  0  0  0  0
   -4.4301    0.8389   -0.1731 C   0  0  0  0  0  0  0  0  0  0  0  0
   -3.3780    1.9460   -0.3677 C   0  0  0  0  0  0  0  0  0  0  0  0
   -4.2194    3.2307   -0.5851 C   0  0  0  0  0  0  0  0  0  0  0  0
   -4.9751    3.5927    0.6608 C   0  0  0  0  0  0  0  0  0  0  0  0
   -5.9015    2.4062    0.9756 C   0  0  0  0  0  0  0  0  0  0  0  0
   -5.0535    1.1749    1.1871 C   0  0  0  0  0  0  0  0  0  0  0  0
   -2.5326   -0.7077   -0.1769 C   0  0  0  0  0  0  0  0  0  0  0  0
   -1.4916    0.1017   -0.2744 N   0  0  0  0  0  0  0  0  0  0  0  0
    3.0059    1.4226   -0.8973 C   0  0  0  0  0  0  0  0  0  0  0  0
    4.3761    1.2794   -0.9525 C   0  0  0  0  0  0  0  0  0  0  0  0
   10.5052    1.3256    1.4217 H   0  0  0  0  0  0  0  0  0  0  0  0
   10.4970    0.6385   -0.1773 H   0  0  0  0  0  0  0  0  0  0  0  0
    8.3937    0.4516    1.9018 H   0  0  0  0  0  0  0  0  0  0  0  0
    8.8793    2.1791   -0.3641 H   0  0  0  0  0  0  0  0  0  0  0  0
    7.4249    2.0712    0.6662 H   0  0  0  0  0  0  0  0  0  0  0  0
    6.9181    1.6493   -1.7596 H   0  0  0  0  0  0  0  0  0  0  0  0
    8.1149    0.2656   -1.6587 H   0  0  0  0  0  0  0  0  0  0  0  0
    6.9175   -2.1206   -0.6005 H   0  0  0  0  0  0  0  0  0  0  0  0
    6.5160   -1.4527    1.0652 H   0  0  0  0  0  0  0  0  0  0  0  0
    8.7469   -1.7390    1.1368 H   0  0  0  0  0  0  0  0  0  0  0  0
    9.0387   -1.2765   -0.5566 H   0  0  0  0  0  0  0  0  0  0  0  0
    4.6115   -1.7499    0.4014 H   0  0  0  0  0  0  0  0  0  0  0  0
    2.2617   -1.5186    0.5202 H   0  0  0  0  0  0  0  0  0  0  0  0
    0.4893    1.6570   -0.4677 H   0  0  0  0  0  0  0  0  0  0  0  0
   -0.8422   -3.6071    0.0505 H   0  0  0  0  0  0  0  0  0  0  0  0
   -3.6740   -3.7225    0.1157 H   0  0  0  0  0  0  0  0  0  0  0  0
   -7.6998   -4.3230    1.9638 H   0  0  0  0  0  0  0  0  0  0  0  0
   -9.4871   -3.4192    0.5723 H   0  0  0  0  0  0  0  0  0  0  0  0
   -9.0155   -1.6669   -1.0535 H   0  0  0  0  0  0  0  0  0  0  0  0
   -5.1778    1.0818   -0.9321 H   0  0  0  0  0  0  0  0  0  0  0  0
   -2.7838    2.0911    0.5394 H   0  0  0  0  0  0  0  0  0  0  0  0
   -2.8066    1.8294   -1.2963 H   0  0  0  0  0  0  0  0  0  0  0  0
   -4.9560    2.9262   -1.3841 H   0  0  0  0  0  0  0  0  0  0  0  0
   -3.6095    4.0223   -1.0112 H   0  0  0  0  0  0  0  0  0  0  0  0
   -4.2713    3.7671    1.4910 H   0  0  0  0  0  0  0  0  0  0  0  0
   -5.6361    4.4322    0.4332 H   0  0  0  0  0  0  0  0  0  0  0  0
   -6.5150    2.2703    0.0604 H   0  0  0  0  0  0  0  0  0  0  0  0
   -6.5538    2.6288    1.8375 H   0  0  0  0  0  0  0  0  0  0  0  0
   -5.6646    0.3398    1.5159 H   0  0  0  0  0  0  0  0  0  0  0  0
   -4.2143    1.4045    1.8976 H   0  0  0  0  0  0  0  0  0  0  0  0
    2.5651    2.3425   -1.2765 H   0  0  0  0  0  0  0  0  0  0  0  0
    5.0126    2.0661   -1.3630 H   0  0  0  0  0  0  0  0  0  0  0  0
  1  2  1  0
  2  3  1  0
  3  4  1  0
  4  5  1  0
  5  6  1  0
  6  7  1  0
  5  8  1  0
  8  9  2  0
  9 10  1  0
 10 11  2  0
 11 12  1  0
 12 13  1  0
 13 14  2  0
 14 15  1  0
 15 16  2  0
 16 17  1  0
 17 18  2  0
 18 19  1  0
 19 20  2  0
 20 21  1  0
 20 22  1  0
 22 23  2  0
 23 24  1  0
 24 25  2  0
 25 26  1  0
 18 27  1  0
 27 28  1  0
 28 29  1  0
 29 30  1  0
 30 31  1  0
 31 32  1  0
 32 33  1  0
 27 34  1  0
 34 35  2  0
 11 36  1  0
 36 37  2  0
  7  2  1  0
 37  8  1  0
 35 13  1  0
 34 16  1  0
 25 19  1  0
 33 28  1  0
  1 38  1  0
  1 39  1  0
  2 40  1  0
  3 41  1  0
  3 42  1  0
  4 43  1  0
  4 44  1  0
  6 45  1  0
  6 46  1  0
  7 47  1  0
  7 48  1  0
  9 49  1  0
 10 50  1  0
 12 51  1  0
 15 52  1  0
 17 53  1  0
 22 54  1  0
 23 55  1  0
 24 56  1  0
 28 57  1  0
 29 58  1  0
 29 59  1  0
 30 60  1  0
 30 61  1  0
 31 62  1  0
 31 63  1  0
 32 64  1  0
 32 65  1  0
 33 66  1  0
 33 67  1  0
 36 68  1  0
 37 69  1  0
M  END
$$$$
[H]c1nc(N([H])c2c([H])c([H])c3nc([H])n([C@]([H])(c4c([H])c([H])c([H])c([H])c4[H])C([H])([H])[H])c3c2[H])c(Cl)c([H])c1[H]
     RDKit          3D

 42 45  0  0  0  0  0  0  0  0999 V2000
   -2.9535   -1.1341   -1.7687 C   0  0  0  0  0  0  0  0  0  0  0  0
   -2.3755   -0.3553   -0.5840 C   0  0  1  0  0  0  0  0  0  0  0  0
   -3.5050    0.2334    0.1550 C   0  0  0  0  0  0  0  0  0  0  0  0
   -3.4528    1.4322    0.8282 C   0  0  0  0  0  0  0  0  0  0  0  0
   -4.5370    1.9466    1.5088 C   0  0  0  0  0  0  0  0  0  0  0  0
   -5.7127    1.2374    1.5158 C   0  0  0  0  0  0  0  0  0  0  0  0
   -5.7914    0.0258    0.8446 C   0  0  0  0  0  0  0  0  0  0  0  0
   -4.6915   -0.4698    0.1693 C   0  0  0  0  0  0  0  0  0  0  0  0
   -1.5572   -1.2164    0.2088 N   0  0  0  0  0  0  0  0  0  0  0  0
   -1.9011   -2.3095    0.9074 C   0  0  0  0  0  0  0  0  0  0  0  0
   -0.8253   -2.8325    1.5179 N   0  0  0  0  0  0  0  0  0  0  0  0
    0.2442   -2.0725    1.2171 C   0  0  0  0  0  0  0  0  0  0  0  0
    1.5799   -2.1024    1.5362 C   0  0  0  0  0  0  0  0  0  0  0  0
    2.4079   -1.1056    1.0139 C   0  0  0  0  0  0  0  0  0  0  0  0
    1.9853   -0.0940    0.2013 C   0  0  0  0  0  0  0  0  0  0  0  0
    2.7877    0.9262   -0.3699 N   0  0  0  0  0  0  0  0  0  0  0  0
    4.1751    0.8966   -0.4905 C   0  0  0  0  0  0  0  0  0  0  0  0
    5.0058   -0.0796   -0.1389 N   0  0  0  0  0  0  0  0  0  0  0  0
    6.3280   -0.0818   -0.2842 C   0  0  0  0  0  0  0  0  0  0  0  0
    6.9760    1.0149   -0.8541 C   0  0  0  0  0  0  0  0  0  0  0  0
    6.1640    2.0701   -1.2436 C   0  0  0  0  0  0  0  0  0  0  0  0
    4.8001    2.0162   -1.0682 C   0  0  0  0  0  0  0  0  0  0  0  0
    3.8793    3.4145   -1.6014 Cl  0  0  0  0  0  0  0  0  0  0  0  0
    0.6108   -0.0960   -0.1033 C   0  0  0  0  0  0  0  0  0  0  0  0
   -0.2152   -1.0633    0.3992 C   0  0  0  0  0  0  0  0  0  0  0  0
   -3.8308   -0.6393   -2.1835 H   0  0  0  0  0  0  0  0  0  0  0  0
   -2.1058   -1.2408   -2.4861 H   0  0  0  0  0  0  0  0  0  0  0  0
   -3.1618   -2.1533   -1.3917 H   0  0  0  0  0  0  0  0  0  0  0  0
   -1.8137    0.4875   -1.0404 H   0  0  0  0  0  0  0  0  0  0  0  0
   -2.5144    1.9740    0.8086 H   0  0  0  0  0  0  0  0  0  0  0  0
   -4.5030    2.8874    2.0396 H   0  0  0  0  0  0  0  0  0  0  0  0
   -6.5967    1.6084    2.0428 H   0  0  0  0  0  0  0  0  0  0  0  0
   -6.7241   -0.5579    0.8380 H   0  0  0  0  0  0  0  0  0  0  0  0
   -4.7668   -1.4322   -0.3594 H   0  0  0  0  0  0  0  0  0  0  0  0
   -2.9250   -2.6884    0.9481 H   0  0  0  0  0  0  0  0  0  0  0  0
    1.9520   -2.8797    2.1706 H   0  0  0  0  0  0  0  0  0  0  0  0
    3.4474   -1.1609    1.3054 H   0  0  0  0  0  0  0  0  0  0  0  0
    2.2890    1.8031   -0.7417 H   0  0  0  0  0  0  0  0  0  0  0  0
    6.9332   -0.9126    0.0263 H   0  0  0  0  0  0  0  0  0  0  0  0
    8.0401    1.0582   -0.9915 H   0  0  0  0  0  0  0  0  0  0  0  0
    6.6194    2.9456   -1.6917 H   0  0  0  0  0  0  0  0  0  0  0  0
    0.2351    0.6993   -0.7515 H   0  0  0  0  0  0  0  0  0  0  0  0
  1  2  1  0
  2  3  1  0
  3  4  2  0
  4  5  1  0
  5  6  2  0
  6  7  1  0
  7  8  2  0
  2  9  1  0
  9 10  1  0
 10 11  2  0
 11 12  1  0
 12 13  2  0
 13 14  1  0
 14 15  2  0
 15 16  1  0
 16 17  1  0
 17 18  2  0
 18 19  1  0
 19 20  2  0
 20 21  1  0
 21 22  2  0
 22 23  1  0
 15 24  1  0
 24 25  2  0
  8  3  1  0
 25  9  1  0
 25 12  1  0
 22 17  1  0
  1 26  1  0
  1 27  1  0
  1 28  1  0
  2 29  1  6
  4 30  1  0
  5 31  1  0
  6 32  1  0
  7 33  1  0
  8 34  1  0
 10 35  1  0
 13 36  1  0
 14 37  1  0
 16 38  1  0
 19 39  1  0
 20 40  1  0
 21 41  1  0
 24 42  1  0
M  END
$$$$
[H]c1nc(OC([H])(c2nc([H])n(C3([H])C([H])([H])C3([H])[H])c2[H])C([H])([H])[H])c([H])c([H])c1F
     RDKit          3D

 32 34  0  0  0  0  0  0  0  0999 V2000
   -0.7643   -2.8143    0.4097 C   0  0  0  0  0  0  0  0  0  0  0  0
   -0.8342   -1.3149    0.0424 C   0  0  0  0  0  0  0  0  0  0  0  0
   -1.7410   -0.6440    0.8411 O   0  0  0  0  0  0  0  0  0  0  0  0
   -2.8425    0.0026    0.3976 C   0  0  0  0  0  0  0  0  0  0  0  0
   -3.1909    0.0672   -0.9182 C   0  0  0  0  0  0  0  0  0  0  0  0
   -4.3464    0.7519   -1.3307 C   0  0  0  0  0  0  0  0  0  0  0  0
   -5.1261    1.3604   -0.3783 C   0  0  0  0  0  0  0  0  0  0  0  0
   -6.2502    2.0304   -0.7464 F   0  0  0  0  0  0  0  0  0  0  0  0
   -4.7724    1.2929    0.9413 C   0  0  0  0  0  0  0  0  0  0  0  0
   -3.6664    0.6324    1.2922 N   0  0  0  0  0  0  0  0  0  0  0  0
    0.5451   -0.7398    0.3013 C   0  0  0  0  0  0  0  0  0  0  0  0
    1.4868   -0.4017   -0.6443 C   0  0  0  0  0  0  0  0  0  0  0  0
    2.5984    0.0806   -0.0540 N   0  0  0  0  0  0  0  0  0  0  0  0
    2.3508    0.0441    1.2677 C   0  0  0  0  0  0  0  0  0  0  0  0
    1.1004   -0.4552    1.4910 N   0  0  0  0  0  0  0  0  0  0  0  0
    3.8155    0.5444   -0.7238 C   0  0  0  0  0  0  0  0  0  0  0  0
    4.3548    1.8604   -0.3762 C   0  0  0  0  0  0  0  0  0  0  0  0
    5.0568    0.6053    0.1861 C   0  0  0  0  0  0  0  0  0  0  0  0
    0.0960   -3.1960   -0.2140 H   0  0  0  0  0  0  0  0  0  0  0  0
   -1.7134   -3.2880    0.1498 H   0  0  0  0  0  0  0  0  0  0  0  0
   -0.5585   -2.9348    1.4849 H   0  0  0  0  0  0  0  0  0  0  0  0
   -1.0587   -1.2990   -1.0228 H   0  0  0  0  0  0  0  0  0  0  0  0
   -2.6075   -0.3992   -1.7238 H   0  0  0  0  0  0  0  0  0  0  0  0
   -4.5844    0.7776   -2.3840 H   0  0  0  0  0  0  0  0  0  0  0  0
   -5.4199    1.7898    1.6615 H   0  0  0  0  0  0  0  0  0  0  0  0
    1.3527   -0.5085   -1.7120 H   0  0  0  0  0  0  0  0  0  0  0  0
    3.0184    0.3550    2.0567 H   0  0  0  0  0  0  0  0  0  0  0  0
    4.0396    0.1070   -1.7231 H   0  0  0  0  0  0  0  0  0  0  0  0
    4.9328    2.4116   -1.1653 H   0  0  0  0  0  0  0  0  0  0  0  0
    3.7985    2.4852    0.3256 H   0  0  0  0  0  0  0  0  0  0  0  0
    6.0331    0.3453   -0.2559 H   0  0  0  0  0  0  0  0  0  0  0  0
    4.8971    0.4515    1.2677 H   0  0  0  0  0  0  0  0  0  0  0  0
  1  2  1  0
  2  3  1  0
  3  4  1  0
  4  5  2  0
  5  6  1  0
  6  7  2  0
  7  8  1  0
  7  9  1  0
  9 10  2  0
  2 11  1  0
 11 12  2  0
 12 13  1  0
 13 14  1  0
 14 15  2  0
 13 16  1  0
 16 17  1  0
 17 18  1  0
 10  4  1  0
 15 11  1  0
 18 16  1  0
  1 19  1  0
  1 20  1  0
  1 21  1  0
  2 22  1  0
  5 23  1  0
  6 24  1  0
  9 25  1  0
 12 26  1  0
 14 27  1  0
 16 28  1  0
 17 29  1  0
 17 30  1  0
 18 31  1  0
 18 32  1  0
M  END
$$$$
[H]c1nc2c(c(-c3c([H])c([H])c([H])c(C(F)(F)F)c3[H])c1[H])c(-c1c([H])c([H])c([H])c(C#N)c1[H])c([H])n2[H]
     RDKit          3D

 39 42  0  0  0  0  0  0  0  0999 V2000
    2.4351   -2.3277    3.0510 F   0  0  0  0  0  0  0  0  0  0  0  0
    3.2616   -2.0173    2.0104 C   0  0  0  0  0  0  0  0  0  0  0  0
    4.1733   -1.0318    2.4494 F   0  0  0  0  0  0  0  0  0  0  0  0
    4.0389   -3.0591    1.5734 F   0  0  0  0  0  0  0  0  0  0  0  0
    2.5540   -1.4245    0.8333 C   0  0  0  0  0  0  0  0  0  0  0  0
    2.4649   -2.1573   -0.3443 C   0  0  0  0  0  0  0  0  0  0  0  0
    1.8513   -1.6200   -1.4498 C   0  0  0  0  0  0  0  0  0  0  0  0
    1.3071   -0.3436   -1.4178 C   0  0  0  0  0  0  0  0  0  0  0  0
    1.3831    0.3895   -0.2718 C   0  0  0  0  0  0  0  0  0  0  0  0
    2.0008   -0.1575    0.8331 C   0  0  0  0  0  0  0  0  0  0  0  0
    0.8543    1.7372   -0.2574 C   0  0  0  0  0  0  0  0  0  0  0  0
    1.8041    2.7879   -0.3246 C   0  0  0  0  0  0  0  0  0  0  0  0
    1.4234    4.0962   -0.3937 C   0  0  0  0  0  0  0  0  0  0  0  0
    0.1345    4.4294   -0.3918 N   0  0  0  0  0  0  0  0  0  0  0  0
   -0.8130    3.4883   -0.3255 C   0  0  0  0  0  0  0  0  0  0  0  0
   -2.1595    3.5523   -0.2738 N   0  0  0  0  0  0  0  0  0  0  0  0
   -2.6714    2.3435   -0.1802 C   0  0  0  0  0  0  0  0  0  0  0  0
   -1.6081    1.3763   -0.1637 C   0  0  0  0  0  0  0  0  0  0  0  0
   -1.8803   -0.0161   -0.0292 C   0  0  0  0  0  0  0  0  0  0  0  0
   -2.1264   -0.4878    1.2750 C   0  0  0  0  0  0  0  0  0  0  0  0
   -2.5039   -1.7993    1.5338 C   0  0  0  0  0  0  0  0  0  0  0  0
   -2.6337   -2.6521    0.4507 C   0  0  0  0  0  0  0  0  0  0  0  0
   -2.3963   -2.2128   -0.8462 C   0  0  0  0  0  0  0  0  0  0  0  0
   -2.0215   -0.8871   -1.0338 C   0  0  0  0  0  0  0  0  0  0  0  0
   -2.5173   -3.1219   -1.9632 C   0  0  0  0  0  0  0  0  0  0  0  0
   -2.6031   -3.8637   -2.8334 N   0  0  0  0  0  0  0  0  0  0  0  0
   -0.4731    2.1106   -0.2550 C   0  0  0  0  0  0  0  0  0  0  0  0
    2.8949   -3.1473   -0.4072 H   0  0  0  0  0  0  0  0  0  0  0  0
    1.7602   -2.1393   -2.3720 H   0  0  0  0  0  0  0  0  0  0  0  0
    0.8198    0.0611   -2.3330 H   0  0  0  0  0  0  0  0  0  0  0  0
    2.0979    0.3902    1.7763 H   0  0  0  0  0  0  0  0  0  0  0  0
    2.8419    2.5070   -0.3133 H   0  0  0  0  0  0  0  0  0  0  0  0
    2.2185    4.8609   -0.4503 H   0  0  0  0  0  0  0  0  0  0  0  0
   -2.7122    4.4663   -0.2932 H   0  0  0  0  0  0  0  0  0  0  0  0
   -3.7104    2.0729   -0.1232 H   0  0  0  0  0  0  0  0  0  0  0  0
   -2.0401    0.1836    2.1183 H   0  0  0  0  0  0  0  0  0  0  0  0
   -2.7043   -2.1551    2.5426 H   0  0  0  0  0  0  0  0  0  0  0  0
   -2.9176   -3.6768    0.6176 H   0  0  0  0  0  0  0  0  0  0  0  0
   -1.8273   -0.5552   -2.0430 H   0  0  0  0  0  0  0  0  0  0  0  0
  1  2  1  0
  2  3  1  0
  2  4  1  0
  2  5  1  0
  5  6  2  0
  6  7  1  0
  7  8  2  0
  8  9  1  0
  9 10  2  0
  9 11  1  0
 11 12  2  0
 12 13  1  0
 13 14  2  0
 14 15  1  0
 15 16  1  0
 16 17  1  0
 17 18  2  0
 18 19  1  0
 19 20  2  0
 20 21  1  0
 21 22  2  0
 22 23  1  0
 23 24  2  0
 23 25  1  0
 25 26  3  0
 18 27  1  0
 10  5  1  0
 27 11  1  0
 27 15  2  0
 24 19  1  0
  6 28  1  0
  7 29  1  0
  8 30  1  0
 10 31  1  0
 12 32  1  0
 13 33  1  0
 16 34  1  0
 17 35  1  0
 20 36  1  0
 21 37  1  0
 22 38  1  0
 24 39  1  0
M  END
$$$$
[H]OC(=O)C([H])(c1c([H])c([H])c(-c2c([H])c3c([H])c([H])c(-c4sc(-c5c([H])c([H])c([H])c([H])c5[H])c([H])c4C(F)(F)P(=O)(O[H])O[H])c([H])c3n2[H])c([H])c1[H])C([H])([H])c1c([H])c([H])c([H])c([H])c1[H]
     RDKit          3D

 70 75  0  0  0  0  0  0  0  0999 V2000
    6.7277   -1.7531   -2.2152 O   0  0  0  0  0  0  0  0  0  0  0  0
    7.0376   -0.4876   -1.6746 C   0  0  0  0  0  0  0  0  0  0  0  0
    7.5108    0.3433   -2.4249 O   0  0  0  0  0  0  0  0  0  0  0  0
    6.7532   -0.3094   -0.2544 C   0  0  0  0  0  0  0  0  0  0  0  0
    7.2337    0.9386    0.3894 C   0  0  0  0  0  0  0  0  0  0  0  0
    8.6965    1.1604    0.3679 C   0  0  0  0  0  0  0  0  0  0  0  0
    9.5196    0.5305    1.3055 C   0  0  0  0  0  0  0  0  0  0  0  0
   10.8722    0.7481    1.3305 C   0  0  0  0  0  0  0  0  0  0  0  0
   11.4503    1.6089    0.4121 C   0  0  0  0  0  0  0  0  0  0  0  0
   10.6444    2.2280   -0.5082 C   0  0  0  0  0  0  0  0  0  0  0  0
    9.2746    2.0041   -0.5284 C   0  0  0  0  0  0  0  0  0  0  0  0
    5.2636   -0.4683   -0.1042 C   0  0  0  0  0  0  0  0  0  0  0  0
    4.7832   -1.4889    0.6530 C   0  0  0  0  0  0  0  0  0  0  0  0
    3.4005   -1.6705    0.8156 C   0  0  0  0  0  0  0  0  0  0  0  0
    2.5194   -0.8124    0.2065 C   0  0  0  0  0  0  0  0  0  0  0  0
    3.0270    0.2143   -0.5557 C   0  0  0  0  0  0  0  0  0  0  0  0
    4.3946    0.3951   -0.7173 C   0  0  0  0  0  0  0  0  0  0  0  0
    1.0789   -0.9371    0.3267 C   0  0  0  0  0  0  0  0  0  0  0  0
    0.4312   -1.9303    1.0656 C   0  0  0  0  0  0  0  0  0  0  0  0
   -0.9444   -1.7442    0.9560 C   0  0  0  0  0  0  0  0  0  0  0  0
   -2.0191   -2.4089    1.4623 C   0  0  0  0  0  0  0  0  0  0  0  0
   -3.2687   -1.9545    1.1523 C   0  0  0  0  0  0  0  0  0  0  0  0
   -3.5110   -0.8298    0.3327 C   0  0  0  0  0  0  0  0  0  0  0  0
   -2.4073   -0.2234   -0.1294 C   0  0  0  0  0  0  0  0  0  0  0  0
   -1.1022   -0.6545    0.1620 C   0  0  0  0  0  0  0  0  0  0  0  0
    0.1079   -0.1865   -0.2035 N   0  0  0  0  0  0  0  0  0  0  0  0
   -4.9268   -0.5107    0.1600 C   0  0  0  0  0  0  0  0  0  0  0  0
   -6.1940   -1.1464    1.2008 S   0  0  0  0  0  0  0  0  0  0  0  0
   -7.5555   -0.5413    0.4221 C   0  0  0  0  0  0  0  0  0  0  0  0
   -7.0178    0.1377   -0.6215 C   0  0  0  0  0  0  0  0  0  0  0  0
   -5.6690    0.1616   -0.7671 C   0  0  0  0  0  0  0  0  0  0  0  0
   -5.0660    0.9643   -1.9177 C   0  0  0  0  0  0  0  0  0  0  0  0
   -6.1279    1.2956   -2.8266 F   0  0  0  0  0  0  0  0  0  0  0  0
   -4.2035    0.2804   -2.6444 F   0  0  0  0  0  0  0  0  0  0  0  0
   -4.5730    2.6284   -1.3431 P   0  0  0  0  0  0  0  0  0  0  0  0
   -3.1087    3.1207   -1.9796 O   0  0  0  0  0  0  0  0  0  0  0  0
   -5.7395    3.8027   -1.7612 O   0  0  0  0  0  0  0  0  0  0  0  0
   -4.4918    2.6665    0.1657 O   0  0  0  0  0  0  0  0  0  0  0  0
   -8.9615   -0.7031    0.7750 C   0  0  0  0  0  0  0  0  0  0  0  0
   -9.9433   -0.1380    0.0224 C   0  0  0  0  0  0  0  0  0  0  0  0
  -11.2823   -0.3190    0.3978 C   0  0  0  0  0  0  0  0  0  0  0  0
  -11.6292   -1.0543    1.5094 C   0  0  0  0  0  0  0  0  0  0  0  0
  -10.6250   -1.6198    2.2607 C   0  0  0  0  0  0  0  0  0  0  0  0
   -9.3072   -1.4389    1.8872 C   0  0  0  0  0  0  0  0  0  0  0  0
    7.4173   -2.2023   -2.8186 H   0  0  0  0  0  0  0  0  0  0  0  0
    7.2165   -1.1704    0.3501 H   0  0  0  0  0  0  0  0  0  0  0  0
    6.9221    1.0324    1.4530 H   0  0  0  0  0  0  0  0  0  0  0  0
    6.7754    1.8319   -0.1334 H   0  0  0  0  0  0  0  0  0  0  0  0
    9.0156   -0.1320    1.9998 H   0  0  0  0  0  0  0  0  0  0  0  0
   11.5015    0.2527    2.0638 H   0  0  0  0  0  0  0  0  0  0  0  0
   12.5132    1.7578    0.4578 H   0  0  0  0  0  0  0  0  0  0  0  0
   11.1042    2.8926   -1.2145 H   0  0  0  0  0  0  0  0  0  0  0  0
    8.7256    2.5647   -1.2897 H   0  0  0  0  0  0  0  0  0  0  0  0
    5.4541   -2.1789    1.1437 H   0  0  0  0  0  0  0  0  0  0  0  0
    3.0365   -2.4881    1.4218 H   0  0  0  0  0  0  0  0  0  0  0  0
    2.3921    0.9353   -1.0698 H   0  0  0  0  0  0  0  0  0  0  0  0
    4.8173    1.1944   -1.3112 H   0  0  0  0  0  0  0  0  0  0  0  0
    0.9009   -2.7194    1.6338 H   0  0  0  0  0  0  0  0  0  0  0  0
   -1.8391   -3.2734    2.0900 H   0  0  0  0  0  0  0  0  0  0  0  0
   -4.0914   -2.5146    1.5729 H   0  0  0  0  0  0  0  0  0  0  0  0
   -2.4672    0.6455   -0.7227 H   0  0  0  0  0  0  0  0  0  0  0  0
    0.2708    0.6390   -0.8103 H   0  0  0  0  0  0  0  0  0  0  0  0
   -7.7329    0.6555   -1.3187 H   0  0  0  0  0  0  0  0  0  0  0  0
   -2.6494    3.7325   -1.3545 H   0  0  0  0  0  0  0  0  0  0  0  0
   -6.4572    3.3210   -2.2443 H   0  0  0  0  0  0  0  0  0  0  0  0
   -9.7041    0.4460   -0.8573 H   0  0  0  0  0  0  0  0  0  0  0  0
  -12.0748    0.1329   -0.2036 H   0  0  0  0  0  0  0  0  0  0  0  0
  -12.6844   -1.1629    1.7549 H   0  0  0  0  0  0  0  0  0  0  0  0
  -10.8947   -2.1985    3.1353 H   0  0  0  0  0  0  0  0  0  0  0  0
   -8.5206   -1.8919    2.4905 H   0  0  0  0  0  0  0  0  0  0  0  0
  1  2  1  0
  2  3  2  0
  2  4  1  0
  4  5  1  0
  5  6  1  0
  6  7  2  0
  7  8  1  0
  8  9  2  0
  9 10  1  0
 10 11  2  0
  4 12  1  0
 12 13  2  0
 13 14  1  0
 14 15  2  0
 15 16  1  0
 16 17  2  0
 15 18  1  0
 18 19  2  0
 19 20  1  0
 20 21  2  0
 21 22  1  0
 22 23  2  0
 23 24  1  0
 24 25  2  0
 25 26  1  0
 23 27  1  0
 27 28  1  0
 28 29  1  0
 29 30  2  0
 30 31  1  0
 31 32  1  0
 32 33  1  0
 32 34  1  0
 32 35  1  0
 35 36  1  0
 35 37  1  0
 35 38  2  0
 29 39  1  0
 39 40  2  0
 40 41  1  0
 41 42  2  0
 42 43  1  0
 43 44  2  0
 11  6  1  0
 17 12  1  0
 26 18  1  0
 31 27  2  0
 44 39  1  0
 25 20  1  0
  1 45  1  0
  4 46  1  0
  5 47  1  0
  5 48  1  0
  7 49  1  0
  8 50  1  0
  9 51  1  0
 10 52  1  0
 11 53  1  0
 13 54  1  0
 14 55  1  0
 16 56  1  0
 17 57  1  0
 19 58  1  0
 21 59  1  0
 22 60  1  0
 24 61  1  0
 26 62  1  0
 30 63  1  0
 36 64  1  0
 37 65  1  0
 40 66  1  0
 41 67  1  0
 42 68  1  0
 43 69  1  0
 44 70  1  0
M  END
$$$$
[H]c1nc(N([H])c2c([H])c(C(=O)N([H])[C@]([H])(C(=O)N([H])[H])C([H])([H])C([H])(C([H])([H])[H])C([H])([H])[H])c([H])c([H])c2C(=O)OC(C([H])([H])[H])(C([H])([H])[H])C([H])([H])[H])c2c([H])c([H])c(C([H])([H])[H])c([H])c2c1[H]
     RDKit          3D

 70 72  0  0  0  0  0  0  0  0999 V2000
    5.5762   -0.0997   -2.2477 C   0  0  0  0  0  0  0  0  0  0  0  0
    4.9025    0.9304   -1.3717 C   0  0  0  0  0  0  0  0  0  0  0  0
    5.2355    2.3258   -1.8756 C   0  0  0  0  0  0  0  0  0  0  0  0
    5.3317    0.8079    0.0533 C   0  0  0  0  0  0  0  0  0  0  0  0
    4.9970   -0.5505    0.6315 C   0  0  2  0  0  0  0  0  0  0  0  0
    3.5587   -0.7297    0.5566 N   0  0  0  0  0  0  0  0  0  0  0  0
    2.9381   -1.8061   -0.0851 C   0  0  0  0  0  0  0  0  0  0  0  0
    3.6122   -2.7304   -0.6624 O   0  0  0  0  0  0  0  0  0  0  0  0
    1.4938   -1.9246   -0.1248 C   0  0  0  0  0  0  0  0  0  0  0  0
    0.9512   -3.1574   -0.3718 C   0  0  0  0  0  0  0  0  0  0  0  0
   -0.4169   -3.2402   -0.4116 C   0  0  0  0  0  0  0  0  0  0  0  0
   -1.2446   -2.1267   -0.2119 C   0  0  0  0  0  0  0  0  0  0  0  0
   -2.6617   -2.3226   -0.3455 C   0  0  0  0  0  0  0  0  0  0  0  0
   -3.5844   -1.4895   -0.2827 O   0  0  0  0  0  0  0  0  0  0  0  0
   -3.1088   -3.6420   -0.5830 O   0  0  0  0  0  0  0  0  0  0  0  0
   -4.4848   -3.9436   -0.7295 C   0  0  0  0  0  0  0  0  0  0  0  0
   -4.5705   -5.4392   -0.9681 C   0  0  0  0  0  0  0  0  0  0  0  0
   -5.2020   -3.6207    0.5660 C   0  0  0  0  0  0  0  0  0  0  0  0
   -5.0378   -3.1670   -1.8961 C   0  0  0  0  0  0  0  0  0  0  0  0
   -0.6955   -0.8894    0.0379 C   0  0  0  0  0  0  0  0  0  0  0  0
   -1.5019    0.2478    0.3498 N   0  0  0  0  0  0  0  0  0  0  0  0
   -1.1646    1.5939    0.2788 C   0  0  0  0  0  0  0  0  0  0  0  0
   -0.0055    2.0573   -0.1955 N   0  0  0  0  0  0  0  0  0  0  0  0
    0.3349    3.3504   -0.3151 C   0  0  0  0  0  0  0  0  0  0  0  0
   -0.5320    4.3512    0.0626 C   0  0  0  0  0  0  0  0  0  0  0  0
   -1.7576    3.9339    0.5655 C   0  0  0  0  0  0  0  0  0  0  0  0
   -2.6303    4.9251    0.9476 C   0  0  0  0  0  0  0  0  0  0  0  0
   -3.8574    4.6218    1.4554 C   0  0  0  0  0  0  0  0  0  0  0  0
   -4.7551    5.7374    1.8499 C   0  0  0  0  0  0  0  0  0  0  0  0
   -4.2020    3.3016    1.5766 C   0  0  0  0  0  0  0  0  0  0  0  0
   -3.3136    2.2908    1.1875 C   0  0  0  0  0  0  0  0  0  0  0  0
   -2.0728    2.5888    0.6737 C   0  0  0  0  0  0  0  0  0  0  0  0
    0.6877   -0.7986    0.0791 C   0  0  0  0  0  0  0  0  0  0  0  0
    5.4037   -0.6358    2.0503 C   0  0  0  0  0  0  0  0  0  0  0  0
    6.7622   -0.4974    2.4566 N   0  0  0  0  0  0  0  0  0  0  0  0
    4.5438   -0.8351    2.9379 O   0  0  0  0  0  0  0  0  0  0  0  0
    6.3923   -0.6292   -1.7199 H   0  0  0  0  0  0  0  0  0  0  0  0
    4.8054   -0.8395   -2.6060 H   0  0  0  0  0  0  0  0  0  0  0  0
    5.9782    0.4114   -3.1554 H   0  0  0  0  0  0  0  0  0  0  0  0
    3.7833    0.8243   -1.4494 H   0  0  0  0  0  0  0  0  0  0  0  0
    5.6703    2.9444   -1.0465 H   0  0  0  0  0  0  0  0  0  0  0  0
    5.9976    2.2805   -2.6999 H   0  0  0  0  0  0  0  0  0  0  0  0
    4.3347    2.8627   -2.2381 H   0  0  0  0  0  0  0  0  0  0  0  0
    4.7245    1.5463    0.6456 H   0  0  0  0  0  0  0  0  0  0  0  0
    6.4144    1.0332    0.1310 H   0  0  0  0  0  0  0  0  0  0  0  0
    5.5262   -1.3673    0.0935 H   0  0  0  0  0  0  0  0  0  0  0  0
    2.9906    0.0003    1.0206 H   0  0  0  0  0  0  0  0  0  0  0  0
    1.6095   -3.9998   -0.5223 H   0  0  0  0  0  0  0  0  0  0  0  0
   -0.8212   -4.2258   -0.6079 H   0  0  0  0  0  0  0  0  0  0  0  0
   -4.2415   -5.6447   -2.0022 H   0  0  0  0  0  0  0  0  0  0  0  0
   -5.5624   -5.8530   -0.7237 H   0  0  0  0  0  0  0  0  0  0  0  0
   -3.8309   -5.9321   -0.2790 H   0  0  0  0  0  0  0  0  0  0  0  0
   -5.9107   -4.4327    0.7911 H   0  0  0  0  0  0  0  0  0  0  0  0
   -4.4371   -3.6289    1.3859 H   0  0  0  0  0  0  0  0  0  0  0  0
   -5.6667   -2.6285    0.5166 H   0  0  0  0  0  0  0  0  0  0  0  0
   -5.7489   -2.3979   -1.5325 H   0  0  0  0  0  0  0  0  0  0  0  0
   -5.5301   -3.8606   -2.6109 H   0  0  0  0  0  0  0  0  0  0  0  0
   -4.2233   -2.6618   -2.4797 H   0  0  0  0  0  0  0  0  0  0  0  0
   -2.4765    0.0308    0.7193 H   0  0  0  0  0  0  0  0  0  0  0  0
    1.3144    3.6205   -0.7182 H   0  0  0  0  0  0  0  0  0  0  0  0
   -0.2658    5.3940   -0.0303 H   0  0  0  0  0  0  0  0  0  0  0  0
   -2.3293    5.9704    0.8395 H   0  0  0  0  0  0  0  0  0  0  0  0
   -5.1967    6.2173    0.9573 H   0  0  0  0  0  0  0  0  0  0  0  0
   -4.1602    6.5292    2.3611 H   0  0  0  0  0  0  0  0  0  0  0  0
   -5.5571    5.4236    2.5318 H   0  0  0  0  0  0  0  0  0  0  0  0
   -5.1760    3.0592    1.9796 H   0  0  0  0  0  0  0  0  0  0  0  0
   -3.6478    1.2898    1.3119 H   0  0  0  0  0  0  0  0  0  0  0  0
    1.1592    0.1476    0.2879 H   0  0  0  0  0  0  0  0  0  0  0  0
    7.4921   -1.1223    2.0681 H   0  0  0  0  0  0  0  0  0  0  0  0
    7.0600    0.2208    3.1425 H   0  0  0  0  0  0  0  0  0  0  0  0
  1  2  1  0
  2  3  1  0
  2  4  1  0
  4  5  1  0
  5  6  1  0
  6  7  1  0
  7  8  2  0
  7  9  1  0
  9 10  2  0
 10 11  1  0
 11 12  2  0
 12 13  1  0
 13 14  2  0
 13 15  1  0
 15 16  1  0
 16 17  1  0
 16 18  1  0
 16 19  1  0
 12 20  1  0
 20 21  1  0
 21 22  1  0
 22 23  2  0
 23 24  1  0
 24 25  2  0
 25 26  1  0
 26 27  2  0
 27 28  1  0
 28 29  1  0
 28 30  2  0
 30 31  1  0
 31 32  2  0
 20 33  2  0
  5 34  1  0
 34 35  1  0
 34 36  2  0
 33  9  1  0
 32 22  1  0
 32 26  1  0
  1 37  1  0
  1 38  1  0
  1 39  1  0
  2 40  1  0
  3 41  1  0
  3 42  1  0
  3 43  1  0
  4 44  1  0
  4 45  1  0
  5 46  1  6
  6 47  1  0
 10 48  1  0
 11 49  1  0
 17 50  1  0
 17 51  1  0
 17 52  1  0
 18 53  1  0
 18 54  1  0
 18 55  1  0
 19 56  1  0
 19 57  1  0
 19 58  1  0
 21 59  1  0
 24 60  1  0
 25 61  1  0
 27 62  1  0
 29 63  1  0
 29 64  1  0
 29 65  1  0
 30 66  1  0
 31 67  1  0
 33 68  1  0
 35 69  1  0
 35 70  1  0
M  END
$$$$
[H]c1c([H])c([H])c2c(c1[H])c1c3c(c4c5c([H])c([H])c([H])c([H])c5n5c4c1n2[C@@]1(C([H])([H])[H])O[C@]5([H])C([H])([H])[C@@]([H])(N([H])C([H])([H])[H])[C@@]1([H])OC([H])([H])[H])C(=O)N([H])C3([H])[H]
     RDKit          3D

 61 68  0  0  0  0  0  0  0  0999 V2000
   -3.3415   -2.0929    0.8927 C   0  0  0  0  0  0  0  0  0  0  0  0
   -2.7520   -0.8244    0.5060 N   0  0  0  0  0  0  0  0  0  0  0  0
   -2.5947   -0.7699   -0.9652 C   0  0  2  0  0  0  0  0  0  0  0  0
   -1.6635   -1.8336   -1.3456 C   0  0  0  0  0  0  0  0  0  0  0  0
   -0.4098   -1.3263   -1.9401 C   0  0  1  0  0  0  0  0  0  0  0  0
   -0.2904   -0.0961   -2.3609 O   0  0  0  0  0  0  0  0  0  0  0  0
   -0.9141    0.9817   -1.7381 C   0  0  1  0  0  0  0  0  0  0  0  0
   -0.8729    2.0231   -2.8643 C   0  0  0  0  0  0  0  0  0  0  0  0
   -2.2914    0.6326   -1.4119 C   0  0  2  0  0  0  0  0  0  0  0  0
   -2.9229    1.4324   -0.4622 O   0  0  0  0  0  0  0  0  0  0  0  0
   -4.0664    2.0564   -0.9455 C   0  0  0  0  0  0  0  0  0  0  0  0
   -0.0747    1.3904   -0.5981 N   0  0  0  0  0  0  0  0  0  0  0  0
    0.0066    2.5943   -0.0347 C   0  0  0  0  0  0  0  0  0  0  0  0
   -0.6403    3.7755   -0.2701 C   0  0  0  0  0  0  0  0  0  0  0  0
   -0.3753    4.9057    0.4704 C   0  0  0  0  0  0  0  0  0  0  0  0
    0.5715    4.8915    1.4994 C   0  0  0  0  0  0  0  0  0  0  0  0
    1.2169    3.7192    1.7374 C   0  0  0  0  0  0  0  0  0  0  0  0
    0.9447    2.6014    0.9941 C   0  0  0  0  0  0  0  0  0  0  0  0
    1.4533    1.3308    1.0530 C   0  0  0  0  0  0  0  0  0  0  0  0
    2.4134    0.7192    1.8621 C   0  0  0  0  0  0  0  0  0  0  0  0
    3.2252    1.2814    2.9656 C   0  0  0  0  0  0  0  0  0  0  0  0
    4.0513    0.2282    3.4563 N   0  0  0  0  0  0  0  0  0  0  0  0
    3.7725   -0.9500    2.6928 C   0  0  0  0  0  0  0  0  0  0  0  0
    4.3602   -2.0093    2.9202 O   0  0  0  0  0  0  0  0  0  0  0  0
    2.7553   -0.6238    1.7110 C   0  0  0  0  0  0  0  0  0  0  0  0
    2.1006   -1.3257    0.7242 C   0  0  0  0  0  0  0  0  0  0  0  0
    2.1422   -2.6347    0.2794 C   0  0  0  0  0  0  0  0  0  0  0  0
    2.8759   -3.7217    0.6638 C   0  0  0  0  0  0  0  0  0  0  0  0
    2.6892   -4.9254    0.0128 C   0  0  0  0  0  0  0  0  0  0  0  0
    1.7808   -5.0386   -1.0084 C   0  0  0  0  0  0  0  0  0  0  0  0
    1.0343   -3.9515   -1.4066 C   0  0  0  0  0  0  0  0  0  0  0  0
    1.2263   -2.7646   -0.7562 C   0  0  0  0  0  0  0  0  0  0  0  0
    0.6469   -1.5975   -0.9447 N   0  0  0  0  0  0  0  0  0  0  0  0
    1.1358   -0.7009   -0.0851 C   0  0  0  0  0  0  0  0  0  0  0  0
    0.8119    0.6350    0.0794 C   0  0  0  0  0  0  0  0  0  0  0  0
   -3.9345   -1.8764    1.8249 H   0  0  0  0  0  0  0  0  0  0  0  0
   -2.5804   -2.8202    1.1896 H   0  0  0  0  0  0  0  0  0  0  0  0
   -4.0376   -2.4413    0.1071 H   0  0  0  0  0  0  0  0  0  0  0  0
   -1.8252   -0.7857    0.9817 H   0  0  0  0  0  0  0  0  0  0  0  0
   -3.6418   -1.0758   -1.3069 H   0  0  0  0  0  0  0  0  0  0  0  0
   -1.4743   -2.5407   -0.4944 H   0  0  0  0  0  0  0  0  0  0  0  0
   -2.1827   -2.5069   -2.1019 H   0  0  0  0  0  0  0  0  0  0  0  0
   -0.1764   -2.0147   -2.8352 H   0  0  0  0  0  0  0  0  0  0  0  0
   -1.8561    2.5173   -2.9808 H   0  0  0  0  0  0  0  0  0  0  0  0
   -0.0367    2.7359   -2.7018 H   0  0  0  0  0  0  0  0  0  0  0  0
   -0.6761    1.5932   -3.8662 H   0  0  0  0  0  0  0  0  0  0  0  0
   -2.9127    0.7625   -2.3525 H   0  0  0  0  0  0  0  0  0  0  0  0
   -4.5472    2.6842   -0.1440 H   0  0  0  0  0  0  0  0  0  0  0  0
   -3.8494    2.7776   -1.7563 H   0  0  0  0  0  0  0  0  0  0  0  0
   -4.7942    1.3294   -1.3803 H   0  0  0  0  0  0  0  0  0  0  0  0
   -1.3647    3.8112   -1.0348 H   0  0  0  0  0  0  0  0  0  0  0  0
   -0.8845    5.8355    0.2847 H   0  0  0  0  0  0  0  0  0  0  0  0
    0.7949    5.7654    2.0918 H   0  0  0  0  0  0  0  0  0  0  0  0
    1.9682    3.6487    2.5304 H   0  0  0  0  0  0  0  0  0  0  0  0
    3.8868    2.0907    2.5395 H   0  0  0  0  0  0  0  0  0  0  0  0
    2.5967    1.6993    3.7873 H   0  0  0  0  0  0  0  0  0  0  0  0
    4.7363    0.3270    4.2421 H   0  0  0  0  0  0  0  0  0  0  0  0
    3.5871   -3.7061    1.4353 H   0  0  0  0  0  0  0  0  0  0  0  0
    3.2659   -5.8106    0.3031 H   0  0  0  0  0  0  0  0  0  0  0  0
    1.6292   -5.9934   -1.5280 H   0  0  0  0  0  0  0  0  0  0  0  0
    0.3048   -4.0175   -2.2172 H   0  0  0  0  0  0  0  0  0  0  0  0
  1  2  1  0
  2  3  1  0
  3  4  1  0
  4  5  1  0
  5  6  1  0
  6  7  1  0
  7  8  1  6
  7  9  1  0
  9 10  1  0
 10 11  1  0
  7 12  1  0
 12 13  1  0
 13 14  2  0
 14 15  1  0
 15 16  2  0
 16 17  1  0
 17 18  2  0
 18 19  1  0
 19 20  2  0
 20 21  1  0
 21 22  1  0
 22 23  1  0
 23 24  2  0
 23 25  1  0
 25 26  2  0
 26 27  1  0
 27 28  2  0
 28 29  1  0
 29 30  2  0
 30 31  1  0
 31 32  2  0
 32 33  1  0
 33 34  1  0
 34 35  2  0
  9  3  1  0
 35 12  1  0
 33  5  1  0
 18 13  1  0
 35 19  1  0
 25 20  1  0
 34 26  1  0
 32 27  1  0
  1 36  1  0
  1 37  1  0
  1 38  1  0
  2 39  1  0
  3 40  1  6
  4 41  1  0
  4 42  1  0
  5 43  1  6
  8 44  1  0
  8 45  1  0
  8 46  1  0
  9 47  1  6
 11 48  1  0
 11 49  1  0
 11 50  1  0
 14 51  1  0
 15 52  1  0
 16 53  1  0
 17 54  1  0
 21 55  1  0
 21 56  1  0
 22 57  1  0
 28 58  1  0
 29 59  1  0
 30 60  1  0
 31 61  1  0
M  END
$$$$
[H]c1c([H])c([H])c(/C(=C2/C(=O)N([H])c3c([H])c(C(=O)OC([H])([H])[H])c([H])c([H])c32)N([H])c2c([H])c([H])c(OC([H])([H])c3c([H])c([H])c([H])c([H])c3[H])c([H])c2[H])c([H])c1[H]
     RDKit          3D

 60 64  0  0  0  0  0  0  0  0999 V2000
   -9.5548    2.1388    0.6835 C   0  0  0  0  0  0  0  0  0  0  0  0
   -8.1787    1.9144    0.5150 O   0  0  0  0  0  0  0  0  0  0  0  0
   -7.6211    0.7813   -0.0277 C   0  0  0  0  0  0  0  0  0  0  0  0
   -8.3818   -0.1327   -0.4072 O   0  0  0  0  0  0  0  0  0  0  0  0
   -6.1733    0.6723   -0.1471 C   0  0  0  0  0  0  0  0  0  0  0  0
   -5.5627   -0.4477   -0.6862 C   0  0  0  0  0  0  0  0  0  0  0  0
   -4.1983   -0.5613   -0.8008 C   0  0  0  0  0  0  0  0  0  0  0  0
   -3.4017    0.4655   -0.3661 C   0  0  0  0  0  0  0  0  0  0  0  0
   -1.9589    0.6714   -0.3838 C   0  0  0  0  0  0  0  0  0  0  0  0
   -0.9781   -0.1860   -0.6577 C   0  0  0  0  0  0  0  0  0  0  0  0
    0.3419    0.3216   -0.6222 N   0  0  0  0  0  0  0  0  0  0  0  0
    1.4929   -0.0922    0.0180 C   0  0  0  0  0  0  0  0  0  0  0  0
    2.4741    0.8572    0.2202 C   0  0  0  0  0  0  0  0  0  0  0  0
    3.6687    0.5805    0.8218 C   0  0  0  0  0  0  0  0  0  0  0  0
    3.9879   -0.6672    1.2731 C   0  0  0  0  0  0  0  0  0  0  0  0
    5.1973   -0.9612    1.8837 O   0  0  0  0  0  0  0  0  0  0  0  0
    6.2591   -0.1189    2.1308 C   0  0  0  0  0  0  0  0  0  0  0  0
    6.9100    0.4777    0.9432 C   0  0  0  0  0  0  0  0  0  0  0  0
    7.6198    1.6438    1.0819 C   0  0  0  0  0  0  0  0  0  0  0  0
    8.2550    2.2410    0.0194 C   0  0  0  0  0  0  0  0  0  0  0  0
    8.1732    1.6490   -1.2125 C   0  0  0  0  0  0  0  0  0  0  0  0
    7.4627    0.4622   -1.4035 C   0  0  0  0  0  0  0  0  0  0  0  0
    6.8432   -0.0979   -0.3076 C   0  0  0  0  0  0  0  0  0  0  0  0
    3.0272   -1.6484    1.0875 C   0  0  0  0  0  0  0  0  0  0  0  0
    1.8014   -1.3555    0.4679 C   0  0  0  0  0  0  0  0  0  0  0  0
   -1.2598   -1.5967   -0.8171 C   0  0  0  0  0  0  0  0  0  0  0  0
   -1.7905   -2.2855    0.2872 C   0  0  0  0  0  0  0  0  0  0  0  0
   -2.0679   -3.6284    0.2516 C   0  0  0  0  0  0  0  0  0  0  0  0
   -1.8149   -4.3213   -0.9121 C   0  0  0  0  0  0  0  0  0  0  0  0
   -1.2919   -3.6455   -2.0026 C   0  0  0  0  0  0  0  0  0  0  0  0
   -1.0160   -2.3046   -1.9637 C   0  0  0  0  0  0  0  0  0  0  0  0
   -1.7246    2.0233    0.1806 C   0  0  0  0  0  0  0  0  0  0  0  0
   -0.6335    2.5744    0.3320 O   0  0  0  0  0  0  0  0  0  0  0  0
   -3.0127    2.5520    0.5108 N   0  0  0  0  0  0  0  0  0  0  0  0
   -3.9901    1.6116    0.1800 C   0  0  0  0  0  0  0  0  0  0  0  0
   -5.3592    1.6900    0.2783 C   0  0  0  0  0  0  0  0  0  0  0  0
   -9.6515    3.0068    1.3981 H   0  0  0  0  0  0  0  0  0  0  0  0
   -9.9865    1.2718    1.2362 H   0  0  0  0  0  0  0  0  0  0  0  0
  -10.0895    2.3312   -0.2531 H   0  0  0  0  0  0  0  0  0  0  0  0
   -6.2357   -1.2355   -1.0146 H   0  0  0  0  0  0  0  0  0  0  0  0
   -3.8314   -1.4321   -1.2753 H   0  0  0  0  0  0  0  0  0  0  0  0
    0.4337    1.1943   -1.2621 H   0  0  0  0  0  0  0  0  0  0  0  0
    2.3115    1.8771   -0.1037 H   0  0  0  0  0  0  0  0  0  0  0  0
    4.4218    1.3651    0.9760 H   0  0  0  0  0  0  0  0  0  0  0  0
    7.0476   -0.7386    2.6511 H   0  0  0  0  0  0  0  0  0  0  0  0
    5.9988    0.6689    2.8900 H   0  0  0  0  0  0  0  0  0  0  0  0
    7.7119    2.1520    2.0490 H   0  0  0  0  0  0  0  0  0  0  0  0
    8.8185    3.1663    0.1284 H   0  0  0  0  0  0  0  0  0  0  0  0
    8.6793    2.1337   -2.0358 H   0  0  0  0  0  0  0  0  0  0  0  0
    7.4233    0.0277   -2.3938 H   0  0  0  0  0  0  0  0  0  0  0  0
    6.2870   -1.0335   -0.4747 H   0  0  0  0  0  0  0  0  0  0  0  0
    3.2102   -2.6519    1.4179 H   0  0  0  0  0  0  0  0  0  0  0  0
    1.0949   -2.1527    0.3293 H   0  0  0  0  0  0  0  0  0  0  0  0
   -1.9918   -1.7452    1.2057 H   0  0  0  0  0  0  0  0  0  0  0  0
   -2.4819   -4.1254    1.1384 H   0  0  0  0  0  0  0  0  0  0  0  0
   -2.0395   -5.3757   -0.9206 H   0  0  0  0  0  0  0  0  0  0  0  0
   -1.1114   -4.2534   -2.9039 H   0  0  0  0  0  0  0  0  0  0  0  0
   -0.6109   -1.8015   -2.8212 H   0  0  0  0  0  0  0  0  0  0  0  0
   -3.1217    3.5086    0.9339 H   0  0  0  0  0  0  0  0  0  0  0  0
   -5.8307    2.5647    0.6977 H   0  0  0  0  0  0  0  0  0  0  0  0
  1  2  1  0
  2  3  1  0
  3  4  2  0
  3  5  1  0
  5  6  2  0
  6  7  1  0
  7  8  2  0
  8  9  1  0
  9 10  2  0
 10 11  1  0
 11 12  1  0
 12 13  2  0
 13 14  1  0
 14 15  2  0
 15 16  1  0
 16 17  1  0
 17 18  1  0
 18 19  2  0
 19 20  1  0
 20 21  2  0
 21 22  1  0
 22 23  2  0
 15 24  1  0
 24 25  2  0
 10 26  1  0
 26 27  2  0
 27 28  1  0
 28 29  2  0
 29 30  1  0
 30 31  2  0
  9 32  1  0
 32 33  2  0
 32 34  1  0
 34 35  1  0
 35 36  2  0
 36  5  1  0
 35  8  1  0
 25 12  1  0
 31 26  1  0
 23 18  1  0
  1 37  1  0
  1 38  1  0
  1 39  1  0
  6 40  1  0
  7 41  1  0
 11 42  1  0
 13 43  1  0
 14 44  1  0
 17 45  1  0
 17 46  1  0
 19 47  1  0
 20 48  1  0
 21 49  1  0
 22 50  1  0
 23 51  1  0
 24 52  1  0
 25 53  1  0
 27 54  1  0
 28 55  1  0
 29 56  1  0
 30 57  1  0
 31 58  1  0
 34 59  1  0
 36 60  1  0
M  END
$$$$
[H]C(=O)[C@@]([H])(N([H])C(=O)[C@]([H])(N([H])C(=O)[C@]([H])(N([H])C(=O)[C@@]([H])(N([H])C(=O)[C@@]([H])(N([H])C(=O)OC([H])([H])c1c([H])c([H])c([H])c([H])c1[H])C([H])([H])C([H])(C([H])([H])[H])C([H])([H])[H])[C@@]([H])(C([H])([H])[H])C([H])([H])C([H])([H])[H])C([H])([H])c1c([H])c([H])c([H])c([H])c1[H])C([H])([H])[H])C([H])([H])c1c([H])c([H])c([H])c([H])c1[H]
     RDKit          3D

106108  0  0  0  0  0  0  0  0999 V2000
    2.1310   -3.5407   -3.8715 C   0  0  0  0  0  0  0  0  0  0  0  0
    2.3074   -2.4546   -2.8189 C   0  0  0  0  0  0  0  0  0  0  0  0
    1.3828   -1.3287   -3.1991 C   0  0  2  0  0  0  0  0  0  0  0  0
    1.7981   -0.8312   -4.5774 C   0  0  0  0  0  0  0  0  0  0  0  0
    1.3528   -0.1881   -2.2311 C   0  0  2  0  0  0  0  0  0  0  0  0
    2.6226    0.4035   -2.0448 N   0  0  0  0  0  0  0  0  0  0  0  0
    3.6443    0.0885   -1.1280 C   0  0  0  0  0  0  0  0  0  0  0  0
    3.5009   -0.8532   -0.3283 O   0  0  0  0  0  0  0  0  0  0  0  0
    4.9293    0.8469   -1.0595 C   0  0  2  0  0  0  0  0  0  0  0  0
    5.4887    1.2328   -2.3624 C   0  0  0  0  0  0  0  0  0  0  0  0
    5.8199    0.1744   -3.3434 C   0  0  0  0  0  0  0  0  0  0  0  0
    6.3764    0.8186   -4.6293 C   0  0  0  0  0  0  0  0  0  0  0  0
    6.9439   -0.6986   -2.8347 C   0  0  0  0  0  0  0  0  0  0  0  0
    5.7937    0.2844   -0.0801 N   0  0  0  0  0  0  0  0  0  0  0  0
    5.8653    0.7785    1.2795 C   0  0  0  0  0  0  0  0  0  0  0  0
    5.1337    1.7390    1.6303 O   0  0  0  0  0  0  0  0  0  0  0  0
    6.7099    0.2373    2.2213 O   0  0  0  0  0  0  0  0  0  0  0  0
    6.8249    0.6545    3.5631 C   0  0  0  0  0  0  0  0  0  0  0  0
    7.1926    2.0720    3.7272 C   0  0  0  0  0  0  0  0  0  0  0  0
    6.2970    2.9492    4.2623 C   0  0  0  0  0  0  0  0  0  0  0  0
    6.5872    4.2965    4.4344 C   0  0  0  0  0  0  0  0  0  0  0  0
    7.8545    4.7085    4.0268 C   0  0  0  0  0  0  0  0  0  0  0  0
    8.7897    3.8562    3.4819 C   0  0  0  0  0  0  0  0  0  0  0  0
    8.4278    2.5150    3.3397 C   0  0  0  0  0  0  0  0  0  0  0  0
    0.5260   -0.3989   -1.0244 C   0  0  0  0  0  0  0  0  0  0  0  0
    0.9294   -0.0248    0.0858 O   0  0  0  0  0  0  0  0  0  0  0  0
   -0.7532   -1.0247   -1.0869 N   0  0  0  0  0  0  0  0  0  0  0  0
   -1.5712   -1.2040    0.0927 C   0  0  2  0  0  0  0  0  0  0  0  0
   -1.9843   -2.6045    0.3386 C   0  0  0  0  0  0  0  0  0  0  0  0
   -0.8919   -3.5720    0.5439 C   0  0  0  0  0  0  0  0  0  0  0  0
   -0.4073   -3.7602    1.8394 C   0  0  0  0  0  0  0  0  0  0  0  0
    0.6034   -4.6538    2.0807 C   0  0  0  0  0  0  0  0  0  0  0  0
    1.1768   -5.3952    1.0646 C   0  0  0  0  0  0  0  0  0  0  0  0
    0.7076   -5.2180   -0.2140 C   0  0  0  0  0  0  0  0  0  0  0  0
   -0.3073   -4.3200   -0.4520 C   0  0  0  0  0  0  0  0  0  0  0  0
   -2.7558   -0.3187    0.0295 C   0  0  0  0  0  0  0  0  0  0  0  0
   -2.9001    0.4183   -0.9756 O   0  0  0  0  0  0  0  0  0  0  0  0
   -3.7248   -0.2691    1.0516 N   0  0  0  0  0  0  0  0  0  0  0  0
   -4.8753    0.6051    0.9825 C   0  0  2  0  0  0  0  0  0  0  0  0
   -4.9112    1.6233    2.0816 C   0  0  0  0  0  0  0  0  0  0  0  0
   -6.1355   -0.1864    1.0030 C   0  0  0  0  0  0  0  0  0  0  0  0
   -6.0987   -1.4441    1.1134 O   0  0  0  0  0  0  0  0  0  0  0  0
   -7.4050    0.4311    0.8995 N   0  0  0  0  0  0  0  0  0  0  0  0
   -8.6204   -0.3057    0.9184 C   0  0  1  0  0  0  0  0  0  0  0  0
   -9.6004    0.1415    1.9810 C   0  0  0  0  0  0  0  0  0  0  0  0
   -9.9903    1.5669    1.8024 C   0  0  0  0  0  0  0  0  0  0  0  0
   -9.2464    2.5349    2.4278 C   0  0  0  0  0  0  0  0  0  0  0  0
   -9.5723    3.8620    2.2846 C   0  0  0  0  0  0  0  0  0  0  0  0
  -10.6527    4.2012    1.5073 C   0  0  0  0  0  0  0  0  0  0  0  0
  -11.4281    3.2610    0.8610 C   0  0  0  0  0  0  0  0  0  0  0  0
  -11.0637    1.9403    1.0329 C   0  0  0  0  0  0  0  0  0  0  0  0
   -9.3536   -0.2219   -0.3894 C   0  0  0  0  0  0  0  0  0  0  0  0
   -8.8508    0.4185   -1.2730 O   0  0  0  0  0  0  0  0  0  0  0  0
    2.9027   -3.4641   -4.6710 H   0  0  0  0  0  0  0  0  0  0  0  0
    1.1528   -3.4606   -4.3423 H   0  0  0  0  0  0  0  0  0  0  0  0
    2.1920   -4.5524   -3.4184 H   0  0  0  0  0  0  0  0  0  0  0  0
    2.0935   -2.9068   -1.8403 H   0  0  0  0  0  0  0  0  0  0  0  0
    3.3805   -2.1052   -2.8920 H   0  0  0  0  0  0  0  0  0  0  0  0
    0.3618   -1.7700   -3.3510 H   0  0  0  0  0  0  0  0  0  0  0  0
    2.1138    0.2471   -4.4706 H   0  0  0  0  0  0  0  0  0  0  0  0
    0.9562   -0.8067   -5.2777 H   0  0  0  0  0  0  0  0  0  0  0  0
    2.6874   -1.3499   -4.9628 H   0  0  0  0  0  0  0  0  0  0  0  0
    0.7189    0.6530   -2.7647 H   0  0  0  0  0  0  0  0  0  0  0  0
    2.8721    1.2217   -2.6978 H   0  0  0  0  0  0  0  0  0  0  0  0
    4.5709    1.8422   -0.5867 H   0  0  0  0  0  0  0  0  0  0  0  0
    6.3891    1.8837   -2.1502 H   0  0  0  0  0  0  0  0  0  0  0  0
    4.7766    1.9495   -2.8535 H   0  0  0  0  0  0  0  0  0  0  0  0
    4.9663   -0.4352   -3.6684 H   0  0  0  0  0  0  0  0  0  0  0  0
    5.5505    0.9347   -5.3900 H   0  0  0  0  0  0  0  0  0  0  0  0
    6.7432    1.8435   -4.4286 H   0  0  0  0  0  0  0  0  0  0  0  0
    7.1845    0.2231   -5.0577 H   0  0  0  0  0  0  0  0  0  0  0  0
    6.5698   -1.6312   -2.3618 H   0  0  0  0  0  0  0  0  0  0  0  0
    7.6860   -0.1497   -2.2373 H   0  0  0  0  0  0  0  0  0  0  0  0
    7.5364   -1.0796   -3.7248 H   0  0  0  0  0  0  0  0  0  0  0  0
    6.4429   -0.5278   -0.2527 H   0  0  0  0  0  0  0  0  0  0  0  0
    7.5722   -0.0182    4.0788 H   0  0  0  0  0  0  0  0  0  0  0  0
    5.8586    0.4213    4.0924 H   0  0  0  0  0  0  0  0  0  0  0  0
    5.3284    2.5846    4.5629 H   0  0  0  0  0  0  0  0  0  0  0  0
    5.8662    4.9900    4.8620 H   0  0  0  0  0  0  0  0  0  0  0  0
    8.0680    5.7739    4.1687 H   0  0  0  0  0  0  0  0  0  0  0  0
    9.7648    4.1968    3.1738 H   0  0  0  0  0  0  0  0  0  0  0  0
    9.1547    1.8456    2.9155 H   0  0  0  0  0  0  0  0  0  0  0  0
   -1.0865   -1.3511   -2.0114 H   0  0  0  0  0  0  0  0  0  0  0  0
   -1.0121   -0.8568    1.0165 H   0  0  0  0  0  0  0  0  0  0  0  0
   -2.6780   -2.7215    1.1953 H   0  0  0  0  0  0  0  0  0  0  0  0
   -2.5747   -2.9979   -0.5460 H   0  0  0  0  0  0  0  0  0  0  0  0
   -0.8457   -3.1831    2.6624 H   0  0  0  0  0  0  0  0  0  0  0  0
    0.9844   -4.8015    3.0994 H   0  0  0  0  0  0  0  0  0  0  0  0
    1.9824   -6.0977    1.3084 H   0  0  0  0  0  0  0  0  0  0  0  0
    1.1519   -5.7938   -1.0055 H   0  0  0  0  0  0  0  0  0  0  0  0
   -0.6660   -4.1907   -1.4617 H   0  0  0  0  0  0  0  0  0  0  0  0
   -3.6211   -0.8745    1.8860 H   0  0  0  0  0  0  0  0  0  0  0  0
   -4.8821    1.1880    0.0184 H   0  0  0  0  0  0  0  0  0  0  0  0
   -4.9056    2.6843    1.6956 H   0  0  0  0  0  0  0  0  0  0  0  0
   -5.8302    1.5176    2.7002 H   0  0  0  0  0  0  0  0  0  0  0  0
   -4.0463    1.5498    2.7769 H   0  0  0  0  0  0  0  0  0  0  0  0
   -7.4393    1.4774    0.8029 H   0  0  0  0  0  0  0  0  0  0  0  0
   -8.4114   -1.3735    1.0687 H   0  0  0  0  0  0  0  0  0  0  0  0
  -10.5070   -0.4752    1.8458 H   0  0  0  0  0  0  0  0  0  0  0  0
   -9.1783   -0.0737    2.9685 H   0  0  0  0  0  0  0  0  0  0  0  0
   -8.3774    2.2573    3.0521 H   0  0  0  0  0  0  0  0  0  0  0  0
   -8.9641    4.6260    2.7915 H   0  0  0  0  0  0  0  0  0  0  0  0
  -10.9081    5.2586    1.3952 H   0  0  0  0  0  0  0  0  0  0  0  0
  -12.2858    3.5559    0.2449 H   0  0  0  0  0  0  0  0  0  0  0  0
  -11.6793    1.1931    0.5199 H   0  0  0  0  0  0  0  0  0  0  0  0
  -10.2978   -0.7134   -0.5427 H   0  0  0  0  0  0  0  0  0  0  0  0
  1  2  1  0
  2  3  1  0
  3  4  1  0
  3  5  1  0
  5  6  1  0
  6  7  1  0
  7  8  2  0
  7  9  1  0
  9 10  1  0
 10 11  1  0
 11 12  1  0
 11 13  1  0
  9 14  1  0
 14 15  1  0
 15 16  2  0
 15 17  1  0
 17 18  1  0
 18 19  1  0
 19 20  2  0
 20 21  1  0
 21 22  2  0
 22 23  1  0
 23 24  2  0
  5 25  1  0
 25 26  2  0
 25 27  1  0
 27 28  1  0
 28 29  1  0
 29 30  1  0
 30 31  2  0
 31 32  1  0
 32 33  2  0
 33 34  1  0
 34 35  2  0
 28 36  1  0
 36 37  2  0
 36 38  1  0
 38 39  1  0
 39 40  1  0
 39 41  1  0
 41 42  2  0
 41 43  1  0
 43 44  1  0
 44 45  1  0
 45 46  1  0
 46 47  2  0
 47 48  1  0
 48 49  2  0
 49 50  1  0
 50 51  2  0
 44 52  1  0
 52 53  2  0
 24 19  1  0
 35 30  1  0
 51 46  1  0
  1 54  1  0
  1 55  1  0
  1 56  1  0
  2 57  1  0
  2 58  1  0
  3 59  1  6
  4 60  1  0
  4 61  1  0
  4 62  1  0
  5 63  1  6
  6 64  1  0
  9 65  1  1
 10 66  1  0
 10 67  1  0
 11 68  1  0
 12 69  1  0
 12 70  1  0
 12 71  1  0
 13 72  1  0
 13 73  1  0
 13 74  1  0
 14 75  1  0
 18 76  1  0
 18 77  1  0
 20 78  1  0
 21 79  1  0
 22 80  1  0
 23 81  1  0
 24 82  1  0
 27 83  1  0
 28 84  1  1
 29 85  1  0
 29 86  1  0
 31 87  1  0
 32 88  1  0
 33 89  1  0
 34 90  1  0
 35 91  1  0
 38 92  1  0
 39 93  1  6
 40 94  1  0
 40 95  1  0
 40 96  1  0
 43 97  1  0
 44 98  1  1
 45 99  1  0
 45100  1  0
 47101  1  0
 48102  1  0
 49103  1  0
 50104  1  0
 51105  1  0
 52106  1  0
M  END
$$$$
[H]c1nc(N([H])C(=O)c2c([H])c(-c3c([H])c([H])c([H])c(F)c3[H])nn2C([H])(c2nnn(-c3c([H])c([H])c([H])c([H])c3F)c2[H])C([H])([H])[H])c([H])s1
     RDKit          3D

 51 55  0  0  0  0  0  0  0  0999 V2000
   -0.1122    0.9527   -3.6277 C   0  0  0  0  0  0  0  0  0  0  0  0
    0.2372   -0.0688   -2.5665 C   0  0  0  0  0  0  0  0  0  0  0  0
    1.5691    0.0645   -1.9959 C   0  0  0  0  0  0  0  0  0  0  0  0
    2.0366   -0.5151   -0.8419 C   0  0  0  0  0  0  0  0  0  0  0  0
    3.3482   -0.1679   -0.6775 N   0  0  0  0  0  0  0  0  0  0  0  0
    3.6396    0.5891   -1.6999 N   0  0  0  0  0  0  0  0  0  0  0  0
    2.5985    0.7496   -2.5095 N   0  0  0  0  0  0  0  0  0  0  0  0
    4.1433   -0.5829    0.3963 C   0  0  0  0  0  0  0  0  0  0  0  0
    4.6048    0.3489    1.2913 C   0  0  0  0  0  0  0  0  0  0  0  0
    5.3859   -0.0934    2.3381 C   0  0  0  0  0  0  0  0  0  0  0  0
    5.7243   -1.4151    2.5298 C   0  0  0  0  0  0  0  0  0  0  0  0
    5.2532   -2.3304    1.6245 C   0  0  0  0  0  0  0  0  0  0  0  0
    4.4699   -1.9184    0.5674 C   0  0  0  0  0  0  0  0  0  0  0  0
    4.0024   -2.8231   -0.3302 F   0  0  0  0  0  0  0  0  0  0  0  0
   -0.8131   -0.2174   -1.5776 N   0  0  0  0  0  0  0  0  0  0  0  0
   -1.5510   -1.3230   -1.4057 N   0  0  0  0  0  0  0  0  0  0  0  0
   -2.4439   -1.1951   -0.4341 C   0  0  0  0  0  0  0  0  0  0  0  0
   -2.2840    0.0667    0.0612 C   0  0  0  0  0  0  0  0  0  0  0  0
   -1.2477    0.6649   -0.6773 C   0  0  0  0  0  0  0  0  0  0  0  0
   -0.8231    2.0163   -0.3988 C   0  0  0  0  0  0  0  0  0  0  0  0
    0.1019    2.5650   -1.0209 O   0  0  0  0  0  0  0  0  0  0  0  0
   -1.4496    2.7933    0.6116 N   0  0  0  0  0  0  0  0  0  0  0  0
   -1.0405    4.1478    0.9060 C   0  0  0  0  0  0  0  0  0  0  0  0
   -1.6564    4.8841    1.8843 C   0  0  0  0  0  0  0  0  0  0  0  0
   -0.7986    6.3641    1.8049 S   0  0  0  0  0  0  0  0  0  0  0  0
    0.2799    5.9620    0.5462 C   0  0  0  0  0  0  0  0  0  0  0  0
   -0.0716    4.7232    0.2548 N   0  0  0  0  0  0  0  0  0  0  0  0
   -3.4179   -2.2156    0.0214 C   0  0  0  0  0  0  0  0  0  0  0  0
   -3.4885   -3.4613   -0.5559 C   0  0  0  0  0  0  0  0  0  0  0  0
   -4.3906   -4.4240   -0.1432 C   0  0  0  0  0  0  0  0  0  0  0  0
   -5.2623   -4.1403    0.8881 C   0  0  0  0  0  0  0  0  0  0  0  0
   -5.2080   -2.8914    1.4837 C   0  0  0  0  0  0  0  0  0  0  0  0
   -6.0715   -2.6167    2.5019 F   0  0  0  0  0  0  0  0  0  0  0  0
   -4.2863   -1.9307    1.0499 C   0  0  0  0  0  0  0  0  0  0  0  0
    0.6731    1.7456   -3.6799 H   0  0  0  0  0  0  0  0  0  0  0  0
   -0.2557    0.4975   -4.6416 H   0  0  0  0  0  0  0  0  0  0  0  0
   -1.0624    1.4601   -3.3664 H   0  0  0  0  0  0  0  0  0  0  0  0
    0.1848   -1.0637   -3.1631 H   0  0  0  0  0  0  0  0  0  0  0  0
    1.4980   -1.1451   -0.1502 H   0  0  0  0  0  0  0  0  0  0  0  0
    4.3505    1.4081    1.1627 H   0  0  0  0  0  0  0  0  0  0  0  0
    5.7541    0.6326    3.0482 H   0  0  0  0  0  0  0  0  0  0  0  0
    6.3478   -1.7077    3.3795 H   0  0  0  0  0  0  0  0  0  0  0  0
    5.4993   -3.3823    1.7428 H   0  0  0  0  0  0  0  0  0  0  0  0
   -2.8422    0.4944    0.8499 H   0  0  0  0  0  0  0  0  0  0  0  0
   -2.2175    2.3814    1.1504 H   0  0  0  0  0  0  0  0  0  0  0  0
   -2.4908    4.5810    2.5436 H   0  0  0  0  0  0  0  0  0  0  0  0
    1.0858    6.5397    0.0553 H   0  0  0  0  0  0  0  0  0  0  0  0
   -2.8246   -3.7281   -1.3679 H   0  0  0  0  0  0  0  0  0  0  0  0
   -4.4551   -5.4060   -0.5894 H   0  0  0  0  0  0  0  0  0  0  0  0
   -5.9737   -4.9010    1.2128 H   0  0  0  0  0  0  0  0  0  0  0  0
   -4.2496   -0.9683    1.5142 H   0  0  0  0  0  0  0  0  0  0  0  0
  1  2  1  0
  2  3  1  0
  3  4  2  0
  4  5  1  0
  5  6  1  0
  6  7  2  0
  5  8  1  0
  8  9  2  0
  9 10  1  0
 10 11  2  0
 11 12  1  0
 12 13  2  0
 13 14  1  0
  2 15  1  0
 15 16  1  0
 16 17  2  0
 17 18  1  0
 18 19  2  0
 19 20  1  0
 20 21  2  0
 20 22  1  0
 22 23  1  0
 23 24  2  0
 24 25  1  0
 25 26  1  0
 26 27  2  0
 17 28  1  0
 28 29  2  0
 29 30  1  0
 30 31  2  0
 31 32  1  0
 32 33  1  0
 32 34  2  0
  7  3  1  0
 13  8  1  0
 19 15  1  0
 27 23  1  0
 34 28  1  0
  1 35  1  0
  1 36  1  0
  1 37  1  0
  2 38  1  0
  4 39  1  0
  9 40  1  0
 10 41  1  0
 11 42  1  0
 12 43  1  0
 18 44  1  0
 22 45  1  0
 24 46  1  0
 26 47  1  0
 29 48  1  0
 30 49  1  0
 31 50  1  0
 34 51  1  0
M  END
$$$$
[H]c1nc(Cl)c([H])c([H])c1C(=O)N1C([H])([H])C2([H])C([H])([H])N([H])C([H])([H])C([H])(C1([H])[H])C2([H])[H]
     RDKit          3D

 34 36  0  0  0  0  0  0  0  0999 V2000
    6.7408    1.1101    0.3521 Cl  0  0  0  0  0  0  0  0  0  0  0  0
    5.1097    0.4954    0.2304 C   0  0  0  0  0  0  0  0  0  0  0  0
    4.8966   -0.7492   -0.2997 C   0  0  0  0  0  0  0  0  0  0  0  0
    3.6151   -1.2423   -0.3992 C   0  0  0  0  0  0  0  0  0  0  0  0
    2.4855   -0.5222    0.0231 C   0  0  0  0  0  0  0  0  0  0  0  0
    2.7593    0.7108    0.5411 C   0  0  0  0  0  0  0  0  0  0  0  0
    4.0399    1.1918    0.6360 N   0  0  0  0  0  0  0  0  0  0  0  0
    1.1856   -1.1289   -0.1711 C   0  0  0  0  0  0  0  0  0  0  0  0
    1.1740   -2.2336   -0.8918 O   0  0  0  0  0  0  0  0  0  0  0  0
   -0.0689   -0.7529    0.2704 N   0  0  0  0  0  0  0  0  0  0  0  0
   -1.2182   -1.6000   -0.1868 C   0  0  0  0  0  0  0  0  0  0  0  0
   -2.2560   -0.6523   -0.7672 C   0  0  0  0  0  0  0  0  0  0  0  0
   -3.4165   -0.4076    0.1366 C   0  0  0  0  0  0  0  0  0  0  0  0
   -3.6576    0.9506    0.4982 N   0  0  0  0  0  0  0  0  0  0  0  0
   -2.5307    1.7113    0.9314 C   0  0  0  0  0  0  0  0  0  0  0  0
   -1.2473    1.3283    0.2425 C   0  0  0  0  0  0  0  0  0  0  0  0
   -1.5620    0.6579   -1.0860 C   0  0  0  0  0  0  0  0  0  0  0  0
   -0.5233    0.3002    1.1263 C   0  0  0  0  0  0  0  0  0  0  0  0
    5.7481   -1.3302   -0.6349 H   0  0  0  0  0  0  0  0  0  0  0  0
    3.5236   -2.2261   -0.8244 H   0  0  0  0  0  0  0  0  0  0  0  0
    1.9561    1.3510    0.8678 H   0  0  0  0  0  0  0  0  0  0  0  0
   -1.6412   -2.0016    0.7525 H   0  0  0  0  0  0  0  0  0  0  0  0
   -0.9006   -2.3942   -0.8467 H   0  0  0  0  0  0  0  0  0  0  0  0
   -2.5688   -1.1068   -1.7394 H   0  0  0  0  0  0  0  0  0  0  0  0
   -3.3998   -1.1075    1.0244 H   0  0  0  0  0  0  0  0  0  0  0  0
   -4.3453   -0.7438   -0.4178 H   0  0  0  0  0  0  0  0  0  0  0  0
   -4.2995    1.4584   -0.1436 H   0  0  0  0  0  0  0  0  0  0  0  0
   -2.7227    2.7836    0.6919 H   0  0  0  0  0  0  0  0  0  0  0  0
   -2.3982    1.6901    2.0492 H   0  0  0  0  0  0  0  0  0  0  0  0
   -0.5669    2.1708    0.0306 H   0  0  0  0  0  0  0  0  0  0  0  0
   -2.1526    1.3220   -1.7199 H   0  0  0  0  0  0  0  0  0  0  0  0
   -0.5869    0.4347   -1.5576 H   0  0  0  0  0  0  0  0  0  0  0  0
    0.1580    0.7245    1.8401 H   0  0  0  0  0  0  0  0  0  0  0  0
   -1.3293   -0.1922    1.7911 H   0  0  0  0  0  0  0  0  0  0  0  0
  1  2  1  0
  2  3  2  0
  3  4  1  0
  4  5  2  0
  5  6  1  0
  6  7  2  0
  5  8  1  0
  8  9  2  0
  8 10  1  0
 10 11  1  0
 11 12  1  0
 12 13  1  0
 13 14  1  0
 14 15  1  0
 15 16  1  0
 16 17  1  0
 16 18  1  0
  7  2  1  0
 18 10  1  0
 17 12  1  0
  3 19  1  0
  4 20  1  0
  6 21  1  0
 11 22  1  0
 11 23  1  0
 12 24  1  0
 13 25  1  0
 13 26  1  0
 14 27  1  0
 15 28  1  0
 15 29  1  0
 16 30  1  0
 17 31  1  0
 17 32  1  0
 18 33  1  0
 18 34  1  0
M  END
$$$$
[H]c1nc2c([H])c(OC([H])([H])C([H])([H])C([H])([H])N3C([H])([H])C([H])([H])C([H])([H])C3([H])[H])c(OC([H])([H])[H])c([H])c2c(-c2c([H])c([H])c(N([H])c3nc([H])c(C4([H])C([H])([H])C([H])([H])N(C([H])([H])[H])C([H])([H])C4([H])[H])c([H])n3)c([H])c2[H])c1[H]
     RDKit          3D

 81 86  0  0  0  0  0  0  0  0999 V2000
  -10.5895   -0.5486    3.8222 C   0  0  0  0  0  0  0  0  0  0  0  0
  -10.3157    0.5372    2.9203 N   0  0  0  0  0  0  0  0  0  0  0  0
   -9.3064    1.4305    3.3916 C   0  0  0  0  0  0  0  0  0  0  0  0
   -7.9523    0.8582    2.9563 C   0  0  0  0  0  0  0  0  0  0  0  0
   -7.8704    1.1050    1.4626 C   0  0  0  0  0  0  0  0  0  0  0  0
   -9.1737    0.9212    0.7718 C   0  0  0  0  0  0  0  0  0  0  0  0
  -10.1793    0.1266    1.5616 C   0  0  0  0  0  0  0  0  0  0  0  0
   -6.7363    0.3920    0.8244 C   0  0  0  0  0  0  0  0  0  0  0  0
   -5.6352    1.0165    0.2759 C   0  0  0  0  0  0  0  0  0  0  0  0
   -4.6380    0.3531   -0.2857 N   0  0  0  0  0  0  0  0  0  0  0  0
   -4.6288   -0.9754   -0.3602 C   0  0  0  0  0  0  0  0  0  0  0  0
   -3.6202   -1.7765   -0.9277 N   0  0  0  0  0  0  0  0  0  0  0  0
   -2.4378   -1.3451   -1.5065 C   0  0  0  0  0  0  0  0  0  0  0  0
   -1.7291   -2.2170   -2.3468 C   0  0  0  0  0  0  0  0  0  0  0  0
   -0.5477   -1.9060   -2.9457 C   0  0  0  0  0  0  0  0  0  0  0  0
   -0.0046   -0.6440   -2.7121 C   0  0  0  0  0  0  0  0  0  0  0  0
   -0.6647    0.2429   -1.8953 C   0  0  0  0  0  0  0  0  0  0  0  0
   -1.8772   -0.1131   -1.2971 C   0  0  0  0  0  0  0  0  0  0  0  0
    1.2286   -0.2313   -3.3494 C   0  0  0  0  0  0  0  0  0  0  0  0
    1.2497   -0.2463   -4.7348 C   0  0  0  0  0  0  0  0  0  0  0  0
    2.3932    0.1728   -5.4090 C   0  0  0  0  0  0  0  0  0  0  0  0
    3.4661    0.5880   -4.7306 N   0  0  0  0  0  0  0  0  0  0  0  0
    3.4853    0.6176   -3.3983 C   0  0  0  0  0  0  0  0  0  0  0  0
    4.6105    1.0404   -2.7283 C   0  0  0  0  0  0  0  0  0  0  0  0
    4.6983    1.0816   -1.3625 C   0  0  0  0  0  0  0  0  0  0  0  0
    5.7325    1.4663   -0.5959 O   0  0  0  0  0  0  0  0  0  0  0  0
    7.0141    1.9019   -0.8408 C   0  0  0  0  0  0  0  0  0  0  0  0
    7.8483    0.8512   -1.5061 C   0  0  0  0  0  0  0  0  0  0  0  0
    7.9198   -0.3853   -0.7156 C   0  0  0  0  0  0  0  0  0  0  0  0
    8.4086   -0.4927    0.5430 N   0  0  0  0  0  0  0  0  0  0  0  0
    7.8987   -0.0372    1.7317 C   0  0  0  0  0  0  0  0  0  0  0  0
    9.1019    0.0983    2.6926 C   0  0  0  0  0  0  0  0  0  0  0  0
   10.1202   -0.8541    2.1395 C   0  0  0  0  0  0  0  0  0  0  0  0
    9.7473   -0.9651    0.6886 C   0  0  0  0  0  0  0  0  0  0  0  0
    3.5341    0.6535   -0.6858 C   0  0  0  0  0  0  0  0  0  0  0  0
    3.5366    0.6626    0.6885 O   0  0  0  0  0  0  0  0  0  0  0  0
    2.3934    0.2385    1.4004 C   0  0  0  0  0  0  0  0  0  0  0  0
    2.4058    0.2302   -1.3421 C   0  0  0  0  0  0  0  0  0  0  0  0
    2.3518    0.2021   -2.6984 C   0  0  0  0  0  0  0  0  0  0  0  0
   -5.7159   -1.6248    0.1788 N   0  0  0  0  0  0  0  0  0  0  0  0
   -6.7384   -0.9818    0.7526 C   0  0  0  0  0  0  0  0  0  0  0  0
  -10.7650   -0.1028    4.8278 H   0  0  0  0  0  0  0  0  0  0  0  0
  -11.5149   -1.0742    3.5029 H   0  0  0  0  0  0  0  0  0  0  0  0
   -9.7806   -1.3033    3.8528 H   0  0  0  0  0  0  0  0  0  0  0  0
   -9.4029    2.4020    2.8682 H   0  0  0  0  0  0  0  0  0  0  0  0
   -9.3767    1.5003    4.4844 H   0  0  0  0  0  0  0  0  0  0  0  0
   -7.8067   -0.1767    3.2469 H   0  0  0  0  0  0  0  0  0  0  0  0
   -7.1855    1.4912    3.4859 H   0  0  0  0  0  0  0  0  0  0  0  0
   -7.6106    2.2023    1.3717 H   0  0  0  0  0  0  0  0  0  0  0  0
   -9.0011    0.3788   -0.1871 H   0  0  0  0  0  0  0  0  0  0  0  0
   -9.6655    1.8805    0.4938 H   0  0  0  0  0  0  0  0  0  0  0  0
   -9.9848   -0.9632    1.5431 H   0  0  0  0  0  0  0  0  0  0  0  0
  -11.1633    0.2671    1.0641 H   0  0  0  0  0  0  0  0  0  0  0  0
   -5.6305    2.1130    0.3328 H   0  0  0  0  0  0  0  0  0  0  0  0
   -3.7778   -2.8359   -0.9074 H   0  0  0  0  0  0  0  0  0  0  0  0
   -2.1592   -3.1877   -2.5195 H   0  0  0  0  0  0  0  0  0  0  0  0
    0.0045   -2.5564   -3.5879 H   0  0  0  0  0  0  0  0  0  0  0  0
   -0.2227    1.2318   -1.7248 H   0  0  0  0  0  0  0  0  0  0  0  0
   -2.2960    0.6455   -0.6723 H   0  0  0  0  0  0  0  0  0  0  0  0
    0.3833   -0.5804   -5.2893 H   0  0  0  0  0  0  0  0  0  0  0  0
    2.3503    0.1379   -6.4815 H   0  0  0  0  0  0  0  0  0  0  0  0
    5.4421    1.3660   -3.3275 H   0  0  0  0  0  0  0  0  0  0  0  0
    6.9745    2.8350   -1.5040 H   0  0  0  0  0  0  0  0  0  0  0  0
    7.4627    2.2871    0.1130 H   0  0  0  0  0  0  0  0  0  0  0  0
    7.3872    0.6028   -2.4800 H   0  0  0  0  0  0  0  0  0  0  0  0
    8.8591    1.2540   -1.8001 H   0  0  0  0  0  0  0  0  0  0  0  0
    8.4595   -1.1515   -1.3860 H   0  0  0  0  0  0  0  0  0  0  0  0
    6.8579   -0.8296   -0.7417 H   0  0  0  0  0  0  0  0  0  0  0  0
    7.2328    0.8022    1.8228 H   0  0  0  0  0  0  0  0  0  0  0  0
    7.3160   -0.9017    2.2159 H   0  0  0  0  0  0  0  0  0  0  0  0
    8.8431   -0.2524    3.7116 H   0  0  0  0  0  0  0  0  0  0  0  0
    9.4481    1.1438    2.7599 H   0  0  0  0  0  0  0  0  0  0  0  0
   10.0303   -1.8621    2.6150 H   0  0  0  0  0  0  0  0  0  0  0  0
   11.1514   -0.5053    2.2355 H   0  0  0  0  0  0  0  0  0  0  0  0
   10.4598   -0.4652    0.0118 H   0  0  0  0  0  0  0  0  0  0  0  0
    9.7385   -2.0508    0.3886 H   0  0  0  0  0  0  0  0  0  0  0  0
    2.5782    0.2574    2.5020 H   0  0  0  0  0  0  0  0  0  0  0  0
    1.5003    0.8580    1.2125 H   0  0  0  0  0  0  0  0  0  0  0  0
    2.1089   -0.8061    1.1083 H   0  0  0  0  0  0  0  0  0  0  0  0
    1.5439   -0.1027   -0.7516 H   0  0  0  0  0  0  0  0  0  0  0  0
   -7.5720   -1.5346    1.1618 H   0  0  0  0  0  0  0  0  0  0  0  0
  1  2  1  0
  2  3  1  0
  3  4  1  0
  4  5  1  0
  5  6  1  0
  6  7  1  0
  5  8  1  0
  8  9  2  0
  9 10  1  0
 10 11  2  0
 11 12  1  0
 12 13  1  0
 13 14  2  0
 14 15  1  0
 15 16  2  0
 16 17  1  0
 17 18  2  0
 16 19  1  0
 19 20  2  0
 20 21  1  0
 21 22  2  0
 22 23  1  0
 23 24  2  0
 24 25  1  0
 25 26  1  0
 26 27  1  0
 27 28  1  0
 28 29  1  0
 29 30  1  0
 30 31  1  0
 31 32  1  0
 32 33  1  0
 33 34  1  0
 25 35  2  0
 35 36  1  0
 36 37  1  0
 35 38  1  0
 38 39  2  0
 11 40  1  0
 40 41  2  0
  7  2  1  0
 41  8  1  0
 18 13  1  0
 39 19  1  0
 39 23  1  0
 34 30  1  0
  1 42  1  0
  1 43  1  0
  1 44  1  0
  3 45  1  0
  3 46  1  0
  4 47  1  0
  4 48  1  0
  5 49  1  0
  6 50  1  0
  6 51  1  0
  7 52  1  0
  7 53  1  0
  9 54  1  0
 12 55  1  0
 14 56  1  0
 15 57  1  0
 17 58  1  0
 18 59  1  0
 20 60  1  0
 21 61  1  0
 24 62  1  0
 27 63  1  0
 27 64  1  0
 28 65  1  0
 28 66  1  0
 29 67  1  0
 29 68  1  0
 31 69  1  0
 31 70  1  0
 32 71  1  0
 32 72  1  0
 33 73  1  0
 33 74  1  0
 34 75  1  0
 34 76  1  0
 37 77  1  0
 37 78  1  0
 37 79  1  0
 38 80  1  0
 41 81  1  0
M  END
$$$$
[H]c1c([H])c([H])c(-c2nc(C(=O)N([H])[H])c([H])c3c2nc([H])n3C([H])([H])c2c([H])c([H])c([H])c([H])c2[H])c([H])c1[H]
     RDKit          3D

 41 44  0  0  0  0  0  0  0  0999 V2000
    0.7144   -4.2288    0.6665 N   0  0  0  0  0  0  0  0  0  0  0  0
   -0.5425   -3.6090    0.8356 C   0  0  0  0  0  0  0  0  0  0  0  0
   -1.4495   -4.2310    1.4217 O   0  0  0  0  0  0  0  0  0  0  0  0
   -0.7414   -2.2449    0.3130 C   0  0  0  0  0  0  0  0  0  0  0  0
    0.2736   -1.5823   -0.3284 C   0  0  0  0  0  0  0  0  0  0  0  0
    0.1402   -0.2870   -0.8438 C   0  0  0  0  0  0  0  0  0  0  0  0
    0.9520    0.5567   -1.4960 N   0  0  0  0  0  0  0  0  0  0  0  0
    2.3056    0.2803   -1.8384 C   0  0  0  0  0  0  0  0  0  0  0  0
    3.3142    0.6991   -0.8469 C   0  0  0  0  0  0  0  0  0  0  0  0
    3.8444    1.9645   -0.7975 C   0  0  0  0  0  0  0  0  0  0  0  0
    4.7835    2.2496    0.1642 C   0  0  0  0  0  0  0  0  0  0  0  0
    5.2342    1.3373    1.0948 C   0  0  0  0  0  0  0  0  0  0  0  0
    4.7010    0.0707    1.0424 C   0  0  0  0  0  0  0  0  0  0  0  0
    3.7452   -0.2320    0.0689 C   0  0  0  0  0  0  0  0  0  0  0  0
    0.2097    1.6735   -1.7246 C   0  0  0  0  0  0  0  0  0  0  0  0
   -1.0280    1.5148   -1.2224 N   0  0  0  0  0  0  0  0  0  0  0  0
   -1.0858    0.3115   -0.6764 C   0  0  0  0  0  0  0  0  0  0  0  0
   -2.0845   -0.3803   -0.0281 C   0  0  0  0  0  0  0  0  0  0  0  0
   -1.9224   -1.6254    0.4558 N   0  0  0  0  0  0  0  0  0  0  0  0
   -3.3858    0.2970    0.1315 C   0  0  0  0  0  0  0  0  0  0  0  0
   -4.5396   -0.4139   -0.1397 C   0  0  0  0  0  0  0  0  0  0  0  0
   -5.7944    0.1319   -0.0195 C   0  0  0  0  0  0  0  0  0  0  0  0
   -5.9298    1.4404    0.3867 C   0  0  0  0  0  0  0  0  0  0  0  0
   -4.7760    2.1543    0.6588 C   0  0  0  0  0  0  0  0  0  0  0  0
   -3.5037    1.6066    0.5388 C   0  0  0  0  0  0  0  0  0  0  0  0
    0.8552   -4.8904   -0.1076 H   0  0  0  0  0  0  0  0  0  0  0  0
    1.4950   -4.0234    1.3143 H   0  0  0  0  0  0  0  0  0  0  0  0
    1.2137   -2.1098   -0.4312 H   0  0  0  0  0  0  0  0  0  0  0  0
    2.5350    0.8493   -2.7841 H   0  0  0  0  0  0  0  0  0  0  0  0
    2.4172   -0.8034   -2.0090 H   0  0  0  0  0  0  0  0  0  0  0  0
    3.4944    2.6811   -1.5238 H   0  0  0  0  0  0  0  0  0  0  0  0
    5.2049    3.2646    0.1994 H   0  0  0  0  0  0  0  0  0  0  0  0
    5.9842    1.6044    1.8454 H   0  0  0  0  0  0  0  0  0  0  0  0
    4.9940   -0.7098    1.7312 H   0  0  0  0  0  0  0  0  0  0  0  0
    3.3666   -1.2522    0.0792 H   0  0  0  0  0  0  0  0  0  0  0  0
    0.5680    2.5392   -2.2282 H   0  0  0  0  0  0  0  0  0  0  0  0
   -4.4399   -1.4435   -0.4596 H   0  0  0  0  0  0  0  0  0  0  0  0
   -6.6932   -0.4239   -0.2314 H   0  0  0  0  0  0  0  0  0  0  0  0
   -6.9154    1.9090    0.4936 H   0  0  0  0  0  0  0  0  0  0  0  0
   -4.9079    3.1781    0.9756 H   0  0  0  0  0  0  0  0  0  0  0  0
   -2.6066    2.1770    0.7552 H   0  0  0  0  0  0  0  0  0  0  0  0
  1  2  1  0
  2  3  2  0
  2  4  1  0
  4  5  2  0
  5  6  1  0
  6  7  1  0
  7  8  1  0
  8  9  1  0
  9 10  2  0
 10 11  1  0
 11 12  2  0
 12 13  1  0
 13 14  2  0
  7 15  1  0
 15 16  2  0
 16 17  1  0
 17 18  1  0
 18 19  2  0
 18 20  1  0
 20 21  2  0
 21 22  1  0
 22 23  2  0
 23 24  1  0
 24 25  2  0
 19  4  1  0
 25 20  1  0
 17  6  2  0
 14  9  1  0
  1 26  1  0
  1 27  1  0
  5 28  1  0
  8 29  1  0
  8 30  1  0
 10 31  1  0
 11 32  1  0
 12 33  1  0
 13 34  1  0
 14 35  1  0
 15 36  1  0
 21 37  1  0
 22 38  1  0
 23 39  1  0
 24 40  1  0
 25 41  1  0
M  END
$$$$
[H]OC([H])([H])C([H])([H])N1C([H])([H])C([H])([H])N(C([H])([H])c2c([H])c([H])c(N([H])C(=O)c3c([H])c([H])c(C#Cc4c(C([H])([H])[H])oc(N([H])C(=O)C([H])=C([H])[H])c4[H])c(F)c3[H])c([H])c2C(F)(F)F)C([H])([H])C1([H])[H]
     RDKit          3D

 73 76  0  0  0  0  0  0  0  0999 V2000
   -9.6966    2.7511    0.5721 O   0  0  0  0  0  0  0  0  0  0  0  0
  -10.4824    1.7681    1.0923 C   0  0  0  0  0  0  0  0  0  0  0  0
   -9.9596    0.4056    0.7288 C   0  0  0  0  0  0  0  0  0  0  0  0
   -8.5711    0.3904    1.2236 N   0  0  0  0  0  0  0  0  0  0  0  0
   -8.2811   -0.9429    1.6037 C   0  0  0  0  0  0  0  0  0  0  0  0
   -7.6788   -1.7820    0.4684 C   0  0  0  0  0  0  0  0  0  0  0  0
   -6.4155   -1.2394    0.1821 N   0  0  0  0  0  0  0  0  0  0  0  0
   -5.3053   -2.0550    0.3257 C   0  0  0  0  0  0  0  0  0  0  0  0
   -4.0434   -1.2650    0.1451 C   0  0  0  0  0  0  0  0  0  0  0  0
   -3.6451   -0.2975    1.0604 C   0  0  0  0  0  0  0  0  0  0  0  0
   -2.4414    0.3701    0.7939 C   0  0  0  0  0  0  0  0  0  0  0  0
   -1.7291    0.0956   -0.2759 C   0  0  0  0  0  0  0  0  0  0  0  0
   -0.4192    0.6700   -0.4160 N   0  0  0  0  0  0  0  0  0  0  0  0
    0.3268    0.7210   -1.5972 C   0  0  0  0  0  0  0  0  0  0  0  0
    0.0112    0.4426   -2.7455 O   0  0  0  0  0  0  0  0  0  0  0  0
    1.7736    1.1556   -1.3993 C   0  0  0  0  0  0  0  0  0  0  0  0
    2.6059    1.1322   -2.4924 C   0  0  0  0  0  0  0  0  0  0  0  0
    3.9954    1.1003   -2.2969 C   0  0  0  0  0  0  0  0  0  0  0  0
    4.4830    1.0858   -1.0363 C   0  0  0  0  0  0  0  0  0  0  0  0
    5.8293    0.7100   -0.7165 C   0  0  0  0  0  0  0  0  0  0  0  0
    6.8924    0.2891   -0.4202 C   0  0  0  0  0  0  0  0  0  0  0  0
    8.1296   -0.2849   -0.0276 C   0  0  0  0  0  0  0  0  0  0  0  0
    9.2437    0.4784    0.3201 C   0  0  0  0  0  0  0  0  0  0  0  0
   10.2103   -0.4769    0.6652 C   0  0  0  0  0  0  0  0  0  0  0  0
   11.5045   -0.0961    1.0722 N   0  0  0  0  0  0  0  0  0  0  0  0
   11.9391    1.2600    0.8669 C   0  0  0  0  0  0  0  0  0  0  0  0
   11.2234    2.0942    0.2866 O   0  0  0  0  0  0  0  0  0  0  0  0
   13.2325    1.7508    1.3123 C   0  0  0  0  0  0  0  0  0  0  0  0
   13.5622    2.9853    1.0252 C   0  0  0  0  0  0  0  0  0  0  0  0
    9.7039   -1.6787    0.5246 O   0  0  0  0  0  0  0  0  0  0  0  0
    8.4332   -1.5953    0.1006 C   0  0  0  0  0  0  0  0  0  0  0  0
    7.5693   -2.7775   -0.1605 C   0  0  0  0  0  0  0  0  0  0  0  0
    3.6259    1.1262    0.0582 C   0  0  0  0  0  0  0  0  0  0  0  0
    4.0673    1.1487    1.3323 F   0  0  0  0  0  0  0  0  0  0  0  0
    2.2595    1.1621   -0.1265 C   0  0  0  0  0  0  0  0  0  0  0  0
   -2.1087   -0.8866   -1.2128 C   0  0  0  0  0  0  0  0  0  0  0  0
   -3.3121   -1.5658   -0.9554 C   0  0  0  0  0  0  0  0  0  0  0  0
   -3.7524   -2.5619   -1.9410 C   0  0  0  0  0  0  0  0  0  0  0  0
   -3.8834   -3.8451   -1.5609 F   0  0  0  0  0  0  0  0  0  0  0  0
   -2.8591   -2.5464   -3.0108 F   0  0  0  0  0  0  0  0  0  0  0  0
   -4.9578   -2.1197   -2.5705 F   0  0  0  0  0  0  0  0  0  0  0  0
   -6.3370    0.1283    0.2083 C   0  0  0  0  0  0  0  0  0  0  0  0
   -7.7493    0.7669    0.0746 C   0  0  0  0  0  0  0  0  0  0  0  0
   -9.1057    3.0867    1.3345 H   0  0  0  0  0  0  0  0  0  0  0  0
  -10.4723    1.8056    2.2157 H   0  0  0  0  0  0  0  0  0  0  0  0
  -11.5547    1.8078    0.8157 H   0  0  0  0  0  0  0  0  0  0  0  0
   -9.9010    0.3556   -0.3920 H   0  0  0  0  0  0  0  0  0  0  0  0
  -10.5333   -0.4013    1.1527 H   0  0  0  0  0  0  0  0  0  0  0  0
   -7.5016   -0.8686    2.4274 H   0  0  0  0  0  0  0  0  0  0  0  0
   -9.1062   -1.4821    2.0239 H   0  0  0  0  0  0  0  0  0  0  0  0
   -7.5839   -2.8285    0.8813 H   0  0  0  0  0  0  0  0  0  0  0  0
   -8.4421   -1.7521   -0.3391 H   0  0  0  0  0  0  0  0  0  0  0  0
   -5.2619   -2.1572    1.5402 H   0  0  0  0  0  0  0  0  0  0  0  0
   -5.2873   -3.0941    0.0967 H   0  0  0  0  0  0  0  0  0  0  0  0
   -4.1771   -0.1100    1.9473 H   0  0  0  0  0  0  0  0  0  0  0  0
   -2.1815    1.1413    1.5619 H   0  0  0  0  0  0  0  0  0  0  0  0
   -0.0684    1.1296    0.4793 H   0  0  0  0  0  0  0  0  0  0  0  0
    2.1640    1.1618   -3.5004 H   0  0  0  0  0  0  0  0  0  0  0  0
    4.6530    1.0812   -3.1419 H   0  0  0  0  0  0  0  0  0  0  0  0
    9.2141    1.5205    0.3168 H   0  0  0  0  0  0  0  0  0  0  0  0
   12.1163   -0.7994    1.5046 H   0  0  0  0  0  0  0  0  0  0  0  0
   13.8984    1.0879    1.8877 H   0  0  0  0  0  0  0  0  0  0  0  0
   12.9366    3.6660    0.4719 H   0  0  0  0  0  0  0  0  0  0  0  0
   14.5112    3.3809    1.3954 H   0  0  0  0  0  0  0  0  0  0  0  0
    7.1175   -2.7924   -1.1632 H   0  0  0  0  0  0  0  0  0  0  0  0
    6.7104   -2.8121    0.5580 H   0  0  0  0  0  0  0  0  0  0  0  0
    8.1603   -3.7346   -0.0298 H   0  0  0  0  0  0  0  0  0  0  0  0
    1.6040    1.2069    0.7125 H   0  0  0  0  0  0  0  0  0  0  0  0
   -1.5008   -1.0834   -2.0454 H   0  0  0  0  0  0  0  0  0  0  0  0
   -5.8259    0.5031   -0.7145 H   0  0  0  0  0  0  0  0  0  0  0  0
   -5.9044    0.6460    1.0910 H   0  0  0  0  0  0  0  0  0  0  0  0
   -7.5288    1.8511    0.1474 H   0  0  0  0  0  0  0  0  0  0  0  0
   -8.1428    0.5121   -0.8850 H   0  0  0  0  0  0  0  0  0  0  0  0
  1  2  1  0
  2  3  1  0
  3  4  1  0
  4  5  1  0
  5  6  1  0
  6  7  1  0
  7  8  1  0
  8  9  1  0
  9 10  2  0
 10 11  1  0
 11 12  2  0
 12 13  1  0
 13 14  1  0
 14 15  2  0
 14 16  1  0
 16 17  2  0
 17 18  1  0
 18 19  2  0
 19 20  1  0
 20 21  3  0
 21 22  1  0
 22 23  1  0
 23 24  2  0
 24 25  1  0
 25 26  1  0
 26 27  2  0
 26 28  1  0
 28 29  2  3
 24 30  1  0
 30 31  1  0
 31 32  1  0
 19 33  1  0
 33 34  1  0
 33 35  2  0
 12 36  1  0
 36 37  2  0
 37 38  1  0
 38 39  1  0
 38 40  1  0
 38 41  1  0
  7 42  1  0
 42 43  1  0
 43  4  1  0
 37  9  1  0
 35 16  1  0
 31 22  2  0
  1 44  1  0
  2 45  1  0
  2 46  1  0
  3 47  1  0
  3 48  1  0
  5 49  1  0
  5 50  1  0
  6 51  1  0
  6 52  1  0
  8 53  1  0
  8 54  1  0
 10 55  1  0
 11 56  1  0
 13 57  1  0
 17 58  1  0
 18 59  1  0
 23 60  1  0
 25 61  1  0
 28 62  1  0
 29 63  1  0
 29 64  1  0
 32 65  1  0
 32 66  1  0
 32 67  1  0
 35 68  1  0
 36 69  1  0
 42 70  1  0
 42 71  1  0
 43 72  1  0
 43 73  1  0
M  END
$$$$
[H]c1nc(C(=O)N([H])C([H])([H])C([H])([H])[C@]([H])(C(=O)N([H])[H])N([H])C(=O)[C@@]([H])(N([H])C(=O)C2([H])C([H])([H])C([H])([H])N(C([H])([H])C([H])([H])[H])C([H])([H])C2([H])[H])C([H])(C([H])([H])[H])C([H])([H])[H])sc1C([H])([H])c1c([H])c([H])c(F)c([H])c1[H]
     RDKit          3D

 79 81  0  0  0  0  0  0  0  0999 V2000
   -9.4858   -1.5020   -1.1219 C   0  0  0  0  0  0  0  0  0  0  0  0
   -9.1579   -0.0543   -0.8269 C   0  0  0  0  0  0  0  0  0  0  0  0
   -7.9030   -0.0194   -0.0959 N   0  0  0  0  0  0  0  0  0  0  0  0
   -7.5074    1.3430    0.1992 C   0  0  0  0  0  0  0  0  0  0  0  0
   -6.7673    1.4720    1.4863 C   0  0  0  0  0  0  0  0  0  0  0  0
   -5.8494    0.3290    1.7725 C   0  0  0  0  0  0  0  0  0  0  0  0
   -6.6213   -0.9594    1.7310 C   0  0  0  0  0  0  0  0  0  0  0  0
   -7.9697   -0.8384    1.0739 C   0  0  0  0  0  0  0  0  0  0  0  0
   -4.6727    0.2926    0.8564 C   0  0  0  0  0  0  0  0  0  0  0  0
   -4.6518    1.1433   -0.0413 O   0  0  0  0  0  0  0  0  0  0  0  0
   -3.6741   -0.6570    1.0278 N   0  0  0  0  0  0  0  0  0  0  0  0
   -2.4698   -0.8825    0.2655 C   0  0  1  0  0  0  0  0  0  0  0  0
   -2.7334   -0.7573   -1.2297 C   0  0  0  0  0  0  0  0  0  0  0  0
   -1.5256   -1.0065   -2.0830 C   0  0  0  0  0  0  0  0  0  0  0  0
   -3.8149   -1.7163   -1.6493 C   0  0  0  0  0  0  0  0  0  0  0  0
   -1.3867    0.0330    0.7195 C   0  0  0  0  0  0  0  0  0  0  0  0
   -1.7140    0.9817    1.4996 O   0  0  0  0  0  0  0  0  0  0  0  0
   -0.0242   -0.0683    0.3503 N   0  0  0  0  0  0  0  0  0  0  0  0
    1.0106    0.8433    0.7562 C   0  0  2  0  0  0  0  0  0  0  0  0
    1.6820    0.5374    2.0515 C   0  0  0  0  0  0  0  0  0  0  0  0
    2.3558   -0.8161    1.9888 C   0  0  0  0  0  0  0  0  0  0  0  0
    3.3513   -0.9259    0.9718 N   0  0  0  0  0  0  0  0  0  0  0  0
    4.4764   -0.0736    0.9608 C   0  0  0  0  0  0  0  0  0  0  0  0
    4.6410    0.8054    1.8342 O   0  0  0  0  0  0  0  0  0  0  0  0
    5.5271   -0.1567   -0.0737 C   0  0  0  0  0  0  0  0  0  0  0  0
    5.6638   -0.9906   -1.0842 N   0  0  0  0  0  0  0  0  0  0  0  0
    6.6793   -0.8923   -1.8803 C   0  0  0  0  0  0  0  0  0  0  0  0
    7.5952    0.0921   -1.6426 C   0  0  0  0  0  0  0  0  0  0  0  0
    8.8399    0.4406   -2.3737 C   0  0  0  0  0  0  0  0  0  0  0  0
    9.9970   -0.0496   -1.6093 C   0  0  0  0  0  0  0  0  0  0  0  0
   10.5263    0.8008   -0.6371 C   0  0  0  0  0  0  0  0  0  0  0  0
   11.6130    0.3925    0.1036 C   0  0  0  0  0  0  0  0  0  0  0  0
   12.1741   -0.8413   -0.1111 C   0  0  0  0  0  0  0  0  0  0  0  0
   13.2587   -1.2167    0.6416 F   0  0  0  0  0  0  0  0  0  0  0  0
   11.6301   -1.6672   -1.0817 C   0  0  0  0  0  0  0  0  0  0  0  0
   10.5488   -1.2849   -1.8322 C   0  0  0  0  0  0  0  0  0  0  0  0
    6.9266    0.8410   -0.2496 S   0  0  0  0  0  0  0  0  0  0  0  0
    0.6280    2.2729    0.7238 C   0  0  0  0  0  0  0  0  0  0  0  0
    1.2832    3.1722    1.5979 N   0  0  0  0  0  0  0  0  0  0  0  0
   -0.2477    2.6926   -0.0488 O   0  0  0  0  0  0  0  0  0  0  0  0
  -10.0308   -1.8901   -0.2377 H   0  0  0  0  0  0  0  0  0  0  0  0
  -10.0907   -1.5978   -2.0569 H   0  0  0  0  0  0  0  0  0  0  0  0
   -8.5154   -2.0551   -1.2433 H   0  0  0  0  0  0  0  0  0  0  0  0
   -9.1025    0.5047   -1.7743 H   0  0  0  0  0  0  0  0  0  0  0  0
   -9.9857    0.3817   -0.2234 H   0  0  0  0  0  0  0  0  0  0  0  0
   -6.9376    1.7241   -0.6720 H   0  0  0  0  0  0  0  0  0  0  0  0
   -8.4226    1.9968    0.2455 H   0  0  0  0  0  0  0  0  0  0  0  0
   -7.5330    1.4642    2.3207 H   0  0  0  0  0  0  0  0  0  0  0  0
   -6.2427    2.4571    1.4816 H   0  0  0  0  0  0  0  0  0  0  0  0
   -5.4209    0.5147    2.7889 H   0  0  0  0  0  0  0  0  0  0  0  0
   -6.0578   -1.7858    1.2551 H   0  0  0  0  0  0  0  0  0  0  0  0
   -6.7837   -1.2780    2.7961 H   0  0  0  0  0  0  0  0  0  0  0  0
   -8.7651   -0.5323    1.7940 H   0  0  0  0  0  0  0  0  0  0  0  0
   -8.2523   -1.8696    0.7568 H   0  0  0  0  0  0  0  0  0  0  0  0
   -3.8255   -1.3269    1.8645 H   0  0  0  0  0  0  0  0  0  0  0  0
   -2.1424   -1.9209    0.4044 H   0  0  0  0  0  0  0  0  0  0  0  0
   -3.0922    0.2638   -1.5059 H   0  0  0  0  0  0  0  0  0  0  0  0
   -1.9263   -1.0942   -3.1431 H   0  0  0  0  0  0  0  0  0  0  0  0
   -0.8285   -0.1699   -2.1313 H   0  0  0  0  0  0  0  0  0  0  0  0
   -1.1056   -1.9929   -1.8751 H   0  0  0  0  0  0  0  0  0  0  0  0
   -3.7399   -1.9581   -2.7510 H   0  0  0  0  0  0  0  0  0  0  0  0
   -4.8326   -1.3471   -1.4717 H   0  0  0  0  0  0  0  0  0  0  0  0
   -3.7330   -2.7119   -1.1599 H   0  0  0  0  0  0  0  0  0  0  0  0
    0.3026   -0.8786   -0.2447 H   0  0  0  0  0  0  0  0  0  0  0  0
    1.8526    0.8183   -0.0439 H   0  0  0  0  0  0  0  0  0  0  0  0
    2.3505    1.3692    2.2841 H   0  0  0  0  0  0  0  0  0  0  0  0
    0.9295    0.5355    2.8975 H   0  0  0  0  0  0  0  0  0  0  0  0
    2.8902   -1.0182    2.9652 H   0  0  0  0  0  0  0  0  0  0  0  0
    1.6188   -1.6346    1.8785 H   0  0  0  0  0  0  0  0  0  0  0  0
    3.2426   -1.6536    0.2121 H   0  0  0  0  0  0  0  0  0  0  0  0
    6.8256   -1.5810   -2.7428 H   0  0  0  0  0  0  0  0  0  0  0  0
    8.8570   -0.1028   -3.3561 H   0  0  0  0  0  0  0  0  0  0  0  0
    8.9241    1.5295   -2.5618 H   0  0  0  0  0  0  0  0  0  0  0  0
   10.0628    1.7717   -0.4919 H   0  0  0  0  0  0  0  0  0  0  0  0
   12.0184    1.0586    0.8572 H   0  0  0  0  0  0  0  0  0  0  0  0
   12.0576   -2.6337   -1.2652 H   0  0  0  0  0  0  0  0  0  0  0  0
   10.1179   -1.9434   -2.6042 H   0  0  0  0  0  0  0  0  0  0  0  0
    1.9243    3.8796    1.1858 H   0  0  0  0  0  0  0  0  0  0  0  0
    1.1606    3.1703    2.6282 H   0  0  0  0  0  0  0  0  0  0  0  0
  1  2  1  0
  2  3  1  0
  3  4  1  0
  4  5  1  0
  5  6  1  0
  6  7  1  0
  7  8  1  0
  6  9  1  0
  9 10  2  0
  9 11  1  0
 11 12  1  0
 12 13  1  0
 13 14  1  0
 13 15  1  0
 12 16  1  0
 16 17  2  0
 16 18  1  0
 18 19  1  0
 19 20  1  0
 20 21  1  0
 21 22  1  0
 22 23  1  0
 23 24  2  0
 23 25  1  0
 25 26  2  0
 26 27  1  0
 27 28  2  0
 28 29  1  0
 29 30  1  0
 30 31  2  0
 31 32  1  0
 32 33  2  0
 33 34  1  0
 33 35  1  0
 35 36  2  0
 28 37  1  0
 19 38  1  0
 38 39  1  0
 38 40  2  0
  8  3  1  0
 37 25  1  0
 36 30  1  0
  1 41  1  0
  1 42  1  0
  1 43  1  0
  2 44  1  0
  2 45  1  0
  4 46  1  0
  4 47  1  0
  5 48  1  0
  5 49  1  0
  6 50  1  0
  7 51  1  0
  7 52  1  0
  8 53  1  0
  8 54  1  0
 11 55  1  0
 12 56  1  6
 13 57  1  0
 14 58  1  0
 14 59  1  0
 14 60  1  0
 15 61  1  0
 15 62  1  0
 15 63  1  0
 18 64  1  0
 19 65  1  6
 20 66  1  0
 20 67  1  0
 21 68  1  0
 21 69  1  0
 22 70  1  0
 27 71  1  0
 29 72  1  0
 29 73  1  0
 31 74  1  0
 32 75  1  0
 35 76  1  0
 36 77  1  0
 39 78  1  0
 39 79  1  0
M  END
$$$$
[H]c1c([H])c(C([H])([H])C([H])([H])C(C([H])([H])[H])(C([H])([H])[H])C([H])([H])[H])c([H])c([H])c1-n1nnnc1[H]
     RDKit          3D

 35 36  0  0  0  0  0  0  0  0999 V2000
   -3.6682    0.6917    0.8833 C   0  0  0  0  0  0  0  0  0  0  0  0
   -3.0595    0.0209   -0.3072 C   0  0  0  0  0  0  0  0  0  0  0  0
   -3.6280    0.7277   -1.5476 C   0  0  0  0  0  0  0  0  0  0  0  0
   -3.4766   -1.4316   -0.4367 C   0  0  0  0  0  0  0  0  0  0  0  0
   -1.5672    0.1669   -0.3903 C   0  0  0  0  0  0  0  0  0  0  0  0
   -0.8439   -0.4105    0.7933 C   0  0  0  0  0  0  0  0  0  0  0  0
    0.5997   -0.2079    0.5971 C   0  0  0  0  0  0  0  0  0  0  0  0
    1.2157    0.9269    1.0534 C   0  0  0  0  0  0  0  0  0  0  0  0
    2.5824    1.1311    0.8740 C   0  0  0  0  0  0  0  0  0  0  0  0
    3.3242    0.1812    0.2302 C   0  0  0  0  0  0  0  0  0  0  0  0
    2.7099   -0.9558   -0.2277 C   0  0  0  0  0  0  0  0  0  0  0  0
    1.3414   -1.1566   -0.0462 C   0  0  0  0  0  0  0  0  0  0  0  0
    4.7312    0.3430    0.0205 N   0  0  0  0  0  0  0  0  0  0  0  0
    5.7157   -0.5600    0.2040 C   0  0  0  0  0  0  0  0  0  0  0  0
    6.9005    0.0090   -0.1132 N   0  0  0  0  0  0  0  0  0  0  0  0
    6.6439    1.2466   -0.4868 N   0  0  0  0  0  0  0  0  0  0  0  0
    5.3475    1.4524   -0.4089 N   0  0  0  0  0  0  0  0  0  0  0  0
   -3.0699    0.6674    1.7906 H   0  0  0  0  0  0  0  0  0  0  0  0
   -3.9111    1.7737    0.6810 H   0  0  0  0  0  0  0  0  0  0  0  0
   -4.6550    0.1984    1.0704 H   0  0  0  0  0  0  0  0  0  0  0  0
   -4.6723    1.0015   -1.3200 H   0  0  0  0  0  0  0  0  0  0  0  0
   -3.5146    0.1052   -2.4460 H   0  0  0  0  0  0  0  0  0  0  0  0
   -3.0624    1.6679   -1.7021 H   0  0  0  0  0  0  0  0  0  0  0  0
   -3.7717   -1.8763    0.5280 H   0  0  0  0  0  0  0  0  0  0  0  0
   -4.3528   -1.5403   -1.1159 H   0  0  0  0  0  0  0  0  0  0  0  0
   -2.6336   -1.9576   -0.9308 H   0  0  0  0  0  0  0  0  0  0  0  0
   -1.2792    1.2078   -0.5333 H   0  0  0  0  0  0  0  0  0  0  0  0
   -1.2315   -0.3953   -1.2863 H   0  0  0  0  0  0  0  0  0  0  0  0
   -1.1204    0.0687    1.7521 H   0  0  0  0  0  0  0  0  0  0  0  0
   -1.0219   -1.4916    0.9183 H   0  0  0  0  0  0  0  0  0  0  0  0
    0.6762    1.7167    1.5727 H   0  0  0  0  0  0  0  0  0  0  0  0
    3.0367    2.0338    1.2444 H   0  0  0  0  0  0  0  0  0  0  0  0
    3.2795   -1.7057   -0.7326 H   0  0  0  0  0  0  0  0  0  0  0  0
    0.9219   -2.0834   -0.4363 H   0  0  0  0  0  0  0  0  0  0  0  0
    5.5135   -1.5658    0.5534 H   0  0  0  0  0  0  0  0  0  0  0  0
  1  2  1  0
  2  3  1  0
  2  4  1  0
  2  5  1  0
  5  6  1  0
  6  7  1  0
  7  8  2  0
  8  9  1  0
  9 10  2  0
 10 11  1  0
 11 12  2  0
 10 13  1  0
 13 14  1  0
 14 15  2  0
 15 16  1  0
 16 17  2  0
 12  7  1  0
 17 13  1  0
  1 18  1  0
  1 19  1  0
  1 20  1  0
  3 21  1  0
  3 22  1  0
  3 23  1  0
  4 24  1  0
  4 25  1  0
  4 26  1  0
  5 27  1  0
  5 28  1  0
  6 29  1  0
  6 30  1  0
  8 31  1  0
  9 32  1  0
 11 33  1  0
 12 34  1  0
 14 35  1  0
M  END
$$$$
[H]c1nc(Cl)c(-c2noc(C([H])(C#N)c3c([H])c([H])c([H])c(O[C@]([H])(c4c([H])c([H])c([H])c([H])c4[H])C([H])([H])[H])c3[H])n2)c([H])c1[H]
     RDKit          3D

 47 50  0  0  0  0  0  0  0  0999 V2000
    1.9284   -1.0223    2.4079 C   0  0  0  0  0  0  0  0  0  0  0  0
    2.3159   -0.1576    1.2010 C   0  0  2  0  0  0  0  0  0  0  0  0
    2.4269   -1.0178    0.1066 O   0  0  0  0  0  0  0  0  0  0  0  0
    1.6627   -0.9100   -1.0345 C   0  0  0  0  0  0  0  0  0  0  0  0
    1.8863   -1.8480   -2.0529 C   0  0  0  0  0  0  0  0  0  0  0  0
    1.1810   -1.8298   -3.2272 C   0  0  0  0  0  0  0  0  0  0  0  0
    0.2104   -0.8851   -3.4712 C   0  0  0  0  0  0  0  0  0  0  0  0
   -0.0051    0.0332   -2.4683 C   0  0  0  0  0  0  0  0  0  0  0  0
    0.6975    0.0343   -1.2698 C   0  0  0  0  0  0  0  0  0  0  0  0
   -1.0607    1.0697   -2.7199 C   0  0  0  0  0  0  0  0  0  0  0  0
   -1.1961    1.2879   -4.1653 C   0  0  0  0  0  0  0  0  0  0  0  0
   -1.3022    1.4743   -5.3033 N   0  0  0  0  0  0  0  0  0  0  0  0
   -2.3401    0.4703   -2.1975 C   0  0  0  0  0  0  0  0  0  0  0  0
   -2.8303    0.5833   -0.9427 N   0  0  0  0  0  0  0  0  0  0  0  0
   -3.9911   -0.0826   -0.8447 C   0  0  0  0  0  0  0  0  0  0  0  0
   -4.1956   -0.6019   -2.0649 N   0  0  0  0  0  0  0  0  0  0  0  0
   -3.2122   -0.2639   -2.8439 O   0  0  0  0  0  0  0  0  0  0  0  0
   -4.8971   -0.2618    0.2791 C   0  0  0  0  0  0  0  0  0  0  0  0
   -4.6474    0.2942    1.5235 C   0  0  0  0  0  0  0  0  0  0  0  0
   -5.5380    0.0955    2.5588 C   0  0  0  0  0  0  0  0  0  0  0  0
   -6.6920   -0.6475    2.4107 C   0  0  0  0  0  0  0  0  0  0  0  0
   -6.9146   -1.1806    1.1865 N   0  0  0  0  0  0  0  0  0  0  0  0
   -6.0565   -0.9982    0.1610 C   0  0  0  0  0  0  0  0  0  0  0  0
   -6.3907   -1.7143   -1.4182 Cl  0  0  0  0  0  0  0  0  0  0  0  0
    3.6040    0.5461    1.4853 C   0  0  0  0  0  0  0  0  0  0  0  0
    4.3406    1.1001    0.4739 C   0  0  0  0  0  0  0  0  0  0  0  0
    5.5327    1.7538    0.7183 C   0  0  0  0  0  0  0  0  0  0  0  0
    5.9976    1.8541    2.0117 C   0  0  0  0  0  0  0  0  0  0  0  0
    5.2880    1.3124    3.0471 C   0  0  0  0  0  0  0  0  0  0  0  0
    4.0954    0.6626    2.7704 C   0  0  0  0  0  0  0  0  0  0  0  0
    1.1250   -1.6905    2.0448 H   0  0  0  0  0  0  0  0  0  0  0  0
    2.7880   -1.6342    2.7143 H   0  0  0  0  0  0  0  0  0  0  0  0
    1.5615   -0.4100    3.2369 H   0  0  0  0  0  0  0  0  0  0  0  0
    1.5618    0.6402    1.1060 H   0  0  0  0  0  0  0  0  0  0  0  0
    2.6452   -2.6069   -1.8922 H   0  0  0  0  0  0  0  0  0  0  0  0
    1.3857   -2.5717   -3.9852 H   0  0  0  0  0  0  0  0  0  0  0  0
   -0.3615   -0.8451   -4.3856 H   0  0  0  0  0  0  0  0  0  0  0  0
    0.4796    0.7770   -0.5331 H   0  0  0  0  0  0  0  0  0  0  0  0
   -0.7992    1.9837   -2.1777 H   0  0  0  0  0  0  0  0  0  0  0  0
   -3.7375    0.8752    1.6253 H   0  0  0  0  0  0  0  0  0  0  0  0
   -5.3376    0.5307    3.5235 H   0  0  0  0  0  0  0  0  0  0  0  0
   -7.3884   -0.8018    3.2236 H   0  0  0  0  0  0  0  0  0  0  0  0
    3.9552    1.0097   -0.5414 H   0  0  0  0  0  0  0  0  0  0  0  0
    6.0591    2.1653   -0.1246 H   0  0  0  0  0  0  0  0  0  0  0  0
    6.9451    2.3725    2.2148 H   0  0  0  0  0  0  0  0  0  0  0  0
    5.6745    1.4055    4.0468 H   0  0  0  0  0  0  0  0  0  0  0  0
    3.5457    0.2412    3.5863 H   0  0  0  0  0  0  0  0  0  0  0  0
  1  2  1  0
  2  3  1  0
  3  4  1  0
  4  5  2  0
  5  6  1  0
  6  7  2  0
  7  8  1  0
  8  9  2  0
  8 10  1  0
 10 11  1  0
 11 12  3  0
 10 13  1  0
 13 14  2  0
 14 15  1  0
 15 16  2  0
 16 17  1  0
 15 18  1  0
 18 19  2  0
 19 20  1  0
 20 21  2  0
 21 22  1  0
 22 23  2  0
 23 24  1  0
  2 25  1  0
 25 26  2  0
 26 27  1  0
 27 28  2  0
 28 29  1  0
 29 30  2  0
  9  4  1  0
 17 13  1  0
 23 18  1  0
 30 25  1  0
  1 31  1  0
  1 32  1  0
  1 33  1  0
  2 34  1  6
  5 35  1  0
  6 36  1  0
  7 37  1  0
  9 38  1  0
 10 39  1  0
 19 40  1  0
 20 41  1  0
 21 42  1  0
 26 43  1  0
 27 44  1  0
 28 45  1  0
 29 46  1  0
 30 47  1  0
M  END
$$$$
[H]OP(=O)(O[H])C([H])(SC([H])([H])C([H])([H])C([H])([H])c1c([H])c([H])c(F)c([H])c1[H])C([H])([H])P(=O)(O[H])C([H])([H])C([H])([H])C(=O)N([H])C1([H])C([H])([H])C1([H])[H]
     RDKit          3D

 54 55  0  0  0  0  0  0  0  0999 V2000
   -2.0695    1.2132   -3.0911 O   0  0  0  0  0  0  0  0  0  0  0  0
   -0.7558    0.2010   -3.0230 P   0  0  0  0  0  0  0  0  0  0  0  0
   -0.9439   -1.1979   -3.9361 O   0  0  0  0  0  0  0  0  0  0  0  0
    0.4671    0.9329   -3.5469 O   0  0  0  0  0  0  0  0  0  0  0  0
   -0.3473   -0.3118   -1.3140 C   0  0  0  0  0  0  0  0  0  0  0  0
   -1.3676   -1.7577   -0.8267 S   0  0  0  0  0  0  0  0  0  0  0  0
   -3.0851   -1.1916   -0.8611 C   0  0  0  0  0  0  0  0  0  0  0  0
   -4.0685   -2.2211   -0.3646 C   0  0  0  0  0  0  0  0  0  0  0  0
   -5.4451   -1.6326   -0.4879 C   0  0  0  0  0  0  0  0  0  0  0  0
   -5.6929   -0.3922    0.2149 C   0  0  0  0  0  0  0  0  0  0  0  0
   -5.5171    0.8268   -0.4096 C   0  0  0  0  0  0  0  0  0  0  0  0
   -5.7525    2.0121    0.2634 C   0  0  0  0  0  0  0  0  0  0  0  0
   -6.1635    1.9963    1.5559 C   0  0  0  0  0  0  0  0  0  0  0  0
   -6.4040    3.1396    2.2594 F   0  0  0  0  0  0  0  0  0  0  0  0
   -6.3571    0.8063    2.2318 C   0  0  0  0  0  0  0  0  0  0  0  0
   -6.1057   -0.3742    1.5125 C   0  0  0  0  0  0  0  0  0  0  0  0
    1.1027   -0.7185   -1.3540 C   0  0  0  0  0  0  0  0  0  0  0  0
    1.7448   -1.2832    0.2422 P   0  0  0  0  0  0  0  0  0  0  0  0
    1.4045   -0.1806    1.4320 O   0  0  0  0  0  0  0  0  0  0  0  0
    0.9736   -2.5672    0.5671 O   0  0  0  0  0  0  0  0  0  0  0  0
    3.4909   -1.6418    0.1634 C   0  0  0  0  0  0  0  0  0  0  0  0
    4.4194   -0.9379    1.0495 C   0  0  0  0  0  0  0  0  0  0  0  0
    4.4668    0.5743    0.8798 C   0  0  0  0  0  0  0  0  0  0  0  0
    3.5475    1.0276    0.1766 O   0  0  0  0  0  0  0  0  0  0  0  0
    5.4535    1.3045    1.4727 N   0  0  0  0  0  0  0  0  0  0  0  0
    6.4581    2.0480    2.0763 C   0  0  0  0  0  0  0  0  0  0  0  0
    7.8125    2.0399    1.3314 C   0  0  0  0  0  0  0  0  0  0  0  0
    7.6627    1.3803    2.6892 C   0  0  0  0  0  0  0  0  0  0  0  0
   -2.1167    1.7414   -2.2374 H   0  0  0  0  0  0  0  0  0  0  0  0
   -0.1917   -1.8136   -3.7787 H   0  0  0  0  0  0  0  0  0  0  0  0
   -0.5245    0.5231   -0.6137 H   0  0  0  0  0  0  0  0  0  0  0  0
   -3.3521   -0.9852   -1.9224 H   0  0  0  0  0  0  0  0  0  0  0  0
   -3.1425   -0.3144   -0.1998 H   0  0  0  0  0  0  0  0  0  0  0  0
   -4.0383   -3.1591   -0.9858 H   0  0  0  0  0  0  0  0  0  0  0  0
   -3.8487   -2.5560    0.6607 H   0  0  0  0  0  0  0  0  0  0  0  0
   -6.2016   -2.3807   -0.1052 H   0  0  0  0  0  0  0  0  0  0  0  0
   -5.7170   -1.5184   -1.5811 H   0  0  0  0  0  0  0  0  0  0  0  0
   -5.1895    0.8383   -1.4212 H   0  0  0  0  0  0  0  0  0  0  0  0
   -5.6179    2.9792   -0.2091 H   0  0  0  0  0  0  0  0  0  0  0  0
   -6.6844    0.7941    3.2507 H   0  0  0  0  0  0  0  0  0  0  0  0
   -6.2584   -1.2945    2.0577 H   0  0  0  0  0  0  0  0  0  0  0  0
    1.2154   -1.5596   -2.0925 H   0  0  0  0  0  0  0  0  0  0  0  0
    1.7624    0.0712   -1.7373 H   0  0  0  0  0  0  0  0  0  0  0  0
    0.5024    0.2281    1.2279 H   0  0  0  0  0  0  0  0  0  0  0  0
    3.8894   -1.5301   -0.8971 H   0  0  0  0  0  0  0  0  0  0  0  0
    3.6286   -2.7636    0.3776 H   0  0  0  0  0  0  0  0  0  0  0  0
    5.4548   -1.2866    0.8404 H   0  0  0  0  0  0  0  0  0  0  0  0
    4.2560   -1.1460    2.1329 H   0  0  0  0  0  0  0  0  0  0  0  0
    4.9129    2.4391    0.9479 H   0  0  0  0  0  0  0  0  0  0  0  0
    6.2501    3.1136    2.4427 H   0  0  0  0  0  0  0  0  0  0  0  0
    8.4106    2.9544    1.3065 H   0  0  0  0  0  0  0  0  0  0  0  0
    7.8849    1.3916    0.4231 H   0  0  0  0  0  0  0  0  0  0  0  0
    8.1040    1.8737    3.5717 H   0  0  0  0  0  0  0  0  0  0  0  0
    7.6832    0.2657    2.6532 H   0  0  0  0  0  0  0  0  0  0  0  0
  1  2  1  0
  2  3  1  0
  2  4  2  0
  2  5  1  0
  5  6  1  0
  6  7  1  0
  7  8  1  0
  8  9  1  0
  9 10  1  0
 10 11  2  0
 11 12  1  0
 12 13  2  0
 13 14  1  0
 13 15  1  0
 15 16  2  0
  5 17  1  0
 17 18  1  0
 18 19  1  0
 18 20  2  0
 18 21  1  0
 21 22  1  0
 22 23  1  0
 23 24  2  0
 23 25  1  0
 25 26  1  0
 26 27  1  0
 27 28  1  0
 16 10  1  0
 28 26  1  0
  1 29  1  0
  3 30  1  0
  5 31  1  0
  7 32  1  0
  7 33  1  0
  8 34  1  0
  8 35  1  0
  9 36  1  0
  9 37  1  0
 11 38  1  0
 12 39  1  0
 15 40  1  0
 16 41  1  0
 17 42  1  0
 17 43  1  0
 19 44  1  0
 21 45  1  0
 21 46  1  0
 22 47  1  0
 22 48  1  0
 25 49  1  0
 26 50  1  0
 27 51  1  0
 27 52  1  0
 28 53  1  0
 28 54  1  0
M  END
$$$$
[H]c1nc(N([H])c2c([H])c([H])c(OC([H])([H])C3([H])N(C([H])([H])C([H])([H])[H])C([H])([H])C([H])([H])N([H])C3([H])[H])c(OC([H])([H])[H])c2[H])nc(-c2c([H])c([H])c(N([H])C(=O)N([H])c3c([H])nc(C([H])([H])[H])c([H])c3[H])c(OC([H])([H])[H])c2[H])c1[H]
     RDKit          3D

 82 86  0  0  0  0  0  0  0  0999 V2000
  -11.0838   -0.7817   -0.4433 C   0  0  0  0  0  0  0  0  0  0  0  0
  -10.5250    0.2484    0.4903 C   0  0  0  0  0  0  0  0  0  0  0  0
   -9.2481   -0.0096    1.0584 N   0  0  0  0  0  0  0  0  0  0  0  0
   -9.0146    1.0545    2.0716 C   0  0  0  0  0  0  0  0  0  0  0  0
   -8.2108    2.1875    1.5367 C   0  0  0  0  0  0  0  0  0  0  0  0
   -8.3871    2.4746    0.1448 N   0  0  0  0  0  0  0  0  0  0  0  0
   -8.2004    1.3009   -0.6883 C   0  0  0  0  0  0  0  0  0  0  0  0
   -8.1016    0.0596    0.2088 C   0  0  0  0  0  0  0  0  0  0  0  0
   -7.7938   -1.0991   -0.6558 C   0  0  0  0  0  0  0  0  0  0  0  0
   -6.6419   -0.9786   -1.4266 O   0  0  0  0  0  0  0  0  0  0  0  0
   -5.3271   -0.8895   -1.0903 C   0  0  0  0  0  0  0  0  0  0  0  0
   -4.7951   -0.9474    0.1693 C   0  0  0  0  0  0  0  0  0  0  0  0
   -3.4287   -0.8384    0.3914 C   0  0  0  0  0  0  0  0  0  0  0  0
   -2.5339   -0.6688   -0.6322 C   0  0  0  0  0  0  0  0  0  0  0  0
   -1.1318   -0.5773   -0.4949 N   0  0  0  0  0  0  0  0  0  0  0  0
   -0.3376   -1.0128    0.5929 C   0  0  0  0  0  0  0  0  0  0  0  0
   -0.8198   -1.6057    1.6752 N   0  0  0  0  0  0  0  0  0  0  0  0
   -0.0990   -2.0242    2.7153 C   0  0  0  0  0  0  0  0  0  0  0  0
    1.2816   -1.8163    2.6506 C   0  0  0  0  0  0  0  0  0  0  0  0
    1.8226   -1.2088    1.5548 C   0  0  0  0  0  0  0  0  0  0  0  0
    1.0140   -0.8262    0.5646 N   0  0  0  0  0  0  0  0  0  0  0  0
    3.2613   -0.9780    1.4729 C   0  0  0  0  0  0  0  0  0  0  0  0
    3.7965   -0.3516    0.3616 C   0  0  0  0  0  0  0  0  0  0  0  0
    5.1721   -0.1072    0.2470 C   0  0  0  0  0  0  0  0  0  0  0  0
    6.0630   -0.4690    1.2168 C   0  0  0  0  0  0  0  0  0  0  0  0
    7.4602   -0.2491    1.1718 N   0  0  0  0  0  0  0  0  0  0  0  0
    8.2342    0.3539    0.1832 C   0  0  0  0  0  0  0  0  0  0  0  0
    7.7228    0.7995   -0.8604 O   0  0  0  0  0  0  0  0  0  0  0  0
    9.6316    0.4697    0.3556 N   0  0  0  0  0  0  0  0  0  0  0  0
   10.5535    1.0484   -0.5624 C   0  0  0  0  0  0  0  0  0  0  0  0
   10.3400    1.1684   -1.9108 C   0  0  0  0  0  0  0  0  0  0  0  0
   11.2570    1.7651   -2.7538 C   0  0  0  0  0  0  0  0  0  0  0  0
   12.4228    2.2496   -2.1959 C   0  0  0  0  0  0  0  0  0  0  0  0
   13.4263    2.8959   -3.0799 C   0  0  0  0  0  0  0  0  0  0  0  0
   12.6308    2.1291   -0.8665 N   0  0  0  0  0  0  0  0  0  0  0  0
   11.7584    1.5608   -0.0575 C   0  0  0  0  0  0  0  0  0  0  0  0
    5.5061   -1.1050    2.3406 C   0  0  0  0  0  0  0  0  0  0  0  0
    6.3544   -1.4923    3.3487 O   0  0  0  0  0  0  0  0  0  0  0  0
    5.8479   -2.1330    4.4957 C   0  0  0  0  0  0  0  0  0  0  0  0
    4.1565   -1.3417    2.4470 C   0  0  0  0  0  0  0  0  0  0  0  0
   -3.0721   -0.6089   -1.9285 C   0  0  0  0  0  0  0  0  0  0  0  0
   -4.4111   -0.7150   -2.1451 C   0  0  0  0  0  0  0  0  0  0  0  0
   -4.8937   -0.6486   -3.4493 O   0  0  0  0  0  0  0  0  0  0  0  0
   -3.9760   -0.4708   -4.5071 C   0  0  0  0  0  0  0  0  0  0  0  0
  -12.2144   -0.8069   -0.2912 H   0  0  0  0  0  0  0  0  0  0  0  0
  -10.6717   -1.7982   -0.2528 H   0  0  0  0  0  0  0  0  0  0  0  0
  -10.8608   -0.5273   -1.4962 H   0  0  0  0  0  0  0  0  0  0  0  0
  -10.6133    1.2330   -0.0338 H   0  0  0  0  0  0  0  0  0  0  0  0
  -11.2540    0.3462    1.3601 H   0  0  0  0  0  0  0  0  0  0  0  0
   -8.4500    0.5852    2.9074 H   0  0  0  0  0  0  0  0  0  0  0  0
  -10.0075    1.3616    2.4401 H   0  0  0  0  0  0  0  0  0  0  0  0
   -7.1258    2.0819    1.7528 H   0  0  0  0  0  0  0  0  0  0  0  0
   -8.5080    3.1286    2.0859 H   0  0  0  0  0  0  0  0  0  0  0  0
   -7.7381    3.2201   -0.1232 H   0  0  0  0  0  0  0  0  0  0  0  0
   -9.0708    1.1359   -1.3499 H   0  0  0  0  0  0  0  0  0  0  0  0
   -7.2938    1.4468   -1.2816 H   0  0  0  0  0  0  0  0  0  0  0  0
   -7.2266    0.2374    0.9012 H   0  0  0  0  0  0  0  0  0  0  0  0
   -7.6992   -2.0564   -0.0674 H   0  0  0  0  0  0  0  0  0  0  0  0
   -8.6657   -1.3000   -1.3437 H   0  0  0  0  0  0  0  0  0  0  0  0
   -5.4465   -1.1056    1.0328 H   0  0  0  0  0  0  0  0  0  0  0  0
   -3.0986   -0.8794    1.4207 H   0  0  0  0  0  0  0  0  0  0  0  0
   -0.5809   -0.1242   -1.2946 H   0  0  0  0  0  0  0  0  0  0  0  0
   -0.5320   -2.5062    3.5833 H   0  0  0  0  0  0  0  0  0  0  0  0
    1.8252   -2.1657    3.5040 H   0  0  0  0  0  0  0  0  0  0  0  0
    3.1281   -0.0468   -0.4332 H   0  0  0  0  0  0  0  0  0  0  0  0
    5.5299    0.3939   -0.6606 H   0  0  0  0  0  0  0  0  0  0  0  0
    8.0331   -0.5962    2.0271 H   0  0  0  0  0  0  0  0  0  0  0  0
   10.0681    0.0885    1.2561 H   0  0  0  0  0  0  0  0  0  0  0  0
    9.4264    0.7713   -2.3701 H   0  0  0  0  0  0  0  0  0  0  0  0
   11.0613    1.8495   -3.8346 H   0  0  0  0  0  0  0  0  0  0  0  0
   13.4982    2.3371   -4.0421 H   0  0  0  0  0  0  0  0  0  0  0  0
   14.4198    2.8021   -2.6044 H   0  0  0  0  0  0  0  0  0  0  0  0
   13.1119    3.9472   -3.2221 H   0  0  0  0  0  0  0  0  0  0  0  0
   11.9169    1.4626    1.0022 H   0  0  0  0  0  0  0  0  0  0  0  0
    6.6620   -2.3307    5.2248 H   0  0  0  0  0  0  0  0  0  0  0  0
    5.4041   -3.1047    4.1471 H   0  0  0  0  0  0  0  0  0  0  0  0
    5.0143   -1.5528    4.9605 H   0  0  0  0  0  0  0  0  0  0  0  0
    3.7524   -1.8449    3.3459 H   0  0  0  0  0  0  0  0  0  0  0  0
   -2.3530   -0.4724   -2.7504 H   0  0  0  0  0  0  0  0  0  0  0  0
   -4.4748   -0.3668   -5.4851 H   0  0  0  0  0  0  0  0  0  0  0  0
   -3.4971    0.5333   -4.3131 H   0  0  0  0  0  0  0  0  0  0  0  0
   -3.1498   -1.1883   -4.5081 H   0  0  0  0  0  0  0  0  0  0  0  0
  1  2  1  0
  2  3  1  0
  3  4  1  0
  4  5  1  0
  5  6  1  0
  6  7  1  0
  7  8  1  0
  8  9  1  0
  9 10  1  0
 10 11  1  0
 11 12  2  0
 12 13  1  0
 13 14  2  0
 14 15  1  0
 15 16  1  0
 16 17  2  0
 17 18  1  0
 18 19  2  0
 19 20  1  0
 20 21  2  0
 20 22  1  0
 22 23  2  0
 23 24  1  0
 24 25  2  0
 25 26  1  0
 26 27  1  0
 27 28  2  0
 27 29  1  0
 29 30  1  0
 30 31  2  0
 31 32  1  0
 32 33  2  0
 33 34  1  0
 33 35  1  0
 35 36  2  0
 25 37  1  0
 37 38  1  0
 38 39  1  0
 37 40  2  0
 14 41  1  0
 41 42  2  0
 42 43  1  0
 43 44  1  0
  8  3  1  0
 42 11  1  0
 21 16  1  0
 40 22  1  0
 36 30  1  0
  1 45  1  0
  1 46  1  0
  1 47  1  0
  2 48  1  0
  2 49  1  0
  4 50  1  0
  4 51  1  0
  5 52  1  0
  5 53  1  0
  6 54  1  0
  7 55  1  0
  7 56  1  0
  8 57  1  0
  9 58  1  0
  9 59  1  0
 12 60  1  0
 13 61  1  0
 15 62  1  0
 18 63  1  0
 19 64  1  0
 23 65  1  0
 24 66  1  0
 26 67  1  0
 29 68  1  0
 31 69  1  0
 32 70  1  0
 34 71  1  0
 34 72  1  0
 34 73  1  0
 36 74  1  0
 39 75  1  0
 39 76  1  0
 39 77  1  0
 40 78  1  0
 41 79  1  0
 44 80  1  0
 44 81  1  0
 44 82  1  0
M  END
$$$$
[H]/C(C(=O)N(c1c([H])c([H])c(N=C2c3c([H])c(C(=O)N([H])C([H])([H])[H])c([H])c([H])c3C2([H])c2c(F)c([H])c([H])c([H])c2F)c([H])c1[H])C([H])([H])[H])=C(/[H])c1c([H])c([H])c(Br)c([H])c1[H]
     RDKit          3D

 64 68  0  0  0  0  0  0  0  0999 V2000
   -2.6187    5.3325    2.0950 C   0  0  0  0  0  0  0  0  0  0  0  0
   -3.2831    4.0475    2.0772 N   0  0  0  0  0  0  0  0  0  0  0  0
   -2.7288    2.9140    1.4528 C   0  0  0  0  0  0  0  0  0  0  0  0
   -1.6006    3.0592    0.8955 O   0  0  0  0  0  0  0  0  0  0  0  0
   -3.3345    1.5942    1.3912 C   0  0  0  0  0  0  0  0  0  0  0  0
   -4.6501    1.4457    1.7752 C   0  0  0  0  0  0  0  0  0  0  0  0
   -5.2665    0.2126    1.7334 C   0  0  0  0  0  0  0  0  0  0  0  0
   -4.5549   -0.8781    1.3027 C   0  0  0  0  0  0  0  0  0  0  0  0
   -4.4488   -2.3246    0.9869 C   0  0  0  0  0  0  0  0  0  0  0  0
   -3.0616   -2.1457    0.5940 C   0  0  0  0  0  0  0  0  0  0  0  0
   -2.0889   -2.8515    0.1582 N   0  0  0  0  0  0  0  0  0  0  0  0
   -0.8041   -2.3428   -0.1381 C   0  0  0  0  0  0  0  0  0  0  0  0
   -0.3827   -1.9414   -1.3786 C   0  0  0  0  0  0  0  0  0  0  0  0
    0.9101   -1.4529   -1.5535 C   0  0  0  0  0  0  0  0  0  0  0  0
    1.7722   -1.3668   -0.4997 C   0  0  0  0  0  0  0  0  0  0  0  0
    1.3575   -1.7675    0.7466 C   0  0  0  0  0  0  0  0  0  0  0  0
    0.0795   -2.2501    0.9185 C   0  0  0  0  0  0  0  0  0  0  0  0
    3.1468   -0.8490   -0.6625 N   0  0  0  0  0  0  0  0  0  0  0  0
    4.0728   -1.8754   -1.0635 C   0  0  0  0  0  0  0  0  0  0  0  0
    3.3866    0.4955   -0.4288 C   0  0  0  0  0  0  0  0  0  0  0  0
    2.3163    1.1857   -0.1483 O   0  0  0  0  0  0  0  0  0  0  0  0
    4.5876    1.2466   -0.4397 C   0  0  0  0  0  0  0  0  0  0  0  0
    5.7994    0.8338   -0.6757 C   0  0  0  0  0  0  0  0  0  0  0  0
    6.9884    1.7071   -0.6608 C   0  0  0  0  0  0  0  0  0  0  0  0
    8.2485    1.1795   -0.9202 C   0  0  0  0  0  0  0  0  0  0  0  0
    9.3981    1.9375   -0.9175 C   0  0  0  0  0  0  0  0  0  0  0  0
    9.3373    3.2866   -0.6500 C   0  0  0  0  0  0  0  0  0  0  0  0
   10.8513    4.4361   -0.6167 Br  0  0  0  0  0  0  0  0  0  0  0  0
    8.0964    3.8167   -0.3928 C   0  0  0  0  0  0  0  0  0  0  0  0
    6.9283    3.0495   -0.3945 C   0  0  0  0  0  0  0  0  0  0  0  0
   -3.2146   -0.7324    0.9109 C   0  0  0  0  0  0  0  0  0  0  0  0
   -2.5959    0.4917    0.9500 C   0  0  0  0  0  0  0  0  0  0  0  0
   -5.4125   -2.8909    0.0583 C   0  0  0  0  0  0  0  0  0  0  0  0
   -6.0189   -4.1325    0.2982 C   0  0  0  0  0  0  0  0  0  0  0  0
   -5.6565   -4.7890    1.4336 F   0  0  0  0  0  0  0  0  0  0  0  0
   -6.9417   -4.6752   -0.5708 C   0  0  0  0  0  0  0  0  0  0  0  0
   -7.2969   -3.9989   -1.7153 C   0  0  0  0  0  0  0  0  0  0  0  0
   -6.7246   -2.7871   -1.9783 C   0  0  0  0  0  0  0  0  0  0  0  0
   -5.7974   -2.2496   -1.0994 C   0  0  0  0  0  0  0  0  0  0  0  0
   -5.2610   -1.0561   -1.3972 F   0  0  0  0  0  0  0  0  0  0  0  0
   -1.5399    5.2166    1.9510 H   0  0  0  0  0  0  0  0  0  0  0  0
   -3.0898    5.9334    1.2872 H   0  0  0  0  0  0  0  0  0  0  0  0
   -2.7931    5.8914    3.0352 H   0  0  0  0  0  0  0  0  0  0  0  0
   -4.2019    3.9741    2.5487 H   0  0  0  0  0  0  0  0  0  0  0  0
   -5.2005    2.3107    2.1102 H   0  0  0  0  0  0  0  0  0  0  0  0
   -6.3063    0.1583    2.0488 H   0  0  0  0  0  0  0  0  0  0  0  0
   -4.5180   -2.8837    1.9732 H   0  0  0  0  0  0  0  0  0  0  0  0
   -1.0788   -2.0166   -2.2026 H   0  0  0  0  0  0  0  0  0  0  0  0
    1.2049   -1.1511   -2.5257 H   0  0  0  0  0  0  0  0  0  0  0  0
    2.0092   -1.7131    1.5914 H   0  0  0  0  0  0  0  0  0  0  0  0
   -0.2103   -2.5549    1.9130 H   0  0  0  0  0  0  0  0  0  0  0  0
    4.6209   -1.6581   -2.0021 H   0  0  0  0  0  0  0  0  0  0  0  0
    3.5417   -2.8525   -1.2702 H   0  0  0  0  0  0  0  0  0  0  0  0
    4.8196   -2.0794   -0.2741 H   0  0  0  0  0  0  0  0  0  0  0  0
    4.5302    2.3519   -0.2210 H   0  0  0  0  0  0  0  0  0  0  0  0
    6.0034   -0.1892   -0.8963 H   0  0  0  0  0  0  0  0  0  0  0  0
    8.3136    0.1077   -1.1361 H   0  0  0  0  0  0  0  0  0  0  0  0
   10.3535    1.4864   -1.1231 H   0  0  0  0  0  0  0  0  0  0  0  0
    8.0182    4.8592   -0.1820 H   0  0  0  0  0  0  0  0  0  0  0  0
    5.9885    3.5611   -0.1787 H   0  0  0  0  0  0  0  0  0  0  0  0
   -1.5726    0.6653    0.6616 H   0  0  0  0  0  0  0  0  0  0  0  0
   -7.3751   -5.6187   -0.3493 H   0  0  0  0  0  0  0  0  0  0  0  0
   -8.0358   -4.4526   -2.3937 H   0  0  0  0  0  0  0  0  0  0  0  0
   -7.0152   -2.2603   -2.8889 H   0  0  0  0  0  0  0  0  0  0  0  0
  1  2  1  0
  2  3  1  0
  3  4  2  0
  3  5  1  0
  5  6  2  0
  6  7  1  0
  7  8  2  0
  8  9  1  0
  9 10  1  0
 10 11  2  3
 11 12  1  0
 12 13  2  0
 13 14  1  0
 14 15  2  0
 15 16  1  0
 16 17  2  0
 15 18  1  0
 18 19  1  0
 18 20  1  0
 20 21  2  0
 20 22  1  0
 22 23  2  0
 23 24  1  0
 24 25  2  0
 25 26  1  0
 26 27  2  0
 27 28  1  0
 27 29  1  0
 29 30  2  0
 10 31  1  0
 31 32  2  0
  9 33  1  0
 33 34  2  0
 34 35  1  0
 34 36  1  0
 36 37  2  0
 37 38  1  0
 38 39  2  0
 39 40  1  0
 32  5  1  0
 39 33  1  0
 31  8  1  0
 17 12  1  0
 30 24  1  0
  1 41  1  0
  1 42  1  0
  1 43  1  0
  2 44  1  0
  6 45  1  0
  7 46  1  0
  9 47  1  0
 13 48  1  0
 14 49  1  0
 16 50  1  0
 17 51  1  0
 19 52  1  0
 19 53  1  0
 19 54  1  0
 22 55  1  0
 23 56  1  0
 25 57  1  0
 26 58  1  0
 29 59  1  0
 30 60  1  0
 32 61  1  0
 36 62  1  0
 37 63  1  0
 38 64  1  0
M  END
$$$$
[H]OC([H])([H])C([H])=C(c1c([H])c([H])c([H])c(C#N)c1[H])c1c([H])c(C(F)(F)F)c([H])c(C([H])([H])N2C([H])([H])[C@@]([H])(C([H])([H])[H])OC([H])([H])C([H])([H])[C@]2([H])C(=O)N([H])C(C([H])([H])[H])(C([H])([H])[H])C([H])([H])[H])c1[H]
     RDKit          3D

 72 74  0  0  0  0  0  0  0  0999 V2000
   -1.8985   -4.6661   -0.4510 C   0  0  0  0  0  0  0  0  0  0  0  0
   -2.1685   -3.2335   -0.8492 C   0  0  2  0  0  0  0  0  0  0  0  0
   -1.1491   -2.2843   -0.2701 C   0  0  0  0  0  0  0  0  0  0  0  0
   -1.7195   -0.9376   -0.3985 N   0  0  0  0  0  0  0  0  0  0  0  0
   -0.8400   -0.0535   -1.0462 C   0  0  0  0  0  0  0  0  0  0  0  0
    0.4368    0.2680   -0.3784 C   0  0  0  0  0  0  0  0  0  0  0  0
    0.4534    1.2544    0.5730 C   0  0  0  0  0  0  0  0  0  0  0  0
    1.6424    1.6007    1.2208 C   0  0  0  0  0  0  0  0  0  0  0  0
    2.7853    0.9489    0.8981 C   0  0  0  0  0  0  0  0  0  0  0  0
    2.8410   -0.0560   -0.0534 C   0  0  0  0  0  0  0  0  0  0  0  0
    1.6310   -0.3553   -0.6627 C   0  0  0  0  0  0  0  0  0  0  0  0
    4.1225   -0.6049   -0.4115 C   0  0  0  0  0  0  0  0  0  0  0  0
    4.2760   -1.8502   -0.7255 C   0  0  0  0  0  0  0  0  0  0  0  0
    3.3900   -2.9970   -0.8112 C   0  0  0  0  0  0  0  0  0  0  0  0
    3.9522   -3.9568    0.1183 O   0  0  0  0  0  0  0  0  0  0  0  0
    5.3074    0.2703   -0.3813 C   0  0  0  0  0  0  0  0  0  0  0  0
    6.6033   -0.2436   -0.2783 C   0  0  0  0  0  0  0  0  0  0  0  0
    7.7385    0.5409   -0.3362 C   0  0  0  0  0  0  0  0  0  0  0  0
    7.6392    1.8957   -0.5011 C   0  0  0  0  0  0  0  0  0  0  0  0
    6.3877    2.4395   -0.6065 C   0  0  0  0  0  0  0  0  0  0  0  0
    5.2558    1.6379   -0.5475 C   0  0  0  0  0  0  0  0  0  0  0  0
    6.2092    3.8479   -0.7774 C   0  0  0  0  0  0  0  0  0  0  0  0
    6.0703    5.0087   -0.8954 N   0  0  0  0  0  0  0  0  0  0  0  0
    1.6735    2.6701    2.2482 C   0  0  0  0  0  0  0  0  0  0  0  0
    0.4468    3.2547    2.4348 F   0  0  0  0  0  0  0  0  0  0  0  0
    2.1654    2.0992    3.4155 F   0  0  0  0  0  0  0  0  0  0  0  0
    2.6065    3.6041    1.8305 F   0  0  0  0  0  0  0  0  0  0  0  0
   -2.4753   -0.5622    0.7162 C   0  0  2  0  0  0  0  0  0  0  0  0
   -2.9066   -1.7166    1.5988 C   0  0  0  0  0  0  0  0  0  0  0  0
   -3.5950   -2.8099    0.8870 C   0  0  0  0  0  0  0  0  0  0  0  0
   -3.4185   -2.7977   -0.4928 O   0  0  0  0  0  0  0  0  0  0  0  0
   -3.6248    0.3307    0.5607 C   0  0  0  0  0  0  0  0  0  0  0  0
   -4.7128   -0.0164    1.1871 O   0  0  0  0  0  0  0  0  0  0  0  0
   -3.7511    1.5226   -0.1607 N   0  0  0  0  0  0  0  0  0  0  0  0
   -5.0068    2.2773   -0.1970 C   0  0  0  0  0  0  0  0  0  0  0  0
   -4.8269    3.5313   -1.0350 C   0  0  0  0  0  0  0  0  0  0  0  0
   -6.0926    1.4517   -0.8475 C   0  0  0  0  0  0  0  0  0  0  0  0
   -5.4769    2.6998    1.1621 C   0  0  0  0  0  0  0  0  0  0  0  0
   -1.0735   -5.0412   -1.0798 H   0  0  0  0  0  0  0  0  0  0  0  0
   -1.6363   -4.7718    0.6220 H   0  0  0  0  0  0  0  0  0  0  0  0
   -2.8000   -5.2537   -0.6395 H   0  0  0  0  0  0  0  0  0  0  0  0
   -2.0738   -3.1677   -1.9535 H   0  0  0  0  0  0  0  0  0  0  0  0
   -0.2261   -2.3782   -0.8936 H   0  0  0  0  0  0  0  0  0  0  0  0
   -0.8811   -2.5524    0.7591 H   0  0  0  0  0  0  0  0  0  0  0  0
   -0.5260   -0.6452   -2.0135 H   0  0  0  0  0  0  0  0  0  0  0  0
   -1.3338    0.8095   -1.4901 H   0  0  0  0  0  0  0  0  0  0  0  0
   -0.4002    1.8344    0.8902 H   0  0  0  0  0  0  0  0  0  0  0  0
    3.7014    1.2439    1.4567 H   0  0  0  0  0  0  0  0  0  0  0  0
    1.6565   -1.1011   -1.4521 H   0  0  0  0  0  0  0  0  0  0  0  0
    5.3297   -2.1173   -1.0318 H   0  0  0  0  0  0  0  0  0  0  0  0
    3.3403   -3.4446   -1.7999 H   0  0  0  0  0  0  0  0  0  0  0  0
    2.3866   -2.8079   -0.3301 H   0  0  0  0  0  0  0  0  0  0  0  0
    4.8847   -3.7400    0.3154 H   0  0  0  0  0  0  0  0  0  0  0  0
    6.7202   -1.3154   -0.1244 H   0  0  0  0  0  0  0  0  0  0  0  0
    8.7187    0.1013   -0.2538 H   0  0  0  0  0  0  0  0  0  0  0  0
    8.5468    2.5193   -0.5460 H   0  0  0  0  0  0  0  0  0  0  0  0
    4.2857    2.1265   -0.6710 H   0  0  0  0  0  0  0  0  0  0  0  0
   -1.7576    0.0152    1.4048 H   0  0  0  0  0  0  0  0  0  0  0  0
   -3.6575   -1.2800    2.3277 H   0  0  0  0  0  0  0  0  0  0  0  0
   -2.0723   -2.0309    2.2464 H   0  0  0  0  0  0  0  0  0  0  0  0
   -3.2847   -3.7902    1.3007 H   0  0  0  0  0  0  0  0  0  0  0  0
   -4.7162   -2.7870    1.0343 H   0  0  0  0  0  0  0  0  0  0  0  0
   -2.9752    1.9357   -0.6801 H   0  0  0  0  0  0  0  0  0  0  0  0
   -3.7770    3.8753   -0.8110 H   0  0  0  0  0  0  0  0  0  0  0  0
   -5.5297    4.3127   -0.7182 H   0  0  0  0  0  0  0  0  0  0  0  0
   -4.8564    3.2688   -2.0963 H   0  0  0  0  0  0  0  0  0  0  0  0
   -6.6375    0.8327   -0.1247 H   0  0  0  0  0  0  0  0  0  0  0  0
   -6.7890    2.1201   -1.3655 H   0  0  0  0  0  0  0  0  0  0  0  0
   -5.6655    0.7675   -1.6212 H   0  0  0  0  0  0  0  0  0  0  0  0
   -6.0687    3.6495    1.0887 H   0  0  0  0  0  0  0  0  0  0  0  0
   -4.6426    2.8639    1.8802 H   0  0  0  0  0  0  0  0  0  0  0  0
   -6.1607    1.9358    1.5594 H   0  0  0  0  0  0  0  0  0  0  0  0
  1  2  1  0
  2  3  1  0
  3  4  1  0
  4  5  1  0
  5  6  1  0
  6  7  2  0
  7  8  1  0
  8  9  2  0
  9 10  1  0
 10 11  2  0
 10 12  1  0
 12 13  2  3
 13 14  1  0
 14 15  1  0
 12 16  1  0
 16 17  2  0
 17 18  1  0
 18 19  2  0
 19 20  1  0
 20 21  2  0
 20 22  1  0
 22 23  3  0
  8 24  1  0
 24 25  1  0
 24 26  1  0
 24 27  1  0
  4 28  1  0
 28 29  1  0
 29 30  1  0
 30 31  1  0
 28 32  1  0
 32 33  2  0
 32 34  1  0
 34 35  1  0
 35 36  1  0
 35 37  1  0
 35 38  1  0
 31  2  1  0
 11  6  1  0
 21 16  1  0
  1 39  1  0
  1 40  1  0
  1 41  1  0
  2 42  1  6
  3 43  1  0
  3 44  1  0
  5 45  1  0
  5 46  1  0
  7 47  1  0
  9 48  1  0
 11 49  1  0
 13 50  1  0
 14 51  1  0
 14 52  1  0
 15 53  1  0
 17 54  1  0
 18 55  1  0
 19 56  1  0
 21 57  1  0
 28 58  1  1
 29 59  1  0
 29 60  1  0
 30 61  1  0
 30 62  1  0
 34 63  1  0
 36 64  1  0
 36 65  1  0
 36 66  1  0
 37 67  1  0
 37 68  1  0
 37 69  1  0
 38 70  1  0
 38 71  1  0
 38 72  1  0
M  END
$$$$
[H]OC(=O)C(=O)N([H])[C@@]([H])(C(=O)O[H])C([H])([H])[C@@]([H])(/C([H])=C(\[H])c1c([H])c([H])c([H])c([H])c1[H])C([H])([H])c1c([H])c([H])c([H])c([H])c1[H]
     RDKit          3D

 48 49  0  0  0  0  0  0  0  0999 V2000
    4.5050   -1.2172    1.2009 O   0  0  0  0  0  0  0  0  0  0  0  0
    3.7090   -1.7239    2.0470 C   0  0  0  0  0  0  0  0  0  0  0  0
    2.4025   -2.1293    1.7369 N   0  0  0  0  0  0  0  0  0  0  0  0
    1.9260   -1.9574    0.3488 C   0  0  2  0  0  0  0  0  0  0  0  0
    0.7321   -1.1018    0.4952 C   0  0  0  0  0  0  0  0  0  0  0  0
   -0.0434   -0.6777   -0.6741 C   0  0  2  0  0  0  0  0  0  0  0  0
    0.5669    0.1414   -1.7265 C   0  0  0  0  0  0  0  0  0  0  0  0
    1.1468    1.4320   -1.3888 C   0  0  0  0  0  0  0  0  0  0  0  0
    2.4663    1.5205   -0.9882 C   0  0  0  0  0  0  0  0  0  0  0  0
    3.0774    2.7288   -0.6676 C   0  0  0  0  0  0  0  0  0  0  0  0
    2.3697    3.8831   -0.7439 C   0  0  0  0  0  0  0  0  0  0  0  0
    1.0736    3.8432   -1.1328 C   0  0  0  0  0  0  0  0  0  0  0  0
    0.4739    2.6149   -1.4524 C   0  0  0  0  0  0  0  0  0  0  0  0
   -1.4607   -0.4646   -0.3045 C   0  0  0  0  0  0  0  0  0  0  0  0
   -2.3392    0.3203   -0.8560 C   0  0  0  0  0  0  0  0  0  0  0  0
   -3.7243    0.4958   -0.4486 C   0  0  0  0  0  0  0  0  0  0  0  0
   -4.5099    1.3794   -1.1579 C   0  0  0  0  0  0  0  0  0  0  0  0
   -5.8361    1.6257   -0.8620 C   0  0  0  0  0  0  0  0  0  0  0  0
   -6.4324    0.9687    0.1917 C   0  0  0  0  0  0  0  0  0  0  0  0
   -5.6699    0.0821    0.9151 C   0  0  0  0  0  0  0  0  0  0  0  0
   -4.3249   -0.1502    0.5940 C   0  0  0  0  0  0  0  0  0  0  0  0
    1.7175   -3.3161   -0.1693 C   0  0  0  0  0  0  0  0  0  0  0  0
    1.3133   -3.6580   -1.4490 O   0  0  0  0  0  0  0  0  0  0  0  0
    1.9160   -4.2956    0.5911 O   0  0  0  0  0  0  0  0  0  0  0  0
    4.2178   -1.8775    3.4099 C   0  0  0  0  0  0  0  0  0  0  0  0
    5.4978   -1.4971    3.7814 O   0  0  0  0  0  0  0  0  0  0  0  0
    3.4987   -2.3736    4.3267 O   0  0  0  0  0  0  0  0  0  0  0  0
    1.7900   -2.5355    2.4535 H   0  0  0  0  0  0  0  0  0  0  0  0
    2.7339   -1.5147   -0.2352 H   0  0  0  0  0  0  0  0  0  0  0  0
    1.0906   -0.1625    1.0173 H   0  0  0  0  0  0  0  0  0  0  0  0
    0.0293   -1.5479    1.2336 H   0  0  0  0  0  0  0  0  0  0  0  0
   -0.0977   -1.7467   -1.2684 H   0  0  0  0  0  0  0  0  0  0  0  0
    1.3248   -0.5145   -2.2801 H   0  0  0  0  0  0  0  0  0  0  0  0
   -0.2318    0.2564   -2.5357 H   0  0  0  0  0  0  0  0  0  0  0  0
    3.0811    0.6621   -0.9164 H   0  0  0  0  0  0  0  0  0  0  0  0
    4.1229    2.7503   -0.3554 H   0  0  0  0  0  0  0  0  0  0  0  0
    2.9001    4.8125   -0.4792 H   0  0  0  0  0  0  0  0  0  0  0  0
    0.5047    4.7511   -1.1966 H   0  0  0  0  0  0  0  0  0  0  0  0
   -0.5800    2.6847   -1.7712 H   0  0  0  0  0  0  0  0  0  0  0  0
   -1.8806   -1.0317    0.5599 H   0  0  0  0  0  0  0  0  0  0  0  0
   -1.9983    0.8729   -1.7285 H   0  0  0  0  0  0  0  0  0  0  0  0
   -4.0846    1.9179   -1.9930 H   0  0  0  0  0  0  0  0  0  0  0  0
   -6.4539    2.3203   -1.4195 H   0  0  0  0  0  0  0  0  0  0  0  0
   -7.4886    1.1565    0.4375 H   0  0  0  0  0  0  0  0  0  0  0  0
   -6.1340   -0.4354    1.7425 H   0  0  0  0  0  0  0  0  0  0  0  0
   -3.7533   -0.8441    1.1714 H   0  0  0  0  0  0  0  0  0  0  0  0
    0.5848   -4.3134   -1.6573 H   0  0  0  0  0  0  0  0  0  0  0  0
    6.2710   -2.1343    3.6037 H   0  0  0  0  0  0  0  0  0  0  0  0
  1  2  2  0
  2  3  1  0
  3  4  1  0
  4  5  1  0
  5  6  1  0
  6  7  1  0
  7  8  1  0
  8  9  2  0
  9 10  1  0
 10 11  2  0
 11 12  1  0
 12 13  2  0
  6 14  1  0
 14 15  2  0
 15 16  1  0
 16 17  2  0
 17 18  1  0
 18 19  2  0
 19 20  1  0
 20 21  2  0
  4 22  1  0
 22 23  1  0
 22 24  2  0
  2 25  1  0
 25 26  1  0
 25 27  2  0
 13  8  1  0
 21 16  1  0
  3 28  1  0
  4 29  1  6
  5 30  1  0
  5 31  1  0
  6 32  1  6
  7 33  1  0
  7 34  1  0
  9 35  1  0
 10 36  1  0
 11 37  1  0
 12 38  1  0
 13 39  1  0
 14 40  1  0
 15 41  1  0
 17 42  1  0
 18 43  1  0
 19 44  1  0
 20 45  1  0
 21 46  1  0
 23 47  1  0
 26 48  1  0
M  END
$$$$
[H]OC(=O)C([H])([H])C(c1c([H])c([H])c(C([H])(c2c([H])c([H])c([H])c([H])c2[H])C(C([H])([H])[H])(C([H])([H])[H])C([H])([H])[H])c([H])c1[H])(C([H])([H])[H])C([H])([H])[H]
     RDKit          3D

 52 53  0  0  0  0  0  0  0  0999 V2000
   -4.1051   -1.1911   -0.9679 C   0  0  0  0  0  0  0  0  0  0  0  0
   -2.7139   -1.2882   -0.2776 C   0  0  0  0  0  0  0  0  0  0  0  0
   -3.0003   -1.8860    1.0345 C   0  0  0  0  0  0  0  0  0  0  0  0
   -2.0081   -2.3497   -1.1106 C   0  0  0  0  0  0  0  0  0  0  0  0
   -1.9862   -0.0004   -0.3930 C   0  0  0  0  0  0  0  0  0  0  0  0
   -2.5457    1.2082    0.1883 C   0  0  0  0  0  0  0  0  0  0  0  0
   -2.9387    2.2631   -0.6124 C   0  0  0  0  0  0  0  0  0  0  0  0
   -3.4714    3.4445   -0.1637 C   0  0  0  0  0  0  0  0  0  0  0  0
   -3.6261    3.5836    1.1981 C   0  0  0  0  0  0  0  0  0  0  0  0
   -3.2543    2.5705    2.0495 C   0  0  0  0  0  0  0  0  0  0  0  0
   -2.7279    1.4180    1.5377 C   0  0  0  0  0  0  0  0  0  0  0  0
   -0.4967   -0.0989   -0.3424 C   0  0  0  0  0  0  0  0  0  0  0  0
    0.2006   -0.6077    0.7396 C   0  0  0  0  0  0  0  0  0  0  0  0
    1.5858   -0.6983    0.7469 C   0  0  0  0  0  0  0  0  0  0  0  0
    2.3437   -0.2860   -0.3213 C   0  0  0  0  0  0  0  0  0  0  0  0
    1.6808    0.2274   -1.4157 C   0  0  0  0  0  0  0  0  0  0  0  0
    0.3194    0.3018   -1.3903 C   0  0  0  0  0  0  0  0  0  0  0  0
    3.8176   -0.3658   -0.3934 C   0  0  0  0  0  0  0  0  0  0  0  0
    4.1861   -1.2752   -1.5737 C   0  0  0  0  0  0  0  0  0  0  0  0
    4.2827    1.0287   -0.8037 C   0  0  0  0  0  0  0  0  0  0  0  0
    4.5179   -0.8521    0.8113 C   0  0  0  0  0  0  0  0  0  0  0  0
    4.3907   -0.0895    2.0404 C   0  0  0  0  0  0  0  0  0  0  0  0
    3.7444    1.1268    2.1641 O   0  0  0  0  0  0  0  0  0  0  0  0
    4.9084   -0.5635    3.0863 O   0  0  0  0  0  0  0  0  0  0  0  0
   -4.6968   -2.0820   -0.6891 H   0  0  0  0  0  0  0  0  0  0  0  0
   -3.9017   -1.0729   -2.0309 H   0  0  0  0  0  0  0  0  0  0  0  0
   -4.5646   -0.2365   -0.6268 H   0  0  0  0  0  0  0  0  0  0  0  0
   -3.6570   -2.8040    0.8216 H   0  0  0  0  0  0  0  0  0  0  0  0
   -2.1246   -2.3635    1.5225 H   0  0  0  0  0  0  0  0  0  0  0  0
   -3.6520   -1.3060    1.7211 H   0  0  0  0  0  0  0  0  0  0  0  0
   -1.0873   -2.7290   -0.6321 H   0  0  0  0  0  0  0  0  0  0  0  0
   -2.7109   -3.2085   -1.1525 H   0  0  0  0  0  0  0  0  0  0  0  0
   -1.8546   -2.0133   -2.1588 H   0  0  0  0  0  0  0  0  0  0  0  0
   -2.1326    0.1701   -1.5411 H   0  0  0  0  0  0  0  0  0  0  0  0
   -2.8353    2.1982   -1.7125 H   0  0  0  0  0  0  0  0  0  0  0  0
   -3.7515    4.2196   -0.8688 H   0  0  0  0  0  0  0  0  0  0  0  0
   -4.0467    4.5127    1.5793 H   0  0  0  0  0  0  0  0  0  0  0  0
   -3.3920    2.7207    3.1315 H   0  0  0  0  0  0  0  0  0  0  0  0
   -2.4407    0.6472    2.2305 H   0  0  0  0  0  0  0  0  0  0  0  0
   -0.3067   -0.9347    1.6032 H   0  0  0  0  0  0  0  0  0  0  0  0
    2.0500   -1.1314    1.6392 H   0  0  0  0  0  0  0  0  0  0  0  0
    2.2371    0.5739   -2.3089 H   0  0  0  0  0  0  0  0  0  0  0  0
   -0.1537    0.7240   -2.2925 H   0  0  0  0  0  0  0  0  0  0  0  0
    5.1643   -1.7484   -1.3809 H   0  0  0  0  0  0  0  0  0  0  0  0
    4.1845   -0.7038   -2.5237 H   0  0  0  0  0  0  0  0  0  0  0  0
    3.4258   -2.0805   -1.6104 H   0  0  0  0  0  0  0  0  0  0  0  0
    4.1108    1.1137   -1.8887 H   0  0  0  0  0  0  0  0  0  0  0  0
    5.3830    1.1517   -0.6572 H   0  0  0  0  0  0  0  0  0  0  0  0
    3.6837    1.8307   -0.3091 H   0  0  0  0  0  0  0  0  0  0  0  0
    5.6098   -1.0226    0.5896 H   0  0  0  0  0  0  0  0  0  0  0  0
    4.1343   -1.8968    1.0131 H   0  0  0  0  0  0  0  0  0  0  0  0
    4.2216    1.8513    2.7014 H   0  0  0  0  0  0  0  0  0  0  0  0
  1  2  1  0
  2  3  1  0
  2  4  1  0
  2  5  1  0
  5  6  1  0
  6  7  2  0
  7  8  1  0
  8  9  2  0
  9 10  1  0
 10 11  2  0
  5 12  1  0
 12 13  2  0
 13 14  1  0
 14 15  2  0
 15 16  1  0
 16 17  2  0
 15 18  1  0
 18 19  1  0
 18 20  1  0
 18 21  1  0
 21 22  1  0
 22 23  1  0
 22 24  2  0
 11  6  1  0
 17 12  1  0
  1 25  1  0
  1 26  1  0
  1 27  1  0
  3 28  1  0
  3 29  1  0
  3 30  1  0
  4 31  1  0
  4 32  1  0
  4 33  1  0
  5 34  1  0
  7 35  1  0
  8 36  1  0
  9 37  1  0
 10 38  1  0
 11 39  1  0
 13 40  1  0
 14 41  1  0
 16 42  1  0
 17 43  1  0
 19 44  1  0
 19 45  1  0
 19 46  1  0
 20 47  1  0
 20 48  1  0
 20 49  1  0
 21 50  1  0
 21 51  1  0
 23 52  1  0
M  END
$$$$
[H]c1nc([H])c2c([H])c([H])c(-c3nc(-c4c([H])c([H])c([H])c(Cl)c4[H])nc(N([H])[H])n3)c([H])c2c1N([H])[H]
     RDKit          3D

 38 41  0  0  0  0  0  0  0  0999 V2000
    1.1165    2.9216    2.9374 N   0  0  0  0  0  0  0  0  0  0  0  0
    1.1848    1.8850    1.9732 C   0  0  0  0  0  0  0  0  0  0  0  0
    0.0394    1.4021    1.4601 N   0  0  0  0  0  0  0  0  0  0  0  0
    0.0387    0.4151    0.5385 C   0  0  0  0  0  0  0  0  0  0  0  0
    1.2293   -0.0677    0.1524 N   0  0  0  0  0  0  0  0  0  0  0  0
    2.3985    0.3809    0.6348 C   0  0  0  0  0  0  0  0  0  0  0  0
    2.3387    1.3668    1.5521 N   0  0  0  0  0  0  0  0  0  0  0  0
    3.6850   -0.1544    0.2048 C   0  0  0  0  0  0  0  0  0  0  0  0
    4.8411    0.3621    0.7500 C   0  0  0  0  0  0  0  0  0  0  0  0
    6.0785   -0.1291    0.3586 C   0  0  0  0  0  0  0  0  0  0  0  0
    6.1902   -1.1374   -0.5769 C   0  0  0  0  0  0  0  0  0  0  0  0
    5.0363   -1.6582   -1.1259 C   0  0  0  0  0  0  0  0  0  0  0  0
    5.1478   -2.9388   -2.3156 Cl  0  0  0  0  0  0  0  0  0  0  0  0
    3.7909   -1.1617   -0.7300 C   0  0  0  0  0  0  0  0  0  0  0  0
   -1.1988   -0.1112   -0.0201 C   0  0  0  0  0  0  0  0  0  0  0  0
   -1.1667   -1.1192   -0.9597 C   0  0  0  0  0  0  0  0  0  0  0  0
   -2.2865   -1.6545   -1.5203 C   0  0  0  0  0  0  0  0  0  0  0  0
   -3.5175   -1.1497   -1.1158 C   0  0  0  0  0  0  0  0  0  0  0  0
   -4.6930   -1.6300   -1.6280 C   0  0  0  0  0  0  0  0  0  0  0  0
   -5.8978   -1.1479   -1.2432 N   0  0  0  0  0  0  0  0  0  0  0  0
   -5.9681   -0.1597   -0.3243 C   0  0  0  0  0  0  0  0  0  0  0  0
   -4.8311    0.3683    0.2305 C   0  0  0  0  0  0  0  0  0  0  0  0
   -4.9588    1.4021    1.1890 N   0  0  0  0  0  0  0  0  0  0  0  0
   -3.6130   -0.1309   -0.1695 C   0  0  0  0  0  0  0  0  0  0  0  0
   -2.4362    0.3619    0.3545 C   0  0  0  0  0  0  0  0  0  0  0  0
    0.9975    3.9243    2.6867 H   0  0  0  0  0  0  0  0  0  0  0  0
    1.1933    2.6258    3.9450 H   0  0  0  0  0  0  0  0  0  0  0  0
    4.7556    1.1597    1.4901 H   0  0  0  0  0  0  0  0  0  0  0  0
    6.9963    0.2633    0.7749 H   0  0  0  0  0  0  0  0  0  0  0  0
    7.1793   -1.5021   -0.8637 H   0  0  0  0  0  0  0  0  0  0  0  0
    2.8925   -1.5611   -1.1518 H   0  0  0  0  0  0  0  0  0  0  0  0
   -0.1947   -1.4908   -1.2539 H   0  0  0  0  0  0  0  0  0  0  0  0
   -2.2420   -2.4594   -2.2695 H   0  0  0  0  0  0  0  0  0  0  0  0
   -4.6506   -2.4222   -2.3655 H   0  0  0  0  0  0  0  0  0  0  0  0
   -6.9359    0.2001   -0.0408 H   0  0  0  0  0  0  0  0  0  0  0  0
   -5.0112    1.1794    2.2155 H   0  0  0  0  0  0  0  0  0  0  0  0
   -5.0069    2.4158    0.9377 H   0  0  0  0  0  0  0  0  0  0  0  0
   -2.5212    1.1518    1.0875 H   0  0  0  0  0  0  0  0  0  0  0  0
  1  2  1  0
  2  3  2  0
  3  4  1  0
  4  5  2  0
  5  6  1  0
  6  7  2  0
  6  8  1  0
  8  9  2  0
  9 10  1  0
 10 11  2  0
 11 12  1  0
 12 13  1  0
 12 14  2  0
  4 15  1  0
 15 16  2  0
 16 17  1  0
 17 18  2  0
 18 19  1  0
 19 20  2  0
 20 21  1  0
 21 22  2  0
 22 23  1  0
 22 24  1  0
 24 25  2  0
  7  2  1  0
 14  8  1  0
 25 15  1  0
 24 18  1  0
  1 26  1  0
  1 27  1  0
  9 28  1  0
 10 29  1  0
 11 30  1  0
 14 31  1  0
 16 32  1  0
 17 33  1  0
 19 34  1  0
 21 35  1  0
 23 36  1  0
 23 37  1  0
 25 38  1  0
M  END
$$$$
[H]c1nc2c(C([H])([H])[H])c(C([H])([H])[H])c(-c3c(C([H])(C([H])([H])[H])C([H])([H])[H])c4c([H])c(C5([H])C([H])([H])C([H])([H])N(C([H])([H])C([H])([H])c6nn(C([H])([H])[H])c([H])c6[H])C([H])([H])C5([H])[H])c([H])c([H])c4n3[H])c([H])n2n1
     RDKit          3D

 74 79  0  0  0  0  0  0  0  0999 V2000
   -2.2269   -0.2220   -3.0048 C   0  0  0  0  0  0  0  0  0  0  0  0
   -3.2651   -0.6413   -1.9388 C   0  0  0  0  0  0  0  0  0  0  0  0
   -2.9851   -2.1469   -1.7291 C   0  0  0  0  0  0  0  0  0  0  0  0
   -3.0785    0.1166   -0.6772 C   0  0  0  0  0  0  0  0  0  0  0  0
   -4.0403    0.7150    0.0708 C   0  0  0  0  0  0  0  0  0  0  0  0
   -3.4576    1.3144    1.1620 N   0  0  0  0  0  0  0  0  0  0  0  0
   -2.1407    1.1032    1.1509 C   0  0  0  0  0  0  0  0  0  0  0  0
   -1.2028    1.3848    2.1256 C   0  0  0  0  0  0  0  0  0  0  0  0
    0.0446    0.8580    1.9415 C   0  0  0  0  0  0  0  0  0  0  0  0
    0.3412    0.0971    0.8585 C   0  0  0  0  0  0  0  0  0  0  0  0
   -0.6194   -0.1595   -0.1199 C   0  0  0  0  0  0  0  0  0  0  0  0
   -1.8849    0.3514    0.0159 C   0  0  0  0  0  0  0  0  0  0  0  0
    1.5899   -0.6647    0.7373 C   0  0  0  0  0  0  0  0  0  0  0  0
    2.1420   -0.5978   -0.6457 C   0  0  0  0  0  0  0  0  0  0  0  0
    3.6683   -0.9207   -0.5485 C   0  0  0  0  0  0  0  0  0  0  0  0
    4.2638    0.1348    0.1977 N   0  0  0  0  0  0  0  0  0  0  0  0
    5.6909    0.1175    0.2156 C   0  0  0  0  0  0  0  0  0  0  0  0
    6.2607    0.3645   -1.1677 C   0  0  0  0  0  0  0  0  0  0  0  0
    7.7360    0.3852   -1.0498 C   0  0  0  0  0  0  0  0  0  0  0  0
    8.6531    0.4273   -2.1172 C   0  0  0  0  0  0  0  0  0  0  0  0
    9.9106    0.4893   -1.5567 C   0  0  0  0  0  0  0  0  0  0  0  0
    9.7797    0.4873   -0.2379 N   0  0  0  0  0  0  0  0  0  0  0  0
   10.8203    0.5608    0.7962 C   0  0  0  0  0  0  0  0  0  0  0  0
    8.4948    0.4248    0.0558 N   0  0  0  0  0  0  0  0  0  0  0  0
    3.6151    0.5564    1.3807 C   0  0  0  0  0  0  0  0  0  0  0  0
    2.5906   -0.4576    1.8130 C   0  0  0  0  0  0  0  0  0  0  0  0
   -5.4890    0.6875    0.0161 C   0  0  0  0  0  0  0  0  0  0  0  0
   -6.2609    1.6734   -0.4935 C   0  0  0  0  0  0  0  0  0  0  0  0
   -7.6195    1.6107   -0.3236 N   0  0  0  0  0  0  0  0  0  0  0  0
   -8.6076    2.4100   -0.6646 N   0  0  0  0  0  0  0  0  0  0  0  0
   -9.7981    1.9182   -0.2382 C   0  0  0  0  0  0  0  0  0  0  0  0
   -9.5266    0.7768    0.3851 N   0  0  0  0  0  0  0  0  0  0  0  0
   -8.2058    0.5780    0.3417 C   0  0  0  0  0  0  0  0  0  0  0  0
   -7.4527   -0.4516    0.8742 C   0  0  0  0  0  0  0  0  0  0  0  0
   -8.0443   -1.5892    1.6314 C   0  0  0  0  0  0  0  0  0  0  0  0
   -6.1037   -0.3787    0.7016 C   0  0  0  0  0  0  0  0  0  0  0  0
   -5.2589   -1.4379    1.2462 C   0  0  0  0  0  0  0  0  0  0  0  0
   -1.2095   -0.3681   -2.7933 H   0  0  0  0  0  0  0  0  0  0  0  0
   -2.4828    0.8705   -3.2024 H   0  0  0  0  0  0  0  0  0  0  0  0
   -2.4948   -0.8076   -3.9261 H   0  0  0  0  0  0  0  0  0  0  0  0
   -4.2370   -0.5436   -2.3691 H   0  0  0  0  0  0  0  0  0  0  0  0
   -1.9307   -2.3135   -2.0939 H   0  0  0  0  0  0  0  0  0  0  0  0
   -3.6197   -2.7650   -2.3782 H   0  0  0  0  0  0  0  0  0  0  0  0
   -3.0686   -2.4461   -0.6779 H   0  0  0  0  0  0  0  0  0  0  0  0
   -3.9637    1.8622    1.8911 H   0  0  0  0  0  0  0  0  0  0  0  0
   -1.4197    1.9875    2.9874 H   0  0  0  0  0  0  0  0  0  0  0  0
    0.7798    1.0994    2.7142 H   0  0  0  0  0  0  0  0  0  0  0  0
   -0.3826   -0.7774   -0.9548 H   0  0  0  0  0  0  0  0  0  0  0  0
    1.2185   -1.7700    0.8835 H   0  0  0  0  0  0  0  0  0  0  0  0
    1.9869    0.3530   -1.1671 H   0  0  0  0  0  0  0  0  0  0  0  0
    1.7257   -1.4318   -1.2442 H   0  0  0  0  0  0  0  0  0  0  0  0
    3.6725   -1.8498    0.0674 H   0  0  0  0  0  0  0  0  0  0  0  0
    3.9981   -1.0616   -1.5669 H   0  0  0  0  0  0  0  0  0  0  0  0
    5.9960   -0.9281    0.4981 H   0  0  0  0  0  0  0  0  0  0  0  0
    6.0972    0.8515    0.8971 H   0  0  0  0  0  0  0  0  0  0  0  0
    5.9650    1.3865   -1.5026 H   0  0  0  0  0  0  0  0  0  0  0  0
    5.9861   -0.4309   -1.8783 H   0  0  0  0  0  0  0  0  0  0  0  0
    8.3702    0.4068   -3.1426 H   0  0  0  0  0  0  0  0  0  0  0  0
   10.8307    0.5303   -2.0870 H   0  0  0  0  0  0  0  0  0  0  0  0
   10.4327    1.2684    1.5823 H   0  0  0  0  0  0  0  0  0  0  0  0
   11.7435    0.9536    0.3379 H   0  0  0  0  0  0  0  0  0  0  0  0
   10.9347   -0.4167    1.2976 H   0  0  0  0  0  0  0  0  0  0  0  0
    3.1875    1.5831    1.3267 H   0  0  0  0  0  0  0  0  0  0  0  0
    4.3901    0.5697    2.2132 H   0  0  0  0  0  0  0  0  0  0  0  0
    3.1809   -1.4224    1.9630 H   0  0  0  0  0  0  0  0  0  0  0  0
    2.1674   -0.2764    2.8199 H   0  0  0  0  0  0  0  0  0  0  0  0
   -5.8685    2.5174   -1.0360 H   0  0  0  0  0  0  0  0  0  0  0  0
  -10.7924    2.3708   -0.3700 H   0  0  0  0  0  0  0  0  0  0  0  0
   -7.5202   -1.5571    2.6397 H   0  0  0  0  0  0  0  0  0  0  0  0
   -9.0994   -1.3780    1.8671 H   0  0  0  0  0  0  0  0  0  0  0  0
   -7.8695   -2.5573    1.1460 H   0  0  0  0  0  0  0  0  0  0  0  0
   -5.6476   -1.9679    2.1203 H   0  0  0  0  0  0  0  0  0  0  0  0
   -5.1572   -2.2242    0.4507 H   0  0  0  0  0  0  0  0  0  0  0  0
   -4.2331   -1.1287    1.4828 H   0  0  0  0  0  0  0  0  0  0  0  0
  1  2  1  0
  2  3  1  0
  2  4  1  0
  4  5  2  0
  5  6  1  0
  6  7  1  0
  7  8  2  0
  8  9  1  0
  9 10  2  0
 10 11  1  0
 11 12  2  0
 10 13  1  0
 13 14  1  0
 14 15  1  0
 15 16  1  0
 16 17  1  0
 17 18  1  0
 18 19  1  0
 19 20  1  0
 20 21  2  0
 21 22  1  0
 22 23  1  0
 22 24  1  0
 16 25  1  0
 25 26  1  0
  5 27  1  0
 27 28  2  0
 28 29  1  0
 29 30  1  0
 30 31  2  0
 31 32  1  0
 32 33  2  0
 33 34  1  0
 34 35  1  0
 34 36  2  0
 36 37  1  0
 12  4  1  0
 26 13  1  0
 36 27  1  0
 12  7  1  0
 24 19  2  0
 33 29  1  0
  1 38  1  0
  1 39  1  0
  1 40  1  0
  2 41  1  0
  3 42  1  0
  3 43  1  0
  3 44  1  0
  6 45  1  0
  8 46  1  0
  9 47  1  0
 11 48  1  0
 13 49  1  0
 14 50  1  0
 14 51  1  0
 15 52  1  0
 15 53  1  0
 17 54  1  0
 17 55  1  0
 18 56  1  0
 18 57  1  0
 20 58  1  0
 21 59  1  0
 23 60  1  0
 23 61  1  0
 23 62  1  0
 25 63  1  0
 25 64  1  0
 26 65  1  0
 26 66  1  0
 28 67  1  0
 31 68  1  0
 35 69  1  0
 35 70  1  0
 35 71  1  0
 37 72  1  0
 37 73  1  0
 37 74  1  0
M  END
$$$$
[H]OC(=O)n1c([H])c([H])c2c(N([H])[C@]([H])(C(=O)O[H])C([H])([H])[H])nc([H])nc21
     RDKit          3D

 28 29  0  0  0  0  0  0  0  0999 V2000
   -3.6581   -1.3416    0.2719 C   0  0  0  0  0  0  0  0  0  0  0  0
   -2.7035   -0.2407   -0.1757 C   0  0  2  0  0  0  0  0  0  0  0  0
   -1.3571   -0.6750    0.1193 N   0  0  0  0  0  0  0  0  0  0  0  0
   -0.2054    0.0648   -0.2678 C   0  0  0  0  0  0  0  0  0  0  0  0
   -0.3533    1.2102   -0.9565 N   0  0  0  0  0  0  0  0  0  0  0  0
    0.7402    1.8896   -1.3214 C   0  0  0  0  0  0  0  0  0  0  0  0
    1.9786    1.4539   -1.0159 N   0  0  0  0  0  0  0  0  0  0  0  0
    2.1467    0.3079   -0.3261 C   0  0  0  0  0  0  0  0  0  0  0  0
    3.2599   -0.3254    0.0931 N   0  0  0  0  0  0  0  0  0  0  0  0
    2.8669   -1.4401    0.7438 C   0  0  0  0  0  0  0  0  0  0  0  0
    1.4939   -1.5178    0.7393 C   0  0  0  0  0  0  0  0  0  0  0  0
    1.0501   -0.4074    0.0602 C   0  0  0  0  0  0  0  0  0  0  0  0
    4.6034    0.1006   -0.1117 C   0  0  0  0  0  0  0  0  0  0  0  0
    4.8371    1.2869   -0.8108 O   0  0  0  0  0  0  0  0  0  0  0  0
    5.5449   -0.5989    0.3401 O   0  0  0  0  0  0  0  0  0  0  0  0
   -3.0426    1.0133    0.5574 C   0  0  0  0  0  0  0  0  0  0  0  0
   -4.2812    1.6027    0.3845 O   0  0  0  0  0  0  0  0  0  0  0  0
   -2.2204    1.5458    1.3316 O   0  0  0  0  0  0  0  0  0  0  0  0
   -4.6731   -0.9034    0.3894 H   0  0  0  0  0  0  0  0  0  0  0  0
   -3.6812   -2.1903   -0.4251 H   0  0  0  0  0  0  0  0  0  0  0  0
   -3.3299   -1.6835    1.2721 H   0  0  0  0  0  0  0  0  0  0  0  0
   -2.7862   -0.0804   -1.2505 H   0  0  0  0  0  0  0  0  0  0  0  0
   -1.2292   -1.5684    0.6383 H   0  0  0  0  0  0  0  0  0  0  0  0
    0.6519    2.8259   -1.8835 H   0  0  0  0  0  0  0  0  0  0  0  0
    3.5041   -2.1810    1.2099 H   0  0  0  0  0  0  0  0  0  0  0  0
    0.8952   -2.3132    1.1917 H   0  0  0  0  0  0  0  0  0  0  0  0
    4.4171    2.1282   -0.3977 H   0  0  0  0  0  0  0  0  0  0  0  0
   -4.4689    2.0372   -0.5289 H   0  0  0  0  0  0  0  0  0  0  0  0
  1  2  1  0
  2  3  1  0
  3  4  1  0
  4  5  2  0
  5  6  1  0
  6  7  2  0
  7  8  1  0
  8  9  1  0
  9 10  1  0
 10 11  2  0
 11 12  1  0
  9 13  1  0
 13 14  1  0
 13 15  2  0
  2 16  1  0
 16 17  1  0
 16 18  2  0
 12  4  1  0
 12  8  2  0
  1 19  1  0
  1 20  1  0
  1 21  1  0
  2 22  1  6
  3 23  1  0
  6 24  1  0
 10 25  1  0
 11 26  1  0
 14 27  1  0
 17 28  1  0
M  END
$$$$
[H]c1nc(N([H])C(=O)N([H])C(C([H])([H])[H])(C([H])([H])[H])C([H])([H])[H])c([H])c(Oc2c([H])c([H])c(OC([H])([H])C(=O)N([H])c3c([H])c([H])c(Cl)c([H])c3[H])c(Cl)c2[H])c1[H]
     RDKit          3D

 58 60  0  0  0  0  0  0  0  0999 V2000
   -8.1263    0.1446    1.8402 C   0  0  0  0  0  0  0  0  0  0  0  0
   -8.1232    0.8777    0.4958 C   0  0  0  0  0  0  0  0  0  0  0  0
   -8.5959   -0.0788   -0.5769 C   0  0  0  0  0  0  0  0  0  0  0  0
   -9.1514    1.9826    0.6065 C   0  0  0  0  0  0  0  0  0  0  0  0
   -6.8521    1.4611    0.2054 N   0  0  0  0  0  0  0  0  0  0  0  0
   -5.6632    0.6479    0.0967 C   0  0  0  0  0  0  0  0  0  0  0  0
   -5.7357   -0.6026    0.2593 O   0  0  0  0  0  0  0  0  0  0  0  0
   -4.4068    1.2133   -0.1889 N   0  0  0  0  0  0  0  0  0  0  0  0
   -3.2542    0.3936   -0.2906 C   0  0  0  0  0  0  0  0  0  0  0  0
   -2.0031    0.9455   -0.5738 C   0  0  0  0  0  0  0  0  0  0  0  0
   -0.8731    0.1698   -0.6767 C   0  0  0  0  0  0  0  0  0  0  0  0
    0.3769    0.7512   -0.9633 O   0  0  0  0  0  0  0  0  0  0  0  0
    1.4634   -0.1264   -1.0465 C   0  0  0  0  0  0  0  0  0  0  0  0
    2.2261   -0.4488    0.0390 C   0  0  0  0  0  0  0  0  0  0  0  0
    3.2981   -1.3133   -0.0379 C   0  0  0  0  0  0  0  0  0  0  0  0
    3.6227   -1.8752   -1.2316 C   0  0  0  0  0  0  0  0  0  0  0  0
    4.6788   -2.7487   -1.3723 O   0  0  0  0  0  0  0  0  0  0  0  0
    5.5414   -3.1473   -0.3721 C   0  0  0  0  0  0  0  0  0  0  0  0
    6.3916   -2.0381    0.1922 C   0  0  0  0  0  0  0  0  0  0  0  0
    7.0099   -2.3478    1.2311 O   0  0  0  0  0  0  0  0  0  0  0  0
    6.4928   -0.7680   -0.3887 N   0  0  0  0  0  0  0  0  0  0  0  0
    7.2626    0.2783    0.1244 C   0  0  0  0  0  0  0  0  0  0  0  0
    7.6990    0.4128    1.4154 C   0  0  0  0  0  0  0  0  0  0  0  0
    8.4962    1.4979    1.8217 C   0  0  0  0  0  0  0  0  0  0  0  0
    8.8633    2.4602    0.9369 C   0  0  0  0  0  0  0  0  0  0  0  0
    9.8573    3.7881    1.5017 Cl  0  0  0  0  0  0  0  0  0  0  0  0
    8.4406    2.3538   -0.3656 C   0  0  0  0  0  0  0  0  0  0  0  0
    7.6678    1.2957   -0.7468 C   0  0  0  0  0  0  0  0  0  0  0  0
    2.8652   -1.5674   -2.3569 C   0  0  0  0  0  0  0  0  0  0  0  0
    3.2652   -2.2793   -3.9021 Cl  0  0  0  0  0  0  0  0  0  0  0  0
    1.7979   -0.7018   -2.2611 C   0  0  0  0  0  0  0  0  0  0  0  0
   -1.0165   -1.1818   -0.4898 C   0  0  0  0  0  0  0  0  0  0  0  0
   -2.2520   -1.7208   -0.2109 C   0  0  0  0  0  0  0  0  0  0  0  0
   -3.3178   -0.9396   -0.1197 N   0  0  0  0  0  0  0  0  0  0  0  0
   -9.2109    0.0380    2.1163 H   0  0  0  0  0  0  0  0  0  0  0  0
   -7.6579   -0.8375    1.7843 H   0  0  0  0  0  0  0  0  0  0  0  0
   -7.6900    0.8163    2.6095 H   0  0  0  0  0  0  0  0  0  0  0  0
   -9.6848    0.0157   -0.7571 H   0  0  0  0  0  0  0  0  0  0  0  0
   -8.4200   -1.1179   -0.2054 H   0  0  0  0  0  0  0  0  0  0  0  0
   -8.0858    0.0730   -1.5398 H   0  0  0  0  0  0  0  0  0  0  0  0
   -9.4162    2.2665   -0.4533 H   0  0  0  0  0  0  0  0  0  0  0  0
  -10.0570    1.5071    1.0780 H   0  0  0  0  0  0  0  0  0  0  0  0
   -8.7801    2.8430    1.1660 H   0  0  0  0  0  0  0  0  0  0  0  0
   -6.7326    2.4857    0.0618 H   0  0  0  0  0  0  0  0  0  0  0  0
   -4.3260    2.2355   -0.3255 H   0  0  0  0  0  0  0  0  0  0  0  0
   -1.9495    2.0259   -0.7126 H   0  0  0  0  0  0  0  0  0  0  0  0
    1.9921   -0.0157    1.0079 H   0  0  0  0  0  0  0  0  0  0  0  0
    3.8613   -1.5345    0.8646 H   0  0  0  0  0  0  0  0  0  0  0  0
    6.2152   -3.9703   -0.6470 H   0  0  0  0  0  0  0  0  0  0  0  0
    4.9450   -3.5225    0.4948 H   0  0  0  0  0  0  0  0  0  0  0  0
    5.9578   -0.5552   -1.3075 H   0  0  0  0  0  0  0  0  0  0  0  0
    7.4171   -0.3215    2.1619 H   0  0  0  0  0  0  0  0  0  0  0  0
    8.7865    1.5136    2.8494 H   0  0  0  0  0  0  0  0  0  0  0  0
    8.7408    3.1280   -1.0584 H   0  0  0  0  0  0  0  0  0  0  0  0
    7.3493    1.2325   -1.7719 H   0  0  0  0  0  0  0  0  0  0  0  0
    1.2332   -0.4868   -3.1562 H   0  0  0  0  0  0  0  0  0  0  0  0
   -0.1114   -1.8016   -0.5725 H   0  0  0  0  0  0  0  0  0  0  0  0
   -2.3215   -2.8058   -0.0687 H   0  0  0  0  0  0  0  0  0  0  0  0
  1  2  1  0
  2  3  1  0
  2  4  1  0
  2  5  1  0
  5  6  1  0
  6  7  2  0
  6  8  1  0
  8  9  1  0
  9 10  2  0
 10 11  1  0
 11 12  1  0
 12 13  1  0
 13 14  2  0
 14 15  1  0
 15 16  2  0
 16 17  1  0
 17 18  1  0
 18 19  1  0
 19 20  2  0
 19 21  1  0
 21 22  1  0
 22 23  2  0
 23 24  1  0
 24 25  2  0
 25 26  1  0
 25 27  1  0
 27 28  2  0
 16 29  1  0
 29 30  1  0
 29 31  2  0
 11 32  2  0
 32 33  1  0
 33 34  2  0
 34  9  1  0
 31 13  1  0
 28 22  1  0
  1 35  1  0
  1 36  1  0
  1 37  1  0
  3 38  1  0
  3 39  1  0
  3 40  1  0
  4 41  1  0
  4 42  1  0
  4 43  1  0
  5 44  1  0
  8 45  1  0
 10 46  1  0
 14 47  1  0
 15 48  1  0
 18 49  1  0
 18 50  1  0
 21 51  1  0
 23 52  1  0
 24 53  1  0
 27 54  1  0
 28 55  1  0
 31 56  1  0
 32 57  1  0
 33 58  1  0
M  END
$$$$
[H]c1c(N([H])[H])c([H])c2c(C(=O)OC3([H])C4([H])C([H])([H])C5([H])C([H])([H])C([H])(C4([H])[H])C([H])([H])C3([H])C5([H])[H])[n+](OC([H])(C([H])([H])[H])C([H])([H])[H])c(C([H])([H])[H])nc2c1[H]
     RDKit          3D

 59 63  0  0  0  0  0  0  0  0999 V2000
   -0.9163   -2.6402   -1.9220 C   0  0  0  0  0  0  0  0  0  0  0  0
   -1.8466   -1.5907   -1.4211 C   0  0  0  0  0  0  0  0  0  0  0  0
   -3.2234   -1.9598   -2.0343 C   0  0  0  0  0  0  0  0  0  0  0  0
   -1.9302   -1.4806   -0.0063 O   0  0  0  0  0  0  0  0  0  0  0  0
   -2.4789   -0.3388    0.5734 N   0  0  0  0  0  0  0  0  0  0  0  0
   -3.7427   -0.4876    1.0200 C   0  0  0  0  0  0  0  0  0  0  0  0
   -4.3454   -1.8498    1.0424 C   0  0  0  0  0  0  0  0  0  0  0  0
   -4.4087    0.5733    1.4780 N   0  0  0  0  0  0  0  0  0  0  0  0
   -3.8282    1.7897    1.4991 C   0  0  0  0  0  0  0  0  0  0  0  0
   -4.5237    2.8779    1.9735 C   0  0  0  0  0  0  0  0  0  0  0  0
   -3.9398    4.1041    1.9985 C   0  0  0  0  0  0  0  0  0  0  0  0
   -2.6575    4.3220    1.5637 C   0  0  0  0  0  0  0  0  0  0  0  0
   -2.0418    5.6041    1.5880 N   0  0  0  0  0  0  0  0  0  0  0  0
   -1.9583    3.1942    1.0800 C   0  0  0  0  0  0  0  0  0  0  0  0
   -2.5233    1.9452    1.0434 C   0  0  0  0  0  0  0  0  0  0  0  0
   -1.8017    0.8327    0.5565 C   0  0  0  0  0  0  0  0  0  0  0  0
   -0.4089    0.9222    0.2339 C   0  0  0  0  0  0  0  0  0  0  0  0
    0.1709    2.0129    0.0687 O   0  0  0  0  0  0  0  0  0  0  0  0
    0.4690   -0.1721    0.0795 O   0  0  0  0  0  0  0  0  0  0  0  0
    1.8313    0.0199   -0.2158 C   0  0  0  0  0  0  0  0  0  0  0  0
    2.3821   -0.6404   -1.4139 C   0  0  0  0  0  0  0  0  0  0  0  0
    3.6697    0.1508   -1.7561 C   0  0  0  0  0  0  0  0  0  0  0  0
    4.6071    0.0955   -0.5858 C   0  0  0  0  0  0  0  0  0  0  0  0
    5.0642   -1.3407   -0.4030 C   0  0  0  0  0  0  0  0  0  0  0  0
    3.8528   -2.1665   -0.1205 C   0  0  0  0  0  0  0  0  0  0  0  0
    2.8343   -2.0613   -1.2543 C   0  0  0  0  0  0  0  0  0  0  0  0
    3.1257   -1.7047    1.1066 C   0  0  0  0  0  0  0  0  0  0  0  0
    2.7364   -0.2729    0.9941 C   0  0  0  0  0  0  0  0  0  0  0  0
    4.0189    0.5313    0.7177 C   0  0  0  0  0  0  0  0  0  0  0  0
   -1.4842   -3.4531   -2.4081 H   0  0  0  0  0  0  0  0  0  0  0  0
   -0.3054   -3.1039   -1.1134 H   0  0  0  0  0  0  0  0  0  0  0  0
   -0.2683   -2.1900   -2.7069 H   0  0  0  0  0  0  0  0  0  0  0  0
   -1.6233   -0.5956   -1.8479 H   0  0  0  0  0  0  0  0  0  0  0  0
   -2.9732   -2.0414   -3.1390 H   0  0  0  0  0  0  0  0  0  0  0  0
   -3.9461   -1.1605   -1.9555 H   0  0  0  0  0  0  0  0  0  0  0  0
   -3.5275   -2.9541   -1.7393 H   0  0  0  0  0  0  0  0  0  0  0  0
   -4.7741   -1.9406    2.0906 H   0  0  0  0  0  0  0  0  0  0  0  0
   -5.1987   -1.9850    0.3847 H   0  0  0  0  0  0  0  0  0  0  0  0
   -3.6133   -2.6624    0.9853 H   0  0  0  0  0  0  0  0  0  0  0  0
   -5.5397    2.6901    2.3150 H   0  0  0  0  0  0  0  0  0  0  0  0
   -4.5052    4.9447    2.3755 H   0  0  0  0  0  0  0  0  0  0  0  0
   -1.4362    5.9535    0.8374 H   0  0  0  0  0  0  0  0  0  0  0  0
   -2.2123    6.2350    2.4188 H   0  0  0  0  0  0  0  0  0  0  0  0
   -0.9561    3.4098    0.7502 H   0  0  0  0  0  0  0  0  0  0  0  0
    2.0048    1.1402   -0.3477 H   0  0  0  0  0  0  0  0  0  0  0  0
    1.6939   -0.5858   -2.2666 H   0  0  0  0  0  0  0  0  0  0  0  0
    3.3121    1.1807   -1.9583 H   0  0  0  0  0  0  0  0  0  0  0  0
    4.1606   -0.3038   -2.6154 H   0  0  0  0  0  0  0  0  0  0  0  0
    5.4725    0.7504   -0.8013 H   0  0  0  0  0  0  0  0  0  0  0  0
    5.7266   -1.3882    0.4794 H   0  0  0  0  0  0  0  0  0  0  0  0
    5.5583   -1.6431   -1.3256 H   0  0  0  0  0  0  0  0  0  0  0  0
    4.1710   -3.2219   -0.0265 H   0  0  0  0  0  0  0  0  0  0  0  0
    3.3827   -2.3386   -2.1803 H   0  0  0  0  0  0  0  0  0  0  0  0
    2.0567   -2.7823   -1.0222 H   0  0  0  0  0  0  0  0  0  0  0  0
    3.7524   -1.8221    1.9878 H   0  0  0  0  0  0  0  0  0  0  0  0
    2.1847   -2.3245    1.1672 H   0  0  0  0  0  0  0  0  0  0  0  0
    2.2450    0.0472    1.9121 H   0  0  0  0  0  0  0  0  0  0  0  0
    3.7417    1.6066    0.7472 H   0  0  0  0  0  0  0  0  0  0  0  0
    4.7139    0.2693    1.5190 H   0  0  0  0  0  0  0  0  0  0  0  0
  1  2  1  0
  2  3  1  0
  2  4  1  0
  4  5  1  0
  5  6  2  0
  6  7  1  0
  6  8  1  0
  8  9  2  0
  9 10  1  0
 10 11  2  0
 11 12  1  0
 12 13  1  0
 12 14  2  0
 14 15  1  0
 15 16  2  0
 16 17  1  0
 17 18  2  0
 17 19  1  0
 19 20  1  0
 20 21  1  0
 21 22  1  0
 22 23  1  0
 23 24  1  0
 24 25  1  0
 25 26  1  0
 25 27  1  0
 27 28  1  0
 28 29  1  0
 16  5  1  0
 28 20  1  0
 15  9  1  0
 26 21  1  0
 29 23  1  0
  1 30  1  0
  1 31  1  0
  1 32  1  0
  2 33  1  0
  3 34  1  0
  3 35  1  0
  3 36  1  0
  7 37  1  0
  7 38  1  0
  7 39  1  0
 10 40  1  0
 11 41  1  0
 13 42  1  0
 13 43  1  0
 14 44  1  0
 20 45  1  0
 21 46  1  0
 22 47  1  0
 22 48  1  0
 23 49  1  0
 24 50  1  0
 24 51  1  0
 25 52  1  0
 26 53  1  0
 26 54  1  0
 27 55  1  0
 27 56  1  0
 28 57  1  0
 29 58  1  0
 29 59  1  0
M  CHG  1   5   1
M  END
$$$$
[H]OC(=O)c1c([H])c(C(=O)N([H])C(C([H])([H])[H])(C([H])([H])[H])C([H])([H])[H])c([H])c(N([H])C([H])([H])C([H])([H])N([H])C(=O)c2sc(O[H])c([H])c2[H])c1[H]
     RDKit          3D

 51 52  0  0  0  0  0  0  0  0999 V2000
   -5.8972   -2.6921   -0.9501 C   0  0  0  0  0  0  0  0  0  0  0  0
   -5.1709   -2.4243    0.3714 C   0  0  0  0  0  0  0  0  0  0  0  0
   -6.1878   -1.8448    1.3263 C   0  0  0  0  0  0  0  0  0  0  0  0
   -4.7059   -3.7622    0.8749 C   0  0  0  0  0  0  0  0  0  0  0  0
   -4.1197   -1.5006    0.0703 N   0  0  0  0  0  0  0  0  0  0  0  0
   -3.0369   -1.6890   -0.8057 C   0  0  0  0  0  0  0  0  0  0  0  0
   -2.9183   -2.7733   -1.4308 O   0  0  0  0  0  0  0  0  0  0  0  0
   -2.0411   -0.6421   -1.0096 C   0  0  0  0  0  0  0  0  0  0  0  0
   -0.9886   -0.4070   -0.1244 C   0  0  0  0  0  0  0  0  0  0  0  0
   -0.0663    0.5897   -0.3068 C   0  0  0  0  0  0  0  0  0  0  0  0
    0.9973    0.8380    0.6286 N   0  0  0  0  0  0  0  0  0  0  0  0
    1.7902    1.9953    0.4170 C   0  0  0  0  0  0  0  0  0  0  0  0
    2.8378    2.2587    1.4356 C   0  0  0  0  0  0  0  0  0  0  0  0
    3.8379    1.3041    1.5412 N   0  0  0  0  0  0  0  0  0  0  0  0
    4.7850    0.3946    1.6426 C   0  0  0  0  0  0  0  0  0  0  0  0
    4.7078   -0.8357    1.9814 O   0  0  0  0  0  0  0  0  0  0  0  0
    6.2194    0.7707    1.3349 C   0  0  0  0  0  0  0  0  0  0  0  0
    6.6808    2.0017    0.9535 C   0  0  0  0  0  0  0  0  0  0  0  0
    7.9957    2.1164    0.7389 C   0  0  0  0  0  0  0  0  0  0  0  0
    8.7714    1.0178    0.9119 C   0  0  0  0  0  0  0  0  0  0  0  0
   10.1628    0.8586    0.7577 O   0  0  0  0  0  0  0  0  0  0  0  0
    7.6292   -0.1808    1.3806 S   0  0  0  0  0  0  0  0  0  0  0  0
   -0.2096    1.3722   -1.4163 C   0  0  0  0  0  0  0  0  0  0  0  0
   -1.2050    1.2272   -2.3456 C   0  0  0  0  0  0  0  0  0  0  0  0
   -2.1223    0.1907   -2.1096 C   0  0  0  0  0  0  0  0  0  0  0  0
   -1.3375    2.0817   -3.5090 C   0  0  0  0  0  0  0  0  0  0  0  0
   -2.3640    1.8385   -4.4003 O   0  0  0  0  0  0  0  0  0  0  0  0
   -0.5496    3.0132   -3.7037 O   0  0  0  0  0  0  0  0  0  0  0  0
   -6.9309   -3.0037   -0.7692 H   0  0  0  0  0  0  0  0  0  0  0  0
   -5.8982   -1.7265   -1.5112 H   0  0  0  0  0  0  0  0  0  0  0  0
   -5.3517   -3.4406   -1.5465 H   0  0  0  0  0  0  0  0  0  0  0  0
   -6.2335   -2.4365    2.2666 H   0  0  0  0  0  0  0  0  0  0  0  0
   -5.9476   -0.7991    1.6122 H   0  0  0  0  0  0  0  0  0  0  0  0
   -7.1718   -1.8150    0.8358 H   0  0  0  0  0  0  0  0  0  0  0  0
   -5.5842   -4.4730    0.7768 H   0  0  0  0  0  0  0  0  0  0  0  0
   -3.9105   -4.2004    0.2842 H   0  0  0  0  0  0  0  0  0  0  0  0
   -4.5118   -3.6939    1.9609 H   0  0  0  0  0  0  0  0  0  0  0  0
   -4.1808   -0.5669    0.5720 H   0  0  0  0  0  0  0  0  0  0  0  0
   -0.9235   -1.0602    0.7423 H   0  0  0  0  0  0  0  0  0  0  0  0
    1.1429    0.1704    1.4249 H   0  0  0  0  0  0  0  0  0  0  0  0
    2.2681    1.9834   -0.6242 H   0  0  0  0  0  0  0  0  0  0  0  0
    1.1201    2.9152    0.3475 H   0  0  0  0  0  0  0  0  0  0  0  0
    3.3781    3.2521    1.1462 H   0  0  0  0  0  0  0  0  0  0  0  0
    2.3121    2.4924    2.4202 H   0  0  0  0  0  0  0  0  0  0  0  0
    2.8834    0.3827    1.9911 H   0  0  0  0  0  0  0  0  0  0  0  0
    5.9559    2.8375    0.8471 H   0  0  0  0  0  0  0  0  0  0  0  0
    8.4676    3.0783    0.4301 H   0  0  0  0  0  0  0  0  0  0  0  0
   10.7371    0.8256    1.6070 H   0  0  0  0  0  0  0  0  0  0  0  0
    0.5159    2.1836   -1.5885 H   0  0  0  0  0  0  0  0  0  0  0  0
   -2.9114    0.0541   -2.8295 H   0  0  0  0  0  0  0  0  0  0  0  0
   -2.7202    0.9289   -4.6507 H   0  0  0  0  0  0  0  0  0  0  0  0
  1  2  1  0
  2  3  1  0
  2  4  1  0
  2  5  1  0
  5  6  1  0
  6  7  2  0
  6  8  1  0
  8  9  2  0
  9 10  1  0
 10 11  1  0
 11 12  1  0
 12 13  1  0
 13 14  1  0
 14 15  1  0
 15 16  2  0
 15 17  1  0
 17 18  2  0
 18 19  1  0
 19 20  2  0
 20 21  1  0
 20 22  1  0
 10 23  2  0
 23 24  1  0
 24 25  2  0
 24 26  1  0
 26 27  1  0
 26 28  2  0
 25  8  1  0
 22 17  1  0
  1 29  1  0
  1 30  1  0
  1 31  1  0
  3 32  1  0
  3 33  1  0
  3 34  1  0
  4 35  1  0
  4 36  1  0
  4 37  1  0
  5 38  1  0
  9 39  1  0
 11 40  1  0
 12 41  1  0
 12 42  1  0
 13 43  1  0
 13 44  1  0
 14 45  1  0
 18 46  1  0
 19 47  1  0
 21 48  1  0
 23 49  1  0
 25 50  1  0
 27 51  1  0
M  END
$$$$
[H]Oc1c([H])c([H])c2c(c1[H])OC([H])([H])C([H])(c1c([H])c([H])c([H])c(C(=O)C([H])([H])[H])c1[H])O2
     RDKit          3D

 34 36  0  0  0  0  0  0  0  0999 V2000
    4.0953    2.4794    0.9413 C   0  0  0  0  0  0  0  0  0  0  0  0
    2.7459    1.9424    0.6574 C   0  0  0  0  0  0  0  0  0  0  0  0
    1.7795    2.7420    0.6403 O   0  0  0  0  0  0  0  0  0  0  0  0
    2.5977    0.5169    0.4113 C   0  0  0  0  0  0  0  0  0  0  0  0
    3.6601   -0.3310    0.4355 C   0  0  0  0  0  0  0  0  0  0  0  0
    3.4503   -1.6912    0.1904 C   0  0  0  0  0  0  0  0  0  0  0  0
    2.1913   -2.1897   -0.0747 C   0  0  0  0  0  0  0  0  0  0  0  0
    1.1104   -1.3337   -0.1003 C   0  0  0  0  0  0  0  0  0  0  0  0
    1.3298    0.0060    0.1430 C   0  0  0  0  0  0  0  0  0  0  0  0
   -0.2523   -1.8483   -0.3833 C   0  0  0  0  0  0  0  0  0  0  0  0
   -1.0404   -2.0953    0.8830 C   0  0  0  0  0  0  0  0  0  0  0  0
   -1.8333   -0.9796    1.2228 O   0  0  0  0  0  0  0  0  0  0  0  0
   -2.5411   -0.2827    0.2592 C   0  0  0  0  0  0  0  0  0  0  0  0
   -3.6860    0.4394    0.5236 C   0  0  0  0  0  0  0  0  0  0  0  0
   -4.3619    1.1236   -0.4809 C   0  0  0  0  0  0  0  0  0  0  0  0
   -5.5117    1.8300   -0.1300 O   0  0  0  0  0  0  0  0  0  0  0  0
   -3.8905    1.0895   -1.7739 C   0  0  0  0  0  0  0  0  0  0  0  0
   -2.7406    0.3643   -2.0400 C   0  0  0  0  0  0  0  0  0  0  0  0
   -2.0706   -0.3158   -1.0362 C   0  0  0  0  0  0  0  0  0  0  0  0
   -0.9324   -1.0339   -1.2981 O   0  0  0  0  0  0  0  0  0  0  0  0
    4.7949    2.0302    0.2011 H   0  0  0  0  0  0  0  0  0  0  0  0
    4.4401    2.2299    1.9700 H   0  0  0  0  0  0  0  0  0  0  0  0
    4.1080    3.5765    0.7998 H   0  0  0  0  0  0  0  0  0  0  0  0
    4.6570    0.0444    0.6424 H   0  0  0  0  0  0  0  0  0  0  0  0
    4.3420   -2.3148    0.2245 H   0  0  0  0  0  0  0  0  0  0  0  0
    2.1074   -3.2473   -0.2535 H   0  0  0  0  0  0  0  0  0  0  0  0
    0.4676    0.6643    0.1187 H   0  0  0  0  0  0  0  0  0  0  0  0
   -0.1338   -2.8539   -0.8850 H   0  0  0  0  0  0  0  0  0  0  0  0
   -1.7133   -2.9849    0.7188 H   0  0  0  0  0  0  0  0  0  0  0  0
   -0.3434   -2.3023    1.7442 H   0  0  0  0  0  0  0  0  0  0  0  0
   -4.0368    0.4494    1.5553 H   0  0  0  0  0  0  0  0  0  0  0  0
   -6.0411    2.3433   -0.8152 H   0  0  0  0  0  0  0  0  0  0  0  0
   -4.4110    1.6214   -2.5699 H   0  0  0  0  0  0  0  0  0  0  0  0
   -2.3369    0.3115   -3.0412 H   0  0  0  0  0  0  0  0  0  0  0  0
  1  2  1  0
  2  3  2  0
  2  4  1  0
  4  5  2  0
  5  6  1  0
  6  7  2  0
  7  8  1  0
  8  9  2  0
  8 10  1  0
 10 11  1  0
 11 12  1  0
 12 13  1  0
 13 14  2  0
 14 15  1  0
 15 16  1  0
 15 17  2  0
 17 18  1  0
 18 19  2  0
 19 20  1  0
  9  4  1  0
 20 10  1  0
 19 13  1  0
  1 21  1  0
  1 22  1  0
  1 23  1  0
  5 24  1  0
  6 25  1  0
  7 26  1  0
  9 27  1  0
 10 28  1  0
 11 29  1  0
 11 30  1  0
 14 31  1  0
 16 32  1  0
 17 33  1  0
 18 34  1  0
M  END
$$$$
[H]OC(=O)C(c1c([H])c([H])c([H])c(Oc2c([H])c([H])c(-c3c([H])c(-c4c([H])c([H])c(S(=O)(=O)C([H])([H])[H])c([H])c4[H])nn3C([H])([H])C([H])([H])C([H])([H])[H])c([H])c2[H])c1[H])(C([H])([H])[H])C([H])([H])[H]
     RDKit          3D

 67 70  0  0  0  0  0  0  0  0999 V2000
   -2.6408   -2.5579    3.2870 C   0  0  0  0  0  0  0  0  0  0  0  0
   -1.2752   -1.9626    3.0410 C   0  0  0  0  0  0  0  0  0  0  0  0
   -1.3502   -0.4943    2.6753 C   0  0  0  0  0  0  0  0  0  0  0  0
   -2.1126   -0.2304    1.4836 N   0  0  0  0  0  0  0  0  0  0  0  0
   -3.4516   -0.0338    1.4883 N   0  0  0  0  0  0  0  0  0  0  0  0
   -3.9165    0.1928    0.2814 C   0  0  0  0  0  0  0  0  0  0  0  0
   -2.8352    0.1449   -0.5703 C   0  0  0  0  0  0  0  0  0  0  0  0
   -1.7005   -0.1268    0.2285 C   0  0  0  0  0  0  0  0  0  0  0  0
   -0.3744   -0.1879   -0.3979 C   0  0  0  0  0  0  0  0  0  0  0  0
   -0.2244    0.2051   -1.7195 C   0  0  0  0  0  0  0  0  0  0  0  0
    0.9696    0.1572   -2.4032 C   0  0  0  0  0  0  0  0  0  0  0  0
    2.0929   -0.3026   -1.7611 C   0  0  0  0  0  0  0  0  0  0  0  0
    3.2815   -0.3422   -2.4655 O   0  0  0  0  0  0  0  0  0  0  0  0
    4.4498   -0.8062   -1.8452 C   0  0  0  0  0  0  0  0  0  0  0  0
    4.8042   -2.1342   -1.8810 C   0  0  0  0  0  0  0  0  0  0  0  0
    5.9423   -2.5800   -1.2758 C   0  0  0  0  0  0  0  0  0  0  0  0
    6.7761   -1.6771   -0.6004 C   0  0  0  0  0  0  0  0  0  0  0  0
    6.4560   -0.3464   -0.5432 C   0  0  0  0  0  0  0  0  0  0  0  0
    5.2824    0.0535   -1.1787 C   0  0  0  0  0  0  0  0  0  0  0  0
    7.3106    0.6297    0.1661 C   0  0  0  0  0  0  0  0  0  0  0  0
    8.6041    0.8812   -0.6053 C   0  0  0  0  0  0  0  0  0  0  0  0
    6.5961    1.9738    0.3017 C   0  0  0  0  0  0  0  0  0  0  0  0
    7.7257    0.1782    1.5089 C   0  0  0  0  0  0  0  0  0  0  0  0
    8.5065   -0.9392    1.7504 O   0  0  0  0  0  0  0  0  0  0  0  0
    7.3338    0.8726    2.5070 O   0  0  0  0  0  0  0  0  0  0  0  0
    2.0050   -0.7035   -0.4586 C   0  0  0  0  0  0  0  0  0  0  0  0
    0.7656   -0.6421    0.2133 C   0  0  0  0  0  0  0  0  0  0  0  0
   -5.2880    0.4543   -0.1712 C   0  0  0  0  0  0  0  0  0  0  0  0
   -6.3451    0.4940    0.7144 C   0  0  0  0  0  0  0  0  0  0  0  0
   -7.6427    0.7351    0.3361 C   0  0  0  0  0  0  0  0  0  0  0  0
   -7.9091    0.9498   -0.9993 C   0  0  0  0  0  0  0  0  0  0  0  0
   -6.8663    0.9160   -1.9135 C   0  0  0  0  0  0  0  0  0  0  0  0
   -5.5537    0.6680   -1.4996 C   0  0  0  0  0  0  0  0  0  0  0  0
   -9.5446    1.2601   -1.5229 S   0  0  0  0  0  0  0  0  0  0  0  0
   -9.8733    2.9963   -1.4932 C   0  0  0  0  0  0  0  0  0  0  0  0
   -9.7175    0.6967   -2.9047 O   0  0  0  0  0  0  0  0  0  0  0  0
  -10.5104    0.5592   -0.6104 O   0  0  0  0  0  0  0  0  0  0  0  0
   -3.0486   -2.1770    4.2393 H   0  0  0  0  0  0  0  0  0  0  0  0
   -3.3167   -2.4464    2.4268 H   0  0  0  0  0  0  0  0  0  0  0  0
   -2.4815   -3.6592    3.4109 H   0  0  0  0  0  0  0  0  0  0  0  0
   -0.7116   -2.0470    3.9924 H   0  0  0  0  0  0  0  0  0  0  0  0
   -0.7855   -2.5321    2.2411 H   0  0  0  0  0  0  0  0  0  0  0  0
   -1.9459    0.0013    3.5444 H   0  0  0  0  0  0  0  0  0  0  0  0
   -0.3821   -0.0357    2.7715 H   0  0  0  0  0  0  0  0  0  0  0  0
   -2.8709    0.2842   -1.6398 H   0  0  0  0  0  0  0  0  0  0  0  0
   -1.0860    0.5820   -2.2587 H   0  0  0  0  0  0  0  0  0  0  0  0
    0.9942    0.4893   -3.4462 H   0  0  0  0  0  0  0  0  0  0  0  0
    4.1655   -2.8323   -2.3996 H   0  0  0  0  0  0  0  0  0  0  0  0
    6.1795   -3.6232   -1.3288 H   0  0  0  0  0  0  0  0  0  0  0  0
    7.6409   -2.1049   -0.1632 H   0  0  0  0  0  0  0  0  0  0  0  0
    5.0439    1.0936   -1.1270 H   0  0  0  0  0  0  0  0  0  0  0  0
    9.2758    1.4755    0.0508 H   0  0  0  0  0  0  0  0  0  0  0  0
    8.3582    1.5468   -1.4688 H   0  0  0  0  0  0  0  0  0  0  0  0
    9.0733   -0.0416   -0.9482 H   0  0  0  0  0  0  0  0  0  0  0  0
    5.5846    1.8575    0.7248 H   0  0  0  0  0  0  0  0  0  0  0  0
    7.1519    2.6464    0.9780 H   0  0  0  0  0  0  0  0  0  0  0  0
    6.5846    2.4811   -0.7034 H   0  0  0  0  0  0  0  0  0  0  0  0
    9.3706   -0.7747    2.2885 H   0  0  0  0  0  0  0  0  0  0  0  0
    2.8795   -1.0764    0.0883 H   0  0  0  0  0  0  0  0  0  0  0  0
    0.7724   -0.9866    1.2213 H   0  0  0  0  0  0  0  0  0  0  0  0
   -6.1462    0.3269    1.7640 H   0  0  0  0  0  0  0  0  0  0  0  0
   -8.4740    0.7671    1.0266 H   0  0  0  0  0  0  0  0  0  0  0  0
   -7.1156    1.0881   -2.9436 H   0  0  0  0  0  0  0  0  0  0  0  0
   -4.7797    0.6539   -2.2617 H   0  0  0  0  0  0  0  0  0  0  0  0
  -10.9463    3.2102   -1.6125 H   0  0  0  0  0  0  0  0  0  0  0  0
   -9.4607    3.4357   -0.5749 H   0  0  0  0  0  0  0  0  0  0  0  0
   -9.2937    3.4461   -2.3437 H   0  0  0  0  0  0  0  0  0  0  0  0
  1  2  1  0
  2  3  1  0
  3  4  1  0
  4  5  1  0
  5  6  2  0
  6  7  1  0
  7  8  2  0
  8  9  1  0
  9 10  2  0
 10 11  1  0
 11 12  2  0
 12 13  1  0
 13 14  1  0
 14 15  2  0
 15 16  1  0
 16 17  2  0
 17 18  1  0
 18 19  2  0
 18 20  1  0
 20 21  1  0
 20 22  1  0
 20 23  1  0
 23 24  1  0
 23 25  2  0
 12 26  1  0
 26 27  2  0
  6 28  1  0
 28 29  2  0
 29 30  1  0
 30 31  2  0
 31 32  1  0
 32 33  2  0
 31 34  1  0
 34 35  1  0
 34 36  2  0
 34 37  2  0
  8  4  1  0
 27  9  1  0
 33 28  1  0
 19 14  1  0
  1 38  1  0
  1 39  1  0
  1 40  1  0
  2 41  1  0
  2 42  1  0
  3 43  1  0
  3 44  1  0
  7 45  1  0
 10 46  1  0
 11 47  1  0
 15 48  1  0
 16 49  1  0
 17 50  1  0
 19 51  1  0
 21 52  1  0
 21 53  1  0
 21 54  1  0
 22 55  1  0
 22 56  1  0
 22 57  1  0
 24 58  1  0
 26 59  1  0
 27 60  1  0
 29 61  1  0
 30 62  1  0
 32 63  1  0
 33 64  1  0
 35 65  1  0
 35 66  1  0
 35 67  1  0
M  END
$$$$
[H]OC(=O)C([H])([H])c1c([H])c([H])c([H])c([H])c1C(=O)c1c([H])c([H])c2c(c1[H])OC([H])([H])O2
     RDKit          3D

 33 35  0  0  0  0  0  0  0  0999 V2000
   -4.5065   -2.8967    0.1045 O   0  0  0  0  0  0  0  0  0  0  0  0
   -3.7593   -1.9094   -0.5635 C   0  0  0  0  0  0  0  0  0  0  0  0
   -4.1135   -1.5221   -1.6885 O   0  0  0  0  0  0  0  0  0  0  0  0
   -2.5733   -1.3868    0.1402 C   0  0  0  0  0  0  0  0  0  0  0  0
   -2.4821    0.0915    0.1683 C   0  0  0  0  0  0  0  0  0  0  0  0
   -3.6559    0.7799   -0.0417 C   0  0  0  0  0  0  0  0  0  0  0  0
   -3.5926    2.1613    0.0114 C   0  0  0  0  0  0  0  0  0  0  0  0
   -2.4081    2.7973    0.2642 C   0  0  0  0  0  0  0  0  0  0  0  0
   -1.2235    2.1022    0.4772 C   0  0  0  0  0  0  0  0  0  0  0  0
   -1.2575    0.7357    0.4273 C   0  0  0  0  0  0  0  0  0  0  0  0
   -0.0941   -0.0520    0.6870 C   0  0  0  0  0  0  0  0  0  0  0  0
   -0.3330   -1.0246    1.5407 O   0  0  0  0  0  0  0  0  0  0  0  0
    1.2526    0.0483    0.1749 C   0  0  0  0  0  0  0  0  0  0  0  0
    1.7500    1.1105   -0.4936 C   0  0  0  0  0  0  0  0  0  0  0  0
    3.0757    1.2073   -0.9600 C   0  0  0  0  0  0  0  0  0  0  0  0
    3.9356    0.1447   -0.7207 C   0  0  0  0  0  0  0  0  0  0  0  0
    5.2824   -0.0631   -1.0455 O   0  0  0  0  0  0  0  0  0  0  0  0
    5.7597   -1.0692   -0.1368 C   0  0  0  0  0  0  0  0  0  0  0  0
    4.5468   -1.8252    0.0240 O   0  0  0  0  0  0  0  0  0  0  0  0
    3.4609   -0.9400   -0.0515 C   0  0  0  0  0  0  0  0  0  0  0  0
    2.1587   -1.0199    0.4004 C   0  0  0  0  0  0  0  0  0  0  0  0
   -4.0300   -3.5078    0.7680 H   0  0  0  0  0  0  0  0  0  0  0  0
   -1.6308   -1.7578   -0.3646 H   0  0  0  0  0  0  0  0  0  0  0  0
   -2.5932   -1.7057    1.2213 H   0  0  0  0  0  0  0  0  0  0  0  0
   -4.6161    0.3020   -0.2358 H   0  0  0  0  0  0  0  0  0  0  0  0
   -4.5369    2.7129   -0.1596 H   0  0  0  0  0  0  0  0  0  0  0  0
   -2.3745    3.8809    0.3005 H   0  0  0  0  0  0  0  0  0  0  0  0
   -0.3140    2.6882    0.7095 H   0  0  0  0  0  0  0  0  0  0  0  0
    1.1185    1.9716   -0.7383 H   0  0  0  0  0  0  0  0  0  0  0  0
    3.4389    2.0764   -1.4852 H   0  0  0  0  0  0  0  0  0  0  0  0
    5.9568   -0.6151    0.8680 H   0  0  0  0  0  0  0  0  0  0  0  0
    6.5830   -1.6503   -0.5275 H   0  0  0  0  0  0  0  0  0  0  0  0
    1.7756   -1.8652    0.9254 H   0  0  0  0  0  0  0  0  0  0  0  0
  1  2  1  0
  2  3  2  0
  2  4  1  0
  4  5  1  0
  5  6  2  0
  6  7  1  0
  7  8  2  0
  8  9  1  0
  9 10  2  0
 10 11  1  0
 11 12  2  0
 11 13  1  0
 13 14  2  0
 14 15  1  0
 15 16  2  0
 16 17  1  0
 17 18  1  0
 18 19  1  0
 19 20  1  0
 20 21  2  0
 10  5  1  0
 21 13  1  0
 20 16  1  0
  1 22  1  0
  4 23  1  0
  4 24  1  0
  6 25  1  0
  7 26  1  0
  8 27  1  0
  9 28  1  0
 14 29  1  0
 15 30  1  0
 18 31  1  0
 18 32  1  0
 21 33  1  0
M  END
$$$$
[H]OC(=O)C([H])([H])Oc1c([H])c2c([H])c([H])c(Cl)c([H])c2c2c1c(C(=O)N([H])[H])c(C([H])([H])[H])n2C([H])([H])c1c([H])c([H])c([H])c([H])c1[H]
     RDKit          3D

 49 52  0  0  0  0  0  0  0  0999 V2000
   -1.5037   -2.4131    1.6549 C   0  0  0  0  0  0  0  0  0  0  0  0
   -0.6298   -1.3846    1.0907 C   0  0  0  0  0  0  0  0  0  0  0  0
    0.6832   -1.6170    0.7138 C   0  0  0  0  0  0  0  0  0  0  0  0
    1.3631   -2.8882    0.8639 C   0  0  0  0  0  0  0  0  0  0  0  0
    0.8203   -3.9048    1.7250 N   0  0  0  0  0  0  0  0  0  0  0  0
    2.4162   -3.2083    0.3041 O   0  0  0  0  0  0  0  0  0  0  0  0
    1.2216   -0.4532    0.2124 C   0  0  0  0  0  0  0  0  0  0  0  0
    2.4486   -0.0869   -0.2770 C   0  0  0  0  0  0  0  0  0  0  0  0
    3.5116   -1.0216   -0.3709 O   0  0  0  0  0  0  0  0  0  0  0  0
    4.7570   -0.5837   -0.8856 C   0  0  0  0  0  0  0  0  0  0  0  0
    5.7733   -1.6152   -0.9308 C   0  0  0  0  0  0  0  0  0  0  0  0
    7.0352   -1.3112   -1.4238 O   0  0  0  0  0  0  0  0  0  0  0  0
    5.5776   -2.7779   -0.5469 O   0  0  0  0  0  0  0  0  0  0  0  0
    2.7063    1.1984   -0.6960 C   0  0  0  0  0  0  0  0  0  0  0  0
    1.6930    2.1183   -0.6115 C   0  0  0  0  0  0  0  0  0  0  0  0
    1.9462    3.4301   -1.0302 C   0  0  0  0  0  0  0  0  0  0  0  0
    0.9962    4.4177   -0.9789 C   0  0  0  0  0  0  0  0  0  0  0  0
   -0.2450    4.0950   -0.4979 C   0  0  0  0  0  0  0  0  0  0  0  0
   -1.5249    5.2843   -0.3928 Cl  0  0  0  0  0  0  0  0  0  0  0  0
   -0.5456    2.7925   -0.0668 C   0  0  0  0  0  0  0  0  0  0  0  0
    0.4297    1.8264   -0.1300 C   0  0  0  0  0  0  0  0  0  0  0  0
    0.1842    0.5080    0.2945 C   0  0  0  0  0  0  0  0  0  0  0  0
   -0.9142   -0.0679    0.8225 N   0  0  0  0  0  0  0  0  0  0  0  0
   -2.2062    0.4378    1.1507 C   0  0  0  0  0  0  0  0  0  0  0  0
   -3.2711    0.2234    0.1507 C   0  0  0  0  0  0  0  0  0  0  0  0
   -3.1535    0.3622   -1.1976 C   0  0  0  0  0  0  0  0  0  0  0  0
   -4.2438    0.1702   -2.0413 C   0  0  0  0  0  0  0  0  0  0  0  0
   -5.4741   -0.1634   -1.5696 C   0  0  0  0  0  0  0  0  0  0  0  0
   -5.6244   -0.3113   -0.2077 C   0  0  0  0  0  0  0  0  0  0  0  0
   -4.5464   -0.1212    0.6238 C   0  0  0  0  0  0  0  0  0  0  0  0
   -1.4867   -3.2839    0.9293 H   0  0  0  0  0  0  0  0  0  0  0  0
   -1.2066   -2.7305    2.6758 H   0  0  0  0  0  0  0  0  0  0  0  0
   -2.5697   -2.1405    1.7476 H   0  0  0  0  0  0  0  0  0  0  0  0
    0.9057   -3.7991    2.7398 H   0  0  0  0  0  0  0  0  0  0  0  0
    0.3652   -4.7138    1.2921 H   0  0  0  0  0  0  0  0  0  0  0  0
    4.5361   -0.1327   -1.8874 H   0  0  0  0  0  0  0  0  0  0  0  0
    5.1414    0.2946   -0.2867 H   0  0  0  0  0  0  0  0  0  0  0  0
    7.0695   -0.7222   -2.2699 H   0  0  0  0  0  0  0  0  0  0  0  0
    3.6492    1.5143   -1.0809 H   0  0  0  0  0  0  0  0  0  0  0  0
    2.9192    3.6816   -1.4074 H   0  0  0  0  0  0  0  0  0  0  0  0
    1.2383    5.4199   -1.3134 H   0  0  0  0  0  0  0  0  0  0  0  0
   -1.5243    2.6267    0.2641 H   0  0  0  0  0  0  0  0  0  0  0  0
   -2.5398   -0.2035    2.0697 H   0  0  0  0  0  0  0  0  0  0  0  0
   -2.2930    1.4652    1.5295 H   0  0  0  0  0  0  0  0  0  0  0  0
   -2.1887    0.6242   -1.6067 H   0  0  0  0  0  0  0  0  0  0  0  0
   -4.0876    0.2949   -3.1033 H   0  0  0  0  0  0  0  0  0  0  0  0
   -6.2974   -0.3045   -2.2543 H   0  0  0  0  0  0  0  0  0  0  0  0
   -6.6082   -0.5784    0.1721 H   0  0  0  0  0  0  0  0  0  0  0  0
   -4.7032   -0.2468    1.6963 H   0  0  0  0  0  0  0  0  0  0  0  0
  1  2  1  0
  2  3  2  0
  3  4  1  0
  4  5  1  0
  4  6  2  0
  3  7  1  0
  7  8  2  0
  8  9  1  0
  9 10  1  0
 10 11  1  0
 11 12  1  0
 11 13  2  0
  8 14  1  0
 14 15  2  0
 15 16  1  0
 16 17  2  0
 17 18  1  0
 18 19  1  0
 18 20  2  0
 20 21  1  0
 21 22  2  0
 22 23  1  0
 23 24  1  0
 24 25  1  0
 25 26  2  0
 26 27  1  0
 27 28  2  0
 28 29  1  0
 29 30  2  0
 23  2  1  0
 30 25  1  0
 22  7  1  0
 21 15  1  0
  1 31  1  0
  1 32  1  0
  1 33  1  0
  5 34  1  0
  5 35  1  0
 10 36  1  0
 10 37  1  0
 12 38  1  0
 14 39  1  0
 16 40  1  0
 17 41  1  0
 20 42  1  0
 24 43  1  0
 24 44  1  0
 26 45  1  0
 27 46  1  0
 28 47  1  0
 29 48  1  0
 30 49  1  0
M  END
$$$$
[H]c1c([H])c([H])c2c(c1[H])c1c3c(c4c5c([H])c([H])c([H])c([H])c5n5c4c1n2[C@]1([H])O[C@]5(C([H])([H])[H])[C@@]([H])(OC([H])([H])[H])[C@@]([H])(N([H])C([H])([H])[H])C1([H])[H])C([H])([H])N([H])C3=O
     RDKit          3D

 61 68  0  0  0  0  0  0  0  0999 V2000
   -4.7214    2.4097    0.5983 C   0  0  0  0  0  0  0  0  0  0  0  0
   -3.9822    1.1848    0.6324 N   0  0  0  0  0  0  0  0  0  0  0  0
   -3.1808    0.9438   -0.5514 C   0  0  1  0  0  0  0  0  0  0  0  0
   -2.1287    2.1030   -0.6160 C   0  0  0  0  0  0  0  0  0  0  0  0
   -0.9471    1.4134   -0.5220 C   0  0  1  0  0  0  0  0  0  0  0  0
   -0.9638    0.5601   -1.6162 O   0  0  0  0  0  0  0  0  0  0  0  0
   -1.3378   -0.7198   -1.0906 C   0  0  2  0  0  0  0  0  0  0  0  0
   -1.6688   -1.4664   -2.4309 C   0  0  0  0  0  0  0  0  0  0  0  0
   -2.5304   -0.4438   -0.3258 C   0  0  1  0  0  0  0  0  0  0  0  0
   -2.6388   -0.8827    0.9764 O   0  0  0  0  0  0  0  0  0  0  0  0
   -3.5794   -1.8389    1.2299 C   0  0  0  0  0  0  0  0  0  0  0  0
   -0.1297   -1.2831   -0.5475 N   0  0  0  0  0  0  0  0  0  0  0  0
    0.1543   -2.6040   -0.4727 C   0  0  0  0  0  0  0  0  0  0  0  0
   -0.5674   -3.7659   -0.7148 C   0  0  0  0  0  0  0  0  0  0  0  0
    0.0003   -5.0248   -0.5414 C   0  0  0  0  0  0  0  0  0  0  0  0
    1.3049   -5.1599   -0.1206 C   0  0  0  0  0  0  0  0  0  0  0  0
    2.0493   -4.0271    0.1293 C   0  0  0  0  0  0  0  0  0  0  0  0
    1.4590   -2.8076   -0.0520 C   0  0  0  0  0  0  0  0  0  0  0  0
    1.9904   -1.5692    0.1419 C   0  0  0  0  0  0  0  0  0  0  0  0
    3.2344   -1.0437    0.5170 C   0  0  0  0  0  0  0  0  0  0  0  0
    4.4559   -1.7835    0.8800 C   0  0  0  0  0  0  0  0  0  0  0  0
    5.4345   -0.7771    1.2024 N   0  0  0  0  0  0  0  0  0  0  0  0
    4.8582    0.5339    1.0195 C   0  0  0  0  0  0  0  0  0  0  0  0
    5.5482    1.5411    1.2321 O   0  0  0  0  0  0  0  0  0  0  0  0
    3.4942    0.3130    0.5954 C   0  0  0  0  0  0  0  0  0  0  0  0
    2.4992    1.2349    0.2990 C   0  0  0  0  0  0  0  0  0  0  0  0
    2.3596    2.5925    0.3108 C   0  0  0  0  0  0  0  0  0  0  0  0
    3.2065    3.6185    0.5806 C   0  0  0  0  0  0  0  0  0  0  0  0
    2.7033    4.9291    0.4896 C   0  0  0  0  0  0  0  0  0  0  0  0
    1.3946    5.1670    0.1386 C   0  0  0  0  0  0  0  0  0  0  0  0
    0.5300    4.1103   -0.1373 C   0  0  0  0  0  0  0  0  0  0  0  0
    1.0459    2.8409   -0.0415 C   0  0  0  0  0  0  0  0  0  0  0  0
    0.3968    1.7103   -0.2639 N   0  0  0  0  0  0  0  0  0  0  0  0
    1.2898    0.7040   -0.0649 C   0  0  0  0  0  0  0  0  0  0  0  0
    1.0348   -0.6769   -0.1506 C   0  0  0  0  0  0  0  0  0  0  0  0
   -4.1718    3.2170    1.1277 H   0  0  0  0  0  0  0  0  0  0  0  0
   -4.9729    2.6635   -0.4314 H   0  0  0  0  0  0  0  0  0  0  0  0
   -5.6660    2.2404    1.1684 H   0  0  0  0  0  0  0  0  0  0  0  0
   -3.5211    0.9595    1.5171 H   0  0  0  0  0  0  0  0  0  0  0  0
   -3.8406    0.9718   -1.4128 H   0  0  0  0  0  0  0  0  0  0  0  0
   -2.3613    2.6480   -1.5550 H   0  0  0  0  0  0  0  0  0  0  0  0
   -2.3259    2.8337    0.2023 H   0  0  0  0  0  0  0  0  0  0  0  0
   -1.1567    0.8348    0.4905 H   0  0  0  0  0  0  0  0  0  0  0  0
   -1.8666   -0.7570   -3.2417 H   0  0  0  0  0  0  0  0  0  0  0  0
   -0.8467   -2.0981   -2.7423 H   0  0  0  0  0  0  0  0  0  0  0  0
   -2.6367   -1.9690   -2.2345 H   0  0  0  0  0  0  0  0  0  0  0  0
   -3.3459   -1.0936   -0.8266 H   0  0  0  0  0  0  0  0  0  0  0  0
   -3.5387   -2.0794    2.3110 H   0  0  0  0  0  0  0  0  0  0  0  0
   -3.3830   -2.8163    0.6973 H   0  0  0  0  0  0  0  0  0  0  0  0
   -4.6203   -1.5293    1.0081 H   0  0  0  0  0  0  0  0  0  0  0  0
   -1.5742   -3.6918   -1.0322 H   0  0  0  0  0  0  0  0  0  0  0  0
   -0.6332   -5.8901   -0.7533 H   0  0  0  0  0  0  0  0  0  0  0  0
    1.6909   -6.1578   -0.0050 H   0  0  0  0  0  0  0  0  0  0  0  0
    3.0778   -4.1234    0.4614 H   0  0  0  0  0  0  0  0  0  0  0  0
    4.2970   -2.4098    1.7823 H   0  0  0  0  0  0  0  0  0  0  0  0
    4.7645   -2.4091    0.0144 H   0  0  0  0  0  0  0  0  0  0  0  0
    6.4012   -1.0207    1.5162 H   0  0  0  0  0  0  0  0  0  0  0  0
    4.2259    3.4694    0.8539 H   0  0  0  0  0  0  0  0  0  0  0  0
    3.4090    5.7212    0.7122 H   0  0  0  0  0  0  0  0  0  0  0  0
    1.0230    6.1798    0.0722 H   0  0  0  0  0  0  0  0  0  0  0  0
   -0.4958    4.2706   -0.4133 H   0  0  0  0  0  0  0  0  0  0  0  0
  1  2  1  0
  2  3  1  0
  3  4  1  0
  4  5  1  0
  5  6  1  0
  6  7  1  0
  7  8  1  6
  7  9  1  0
  9 10  1  0
 10 11  1  0
  7 12  1  0
 12 13  1  0
 13 14  2  0
 14 15  1  0
 15 16  2  0
 16 17  1  0
 17 18  2  0
 18 19  1  0
 19 20  2  0
 20 21  1  0
 21 22  1  0
 22 23  1  0
 23 24  2  0
 23 25  1  0
 25 26  2  0
 26 27  1  0
 27 28  2  0
 28 29  1  0
 29 30  2  0
 30 31  1  0
 31 32  2  0
 32 33  1  0
 33 34  1  0
 34 35  2  0
  9  3  1  0
 35 12  1  0
 33  5  1  0
 18 13  1  0
 35 19  1  0
 25 20  1  0
 34 26  1  0
 32 27  1  0
  1 36  1  0
  1 37  1  0
  1 38  1  0
  2 39  1  0
  3 40  1  6
  4 41  1  0
  4 42  1  0
  5 43  1  1
  8 44  1  0
  8 45  1  0
  8 46  1  0
  9 47  1  6
 11 48  1  0
 11 49  1  0
 11 50  1  0
 14 51  1  0
 15 52  1  0
 16 53  1  0
 17 54  1  0
 21 55  1  0
 21 56  1  0
 22 57  1  0
 28 58  1  0
 29 59  1  0
 30 60  1  0
 31 61  1  0
M  END
$$$$
[H]c1c([H])c(N([H])S(=O)(=O)C([H])([H])C([H])([H])[H])c([H])c(C([H])([H])C([H])([H])N([H])C(=O)N([H])c2c([H])c([H])c3c([H])c([H])c([H])c([H])c3c2[H])c1[H]
     RDKit          3D

 51 53  0  0  0  0  0  0  0  0999 V2000
   -5.6211   -2.6259   -0.7021 C   0  0  0  0  0  0  0  0  0  0  0  0
   -5.6882   -1.1140   -0.7111 C   0  0  0  0  0  0  0  0  0  0  0  0
   -6.0557   -0.5027    0.9304 S   0  0  0  0  0  0  0  0  0  0  0  0
   -5.0188   -1.0725    1.8440 O   0  0  0  0  0  0  0  0  0  0  0  0
   -7.4065   -1.0724    1.3201 O   0  0  0  0  0  0  0  0  0  0  0  0
   -6.1386    1.2045    0.9546 N   0  0  0  0  0  0  0  0  0  0  0  0
   -5.0398    2.0519    0.6214 C   0  0  0  0  0  0  0  0  0  0  0  0
   -5.2536    3.1413   -0.2202 C   0  0  0  0  0  0  0  0  0  0  0  0
   -4.2139    3.9780   -0.5622 C   0  0  0  0  0  0  0  0  0  0  0  0
   -2.9578    3.7079   -0.0492 C   0  0  0  0  0  0  0  0  0  0  0  0
   -2.7191    2.6389    0.7839 C   0  0  0  0  0  0  0  0  0  0  0  0
   -1.3749    2.3413    1.3388 C   0  0  0  0  0  0  0  0  0  0  0  0
   -0.5780    1.4301    0.4524 C   0  0  0  0  0  0  0  0  0  0  0  0
    0.6995    1.1855    1.0428 N   0  0  0  0  0  0  0  0  0  0  0  0
    1.6503    0.3365    0.3792 C   0  0  0  0  0  0  0  0  0  0  0  0
    1.3066   -0.1605   -0.7104 O   0  0  0  0  0  0  0  0  0  0  0  0
    2.9169    0.0861    0.9516 N   0  0  0  0  0  0  0  0  0  0  0  0
    3.8841   -0.7456    0.3678 C   0  0  0  0  0  0  0  0  0  0  0  0
    3.6519   -1.7278   -0.5485 C   0  0  0  0  0  0  0  0  0  0  0  0
    4.6572   -2.5115   -1.1181 C   0  0  0  0  0  0  0  0  0  0  0  0
    5.9487   -2.2736   -0.7276 C   0  0  0  0  0  0  0  0  0  0  0  0
    6.9930   -3.0162   -1.2546 C   0  0  0  0  0  0  0  0  0  0  0  0
    8.2777   -2.7574   -0.8459 C   0  0  0  0  0  0  0  0  0  0  0  0
    8.5545   -1.7681    0.0839 C   0  0  0  0  0  0  0  0  0  0  0  0
    7.5186   -1.0339    0.6045 C   0  0  0  0  0  0  0  0  0  0  0  0
    6.2184   -1.2932    0.1933 C   0  0  0  0  0  0  0  0  0  0  0  0
    5.2241   -0.5282    0.7470 C   0  0  0  0  0  0  0  0  0  0  0  0
   -3.7804    1.8058    1.1178 C   0  0  0  0  0  0  0  0  0  0  0  0
   -6.0818   -2.9717    0.2411 H   0  0  0  0  0  0  0  0  0  0  0  0
   -4.5701   -2.9766   -0.7504 H   0  0  0  0  0  0  0  0  0  0  0  0
   -6.1519   -2.9803   -1.6063 H   0  0  0  0  0  0  0  0  0  0  0  0
   -4.7330   -0.7434   -1.0915 H   0  0  0  0  0  0  0  0  0  0  0  0
   -6.4959   -0.7600   -1.4154 H   0  0  0  0  0  0  0  0  0  0  0  0
   -7.0445    1.6610    1.2287 H   0  0  0  0  0  0  0  0  0  0  0  0
   -6.2508    3.3231   -0.6038 H   0  0  0  0  0  0  0  0  0  0  0  0
   -4.3443    4.8409   -1.2189 H   0  0  0  0  0  0  0  0  0  0  0  0
   -2.1541    4.3569   -0.3152 H   0  0  0  0  0  0  0  0  0  0  0  0
   -0.8695    3.2841    1.5603 H   0  0  0  0  0  0  0  0  0  0  0  0
   -1.5251    1.8166    2.3034 H   0  0  0  0  0  0  0  0  0  0  0  0
   -0.4091    1.8514   -0.5592 H   0  0  0  0  0  0  0  0  0  0  0  0
   -1.1042    0.4470    0.3802 H   0  0  0  0  0  0  0  0  0  0  0  0
    0.9618    1.6040    1.9392 H   0  0  0  0  0  0  0  0  0  0  0  0
    3.1468    0.5648    1.8999 H   0  0  0  0  0  0  0  0  0  0  0  0
    2.6563   -1.9666   -0.8738 H   0  0  0  0  0  0  0  0  0  0  0  0
    4.4125   -3.2763   -1.8411 H   0  0  0  0  0  0  0  0  0  0  0  0
    6.7777   -3.7896   -1.9814 H   0  0  0  0  0  0  0  0  0  0  0  0
    9.0699   -3.3450   -1.2676 H   0  0  0  0  0  0  0  0  0  0  0  0
    9.5630   -1.5947    0.3780 H   0  0  0  0  0  0  0  0  0  0  0  0
    7.7034   -0.2467    1.3396 H   0  0  0  0  0  0  0  0  0  0  0  0
    5.4154    0.2517    1.4758 H   0  0  0  0  0  0  0  0  0  0  0  0
   -3.6276    0.9450    1.7799 H   0  0  0  0  0  0  0  0  0  0  0  0
  1  2  1  0
  2  3  1  0
  3  4  2  0
  3  5  2  0
  3  6  1  0
  6  7  1  0
  7  8  2  0
  8  9  1  0
  9 10  2  0
 10 11  1  0
 11 12  1  0
 12 13  1  0
 13 14  1  0
 14 15  1  0
 15 16  2  0
 15 17  1  0
 17 18  1  0
 18 19  2  0
 19 20  1  0
 20 21  2  0
 21 22  1  0
 22 23  2  0
 23 24  1  0
 24 25  2  0
 25 26  1  0
 26 27  2  0
 11 28  2  0
 28  7  1  0
 27 18  1  0
 26 21  1  0
  1 29  1  0
  1 30  1  0
  1 31  1  0
  2 32  1  0
  2 33  1  0
  6 34  1  0
  8 35  1  0
  9 36  1  0
 10 37  1  0
 12 38  1  0
 12 39  1  0
 13 40  1  0
 13 41  1  0
 14 42  1  0
 17 43  1  0
 19 44  1  0
 20 45  1  0
 22 46  1  0
 23 47  1  0
 24 48  1  0
 25 49  1  0
 27 50  1  0
 28 51  1  0
M  END
$$$$
[H]c1nc(C([H])([H])[C@@]([H])(C(=O)[C@@]([H])(N([H])C#N)C([H])([H])[H])N([H])C(=O)[C@@]2([H])N(S(=O)(=O)c3c([H])c([H])c(OC([H])([H])[H])c([H])c3[H])C([H])([H])[C@@]([H])([C@@]([H])(C([H])([H])[H])C([H])([H])C([H])([H])[H])C2([H])[H])oc1-c1c([H])c([H])c([H])c2c([H])c([H])c([H])c([H])c12
     RDKit          3D

 86 90  0  0  0  0  0  0  0  0999 V2000
   -5.7406   -0.3077   -2.1341 C   0  0  0  0  0  0  0  0  0  0  0  0
   -5.9491   -1.4580   -1.2300 C   0  0  0  0  0  0  0  0  0  0  0  0
   -4.7941   -2.1455   -0.6210 C   0  0  2  0  0  0  0  0  0  0  0  0
   -5.3794   -3.2855    0.2277 C   0  0  0  0  0  0  0  0  0  0  0  0
   -3.8322   -1.3399    0.1951 C   0  0  1  0  0  0  0  0  0  0  0  0
   -2.7439   -2.2329    0.7767 C   0  0  0  0  0  0  0  0  0  0  0  0
   -1.5927   -1.2759    0.8957 C   0  0  2  0  0  0  0  0  0  0  0  0
   -1.7217   -0.3572   -0.1388 N   0  0  0  0  0  0  0  0  0  0  0  0
   -3.0334   -0.4151   -0.6841 C   0  0  0  0  0  0  0  0  0  0  0  0
   -1.1843    1.2324    0.2571 S   0  0  0  0  0  0  0  0  0  0  0  0
   -0.6607    1.2349    1.6855 O   0  0  0  0  0  0  0  0  0  0  0  0
   -0.1248    1.7074   -0.6950 O   0  0  0  0  0  0  0  0  0  0  0  0
   -2.5293    2.3361    0.1781 C   0  0  0  0  0  0  0  0  0  0  0  0
   -2.7785    3.0768   -0.9629 C   0  0  0  0  0  0  0  0  0  0  0  0
   -3.8405    3.9502   -1.0000 C   0  0  0  0  0  0  0  0  0  0  0  0
   -4.6598    4.0942    0.0893 C   0  0  0  0  0  0  0  0  0  0  0  0
   -5.7459    4.9592    0.1097 O   0  0  0  0  0  0  0  0  0  0  0  0
   -6.5827    5.1014    1.2401 C   0  0  0  0  0  0  0  0  0  0  0  0
   -4.4020    3.3596    1.2045 C   0  0  0  0  0  0  0  0  0  0  0  0
   -3.3568    2.4863    1.2679 C   0  0  0  0  0  0  0  0  0  0  0  0
   -0.3121   -2.0540    0.8574 C   0  0  0  0  0  0  0  0  0  0  0  0
   -0.1409   -2.8636    1.7955 O   0  0  0  0  0  0  0  0  0  0  0  0
    0.6546   -1.9089   -0.1617 N   0  0  0  0  0  0  0  0  0  0  0  0
    1.8803   -2.6481   -0.2453 C   0  0  1  0  0  0  0  0  0  0  0  0
    2.8540   -2.3429    0.8421 C   0  0  0  0  0  0  0  0  0  0  0  0
    3.2585   -0.8926    0.8297 C   0  0  0  0  0  0  0  0  0  0  0  0
    2.6253    0.0461    1.5121 N   0  0  0  0  0  0  0  0  0  0  0  0
    3.2552    1.2312    1.2698 C   0  0  0  0  0  0  0  0  0  0  0  0
    4.2927    1.0023    0.4233 C   0  0  0  0  0  0  0  0  0  0  0  0
    4.2180   -0.3289    0.2061 O   0  0  0  0  0  0  0  0  0  0  0  0
    5.3129    1.8382   -0.2075 C   0  0  0  0  0  0  0  0  0  0  0  0
    5.7965    1.3617   -1.4506 C   0  0  0  0  0  0  0  0  0  0  0  0
    6.7665    2.0242   -2.1578 C   0  0  0  0  0  0  0  0  0  0  0  0
    7.3029    3.1837   -1.6711 C   0  0  0  0  0  0  0  0  0  0  0  0
    6.8488    3.6736   -0.4516 C   0  0  0  0  0  0  0  0  0  0  0  0
    7.4048    4.8158    0.0632 C   0  0  0  0  0  0  0  0  0  0  0  0
    7.0208    5.3217    1.2813 C   0  0  0  0  0  0  0  0  0  0  0  0
    6.0539    4.6460    1.9809 C   0  0  0  0  0  0  0  0  0  0  0  0
    5.4676    3.4744    1.4765 C   0  0  0  0  0  0  0  0  0  0  0  0
    5.8567    2.9848    0.2622 C   0  0  0  0  0  0  0  0  0  0  0  0
    1.6398   -4.1151   -0.4005 C   0  0  0  0  0  0  0  0  0  0  0  0
    0.4852   -4.4952   -0.4617 O   0  0  0  0  0  0  0  0  0  0  0  0
    2.7195   -5.1117   -0.4810 C   0  0  2  0  0  0  0  0  0  0  0  0
    3.6348   -4.8709   -1.6680 C   0  0  0  0  0  0  0  0  0  0  0  0
    2.1466   -6.4256   -0.6266 N   0  0  0  0  0  0  0  0  0  0  0  0
    1.2806   -6.9280    0.3486 C   0  0  0  0  0  0  0  0  0  0  0  0
    0.5410   -7.3430    1.1722 N   0  0  0  0  0  0  0  0  0  0  0  0
   -5.5882    0.6714   -1.6814 H   0  0  0  0  0  0  0  0  0  0  0  0
   -6.7478   -0.1796   -2.6836 H   0  0  0  0  0  0  0  0  0  0  0  0
   -4.9740   -0.4627   -2.9189 H   0  0  0  0  0  0  0  0  0  0  0  0
   -6.6941   -1.2302   -0.4171 H   0  0  0  0  0  0  0  0  0  0  0  0
   -6.4922   -2.2504   -1.8451 H   0  0  0  0  0  0  0  0  0  0  0  0
   -4.2473   -2.6733   -1.4592 H   0  0  0  0  0  0  0  0  0  0  0  0
   -4.6275   -4.0640    0.3880 H   0  0  0  0  0  0  0  0  0  0  0  0
   -6.1707   -3.7373   -0.4067 H   0  0  0  0  0  0  0  0  0  0  0  0
   -5.8626   -2.8943    1.1394 H   0  0  0  0  0  0  0  0  0  0  0  0
   -4.3235   -0.8352    1.0513 H   0  0  0  0  0  0  0  0  0  0  0  0
   -2.9942   -2.6598    1.7486 H   0  0  0  0  0  0  0  0  0  0  0  0
   -2.4469   -3.0311    0.0677 H   0  0  0  0  0  0  0  0  0  0  0  0
   -1.6401   -0.7095    1.8817 H   0  0  0  0  0  0  0  0  0  0  0  0
   -3.5504    0.5793   -0.6272 H   0  0  0  0  0  0  0  0  0  0  0  0
   -3.0489   -0.8199   -1.7281 H   0  0  0  0  0  0  0  0  0  0  0  0
   -2.1145    2.9492   -1.8213 H   0  0  0  0  0  0  0  0  0  0  0  0
   -4.0645    4.5522   -1.8793 H   0  0  0  0  0  0  0  0  0  0  0  0
   -7.1007    4.1417    1.4019 H   0  0  0  0  0  0  0  0  0  0  0  0
   -7.3295    5.8939    1.0062 H   0  0  0  0  0  0  0  0  0  0  0  0
   -6.0247    5.4206    2.1489 H   0  0  0  0  0  0  0  0  0  0  0  0
   -5.0530    3.4725    2.0791 H   0  0  0  0  0  0  0  0  0  0  0  0
   -3.1703    1.9106    2.1600 H   0  0  0  0  0  0  0  0  0  0  0  0
    0.4348   -1.1976   -0.9039 H   0  0  0  0  0  0  0  0  0  0  0  0
    2.3919   -2.3182   -1.2096 H   0  0  0  0  0  0  0  0  0  0  0  0
    2.3701   -2.5263    1.8189 H   0  0  0  0  0  0  0  0  0  0  0  0
    3.7574   -2.9912    0.8084 H   0  0  0  0  0  0  0  0  0  0  0  0
    2.9142    2.1567    1.6781 H   0  0  0  0  0  0  0  0  0  0  0  0
    5.3693    0.4397   -1.8375 H   0  0  0  0  0  0  0  0  0  0  0  0
    7.1150    1.6363   -3.1077 H   0  0  0  0  0  0  0  0  0  0  0  0
    8.0734    3.7275   -2.2177 H   0  0  0  0  0  0  0  0  0  0  0  0
    8.1670    5.3023   -0.5431 H   0  0  0  0  0  0  0  0  0  0  0  0
    7.4770    6.2100    1.6461 H   0  0  0  0  0  0  0  0  0  0  0  0
    5.7355    5.0081    2.9320 H   0  0  0  0  0  0  0  0  0  0  0  0
    4.7502    2.9831    2.0944 H   0  0  0  0  0  0  0  0  0  0  0  0
    3.3893   -5.0964    0.4078 H   0  0  0  0  0  0  0  0  0  0  0  0
    3.1368   -4.3498   -2.4993 H   0  0  0  0  0  0  0  0  0  0  0  0
    4.1127   -5.8248   -1.9603 H   0  0  0  0  0  0  0  0  0  0  0  0
    4.4812   -4.2026   -1.3583 H   0  0  0  0  0  0  0  0  0  0  0  0
    2.3780   -6.9969   -1.4571 H   0  0  0  0  0  0  0  0  0  0  0  0
  1  2  1  0
  2  3  1  0
  3  4  1  0
  3  5  1  0
  5  6  1  0
  6  7  1  0
  7  8  1  0
  8  9  1  0
  8 10  1  0
 10 11  2  0
 10 12  2  0
 10 13  1  0
 13 14  2  0
 14 15  1  0
 15 16  2  0
 16 17  1  0
 17 18  1  0
 16 19  1  0
 19 20  2  0
  7 21  1  0
 21 22  2  0
 21 23  1  0
 23 24  1  0
 24 25  1  0
 25 26  1  0
 26 27  2  0
 27 28  1  0
 28 29  2  0
 29 30  1  0
 29 31  1  0
 31 32  2  0
 32 33  1  0
 33 34  2  0
 34 35  1  0
 35 36  2  0
 36 37  1  0
 37 38  2  0
 38 39  1  0
 39 40  2  0
 24 41  1  0
 41 42  2  0
 41 43  1  0
 43 44  1  0
 43 45  1  0
 45 46  1  0
 46 47  3  0
  9  5  1  0
 20 13  1  0
 30 26  1  0
 40 31  1  0
 40 35  1  0
  1 48  1  0
  1 49  1  0
  1 50  1  0
  2 51  1  0
  2 52  1  0
  3 53  1  6
  4 54  1  0
  4 55  1  0
  4 56  1  0
  5 57  1  1
  6 58  1  0
  6 59  1  0
  7 60  1  1
  9 61  1  0
  9 62  1  0
 14 63  1  0
 15 64  1  0
 18 65  1  0
 18 66  1  0
 18 67  1  0
 19 68  1  0
 20 69  1  0
 23 70  1  0
 24 71  1  6
 25 72  1  0
 25 73  1  0
 28 74  1  0
 32 75  1  0
 33 76  1  0
 34 77  1  0
 36 78  1  0
 37 79  1  0
 38 80  1  0
 39 81  1  0
 43 82  1  1
 44 83  1  0
 44 84  1  0
 44 85  1  0
 45 86  1  0
M  END
$$$$
[H]OC(=O)C([H])([H])[C@]([H])(C(=O)N([H])[C@]([H])(C(=O)N([H])[H])C([H])([H])c1c([H])c([H])c([H])c([H])c1[H])N([H])C(=O)[C@@]([H])(N([H])C(=O)C([H])([H])C([H])([H])C([H])([H])C([H])([H])C([H])([H])C([H])([H])[H])C([H])([H])c1c([H])c([H])c([H])c([H])c1[H]
     RDKit          3D

 77 78  0  0  0  0  0  0  0  0999 V2000
   -7.7996    1.8254    4.0473 C   0  0  0  0  0  0  0  0  0  0  0  0
   -8.1864    0.4420    3.5308 C   0  0  0  0  0  0  0  0  0  0  0  0
   -6.9714   -0.2722    3.0345 C   0  0  0  0  0  0  0  0  0  0  0  0
   -6.2936    0.4707    1.9024 C   0  0  0  0  0  0  0  0  0  0  0  0
   -5.0701   -0.2716    1.4297 C   0  0  0  0  0  0  0  0  0  0  0  0
   -4.4310    0.5189    0.2851 C   0  0  0  0  0  0  0  0  0  0  0  0
   -3.2202   -0.1662   -0.2075 C   0  0  0  0  0  0  0  0  0  0  0  0
   -2.8795   -1.2444    0.3317 O   0  0  0  0  0  0  0  0  0  0  0  0
   -2.4571    0.3855   -1.2687 N   0  0  0  0  0  0  0  0  0  0  0  0
   -1.2434   -0.3036   -1.7524 C   0  0  1  0  0  0  0  0  0  0  0  0
   -1.4532   -0.5603   -3.2356 C   0  0  0  0  0  0  0  0  0  0  0  0
   -2.6267   -1.3916   -3.5256 C   0  0  0  0  0  0  0  0  0  0  0  0
   -2.4841   -2.7683   -3.5820 C   0  0  0  0  0  0  0  0  0  0  0  0
   -3.5741   -3.5661   -3.8537 C   0  0  0  0  0  0  0  0  0  0  0  0
   -4.8182   -2.9764   -4.0711 C   0  0  0  0  0  0  0  0  0  0  0  0
   -4.9353   -1.6072   -4.0103 C   0  0  0  0  0  0  0  0  0  0  0  0
   -3.8650   -0.7977   -3.7418 C   0  0  0  0  0  0  0  0  0  0  0  0
   -0.0640    0.5718   -1.5663 C   0  0  0  0  0  0  0  0  0  0  0  0
   -0.1626    1.7405   -1.1000 O   0  0  0  0  0  0  0  0  0  0  0  0
    1.2166    0.0912   -1.9188 N   0  0  0  0  0  0  0  0  0  0  0  0
    2.4157    0.9103   -1.7681 C   0  0  2  0  0  0  0  0  0  0  0  0
    3.2752    0.8837   -2.9838 C   0  0  0  0  0  0  0  0  0  0  0  0
    2.5686    1.3910   -4.1796 C   0  0  0  0  0  0  0  0  0  0  0  0
    1.2597    1.8142   -4.1502 O   0  0  0  0  0  0  0  0  0  0  0  0
    3.1923    1.4358   -5.2680 O   0  0  0  0  0  0  0  0  0  0  0  0
    3.1211    0.4523   -0.5458 C   0  0  0  0  0  0  0  0  0  0  0  0
    2.6307   -0.4765    0.1269 O   0  0  0  0  0  0  0  0  0  0  0  0
    4.3332    1.0437   -0.1266 N   0  0  0  0  0  0  0  0  0  0  0  0
    5.0081    0.5742    1.1016 C   0  0  1  0  0  0  0  0  0  0  0  0
    6.3118   -0.0384    0.6775 C   0  0  0  0  0  0  0  0  0  0  0  0
    7.1475   -0.5782    1.7578 C   0  0  0  0  0  0  0  0  0  0  0  0
    6.9280   -1.8860    2.2106 C   0  0  0  0  0  0  0  0  0  0  0  0
    7.7084   -2.4274    3.1986 C   0  0  0  0  0  0  0  0  0  0  0  0
    8.7362   -1.7047    3.7813 C   0  0  0  0  0  0  0  0  0  0  0  0
    8.9581   -0.4121    3.3384 C   0  0  0  0  0  0  0  0  0  0  0  0
    8.1728    0.1181    2.3510 C   0  0  0  0  0  0  0  0  0  0  0  0
    5.0832    1.6964    2.0261 C   0  0  0  0  0  0  0  0  0  0  0  0
    5.6056    1.6102    3.3392 N   0  0  0  0  0  0  0  0  0  0  0  0
    4.6478    2.8472    1.6387 O   0  0  0  0  0  0  0  0  0  0  0  0
   -8.2906    2.0201    5.0141 H   0  0  0  0  0  0  0  0  0  0  0  0
   -8.1276    2.5812    3.3191 H   0  0  0  0  0  0  0  0  0  0  0  0
   -6.6952    1.8468    4.1603 H   0  0  0  0  0  0  0  0  0  0  0  0
   -8.9888    0.5223    2.7756 H   0  0  0  0  0  0  0  0  0  0  0  0
   -8.6108   -0.1121    4.4007 H   0  0  0  0  0  0  0  0  0  0  0  0
   -7.2972   -1.2766    2.6674 H   0  0  0  0  0  0  0  0  0  0  0  0
   -6.2574   -0.4273    3.8631 H   0  0  0  0  0  0  0  0  0  0  0  0
   -5.9423    1.4629    2.2893 H   0  0  0  0  0  0  0  0  0  0  0  0
   -6.9856    0.5893    1.0489 H   0  0  0  0  0  0  0  0  0  0  0  0
   -4.3195   -0.3802    2.2488 H   0  0  0  0  0  0  0  0  0  0  0  0
   -5.3912   -1.2689    1.0929 H   0  0  0  0  0  0  0  0  0  0  0  0
   -5.1491    0.6593   -0.5327 H   0  0  0  0  0  0  0  0  0  0  0  0
   -4.1241    1.5202    0.6344 H   0  0  0  0  0  0  0  0  0  0  0  0
   -2.7148    1.2777   -1.7380 H   0  0  0  0  0  0  0  0  0  0  0  0
   -1.1226   -1.2203   -1.1761 H   0  0  0  0  0  0  0  0  0  0  0  0
   -0.5487   -1.1032   -3.6202 H   0  0  0  0  0  0  0  0  0  0  0  0
   -1.4554    0.4184   -3.7582 H   0  0  0  0  0  0  0  0  0  0  0  0
   -1.5266   -3.2675   -3.4168 H   0  0  0  0  0  0  0  0  0  0  0  0
   -3.4529   -4.6484   -3.8972 H   0  0  0  0  0  0  0  0  0  0  0  0
   -5.6744   -3.5851   -4.2842 H   0  0  0  0  0  0  0  0  0  0  0  0
   -5.9011   -1.1327   -4.1772 H   0  0  0  0  0  0  0  0  0  0  0  0
   -3.9135    0.2651   -3.6870 H   0  0  0  0  0  0  0  0  0  0  0  0
    1.2977   -0.8755   -2.2951 H   0  0  0  0  0  0  0  0  0  0  0  0
    2.0427    1.9643   -1.5871 H   0  0  0  0  0  0  0  0  0  0  0  0
    4.1688    1.5274   -2.7898 H   0  0  0  0  0  0  0  0  0  0  0  0
    3.5787   -0.1530   -3.1869 H   0  0  0  0  0  0  0  0  0  0  0  0
    0.7899    2.2788   -4.8975 H   0  0  0  0  0  0  0  0  0  0  0  0
    4.7442    1.8100   -0.6910 H   0  0  0  0  0  0  0  0  0  0  0  0
    4.3847   -0.2434    1.5425 H   0  0  0  0  0  0  0  0  0  0  0  0
    6.0544   -0.8929    0.0102 H   0  0  0  0  0  0  0  0  0  0  0  0
    6.8652    0.7097    0.0516 H   0  0  0  0  0  0  0  0  0  0  0  0
    6.1085   -2.4526    1.7382 H   0  0  0  0  0  0  0  0  0  0  0  0
    7.5369   -3.4573    3.5541 H   0  0  0  0  0  0  0  0  0  0  0  0
    9.3219   -2.1780    4.5604 H   0  0  0  0  0  0  0  0  0  0  0  0
    9.7788    0.1585    3.8034 H   0  0  0  0  0  0  0  0  0  0  0  0
    8.3573    1.1431    2.0048 H   0  0  0  0  0  0  0  0  0  0  0  0
    6.3418    2.3133    3.6443 H   0  0  0  0  0  0  0  0  0  0  0  0
    5.3329    0.9119    4.0574 H   0  0  0  0  0  0  0  0  0  0  0  0
  1  2  1  0
  2  3  1  0
  3  4  1  0
  4  5  1  0
  5  6  1  0
  6  7  1  0
  7  8  2  0
  7  9  1  0
  9 10  1  0
 10 11  1  0
 11 12  1  0
 12 13  2  0
 13 14  1  0
 14 15  2  0
 15 16  1  0
 16 17  2  0
 10 18  1  0
 18 19  2  0
 18 20  1  0
 20 21  1  0
 21 22  1  0
 22 23  1  0
 23 24  1  0
 23 25  2  0
 21 26  1  0
 26 27  2  0
 26 28  1  0
 28 29  1  0
 29 30  1  0
 30 31  1  0
 31 32  2  0
 32 33  1  0
 33 34  2  0
 34 35  1  0
 35 36  2  0
 29 37  1  0
 37 38  1  0
 37 39  2  0
 17 12  1  0
 36 31  1  0
  1 40  1  0
  1 41  1  0
  1 42  1  0
  2 43  1  0
  2 44  1  0
  3 45  1  0
  3 46  1  0
  4 47  1  0
  4 48  1  0
  5 49  1  0
  5 50  1  0
  6 51  1  0
  6 52  1  0
  9 53  1  0
 10 54  1  1
 11 55  1  0
 11 56  1  0
 13 57  1  0
 14 58  1  0
 15 59  1  0
 16 60  1  0
 17 61  1  0
 20 62  1  0
 21 63  1  1
 22 64  1  0
 22 65  1  0
 24 66  1  0
 28 67  1  0
 29 68  1  1
 30 69  1  0
 30 70  1  0
 32 71  1  0
 33 72  1  0
 34 73  1  0
 35 74  1  0
 36 75  1  0
 38 76  1  0
 38 77  1  0
M  END
$$$$
[H]Oc1c([H])c([H])c(-c2c([H])c([H])c(Cl)c([H])c2Cl)c([H])c1C(=O)N([H])C([H])([H])C([H])([H])C([H])([H])C([H])([H])c1c([H])c([H])c([H])c([H])c1[H]
     RDKit          3D

 49 51  0  0  0  0  0  0  0  0999 V2000
   -1.2725    3.5224   -0.3793 O   0  0  0  0  0  0  0  0  0  0  0  0
   -2.3014    2.6001   -0.4247 C   0  0  0  0  0  0  0  0  0  0  0  0
   -3.5807    3.0606   -0.7558 C   0  0  0  0  0  0  0  0  0  0  0  0
   -4.6299    2.1789   -0.8123 C   0  0  0  0  0  0  0  0  0  0  0  0
   -4.4692    0.8308   -0.5500 C   0  0  0  0  0  0  0  0  0  0  0  0
   -3.2124    0.3799   -0.2251 C   0  0  0  0  0  0  0  0  0  0  0  0
   -2.1250    1.2763   -0.1638 C   0  0  0  0  0  0  0  0  0  0  0  0
   -0.8518    0.6859    0.1884 C   0  0  0  0  0  0  0  0  0  0  0  0
   -0.7952   -0.5834    0.4160 O   0  0  0  0  0  0  0  0  0  0  0  0
    0.3510    1.3871    0.3064 N   0  0  0  0  0  0  0  0  0  0  0  0
    1.6125    0.7089    0.6532 C   0  0  0  0  0  0  0  0  0  0  0  0
    1.9853   -0.2399   -0.4132 C   0  0  0  0  0  0  0  0  0  0  0  0
    3.3012   -0.9747   -0.1010 C   0  0  0  0  0  0  0  0  0  0  0  0
    4.4403   -0.0054    0.0487 C   0  0  0  0  0  0  0  0  0  0  0  0
    5.7205   -0.6462    0.3432 C   0  0  0  0  0  0  0  0  0  0  0  0
    6.0578   -0.8452    1.6798 C   0  0  0  0  0  0  0  0  0  0  0  0
    7.2638   -1.4493    1.9693 C   0  0  0  0  0  0  0  0  0  0  0  0
    8.1334   -1.8563    0.9810 C   0  0  0  0  0  0  0  0  0  0  0  0
    7.7594   -1.6398   -0.3263 C   0  0  0  0  0  0  0  0  0  0  0  0
    6.5579   -1.0366   -0.6714 C   0  0  0  0  0  0  0  0  0  0  0  0
   -5.6140   -0.0663   -0.6136 C   0  0  0  0  0  0  0  0  0  0  0  0
   -5.4973   -1.2219   -1.3468 C   0  0  0  0  0  0  0  0  0  0  0  0
   -6.5216   -2.1256   -1.4767 C   0  0  0  0  0  0  0  0  0  0  0  0
   -7.7227   -1.8782   -0.8521 C   0  0  0  0  0  0  0  0  0  0  0  0
   -9.0677   -2.9923   -0.9798 Cl  0  0  0  0  0  0  0  0  0  0  0  0
   -7.8712   -0.7273   -0.1089 C   0  0  0  0  0  0  0  0  0  0  0  0
   -6.8123    0.1790    0.0091 C   0  0  0  0  0  0  0  0  0  0  0  0
   -7.0237    1.6274    0.9708 Cl  0  0  0  0  0  0  0  0  0  0  0  0
   -1.4094    4.4913   -0.5720 H   0  0  0  0  0  0  0  0  0  0  0  0
   -3.6852    4.1226   -0.9578 H   0  0  0  0  0  0  0  0  0  0  0  0
   -5.6078    2.5477   -1.0753 H   0  0  0  0  0  0  0  0  0  0  0  0
   -3.0830   -0.6758   -0.0192 H   0  0  0  0  0  0  0  0  0  0  0  0
    0.4854    2.4152    0.1697 H   0  0  0  0  0  0  0  0  0  0  0  0
    2.3804    1.4984    0.7671 H   0  0  0  0  0  0  0  0  0  0  0  0
    1.4456    0.2197    1.6508 H   0  0  0  0  0  0  0  0  0  0  0  0
    1.1972   -0.9614   -0.6278 H   0  0  0  0  0  0  0  0  0  0  0  0
    2.1677    0.3759   -1.3503 H   0  0  0  0  0  0  0  0  0  0  0  0
    3.1294   -1.4747    0.8744 H   0  0  0  0  0  0  0  0  0  0  0  0
    3.4397   -1.7015   -0.8975 H   0  0  0  0  0  0  0  0  0  0  0  0
    4.2569    0.7450    0.8394 H   0  0  0  0  0  0  0  0  0  0  0  0
    4.5463    0.5480   -0.9097 H   0  0  0  0  0  0  0  0  0  0  0  0
    5.4132   -0.5455    2.4952 H   0  0  0  0  0  0  0  0  0  0  0  0
    7.5462   -1.6142    3.0157 H   0  0  0  0  0  0  0  0  0  0  0  0
    9.0845   -2.3331    1.2260 H   0  0  0  0  0  0  0  0  0  0  0  0
    8.4064   -1.9410   -1.1288 H   0  0  0  0  0  0  0  0  0  0  0  0
    6.2545   -0.8622   -1.6801 H   0  0  0  0  0  0  0  0  0  0  0  0
   -4.5455   -1.4354   -1.8520 H   0  0  0  0  0  0  0  0  0  0  0  0
   -6.4250   -3.0226   -2.0483 H   0  0  0  0  0  0  0  0  0  0  0  0
   -8.8117   -0.5454    0.3732 H   0  0  0  0  0  0  0  0  0  0  0  0
  1  2  1  0
  2  3  2  0
  3  4  1  0
  4  5  2  0
  5  6  1  0
  6  7  2  0
  7  8  1  0
  8  9  2  0
  8 10  1  0
 10 11  1  0
 11 12  1  0
 12 13  1  0
 13 14  1  0
 14 15  1  0
 15 16  2  0
 16 17  1  0
 17 18  2  0
 18 19  1  0
 19 20  2  0
  5 21  1  0
 21 22  2  0
 22 23  1  0
 23 24  2  0
 24 25  1  0
 24 26  1  0
 26 27  2  0
 27 28  1  0
  7  2  1  0
 20 15  1  0
 27 21  1  0
  1 29  1  0
  3 30  1  0
  4 31  1  0
  6 32  1  0
 10 33  1  0
 11 34  1  0
 11 35  1  0
 12 36  1  0
 12 37  1  0
 13 38  1  0
 13 39  1  0
 14 40  1  0
 14 41  1  0
 16 42  1  0
 17 43  1  0
 18 44  1  0
 19 45  1  0
 20 46  1  0
 22 47  1  0
 23 48  1  0
 26 49  1  0
M  END
$$$$
[H]OC(=O)[C@@]([H])(N([H])[C@]([H])(C(=O)O[H])C([H])([H])c1c([H])c([H])c(-c2c([H])c([H])c([H])c([H])c2[H])c([H])c1[H])C([H])([H])[H]
     RDKit          3D

 42 43  0  0  0  0  0  0  0  0999 V2000
   -4.4683    1.0625    1.0021 C   0  0  0  0  0  0  0  0  0  0  0  0
   -4.5491   -0.2247    0.2115 C   0  0  2  0  0  0  0  0  0  0  0  0
   -3.6951   -0.4421   -0.8346 N   0  0  0  0  0  0  0  0  0  0  0  0
   -2.2956   -0.6185   -0.7927 C   0  0  1  0  0  0  0  0  0  0  0  0
   -1.5812    0.5773   -0.2443 C   0  0  0  0  0  0  0  0  0  0  0  0
   -0.1056    0.4966   -0.2026 C   0  0  0  0  0  0  0  0  0  0  0  0
    0.5282    0.1493    0.9532 C   0  0  0  0  0  0  0  0  0  0  0  0
    1.9076    0.0785    0.9849 C   0  0  0  0  0  0  0  0  0  0  0  0
    2.6567    0.3512   -0.1273 C   0  0  0  0  0  0  0  0  0  0  0  0
    2.0348    0.7012   -1.2955 C   0  0  0  0  0  0  0  0  0  0  0  0
    0.6619    0.7737   -1.3340 C   0  0  0  0  0  0  0  0  0  0  0  0
    4.1046    0.2658   -0.0608 C   0  0  0  0  0  0  0  0  0  0  0  0
    4.9022    1.0791   -0.8430 C   0  0  0  0  0  0  0  0  0  0  0  0
    6.2686    1.0149   -0.7972 C   0  0  0  0  0  0  0  0  0  0  0  0
    6.8730    0.0960    0.0697 C   0  0  0  0  0  0  0  0  0  0  0  0
    6.1081   -0.7274    0.8614 C   0  0  0  0  0  0  0  0  0  0  0  0
    4.7441   -0.6288    0.7825 C   0  0  0  0  0  0  0  0  0  0  0  0
   -1.9015   -1.8945   -0.1531 C   0  0  0  0  0  0  0  0  0  0  0  0
   -0.5926   -2.3175   -0.1143 O   0  0  0  0  0  0  0  0  0  0  0  0
   -2.7478   -2.6496    0.3780 O   0  0  0  0  0  0  0  0  0  0  0  0
   -5.9834   -0.2878   -0.2696 C   0  0  0  0  0  0  0  0  0  0  0  0
   -6.9716   -0.0861    0.6734 O   0  0  0  0  0  0  0  0  0  0  0  0
   -6.2863   -0.5117   -1.4621 O   0  0  0  0  0  0  0  0  0  0  0  0
   -3.9475    0.9267    1.9713 H   0  0  0  0  0  0  0  0  0  0  0  0
   -3.9503    1.8136    0.3734 H   0  0  0  0  0  0  0  0  0  0  0  0
   -5.4935    1.4282    1.2842 H   0  0  0  0  0  0  0  0  0  0  0  0
   -4.4521   -1.0718    0.9620 H   0  0  0  0  0  0  0  0  0  0  0  0
   -4.0233   -0.1780   -1.7992 H   0  0  0  0  0  0  0  0  0  0  0  0
   -1.9543   -0.6941   -1.8925 H   0  0  0  0  0  0  0  0  0  0  0  0
   -1.9331    0.7188    0.8242 H   0  0  0  0  0  0  0  0  0  0  0  0
   -1.8617    1.5113   -0.7573 H   0  0  0  0  0  0  0  0  0  0  0  0
   -0.0134   -0.0828    1.8808 H   0  0  0  0  0  0  0  0  0  0  0  0
    2.4082   -0.1987    1.9108 H   0  0  0  0  0  0  0  0  0  0  0  0
    2.5884    0.9276   -2.2072 H   0  0  0  0  0  0  0  0  0  0  0  0
    0.1199    1.0456   -2.2301 H   0  0  0  0  0  0  0  0  0  0  0  0
    4.4001    1.7874   -1.5109 H   0  0  0  0  0  0  0  0  0  0  0  0
    6.9110    1.6392   -1.3996 H   0  0  0  0  0  0  0  0  0  0  0  0
    7.9564    0.0531    0.0973 H   0  0  0  0  0  0  0  0  0  0  0  0
    6.5922   -1.4202    1.5156 H   0  0  0  0  0  0  0  0  0  0  0  0
    4.0779   -1.2572    1.3876 H   0  0  0  0  0  0  0  0  0  0  0  0
   -0.2154   -2.9034    0.6099 H   0  0  0  0  0  0  0  0  0  0  0  0
   -6.8211   -0.3027    1.6435 H   0  0  0  0  0  0  0  0  0  0  0  0
  1  2  1  0
  2  3  1  0
  3  4  1  0
  4  5  1  0
  5  6  1  0
  6  7  2  0
  7  8  1  0
  8  9  2  0
  9 10  1  0
 10 11  2  0
  9 12  1  0
 12 13  2  0
 13 14  1  0
 14 15  2  0
 15 16  1  0
 16 17  2  0
  4 18  1  0
 18 19  1  0
 18 20  2  0
  2 21  1  0
 21 22  1  0
 21 23  2  0
 11  6  1  0
 17 12  1  0
  1 24  1  0
  1 25  1  0
  1 26  1  0
  2 27  1  1
  3 28  1  0
  4 29  1  6
  5 30  1  0
  5 31  1  0
  7 32  1  0
  8 33  1  0
 10 34  1  0
 11 35  1  0
 13 36  1  0
 14 37  1  0
 15 38  1  0
 16 39  1  0
 17 40  1  0
 19 41  1  0
 22 42  1  0
M  END
$$$$
[H]c1nc(N([H])c2c([H])c(OC([H])([H])[H])c(N([H])C(=O)c3sc4c(c3[H])C([H])([H])C([H])([H])C([H])([H])C4([H])[H])c([H])c2C([H])([H])[H])c(OC([H])([H])C([H])([H])[H])c([H])c1-n1nc([H])c2c([H])c(C(=O)C([H])([H])[H])c([H])c([H])c2c1=O
     RDKit          3D

 78 83  0  0  0  0  0  0  0  0999 V2000
    4.8512   -4.2594    1.1839 C   0  0  0  0  0  0  0  0  0  0  0  0
    3.9579   -4.3488   -0.0317 C   0  0  0  0  0  0  0  0  0  0  0  0
    2.8592   -3.5230   -0.0312 O   0  0  0  0  0  0  0  0  0  0  0  0
    2.8118   -2.1403    0.0047 C   0  0  0  0  0  0  0  0  0  0  0  0
    3.9992   -1.4240    0.0352 C   0  0  0  0  0  0  0  0  0  0  0  0
    3.9769   -0.0526    0.0702 C   0  0  0  0  0  0  0  0  0  0  0  0
    2.7330    0.5908    0.0736 C   0  0  0  0  0  0  0  0  0  0  0  0
    1.6281   -0.1637    0.0430 N   0  0  0  0  0  0  0  0  0  0  0  0
    1.5708   -1.4805    0.0086 C   0  0  0  0  0  0  0  0  0  0  0  0
    0.4148   -2.2334    0.0023 N   0  0  0  0  0  0  0  0  0  0  0  0
   -0.9366   -1.7973   -0.0197 C   0  0  0  0  0  0  0  0  0  0  0  0
   -1.3444   -0.5238   -0.2879 C   0  0  0  0  0  0  0  0  0  0  0  0
   -2.6759   -0.1499   -0.3428 C   0  0  0  0  0  0  0  0  0  0  0  0
   -3.0412    1.1493   -0.6161 O   0  0  0  0  0  0  0  0  0  0  0  0
   -2.1117    2.1874   -0.8597 C   0  0  0  0  0  0  0  0  0  0  0  0
   -3.6963   -1.0742   -0.1222 C   0  0  0  0  0  0  0  0  0  0  0  0
   -5.0472   -0.6823   -0.2511 N   0  0  0  0  0  0  0  0  0  0  0  0
   -6.1928   -1.3644    0.1898 C   0  0  0  0  0  0  0  0  0  0  0  0
   -6.1786   -2.4324    0.7927 O   0  0  0  0  0  0  0  0  0  0  0  0
   -7.4984   -0.6945   -0.1224 C   0  0  0  0  0  0  0  0  0  0  0  0
   -7.7293    0.4250   -0.8739 C   0  0  0  0  0  0  0  0  0  0  0  0
   -9.0203    0.8017   -1.0381 C   0  0  0  0  0  0  0  0  0  0  0  0
   -9.5096    1.9937   -1.8760 C   0  0  0  0  0  0  0  0  0  0  0  0
  -10.7481    1.4307   -2.5474 C   0  0  0  0  0  0  0  0  0  0  0  0
  -11.8072    1.3227   -1.4857 C   0  0  0  0  0  0  0  0  0  0  0  0
  -11.4311    0.2884   -0.4846 C   0  0  0  0  0  0  0  0  0  0  0  0
   -9.9774    0.0261   -0.4330 C   0  0  0  0  0  0  0  0  0  0  0  0
   -9.0617   -1.1867    0.3312 S   0  0  0  0  0  0  0  0  0  0  0  0
   -3.3061   -2.3565    0.1487 C   0  0  0  0  0  0  0  0  0  0  0  0
   -1.9610   -2.7305    0.2032 C   0  0  0  0  0  0  0  0  0  0  0  0
   -1.5989   -4.1237    0.4853 C   0  0  0  0  0  0  0  0  0  0  0  0
    5.1788    0.7253    0.1075 N   0  0  0  0  0  0  0  0  0  0  0  0
    5.4187    1.6421   -0.8100 N   0  0  0  0  0  0  0  0  0  0  0  0
    6.5495    2.3794   -0.7667 C   0  0  0  0  0  0  0  0  0  0  0  0
    7.4770    2.1997    0.2237 C   0  0  0  0  0  0  0  0  0  0  0  0
    8.6469    2.9392    0.2869 C   0  0  0  0  0  0  0  0  0  0  0  0
    9.5422    2.7162    1.2926 C   0  0  0  0  0  0  0  0  0  0  0  0
    9.2515    1.7410    2.2387 C   0  0  0  0  0  0  0  0  0  0  0  0
    8.0926    0.9974    2.1912 C   0  0  0  0  0  0  0  0  0  0  0  0
    7.2017    1.2220    1.1857 C   0  0  0  0  0  0  0  0  0  0  0  0
    6.0270    0.4788    1.1136 C   0  0  0  0  0  0  0  0  0  0  0  0
    5.8271   -0.3902    2.0060 O   0  0  0  0  0  0  0  0  0  0  0  0
   10.7987    3.4859    1.3924 C   0  0  0  0  0  0  0  0  0  0  0  0
   11.1155    4.5349    0.4150 C   0  0  0  0  0  0  0  0  0  0  0  0
   11.5874    3.2207    2.3318 O   0  0  0  0  0  0  0  0  0  0  0  0
    4.3974   -3.4985    1.8459 H   0  0  0  0  0  0  0  0  0  0  0  0
    4.8941   -5.2730    1.6391 H   0  0  0  0  0  0  0  0  0  0  0  0
    5.9061   -4.0018    0.8902 H   0  0  0  0  0  0  0  0  0  0  0  0
    3.6175   -5.3904   -0.2164 H   0  0  0  0  0  0  0  0  0  0  0  0
    4.5913   -4.0973   -0.9298 H   0  0  0  0  0  0  0  0  0  0  0  0
    4.9703   -1.9398    0.0223 H   0  0  0  0  0  0  0  0  0  0  0  0
    2.7633    1.6681    0.1010 H   0  0  0  0  0  0  0  0  0  0  0  0
    0.5451   -3.3063    0.0073 H   0  0  0  0  0  0  0  0  0  0  0  0
   -0.6065    0.2572   -0.4835 H   0  0  0  0  0  0  0  0  0  0  0  0
   -1.5876    2.0403   -1.8347 H   0  0  0  0  0  0  0  0  0  0  0  0
   -1.3230    2.1786   -0.0775 H   0  0  0  0  0  0  0  0  0  0  0  0
   -2.5675    3.1740   -0.8785 H   0  0  0  0  0  0  0  0  0  0  0  0
   -5.1553    0.2633   -0.7674 H   0  0  0  0  0  0  0  0  0  0  0  0
   -6.8676    0.9887   -1.3262 H   0  0  0  0  0  0  0  0  0  0  0  0
   -9.8021    2.8312   -1.2337 H   0  0  0  0  0  0  0  0  0  0  0  0
   -8.7649    2.3176   -2.5945 H   0  0  0  0  0  0  0  0  0  0  0  0
  -11.1179    2.0728   -3.3750 H   0  0  0  0  0  0  0  0  0  0  0  0
  -10.4812    0.4300   -2.9371 H   0  0  0  0  0  0  0  0  0  0  0  0
  -11.8353    2.3299   -0.9624 H   0  0  0  0  0  0  0  0  0  0  0  0
  -12.8158    1.1138   -1.9311 H   0  0  0  0  0  0  0  0  0  0  0  0
  -11.8216    0.5745    0.5406 H   0  0  0  0  0  0  0  0  0  0  0  0
  -11.9889   -0.6607   -0.7524 H   0  0  0  0  0  0  0  0  0  0  0  0
   -4.0344   -3.1534    0.3271 H   0  0  0  0  0  0  0  0  0  0  0  0
   -0.7935   -4.1223    1.2522 H   0  0  0  0  0  0  0  0  0  0  0  0
   -2.4398   -4.6761    0.9684 H   0  0  0  0  0  0  0  0  0  0  0  0
   -1.3202   -4.6879   -0.4333 H   0  0  0  0  0  0  0  0  0  0  0  0
    6.7352    3.1392   -1.5401 H   0  0  0  0  0  0  0  0  0  0  0  0
    8.8157    3.6817   -0.4752 H   0  0  0  0  0  0  0  0  0  0  0  0
    9.9748    1.5651    3.0440 H   0  0  0  0  0  0  0  0  0  0  0  0
    7.8457    0.2275    2.9262 H   0  0  0  0  0  0  0  0  0  0  0  0
   12.2121    4.7919    0.4459 H   0  0  0  0  0  0  0  0  0  0  0  0
   10.6025    5.5119    0.6401 H   0  0  0  0  0  0  0  0  0  0  0  0
   10.8086    4.2840   -0.6214 H   0  0  0  0  0  0  0  0  0  0  0  0
  1  2  1  0
  2  3  1  0
  3  4  1  0
  4  5  2  0
  5  6  1  0
  6  7  2  0
  7  8  1  0
  8  9  2  0
  9 10  1  0
 10 11  1  0
 11 12  2  0
 12 13  1  0
 13 14  1  0
 14 15  1  0
 13 16  2  0
 16 17  1  0
 17 18  1  0
 18 19  2  0
 18 20  1  0
 20 21  2  0
 21 22  1  0
 22 23  1  0
 23 24  1  0
 24 25  1  0
 25 26  1  0
 26 27  1  0
 27 28  1  0
 16 29  1  0
 29 30  2  0
 30 31  1  0
  6 32  1  0
 32 33  1  0
 33 34  2  0
 34 35  1  0
 35 36  2  0
 36 37  1  0
 37 38  2  0
 38 39  1  0
 39 40  2  0
 40 41  1  0
 41 42  2  0
 37 43  1  0
 43 44  1  0
 43 45  2  0
  9  4  1  0
 30 11  1  0
 41 32  1  0
 28 20  1  0
 40 35  1  0
 27 22  2  0
  1 46  1  0
  1 47  1  0
  1 48  1  0
  2 49  1  0
  2 50  1  0
  5 51  1  0
  7 52  1  0
 10 53  1  0
 12 54  1  0
 15 55  1  0
 15 56  1  0
 15 57  1  0
 17 58  1  0
 21 59  1  0
 23 60  1  0
 23 61  1  0
 24 62  1  0
 24 63  1  0
 25 64  1  0
 25 65  1  0
 26 66  1  0
 26 67  1  0
 29 68  1  0
 31 69  1  0
 31 70  1  0
 31 71  1  0
 34 72  1  0
 36 73  1  0
 38 74  1  0
 39 75  1  0
 44 76  1  0
 44 77  1  0
 44 78  1  0
M  END
$$$$
[H]c1nc2c([H])c(OC([H])([H])[H])c(OC([H])([H])[H])c([H])c2c(Oc2c([H])c([H])c(C([H])([H])N([H])C(=O)c3c(C([H])([H])[H])n(C([H])([H])C([H])(C([H])([H])[H])C([H])([H])[H])n(C([H])([H])[H])c3=O)c([H])c2[H])c1[H]
     RDKit          3D

 69 72  0  0  0  0  0  0  0  0999 V2000
  -10.1213    0.9056   -1.6130 C   0  0  0  0  0  0  0  0  0  0  0  0
   -8.9741    1.1043   -0.8395 O   0  0  0  0  0  0  0  0  0  0  0  0
   -7.9610    0.1808   -0.6505 C   0  0  0  0  0  0  0  0  0  0  0  0
   -7.9723   -1.0697   -1.2083 C   0  0  0  0  0  0  0  0  0  0  0  0
   -6.9671   -1.9967   -1.0225 C   0  0  0  0  0  0  0  0  0  0  0  0
   -7.0161   -3.2158   -1.5507 N   0  0  0  0  0  0  0  0  0  0  0  0
   -6.0581   -4.1369   -1.3522 C   0  0  0  0  0  0  0  0  0  0  0  0
   -4.9798   -3.8029   -0.5697 C   0  0  0  0  0  0  0  0  0  0  0  0
   -4.8710   -2.5261    0.0152 C   0  0  0  0  0  0  0  0  0  0  0  0
   -3.8010   -2.2085    0.7888 O   0  0  0  0  0  0  0  0  0  0  0  0
   -2.8360   -1.2896    0.4707 C   0  0  0  0  0  0  0  0  0  0  0  0
   -1.9318   -0.8408    1.4268 C   0  0  0  0  0  0  0  0  0  0  0  0
   -0.9514    0.0758    1.1172 C   0  0  0  0  0  0  0  0  0  0  0  0
   -0.8131    0.5943   -0.1470 C   0  0  0  0  0  0  0  0  0  0  0  0
    0.2841    1.5582   -0.5125 C   0  0  0  0  0  0  0  0  0  0  0  0
    1.5167    0.7995   -0.2684 N   0  0  0  0  0  0  0  0  0  0  0  0
    2.6649    1.5009    0.1687 C   0  0  0  0  0  0  0  0  0  0  0  0
    2.5816    2.7561    0.3115 O   0  0  0  0  0  0  0  0  0  0  0  0
    3.9177    0.8093    0.4461 C   0  0  0  0  0  0  0  0  0  0  0  0
    5.1643    1.3691    0.6358 C   0  0  0  0  0  0  0  0  0  0  0  0
    5.4411    2.8209    0.5637 C   0  0  0  0  0  0  0  0  0  0  0  0
    6.0701    0.3859    0.9083 N   0  0  0  0  0  0  0  0  0  0  0  0
    7.4738    0.5929    1.1409 C   0  0  0  0  0  0  0  0  0  0  0  0
    8.3525    0.4969   -0.0552 C   0  0  0  0  0  0  0  0  0  0  0  0
    8.0649    1.4501   -1.1623 C   0  0  0  0  0  0  0  0  0  0  0  0
    8.5286   -0.8823   -0.6245 C   0  0  0  0  0  0  0  0  0  0  0  0
    5.4156   -0.7534    0.8920 N   0  0  0  0  0  0  0  0  0  0  0  0
    5.9306   -2.0979    1.1433 C   0  0  0  0  0  0  0  0  0  0  0  0
    4.0947   -0.5385    0.6117 C   0  0  0  0  0  0  0  0  0  0  0  0
    3.2349   -1.4600    0.5333 O   0  0  0  0  0  0  0  0  0  0  0  0
   -1.7063    0.1607   -1.1118 C   0  0  0  0  0  0  0  0  0  0  0  0
   -2.6907   -0.7575   -0.8063 C   0  0  0  0  0  0  0  0  0  0  0  0
   -5.8883   -1.6358   -0.2284 C   0  0  0  0  0  0  0  0  0  0  0  0
   -5.8826   -0.3680    0.3329 C   0  0  0  0  0  0  0  0  0  0  0  0
   -6.8872    0.5579    0.1486 C   0  0  0  0  0  0  0  0  0  0  0  0
   -6.8650    1.8239    0.7210 O   0  0  0  0  0  0  0  0  0  0  0  0
   -5.7990    2.2638    1.5343 C   0  0  0  0  0  0  0  0  0  0  0  0
  -10.9699    1.4012   -1.0546 H   0  0  0  0  0  0  0  0  0  0  0  0
  -10.4027   -0.1456   -1.7678 H   0  0  0  0  0  0  0  0  0  0  0  0
  -10.0551    1.4085   -2.5915 H   0  0  0  0  0  0  0  0  0  0  0  0
   -8.7969   -1.3767   -1.8287 H   0  0  0  0  0  0  0  0  0  0  0  0
   -6.1172   -5.1261   -1.7856 H   0  0  0  0  0  0  0  0  0  0  0  0
   -4.2061   -4.5076   -0.3946 H   0  0  0  0  0  0  0  0  0  0  0  0
   -2.0159   -1.2293    2.4296 H   0  0  0  0  0  0  0  0  0  0  0  0
   -0.2552    0.4073    1.8900 H   0  0  0  0  0  0  0  0  0  0  0  0
    0.1828    1.8107   -1.5715 H   0  0  0  0  0  0  0  0  0  0  0  0
    0.2056    2.4198    0.1576 H   0  0  0  0  0  0  0  0  0  0  0  0
    1.4700   -0.2173   -0.4362 H   0  0  0  0  0  0  0  0  0  0  0  0
    6.4609    3.0746    0.9640 H   0  0  0  0  0  0  0  0  0  0  0  0
    4.7524    3.4113    1.1968 H   0  0  0  0  0  0  0  0  0  0  0  0
    5.3120    3.1488   -0.4779 H   0  0  0  0  0  0  0  0  0  0  0  0
    7.8584   -0.1263    1.9269 H   0  0  0  0  0  0  0  0  0  0  0  0
    7.6945    1.5961    1.6118 H   0  0  0  0  0  0  0  0  0  0  0  0
    9.3943    0.7831    0.3205 H   0  0  0  0  0  0  0  0  0  0  0  0
    7.0610    1.2779   -1.6090 H   0  0  0  0  0  0  0  0  0  0  0  0
    8.8431    1.2509   -1.9600 H   0  0  0  0  0  0  0  0  0  0  0  0
    8.2251    2.5192   -0.8776 H   0  0  0  0  0  0  0  0  0  0  0  0
    9.4248   -0.8050   -1.3131 H   0  0  0  0  0  0  0  0  0  0  0  0
    7.6998   -1.2195   -1.2580 H   0  0  0  0  0  0  0  0  0  0  0  0
    8.8650   -1.6172    0.1388 H   0  0  0  0  0  0  0  0  0  0  0  0
    5.2143   -2.6924    1.7450 H   0  0  0  0  0  0  0  0  0  0  0  0
    6.0827   -2.6733    0.2092 H   0  0  0  0  0  0  0  0  0  0  0  0
    6.8671   -2.0832    1.7539 H   0  0  0  0  0  0  0  0  0  0  0  0
   -1.6061    0.5645   -2.1051 H   0  0  0  0  0  0  0  0  0  0  0  0
   -3.3722   -1.0847   -1.5715 H   0  0  0  0  0  0  0  0  0  0  0  0
   -5.0718   -0.0538    0.9798 H   0  0  0  0  0  0  0  0  0  0  0  0
   -5.6262    1.5693    2.3750 H   0  0  0  0  0  0  0  0  0  0  0  0
   -6.0103    3.2658    1.9753 H   0  0  0  0  0  0  0  0  0  0  0  0
   -4.8712    2.4228    0.9223 H   0  0  0  0  0  0  0  0  0  0  0  0
  1  2  1  0
  2  3  1  0
  3  4  2  0
  4  5  1  0
  5  6  2  0
  6  7  1  0
  7  8  2  0
  8  9  1  0
  9 10  1  0
 10 11  1  0
 11 12  2  0
 12 13  1  0
 13 14  2  0
 14 15  1  0
 15 16  1  0
 16 17  1  0
 17 18  2  0
 17 19  1  0
 19 20  2  0
 20 21  1  0
 20 22  1  0
 22 23  1  0
 23 24  1  0
 24 25  1  0
 24 26  1  0
 22 27  1  0
 27 28  1  0
 27 29  1  0
 29 30  2  0
 14 31  1  0
 31 32  2  0
  9 33  2  0
 33 34  1  0
 34 35  2  0
 35 36  1  0
 36 37  1  0
 35  3  1  0
 33  5  1  0
 32 11  1  0
 29 19  1  0
  1 38  1  0
  1 39  1  0
  1 40  1  0
  4 41  1  0
  7 42  1  0
  8 43  1  0
 12 44  1  0
 13 45  1  0
 15 46  1  0
 15 47  1  0
 16 48  1  0
 21 49  1  0
 21 50  1  0
 21 51  1  0
 23 52  1  0
 23 53  1  0
 24 54  1  0
 25 55  1  0
 25 56  1  0
 25 57  1  0
 26 58  1  0
 26 59  1  0
 26 60  1  0
 28 61  1  0
 28 62  1  0
 28 63  1  0
 31 64  1  0
 32 65  1  0
 34 66  1  0
 37 67  1  0
 37 68  1  0
 37 69  1  0
M  END
$$$$
[H]OC(=O)/C1=C(/[H])c2c([H])c(C([H])([H])c3c([H])c([H])c(O[H])c([H])c3[H])c([H])c([H])c2C(=O)C([H])([H])c2c([H])c([H])c([H])c([H])c21
     RDKit          3D

 46 49  0  0  0  0  0  0  0  0999 V2000
    5.7826    3.1573    0.7568 O   0  0  0  0  0  0  0  0  0  0  0  0
    5.1896    1.9619    0.4425 C   0  0  0  0  0  0  0  0  0  0  0  0
    5.2436    0.9355    1.3584 C   0  0  0  0  0  0  0  0  0  0  0  0
    4.6393   -0.2564    1.0173 C   0  0  0  0  0  0  0  0  0  0  0  0
    3.9942   -0.4274   -0.2074 C   0  0  0  0  0  0  0  0  0  0  0  0
    3.3651   -1.7640   -0.4874 C   0  0  0  0  0  0  0  0  0  0  0  0
    1.9770   -1.6851    0.0112 C   0  0  0  0  0  0  0  0  0  0  0  0
    1.6390   -2.0261    1.2889 C   0  0  0  0  0  0  0  0  0  0  0  0
    0.3328   -1.9413    1.7241 C   0  0  0  0  0  0  0  0  0  0  0  0
   -0.6931   -1.5125    0.9033 C   0  0  0  0  0  0  0  0  0  0  0  0
   -1.9321   -1.5497    1.6749 C   0  0  0  0  0  0  0  0  0  0  0  0
   -1.7128   -1.8497    2.8739 O   0  0  0  0  0  0  0  0  0  0  0  0
   -3.3930   -1.3368    1.4646 C   0  0  0  0  0  0  0  0  0  0  0  0
   -3.6498   -0.0977    0.6846 C   0  0  0  0  0  0  0  0  0  0  0  0
   -4.5195    0.6402    1.4457 C   0  0  0  0  0  0  0  0  0  0  0  0
   -4.9306    1.8939    0.9973 C   0  0  0  0  0  0  0  0  0  0  0  0
   -4.4715    2.3964   -0.1985 C   0  0  0  0  0  0  0  0  0  0  0  0
   -3.5948    1.6830   -0.9911 C   0  0  0  0  0  0  0  0  0  0  0  0
   -3.2089    0.4370   -0.5158 C   0  0  0  0  0  0  0  0  0  0  0  0
   -2.3223   -0.0400   -1.5876 C   0  0  0  0  0  0  0  0  0  0  0  0
   -1.1473   -0.6918   -1.4948 C   0  0  0  0  0  0  0  0  0  0  0  0
   -0.3090   -1.1764   -0.3827 C   0  0  0  0  0  0  0  0  0  0  0  0
    0.9728   -1.2456   -0.8554 C   0  0  0  0  0  0  0  0  0  0  0  0
   -2.7925    0.2150   -2.9052 C   0  0  0  0  0  0  0  0  0  0  0  0
   -3.9868    0.7848   -3.2164 O   0  0  0  0  0  0  0  0  0  0  0  0
   -2.0253   -0.1198   -3.8745 O   0  0  0  0  0  0  0  0  0  0  0  0
    3.9470    0.6080   -1.1159 C   0  0  0  0  0  0  0  0  0  0  0  0
    4.5585    1.8198   -0.7754 C   0  0  0  0  0  0  0  0  0  0  0  0
    5.3586    3.9324    1.2183 H   0  0  0  0  0  0  0  0  0  0  0  0
    5.7509    1.0688    2.3222 H   0  0  0  0  0  0  0  0  0  0  0  0
    4.6622   -1.0958    1.7216 H   0  0  0  0  0  0  0  0  0  0  0  0
    3.9546   -2.5456    0.0201 H   0  0  0  0  0  0  0  0  0  0  0  0
    3.3885   -1.9298   -1.5850 H   0  0  0  0  0  0  0  0  0  0  0  0
    2.4271   -2.3732    1.9759 H   0  0  0  0  0  0  0  0  0  0  0  0
    0.1022   -2.2233    2.7541 H   0  0  0  0  0  0  0  0  0  0  0  0
   -3.8821   -1.2500    2.4303 H   0  0  0  0  0  0  0  0  0  0  0  0
   -3.7970   -2.1951    0.8604 H   0  0  0  0  0  0  0  0  0  0  0  0
   -4.9206    0.3133    2.3929 H   0  0  0  0  0  0  0  0  0  0  0  0
   -5.6162    2.5160    1.5591 H   0  0  0  0  0  0  0  0  0  0  0  0
   -4.7711    3.3818   -0.5898 H   0  0  0  0  0  0  0  0  0  0  0  0
   -3.1801    2.0631   -1.9039 H   0  0  0  0  0  0  0  0  0  0  0  0
   -0.7082   -0.9046   -2.4441 H   0  0  0  0  0  0  0  0  0  0  0  0
    1.1655   -0.9655   -1.8656 H   0  0  0  0  0  0  0  0  0  0  0  0
   -4.8589    0.2826   -3.3529 H   0  0  0  0  0  0  0  0  0  0  0  0
    3.4476    0.4784   -2.0661 H   0  0  0  0  0  0  0  0  0  0  0  0
    4.5249    2.6342   -1.4826 H   0  0  0  0  0  0  0  0  0  0  0  0
  1  2  1  0
  2  3  2  0
  3  4  1  0
  4  5  2  0
  5  6  1  0
  6  7  1  0
  7  8  2  0
  8  9  1  0
  9 10  2  0
 10 11  1  0
 11 12  2  0
 11 13  1  0
 13 14  1  0
 14 15  2  0
 15 16  1  0
 16 17  2  0
 17 18  1  0
 18 19  2  0
 19 20  1  0
 20 21  2  0
 21 22  1  0
 22 23  2  0
 20 24  1  0
 24 25  1  0
 24 26  2  0
  5 27  1  0
 27 28  2  0
 28  2  1  0
 23  7  1  0
 22 10  1  0
 19 14  1  0
  1 29  1  0
  3 30  1  0
  4 31  1  0
  6 32  1  0
  6 33  1  0
  8 34  1  0
  9 35  1  0
 13 36  1  0
 13 37  1  0
 15 38  1  0
 16 39  1  0
 17 40  1  0
 18 41  1  0
 21 42  1  0
 23 43  1  0
 25 44  1  0
 27 45  1  0
 28 46  1  0
M  END
$$$$
[H]c1c([H])c(OC([H])([H])C(=O)N([H])[C@]([H])(C([H])([H])C([H])([H])[H])C([H])([H])C2([H])C(=O)C([H])([H])C([H])([H])C([H])([H])C2([H])[H])c([H])c([H])c1Cl
     RDKit          3D

 47 48  0  0  0  0  0  0  0  0999 V2000
   -1.8899   -3.8565   -1.0273 C   0  0  0  0  0  0  0  0  0  0  0  0
   -0.8538   -2.7319   -1.0345 C   0  0  0  0  0  0  0  0  0  0  0  0
   -0.6611   -2.0460    0.2394 C   0  0  2  0  0  0  0  0  0  0  0  0
   -1.6561   -1.2639    0.9550 C   0  0  0  0  0  0  0  0  0  0  0  0
   -2.2584   -0.0320    0.4888 C   0  0  0  0  0  0  0  0  0  0  0  0
   -3.2120    0.4478    1.6663 C   0  0  0  0  0  0  0  0  0  0  0  0
   -3.4808    1.8985    1.3383 C   0  0  0  0  0  0  0  0  0  0  0  0
   -4.3740    1.9720    0.1497 C   0  0  0  0  0  0  0  0  0  0  0  0
   -3.8443    1.2558   -1.0672 C   0  0  0  0  0  0  0  0  0  0  0  0
   -3.1802   -0.0530   -0.6401 C   0  0  0  0  0  0  0  0  0  0  0  0
   -3.5126   -0.9794   -1.3108 O   0  0  0  0  0  0  0  0  0  0  0  0
    0.6304   -1.2949    0.1964 N   0  0  0  0  0  0  0  0  0  0  0  0
    1.7675   -1.6804    0.9280 C   0  0  0  0  0  0  0  0  0  0  0  0
    1.6960   -2.7155    1.6607 O   0  0  0  0  0  0  0  0  0  0  0  0
    3.0256   -0.9043    0.8534 C   0  0  0  0  0  0  0  0  0  0  0  0
    2.8236    0.1827   -0.0261 O   0  0  0  0  0  0  0  0  0  0  0  0
    3.8212    1.1067   -0.3124 C   0  0  0  0  0  0  0  0  0  0  0  0
    5.0805    1.0264    0.2438 C   0  0  0  0  0  0  0  0  0  0  0  0
    6.0355    1.9545   -0.0623 C   0  0  0  0  0  0  0  0  0  0  0  0
    5.8057    2.9999   -0.9224 C   0  0  0  0  0  0  0  0  0  0  0  0
    7.0345    4.1905   -1.3135 Cl  0  0  0  0  0  0  0  0  0  0  0  0
    4.5423    3.0843   -1.4830 C   0  0  0  0  0  0  0  0  0  0  0  0
    3.5600    2.1381   -1.1744 C   0  0  0  0  0  0  0  0  0  0  0  0
   -2.4097   -3.9403   -2.0020 H   0  0  0  0  0  0  0  0  0  0  0  0
   -1.4515   -4.8337   -0.7797 H   0  0  0  0  0  0  0  0  0  0  0  0
   -2.6782   -3.5577   -0.2857 H   0  0  0  0  0  0  0  0  0  0  0  0
   -1.0247   -2.1395   -1.9385 H   0  0  0  0  0  0  0  0  0  0  0  0
    0.1217   -3.3020   -1.2418 H   0  0  0  0  0  0  0  0  0  0  0  0
   -0.3668   -2.8974    0.9796 H   0  0  0  0  0  0  0  0  0  0  0  0
   -2.4901   -2.0133    1.2742 H   0  0  0  0  0  0  0  0  0  0  0  0
   -1.2023   -1.0894    2.0119 H   0  0  0  0  0  0  0  0  0  0  0  0
   -1.5490    0.8429    0.4465 H   0  0  0  0  0  0  0  0  0  0  0  0
   -4.1305   -0.1647    1.5970 H   0  0  0  0  0  0  0  0  0  0  0  0
   -2.6713    0.3842    2.6085 H   0  0  0  0  0  0  0  0  0  0  0  0
   -3.9558    2.4399    2.1720 H   0  0  0  0  0  0  0  0  0  0  0  0
   -2.5036    2.3746    1.0472 H   0  0  0  0  0  0  0  0  0  0  0  0
   -5.4100    1.6546    0.3953 H   0  0  0  0  0  0  0  0  0  0  0  0
   -4.4749    3.0556   -0.1536 H   0  0  0  0  0  0  0  0  0  0  0  0
   -4.6879    1.0273   -1.7271 H   0  0  0  0  0  0  0  0  0  0  0  0
   -3.0990    1.8361   -1.6294 H   0  0  0  0  0  0  0  0  0  0  0  0
    0.6571   -0.4602   -0.4065 H   0  0  0  0  0  0  0  0  0  0  0  0
    3.3025   -0.5705    1.8739 H   0  0  0  0  0  0  0  0  0  0  0  0
    3.8591   -1.5424    0.4563 H   0  0  0  0  0  0  0  0  0  0  0  0
    5.2834    0.2049    0.9284 H   0  0  0  0  0  0  0  0  0  0  0  0
    7.0219    1.8619    0.3951 H   0  0  0  0  0  0  0  0  0  0  0  0
    4.3698    3.9041   -2.1544 H   0  0  0  0  0  0  0  0  0  0  0  0
    2.5902    2.2258   -1.6217 H   0  0  0  0  0  0  0  0  0  0  0  0
  1  2  1  0
  2  3  1  0
  3  4  1  0
  4  5  1  0
  5  6  1  0
  6  7  1  0
  7  8  1  0
  8  9  1  0
  9 10  1  0
 10 11  2  0
  3 12  1  0
 12 13  1  0
 13 14  2  0
 13 15  1  0
 15 16  1  0
 16 17  1  0
 17 18  2  0
 18 19  1  0
 19 20  2  0
 20 21  1  0
 20 22  1  0
 22 23  2  0
 10  5  1  0
 23 17  1  0
  1 24  1  0
  1 25  1  0
  1 26  1  0
  2 27  1  0
  2 28  1  0
  3 29  1  1
  4 30  1  0
  4 31  1  0
  5 32  1  0
  6 33  1  0
  6 34  1  0
  7 35  1  0
  7 36  1  0
  8 37  1  0
  8 38  1  0
  9 39  1  0
  9 40  1  0
 12 41  1  0
 15 42  1  0
 15 43  1  0
 18 44  1  0
 19 45  1  0
 22 46  1  0
 23 47  1  0
M  END
$$$$
[H]c1c([H])c(S(=O)(=O)N2C([H])([H])C([H])([H])[C@]([H])(N([H])C(=O)[C@@]3([H])N(C(=O)C([H])([H])[H])C([H])([H])C([H])([H])C3([H])[H])C2([H])[H])c([H])c(Cl)c1C([H])([H])[H]
     RDKit          3D

 51 53  0  0  0  0  0  0  0  0999 V2000
   -4.9971   -1.4811    2.1128 C   0  0  0  0  0  0  0  0  0  0  0  0
   -4.7993   -1.3217    0.6628 C   0  0  0  0  0  0  0  0  0  0  0  0
   -4.7932   -2.3026   -0.0974 O   0  0  0  0  0  0  0  0  0  0  0  0
   -4.6086   -0.0121    0.1024 N   0  0  0  0  0  0  0  0  0  0  0  0
   -4.5886    1.2299    0.8453 C   0  0  0  0  0  0  0  0  0  0  0  0
   -5.4750    2.0913   -0.0512 C   0  0  0  0  0  0  0  0  0  0  0  0
   -5.0917    1.6444   -1.4479 C   0  0  0  0  0  0  0  0  0  0  0  0
   -4.4060    0.3207   -1.2880 C   0  0  1  0  0  0  0  0  0  0  0  0
   -2.9498    0.4017   -1.5390 C   0  0  0  0  0  0  0  0  0  0  0  0
   -2.5666    0.8049   -2.6757 O   0  0  0  0  0  0  0  0  0  0  0  0
   -2.0325    0.0328   -0.5231 N   0  0  0  0  0  0  0  0  0  0  0  0
   -0.6183    0.1339   -0.8239 C   0  0  1  0  0  0  0  0  0  0  0  0
   -0.0105    1.0485    0.2369 C   0  0  0  0  0  0  0  0  0  0  0  0
    1.4261    0.5815    0.2374 C   0  0  0  0  0  0  0  0  0  0  0  0
    1.4170   -0.8155   -0.0647 N   0  0  0  0  0  0  0  0  0  0  0  0
    0.1230   -1.1530   -0.5834 C   0  0  0  0  0  0  0  0  0  0  0  0
    2.7066   -1.2046   -1.1049 S   0  0  0  0  0  0  0  0  0  0  0  0
    2.6630   -0.2889   -2.3202 O   0  0  0  0  0  0  0  0  0  0  0  0
    2.7021   -2.6132   -1.5659 O   0  0  0  0  0  0  0  0  0  0  0  0
    4.2111   -0.8235   -0.2758 C   0  0  0  0  0  0  0  0  0  0  0  0
    4.7919    0.4223   -0.3875 C   0  0  0  0  0  0  0  0  0  0  0  0
    5.9801    0.6986    0.2770 C   0  0  0  0  0  0  0  0  0  0  0  0
    6.5890   -0.2655    1.0520 C   0  0  0  0  0  0  0  0  0  0  0  0
    7.8645    0.0667    1.7515 C   0  0  0  0  0  0  0  0  0  0  0  0
    6.0126   -1.5090    1.1656 C   0  0  0  0  0  0  0  0  0  0  0  0
    6.7735   -2.7487    2.1478 Cl  0  0  0  0  0  0  0  0  0  0  0  0
    4.8331   -1.7956    0.5108 C   0  0  0  0  0  0  0  0  0  0  0  0
   -5.4398   -2.4783    2.3268 H   0  0  0  0  0  0  0  0  0  0  0  0
   -4.0440   -1.3255    2.6292 H   0  0  0  0  0  0  0  0  0  0  0  0
   -5.7147   -0.7256    2.4884 H   0  0  0  0  0  0  0  0  0  0  0  0
   -3.5815    1.6666    0.8542 H   0  0  0  0  0  0  0  0  0  0  0  0
   -5.0335    1.1282    1.8530 H   0  0  0  0  0  0  0  0  0  0  0  0
   -6.5439    1.9164    0.1753 H   0  0  0  0  0  0  0  0  0  0  0  0
   -5.2515    3.1546    0.0293 H   0  0  0  0  0  0  0  0  0  0  0  0
   -4.4224    2.3506   -1.9559 H   0  0  0  0  0  0  0  0  0  0  0  0
   -6.0318    1.4912   -2.0451 H   0  0  0  0  0  0  0  0  0  0  0  0
   -4.8799   -0.4582   -1.9530 H   0  0  0  0  0  0  0  0  0  0  0  0
   -2.3554   -0.2976    0.3886 H   0  0  0  0  0  0  0  0  0  0  0  0
   -0.4508    0.4973   -1.8372 H   0  0  0  0  0  0  0  0  0  0  0  0
   -0.1310    2.0961   -0.0455 H   0  0  0  0  0  0  0  0  0  0  0  0
   -0.4714    0.8021    1.1933 H   0  0  0  0  0  0  0  0  0  0  0  0
    1.8949    0.7369    1.2117 H   0  0  0  0  0  0  0  0  0  0  0  0
    1.9643    1.1940   -0.5153 H   0  0  0  0  0  0  0  0  0  0  0  0
   -0.4211   -1.7029    0.2312 H   0  0  0  0  0  0  0  0  0  0  0  0
    0.1591   -1.8124   -1.4706 H   0  0  0  0  0  0  0  0  0  0  0  0
    4.3143    1.1869   -0.9989 H   0  0  0  0  0  0  0  0  0  0  0  0
    6.3930    1.6996    0.1523 H   0  0  0  0  0  0  0  0  0  0  0  0
    8.5677    0.4939    0.9842 H   0  0  0  0  0  0  0  0  0  0  0  0
    7.6511    0.8649    2.4941 H   0  0  0  0  0  0  0  0  0  0  0  0
    8.2969   -0.8403    2.2162 H   0  0  0  0  0  0  0  0  0  0  0  0
    4.3753   -2.7804    0.5999 H   0  0  0  0  0  0  0  0  0  0  0  0
  1  2  1  0
  2  3  2  0
  2  4  1  0
  4  5  1  0
  5  6  1  0
  6  7  1  0
  7  8  1  0
  8  9  1  0
  9 10  2  0
  9 11  1  0
 11 12  1  0
 12 13  1  0
 13 14  1  0
 14 15  1  0
 15 16  1  0
 15 17  1  0
 17 18  2  0
 17 19  2  0
 17 20  1  0
 20 21  2  0
 21 22  1  0
 22 23  2  0
 23 24  1  0
 23 25  1  0
 25 26  1  0
 25 27  2  0
  8  4  1  0
 16 12  1  0
 27 20  1  0
  1 28  1  0
  1 29  1  0
  1 30  1  0
  5 31  1  0
  5 32  1  0
  6 33  1  0
  6 34  1  0
  7 35  1  0
  7 36  1  0
  8 37  1  6
 11 38  1  0
 12 39  1  6
 13 40  1  0
 13 41  1  0
 14 42  1  0
 14 43  1  0
 16 44  1  0
 16 45  1  0
 21 46  1  0
 22 47  1  0
 24 48  1  0
 24 49  1  0
 24 50  1  0
 27 51  1  0
M  END
$$$$
[H]C(=C([H])S(=O)(=O)c1c([H])c([H])c([H])c([H])c1N([H])c1nc(N([H])c2c([H])c([H])c([H])c([H])c2OC([H])([H])[H])nc([H])c1Cl)c1c([H])c([H])c([H])c([H])c1[H]
     RDKit          3D

 55 58  0  0  0  0  0  0  0  0999 V2000
   -6.4862    3.5605    0.5759 C   0  0  0  0  0  0  0  0  0  0  0  0
   -5.8577    2.3543    0.2519 O   0  0  0  0  0  0  0  0  0  0  0  0
   -6.5209    1.2647   -0.2615 C   0  0  0  0  0  0  0  0  0  0  0  0
   -7.8595    1.3330   -0.4768 C   0  0  0  0  0  0  0  0  0  0  0  0
   -8.5659    0.2677   -0.9891 C   0  0  0  0  0  0  0  0  0  0  0  0
   -7.8970   -0.8907   -1.2885 C   0  0  0  0  0  0  0  0  0  0  0  0
   -6.5168   -0.9415   -1.0594 C   0  0  0  0  0  0  0  0  0  0  0  0
   -5.8011    0.1027   -0.5530 C   0  0  0  0  0  0  0  0  0  0  0  0
   -4.4269    0.1150   -0.3020 N   0  0  0  0  0  0  0  0  0  0  0  0
   -3.5073   -0.9211   -0.5129 C   0  0  0  0  0  0  0  0  0  0  0  0
   -3.8125   -2.1229   -1.0037 N   0  0  0  0  0  0  0  0  0  0  0  0
   -2.9302   -3.0901   -1.1963 C   0  0  0  0  0  0  0  0  0  0  0  0
   -1.6197   -2.8902   -0.8887 C   0  0  0  0  0  0  0  0  0  0  0  0
   -0.4066   -4.1159   -1.1154 Cl  0  0  0  0  0  0  0  0  0  0  0  0
   -1.2219   -1.6340   -0.3616 C   0  0  0  0  0  0  0  0  0  0  0  0
    0.1433   -1.4236   -0.0509 N   0  0  0  0  0  0  0  0  0  0  0  0
    0.6730   -0.2399    0.4842 C   0  0  0  0  0  0  0  0  0  0  0  0
   -0.0370    0.8713    0.8771 C   0  0  0  0  0  0  0  0  0  0  0  0
    0.5757    2.0093    1.4189 C   0  0  0  0  0  0  0  0  0  0  0  0
    1.9351    2.0201    1.5652 C   0  0  0  0  0  0  0  0  0  0  0  0
    2.6652    0.9205    1.1794 C   0  0  0  0  0  0  0  0  0  0  0  0
    2.0743   -0.2129    0.6415 C   0  0  0  0  0  0  0  0  0  0  0  0
    3.0269   -1.5732    0.1608 S   0  0  0  0  0  0  0  0  0  0  0  0
    2.8867   -1.9500   -1.2802 O   0  0  0  0  0  0  0  0  0  0  0  0
    2.7060   -2.7332    1.0581 O   0  0  0  0  0  0  0  0  0  0  0  0
    4.7204   -1.1721    0.5159 C   0  0  0  0  0  0  0  0  0  0  0  0
    5.4490   -0.6921   -0.4582 C   0  0  0  0  0  0  0  0  0  0  0  0
    6.8469   -0.3201   -0.3150 C   0  0  0  0  0  0  0  0  0  0  0  0
    7.5312   -0.4360    0.8469 C   0  0  0  0  0  0  0  0  0  0  0  0
    8.8783   -0.0535    0.8973 C   0  0  0  0  0  0  0  0  0  0  0  0
    9.5494    0.4423   -0.1956 C   0  0  0  0  0  0  0  0  0  0  0  0
    8.8502    0.5575   -1.3708 C   0  0  0  0  0  0  0  0  0  0  0  0
    7.5214    0.1777   -1.4118 C   0  0  0  0  0  0  0  0  0  0  0  0
   -2.1836   -0.7452   -0.2117 N   0  0  0  0  0  0  0  0  0  0  0  0
   -7.1966    3.8979   -0.2207 H   0  0  0  0  0  0  0  0  0  0  0  0
   -5.7060    4.3556    0.7198 H   0  0  0  0  0  0  0  0  0  0  0  0
   -7.0716    3.5207    1.5226 H   0  0  0  0  0  0  0  0  0  0  0  0
   -8.4088    2.2491   -0.2436 H   0  0  0  0  0  0  0  0  0  0  0  0
   -9.6154    0.3577   -1.1448 H   0  0  0  0  0  0  0  0  0  0  0  0
   -8.4325   -1.7323   -1.6892 H   0  0  0  0  0  0  0  0  0  0  0  0
   -6.0673   -1.8774   -1.3175 H   0  0  0  0  0  0  0  0  0  0  0  0
   -3.9986    1.0155    0.1015 H   0  0  0  0  0  0  0  0  0  0  0  0
   -3.2035   -4.0695   -1.6006 H   0  0  0  0  0  0  0  0  0  0  0  0
    0.7728   -2.2564   -0.2510 H   0  0  0  0  0  0  0  0  0  0  0  0
   -1.0964    0.9196    0.7941 H   0  0  0  0  0  0  0  0  0  0  0  0
   -0.0259    2.8572    1.7122 H   0  0  0  0  0  0  0  0  0  0  0  0
    2.4355    2.9015    1.9875 H   0  0  0  0  0  0  0  0  0  0  0  0
    3.7570    0.9311    1.2978 H   0  0  0  0  0  0  0  0  0  0  0  0
    5.1197   -1.3245    1.5058 H   0  0  0  0  0  0  0  0  0  0  0  0
    4.9643   -0.5687   -1.4333 H   0  0  0  0  0  0  0  0  0  0  0  0
    7.0508   -0.8178    1.7275 H   0  0  0  0  0  0  0  0  0  0  0  0
    9.4158   -0.1528    1.8399 H   0  0  0  0  0  0  0  0  0  0  0  0
   10.5966    0.7369   -0.1465 H   0  0  0  0  0  0  0  0  0  0  0  0
    9.3460    0.9435   -2.2507 H   0  0  0  0  0  0  0  0  0  0  0  0
    6.9819    0.2746   -2.3481 H   0  0  0  0  0  0  0  0  0  0  0  0
  1  2  1  0
  2  3  1  0
  3  4  2  0
  4  5  1  0
  5  6  2  0
  6  7  1  0
  7  8  2  0
  8  9  1  0
  9 10  1  0
 10 11  2  0
 11 12  1  0
 12 13  2  0
 13 14  1  0
 13 15  1  0
 15 16  1  0
 16 17  1  0
 17 18  2  0
 18 19  1  0
 19 20  2  0
 20 21  1  0
 21 22  2  0
 22 23  1  0
 23 24  2  0
 23 25  2  0
 23 26  1  0
 26 27  2  3
 27 28  1  0
 28 29  2  0
 29 30  1  0
 30 31  2  0
 31 32  1  0
 32 33  2  0
 15 34  2  0
  8  3  1  0
 34 10  1  0
 22 17  1  0
 33 28  1  0
  1 35  1  0
  1 36  1  0
  1 37  1  0
  4 38  1  0
  5 39  1  0
  6 40  1  0
  7 41  1  0
  9 42  1  0
 12 43  1  0
 16 44  1  0
 18 45  1  0
 19 46  1  0
 20 47  1  0
 21 48  1  0
 26 49  1  0
 27 50  1  0
 29 51  1  0
 30 52  1  0
 31 53  1  0
 32 54  1  0
 33 55  1  0
M  END
$$$$
[H]OC(=O)[C@]1([H])C([H])([H])[C@]([H])(OC([H])([H])c2c([H])c(F)c(F)c(F)c2[H])[C@@]1([H])N([H])[H]
     RDKit          3D

 31 32  0  0  0  0  0  0  0  0999 V2000
   -0.9512    0.2126    2.3193 N   0  0  0  0  0  0  0  0  0  0  0  0
   -1.3280   -0.2340    0.9906 C   0  0  1  0  0  0  0  0  0  0  0  0
   -2.7353    0.0984    0.6477 C   0  0  1  0  0  0  0  0  0  0  0  0
   -2.2248    1.4175    0.0619 C   0  0  0  0  0  0  0  0  0  0  0  0
   -0.8519    0.7884   -0.0442 C   0  0  2  0  0  0  0  0  0  0  0  0
   -0.5751    0.1447   -1.2172 O   0  0  0  0  0  0  0  0  0  0  0  0
    0.6315    0.4076   -1.8041 C   0  0  0  0  0  0  0  0  0  0  0  0
    1.8099    0.0643   -0.9787 C   0  0  0  0  0  0  0  0  0  0  0  0
    2.2326   -1.2456   -0.9438 C   0  0  0  0  0  0  0  0  0  0  0  0
    3.3259   -1.6184   -0.1962 C   0  0  0  0  0  0  0  0  0  0  0  0
    3.7455   -2.9237   -0.1627 F   0  0  0  0  0  0  0  0  0  0  0  0
    3.9881   -0.6466    0.5178 C   0  0  0  0  0  0  0  0  0  0  0  0
    5.0679   -1.0185    1.2554 F   0  0  0  0  0  0  0  0  0  0  0  0
    3.5769    0.6780    0.4948 C   0  0  0  0  0  0  0  0  0  0  0  0
    4.2477    1.6007    1.2047 F   0  0  0  0  0  0  0  0  0  0  0  0
    2.4704    1.0209   -0.2694 C   0  0  0  0  0  0  0  0  0  0  0  0
   -3.4031   -0.7300   -0.3557 C   0  0  0  0  0  0  0  0  0  0  0  0
   -4.7192   -0.4300   -0.6857 O   0  0  0  0  0  0  0  0  0  0  0  0
   -2.8863   -1.7058   -0.9574 O   0  0  0  0  0  0  0  0  0  0  0  0
   -1.6993    0.0601    3.0257 H   0  0  0  0  0  0  0  0  0  0  0  0
   -0.6774    1.2042    2.3574 H   0  0  0  0  0  0  0  0  0  0  0  0
   -0.9791   -1.2633    0.7789 H   0  0  0  0  0  0  0  0  0  0  0  0
   -3.3554    0.2082    1.5503 H   0  0  0  0  0  0  0  0  0  0  0  0
   -2.6947    1.7111   -0.8794 H   0  0  0  0  0  0  0  0  0  0  0  0
   -2.2541    2.1798    0.8712 H   0  0  0  0  0  0  0  0  0  0  0  0
   -0.0815    1.4747    0.3394 H   0  0  0  0  0  0  0  0  0  0  0  0
    0.6807   -0.2370   -2.7285 H   0  0  0  0  0  0  0  0  0  0  0  0
    0.6849    1.4525   -2.1906 H   0  0  0  0  0  0  0  0  0  0  0  0
    1.6986   -2.0176   -1.5171 H   0  0  0  0  0  0  0  0  0  0  0  0
    2.1561    2.0529   -0.2839 H   0  0  0  0  0  0  0  0  0  0  0  0
   -4.9002    0.4289   -1.2006 H   0  0  0  0  0  0  0  0  0  0  0  0
  1  2  1  0
  2  3  1  0
  3  4  1  0
  4  5  1  0
  5  6  1  0
  6  7  1  0
  7  8  1  0
  8  9  2  0
  9 10  1  0
 10 11  1  0
 10 12  2  0
 12 13  1  0
 12 14  1  0
 14 15  1  0
 14 16  2  0
  3 17  1  0
 17 18  1  0
 17 19  2  0
  5  2  1  0
 16  8  1  0
  1 20  1  0
  1 21  1  0
  2 22  1  6
  3 23  1  1
  4 24  1  0
  4 25  1  0
  5 26  1  1
  7 27  1  0
  7 28  1  0
  9 29  1  0
 16 30  1  0
 18 31  1  0
M  END
$$$$
[H]N=C(c1c([H])c(O[H])c(Br)c(O[H])c1[H])N([H])[H]
     RDKit          3D

 19 19  0  0  0  0  0  0  0  0999 V2000
   -2.8216    0.9578   -0.0315 N   0  0  0  0  0  0  0  0  0  0  0  0
   -2.0420   -0.2131    0.0784 C   0  0  0  0  0  0  0  0  0  0  0  0
   -2.6176   -1.3523    0.2200 N   0  0  0  0  0  0  0  0  0  0  0  0
   -0.5909   -0.1693    0.0357 C   0  0  0  0  0  0  0  0  0  0  0  0
    0.1042    1.0262   -0.1153 C   0  0  0  0  0  0  0  0  0  0  0  0
    1.4659    1.0685   -0.1554 C   0  0  0  0  0  0  0  0  0  0  0  0
    2.1393    2.2752   -0.3071 O   0  0  0  0  0  0  0  0  0  0  0  0
    2.1976   -0.0929   -0.0453 C   0  0  0  0  0  0  0  0  0  0  0  0
    4.0979   -0.0690   -0.0974 Br  0  0  0  0  0  0  0  0  0  0  0  0
    1.5555   -1.3057    0.1062 C   0  0  0  0  0  0  0  0  0  0  0  0
    2.2567   -2.5088    0.2218 O   0  0  0  0  0  0  0  0  0  0  0  0
    0.1696   -1.3074    0.1425 C   0  0  0  0  0  0  0  0  0  0  0  0
   -2.4954    1.9197    0.1975 H   0  0  0  0  0  0  0  0  0  0  0  0
   -3.8222    0.8848   -0.3713 H   0  0  0  0  0  0  0  0  0  0  0  0
   -3.6480   -1.4919    0.2624 H   0  0  0  0  0  0  0  0  0  0  0  0
   -0.4945    1.9372   -0.2010 H   0  0  0  0  0  0  0  0  0  0  0  0
    1.6365    3.1517   -0.3914 H   0  0  0  0  0  0  0  0  0  0  0  0
    3.2663   -2.4491    0.1889 H   0  0  0  0  0  0  0  0  0  0  0  0
   -0.3572   -2.2614    0.2622 H   0  0  0  0  0  0  0  0  0  0  0  0
  1  2  1  0
  2  3  2  3
  2  4  1  0
  4  5  2  0
  5  6  1  0
  6  7  1  0
  6  8  2  0
  8  9  1  0
  8 10  1  0
 10 11  1  0
 10 12  2  0
 12  4  1  0
  1 13  1  0
  1 14  1  0
  3 15  1  0
  5 16  1  0
  7 17  1  0
 11 18  1  0
 12 19  1  0
M  END
$$$$
[H]OC([H])([H])C([H])([H])Oc1c([H])c([H])c(C([H])([H])N2C([H])([H])C([H])([H])C([H])(Oc3c([H])c([H])c([H])c([H])c3C(=O)N([H])c3c([H])c(OC([H])([H])[H])c(OC([H])([H])[H])c(OC([H])([H])[H])c3[H])C([H])([H])C2([H])[H])c([H])c1[H]
     RDKit          3D

 75 78  0  0  0  0  0  0  0  0999 V2000
   -4.4978   -1.1639    3.2712 C   0  0  0  0  0  0  0  0  0  0  0  0
   -4.6920   -1.9848    2.1984 O   0  0  0  0  0  0  0  0  0  0  0  0
   -4.5621   -1.7238    0.8768 C   0  0  0  0  0  0  0  0  0  0  0  0
   -4.2238   -0.4844    0.4434 C   0  0  0  0  0  0  0  0  0  0  0  0
   -4.0598   -0.1359   -0.9065 C   0  0  0  0  0  0  0  0  0  0  0  0
   -3.7683    1.1738   -1.2833 N   0  0  0  0  0  0  0  0  0  0  0  0
   -3.5512    2.4391   -1.6939 C   0  0  0  0  0  0  0  0  0  0  0  0
   -3.9710    3.2207   -2.3190 O   0  0  0  0  0  0  0  0  0  0  0  0
   -2.1831    3.0059   -1.0443 C   0  0  0  0  0  0  0  0  0  0  0  0
   -2.1130    4.3846   -0.9537 C   0  0  0  0  0  0  0  0  0  0  0  0
   -1.1048    4.9576   -0.1918 C   0  0  0  0  0  0  0  0  0  0  0  0
   -0.1931    4.1545    0.4575 C   0  0  0  0  0  0  0  0  0  0  0  0
   -0.3201    2.8143    0.3238 C   0  0  0  0  0  0  0  0  0  0  0  0
   -1.3380    2.1982   -0.4471 C   0  0  0  0  0  0  0  0  0  0  0  0
   -1.3126    0.8347   -0.4890 O   0  0  0  0  0  0  0  0  0  0  0  0
   -0.3062    0.0834    0.0782 C   0  0  0  0  0  0  0  0  0  0  0  0
   -0.6070   -0.3985    1.5094 C   0  0  0  0  0  0  0  0  0  0  0  0
    0.6815   -0.8736    2.1209 C   0  0  0  0  0  0  0  0  0  0  0  0
    1.6931   -0.8941    0.9966 N   0  0  0  0  0  0  0  0  0  0  0  0
    2.9598   -1.1413    1.5666 C   0  0  0  0  0  0  0  0  0  0  0  0
    4.1196   -0.6678    0.7966 C   0  0  0  0  0  0  0  0  0  0  0  0
    5.0123    0.1652    1.3992 C   0  0  0  0  0  0  0  0  0  0  0  0
    6.1152    0.7163    0.8180 C   0  0  0  0  0  0  0  0  0  0  0  0
    6.3612    0.3993   -0.5399 C   0  0  0  0  0  0  0  0  0  0  0  0
    7.4284    0.9396   -1.1201 O   0  0  0  0  0  0  0  0  0  0  0  0
    8.4348    1.7676   -0.9110 C   0  0  0  0  0  0  0  0  0  0  0  0
    8.1057    3.2437   -0.7760 C   0  0  0  0  0  0  0  0  0  0  0  0
    7.2747    3.5585    0.2288 O   0  0  0  0  0  0  0  0  0  0  0  0
    5.4751   -0.4371   -1.1522 C   0  0  0  0  0  0  0  0  0  0  0  0
    4.3686   -0.9774   -0.5245 C   0  0  0  0  0  0  0  0  0  0  0  0
    1.1363   -1.8675    0.0916 C   0  0  0  0  0  0  0  0  0  0  0  0
    0.0446   -1.1277   -0.7406 C   0  0  0  0  0  0  0  0  0  0  0  0
   -4.2710   -1.1869   -1.8251 C   0  0  0  0  0  0  0  0  0  0  0  0
   -4.6159   -2.4512   -1.4321 C   0  0  0  0  0  0  0  0  0  0  0  0
   -4.8306   -3.5113   -2.2714 O   0  0  0  0  0  0  0  0  0  0  0  0
   -4.6931   -3.4515   -3.6590 C   0  0  0  0  0  0  0  0  0  0  0  0
   -4.7549   -2.6889   -0.0537 C   0  0  0  0  0  0  0  0  0  0  0  0
   -5.1101   -4.0149    0.2946 O   0  0  0  0  0  0  0  0  0  0  0  0
   -6.5270   -3.9905    0.8071 C   0  0  0  0  0  0  0  0  0  0  0  0
   -4.4215   -1.7859    4.2312 H   0  0  0  0  0  0  0  0  0  0  0  0
   -3.5225   -0.6098    3.1767 H   0  0  0  0  0  0  0  0  0  0  0  0
   -5.2622   -0.3849    3.3950 H   0  0  0  0  0  0  0  0  0  0  0  0
   -4.0842    0.3304    1.1456 H   0  0  0  0  0  0  0  0  0  0  0  0
   -4.8782    1.1298   -2.0898 H   0  0  0  0  0  0  0  0  0  0  0  0
   -2.8080    5.0342   -1.4184 H   0  0  0  0  0  0  0  0  0  0  0  0
   -1.0497    6.0381   -0.1138 H   0  0  0  0  0  0  0  0  0  0  0  0
    0.6013    4.5848    1.0593 H   0  0  0  0  0  0  0  0  0  0  0  0
    0.3710    2.2023    0.8357 H   0  0  0  0  0  0  0  0  0  0  0  0
    0.6497    0.6659    0.2203 H   0  0  0  0  0  0  0  0  0  0  0  0
   -1.3139   -1.2588    1.4617 H   0  0  0  0  0  0  0  0  0  0  0  0
   -1.0988    0.4258    2.0667 H   0  0  0  0  0  0  0  0  0  0  0  0
    0.6565   -1.8326    2.6341 H   0  0  0  0  0  0  0  0  0  0  0  0
    1.0585   -0.0621    2.7731 H   0  0  0  0  0  0  0  0  0  0  0  0
    3.1147   -2.1885    1.9515 H   0  0  0  0  0  0  0  0  0  0  0  0
    2.9541   -0.5336    2.5438 H   0  0  0  0  0  0  0  0  0  0  0  0
    4.8453    0.4411    2.4486 H   0  0  0  0  0  0  0  0  0  0  0  0
    6.7784    1.3276    1.3761 H   0  0  0  0  0  0  0  0  0  0  0  0
    9.2629    1.7084   -1.7075 H   0  0  0  0  0  0  0  0  0  0  0  0
    8.9925    1.4607    0.0409 H   0  0  0  0  0  0  0  0  0  0  0  0
    9.0953    3.7925   -0.6263 H   0  0  0  0  0  0  0  0  0  0  0  0
    7.7111    3.6005   -1.7791 H   0  0  0  0  0  0  0  0  0  0  0  0
    7.3694    4.4518    0.6039 H   0  0  0  0  0  0  0  0  0  0  0  0
    5.6876   -0.6823   -2.1791 H   0  0  0  0  0  0  0  0  0  0  0  0
    3.7521   -1.6545   -1.0627 H   0  0  0  0  0  0  0  0  0  0  0  0
    0.5599   -2.6551    0.6692 H   0  0  0  0  0  0  0  0  0  0  0  0
    1.7545   -2.3924   -0.5825 H   0  0  0  0  0  0  0  0  0  0  0  0
    0.5967   -0.7532   -1.6395 H   0  0  0  0  0  0  0  0  0  0  0  0
   -0.7535   -1.8341   -0.9365 H   0  0  0  0  0  0  0  0  0  0  0  0
   -4.1715   -0.9692   -2.8710 H   0  0  0  0  0  0  0  0  0  0  0  0
   -3.9703   -4.3006   -3.9882 H   0  0  0  0  0  0  0  0  0  0  0  0
   -5.5960   -3.6923   -4.2402 H   0  0  0  0  0  0  0  0  0  0  0  0
   -4.1325   -2.5558   -4.0157 H   0  0  0  0  0  0  0  0  0  0  0  0
   -6.4149   -4.2444    1.8557 H   0  0  0  0  0  0  0  0  0  0  0  0
   -7.0011   -4.7642    0.1676 H   0  0  0  0  0  0  0  0  0  0  0  0
   -6.9374   -3.0108    0.6491 H   0  0  0  0  0  0  0  0  0  0  0  0
  1  2  1  0
  2  3  1  0
  3  4  2  0
  4  5  1  0
  5  6  1  0
  6  7  1  0
  7  8  2  0
  7  9  1  0
  9 10  2  0
 10 11  1  0
 11 12  2  0
 12 13  1  0
 13 14  2  0
 14 15  1  0
 15 16  1  0
 16 17  1  0
 17 18  1  0
 18 19  1  0
 19 20  1  0
 20 21  1  0
 21 22  2  0
 22 23  1  0
 23 24  2  0
 24 25  1  0
 25 26  1  0
 26 27  1  0
 27 28  1  0
 24 29  1  0
 29 30  2  0
 19 31  1  0
 31 32  1  0
  5 33  2  0
 33 34  1  0
 34 35  1  0
 35 36  1  0
 34 37  2  0
 37 38  1  0
 38 39  1  0
 37  3  1  0
 14  9  1  0
 32 16  1  0
 30 21  1  0
  1 40  1  0
  1 41  1  0
  1 42  1  0
  4 43  1  0
  6 44  1  0
 10 45  1  0
 11 46  1  0
 12 47  1  0
 13 48  1  0
 16 49  1  0
 17 50  1  0
 17 51  1  0
 18 52  1  0
 18 53  1  0
 20 54  1  0
 20 55  1  0
 22 56  1  0
 23 57  1  0
 26 58  1  0
 26 59  1  0
 27 60  1  0
 27 61  1  0
 28 62  1  0
 29 63  1  0
 30 64  1  0
 31 65  1  0
 31 66  1  0
 32 67  1  0
 32 68  1  0
 33 69  1  0
 36 70  1  0
 36 71  1  0
 36 72  1  0
 39 73  1  0
 39 74  1  0
 39 75  1  0
M  END
$$$$
[H]c1c([H])c([H])c(C([H])([H])Oc2c([H])c([H])c(-c3c(C(=O)N([H])[H])c([H])c4nc(N([H])C([H])([H])[H])nc([H])c4c3[H])c([H])c2[H])c([H])c1[H]
     RDKit          3D

 49 52  0  0  0  0  0  0  0  0999 V2000
    7.9466    0.7991    1.4480 C   0  0  0  0  0  0  0  0  0  0  0  0
    7.1493   -0.1232    2.2177 N   0  0  0  0  0  0  0  0  0  0  0  0
    5.8100   -0.3779    1.8548 C   0  0  0  0  0  0  0  0  0  0  0  0
    5.0127   -1.2282    2.5325 N   0  0  0  0  0  0  0  0  0  0  0  0
    3.7442   -1.4321    2.1410 C   0  0  0  0  0  0  0  0  0  0  0  0
    3.2019   -0.7960    1.0484 C   0  0  0  0  0  0  0  0  0  0  0  0
    1.9079   -0.9757    0.6148 C   0  0  0  0  0  0  0  0  0  0  0  0
    1.4047   -0.2996   -0.5081 C   0  0  0  0  0  0  0  0  0  0  0  0
    0.0090   -0.5015   -0.8352 C   0  0  0  0  0  0  0  0  0  0  0  0
   -0.9609    0.4896   -0.7658 C   0  0  0  0  0  0  0  0  0  0  0  0
   -2.2885    0.2868   -1.0749 C   0  0  0  0  0  0  0  0  0  0  0  0
   -2.7269   -0.9457   -1.4791 C   0  0  0  0  0  0  0  0  0  0  0  0
   -4.0065   -1.2772   -1.8110 O   0  0  0  0  0  0  0  0  0  0  0  0
   -5.1467   -0.4892   -1.8169 C   0  0  0  0  0  0  0  0  0  0  0  0
   -5.4685    0.0365   -0.4887 C   0  0  0  0  0  0  0  0  0  0  0  0
   -6.2354    1.1474   -0.3070 C   0  0  0  0  0  0  0  0  0  0  0  0
   -6.5370    1.6226    0.9679 C   0  0  0  0  0  0  0  0  0  0  0  0
   -6.0495    0.9558    2.0842 C   0  0  0  0  0  0  0  0  0  0  0  0
   -5.2684   -0.1752    1.9155 C   0  0  0  0  0  0  0  0  0  0  0  0
   -4.9853   -0.6238    0.6426 C   0  0  0  0  0  0  0  0  0  0  0  0
   -1.7745   -1.9533   -1.5565 C   0  0  0  0  0  0  0  0  0  0  0  0
   -0.4499   -1.7603   -1.2505 C   0  0  0  0  0  0  0  0  0  0  0  0
    2.2023    0.5548   -1.1966 C   0  0  0  0  0  0  0  0  0  0  0  0
    3.5237    0.7268   -0.7362 C   0  0  0  0  0  0  0  0  0  0  0  0
    4.0260    0.0736    0.3598 C   0  0  0  0  0  0  0  0  0  0  0  0
    5.2900    0.2458    0.7896 N   0  0  0  0  0  0  0  0  0  0  0  0
    1.8567    1.2559   -2.4063 C   0  0  0  0  0  0  0  0  0  0  0  0
    0.7283    1.0277   -3.2261 N   0  0  0  0  0  0  0  0  0  0  0  0
    2.6248    2.1917   -2.8281 O   0  0  0  0  0  0  0  0  0  0  0  0
    9.0061    0.5852    1.6446 H   0  0  0  0  0  0  0  0  0  0  0  0
    7.6622    0.7601    0.3949 H   0  0  0  0  0  0  0  0  0  0  0  0
    7.7830    1.8632    1.7791 H   0  0  0  0  0  0  0  0  0  0  0  0
    7.5409   -0.6106    3.0425 H   0  0  0  0  0  0  0  0  0  0  0  0
    3.1364   -2.1163    2.7035 H   0  0  0  0  0  0  0  0  0  0  0  0
    1.2777   -1.6456    1.1488 H   0  0  0  0  0  0  0  0  0  0  0  0
   -0.5863    1.4704   -0.4391 H   0  0  0  0  0  0  0  0  0  0  0  0
   -2.9822    1.0959   -1.0051 H   0  0  0  0  0  0  0  0  0  0  0  0
   -5.9982   -1.1607   -2.1170 H   0  0  0  0  0  0  0  0  0  0  0  0
   -5.0790    0.3026   -2.5900 H   0  0  0  0  0  0  0  0  0  0  0  0
   -6.6117    1.6618   -1.1791 H   0  0  0  0  0  0  0  0  0  0  0  0
   -7.1497    2.5080    1.0426 H   0  0  0  0  0  0  0  0  0  0  0  0
   -6.2706    1.3057    3.0643 H   0  0  0  0  0  0  0  0  0  0  0  0
   -4.8929   -0.6878    2.8080 H   0  0  0  0  0  0  0  0  0  0  0  0
   -4.3724   -1.5098    0.5562 H   0  0  0  0  0  0  0  0  0  0  0  0
   -2.0821   -2.9576   -1.8765 H   0  0  0  0  0  0  0  0  0  0  0  0
    0.3071   -2.5339   -1.3050 H   0  0  0  0  0  0  0  0  0  0  0  0
    4.1802    1.3893   -1.2477 H   0  0  0  0  0  0  0  0  0  0  0  0
    0.0247    1.7539   -3.4844 H   0  0  0  0  0  0  0  0  0  0  0  0
    0.5672    0.0708   -3.6123 H   0  0  0  0  0  0  0  0  0  0  0  0
  1  2  1  0
  2  3  1  0
  3  4  2  0
  4  5  1  0
  5  6  2  0
  6  7  1  0
  7  8  2  0
  8  9  1  0
  9 10  2  0
 10 11  1  0
 11 12  2  0
 12 13  1  0
 13 14  1  0
 14 15  1  0
 15 16  2  0
 16 17  1  0
 17 18  2  0
 18 19  1  0
 19 20  2  0
 12 21  1  0
 21 22  2  0
  8 23  1  0
 23 24  2  0
 24 25  1  0
 25 26  2  0
 23 27  1  0
 27 28  1  0
 27 29  2  0
 26  3  1  0
 25  6  1  0
 22  9  1  0
 20 15  1  0
  1 30  1  0
  1 31  1  0
  1 32  1  0
  2 33  1  0
  5 34  1  0
  7 35  1  0
 10 36  1  0
 11 37  1  0
 14 38  1  0
 14 39  1  0
 16 40  1  0
 17 41  1  0
 18 42  1  0
 19 43  1  0
 20 44  1  0
 21 45  1  0
 22 46  1  0
 24 47  1  0
 28 48  1  0
 28 49  1  0
M  END
$$$$
[H]/C(=C1/C(=O)N([H])c2c([H])c([H])c(F)c([H])c21)c1nn([C@]2([H])C([H])([H])C([H])([H])[C@@]([H])(C([H])([H])N(C([H])([H])[H])C([H])([H])[H])C([H])([H])C2([H])[H])c2nc([H])nc(N([H])[H])c12
     RDKit          3D

 58 62  0  0  0  0  0  0  0  0999 V2000
    6.7457   -0.0417   -0.7900 C   0  0  0  0  0  0  0  0  0  0  0  0
    6.1845    1.0990   -0.1898 N   0  0  0  0  0  0  0  0  0  0  0  0
    6.8992    1.7374    0.8491 C   0  0  0  0  0  0  0  0  0  0  0  0
    4.8506    1.4460   -0.4263 C   0  0  0  0  0  0  0  0  0  0  0  0
    3.7753    0.5743    0.1150 C   0  0  1  0  0  0  0  0  0  0  0  0
    2.4421    1.2132   -0.2898 C   0  0  0  0  0  0  0  0  0  0  0  0
    1.7528    0.4674   -1.3924 C   0  0  0  0  0  0  0  0  0  0  0  0
    1.3707   -0.9327   -1.0277 C   0  0  1  0  0  0  0  0  0  0  0  0
    2.4308   -1.5134   -0.1288 C   0  0  0  0  0  0  0  0  0  0  0  0
    3.7423   -0.8236   -0.4248 C   0  0  0  0  0  0  0  0  0  0  0  0
    0.0571   -0.9888   -0.3902 N   0  0  0  0  0  0  0  0  0  0  0  0
   -0.9400   -0.1267   -0.4417 N   0  0  0  0  0  0  0  0  0  0  0  0
   -1.9783   -0.5379    0.3023 C   0  0  0  0  0  0  0  0  0  0  0  0
   -3.2802    0.0338    0.5750 C   0  0  0  0  0  0  0  0  0  0  0  0
   -4.0994    0.4455   -0.3777 C   0  0  0  0  0  0  0  0  0  0  0  0
   -3.9078    0.4192   -1.8203 C   0  0  0  0  0  0  0  0  0  0  0  0
   -2.9382   -0.0191   -2.4507 O   0  0  0  0  0  0  0  0  0  0  0  0
   -5.0708    1.0026   -2.4130 N   0  0  0  0  0  0  0  0  0  0  0  0
   -5.9711    1.3868   -1.3818 C   0  0  0  0  0  0  0  0  0  0  0  0
   -7.2216    1.9911   -1.3528 C   0  0  0  0  0  0  0  0  0  0  0  0
   -7.9212    2.2824   -0.2172 C   0  0  0  0  0  0  0  0  0  0  0  0
   -7.3543    1.9553    1.0239 C   0  0  0  0  0  0  0  0  0  0  0  0
   -8.0439    2.2456    2.1461 F   0  0  0  0  0  0  0  0  0  0  0  0
   -6.1129    1.3538    1.0208 C   0  0  0  0  0  0  0  0  0  0  0  0
   -5.4204    1.0682   -0.1619 C   0  0  0  0  0  0  0  0  0  0  0  0
   -1.5511   -1.7628    0.8444 C   0  0  0  0  0  0  0  0  0  0  0  0
   -2.1325   -2.6827    1.6798 C   0  0  0  0  0  0  0  0  0  0  0  0
   -3.4474   -2.5102    2.1970 N   0  0  0  0  0  0  0  0  0  0  0  0
   -1.4844   -3.7931    2.0490 N   0  0  0  0  0  0  0  0  0  0  0  0
   -0.2440   -4.0412    1.6110 C   0  0  0  0  0  0  0  0  0  0  0  0
    0.3350   -3.1532    0.7940 N   0  0  0  0  0  0  0  0  0  0  0  0
   -0.2765   -2.0375    0.4056 C   0  0  0  0  0  0  0  0  0  0  0  0
    7.8049    0.2267   -1.1001 H   0  0  0  0  0  0  0  0  0  0  0  0
    6.2270   -0.2752   -1.7383 H   0  0  0  0  0  0  0  0  0  0  0  0
    6.8419   -0.9281   -0.1222 H   0  0  0  0  0  0  0  0  0  0  0  0
    6.2970    2.4445    1.4172 H   0  0  0  0  0  0  0  0  0  0  0  0
    7.4800    1.0242    1.5025 H   0  0  0  0  0  0  0  0  0  0  0  0
    7.7126    2.3528    0.3590 H   0  0  0  0  0  0  0  0  0  0  0  0
    4.6949    1.4987   -1.5354 H   0  0  0  0  0  0  0  0  0  0  0  0
    4.6652    2.4739   -0.0411 H   0  0  0  0  0  0  0  0  0  0  0  0
    3.7523    0.5766    1.2464 H   0  0  0  0  0  0  0  0  0  0  0  0
    2.5807    2.2598   -0.6252 H   0  0  0  0  0  0  0  0  0  0  0  0
    1.7420    1.2834    0.5878 H   0  0  0  0  0  0  0  0  0  0  0  0
    0.8503    1.0801   -1.6557 H   0  0  0  0  0  0  0  0  0  0  0  0
    2.4455    0.4364   -2.2673 H   0  0  0  0  0  0  0  0  0  0  0  0
    1.3217   -1.5877   -1.9356 H   0  0  0  0  0  0  0  0  0  0  0  0
    2.6044   -2.5973   -0.3401 H   0  0  0  0  0  0  0  0  0  0  0  0
    2.1381   -1.3269    0.9191 H   0  0  0  0  0  0  0  0  0  0  0  0
    3.9057   -0.7641   -1.5313 H   0  0  0  0  0  0  0  0  0  0  0  0
    4.5361   -1.4553    0.0584 H   0  0  0  0  0  0  0  0  0  0  0  0
   -3.6543    0.1529    1.6087 H   0  0  0  0  0  0  0  0  0  0  0  0
   -5.2638    1.1450   -3.4329 H   0  0  0  0  0  0  0  0  0  0  0  0
   -7.6710    2.2485   -2.3234 H   0  0  0  0  0  0  0  0  0  0  0  0
   -8.9012    2.7546   -0.1966 H   0  0  0  0  0  0  0  0  0  0  0  0
   -5.6590    1.0955    1.9434 H   0  0  0  0  0  0  0  0  0  0  0  0
   -4.2468   -2.8235    1.5839 H   0  0  0  0  0  0  0  0  0  0  0  0
   -3.6696   -2.1044    3.1277 H   0  0  0  0  0  0  0  0  0  0  0  0
    0.2754   -4.9480    1.9196 H   0  0  0  0  0  0  0  0  0  0  0  0
  1  2  1  0
  2  3  1  0
  2  4  1  0
  4  5  1  0
  5  6  1  0
  6  7  1  0
  7  8  1  0
  8  9  1  0
  9 10  1  0
  8 11  1  0
 11 12  1  0
 12 13  2  0
 13 14  1  0
 14 15  2  0
 15 16  1  0
 16 17  2  0
 16 18  1  0
 18 19  1  0
 19 20  2  0
 20 21  1  0
 21 22  2  0
 22 23  1  0
 22 24  1  0
 24 25  2  0
 13 26  1  0
 26 27  2  0
 27 28  1  0
 27 29  1  0
 29 30  2  0
 30 31  1  0
 31 32  2  0
 10  5  1  0
 32 11  1  0
 25 15  1  0
 32 26  1  0
 25 19  1  0
  1 33  1  0
  1 34  1  0
  1 35  1  0
  3 36  1  0
  3 37  1  0
  3 38  1  0
  4 39  1  0
  4 40  1  0
  5 41  1  1
  6 42  1  0
  6 43  1  0
  7 44  1  0
  7 45  1  0
  8 46  1  6
  9 47  1  0
  9 48  1  0
 10 49  1  0
 10 50  1  0
 14 51  1  0
 18 52  1  0
 20 53  1  0
 21 54  1  0
 24 55  1  0
 28 56  1  0
 28 57  1  0
 30 58  1  0
M  END
$$$$
