[H]OC1([H])C([H])([H])C([H])([H])N(C(=O)c2c(C([H])([H])OC([H])([H])C([H])([H])[H])c(-c3sc4c(OC([H])([H])[H])c([H])c(C([H])([H])[H])c([H])c4c3[H])c3c(N([H])[H])nc([H])nn23)C([H])([H])C1([H])[H]
     RDKit          3D

 64 68  0  0  0  0  0  0  0  0999 V2000
   -1.2536   -3.9368   -2.2853 C   0  0  0  0  0  0  0  0  0  0  0  0
   -0.0470   -3.3717   -1.6151 C   0  0  0  0  0  0  0  0  0  0  0  0
    0.3967   -2.1708   -1.9003 O   0  0  0  0  0  0  0  0  0  0  0  0
   -0.2243   -1.0002   -1.6649 C   0  0  0  0  0  0  0  0  0  0  0  0
   -0.6344   -0.8463   -0.2346 C   0  0  0  0  0  0  0  0  0  0  0  0
    0.3554   -0.7508    0.7621 C   0  0  0  0  0  0  0  0  0  0  0  0
    1.7686   -0.4567    0.4795 C   0  0  0  0  0  0  0  0  0  0  0  0
    2.9595   -0.7321    0.9987 C   0  0  0  0  0  0  0  0  0  0  0  0
    4.0814   -0.1674    0.4670 C   0  0  0  0  0  0  0  0  0  0  0  0
    5.4155   -0.2441    0.9259 C   0  0  0  0  0  0  0  0  0  0  0  0
    6.4406    0.4504    0.3521 C   0  0  0  0  0  0  0  0  0  0  0  0
    7.8226    0.3679    0.9634 C   0  0  0  0  0  0  0  0  0  0  0  0
    6.2290    1.2767   -0.7308 C   0  0  0  0  0  0  0  0  0  0  0  0
    4.9477    1.3770   -1.2028 C   0  0  0  0  0  0  0  0  0  0  0  0
    4.5461    2.1613   -2.2693 O   0  0  0  0  0  0  0  0  0  0  0  0
    5.4791    2.9393   -2.9704 C   0  0  0  0  0  0  0  0  0  0  0  0
    3.8905    0.6612   -0.6044 C   0  0  0  0  0  0  0  0  0  0  0  0
    2.2134    0.6336   -0.8386 S   0  0  0  0  0  0  0  0  0  0  0  0
   -0.3243   -0.6359    1.9476 C   0  0  0  0  0  0  0  0  0  0  0  0
    0.0429   -0.5584    3.2690 C   0  0  0  0  0  0  0  0  0  0  0  0
    1.4102   -0.4952    3.6437 N   0  0  0  0  0  0  0  0  0  0  0  0
   -0.8534   -0.4998    4.3200 N   0  0  0  0  0  0  0  0  0  0  0  0
   -2.1361   -0.5249    3.9481 C   0  0  0  0  0  0  0  0  0  0  0  0
   -2.4964   -0.5936    2.6784 N   0  0  0  0  0  0  0  0  0  0  0  0
   -1.6717   -0.6435    1.6701 N   0  0  0  0  0  0  0  0  0  0  0  0
   -1.8729   -0.7601    0.3270 C   0  0  0  0  0  0  0  0  0  0  0  0
   -3.1800   -0.7078   -0.3334 C   0  0  0  0  0  0  0  0  0  0  0  0
   -3.2941   -1.3340   -1.4630 O   0  0  0  0  0  0  0  0  0  0  0  0
   -4.3476   -0.0290    0.0814 N   0  0  0  0  0  0  0  0  0  0  0  0
   -4.6206    0.8333    1.1930 C   0  0  0  0  0  0  0  0  0  0  0  0
   -5.6957    1.8679    0.7379 C   0  0  0  0  0  0  0  0  0  0  0  0
   -5.4969    2.2684   -0.6914 C   0  0  0  0  0  0  0  0  0  0  0  0
   -6.4433    3.2323   -0.9907 O   0  0  0  0  0  0  0  0  0  0  0  0
   -5.6536    1.1084   -1.6314 C   0  0  0  0  0  0  0  0  0  0  0  0
   -5.5331   -0.1775   -0.8104 C   0  0  0  0  0  0  0  0  0  0  0  0
   -1.0318   -4.9873   -2.6040 H   0  0  0  0  0  0  0  0  0  0  0  0
   -1.5470   -3.3649   -3.1634 H   0  0  0  0  0  0  0  0  0  0  0  0
   -2.1127   -4.0417   -1.5771 H   0  0  0  0  0  0  0  0  0  0  0  0
    0.8075   -4.1539   -1.6808 H   0  0  0  0  0  0  0  0  0  0  0  0
   -0.2359   -3.4143   -0.4834 H   0  0  0  0  0  0  0  0  0  0  0  0
    0.1679   -0.0845   -2.0901 H   0  0  0  0  0  0  0  0  0  0  0  0
   -1.2271   -1.1109   -2.2489 H   0  0  0  0  0  0  0  0  0  0  0  0
    3.0818   -1.4886    1.8360 H   0  0  0  0  0  0  0  0  0  0  0  0
    5.6645   -0.8713    1.7971 H   0  0  0  0  0  0  0  0  0  0  0  0
    7.7530    0.7978    2.0163 H   0  0  0  0  0  0  0  0  0  0  0  0
    8.4880    1.0146    0.4170 H   0  0  0  0  0  0  0  0  0  0  0  0
    8.1511   -0.6659    1.0971 H   0  0  0  0  0  0  0  0  0  0  0  0
    7.0296    1.8068   -1.1724 H   0  0  0  0  0  0  0  0  0  0  0  0
    6.5070    2.5356   -2.9941 H   0  0  0  0  0  0  0  0  0  0  0  0
    5.5548    3.9876   -2.5297 H   0  0  0  0  0  0  0  0  0  0  0  0
    5.1928    3.0771   -4.0571 H   0  0  0  0  0  0  0  0  0  0  0  0
    1.9790   -1.3158    3.9170 H   0  0  0  0  0  0  0  0  0  0  0  0
    1.8456    0.4629    3.6341 H   0  0  0  0  0  0  0  0  0  0  0  0
   -2.8988   -0.4790    4.7484 H   0  0  0  0  0  0  0  0  0  0  0  0
   -3.7336    1.4828    1.4641 H   0  0  0  0  0  0  0  0  0  0  0  0
   -5.1140    0.3348    2.0290 H   0  0  0  0  0  0  0  0  0  0  0  0
   -6.6941    1.4707    0.9261 H   0  0  0  0  0  0  0  0  0  0  0  0
   -5.5719    2.7918    1.3685 H   0  0  0  0  0  0  0  0  0  0  0  0
   -4.4746    2.7391   -0.7633 H   0  0  0  0  0  0  0  0  0  0  0  0
   -6.4810    3.9540   -0.3293 H   0  0  0  0  0  0  0  0  0  0  0  0
   -6.6190    1.0938   -2.1324 H   0  0  0  0  0  0  0  0  0  0  0  0
   -4.8158    1.1587   -2.3517 H   0  0  0  0  0  0  0  0  0  0  0  0
   -5.4756   -1.0460   -1.4434 H   0  0  0  0  0  0  0  0  0  0  0  0
   -6.4095   -0.2256   -0.1578 H   0  0  0  0  0  0  0  0  0  0  0  0
  1  2  1  0
  2  3  1  0
  3  4  1  0
  4  5  1  0
  5  6  1  0
  6  7  1  0
  7  8  2  0
  8  9  1  0
  9 10  2  0
 10 11  1  0
 11 12  1  0
 11 13  2  0
 13 14  1  0
 14 15  1  0
 15 16  1  0
 14 17  2  0
 17 18  1  0
  6 19  2  0
 19 20  1  0
 20 21  1  0
 20 22  2  0
 22 23  1  0
 23 24  2  0
 24 25  1  0
 25 26  1  0
 26 27  1  0
 27 28  2  0
 27 29  1  0
 29 30  1  0
 30 31  1  0
 31 32  1  0
 32 33  1  0
 32 34  1  0
 34 35  1  0
 26  5  2  0
 35 29  1  0
 18  7  1  0
 25 19  1  0
 17  9  1  0
  1 36  1  0
  1 37  1  0
  1 38  1  0
  2 39  1  0
  2 40  1  0
  4 41  1  0
  4 42  1  0
  8 43  1  0
 10 44  1  0
 12 45  1  0
 12 46  1  0
 12 47  1  0
 13 48  1  0
 16 49  1  0
 16 50  1  0
 16 51  1  0
 21 52  1  0
 21 53  1  0
 23 54  1  0
 30 55  1  0
 30 56  1  0
 31 57  1  0
 31 58  1  0
 32 59  1  0
 33 60  1  0
 34 61  1  0
 34 62  1  0
 35 63  1  0
 35 64  1  0
M  END
$$$$
[H]C([H])=C([H])C(=O)N1C([H])([H])C([H])([H])C([H])(c2onc(C([H])([H])N3C(=O)N(c4c(F)c(OC([H])([H])[H])c([H])c(OC([H])([H])[H])c4F)C([H])([H])c4c([H])nc(-c5c(C([H])([H])[H])nn(C([H])([H])[H])c5[H])c([H])c43)c2[H])C([H])([H])C1([H])[H]
     RDKit          3D

 79 84  0  0  0  0  0  0  0  0999 V2000
   -6.3007    6.1300    3.0374 C   0  0  0  0  0  0  0  0  0  0  0  0
   -5.6960    4.8419    2.9731 O   0  0  0  0  0  0  0  0  0  0  0  0
   -5.1527    4.4202    1.7912 C   0  0  0  0  0  0  0  0  0  0  0  0
   -5.1716    5.2034    0.6556 C   0  0  0  0  0  0  0  0  0  0  0  0
   -4.6229    4.7712   -0.5275 C   0  0  0  0  0  0  0  0  0  0  0  0
   -4.6723    5.5970   -1.6276 O   0  0  0  0  0  0  0  0  0  0  0  0
   -5.2473    6.8666   -1.6405 C   0  0  0  0  0  0  0  0  0  0  0  0
   -4.0346    3.5031   -0.5634 C   0  0  0  0  0  0  0  0  0  0  0  0
   -3.5092    3.1349   -1.7541 F   0  0  0  0  0  0  0  0  0  0  0  0
   -4.0066    2.7104    0.5555 C   0  0  0  0  0  0  0  0  0  0  0  0
   -3.4113    1.4325    0.5188 N   0  0  0  0  0  0  0  0  0  0  0  0
   -4.0626    0.4430   -0.3137 C   0  0  0  0  0  0  0  0  0  0  0  0
   -3.3449   -0.8386   -0.4035 C   0  0  0  0  0  0  0  0  0  0  0  0
   -3.9090   -1.7800   -1.2541 C   0  0  0  0  0  0  0  0  0  0  0  0
   -3.3295   -2.9695   -1.3823 N   0  0  0  0  0  0  0  0  0  0  0  0
   -2.1810   -3.3082   -0.6984 C   0  0  0  0  0  0  0  0  0  0  0  0
   -1.6079   -2.4098    0.1385 C   0  0  0  0  0  0  0  0  0  0  0  0
   -2.1914   -1.1425    0.2998 C   0  0  0  0  0  0  0  0  0  0  0  0
   -1.6416   -0.1365    1.1346 N   0  0  0  0  0  0  0  0  0  0  0  0
   -0.4512   -0.3925    1.8886 C   0  0  0  0  0  0  0  0  0  0  0  0
    0.7890   -0.0773    1.1079 C   0  0  0  0  0  0  0  0  0  0  0  0
    2.0718   -0.4321    1.4629 C   0  0  0  0  0  0  0  0  0  0  0  0
    2.9150    0.0495    0.4897 C   0  0  0  0  0  0  0  0  0  0  0  0
    2.1501    0.6555   -0.3881 O   0  0  0  0  0  0  0  0  0  0  0  0
    0.9023    0.5923   -0.0444 N   0  0  0  0  0  0  0  0  0  0  0  0
    4.4031   -0.0783    0.4211 C   0  0  0  0  0  0  0  0  0  0  0  0
    4.8524   -0.6870   -0.8707 C   0  0  0  0  0  0  0  0  0  0  0  0
    6.3669   -0.9634   -0.7454 C   0  0  0  0  0  0  0  0  0  0  0  0
    7.0344    0.2682   -0.4476 N   0  0  0  0  0  0  0  0  0  0  0  0
    6.1847    1.4720   -0.4014 C   0  0  0  0  0  0  0  0  0  0  0  0
    5.0606    1.2786    0.5795 C   0  0  0  0  0  0  0  0  0  0  0  0
    8.3942    0.4278   -0.2018 C   0  0  0  0  0  0  0  0  0  0  0  0
    8.8031    1.6551    0.0483 O   0  0  0  0  0  0  0  0  0  0  0  0
    9.4183   -0.5584   -0.1822 C   0  0  0  0  0  0  0  0  0  0  0  0
    9.3114   -1.8227   -0.3855 C   0  0  0  0  0  0  0  0  0  0  0  0
   -2.2336    1.1551    1.2606 C   0  0  0  0  0  0  0  0  0  0  0  0
   -1.7296    2.0465    2.0153 O   0  0  0  0  0  0  0  0  0  0  0  0
   -1.6398   -4.6360   -0.9201 C   0  0  0  0  0  0  0  0  0  0  0  0
   -2.2690   -5.5438   -1.7995 C   0  0  0  0  0  0  0  0  0  0  0  0
   -1.5560   -6.6802   -1.8091 N   0  0  0  0  0  0  0  0  0  0  0  0
   -1.8953   -7.8617   -2.6056 C   0  0  0  0  0  0  0  0  0  0  0  0
   -0.5481   -6.5283   -1.0054 N   0  0  0  0  0  0  0  0  0  0  0  0
   -0.5526   -5.2906   -0.4337 C   0  0  0  0  0  0  0  0  0  0  0  0
    0.4518   -4.7837    0.5321 C   0  0  0  0  0  0  0  0  0  0  0  0
   -4.5618    3.1723    1.7147 C   0  0  0  0  0  0  0  0  0  0  0  0
   -4.5496    2.4118    2.8379 F   0  0  0  0  0  0  0  0  0  0  0  0
   -6.5097    6.3906    4.1098 H   0  0  0  0  0  0  0  0  0  0  0  0
   -7.2393    6.0800    2.4629 H   0  0  0  0  0  0  0  0  0  0  0  0
   -5.5912    6.8963    2.6465 H   0  0  0  0  0  0  0  0  0  0  0  0
   -5.6435    6.1864    0.7368 H   0  0  0  0  0  0  0  0  0  0  0  0
   -6.2663    6.7601   -1.1662 H   0  0  0  0  0  0  0  0  0  0  0  0
   -5.4680    7.1761   -2.6907 H   0  0  0  0  0  0  0  0  0  0  0  0
   -4.7088    7.6339   -1.0686 H   0  0  0  0  0  0  0  0  0  0  0  0
   -4.2737    0.8209   -1.3163 H   0  0  0  0  0  0  0  0  0  0  0  0
   -5.0645    0.2511    0.1754 H   0  0  0  0  0  0  0  0  0  0  0  0
   -4.8060   -1.5835   -1.8207 H   0  0  0  0  0  0  0  0  0  0  0  0
   -0.7307   -2.6078    0.6826 H   0  0  0  0  0  0  0  0  0  0  0  0
   -0.4527    0.2625    2.8191 H   0  0  0  0  0  0  0  0  0  0  0  0
   -0.3670   -1.4423    2.1888 H   0  0  0  0  0  0  0  0  0  0  0  0
    2.3589   -0.9977    2.3628 H   0  0  0  0  0  0  0  0  0  0  0  0
    4.7497   -0.7190    1.2546 H   0  0  0  0  0  0  0  0  0  0  0  0
    4.6952   -0.0233   -1.7450 H   0  0  0  0  0  0  0  0  0  0  0  0
    4.3924   -1.6879   -1.0307 H   0  0  0  0  0  0  0  0  0  0  0  0
    6.7258   -1.4216   -1.6991 H   0  0  0  0  0  0  0  0  0  0  0  0
    6.4388   -1.6424    0.1216 H   0  0  0  0  0  0  0  0  0  0  0  0
    6.7974    2.3412   -0.1272 H   0  0  0  0  0  0  0  0  0  0  0  0
    5.7991    1.6472   -1.4163 H   0  0  0  0  0  0  0  0  0  0  0  0
    4.3211    2.0919    0.4042 H   0  0  0  0  0  0  0  0  0  0  0  0
    5.4422    1.3821    1.5990 H   0  0  0  0  0  0  0  0  0  0  0  0
   10.4530   -0.1941    0.0371 H   0  0  0  0  0  0  0  0  0  0  0  0
   10.2622   -2.4146   -0.3195 H   0  0  0  0  0  0  0  0  0  0  0  0
    8.4835   -2.4463   -0.6098 H   0  0  0  0  0  0  0  0  0  0  0  0
   -3.1680   -5.3743   -2.3746 H   0  0  0  0  0  0  0  0  0  0  0  0
   -2.7379   -8.4265   -2.1727 H   0  0  0  0  0  0  0  0  0  0  0  0
   -2.2033   -7.5630   -3.6373 H   0  0  0  0  0  0  0  0  0  0  0  0
   -1.0085   -8.5094   -2.6267 H   0  0  0  0  0  0  0  0  0  0  0  0
    0.0269   -4.6168    1.5269 H   0  0  0  0  0  0  0  0  0  0  0  0
    1.0654   -3.9416    0.1350 H   0  0  0  0  0  0  0  0  0  0  0  0
    1.1986   -5.6262    0.6534 H   0  0  0  0  0  0  0  0  0  0  0  0
  1  2  1  0
  2  3  1  0
  3  4  2  0
  4  5  1  0
  5  6  1  0
  6  7  1  0
  5  8  2  0
  8  9  1  0
  8 10  1  0
 10 11  1  0
 11 12  1  0
 12 13  1  0
 13 14  2  0
 14 15  1  0
 15 16  2  0
 16 17  1  0
 17 18  2  0
 18 19  1  0
 19 20  1  0
 20 21  1  0
 21 22  1  0
 22 23  2  0
 23 24  1  0
 24 25  1  0
 23 26  1  0
 26 27  1  0
 27 28  1  0
 28 29  1  0
 29 30  1  0
 30 31  1  0
 29 32  1  0
 32 33  2  0
 32 34  1  0
 34 35  2  3
 19 36  1  0
 36 37  2  0
 16 38  1  0
 38 39  2  0
 39 40  1  0
 40 41  1  0
 40 42  1  0
 42 43  2  0
 43 44  1  0
 10 45  2  0
 45 46  1  0
 45  3  1  0
 36 11  1  0
 43 38  1  0
 18 13  1  0
 25 21  2  0
 31 26  1  0
  1 47  1  0
  1 48  1  0
  1 49  1  0
  4 50  1  0
  7 51  1  0
  7 52  1  0
  7 53  1  0
 12 54  1  0
 12 55  1  0
 14 56  1  0
 17 57  1  0
 20 58  1  0
 20 59  1  0
 22 60  1  0
 26 61  1  0
 27 62  1  0
 27 63  1  0
 28 64  1  0
 28 65  1  0
 30 66  1  0
 30 67  1  0
 31 68  1  0
 31 69  1  0
 34 70  1  0
 35 71  1  0
 35 72  1  0
 39 73  1  0
 41 74  1  0
 41 75  1  0
 41 76  1  0
 44 77  1  0
 44 78  1  0
 44 79  1  0
M  END
$$$$
[H]c1nc(N([H])[H])c(-c2c([H])c([H])c3c(c2[H])c([H])c(-c2c([H])nc([H])n2C([H])([H])[H])n3[H])nc1-c1c([H])nn(C2([H])C([H])([H])C([H])([H])N([H])C([H])([H])C2([H])[H])c1[H]
     RDKit          3D

 58 63  0  0  0  0  0  0  0  0999 V2000
    8.1731   -1.8041    1.1559 C   0  0  0  0  0  0  0  0  0  0  0  0
    8.5487   -0.5870    0.4730 N   0  0  0  0  0  0  0  0  0  0  0  0
    9.8389   -0.1678    0.4154 C   0  0  0  0  0  0  0  0  0  0  0  0
    9.8465    0.9804   -0.2814 N   0  0  0  0  0  0  0  0  0  0  0  0
    8.6028    1.2874   -0.6583 C   0  0  0  0  0  0  0  0  0  0  0  0
    7.7762    0.2925   -0.1798 C   0  0  0  0  0  0  0  0  0  0  0  0
    6.3383    0.2516   -0.3747 C   0  0  0  0  0  0  0  0  0  0  0  0
    5.4155   -0.6744    0.0434 C   0  0  0  0  0  0  0  0  0  0  0  0
    4.1572   -0.2497   -0.4060 C   0  0  0  0  0  0  0  0  0  0  0  0
    2.9225   -0.8175   -0.2521 C   0  0  0  0  0  0  0  0  0  0  0  0
    1.8031   -0.2198   -0.7850 C   0  0  0  0  0  0  0  0  0  0  0  0
    1.9876    0.9622   -1.4708 C   0  0  0  0  0  0  0  0  0  0  0  0
    3.2189    1.5434   -1.6332 C   0  0  0  0  0  0  0  0  0  0  0  0
    4.3286    0.9157   -1.0839 C   0  0  0  0  0  0  0  0  0  0  0  0
    5.6234    1.1972   -1.0556 N   0  0  0  0  0  0  0  0  0  0  0  0
    0.4503   -0.7449   -0.6816 C   0  0  0  0  0  0  0  0  0  0  0  0
   -0.5942    0.0648   -0.3315 N   0  0  0  0  0  0  0  0  0  0  0  0
   -1.8526   -0.3743   -0.2299 C   0  0  0  0  0  0  0  0  0  0  0  0
   -2.0751   -1.7079   -0.4962 C   0  0  0  0  0  0  0  0  0  0  0  0
   -1.0823   -2.5436   -0.8441 N   0  0  0  0  0  0  0  0  0  0  0  0
    0.1982   -2.0736   -0.9423 C   0  0  0  0  0  0  0  0  0  0  0  0
    1.2389   -2.9583   -1.3152 N   0  0  0  0  0  0  0  0  0  0  0  0
   -2.9356    0.5338    0.1487 C   0  0  0  0  0  0  0  0  0  0  0  0
   -2.8404    1.8780    0.4378 C   0  0  0  0  0  0  0  0  0  0  0  0
   -4.0897    2.3215    0.7378 N   0  0  0  0  0  0  0  0  0  0  0  0
   -4.9623    1.3324    0.6532 N   0  0  0  0  0  0  0  0  0  0  0  0
   -4.2658    0.2230    0.2908 C   0  0  0  0  0  0  0  0  0  0  0  0
   -6.4033    1.3733    0.8927 C   0  0  0  0  0  0  0  0  0  0  0  0
   -7.0535    1.6619   -0.4360 C   0  0  0  0  0  0  0  0  0  0  0  0
   -8.4929    1.2814   -0.5001 C   0  0  0  0  0  0  0  0  0  0  0  0
   -8.8185    0.0410    0.1267 N   0  0  0  0  0  0  0  0  0  0  0  0
   -7.6953   -0.7408    0.5402 C   0  0  0  0  0  0  0  0  0  0  0  0
   -6.8627    0.0758    1.5024 C   0  0  0  0  0  0  0  0  0  0  0  0
    7.7094   -2.5346    0.4519 H   0  0  0  0  0  0  0  0  0  0  0  0
    7.4761   -1.5544    1.9814 H   0  0  0  0  0  0  0  0  0  0  0  0
    9.0921   -2.2470    1.6246 H   0  0  0  0  0  0  0  0  0  0  0  0
   10.7253   -0.6122    0.8212 H   0  0  0  0  0  0  0  0  0  0  0  0
    8.2554    2.1352   -1.2268 H   0  0  0  0  0  0  0  0  0  0  0  0
    5.5808   -1.5859    0.6192 H   0  0  0  0  0  0  0  0  0  0  0  0
    2.8173   -1.7350    0.2911 H   0  0  0  0  0  0  0  0  0  0  0  0
    1.1129    1.4589   -1.9049 H   0  0  0  0  0  0  0  0  0  0  0  0
    3.3561    2.4667   -2.1700 H   0  0  0  0  0  0  0  0  0  0  0  0
    6.0495    2.0531   -1.5075 H   0  0  0  0  0  0  0  0  0  0  0  0
   -3.1034   -2.0485   -0.4090 H   0  0  0  0  0  0  0  0  0  0  0  0
    1.5362   -3.7583   -0.7203 H   0  0  0  0  0  0  0  0  0  0  0  0
    1.7185   -2.7902   -2.2251 H   0  0  0  0  0  0  0  0  0  0  0  0
   -1.9349    2.4640    0.4258 H   0  0  0  0  0  0  0  0  0  0  0  0
   -4.6964   -0.7537    0.1385 H   0  0  0  0  0  0  0  0  0  0  0  0
   -6.6270    2.2119    1.5948 H   0  0  0  0  0  0  0  0  0  0  0  0
   -6.4500    1.1986   -1.2599 H   0  0  0  0  0  0  0  0  0  0  0  0
   -6.9730    2.7587   -0.6004 H   0  0  0  0  0  0  0  0  0  0  0  0
   -9.1659    2.1050   -0.1376 H   0  0  0  0  0  0  0  0  0  0  0  0
   -8.7578    1.1778   -1.5935 H   0  0  0  0  0  0  0  0  0  0  0  0
   -9.6133    0.0599    0.7716 H   0  0  0  0  0  0  0  0  0  0  0  0
   -7.1202   -1.0526   -0.3316 H   0  0  0  0  0  0  0  0  0  0  0  0
   -8.0644   -1.6331    1.0622 H   0  0  0  0  0  0  0  0  0  0  0  0
   -7.4025    0.2058    2.4602 H   0  0  0  0  0  0  0  0  0  0  0  0
   -5.9653   -0.5435    1.7429 H   0  0  0  0  0  0  0  0  0  0  0  0
  1  2  1  0
  2  3  1  0
  3  4  2  0
  4  5  1  0
  5  6  2  0
  6  7  1  0
  7  8  2  0
  8  9  1  0
  9 10  2  0
 10 11  1  0
 11 12  2  0
 12 13  1  0
 13 14  2  0
 14 15  1  0
 11 16  1  0
 16 17  2  0
 17 18  1  0
 18 19  2  0
 19 20  1  0
 20 21  2  0
 21 22  1  0
 18 23  1  0
 23 24  1  0
 24 25  2  0
 25 26  1  0
 26 27  1  0
 26 28  1  0
 28 29  1  0
 29 30  1  0
 30 31  1  0
 31 32  1  0
 32 33  1  0
  6  2  1  0
 15  7  1  0
 21 16  1  0
 27 23  2  0
 33 28  1  0
 14  9  1  0
  1 34  1  0
  1 35  1  0
  1 36  1  0
  3 37  1  0
  5 38  1  0
  8 39  1  0
 10 40  1  0
 12 41  1  0
 13 42  1  0
 15 43  1  0
 19 44  1  0
 22 45  1  0
 22 46  1  0
 24 47  1  0
 27 48  1  0
 28 49  1  0
 29 50  1  0
 29 51  1  0
 30 52  1  0
 30 53  1  0
 31 54  1  0
 32 55  1  0
 32 56  1  0
 33 57  1  0
 33 58  1  0
M  END
$$$$
[H]c1nc([H])c(C([H])([H])N2C(=O)N(c3c(F)c(OC([H])([H])[H])c([H])c(OC([H])([H])[H])c3F)C([H])([H])c3c([H])nc(-c4c(C([H])([H])[H])nn(C([H])([H])[H])c4[H])c([H])c32)c([H])c1[H]
     RDKit          3D

 61 65  0  0  0  0  0  0  0  0999 V2000
   -7.6010    0.2094   -1.6322 C   0  0  0  0  0  0  0  0  0  0  0  0
   -6.2306    0.4698   -1.7575 O   0  0  0  0  0  0  0  0  0  0  0  0
   -5.3035   -0.0390   -0.8237 C   0  0  0  0  0  0  0  0  0  0  0  0
   -5.7044   -0.7942    0.2566 C   0  0  0  0  0  0  0  0  0  0  0  0
   -4.8636   -1.3184    1.2049 C   0  0  0  0  0  0  0  0  0  0  0  0
   -5.3350   -2.0839    2.2887 O   0  0  0  0  0  0  0  0  0  0  0  0
   -6.7261   -2.2827    2.3621 C   0  0  0  0  0  0  0  0  0  0  0  0
   -3.5078   -1.0558    1.0433 C   0  0  0  0  0  0  0  0  0  0  0  0
   -2.6705   -1.5681    1.9716 F   0  0  0  0  0  0  0  0  0  0  0  0
   -3.0486   -0.3055   -0.0238 C   0  0  0  0  0  0  0  0  0  0  0  0
   -1.6550   -0.0727   -0.1775 N   0  0  0  0  0  0  0  0  0  0  0  0
   -0.9780   -0.9278   -1.1204 C   0  0  0  0  0  0  0  0  0  0  0  0
    0.4723   -1.0874   -0.8690 C   0  0  0  0  0  0  0  0  0  0  0  0
    1.1191   -2.1724   -1.4725 C   0  0  0  0  0  0  0  0  0  0  0  0
    2.4352   -2.2737   -1.3065 N   0  0  0  0  0  0  0  0  0  0  0  0
    3.1388   -1.3580   -0.5764 C   0  0  0  0  0  0  0  0  0  0  0  0
    2.5282   -0.3030    0.0140 C   0  0  0  0  0  0  0  0  0  0  0  0
    1.1396   -0.1394   -0.1207 C   0  0  0  0  0  0  0  0  0  0  0  0
    0.5003    0.8940    0.6130 N   0  0  0  0  0  0  0  0  0  0  0  0
    1.1626    1.8787    1.3988 C   0  0  0  0  0  0  0  0  0  0  0  0
    1.3720    3.1971    0.7712 C   0  0  0  0  0  0  0  0  0  0  0  0
    0.5386    4.2791    1.0191 C   0  0  0  0  0  0  0  0  0  0  0  0
    0.7297    5.5276    0.4354 C   0  0  0  0  0  0  0  0  0  0  0  0
    1.8009    5.6984   -0.4310 C   0  0  0  0  0  0  0  0  0  0  0  0
    2.6115    4.6458   -0.6707 N   0  0  0  0  0  0  0  0  0  0  0  0
    2.4119    3.4248   -0.0915 C   0  0  0  0  0  0  0  0  0  0  0  0
   -0.9434    0.9100    0.5637 C   0  0  0  0  0  0  0  0  0  0  0  0
   -1.6463    1.7667    1.1537 O   0  0  0  0  0  0  0  0  0  0  0  0
    4.5824   -1.5320   -0.4058 C   0  0  0  0  0  0  0  0  0  0  0  0
    5.4922   -0.7134    0.2167 C   0  0  0  0  0  0  0  0  0  0  0  0
    6.7320   -1.2817    0.1514 N   0  0  0  0  0  0  0  0  0  0  0  0
    7.9620   -0.7299    0.6985 C   0  0  0  0  0  0  0  0  0  0  0  0
    6.5765   -2.4410   -0.5089 N   0  0  0  0  0  0  0  0  0  0  0  0
    5.3099   -2.6201   -0.8542 C   0  0  0  0  0  0  0  0  0  0  0  0
    4.7314   -3.7967   -1.5962 C   0  0  0  0  0  0  0  0  0  0  0  0
   -3.9442    0.1877   -0.9310 C   0  0  0  0  0  0  0  0  0  0  0  0
   -3.5372    0.9284   -1.9888 F   0  0  0  0  0  0  0  0  0  0  0  0
   -8.1477    0.3988   -2.5776 H   0  0  0  0  0  0  0  0  0  0  0  0
   -8.0719    0.6986   -0.7597 H   0  0  0  0  0  0  0  0  0  0  0  0
   -7.6979   -0.8912   -1.4624 H   0  0  0  0  0  0  0  0  0  0  0  0
   -6.7850   -0.9697    0.3312 H   0  0  0  0  0  0  0  0  0  0  0  0
   -7.2878   -1.3070    2.2601 H   0  0  0  0  0  0  0  0  0  0  0  0
   -7.0744   -3.0291    1.6313 H   0  0  0  0  0  0  0  0  0  0  0  0
   -7.0099   -2.6651    3.3770 H   0  0  0  0  0  0  0  0  0  0  0  0
   -1.1593   -0.4922   -2.1490 H   0  0  0  0  0  0  0  0  0  0  0  0
   -1.4507   -1.9534   -1.1263 H   0  0  0  0  0  0  0  0  0  0  0  0
    0.5104   -2.8618   -2.0343 H   0  0  0  0  0  0  0  0  0  0  0  0
    3.0332    0.4509    0.5961 H   0  0  0  0  0  0  0  0  0  0  0  0
    0.4504    2.0871    2.2677 H   0  0  0  0  0  0  0  0  0  0  0  0
    2.0697    1.5300    1.9471 H   0  0  0  0  0  0  0  0  0  0  0  0
   -0.3053    4.2167    1.6872 H   0  0  0  0  0  0  0  0  0  0  0  0
    0.0751    6.3588    0.6385 H   0  0  0  0  0  0  0  0  0  0  0  0
    1.9617    6.6694   -0.8919 H   0  0  0  0  0  0  0  0  0  0  0  0
    3.1438    2.6862   -0.3812 H   0  0  0  0  0  0  0  0  0  0  0  0
    5.2634    0.2302    0.6856 H   0  0  0  0  0  0  0  0  0  0  0  0
    7.8817   -0.5017    1.7737 H   0  0  0  0  0  0  0  0  0  0  0  0
    8.3189    0.1291    0.0963 H   0  0  0  0  0  0  0  0  0  0  0  0
    8.7459   -1.5133    0.6019 H   0  0  0  0  0  0  0  0  0  0  0  0
    3.9707   -4.3231   -0.9812 H   0  0  0  0  0  0  0  0  0  0  0  0
    5.5505   -4.5463   -1.7416 H   0  0  0  0  0  0  0  0  0  0  0  0
    4.3622   -3.5226   -2.5929 H   0  0  0  0  0  0  0  0  0  0  0  0
  1  2  1  0
  2  3  1  0
  3  4  2  0
  4  5  1  0
  5  6  1  0
  6  7  1  0
  5  8  2  0
  8  9  1  0
  8 10  1  0
 10 11  1  0
 11 12  1  0
 12 13  1  0
 13 14  2  0
 14 15  1  0
 15 16  2  0
 16 17  1  0
 17 18  2  0
 18 19  1  0
 19 20  1  0
 20 21  1  0
 21 22  2  0
 22 23  1  0
 23 24  2  0
 24 25  1  0
 25 26  2  0
 19 27  1  0
 27 28  2  0
 16 29  1  0
 29 30  2  0
 30 31  1  0
 31 32  1  0
 31 33  1  0
 33 34  2  0
 34 35  1  0
 10 36  2  0
 36 37  1  0
 36  3  1  0
 27 11  1  0
 34 29  1  0
 18 13  1  0
 26 21  1  0
  1 38  1  0
  1 39  1  0
  1 40  1  0
  4 41  1  0
  7 42  1  0
  7 43  1  0
  7 44  1  0
 12 45  1  0
 12 46  1  0
 14 47  1  0
 17 48  1  0
 20 49  1  0
 20 50  1  0
 22 51  1  0
 23 52  1  0
 24 53  1  0
 26 54  1  0
 30 55  1  0
 32 56  1  0
 32 57  1  0
 32 58  1  0
 35 59  1  0
 35 60  1  0
 35 61  1  0
M  END
$$$$
[H]c1nc(N([H])[H])c(-c2nc(C(C([H])([H])[H])(C([H])([H])[H])C([H])([H])[H])no2)c2c1C([H])([H])N(c1c(Cl)c(OC([H])([H])[H])c([H])c(OC([H])([H])[H])c1Cl)C(=O)C21C([H])([H])C1([H])[H]
     RDKit          3D

 60 64  0  0  0  0  0  0  0  0999 V2000
    7.7941   -1.7912   -1.0524 C   0  0  0  0  0  0  0  0  0  0  0  0
    6.4065   -1.8170   -0.8619 O   0  0  0  0  0  0  0  0  0  0  0  0
    5.6424   -0.7353   -0.4757 C   0  0  0  0  0  0  0  0  0  0  0  0
    6.2109    0.4910   -0.2421 C   0  0  0  0  0  0  0  0  0  0  0  0
    5.4671    1.5718    0.1405 C   0  0  0  0  0  0  0  0  0  0  0  0
    5.9877    2.8223    0.3919 O   0  0  0  0  0  0  0  0  0  0  0  0
    7.3552    3.1505    0.2992 C   0  0  0  0  0  0  0  0  0  0  0  0
    4.0884    1.3877    0.2894 C   0  0  0  0  0  0  0  0  0  0  0  0
    3.1808    2.8150    0.7356 Cl  0  0  0  0  0  0  0  0  0  0  0  0
    3.4640    0.1848    0.0730 C   0  0  0  0  0  0  0  0  0  0  0  0
    2.0578   -0.0266    0.3083 N   0  0  0  0  0  0  0  0  0  0  0  0
    1.6433   -0.8715    1.4206 C   0  0  0  0  0  0  0  0  0  0  0  0
    0.3531   -1.5005    1.1311 C   0  0  0  0  0  0  0  0  0  0  0  0
    0.1271   -2.7892    1.6195 C   0  0  0  0  0  0  0  0  0  0  0  0
   -1.0518   -3.3576    1.3859 N   0  0  0  0  0  0  0  0  0  0  0  0
   -2.0348   -2.7193    0.6829 C   0  0  0  0  0  0  0  0  0  0  0  0
   -3.2815   -3.3549    0.4604 N   0  0  0  0  0  0  0  0  0  0  0  0
   -1.8365   -1.4455    0.1852 C   0  0  0  0  0  0  0  0  0  0  0  0
   -0.6421   -0.8226    0.4061 C   0  0  0  0  0  0  0  0  0  0  0  0
   -0.3528    0.5396    0.0698 C   0  0  0  0  0  0  0  0  0  0  0  0
   -1.0325    1.7796    0.0708 C   0  0  0  0  0  0  0  0  0  0  0  0
   -0.3951    1.4024    1.3988 C   0  0  0  0  0  0  0  0  0  0  0  0
    1.0587    0.5524   -0.5008 C   0  0  0  0  0  0  0  0  0  0  0  0
    1.3012    1.0536   -1.6268 O   0  0  0  0  0  0  0  0  0  0  0  0
   -2.8824   -0.7093   -0.4912 C   0  0  0  0  0  0  0  0  0  0  0  0
   -4.1939   -0.7328   -0.0807 N   0  0  0  0  0  0  0  0  0  0  0  0
   -4.9062    0.0555   -0.8805 C   0  0  0  0  0  0  0  0  0  0  0  0
   -4.0407    0.5617   -1.7911 N   0  0  0  0  0  0  0  0  0  0  0  0
   -2.8747    0.0883   -1.5226 O   0  0  0  0  0  0  0  0  0  0  0  0
   -6.3375    0.3835   -0.7419 C   0  0  0  0  0  0  0  0  0  0  0  0
   -6.8717   -0.2226    0.5382 C   0  0  0  0  0  0  0  0  0  0  0  0
   -6.4355    1.9177   -0.5663 C   0  0  0  0  0  0  0  0  0  0  0  0
   -7.2081   -0.0321   -1.8748 C   0  0  0  0  0  0  0  0  0  0  0  0
    4.2788   -0.8773   -0.3176 C   0  0  0  0  0  0  0  0  0  0  0  0
    3.5761   -2.4333   -0.6427 Cl  0  0  0  0  0  0  0  0  0  0  0  0
    8.0962   -2.5860   -1.7622 H   0  0  0  0  0  0  0  0  0  0  0  0
    8.1253   -0.8153   -1.5021 H   0  0  0  0  0  0  0  0  0  0  0  0
    8.3593   -2.0058   -0.1189 H   0  0  0  0  0  0  0  0  0  0  0  0
    7.2825    0.6373   -0.3541 H   0  0  0  0  0  0  0  0  0  0  0  0
    7.8191    2.8680    1.2780 H   0  0  0  0  0  0  0  0  0  0  0  0
    7.4973    4.2499    0.1602 H   0  0  0  0  0  0  0  0  0  0  0  0
    7.8501    2.5748   -0.4925 H   0  0  0  0  0  0  0  0  0  0  0  0
    2.4046   -1.6549    1.6267 H   0  0  0  0  0  0  0  0  0  0  0  0
    1.5087   -0.2010    2.3181 H   0  0  0  0  0  0  0  0  0  0  0  0
    0.9409   -3.2672    2.1612 H   0  0  0  0  0  0  0  0  0  0  0  0
   -3.3587   -4.1034   -0.2326 H   0  0  0  0  0  0  0  0  0  0  0  0
   -4.1280   -3.0732    0.9962 H   0  0  0  0  0  0  0  0  0  0  0  0
   -0.5023    2.6422   -0.4334 H   0  0  0  0  0  0  0  0  0  0  0  0
   -2.0928    2.0499    0.2053 H   0  0  0  0  0  0  0  0  0  0  0  0
   -1.0893    1.0123    2.1930 H   0  0  0  0  0  0  0  0  0  0  0  0
    0.4983    1.8833    1.7371 H   0  0  0  0  0  0  0  0  0  0  0  0
   -7.1426   -1.2809    0.3435 H   0  0  0  0  0  0  0  0  0  0  0  0
   -7.8086    0.2729    0.8801 H   0  0  0  0  0  0  0  0  0  0  0  0
   -6.0831   -0.1875    1.3229 H   0  0  0  0  0  0  0  0  0  0  0  0
   -5.7171    2.4162   -1.2693 H   0  0  0  0  0  0  0  0  0  0  0  0
   -7.4687    2.2763   -0.6517 H   0  0  0  0  0  0  0  0  0  0  0  0
   -6.0791    2.1717    0.4669 H   0  0  0  0  0  0  0  0  0  0  0  0
   -8.2683   -0.0144   -1.4817 H   0  0  0  0  0  0  0  0  0  0  0  0
   -7.2380    0.6774   -2.7330 H   0  0  0  0  0  0  0  0  0  0  0  0
   -7.0213   -1.0610   -2.1805 H   0  0  0  0  0  0  0  0  0  0  0  0
  1  2  1  0
  2  3  1  0
  3  4  2  0
  4  5  1  0
  5  6  1  0
  6  7  1  0
  5  8  2  0
  8  9  1  0
  8 10  1  0
 10 11  1  0
 11 12  1  0
 12 13  1  0
 13 14  2  0
 14 15  1  0
 15 16  2  0
 16 17  1  0
 16 18  1  0
 18 19  2  0
 19 20  1  0
 20 21  1  0
 21 22  1  0
 20 23  1  0
 23 24  2  0
 18 25  1  0
 25 26  2  0
 26 27  1  0
 27 28  2  0
 28 29  1  0
 27 30  1  0
 30 31  1  0
 30 32  1  0
 30 33  1  0
 10 34  2  0
 34 35  1  0
 34  3  1  0
 23 11  1  0
 29 25  1  0
 19 13  1  0
 22 20  1  0
  1 36  1  0
  1 37  1  0
  1 38  1  0
  4 39  1  0
  7 40  1  0
  7 41  1  0
  7 42  1  0
 12 43  1  0
 12 44  1  0
 14 45  1  0
 17 46  1  0
 17 47  1  0
 21 48  1  0
 21 49  1  0
 22 50  1  0
 22 51  1  0
 31 52  1  0
 31 53  1  0
 31 54  1  0
 32 55  1  0
 32 56  1  0
 32 57  1  0
 33 58  1  0
 33 59  1  0
 33 60  1  0
M  END
$$$$
[H]c1nc(N([H])[H])c2c(-c3sc4c(C(=O)OC([H])([H])[H])c([H])c([H])c([H])c4c3[H])c(C([H])([H])N3C([H])([H])C(=O)N([H])C([H])([H])C3([H])[H])c(C([H])([H])N3C([H])([H])C([H])([H])N([H])C([H])([H])C3([H])[H])n2n1
     RDKit          3D

 68 73  0  0  0  0  0  0  0  0999 V2000
    7.7107    2.8837   -0.2288 C   0  0  0  0  0  0  0  0  0  0  0  0
    7.2894    1.5601   -0.4792 O   0  0  0  0  0  0  0  0  0  0  0  0
    6.0236    1.0833   -0.2647 C   0  0  0  0  0  0  0  0  0  0  0  0
    5.1587    1.8657    0.1871 O   0  0  0  0  0  0  0  0  0  0  0  0
    5.7400   -0.3116   -0.5711 C   0  0  0  0  0  0  0  0  0  0  0  0
    6.6780   -1.1776   -1.0668 C   0  0  0  0  0  0  0  0  0  0  0  0
    6.2678   -2.4683   -1.3081 C   0  0  0  0  0  0  0  0  0  0  0  0
    4.9861   -2.8755   -1.0674 C   0  0  0  0  0  0  0  0  0  0  0  0
    4.0051   -2.0040   -0.5583 C   0  0  0  0  0  0  0  0  0  0  0  0
    2.7160   -2.2869   -0.2825 C   0  0  0  0  0  0  0  0  0  0  0  0
    1.9181   -1.2950    0.2107 C   0  0  0  0  0  0  0  0  0  0  0  0
    3.0289    0.0316    0.2681 S   0  0  0  0  0  0  0  0  0  0  0  0
    4.4246   -0.7293   -0.3239 C   0  0  0  0  0  0  0  0  0  0  0  0
    0.4665   -1.2813    0.4835 C   0  0  0  0  0  0  0  0  0  0  0  0
   -0.3978   -0.2184    0.0691 C   0  0  0  0  0  0  0  0  0  0  0  0
    0.0873    0.8690   -0.7662 C   0  0  0  0  0  0  0  0  0  0  0  0
   -0.8015    1.8872   -1.1007 N   0  0  0  0  0  0  0  0  0  0  0  0
   -1.0265    2.9398   -0.1662 C   0  0  0  0  0  0  0  0  0  0  0  0
   -0.2330    4.1992   -0.5181 C   0  0  0  0  0  0  0  0  0  0  0  0
   -0.8508    4.7056   -1.7481 N   0  0  0  0  0  0  0  0  0  0  0  0
   -1.3813    3.7001   -2.6173 C   0  0  0  0  0  0  0  0  0  0  0  0
   -2.2780    3.9670   -3.4466 O   0  0  0  0  0  0  0  0  0  0  0  0
   -0.7919    2.3334   -2.4597 C   0  0  0  0  0  0  0  0  0  0  0  0
   -1.6636   -0.5038    0.5203 C   0  0  0  0  0  0  0  0  0  0  0  0
   -2.9025    0.3002    0.4595 C   0  0  0  0  0  0  0  0  0  0  0  0
   -4.1055   -0.4544    0.8562 N   0  0  0  0  0  0  0  0  0  0  0  0
   -4.5932   -1.2571   -0.2579 C   0  0  0  0  0  0  0  0  0  0  0  0
   -5.8289   -1.9789    0.1756 C   0  0  0  0  0  0  0  0  0  0  0  0
   -6.8197   -1.1485    0.7850 N   0  0  0  0  0  0  0  0  0  0  0  0
   -6.2953   -0.1850    1.7192 C   0  0  0  0  0  0  0  0  0  0  0  0
   -5.1254    0.5623    1.1114 C   0  0  0  0  0  0  0  0  0  0  0  0
   -1.6205   -1.6925    1.1972 N   0  0  0  0  0  0  0  0  0  0  0  0
   -2.5306   -2.3807    1.8571 N   0  0  0  0  0  0  0  0  0  0  0  0
   -2.3221   -3.5157    2.5274 C   0  0  0  0  0  0  0  0  0  0  0  0
   -1.0771   -3.9884    2.5248 N   0  0  0  0  0  0  0  0  0  0  0  0
   -0.0978   -3.3034    1.8511 C   0  0  0  0  0  0  0  0  0  0  0  0
    1.2064   -3.8352    1.9655 N   0  0  0  0  0  0  0  0  0  0  0  0
   -0.3367   -2.1374    1.1653 C   0  0  0  0  0  0  0  0  0  0  0  0
    7.1584    3.5996   -0.8614 H   0  0  0  0  0  0  0  0  0  0  0  0
    8.7949    2.9715   -0.4631 H   0  0  0  0  0  0  0  0  0  0  0  0
    7.6229    3.1039    0.8557 H   0  0  0  0  0  0  0  0  0  0  0  0
    7.6772   -0.8131   -1.2410 H   0  0  0  0  0  0  0  0  0  0  0  0
    6.9976   -3.2017   -1.7101 H   0  0  0  0  0  0  0  0  0  0  0  0
    4.7505   -3.9287   -1.2908 H   0  0  0  0  0  0  0  0  0  0  0  0
    2.2609   -3.2845   -0.4890 H   0  0  0  0  0  0  0  0  0  0  0  0
    0.9692    1.3917   -0.2299 H   0  0  0  0  0  0  0  0  0  0  0  0
    0.5543    0.4035   -1.6959 H   0  0  0  0  0  0  0  0  0  0  0  0
   -2.0963    3.2536   -0.2385 H   0  0  0  0  0  0  0  0  0  0  0  0
   -0.8434    2.6296    0.8689 H   0  0  0  0  0  0  0  0  0  0  0  0
    0.8171    3.9718   -0.7237 H   0  0  0  0  0  0  0  0  0  0  0  0
   -0.3929    4.9069    0.3201 H   0  0  0  0  0  0  0  0  0  0  0  0
   -0.9135    5.7021   -1.9953 H   0  0  0  0  0  0  0  0  0  0  0  0
   -1.4423    1.6503   -3.0526 H   0  0  0  0  0  0  0  0  0  0  0  0
    0.2129    2.2892   -2.9308 H   0  0  0  0  0  0  0  0  0  0  0  0
   -2.8252    1.1616    1.1840 H   0  0  0  0  0  0  0  0  0  0  0  0
   -3.1395    0.7060   -0.5304 H   0  0  0  0  0  0  0  0  0  0  0  0
   -4.8963   -0.4757   -1.0414 H   0  0  0  0  0  0  0  0  0  0  0  0
   -3.8654   -1.9367   -0.6657 H   0  0  0  0  0  0  0  0  0  0  0  0
   -6.2991   -2.4128   -0.7536 H   0  0  0  0  0  0  0  0  0  0  0  0
   -5.5275   -2.8194    0.8379 H   0  0  0  0  0  0  0  0  0  0  0  0
   -7.4641   -0.7058    0.1235 H   0  0  0  0  0  0  0  0  0  0  0  0
   -5.8957   -0.7680    2.5836 H   0  0  0  0  0  0  0  0  0  0  0  0
   -7.0619    0.5332    2.0043 H   0  0  0  0  0  0  0  0  0  0  0  0
   -5.3670    1.0298    0.1482 H   0  0  0  0  0  0  0  0  0  0  0  0
   -4.7083    1.2531    1.8576 H   0  0  0  0  0  0  0  0  0  0  0  0
   -3.1427   -4.0323    3.0555 H   0  0  0  0  0  0  0  0  0  0  0  0
    1.8956   -3.3401    2.5723 H   0  0  0  0  0  0  0  0  0  0  0  0
    1.5423   -4.6979    1.4843 H   0  0  0  0  0  0  0  0  0  0  0  0
  1  2  1  0
  2  3  1  0
  3  4  2  0
  3  5  1  0
  5  6  2  0
  6  7  1  0
  7  8  2  0
  8  9  1  0
  9 10  1  0
 10 11  2  0
 11 12  1  0
 12 13  1  0
 11 14  1  0
 14 15  1  0
 15 16  1  0
 16 17  1  0
 17 18  1  0
 18 19  1  0
 19 20  1  0
 20 21  1  0
 21 22  2  0
 21 23  1  0
 15 24  2  0
 24 25  1  0
 25 26  1  0
 26 27  1  0
 27 28  1  0
 28 29  1  0
 29 30  1  0
 30 31  1  0
 24 32  1  0
 32 33  1  0
 33 34  2  0
 34 35  1  0
 35 36  2  0
 36 37  1  0
 36 38  1  0
 13  5  1  0
 38 14  2  0
 13  9  2  0
 23 17  1  0
 31 26  1  0
 38 32  1  0
  1 39  1  0
  1 40  1  0
  1 41  1  0
  6 42  1  0
  7 43  1  0
  8 44  1  0
 10 45  1  0
 16 46  1  0
 16 47  1  0
 18 48  1  0
 18 49  1  0
 19 50  1  0
 19 51  1  0
 20 52  1  0
 23 53  1  0
 23 54  1  0
 25 55  1  0
 25 56  1  0
 27 57  1  0
 27 58  1  0
 28 59  1  0
 28 60  1  0
 29 61  1  0
 30 62  1  0
 30 63  1  0
 31 64  1  0
 31 65  1  0
 34 66  1  0
 37 67  1  0
 37 68  1  0
M  END
$$$$
[H]c1nn(C2([H])C([H])([H])C([H])([H])C([H])([H])C([H])([H])C2([H])[H])c([H])c1-c1nn([H])c2c([H])c(OC([H])([H])C([H])([H])C([H])([H])N(C([H])([H])[H])C([H])([H])c3c([H])c([H])c([H])c([H])c3[H])c([H])c([H])c12
     RDKit          3D

 66 70  0  0  0  0  0  0  0  0999 V2000
    5.8527    0.1708   -1.6229 C   0  0  0  0  0  0  0  0  0  0  0  0
    5.3393    0.5543   -0.3733 N   0  0  0  0  0  0  0  0  0  0  0  0
    4.0462    1.0929   -0.2872 C   0  0  0  0  0  0  0  0  0  0  0  0
    3.0300   -0.0114   -0.6217 C   0  0  0  0  0  0  0  0  0  0  0  0
    3.1441   -1.1536    0.3298 C   0  0  0  0  0  0  0  0  0  0  0  0
    2.2537   -2.1666    0.0869 O   0  0  0  0  0  0  0  0  0  0  0  0
    0.9051   -2.2459    0.1091 C   0  0  0  0  0  0  0  0  0  0  0  0
    0.0605   -1.2101    0.4410 C   0  0  0  0  0  0  0  0  0  0  0  0
   -1.3276   -1.4120    0.4251 C   0  0  0  0  0  0  0  0  0  0  0  0
   -1.8904   -2.6153    0.0888 C   0  0  0  0  0  0  0  0  0  0  0  0
   -3.1727   -3.0999   -0.0129 C   0  0  0  0  0  0  0  0  0  0  0  0
   -3.0674   -4.3979   -0.3981 N   0  0  0  0  0  0  0  0  0  0  0  0
   -1.7894   -4.7116   -0.5309 N   0  0  0  0  0  0  0  0  0  0  0  0
   -1.0291   -3.6431   -0.2407 C   0  0  0  0  0  0  0  0  0  0  0  0
    0.3239   -3.4644   -0.2309 C   0  0  0  0  0  0  0  0  0  0  0  0
   -4.3704   -2.3252    0.2552 C   0  0  0  0  0  0  0  0  0  0  0  0
   -5.4355   -2.8187    1.0122 C   0  0  0  0  0  0  0  0  0  0  0  0
   -6.3533   -1.8672    1.0617 N   0  0  0  0  0  0  0  0  0  0  0  0
   -5.9618   -0.7842    0.3887 N   0  0  0  0  0  0  0  0  0  0  0  0
   -4.7431   -1.0673   -0.1063 C   0  0  0  0  0  0  0  0  0  0  0  0
   -6.7622    0.4122    0.2711 C   0  0  0  0  0  0  0  0  0  0  0  0
   -5.9573    1.6733    0.2417 C   0  0  0  0  0  0  0  0  0  0  0  0
   -6.8457    2.8337   -0.0649 C   0  0  0  0  0  0  0  0  0  0  0  0
   -8.3146    2.5318    0.0777 C   0  0  0  0  0  0  0  0  0  0  0  0
   -8.7598    1.3689   -0.7578 C   0  0  0  0  0  0  0  0  0  0  0  0
   -7.6456    0.3717   -0.9739 C   0  0  0  0  0  0  0  0  0  0  0  0
    6.1367    0.4501    0.7786 C   0  0  0  0  0  0  0  0  0  0  0  0
    7.3862    1.2234    0.7807 C   0  0  0  0  0  0  0  0  0  0  0  0
    8.5460    0.6106    0.3621 C   0  0  0  0  0  0  0  0  0  0  0  0
    9.7653    1.2618    0.3316 C   0  0  0  0  0  0  0  0  0  0  0  0
    9.8086    2.5689    0.7365 C   0  0  0  0  0  0  0  0  0  0  0  0
    8.6312    3.1864    1.1599 C   0  0  0  0  0  0  0  0  0  0  0  0
    7.4223    2.5177    1.1829 C   0  0  0  0  0  0  0  0  0  0  0  0
    5.3433    0.8043   -2.4108 H   0  0  0  0  0  0  0  0  0  0  0  0
    6.9407    0.1970   -1.7304 H   0  0  0  0  0  0  0  0  0  0  0  0
    5.4812   -0.8700   -1.8619 H   0  0  0  0  0  0  0  0  0  0  0  0
    3.8301    1.4247    0.7282 H   0  0  0  0  0  0  0  0  0  0  0  0
    3.8474    1.8824   -1.0561 H   0  0  0  0  0  0  0  0  0  0  0  0
    2.0460    0.3819   -0.8097 H   0  0  0  0  0  0  0  0  0  0  0  0
    3.3959   -0.4032   -1.6280 H   0  0  0  0  0  0  0  0  0  0  0  0
    2.9325   -0.7524    1.3607 H   0  0  0  0  0  0  0  0  0  0  0  0
    4.2016   -1.5351    0.3846 H   0  0  0  0  0  0  0  0  0  0  0  0
    0.4685   -0.2561    0.7247 H   0  0  0  0  0  0  0  0  0  0  0  0
   -1.9726   -0.5990    0.6845 H   0  0  0  0  0  0  0  0  0  0  0  0
   -1.3978   -5.6352   -0.8149 H   0  0  0  0  0  0  0  0  0  0  0  0
    0.9625   -4.2922   -0.4947 H   0  0  0  0  0  0  0  0  0  0  0  0
   -5.4771   -3.8005    1.4635 H   0  0  0  0  0  0  0  0  0  0  0  0
   -4.1414   -0.3950   -0.7062 H   0  0  0  0  0  0  0  0  0  0  0  0
   -7.4577    0.4801    1.1341 H   0  0  0  0  0  0  0  0  0  0  0  0
   -5.1294    1.6377   -0.4974 H   0  0  0  0  0  0  0  0  0  0  0  0
   -5.5169    1.7958    1.2727 H   0  0  0  0  0  0  0  0  0  0  0  0
   -6.6164    3.6846    0.6130 H   0  0  0  0  0  0  0  0  0  0  0  0
   -6.6935    3.2027   -1.1163 H   0  0  0  0  0  0  0  0  0  0  0  0
   -8.8569    3.4362   -0.3178 H   0  0  0  0  0  0  0  0  0  0  0  0
   -8.6371    2.4402    1.1342 H   0  0  0  0  0  0  0  0  0  0  0  0
   -9.6055    0.8606   -0.2325 H   0  0  0  0  0  0  0  0  0  0  0  0
   -9.1192    1.6909   -1.7595 H   0  0  0  0  0  0  0  0  0  0  0  0
   -7.0096    0.6027   -1.8356 H   0  0  0  0  0  0  0  0  0  0  0  0
   -8.1230   -0.6360   -1.0486 H   0  0  0  0  0  0  0  0  0  0  0  0
    6.3537   -0.6500    0.9414 H   0  0  0  0  0  0  0  0  0  0  0  0
    5.4858    0.7040    1.6632 H   0  0  0  0  0  0  0  0  0  0  0  0
    8.5676   -0.4287    0.0295 H   0  0  0  0  0  0  0  0  0  0  0  0
   10.6844    0.7789    0.0010 H   0  0  0  0  0  0  0  0  0  0  0  0
   10.7386    3.1308    0.7336 H   0  0  0  0  0  0  0  0  0  0  0  0
    8.7080    4.2127    1.4695 H   0  0  0  0  0  0  0  0  0  0  0  0
    6.5404    3.0713    1.5290 H   0  0  0  0  0  0  0  0  0  0  0  0
  1  2  1  0
  2  3  1  0
  3  4  1  0
  4  5  1  0
  5  6  1  0
  6  7  1  0
  7  8  2  0
  8  9  1  0
  9 10  2  0
 10 11  1  0
 11 12  2  0
 12 13  1  0
 13 14  1  0
 14 15  2  0
 11 16  1  0
 16 17  1  0
 17 18  2  0
 18 19  1  0
 19 20  1  0
 19 21  1  0
 21 22  1  0
 22 23  1  0
 23 24  1  0
 24 25  1  0
 25 26  1  0
  2 27  1  0
 27 28  1  0
 28 29  2  0
 29 30  1  0
 30 31  2  0
 31 32  1  0
 32 33  2  0
 15  7  1  0
 20 16  2  0
 26 21  1  0
 33 28  1  0
 14 10  1  0
  1 34  1  0
  1 35  1  0
  1 36  1  0
  3 37  1  0
  3 38  1  0
  4 39  1  0
  4 40  1  0
  5 41  1  0
  5 42  1  0
  8 43  1  0
  9 44  1  0
 13 45  1  0
 15 46  1  0
 17 47  1  0
 20 48  1  0
 21 49  1  0
 22 50  1  0
 22 51  1  0
 23 52  1  0
 23 53  1  0
 24 54  1  0
 24 55  1  0
 25 56  1  0
 25 57  1  0
 26 58  1  0
 26 59  1  0
 27 60  1  0
 27 61  1  0
 29 62  1  0
 30 63  1  0
 31 64  1  0
 32 65  1  0
 33 66  1  0
M  END
$$$$
[H]OC([H])([H])C([H])([H])N(c1nn2c(-c3c([H])nc(OC([H])(C([H])([H])[H])C([H])([H])[H])c([H])c3[H])c([H])nc2c([H])c1[H])c1c([H])c(OC([H])([H])[H])c([H])c(OC([H])([H])[H])c1[H]
     RDKit          3D

 60 63  0  0  0  0  0  0  0  0999 V2000
   -7.2768   -2.2021   -1.5438 C   0  0  0  0  0  0  0  0  0  0  0  0
   -5.8513   -2.1453   -1.6795 O   0  0  0  0  0  0  0  0  0  0  0  0
   -5.1468   -1.2848   -0.8165 C   0  0  0  0  0  0  0  0  0  0  0  0
   -5.8061   -0.5261    0.1243 C   0  0  0  0  0  0  0  0  0  0  0  0
   -5.1139    0.3244    0.9788 C   0  0  0  0  0  0  0  0  0  0  0  0
   -5.7953    1.0853    1.9253 O   0  0  0  0  0  0  0  0  0  0  0  0
   -7.2035    1.0019    2.0270 C   0  0  0  0  0  0  0  0  0  0  0  0
   -3.7366    0.4089    0.8812 C   0  0  0  0  0  0  0  0  0  0  0  0
   -3.0569   -0.3412   -0.0530 C   0  0  0  0  0  0  0  0  0  0  0  0
   -3.7800   -1.1775   -0.8879 C   0  0  0  0  0  0  0  0  0  0  0  0
   -1.6363   -0.2382   -0.1267 N   0  0  0  0  0  0  0  0  0  0  0  0
   -0.7818   -1.2700    0.4090 C   0  0  0  0  0  0  0  0  0  0  0  0
   -0.8826   -1.4166    1.9111 C   0  0  0  0  0  0  0  0  0  0  0  0
   -2.1345   -1.7347    2.3681 O   0  0  0  0  0  0  0  0  0  0  0  0
   -1.0252    0.9233   -0.7250 C   0  0  0  0  0  0  0  0  0  0  0  0
   -1.7967    1.9344   -1.2637 C   0  0  0  0  0  0  0  0  0  0  0  0
   -1.1564    3.0279   -1.8003 C   0  0  0  0  0  0  0  0  0  0  0  0
    0.2131    3.1476   -1.8182 C   0  0  0  0  0  0  0  0  0  0  0  0
    1.0427    4.0963   -2.2727 N   0  0  0  0  0  0  0  0  0  0  0  0
    2.3103    3.7202   -2.0408 C   0  0  0  0  0  0  0  0  0  0  0  0
    2.2198    2.4806   -1.4144 C   0  0  0  0  0  0  0  0  0  0  0  0
    3.3889    1.7072   -0.9907 C   0  0  0  0  0  0  0  0  0  0  0  0
    4.6461    2.2271   -1.2248 C   0  0  0  0  0  0  0  0  0  0  0  0
    5.7828    1.5517   -0.8576 C   0  0  0  0  0  0  0  0  0  0  0  0
    5.6916    0.3263   -0.2408 C   0  0  0  0  0  0  0  0  0  0  0  0
    6.8057   -0.4084    0.1547 O   0  0  0  0  0  0  0  0  0  0  0  0
    6.6198   -1.6757    0.7833 C   0  0  0  0  0  0  0  0  0  0  0  0
    7.2395   -1.5986    2.1666 C   0  0  0  0  0  0  0  0  0  0  0  0
    7.2984   -2.7396   -0.0217 C   0  0  0  0  0  0  0  0  0  0  0  0
    4.4604   -0.1546   -0.0252 N   0  0  0  0  0  0  0  0  0  0  0  0
    3.3323    0.4873   -0.3750 C   0  0  0  0  0  0  0  0  0  0  0  0
    0.9415    2.1235   -1.2748 N   0  0  0  0  0  0  0  0  0  0  0  0
    0.2964    1.0895   -0.7689 N   0  0  0  0  0  0  0  0  0  0  0  0
   -7.6910   -2.9783   -2.2168 H   0  0  0  0  0  0  0  0  0  0  0  0
   -7.5337   -2.4095   -0.4674 H   0  0  0  0  0  0  0  0  0  0  0  0
   -7.6852   -1.2243   -1.8256 H   0  0  0  0  0  0  0  0  0  0  0  0
   -6.8873   -0.5987    0.1933 H   0  0  0  0  0  0  0  0  0  0  0  0
   -7.5696   -0.0404    2.1839 H   0  0  0  0  0  0  0  0  0  0  0  0
   -7.5043    1.5526    2.9492 H   0  0  0  0  0  0  0  0  0  0  0  0
   -7.6385    1.4328    1.1099 H   0  0  0  0  0  0  0  0  0  0  0  0
   -3.2197    1.0762    1.5514 H   0  0  0  0  0  0  0  0  0  0  0  0
   -3.2411   -1.7554   -1.6110 H   0  0  0  0  0  0  0  0  0  0  0  0
    0.2588   -1.0458    0.1409 H   0  0  0  0  0  0  0  0  0  0  0  0
   -1.0546   -2.2623   -0.0317 H   0  0  0  0  0  0  0  0  0  0  0  0
   -0.5529   -0.4853    2.4326 H   0  0  0  0  0  0  0  0  0  0  0  0
   -0.1088   -2.1768    2.1950 H   0  0  0  0  0  0  0  0  0  0  0  0
   -2.3850   -1.3425    3.2233 H   0  0  0  0  0  0  0  0  0  0  0  0
   -2.8528    1.8771   -1.2672 H   0  0  0  0  0  0  0  0  0  0  0  0
   -1.7048    3.8660   -2.2445 H   0  0  0  0  0  0  0  0  0  0  0  0
    3.1953    4.2985   -2.3047 H   0  0  0  0  0  0  0  0  0  0  0  0
    4.7443    3.1946   -1.7116 H   0  0  0  0  0  0  0  0  0  0  0  0
    6.7545    1.9950   -1.0596 H   0  0  0  0  0  0  0  0  0  0  0  0
    5.5309   -1.8727    0.8460 H   0  0  0  0  0  0  0  0  0  0  0  0
    8.2626   -2.0180    2.1939 H   0  0  0  0  0  0  0  0  0  0  0  0
    6.5994   -2.2020    2.8617 H   0  0  0  0  0  0  0  0  0  0  0  0
    7.3106   -0.5312    2.4804 H   0  0  0  0  0  0  0  0  0  0  0  0
    8.3722   -2.8263    0.2963 H   0  0  0  0  0  0  0  0  0  0  0  0
    7.2681   -2.5656   -1.1047 H   0  0  0  0  0  0  0  0  0  0  0  0
    6.8553   -3.7318    0.2569 H   0  0  0  0  0  0  0  0  0  0  0  0
    2.3686    0.0239   -0.1619 H   0  0  0  0  0  0  0  0  0  0  0  0
  1  2  1  0
  2  3  1  0
  3  4  2  0
  4  5  1  0
  5  6  1  0
  6  7  1  0
  5  8  2  0
  8  9  1  0
  9 10  2  0
  9 11  1  0
 11 12  1  0
 12 13  1  0
 13 14  1  0
 11 15  1  0
 15 16  1  0
 16 17  2  0
 17 18  1  0
 18 19  2  0
 19 20  1  0
 20 21  2  0
 21 22  1  0
 22 23  2  0
 23 24  1  0
 24 25  2  0
 25 26  1  0
 26 27  1  0
 27 28  1  0
 27 29  1  0
 25 30  1  0
 30 31  2  0
 21 32  1  0
 32 33  1  0
 10  3  1  0
 33 15  2  0
 32 18  1  0
 31 22  1  0
  1 34  1  0
  1 35  1  0
  1 36  1  0
  4 37  1  0
  7 38  1  0
  7 39  1  0
  7 40  1  0
  8 41  1  0
 10 42  1  0
 12 43  1  0
 12 44  1  0
 13 45  1  0
 13 46  1  0
 14 47  1  0
 16 48  1  0
 17 49  1  0
 20 50  1  0
 23 51  1  0
 24 52  1  0
 27 53  1  0
 28 54  1  0
 28 55  1  0
 28 56  1  0
 29 57  1  0
 29 58  1  0
 29 59  1  0
 31 60  1  0
M  END
$$$$
[H]c1c(OC([H])([H])[H])c(Cl)c(-c2oc3c(N([H])S(=O)(=O)N(C([H])([H])C([H])([H])[H])C([H])([H])C([H])([H])[H])c([H])c([H])c([H])c3c2[H])c(Cl)c1OC([H])([H])[H]
     RDKit          3D

 52 54  0  0  0  0  0  0  0  0999 V2000
   -3.7059    2.8095    0.5041 C   0  0  0  0  0  0  0  0  0  0  0  0
   -4.6855    2.3365   -0.5475 C   0  0  0  0  0  0  0  0  0  0  0  0
   -4.7409    0.9220   -0.5925 N   0  0  0  0  0  0  0  0  0  0  0  0
   -6.0292    0.3472   -0.8136 C   0  0  0  0  0  0  0  0  0  0  0  0
   -6.8952    1.0994   -1.7780 C   0  0  0  0  0  0  0  0  0  0  0  0
   -3.5761    0.2946   -1.7149 S   0  0  0  0  0  0  0  0  0  0  0  0
   -4.1082   -0.9489   -2.3188 O   0  0  0  0  0  0  0  0  0  0  0  0
   -3.3362    1.2788   -2.8332 O   0  0  0  0  0  0  0  0  0  0  0  0
   -2.0853    0.0006   -0.9166 N   0  0  0  0  0  0  0  0  0  0  0  0
   -1.7898   -1.2045   -0.2173 C   0  0  0  0  0  0  0  0  0  0  0  0
   -2.7378   -2.1205    0.1578 C   0  0  0  0  0  0  0  0  0  0  0  0
   -2.4702   -3.2875    0.8392 C   0  0  0  0  0  0  0  0  0  0  0  0
   -1.1415   -3.5337    1.1585 C   0  0  0  0  0  0  0  0  0  0  0  0
   -0.1643   -2.6354    0.7974 C   0  0  0  0  0  0  0  0  0  0  0  0
    1.2320   -2.5742    0.9565 C   0  0  0  0  0  0  0  0  0  0  0  0
    1.7128   -1.4324    0.3924 C   0  0  0  0  0  0  0  0  0  0  0  0
    0.6358   -0.8248   -0.0919 O   0  0  0  0  0  0  0  0  0  0  0  0
   -0.4565   -1.4856    0.1221 C   0  0  0  0  0  0  0  0  0  0  0  0
    3.0716   -0.8778    0.2739 C   0  0  0  0  0  0  0  0  0  0  0  0
    4.1961   -1.4708    0.7558 C   0  0  0  0  0  0  0  0  0  0  0  0
    4.1404   -3.0127    1.5972 Cl  0  0  0  0  0  0  0  0  0  0  0  0
    5.4342   -0.8548    0.5874 C   0  0  0  0  0  0  0  0  0  0  0  0
    6.5487   -1.4873    1.0897 O   0  0  0  0  0  0  0  0  0  0  0  0
    7.8532   -0.9776    0.9890 C   0  0  0  0  0  0  0  0  0  0  0  0
    5.5538    0.3473   -0.0584 C   0  0  0  0  0  0  0  0  0  0  0  0
    4.4307    0.9515   -0.5464 C   0  0  0  0  0  0  0  0  0  0  0  0
    4.4986    2.1855   -1.2168 O   0  0  0  0  0  0  0  0  0  0  0  0
    5.7738    2.7712   -1.3633 C   0  0  0  0  0  0  0  0  0  0  0  0
    3.2297    0.3463   -0.3787 C   0  0  0  0  0  0  0  0  0  0  0  0
    1.7933    1.1536   -1.0218 Cl  0  0  0  0  0  0  0  0  0  0  0  0
   -2.9740    1.9835    0.6439 H   0  0  0  0  0  0  0  0  0  0  0  0
   -4.1814    3.0525    1.4641 H   0  0  0  0  0  0  0  0  0  0  0  0
   -3.1553    3.7142    0.1739 H   0  0  0  0  0  0  0  0  0  0  0  0
   -4.2565    2.6910   -1.5318 H   0  0  0  0  0  0  0  0  0  0  0  0
   -5.6684    2.8401   -0.4733 H   0  0  0  0  0  0  0  0  0  0  0  0
   -6.5636    0.3164    0.1591 H   0  0  0  0  0  0  0  0  0  0  0  0
   -5.9607   -0.7017   -1.1671 H   0  0  0  0  0  0  0  0  0  0  0  0
   -6.4056    1.3794   -2.7086 H   0  0  0  0  0  0  0  0  0  0  0  0
   -7.4044    1.9401   -1.2555 H   0  0  0  0  0  0  0  0  0  0  0  0
   -7.7326    0.3973   -2.0657 H   0  0  0  0  0  0  0  0  0  0  0  0
   -1.3474    0.7470   -0.9414 H   0  0  0  0  0  0  0  0  0  0  0  0
   -3.7869   -1.8946   -0.1058 H   0  0  0  0  0  0  0  0  0  0  0  0
   -3.2363   -3.9798    1.1156 H   0  0  0  0  0  0  0  0  0  0  0  0
   -0.8257   -4.4198    1.6914 H   0  0  0  0  0  0  0  0  0  0  0  0
    1.7816   -3.3365    1.4535 H   0  0  0  0  0  0  0  0  0  0  0  0
    7.8348    0.1197    1.2044 H   0  0  0  0  0  0  0  0  0  0  0  0
    8.2978   -1.1345   -0.0261 H   0  0  0  0  0  0  0  0  0  0  0  0
    8.5142   -1.4298    1.7506 H   0  0  0  0  0  0  0  0  0  0  0  0
    6.5204    0.8375   -0.1953 H   0  0  0  0  0  0  0  0  0  0  0  0
    5.6724    3.7901   -1.7864 H   0  0  0  0  0  0  0  0  0  0  0  0
    6.3045    2.8558   -0.3850 H   0  0  0  0  0  0  0  0  0  0  0  0
    6.3910    2.1166   -2.0211 H   0  0  0  0  0  0  0  0  0  0  0  0
  1  2  1  0
  2  3  1  0
  3  4  1  0
  4  5  1  0
  3  6  1  0
  6  7  2  0
  6  8  2  0
  6  9  1  0
  9 10  1  0
 10 11  2  0
 11 12  1  0
 12 13  2  0
 13 14  1  0
 14 15  1  0
 15 16  2  0
 16 17  1  0
 17 18  1  0
 16 19  1  0
 19 20  2  0
 20 21  1  0
 20 22  1  0
 22 23  1  0
 23 24  1  0
 22 25  2  0
 25 26  1  0
 26 27  1  0
 27 28  1  0
 26 29  2  0
 29 30  1  0
 18 10  1  0
 29 19  1  0
 18 14  2  0
  1 31  1  0
  1 32  1  0
  1 33  1  0
  2 34  1  0
  2 35  1  0
  4 36  1  0
  4 37  1  0
  5 38  1  0
  5 39  1  0
  5 40  1  0
  9 41  1  0
 11 42  1  0
 12 43  1  0
 13 44  1  0
 15 45  1  0
 24 46  1  0
 24 47  1  0
 24 48  1  0
 25 49  1  0
 28 50  1  0
 28 51  1  0
 28 52  1  0
M  END
$$$$
[H]C([H])=C([H])C(=O)N1C([H])([H])C([H])([H])N(c2c(C3([H])C([H])([H])C3([H])[H])nc(-n3c([H])nc4c([H])c(-c5noc(C([H])([H])[H])n5)c([H])c([H])c43)c([H])c2F)C([H])([H])C1([H])[H]
     RDKit          3D

 59 64  0  0  0  0  0  0  0  0999 V2000
  -10.6984   -1.5880    0.7127 C   0  0  0  0  0  0  0  0  0  0  0  0
   -9.2166   -1.5893    0.8002 C   0  0  0  0  0  0  0  0  0  0  0  0
   -8.3176   -0.6868    0.3631 N   0  0  0  0  0  0  0  0  0  0  0  0
   -7.0715   -1.0955    0.6580 C   0  0  0  0  0  0  0  0  0  0  0  0
   -7.2299   -2.2720    1.2872 N   0  0  0  0  0  0  0  0  0  0  0  0
   -8.5138   -2.5378    1.3562 O   0  0  0  0  0  0  0  0  0  0  0  0
   -5.8135   -0.4229    0.3669 C   0  0  0  0  0  0  0  0  0  0  0  0
   -4.6057   -0.9782    0.7395 C   0  0  0  0  0  0  0  0  0  0  0  0
   -3.4056   -0.3576    0.4733 C   0  0  0  0  0  0  0  0  0  0  0  0
   -3.3618    0.8514   -0.1804 C   0  0  0  0  0  0  0  0  0  0  0  0
   -2.3304    1.6579   -0.5574 N   0  0  0  0  0  0  0  0  0  0  0  0
   -2.9125    2.7149   -1.1654 C   0  0  0  0  0  0  0  0  0  0  0  0
   -4.2356    2.5890   -1.1750 N   0  0  0  0  0  0  0  0  0  0  0  0
   -4.5566    1.4260   -0.5627 C   0  0  0  0  0  0  0  0  0  0  0  0
   -5.7587    0.7881   -0.2873 C   0  0  0  0  0  0  0  0  0  0  0  0
   -0.9480    1.4172   -0.3448 C   0  0  0  0  0  0  0  0  0  0  0  0
   -0.2583    2.1949    0.5588 C   0  0  0  0  0  0  0  0  0  0  0  0
    1.0837    2.0064    0.8051 C   0  0  0  0  0  0  0  0  0  0  0  0
    1.7267    2.7953    1.7043 F   0  0  0  0  0  0  0  0  0  0  0  0
    1.7859    1.0024    0.1296 C   0  0  0  0  0  0  0  0  0  0  0  0
    3.1877    0.8227    0.3932 N   0  0  0  0  0  0  0  0  0  0  0  0
    4.1285    1.5456   -0.4084 C   0  0  0  0  0  0  0  0  0  0  0  0
    5.2904    0.7138   -0.8490 C   0  0  0  0  0  0  0  0  0  0  0  0
    5.7649   -0.1559    0.2445 N   0  0  0  0  0  0  0  0  0  0  0  0
    4.8134   -0.9068    0.9908 C   0  0  0  0  0  0  0  0  0  0  0  0
    3.6575   -0.0447    1.4391 C   0  0  0  0  0  0  0  0  0  0  0  0
    7.1567   -0.1815    0.4755 C   0  0  0  0  0  0  0  0  0  0  0  0
    7.9531    0.5230   -0.2269 O   0  0  0  0  0  0  0  0  0  0  0  0
    7.7501   -0.9956    1.5051 C   0  0  0  0  0  0  0  0  0  0  0  0
    9.0754   -0.9693    1.6689 C   0  0  0  0  0  0  0  0  0  0  0  0
    1.0779    0.2442   -0.7623 C   0  0  0  0  0  0  0  0  0  0  0  0
   -0.2500    0.4629   -0.9774 N   0  0  0  0  0  0  0  0  0  0  0  0
    1.7443   -0.8430   -1.5224 C   0  0  0  0  0  0  0  0  0  0  0  0
    0.9187   -1.5740   -2.5341 C   0  0  0  0  0  0  0  0  0  0  0  0
    2.0795   -0.7286   -2.9418 C   0  0  0  0  0  0  0  0  0  0  0  0
  -11.0308   -0.5219    0.7856 H   0  0  0  0  0  0  0  0  0  0  0  0
  -11.1443   -2.2168    1.4881 H   0  0  0  0  0  0  0  0  0  0  0  0
  -10.9682   -1.9064   -0.3219 H   0  0  0  0  0  0  0  0  0  0  0  0
   -4.6390   -1.9444    1.2621 H   0  0  0  0  0  0  0  0  0  0  0  0
   -2.4817   -0.8150    0.7758 H   0  0  0  0  0  0  0  0  0  0  0  0
   -2.3099    3.5284   -1.5715 H   0  0  0  0  0  0  0  0  0  0  0  0
   -6.6933    1.2282   -0.5814 H   0  0  0  0  0  0  0  0  0  0  0  0
   -0.7673    2.9772    1.0969 H   0  0  0  0  0  0  0  0  0  0  0  0
    4.4886    2.4291    0.1755 H   0  0  0  0  0  0  0  0  0  0  0  0
    3.6611    1.9778   -1.3271 H   0  0  0  0  0  0  0  0  0  0  0  0
    4.9595    0.0204   -1.6463 H   0  0  0  0  0  0  0  0  0  0  0  0
    6.0952    1.3348   -1.2426 H   0  0  0  0  0  0  0  0  0  0  0  0
    5.2421   -1.3727    1.8962 H   0  0  0  0  0  0  0  0  0  0  0  0
    4.3771   -1.7586    0.4067 H   0  0  0  0  0  0  0  0  0  0  0  0
    4.0645    0.6191    2.2463 H   0  0  0  0  0  0  0  0  0  0  0  0
    2.8401   -0.6780    1.8241 H   0  0  0  0  0  0  0  0  0  0  0  0
    7.1445   -1.6126    2.1274 H   0  0  0  0  0  0  0  0  0  0  0  0
    9.6862   -0.3455    1.0360 H   0  0  0  0  0  0  0  0  0  0  0  0
    9.5039   -1.5853    2.4451 H   0  0  0  0  0  0  0  0  0  0  0  0
    2.3573   -1.4985   -0.8543 H   0  0  0  0  0  0  0  0  0  0  0  0
    1.0695   -2.6518   -2.6285 H   0  0  0  0  0  0  0  0  0  0  0  0
   -0.1022   -1.2095   -2.7845 H   0  0  0  0  0  0  0  0  0  0  0  0
    1.9047    0.1968   -3.5220 H   0  0  0  0  0  0  0  0  0  0  0  0
    3.0330   -1.2339   -3.2624 H   0  0  0  0  0  0  0  0  0  0  0  0
  1  2  1  0
  2  3  2  0
  3  4  1  0
  4  5  2  0
  5  6  1  0
  4  7  1  0
  7  8  2  0
  8  9  1  0
  9 10  2  0
 10 11  1  0
 11 12  1  0
 12 13  2  0
 13 14  1  0
 14 15  2  0
 11 16  1  0
 16 17  2  0
 17 18  1  0
 18 19  1  0
 18 20  2  0
 20 21  1  0
 21 22  1  0
 22 23  1  0
 23 24  1  0
 24 25  1  0
 25 26  1  0
 24 27  1  0
 27 28  2  0
 27 29  1  0
 29 30  2  3
 20 31  1  0
 31 32  2  0
 31 33  1  0
 33 34  1  0
 34 35  1  0
  6  2  1  0
 15  7  1  0
 32 16  1  0
 35 33  1  0
 14 10  1  0
 26 21  1  0
  1 36  1  0
  1 37  1  0
  1 38  1  0
  8 39  1  0
  9 40  1  0
 12 41  1  0
 15 42  1  0
 17 43  1  0
 22 44  1  0
 22 45  1  0
 23 46  1  0
 23 47  1  0
 25 48  1  0
 25 49  1  0
 26 50  1  0
 26 51  1  0
 29 52  1  0
 30 53  1  0
 30 54  1  0
 33 55  1  0
 34 56  1  0
 34 57  1  0
 35 58  1  0
 35 59  1  0
M  END
$$$$
[H]c1nc2c([H])c([H])c(N3C([H])([H])C([H])(N(C(=O)N(C([H])([H])[H])C([H])([H])[H])C([H])([H])[H])C3([H])[H])nc2c([H])c1-c1c([H])nn(C([H])([H])[H])c1[H]
     RDKit          3D

 50 53  0  0  0  0  0  0  0  0999 V2000
    5.6888   -1.2781    1.2421 C   0  0  0  0  0  0  0  0  0  0  0  0
    4.5266   -0.7987    0.5427 N   0  0  0  0  0  0  0  0  0  0  0  0
    3.3481   -1.6703    0.6197 C   0  0  0  0  0  0  0  0  0  0  0  0
    2.0669   -1.0296    1.0338 C   0  0  0  0  0  0  0  0  0  0  0  0
    1.3971   -1.4379   -0.1859 N   0  0  0  0  0  0  0  0  0  0  0  0
    2.6540   -1.9569   -0.6626 C   0  0  0  0  0  0  0  0  0  0  0  0
    0.0732   -1.3602   -0.6942 C   0  0  0  0  0  0  0  0  0  0  0  0
   -0.2013   -1.8924   -1.9597 C   0  0  0  0  0  0  0  0  0  0  0  0
   -1.4688   -1.8367   -2.4868 C   0  0  0  0  0  0  0  0  0  0  0  0
   -2.4522   -1.2372   -1.7192 C   0  0  0  0  0  0  0  0  0  0  0  0
   -3.6963   -1.1767   -2.2252 N   0  0  0  0  0  0  0  0  0  0  0  0
   -4.6628   -0.5986   -1.4950 C   0  0  0  0  0  0  0  0  0  0  0  0
   -4.4441   -0.0602   -0.2450 C   0  0  0  0  0  0  0  0  0  0  0  0
   -3.1790   -0.1098    0.2948 C   0  0  0  0  0  0  0  0  0  0  0  0
   -2.1738   -0.7140   -0.4707 C   0  0  0  0  0  0  0  0  0  0  0  0
   -0.9196   -0.7879    0.0113 N   0  0  0  0  0  0  0  0  0  0  0  0
   -5.5561    0.5628    0.5054 C   0  0  0  0  0  0  0  0  0  0  0  0
   -5.7316    0.6150    1.8726 C   0  0  0  0  0  0  0  0  0  0  0  0
   -6.8882    1.2834    2.1046 N   0  0  0  0  0  0  0  0  0  0  0  0
   -7.4463    1.6520    0.9695 N   0  0  0  0  0  0  0  0  0  0  0  0
   -8.6751    2.3799    0.7351 C   0  0  0  0  0  0  0  0  0  0  0  0
   -6.6477    1.2213   -0.0249 C   0  0  0  0  0  0  0  0  0  0  0  0
    4.4832    0.4053   -0.1654 C   0  0  0  0  0  0  0  0  0  0  0  0
    3.3472    0.7088   -0.7652 O   0  0  0  0  0  0  0  0  0  0  0  0
    5.4833    1.3486   -0.3330 N   0  0  0  0  0  0  0  0  0  0  0  0
    6.8073    1.2882    0.1969 C   0  0  0  0  0  0  0  0  0  0  0  0
    5.1382    2.5555   -1.1520 C   0  0  0  0  0  0  0  0  0  0  0  0
    6.4689   -1.6805    0.5506 H   0  0  0  0  0  0  0  0  0  0  0  0
    5.3849   -2.1618    1.9129 H   0  0  0  0  0  0  0  0  0  0  0  0
    6.1335   -0.5535    1.9265 H   0  0  0  0  0  0  0  0  0  0  0  0
    3.6071   -2.5883    1.2219 H   0  0  0  0  0  0  0  0  0  0  0  0
    1.6621   -1.5544    1.9485 H   0  0  0  0  0  0  0  0  0  0  0  0
    2.1502    0.0583    1.2141 H   0  0  0  0  0  0  0  0  0  0  0  0
    2.5656   -3.0807   -0.7996 H   0  0  0  0  0  0  0  0  0  0  0  0
    3.0570   -1.5567   -1.5955 H   0  0  0  0  0  0  0  0  0  0  0  0
    0.6325   -2.3417   -2.4861 H   0  0  0  0  0  0  0  0  0  0  0  0
   -1.6769   -2.2512   -3.4694 H   0  0  0  0  0  0  0  0  0  0  0  0
   -5.6968   -0.5248   -1.8657 H   0  0  0  0  0  0  0  0  0  0  0  0
   -2.9416    0.2931    1.2680 H   0  0  0  0  0  0  0  0  0  0  0  0
   -5.0411    0.1851    2.5738 H   0  0  0  0  0  0  0  0  0  0  0  0
   -9.5270    1.7164    0.4763 H   0  0  0  0  0  0  0  0  0  0  0  0
   -8.5477    3.1226   -0.1021 H   0  0  0  0  0  0  0  0  0  0  0  0
   -8.9785    2.9675    1.6169 H   0  0  0  0  0  0  0  0  0  0  0  0
   -6.7874    1.3426   -1.0942 H   0  0  0  0  0  0  0  0  0  0  0  0
    7.4031    2.1518   -0.2775 H   0  0  0  0  0  0  0  0  0  0  0  0
    6.8758    1.5204    1.2888 H   0  0  0  0  0  0  0  0  0  0  0  0
    7.3098    0.3453   -0.0858 H   0  0  0  0  0  0  0  0  0  0  0  0
    4.5119    3.1729   -0.4729 H   0  0  0  0  0  0  0  0  0  0  0  0
    4.5246    2.2315   -2.0132 H   0  0  0  0  0  0  0  0  0  0  0  0
    6.0389    3.1110   -1.4163 H   0  0  0  0  0  0  0  0  0  0  0  0
  1  2  1  0
  2  3  1  0
  3  4  1  0
  4  5  1  0
  5  6  1  0
  5  7  1  0
  7  8  2  0
  8  9  1  0
  9 10  2  0
 10 11  1  0
 11 12  2  0
 12 13  1  0
 13 14  2  0
 14 15  1  0
 15 16  2  0
 13 17  1  0
 17 18  1  0
 18 19  2  0
 19 20  1  0
 20 21  1  0
 20 22  1  0
  2 23  1  0
 23 24  2  0
 23 25  1  0
 25 26  1  0
 25 27  1  0
  6  3  1  0
 16  7  1  0
 22 17  2  0
 15 10  1  0
  1 28  1  0
  1 29  1  0
  1 30  1  0
  3 31  1  0
  4 32  1  0
  4 33  1  0
  6 34  1  0
  6 35  1  0
  8 36  1  0
  9 37  1  0
 12 38  1  0
 14 39  1  0
 18 40  1  0
 21 41  1  0
 21 42  1  0
 21 43  1  0
 22 44  1  0
 26 45  1  0
 26 46  1  0
 26 47  1  0
 27 48  1  0
 27 49  1  0
 27 50  1  0
M  END
$$$$
[H]c1nc(N([H])[H])c2c(-c3sc4c(OC([H])([H])[H])c([H])c(C([H])([H])[H])c([H])c4c3[H])c(-c3c([H])c([H])c([H])c(OC(F)(F)F)c3[H])c([H])n2n1
     RDKit          3D

 50 54  0  0  0  0  0  0  0  0999 V2000
   -3.6043    2.3824    3.4500 C   0  0  0  0  0  0  0  0  0  0  0  0
   -2.7705    1.5983    2.6526 O   0  0  0  0  0  0  0  0  0  0  0  0
   -3.0471    1.1826    1.3779 C   0  0  0  0  0  0  0  0  0  0  0  0
   -4.2156    1.5037    0.7226 C   0  0  0  0  0  0  0  0  0  0  0  0
   -4.3335    0.9988   -0.5657 C   0  0  0  0  0  0  0  0  0  0  0  0
   -5.5924    1.3326   -1.2992 C   0  0  0  0  0  0  0  0  0  0  0  0
   -3.3909    0.2409   -1.1720 C   0  0  0  0  0  0  0  0  0  0  0  0
   -2.1928   -0.0902   -0.5042 C   0  0  0  0  0  0  0  0  0  0  0  0
   -1.1868   -0.8307   -0.9963 C   0  0  0  0  0  0  0  0  0  0  0  0
   -0.1006   -1.0436   -0.1935 C   0  0  0  0  0  0  0  0  0  0  0  0
   -0.5292   -0.1903    1.2393 S   0  0  0  0  0  0  0  0  0  0  0  0
   -2.0627    0.3950    0.7536 C   0  0  0  0  0  0  0  0  0  0  0  0
    1.1017   -1.8067   -0.4955 C   0  0  0  0  0  0  0  0  0  0  0  0
    2.3066   -1.2201   -0.7829 C   0  0  0  0  0  0  0  0  0  0  0  0
    3.1576   -2.2922   -0.9961 C   0  0  0  0  0  0  0  0  0  0  0  0
    2.5015   -3.4628   -0.8455 N   0  0  0  0  0  0  0  0  0  0  0  0
    2.8748   -4.7398   -0.9439 N   0  0  0  0  0  0  0  0  0  0  0  0
    2.0354   -5.7682   -0.7473 C   0  0  0  0  0  0  0  0  0  0  0  0
    0.7597   -5.4882   -0.4365 N   0  0  0  0  0  0  0  0  0  0  0  0
    0.3519   -4.1936   -0.3296 C   0  0  0  0  0  0  0  0  0  0  0  0
   -0.9970   -3.8756    0.0023 N   0  0  0  0  0  0  0  0  0  0  0  0
    1.2320   -3.1530   -0.5363 C   0  0  0  0  0  0  0  0  0  0  0  0
    2.6872    0.1565   -0.8688 C   0  0  0  0  0  0  0  0  0  0  0  0
    2.1404    1.0014   -1.8133 C   0  0  0  0  0  0  0  0  0  0  0  0
    2.5178    2.3194   -1.8810 C   0  0  0  0  0  0  0  0  0  0  0  0
    3.4552    2.8668   -1.0173 C   0  0  0  0  0  0  0  0  0  0  0  0
    4.0129    2.0348   -0.0647 C   0  0  0  0  0  0  0  0  0  0  0  0
    4.9390    2.5881    0.7842 O   0  0  0  0  0  0  0  0  0  0  0  0
    4.6878    3.1937    2.0120 C   0  0  0  0  0  0  0  0  0  0  0  0
    3.8465    4.2942    1.9237 F   0  0  0  0  0  0  0  0  0  0  0  0
    5.8999    3.5581    2.5810 F   0  0  0  0  0  0  0  0  0  0  0  0
    4.1340    2.2231    2.8487 F   0  0  0  0  0  0  0  0  0  0  0  0
    3.6329    0.6961    0.0078 C   0  0  0  0  0  0  0  0  0  0  0  0
   -4.3575    1.7183    3.9289 H   0  0  0  0  0  0  0  0  0  0  0  0
   -3.0566    2.9211    4.2332 H   0  0  0  0  0  0  0  0  0  0  0  0
   -4.1880    3.1396    2.8718 H   0  0  0  0  0  0  0  0  0  0  0  0
   -4.9664    2.0969    1.1823 H   0  0  0  0  0  0  0  0  0  0  0  0
   -6.2936    1.8907   -0.6824 H   0  0  0  0  0  0  0  0  0  0  0  0
   -5.3620    1.9467   -2.1946 H   0  0  0  0  0  0  0  0  0  0  0  0
   -6.0904    0.4045   -1.6762 H   0  0  0  0  0  0  0  0  0  0  0  0
   -3.5950   -0.0994   -2.1875 H   0  0  0  0  0  0  0  0  0  0  0  0
   -1.1607   -1.2916   -2.0147 H   0  0  0  0  0  0  0  0  0  0  0  0
    4.2143   -2.2717   -1.2516 H   0  0  0  0  0  0  0  0  0  0  0  0
    2.3578   -6.8101   -0.8320 H   0  0  0  0  0  0  0  0  0  0  0  0
   -1.7564   -4.1171   -0.6784 H   0  0  0  0  0  0  0  0  0  0  0  0
   -1.2808   -3.4121    0.8902 H   0  0  0  0  0  0  0  0  0  0  0  0
    1.4130    0.5477   -2.4724 H   0  0  0  0  0  0  0  0  0  0  0  0
    2.0370    2.9264   -2.6607 H   0  0  0  0  0  0  0  0  0  0  0  0
    3.7308    3.9154   -1.0989 H   0  0  0  0  0  0  0  0  0  0  0  0
    4.1025    0.0830    0.7769 H   0  0  0  0  0  0  0  0  0  0  0  0
  1  2  1  0
  2  3  1  0
  3  4  2  0
  4  5  1  0
  5  6  1  0
  5  7  2  0
  7  8  1  0
  8  9  1  0
  9 10  2  0
 10 11  1  0
 11 12  1  0
 10 13  1  0
 13 14  1  0
 14 15  2  0
 15 16  1  0
 16 17  1  0
 17 18  2  0
 18 19  1  0
 19 20  2  0
 20 21  1  0
 20 22  1  0
 14 23  1  0
 23 24  2  0
 24 25  1  0
 25 26  2  0
 26 27  1  0
 27 28  1  0
 28 29  1  0
 29 30  1  0
 29 31  1  0
 29 32  1  0
 27 33  2  0
 12  3  1  0
 22 13  2  0
 33 23  1  0
 12  8  2  0
 22 16  1  0
  1 34  1  0
  1 35  1  0
  1 36  1  0
  4 37  1  0
  6 38  1  0
  6 39  1  0
  6 40  1  0
  7 41  1  0
  9 42  1  0
 15 43  1  0
 18 44  1  0
 21 45  1  0
 21 46  1  0
 24 47  1  0
 25 48  1  0
 26 49  1  0
 33 50  1  0
M  END
$$$$
[H]c1c([H])c([H])c2c([H])c([H])c(-c3nc4c([H])c(C([H])([H])[H])c(OC([H])([H])[H])c([H])c4n3[H])nc2c1N(C([H])([H])[H])S(=O)(=O)N([H])C([H])([H])[H]
     RDKit          3D

 50 53  0  0  0  0  0  0  0  0999 V2000
    6.1721    1.4466   -0.5255 C   0  0  0  0  0  0  0  0  0  0  0  0
    5.5246    0.9974   -1.7339 N   0  0  0  0  0  0  0  0  0  0  0  0
    3.8186    0.8103   -1.5157 S   0  0  0  0  0  0  0  0  0  0  0  0
    3.2949    1.7525   -0.4604 O   0  0  0  0  0  0  0  0  0  0  0  0
    3.0823    1.0445   -2.8122 O   0  0  0  0  0  0  0  0  0  0  0  0
    3.4979   -0.8019   -0.9912 N   0  0  0  0  0  0  0  0  0  0  0  0
    3.2541   -1.8206   -2.0186 C   0  0  0  0  0  0  0  0  0  0  0  0
    3.4605   -1.1797    0.3785 C   0  0  0  0  0  0  0  0  0  0  0  0
    4.6022   -1.6102    1.0258 C   0  0  0  0  0  0  0  0  0  0  0  0
    4.6008   -1.9849    2.3569 C   0  0  0  0  0  0  0  0  0  0  0  0
    3.4092   -1.9212    3.0499 C   0  0  0  0  0  0  0  0  0  0  0  0
    2.2395   -1.4952    2.4398 C   0  0  0  0  0  0  0  0  0  0  0  0
    1.0586   -1.4379    3.1473 C   0  0  0  0  0  0  0  0  0  0  0  0
   -0.0647   -1.0043    2.4748 C   0  0  0  0  0  0  0  0  0  0  0  0
   -0.0289   -0.6374    1.1449 C   0  0  0  0  0  0  0  0  0  0  0  0
    1.1410   -0.7071    0.4901 N   0  0  0  0  0  0  0  0  0  0  0  0
    2.2862   -1.1281    1.1011 C   0  0  0  0  0  0  0  0  0  0  0  0
   -1.2491   -0.1864    0.4852 C   0  0  0  0  0  0  0  0  0  0  0  0
   -1.4136    0.2086   -0.7897 N   0  0  0  0  0  0  0  0  0  0  0  0
   -2.6971    0.5546   -1.0278 C   0  0  0  0  0  0  0  0  0  0  0  0
   -3.3853    1.0170   -2.1380 C   0  0  0  0  0  0  0  0  0  0  0  0
   -4.7533    1.2867   -2.0400 C   0  0  0  0  0  0  0  0  0  0  0  0
   -5.5237    1.7825   -3.2054 C   0  0  0  0  0  0  0  0  0  0  0  0
   -5.4254    1.0977   -0.8513 C   0  0  0  0  0  0  0  0  0  0  0  0
   -6.7822    1.3746   -0.7878 O   0  0  0  0  0  0  0  0  0  0  0  0
   -7.5607    1.2205    0.3596 C   0  0  0  0  0  0  0  0  0  0  0  0
   -4.7172    0.6357    0.2420 C   0  0  0  0  0  0  0  0  0  0  0  0
   -3.3588    0.3644    0.1574 C   0  0  0  0  0  0  0  0  0  0  0  0
   -2.4616   -0.0816    1.0484 N   0  0  0  0  0  0  0  0  0  0  0  0
    6.6405    2.4443   -0.6853 H   0  0  0  0  0  0  0  0  0  0  0  0
    5.4464    1.5600    0.3211 H   0  0  0  0  0  0  0  0  0  0  0  0
    6.9868    0.7555   -0.2264 H   0  0  0  0  0  0  0  0  0  0  0  0
    5.9146    0.0629   -1.9824 H   0  0  0  0  0  0  0  0  0  0  0  0
    4.2119   -2.2280   -2.4127 H   0  0  0  0  0  0  0  0  0  0  0  0
    2.7062   -1.3530   -2.8525 H   0  0  0  0  0  0  0  0  0  0  0  0
    2.7164   -2.6627   -1.5489 H   0  0  0  0  0  0  0  0  0  0  0  0
    5.5414   -1.6564    0.4656 H   0  0  0  0  0  0  0  0  0  0  0  0
    5.5126   -2.3171    2.8328 H   0  0  0  0  0  0  0  0  0  0  0  0
    3.3745   -2.2093    4.0991 H   0  0  0  0  0  0  0  0  0  0  0  0
    1.0890   -1.7361    4.1820 H   0  0  0  0  0  0  0  0  0  0  0  0
   -0.9837   -0.9702    3.0623 H   0  0  0  0  0  0  0  0  0  0  0  0
   -2.8757    1.1710   -3.0775 H   0  0  0  0  0  0  0  0  0  0  0  0
   -6.3085    1.0359   -3.4572 H   0  0  0  0  0  0  0  0  0  0  0  0
   -5.9445    2.7942   -3.0423 H   0  0  0  0  0  0  0  0  0  0  0  0
   -4.8310    1.8471   -4.0709 H   0  0  0  0  0  0  0  0  0  0  0  0
   -7.1239    1.8679    1.1530 H   0  0  0  0  0  0  0  0  0  0  0  0
   -7.6133    0.1847    0.7236 H   0  0  0  0  0  0  0  0  0  0  0  0
   -8.5711    1.6470    0.1418 H   0  0  0  0  0  0  0  0  0  0  0  0
   -5.2098    0.4753    1.1913 H   0  0  0  0  0  0  0  0  0  0  0  0
   -2.6997   -0.3102    2.0432 H   0  0  0  0  0  0  0  0  0  0  0  0
  1  2  1  0
  2  3  1  0
  3  4  2  0
  3  5  2  0
  3  6  1  0
  6  7  1  0
  6  8  1  0
  8  9  2  0
  9 10  1  0
 10 11  2  0
 11 12  1  0
 12 13  2  0
 13 14  1  0
 14 15  2  0
 15 16  1  0
 16 17  2  0
 15 18  1  0
 18 19  2  0
 19 20  1  0
 20 21  2  0
 21 22  1  0
 22 23  1  0
 22 24  2  0
 24 25  1  0
 25 26  1  0
 24 27  1  0
 27 28  2  0
 28 29  1  0
 17  8  1  0
 29 18  1  0
 17 12  1  0
 28 20  1  0
  1 30  1  0
  1 31  1  0
  1 32  1  0
  2 33  1  0
  7 34  1  0
  7 35  1  0
  7 36  1  0
  9 37  1  0
 10 38  1  0
 11 39  1  0
 13 40  1  0
 14 41  1  0
 21 42  1  0
 23 43  1  0
 23 44  1  0
 23 45  1  0
 26 46  1  0
 26 47  1  0
 26 48  1  0
 27 49  1  0
 29 50  1  0
M  END
$$$$
[H]OC([H])([H])c1c(-c2c([H])c3c([H])c([H])c(N4C([H])([H])C([H])([H])N(C([H])([H])[H])C([H])([H])C4([H])[H])c([H])c3n2[H])c(=O)n([H])c2c([H])c([H])c(F)c([H])c12
     RDKit          3D

 53 57  0  0  0  0  0  0  0  0999 V2000
   -7.8878    0.7468    0.7897 C   0  0  0  0  0  0  0  0  0  0  0  0
   -6.6405    0.3496    0.2168 N   0  0  0  0  0  0  0  0  0  0  0  0
   -6.3207   -1.0307    0.5372 C   0  0  0  0  0  0  0  0  0  0  0  0
   -5.0602   -1.4266   -0.1766 C   0  0  0  0  0  0  0  0  0  0  0  0
   -3.9831   -0.4920   -0.1080 N   0  0  0  0  0  0  0  0  0  0  0  0
   -4.2314    0.8838    0.1868 C   0  0  0  0  0  0  0  0  0  0  0  0
   -5.5896    1.2336    0.6837 C   0  0  0  0  0  0  0  0  0  0  0  0
   -2.6430   -0.9254   -0.3405 C   0  0  0  0  0  0  0  0  0  0  0  0
   -2.3316   -2.2384   -0.6091 C   0  0  0  0  0  0  0  0  0  0  0  0
   -1.0353   -2.6583   -0.8368 C   0  0  0  0  0  0  0  0  0  0  0  0
    0.0021   -1.7297   -0.7957 C   0  0  0  0  0  0  0  0  0  0  0  0
    1.3729   -1.8664   -0.9817 C   0  0  0  0  0  0  0  0  0  0  0  0
    1.9158   -0.5764   -0.8195 C   0  0  0  0  0  0  0  0  0  0  0  0
    0.8994    0.2352   -0.5564 N   0  0  0  0  0  0  0  0  0  0  0  0
   -0.2931   -0.4288   -0.5313 C   0  0  0  0  0  0  0  0  0  0  0  0
   -1.5893   -0.0129   -0.3043 C   0  0  0  0  0  0  0  0  0  0  0  0
    3.3484   -0.3402   -0.8504 C   0  0  0  0  0  0  0  0  0  0  0  0
    4.0223    0.6567   -0.1352 C   0  0  0  0  0  0  0  0  0  0  0  0
    3.2388    1.5370    0.7059 C   0  0  0  0  0  0  0  0  0  0  0  0
    3.8446    2.4620    1.5134 O   0  0  0  0  0  0  0  0  0  0  0  0
    5.4018    0.7538   -0.3076 C   0  0  0  0  0  0  0  0  0  0  0  0
    6.1423    1.7102    0.3554 C   0  0  0  0  0  0  0  0  0  0  0  0
    7.5252    1.7610    0.1383 C   0  0  0  0  0  0  0  0  0  0  0  0
    8.2133    2.7137    0.8077 F   0  0  0  0  0  0  0  0  0  0  0  0
    8.1974    0.9141   -0.6983 C   0  0  0  0  0  0  0  0  0  0  0  0
    7.4563   -0.0382   -1.3584 C   0  0  0  0  0  0  0  0  0  0  0  0
    6.0934   -0.1105   -1.1633 C   0  0  0  0  0  0  0  0  0  0  0  0
    5.4266   -1.0405   -1.8257 N   0  0  0  0  0  0  0  0  0  0  0  0
    4.1203   -1.1642   -1.6902 C   0  0  0  0  0  0  0  0  0  0  0  0
    3.4996   -2.0600   -2.3420 O   0  0  0  0  0  0  0  0  0  0  0  0
   -8.0880    1.8035    0.4719 H   0  0  0  0  0  0  0  0  0  0  0  0
   -7.9234    0.6896    1.8870 H   0  0  0  0  0  0  0  0  0  0  0  0
   -8.6936    0.0843    0.3562 H   0  0  0  0  0  0  0  0  0  0  0  0
   -7.1464   -1.6456    0.1066 H   0  0  0  0  0  0  0  0  0  0  0  0
   -6.2795   -1.2289    1.6196 H   0  0  0  0  0  0  0  0  0  0  0  0
   -4.8003   -2.4288    0.2391 H   0  0  0  0  0  0  0  0  0  0  0  0
   -5.2959   -1.5861   -1.2552 H   0  0  0  0  0  0  0  0  0  0  0  0
   -3.5152    1.3066    0.9322 H   0  0  0  0  0  0  0  0  0  0  0  0
   -4.1053    1.4324   -0.7990 H   0  0  0  0  0  0  0  0  0  0  0  0
   -5.8535    2.2501    0.3292 H   0  0  0  0  0  0  0  0  0  0  0  0
   -5.5859    1.3000    1.8038 H   0  0  0  0  0  0  0  0  0  0  0  0
   -3.0938   -2.9950   -0.6542 H   0  0  0  0  0  0  0  0  0  0  0  0
   -0.8104   -3.7053   -1.0479 H   0  0  0  0  0  0  0  0  0  0  0  0
    1.8409   -2.8124   -1.1800 H   0  0  0  0  0  0  0  0  0  0  0  0
    0.8584    1.2731   -0.3903 H   0  0  0  0  0  0  0  0  0  0  0  0
   -1.8101    1.0265   -0.0972 H   0  0  0  0  0  0  0  0  0  0  0  0
    2.4777    1.0042    1.3017 H   0  0  0  0  0  0  0  0  0  0  0  0
    2.6067    2.2309   -0.0112 H   0  0  0  0  0  0  0  0  0  0  0  0
    3.2567    3.2342    1.6949 H   0  0  0  0  0  0  0  0  0  0  0  0
    5.7085    2.4199    1.0260 H   0  0  0  0  0  0  0  0  0  0  0  0
    9.2697    0.9767   -0.8469 H   0  0  0  0  0  0  0  0  0  0  0  0
    7.9540   -0.7322   -2.0343 H   0  0  0  0  0  0  0  0  0  0  0  0
    5.9138   -1.7163   -2.4855 H   0  0  0  0  0  0  0  0  0  0  0  0
  1  2  1  0
  2  3  1  0
  3  4  1  0
  4  5  1  0
  5  6  1  0
  6  7  1  0
  5  8  1  0
  8  9  2  0
  9 10  1  0
 10 11  2  0
 11 12  1  0
 12 13  2  0
 13 14  1  0
 14 15  1  0
 15 16  2  0
 13 17  1  0
 17 18  2  0
 18 19  1  0
 19 20  1  0
 18 21  1  0
 21 22  2  0
 22 23  1  0
 23 24  1  0
 23 25  2  0
 25 26  1  0
 26 27  2  0
 27 28  1  0
 28 29  1  0
 29 30  2  0
  7  2  1  0
 16  8  1  0
 29 17  1  0
 15 11  1  0
 27 21  1  0
  1 31  1  0
  1 32  1  0
  1 33  1  0
  3 34  1  0
  3 35  1  0
  4 36  1  0
  4 37  1  0
  6 38  1  0
  6 39  1  0
  7 40  1  0
  7 41  1  0
  9 42  1  0
 10 43  1  0
 12 44  1  0
 14 45  1  0
 16 46  1  0
 19 47  1  0
 19 48  1  0
 20 49  1  0
 22 50  1  0
 25 51  1  0
 26 52  1  0
 28 53  1  0
M  END
$$$$
