[H]c1nc2c([H])nc(N(c3c([H])c(OC([H])([H])[H])c([H])c(OC([H])([H])[H])c3F)C([H])([H])[C@@]3([H])N([H])C(=O)C([H])([H])C3([H])[H])nc2nc1-c1c([H])nn(C([H])([H])[H])c1[H]
     RDKit          3D

 58 62  0  0  0  0  0  0  0  0999 V2000
   -6.1356   -3.2777   -0.4494 C   0  0  0  0  0  0  0  0  0  0  0  0
   -5.2621   -2.4775   -1.2160 O   0  0  0  0  0  0  0  0  0  0  0  0
   -4.2042   -1.8056   -0.6155 C   0  0  0  0  0  0  0  0  0  0  0  0
   -4.0223   -1.9350    0.7526 C   0  0  0  0  0  0  0  0  0  0  0  0
   -3.0080   -1.3092    1.4210 C   0  0  0  0  0  0  0  0  0  0  0  0
   -2.8277   -1.4426    2.8042 O   0  0  0  0  0  0  0  0  0  0  0  0
   -3.7432   -2.2586    3.4998 C   0  0  0  0  0  0  0  0  0  0  0  0
   -2.1278   -0.5124    0.6909 C   0  0  0  0  0  0  0  0  0  0  0  0
   -1.1135    0.0788    1.4054 F   0  0  0  0  0  0  0  0  0  0  0  0
   -2.2768   -0.3629   -0.6492 C   0  0  0  0  0  0  0  0  0  0  0  0
   -3.3267   -1.0212   -1.2891 C   0  0  0  0  0  0  0  0  0  0  0  0
   -1.4181    0.4476   -1.4159 N   0  0  0  0  0  0  0  0  0  0  0  0
   -1.8503    1.6775   -1.9521 C   0  0  0  0  0  0  0  0  0  0  0  0
   -2.1395    2.8168   -1.0656 C   0  0  2  0  0  0  0  0  0  0  0  0
   -1.0307    3.3580   -0.2437 C   0  0  0  0  0  0  0  0  0  0  0  0
   -1.7750    4.2845    0.7295 C   0  0  0  0  0  0  0  0  0  0  0  0
   -3.0043    3.4834    0.9560 C   0  0  0  0  0  0  0  0  0  0  0  0
   -3.7359    3.6475    1.9909 O   0  0  0  0  0  0  0  0  0  0  0  0
   -3.1984    2.5705   -0.1132 N   0  0  0  0  0  0  0  0  0  0  0  0
   -0.0950   -0.0107   -1.6455 C   0  0  0  0  0  0  0  0  0  0  0  0
    0.1047   -0.7507   -2.7755 N   0  0  0  0  0  0  0  0  0  0  0  0
    1.3051   -1.2353   -3.0911 C   0  0  0  0  0  0  0  0  0  0  0  0
    2.3743   -0.9846   -2.2570 C   0  0  0  0  0  0  0  0  0  0  0  0
    3.6024   -1.4368   -2.5064 N   0  0  0  0  0  0  0  0  0  0  0  0
    4.6139   -1.1542   -1.6409 C   0  0  0  0  0  0  0  0  0  0  0  0
    4.4054   -0.4087   -0.5050 C   0  0  0  0  0  0  0  0  0  0  0  0
    3.1668    0.0461   -0.2555 N   0  0  0  0  0  0  0  0  0  0  0  0
    2.1512   -0.2353   -1.1209 C   0  0  0  0  0  0  0  0  0  0  0  0
    0.9289    0.2363   -0.8357 N   0  0  0  0  0  0  0  0  0  0  0  0
    5.5091   -0.1109    0.4253 C   0  0  0  0  0  0  0  0  0  0  0  0
    5.4267    0.6170    1.5890 C   0  0  0  0  0  0  0  0  0  0  0  0
    6.6437    0.6574    2.1421 N   0  0  0  0  0  0  0  0  0  0  0  0
    7.4845   -0.0211    1.3626 N   0  0  0  0  0  0  0  0  0  0  0  0
    8.9125   -0.2321    1.5872 C   0  0  0  0  0  0  0  0  0  0  0  0
    6.8209   -0.5038    0.3037 C   0  0  0  0  0  0  0  0  0  0  0  0
   -6.7863   -3.9136   -1.0991 H   0  0  0  0  0  0  0  0  0  0  0  0
   -5.5322   -4.0164    0.1553 H   0  0  0  0  0  0  0  0  0  0  0  0
   -6.7342   -2.7055    0.2744 H   0  0  0  0  0  0  0  0  0  0  0  0
   -4.7171   -2.5630    1.3252 H   0  0  0  0  0  0  0  0  0  0  0  0
   -3.6556   -3.3361    3.2040 H   0  0  0  0  0  0  0  0  0  0  0  0
   -4.7781   -1.9554    3.2699 H   0  0  0  0  0  0  0  0  0  0  0  0
   -3.6291   -2.1629    4.6050 H   0  0  0  0  0  0  0  0  0  0  0  0
   -3.4587   -0.9096   -2.3720 H   0  0  0  0  0  0  0  0  0  0  0  0
   -2.7786    1.4748   -2.5466 H   0  0  0  0  0  0  0  0  0  0  0  0
   -1.1337    2.0711   -2.7457 H   0  0  0  0  0  0  0  0  0  0  0  0
   -2.5046    3.6549   -1.7151 H   0  0  0  0  0  0  0  0  0  0  0  0
   -0.3230    3.9940   -0.8352 H   0  0  0  0  0  0  0  0  0  0  0  0
   -0.4978    2.6360    0.3824 H   0  0  0  0  0  0  0  0  0  0  0  0
   -2.0073    5.2235    0.1888 H   0  0  0  0  0  0  0  0  0  0  0  0
   -1.1936    4.4355    1.6564 H   0  0  0  0  0  0  0  0  0  0  0  0
   -3.9839    1.8897   -0.1226 H   0  0  0  0  0  0  0  0  0  0  0  0
    1.4674   -1.8322   -4.0031 H   0  0  0  0  0  0  0  0  0  0  0  0
    5.6120   -1.5173   -1.8362 H   0  0  0  0  0  0  0  0  0  0  0  0
    4.5096    1.0804    1.9849 H   0  0  0  0  0  0  0  0  0  0  0  0
    9.4952    0.2763    0.8119 H   0  0  0  0  0  0  0  0  0  0  0  0
    9.1846    0.1785    2.5933 H   0  0  0  0  0  0  0  0  0  0  0  0
    9.0953   -1.3377    1.5633 H   0  0  0  0  0  0  0  0  0  0  0  0
    7.1944   -1.0997   -0.5271 H   0  0  0  0  0  0  0  0  0  0  0  0
  1  2  1  0
  2  3  1  0
  3  4  2  0
  4  5  1  0
  5  6  1  0
  6  7  1  0
  5  8  2  0
  8  9  1  0
  8 10  1  0
 10 11  2  0
 10 12  1  0
 12 13  1  0
 13 14  1  0
 14 15  1  0
 15 16  1  0
 16 17  1  0
 17 18  2  0
 17 19  1  0
 12 20  1  0
 20 21  2  0
 21 22  1  0
 22 23  2  0
 23 24  1  0
 24 25  2  0
 25 26  1  0
 26 27  2  0
 27 28  1  0
 28 29  2  0
 26 30  1  0
 30 31  1  0
 31 32  2  0
 32 33  1  0
 33 34  1  0
 33 35  1  0
 11  3  1  0
 19 14  1  0
 29 20  1  0
 35 30  2  0
 28 23  1  0
  1 36  1  0
  1 37  1  0
  1 38  1  0
  4 39  1  0
  7 40  1  0
  7 41  1  0
  7 42  1  0
 11 43  1  0
 13 44  1  0
 13 45  1  0
 14 46  1  6
 15 47  1  0
 15 48  1  0
 16 49  1  0
 16 50  1  0
 19 51  1  0
 22 52  1  0
 25 53  1  0
 31 54  1  0
 34 55  1  0
 34 56  1  0
 34 57  1  0
 35 58  1  0
M  END
$$$$
[H]c1c(OC([H])([H])[H])c([H])c(-c2c(N([H])C(=O)N([H])C(C([H])([H])[H])(C([H])([H])[H])C([H])([H])[H])nc3nc(N([H])C([H])([H])C([H])([H])C([H])([H])C([H])([H])N(C([H])([H])C([H])([H])[H])C([H])([H])C([H])([H])[H])nc([H])c3c2[H])c([H])c1OC([H])([H])[H]
     RDKit          3D

 79 81  0  0  0  0  0  0  0  0999 V2000
    9.0043    0.6462   -1.9682 C   0  0  0  0  0  0  0  0  0  0  0  0
    8.7678   -0.4957   -1.0279 C   0  0  0  0  0  0  0  0  0  0  0  0
    8.1166   -0.1073    0.1854 N   0  0  0  0  0  0  0  0  0  0  0  0
    8.2332   -1.3267    1.0703 C   0  0  0  0  0  0  0  0  0  0  0  0
    9.6701   -1.5153    1.4356 C   0  0  0  0  0  0  0  0  0  0  0  0
    6.7081    0.1613    0.1131 C   0  0  0  0  0  0  0  0  0  0  0  0
    6.2614    1.3480   -0.6379 C   0  0  0  0  0  0  0  0  0  0  0  0
    4.7462    1.5793   -0.6191 C   0  0  0  0  0  0  0  0  0  0  0  0
    4.2986    1.7740    0.7942 C   0  0  0  0  0  0  0  0  0  0  0  0
    2.8876    2.0433    0.9224 N   0  0  0  0  0  0  0  0  0  0  0  0
    1.8980    1.0988    0.5423 C   0  0  0  0  0  0  0  0  0  0  0  0
    2.1730   -0.1135    0.0414 N   0  0  0  0  0  0  0  0  0  0  0  0
    1.2340   -1.0033   -0.3152 C   0  0  0  0  0  0  0  0  0  0  0  0
   -0.1134   -0.6597   -0.1610 C   0  0  0  0  0  0  0  0  0  0  0  0
   -1.1167   -1.5347   -0.5088 C   0  0  0  0  0  0  0  0  0  0  0  0
   -2.4427   -1.1222   -0.3239 C   0  0  0  0  0  0  0  0  0  0  0  0
   -2.7357    0.1051    0.1847 C   0  0  0  0  0  0  0  0  0  0  0  0
   -4.0738    0.4913    0.3946 N   0  0  0  0  0  0  0  0  0  0  0  0
   -4.3123    1.8139    0.9261 C   0  0  0  0  0  0  0  0  0  0  0  0
   -3.3748    2.6063    1.1983 O   0  0  0  0  0  0  0  0  0  0  0  0
   -5.6449    2.2762    1.1662 N   0  0  0  0  0  0  0  0  0  0  0  0
   -5.8698    3.5875    1.6962 C   0  0  0  0  0  0  0  0  0  0  0  0
   -5.3335    4.6972    0.8197 C   0  0  0  0  0  0  0  0  0  0  0  0
   -7.3662    3.7490    1.9293 C   0  0  0  0  0  0  0  0  0  0  0  0
   -5.1726    3.7309    3.0568 C   0  0  0  0  0  0  0  0  0  0  0  0
   -1.7085    0.9525    0.5199 N   0  0  0  0  0  0  0  0  0  0  0  0
   -0.4232    0.5839    0.3530 C   0  0  0  0  0  0  0  0  0  0  0  0
    0.5784    1.4071    0.6816 N   0  0  0  0  0  0  0  0  0  0  0  0
   -3.4790   -2.0502   -0.7245 C   0  0  0  0  0  0  0  0  0  0  0  0
   -3.4461   -3.3424   -0.1807 C   0  0  0  0  0  0  0  0  0  0  0  0
   -4.3602   -4.3204   -0.5027 C   0  0  0  0  0  0  0  0  0  0  0  0
   -4.2719   -5.5995    0.0792 O   0  0  0  0  0  0  0  0  0  0  0  0
   -5.1551   -6.6407   -0.1938 C   0  0  0  0  0  0  0  0  0  0  0  0
   -5.3595   -4.0062   -1.4094 C   0  0  0  0  0  0  0  0  0  0  0  0
   -5.4056   -2.7395   -1.9538 C   0  0  0  0  0  0  0  0  0  0  0  0
   -6.4030   -2.4338   -2.8556 O   0  0  0  0  0  0  0  0  0  0  0  0
   -6.5004   -1.1671   -3.4415 C   0  0  0  0  0  0  0  0  0  0  0  0
   -4.4873   -1.7836   -1.6198 C   0  0  0  0  0  0  0  0  0  0  0  0
    8.4589    0.5246   -2.9445 H   0  0  0  0  0  0  0  0  0  0  0  0
   10.1046    0.6418   -2.2378 H   0  0  0  0  0  0  0  0  0  0  0  0
    8.8453    1.6530   -1.5185 H   0  0  0  0  0  0  0  0  0  0  0  0
    8.2163   -1.3292   -1.5509 H   0  0  0  0  0  0  0  0  0  0  0  0
    9.7731   -0.9729   -0.8178 H   0  0  0  0  0  0  0  0  0  0  0  0
    7.6209   -1.1655    1.9664 H   0  0  0  0  0  0  0  0  0  0  0  0
    7.8549   -2.1529    0.4373 H   0  0  0  0  0  0  0  0  0  0  0  0
    9.7637   -2.0097    2.4307 H   0  0  0  0  0  0  0  0  0  0  0  0
   10.2077   -0.5553    1.5067 H   0  0  0  0  0  0  0  0  0  0  0  0
   10.2204   -2.2112    0.7356 H   0  0  0  0  0  0  0  0  0  0  0  0
    6.3442    0.2158    1.1882 H   0  0  0  0  0  0  0  0  0  0  0  0
    6.2091   -0.7835   -0.2689 H   0  0  0  0  0  0  0  0  0  0  0  0
    6.5362    1.1759   -1.7322 H   0  0  0  0  0  0  0  0  0  0  0  0
    6.7908    2.2719   -0.3473 H   0  0  0  0  0  0  0  0  0  0  0  0
    4.2203    0.8055   -1.1867 H   0  0  0  0  0  0  0  0  0  0  0  0
    4.6137    2.5266   -1.2256 H   0  0  0  0  0  0  0  0  0  0  0  0
    4.9308    2.5314    1.2581 H   0  0  0  0  0  0  0  0  0  0  0  0
    4.4923    0.8047    1.3407 H   0  0  0  0  0  0  0  0  0  0  0  0
    2.5795    2.9701    1.3089 H   0  0  0  0  0  0  0  0  0  0  0  0
    1.4606   -1.9876   -0.7216 H   0  0  0  0  0  0  0  0  0  0  0  0
   -0.9044   -2.4962   -0.9060 H   0  0  0  0  0  0  0  0  0  0  0  0
   -4.9198   -0.0739    0.2189 H   0  0  0  0  0  0  0  0  0  0  0  0
   -6.4211    1.6073    0.9340 H   0  0  0  0  0  0  0  0  0  0  0  0
   -4.3340    5.0322    1.1941 H   0  0  0  0  0  0  0  0  0  0  0  0
   -6.0192    5.5778    0.9906 H   0  0  0  0  0  0  0  0  0  0  0  0
   -5.2395    4.4284   -0.2317 H   0  0  0  0  0  0  0  0  0  0  0  0
   -7.7471    4.3741    1.0790 H   0  0  0  0  0  0  0  0  0  0  0  0
   -7.5609    4.2334    2.9174 H   0  0  0  0  0  0  0  0  0  0  0  0
   -7.8928    2.7707    1.8636 H   0  0  0  0  0  0  0  0  0  0  0  0
   -5.8533    4.3116    3.7094 H   0  0  0  0  0  0  0  0  0  0  0  0
   -4.9277    2.7247    3.4646 H   0  0  0  0  0  0  0  0  0  0  0  0
   -4.2510    4.3348    2.9417 H   0  0  0  0  0  0  0  0  0  0  0  0
   -2.6598   -3.5753    0.5273 H   0  0  0  0  0  0  0  0  0  0  0  0
   -4.6996   -7.6310    0.1037 H   0  0  0  0  0  0  0  0  0  0  0  0
   -6.0356   -6.5260    0.5039 H   0  0  0  0  0  0  0  0  0  0  0  0
   -5.5215   -6.6798   -1.2284 H   0  0  0  0  0  0  0  0  0  0  0  0
   -6.0699   -4.7789   -1.6526 H   0  0  0  0  0  0  0  0  0  0  0  0
   -6.4391   -0.3857   -2.6507 H   0  0  0  0  0  0  0  0  0  0  0  0
   -7.5074   -1.0901   -3.9109 H   0  0  0  0  0  0  0  0  0  0  0  0
   -5.7663   -1.0376   -4.2490 H   0  0  0  0  0  0  0  0  0  0  0  0
   -4.4944   -0.7637   -2.0359 H   0  0  0  0  0  0  0  0  0  0  0  0
  1  2  1  0
  2  3  1  0
  3  4  1  0
  4  5  1  0
  3  6  1  0
  6  7  1  0
  7  8  1  0
  8  9  1  0
  9 10  1  0
 10 11  1  0
 11 12  2  0
 12 13  1  0
 13 14  2  0
 14 15  1  0
 15 16  2  0
 16 17  1  0
 17 18  1  0
 18 19  1  0
 19 20  2  0
 19 21  1  0
 21 22  1  0
 22 23  1  0
 22 24  1  0
 22 25  1  0
 17 26  2  0
 26 27  1  0
 27 28  2  0
 16 29  1  0
 29 30  2  0
 30 31  1  0
 31 32  1  0
 32 33  1  0
 31 34  2  0
 34 35  1  0
 35 36  1  0
 36 37  1  0
 35 38  2  0
 28 11  1  0
 38 29  1  0
 27 14  1  0
  1 39  1  0
  1 40  1  0
  1 41  1  0
  2 42  1  0
  2 43  1  0
  4 44  1  0
  4 45  1  0
  5 46  1  0
  5 47  1  0
  5 48  1  0
  6 49  1  0
  6 50  1  0
  7 51  1  0
  7 52  1  0
  8 53  1  0
  8 54  1  0
  9 55  1  0
  9 56  1  0
 10 57  1  0
 13 58  1  0
 15 59  1  0
 18 60  1  0
 21 61  1  0
 23 62  1  0
 23 63  1  0
 23 64  1  0
 24 65  1  0
 24 66  1  0
 24 67  1  0
 25 68  1  0
 25 69  1  0
 25 70  1  0
 30 71  1  0
 33 72  1  0
 33 73  1  0
 33 74  1  0
 34 75  1  0
 37 76  1  0
 37 77  1  0
 37 78  1  0
 38 79  1  0
M  END
$$$$
[H]/C(C(=O)N1C([H])([H])C([H])([H])C([H])(N2C(=O)N(c3c(Cl)c(OC([H])([H])[H])c([H])c(OC([H])([H])[H])c3Cl)C([H])([H])c3c([H])nc(N([H])C4([H])C([H])([H])C([H])([H])C([H])([H])C([H])([H])C4([H])[H])nc32)C([H])([H])C1([H])[H])=C(/[H])C([H])([H])N(C([H])([H])[H])C([H])([H])[H]
     RDKit          3D

 85 89  0  0  0  0  0  0  0  0999 V2000
   -3.2377    7.7663   -2.1449 C   0  0  0  0  0  0  0  0  0  0  0  0
   -2.9937    6.3776   -2.1139 O   0  0  0  0  0  0  0  0  0  0  0  0
   -2.7817    5.7515   -0.8985 C   0  0  0  0  0  0  0  0  0  0  0  0
   -2.8000    6.4439    0.2945 C   0  0  0  0  0  0  0  0  0  0  0  0
   -2.5841    5.7892    1.4983 C   0  0  0  0  0  0  0  0  0  0  0  0
   -2.5968    6.4607    2.7173 O   0  0  0  0  0  0  0  0  0  0  0  0
   -2.8402    7.8536    2.6941 C   0  0  0  0  0  0  0  0  0  0  0  0
   -2.3474    4.4096    1.4730 C   0  0  0  0  0  0  0  0  0  0  0  0
   -2.0699    3.5491    2.9712 Cl  0  0  0  0  0  0  0  0  0  0  0  0
   -2.3305    3.7248    0.2796 C   0  0  0  0  0  0  0  0  0  0  0  0
   -2.0873    2.3200    0.3147 N   0  0  0  0  0  0  0  0  0  0  0  0
   -3.2311    1.4575    0.1676 C   0  0  0  0  0  0  0  0  0  0  0  0
   -2.8924    0.0145    0.1406 C   0  0  0  0  0  0  0  0  0  0  0  0
   -3.9344   -0.9122   -0.0520 C   0  0  0  0  0  0  0  0  0  0  0  0
   -3.6189   -2.2117   -0.0694 N   0  0  0  0  0  0  0  0  0  0  0  0
   -2.3637   -2.6595    0.0877 C   0  0  0  0  0  0  0  0  0  0  0  0
   -2.0551   -4.0604    0.0546 N   0  0  0  0  0  0  0  0  0  0  0  0
   -3.0171   -5.0914   -0.1409 C   0  0  0  0  0  0  0  0  0  0  0  0
   -4.0772   -5.1457    0.9680 C   0  0  0  0  0  0  0  0  0  0  0  0
   -4.7341   -6.5130    0.8487 C   0  0  0  0  0  0  0  0  0  0  0  0
   -5.3517   -6.7430   -0.4896 C   0  0  0  0  0  0  0  0  0  0  0  0
   -4.5133   -6.3108   -1.6435 C   0  0  0  0  0  0  0  0  0  0  0  0
   -3.7918   -4.9964   -1.4359 C   0  0  0  0  0  0  0  0  0  0  0  0
   -1.4020   -1.7485    0.2684 N   0  0  0  0  0  0  0  0  0  0  0  0
   -1.6116   -0.4491    0.3006 C   0  0  0  0  0  0  0  0  0  0  0  0
   -0.5103    0.4128    0.4776 N   0  0  0  0  0  0  0  0  0  0  0  0
    0.8394    0.0101    0.6483 C   0  0  0  0  0  0  0  0  0  0  0  0
    1.2796   -0.7612   -0.5749 C   0  0  0  0  0  0  0  0  0  0  0  0
    2.8127   -0.5870   -0.6262 C   0  0  0  0  0  0  0  0  0  0  0  0
    3.3012   -1.1093    0.6211 N   0  0  0  0  0  0  0  0  0  0  0  0
    2.3192   -1.7258    1.5116 C   0  0  0  0  0  0  0  0  0  0  0  0
    1.1500   -0.8278    1.8377 C   0  0  0  0  0  0  0  0  0  0  0  0
    4.6402   -1.0607    0.9923 C   0  0  0  0  0  0  0  0  0  0  0  0
    4.8491   -1.5895    2.1932 O   0  0  0  0  0  0  0  0  0  0  0  0
    5.8260   -0.5776    0.3814 C   0  0  0  0  0  0  0  0  0  0  0  0
    5.9930   -0.0048   -0.7839 C   0  0  0  0  0  0  0  0  0  0  0  0
    7.3075    0.4648   -1.3258 C   0  0  0  0  0  0  0  0  0  0  0  0
    8.4196    0.1964   -0.4790 N   0  0  0  0  0  0  0  0  0  0  0  0
    9.5954    0.8593   -1.0895 C   0  0  0  0  0  0  0  0  0  0  0  0
    8.7064   -1.2526   -0.6444 C   0  0  0  0  0  0  0  0  0  0  0  0
   -0.7777    1.8114    0.4817 C   0  0  0  0  0  0  0  0  0  0  0  0
    0.1435    2.6765    0.6353 O   0  0  0  0  0  0  0  0  0  0  0  0
   -2.5484    4.3932   -0.9205 C   0  0  0  0  0  0  0  0  0  0  0  0
   -2.5074    3.4392   -2.3832 Cl  0  0  0  0  0  0  0  0  0  0  0  0
   -4.2252    8.0262   -1.6905 H   0  0  0  0  0  0  0  0  0  0  0  0
   -3.1493    8.1211   -3.1953 H   0  0  0  0  0  0  0  0  0  0  0  0
   -2.4543    8.2756   -1.5617 H   0  0  0  0  0  0  0  0  0  0  0  0
   -2.9839    7.4929    0.2709 H   0  0  0  0  0  0  0  0  0  0  0  0
   -2.6611    8.2312    3.7199 H   0  0  0  0  0  0  0  0  0  0  0  0
   -3.8872    8.0873    2.3610 H   0  0  0  0  0  0  0  0  0  0  0  0
   -2.1726    8.3245    1.9470 H   0  0  0  0  0  0  0  0  0  0  0  0
   -3.8222    1.6947   -0.7453 H   0  0  0  0  0  0  0  0  0  0  0  0
   -3.9518    1.6414    1.0145 H   0  0  0  0  0  0  0  0  0  0  0  0
   -4.9524   -0.5345   -0.1792 H   0  0  0  0  0  0  0  0  0  0  0  0
   -1.0507   -4.3345    0.1844 H   0  0  0  0  0  0  0  0  0  0  0  0
   -2.5470   -6.0952   -0.1370 H   0  0  0  0  0  0  0  0  0  0  0  0
   -3.5737   -5.1176    1.9517 H   0  0  0  0  0  0  0  0  0  0  0  0
   -4.7983   -4.3506    0.7844 H   0  0  0  0  0  0  0  0  0  0  0  0
   -5.5224   -6.5623    1.6349 H   0  0  0  0  0  0  0  0  0  0  0  0
   -3.9428   -7.2650    1.1038 H   0  0  0  0  0  0  0  0  0  0  0  0
   -5.5030   -7.8524   -0.5911 H   0  0  0  0  0  0  0  0  0  0  0  0
   -6.3627   -6.2872   -0.5099 H   0  0  0  0  0  0  0  0  0  0  0  0
   -5.1890   -6.1871   -2.5358 H   0  0  0  0  0  0  0  0  0  0  0  0
   -3.7706   -7.0927   -1.9381 H   0  0  0  0  0  0  0  0  0  0  0  0
   -3.1565   -4.8288   -2.3118 H   0  0  0  0  0  0  0  0  0  0  0  0
   -4.6140   -4.2277   -1.3436 H   0  0  0  0  0  0  0  0  0  0  0  0
    1.4824    0.9263    0.7479 H   0  0  0  0  0  0  0  0  0  0  0  0
    0.8169   -0.3895   -1.5037 H   0  0  0  0  0  0  0  0  0  0  0  0
    1.0518   -1.8320   -0.4682 H   0  0  0  0  0  0  0  0  0  0  0  0
    3.2013   -1.1149   -1.5209 H   0  0  0  0  0  0  0  0  0  0  0  0
    2.9569    0.5087   -0.7530 H   0  0  0  0  0  0  0  0  0  0  0  0
    2.0389   -2.6908    1.0573 H   0  0  0  0  0  0  0  0  0  0  0  0
    2.8763   -2.0166    2.4490 H   0  0  0  0  0  0  0  0  0  0  0  0
    1.4970   -0.2014    2.7150 H   0  0  0  0  0  0  0  0  0  0  0  0
    0.3262   -1.5084    2.1544 H   0  0  0  0  0  0  0  0  0  0  0  0
    6.7837   -0.6777    0.9724 H   0  0  0  0  0  0  0  0  0  0  0  0
    5.1388    0.1395   -1.3947 H   0  0  0  0  0  0  0  0  0  0  0  0
    7.4736    0.0217   -2.3477 H   0  0  0  0  0  0  0  0  0  0  0  0
    7.2310    1.5577   -1.4962 H   0  0  0  0  0  0  0  0  0  0  0  0
   10.5024    0.2465   -0.9351 H   0  0  0  0  0  0  0  0  0  0  0  0
    9.4169    0.9667   -2.1664 H   0  0  0  0  0  0  0  0  0  0  0  0
    9.7266    1.8756   -0.6361 H   0  0  0  0  0  0  0  0  0  0  0  0
    8.9865   -1.6457    0.3336 H   0  0  0  0  0  0  0  0  0  0  0  0
    7.7698   -1.7815   -0.9760 H   0  0  0  0  0  0  0  0  0  0  0  0
    9.4384   -1.3873   -1.4475 H   0  0  0  0  0  0  0  0  0  0  0  0
  1  2  1  0
  2  3  1  0
  3  4  2  0
  4  5  1  0
  5  6  1  0
  6  7  1  0
  5  8  2  0
  8  9  1  0
  8 10  1  0
 10 11  1  0
 11 12  1  0
 12 13  1  0
 13 14  2  0
 14 15  1  0
 15 16  2  0
 16 17  1  0
 17 18  1  0
 18 19  1  0
 19 20  1  0
 20 21  1  0
 21 22  1  0
 22 23  1  0
 16 24  1  0
 24 25  2  0
 25 26  1  0
 26 27  1  0
 27 28  1  0
 28 29  1  0
 29 30  1  0
 30 31  1  0
 31 32  1  0
 30 33  1  0
 33 34  2  0
 33 35  1  0
 35 36  2  0
 36 37  1  0
 37 38  1  0
 38 39  1  0
 38 40  1  0
 26 41  1  0
 41 42  2  0
 10 43  2  0
 43 44  1  0
 43  3  1  0
 41 11  1  0
 25 13  1  0
 32 27  1  0
 23 18  1  0
  1 45  1  0
  1 46  1  0
  1 47  1  0
  4 48  1  0
  7 49  1  0
  7 50  1  0
  7 51  1  0
 12 52  1  0
 12 53  1  0
 14 54  1  0
 17 55  1  0
 18 56  1  0
 19 57  1  0
 19 58  1  0
 20 59  1  0
 20 60  1  0
 21 61  1  0
 21 62  1  0
 22 63  1  0
 22 64  1  0
 23 65  1  0
 23 66  1  0
 27 67  1  0
 28 68  1  0
 28 69  1  0
 29 70  1  0
 29 71  1  0
 31 72  1  0
 31 73  1  0
 32 74  1  0
 32 75  1  0
 35 76  1  0
 36 77  1  0
 37 78  1  0
 37 79  1  0
 39 80  1  0
 39 81  1  0
 39 82  1  0
 40 83  1  0
 40 84  1  0
 40 85  1  0
M  END
$$$$
[H]c1nc(N([H])[H])c(-c2nn(-c3c([H])c(OC([H])([H])[H])c([H])c(OC([H])([H])[H])c3[H])c(=O)c(C([H])([H])[H])c2[H])nc1-c1c([H])nn(C2([H])C([H])([H])C([H])([H])N([H])C([H])([H])C2([H])[H])c1[H]
     RDKit          3D

 64 68  0  0  0  0  0  0  0  0999 V2000
   -4.4075    4.3847    0.2340 C   0  0  0  0  0  0  0  0  0  0  0  0
   -3.8525    3.2663   -0.3987 O   0  0  0  0  0  0  0  0  0  0  0  0
   -4.1929    1.9686    0.0017 C   0  0  0  0  0  0  0  0  0  0  0  0
   -5.0902    1.8001    1.0370 C   0  0  0  0  0  0  0  0  0  0  0  0
   -5.4229    0.5254    1.4285 C   0  0  0  0  0  0  0  0  0  0  0  0
   -6.3189    0.3535    2.4622 O   0  0  0  0  0  0  0  0  0  0  0  0
   -6.8692    1.4903    3.0893 C   0  0  0  0  0  0  0  0  0  0  0  0
   -4.8404   -0.5504    0.7639 C   0  0  0  0  0  0  0  0  0  0  0  0
   -3.9465   -0.3616   -0.2675 C   0  0  0  0  0  0  0  0  0  0  0  0
   -3.6150    0.9083   -0.6576 C   0  0  0  0  0  0  0  0  0  0  0  0
   -3.3442   -1.4734   -0.9528 N   0  0  0  0  0  0  0  0  0  0  0  0
   -2.0516   -1.6118   -1.0272 N   0  0  0  0  0  0  0  0  0  0  0  0
   -1.4365   -2.6662   -1.6768 C   0  0  0  0  0  0  0  0  0  0  0  0
   -2.2324   -3.5969   -2.2623 C   0  0  0  0  0  0  0  0  0  0  0  0
   -3.6196   -3.4751   -2.1991 C   0  0  0  0  0  0  0  0  0  0  0  0
   -4.4468   -4.5072   -2.8478 C   0  0  0  0  0  0  0  0  0  0  0  0
   -4.1393   -2.3915   -1.5305 C   0  0  0  0  0  0  0  0  0  0  0  0
   -5.3877   -2.2492   -1.4533 O   0  0  0  0  0  0  0  0  0  0  0  0
    0.0147   -2.6861   -1.6758 C   0  0  0  0  0  0  0  0  0  0  0  0
    0.6774   -1.6629   -1.0337 N   0  0  0  0  0  0  0  0  0  0  0  0
    1.9887   -1.5634   -0.9599 C   0  0  0  0  0  0  0  0  0  0  0  0
    2.7507   -2.5394   -1.5597 C   0  0  0  0  0  0  0  0  0  0  0  0
    2.1904   -3.5562   -2.1969 N   0  0  0  0  0  0  0  0  0  0  0  0
    0.8173   -3.6153   -2.2461 C   0  0  0  0  0  0  0  0  0  0  0  0
    0.3337   -4.7402   -2.9500 N   0  0  0  0  0  0  0  0  0  0  0  0
    2.6832   -0.4800   -0.2797 C   0  0  0  0  0  0  0  0  0  0  0  0
    2.1192    0.6052    0.3904 C   0  0  0  0  0  0  0  0  0  0  0  0
    3.1268    1.3541    0.8656 N   0  0  0  0  0  0  0  0  0  0  0  0
    4.2896    0.8258    0.5476 N   0  0  0  0  0  0  0  0  0  0  0  0
    4.0421   -0.2950   -0.1521 C   0  0  0  0  0  0  0  0  0  0  0  0
    5.5981    1.3410    0.8806 C   0  0  0  0  0  0  0  0  0  0  0  0
    5.6502    1.7680    2.3329 C   0  0  0  0  0  0  0  0  0  0  0  0
    7.1317    1.9463    2.6694 C   0  0  0  0  0  0  0  0  0  0  0  0
    7.7742    2.7110    1.6297 N   0  0  0  0  0  0  0  0  0  0  0  0
    6.8439    3.4791    0.8383 C   0  0  0  0  0  0  0  0  0  0  0  0
    5.9834    2.5344    0.0255 C   0  0  0  0  0  0  0  0  0  0  0  0
   -4.0863    4.3922    1.2809 H   0  0  0  0  0  0  0  0  0  0  0  0
   -4.1404    5.2984   -0.3331 H   0  0  0  0  0  0  0  0  0  0  0  0
   -5.5330    4.3150    0.2355 H   0  0  0  0  0  0  0  0  0  0  0  0
   -5.5425    2.6553    1.5530 H   0  0  0  0  0  0  0  0  0  0  0  0
   -6.0180    2.0809    3.5257 H   0  0  0  0  0  0  0  0  0  0  0  0
   -7.5783    1.1512    3.8800 H   0  0  0  0  0  0  0  0  0  0  0  0
   -7.3702    2.1670    2.3649 H   0  0  0  0  0  0  0  0  0  0  0  0
   -5.0754   -1.5677    1.0410 H   0  0  0  0  0  0  0  0  0  0  0  0
   -2.9107    1.0306   -1.4701 H   0  0  0  0  0  0  0  0  0  0  0  0
   -1.8467   -4.4412   -2.7834 H   0  0  0  0  0  0  0  0  0  0  0  0
   -5.4557   -4.1735   -3.1089 H   0  0  0  0  0  0  0  0  0  0  0  0
   -3.9342   -4.8108   -3.7845 H   0  0  0  0  0  0  0  0  0  0  0  0
   -4.4891   -5.4477   -2.2259 H   0  0  0  0  0  0  0  0  0  0  0  0
    3.8528   -2.4980   -1.5240 H   0  0  0  0  0  0  0  0  0  0  0  0
    0.1511   -4.7512   -3.9751 H   0  0  0  0  0  0  0  0  0  0  0  0
    0.1537   -5.6194   -2.4217 H   0  0  0  0  0  0  0  0  0  0  0  0
    1.0708    0.8056    0.5054 H   0  0  0  0  0  0  0  0  0  0  0  0
    4.7907   -0.9595   -0.5587 H   0  0  0  0  0  0  0  0  0  0  0  0
    6.3935    0.5785    0.7512 H   0  0  0  0  0  0  0  0  0  0  0  0
    5.1184    2.6962    2.5393 H   0  0  0  0  0  0  0  0  0  0  0  0
    5.2494    0.9740    3.0001 H   0  0  0  0  0  0  0  0  0  0  0  0
    7.5426    0.8956    2.7086 H   0  0  0  0  0  0  0  0  0  0  0  0
    7.2766    2.3603    3.6818 H   0  0  0  0  0  0  0  0  0  0  0  0
    8.3296    2.1212    0.9802 H   0  0  0  0  0  0  0  0  0  0  0  0
    7.4433    4.0813    0.1242 H   0  0  0  0  0  0  0  0  0  0  0  0
    6.2307    4.1555    1.4740 H   0  0  0  0  0  0  0  0  0  0  0  0
    5.0318    3.0125   -0.2899 H   0  0  0  0  0  0  0  0  0  0  0  0
    6.5442    2.2574   -0.8755 H   0  0  0  0  0  0  0  0  0  0  0  0
  1  2  1  0
  2  3  1  0
  3  4  2  0
  4  5  1  0
  5  6  1  0
  6  7  1  0
  5  8  2  0
  8  9  1  0
  9 10  2  0
  9 11  1  0
 11 12  1  0
 12 13  2  0
 13 14  1  0
 14 15  2  0
 15 16  1  0
 15 17  1  0
 17 18  2  0
 13 19  1  0
 19 20  2  0
 20 21  1  0
 21 22  2  0
 22 23  1  0
 23 24  2  0
 24 25  1  0
 21 26  1  0
 26 27  1  0
 27 28  2  0
 28 29  1  0
 29 30  1  0
 29 31  1  0
 31 32  1  0
 32 33  1  0
 33 34  1  0
 34 35  1  0
 35 36  1  0
 10  3  1  0
 17 11  1  0
 24 19  1  0
 30 26  2  0
 36 31  1  0
  1 37  1  0
  1 38  1  0
  1 39  1  0
  4 40  1  0
  7 41  1  0
  7 42  1  0
  7 43  1  0
  8 44  1  0
 10 45  1  0
 14 46  1  0
 16 47  1  0
 16 48  1  0
 16 49  1  0
 22 50  1  0
 25 51  1  0
 25 52  1  0
 27 53  1  0
 30 54  1  0
 31 55  1  0
 32 56  1  0
 32 57  1  0
 33 58  1  0
 33 59  1  0
 34 60  1  0
 35 61  1  0
 35 62  1  0
 36 63  1  0
 36 64  1  0
M  END
$$$$
[H]C([H])=C([H])C(=O)N1C([H])([H])C([H])(N2C([H])([H])C([H])([H])C([H])([H])[C@]2([H])C([H])([H])n2c(=O)c(-c3c(Cl)c(OC([H])([H])[H])c([H])c(OC([H])([H])[H])c3Cl)c([H])c3c([H])nc(N([H])C([H])([H])[H])nc32)C1([H])[H]
     RDKit          3D

 69 73  0  0  0  0  0  0  0  0999 V2000
    0.2382   -6.9882   -0.9916 C   0  0  0  0  0  0  0  0  0  0  0  0
    0.6354   -5.6191   -1.0143 N   0  0  0  0  0  0  0  0  0  0  0  0
   -0.3201   -4.5639   -0.7913 C   0  0  0  0  0  0  0  0  0  0  0  0
   -1.6165   -4.8591   -0.5562 N   0  0  0  0  0  0  0  0  0  0  0  0
   -2.5034   -3.8697   -0.3489 C   0  0  0  0  0  0  0  0  0  0  0  0
   -2.1176   -2.5489   -0.3709 C   0  0  0  0  0  0  0  0  0  0  0  0
   -3.0392   -1.5604   -0.1728 C   0  0  0  0  0  0  0  0  0  0  0  0
   -2.6338   -0.2521   -0.2145 C   0  0  0  0  0  0  0  0  0  0  0  0
   -3.6479    0.7725   -0.0056 C   0  0  0  0  0  0  0  0  0  0  0  0
   -3.9602    1.2860    1.2325 C   0  0  0  0  0  0  0  0  0  0  0  0
   -3.1000    0.6939    2.6212 Cl  0  0  0  0  0  0  0  0  0  0  0  0
   -4.9396    2.2579    1.3862 C   0  0  0  0  0  0  0  0  0  0  0  0
   -5.2235    2.7519    2.6707 O   0  0  0  0  0  0  0  0  0  0  0  0
   -6.2036    3.7294    2.8528 C   0  0  0  0  0  0  0  0  0  0  0  0
   -5.6325    2.7438    0.3173 C   0  0  0  0  0  0  0  0  0  0  0  0
   -5.3376    2.2394   -0.9644 C   0  0  0  0  0  0  0  0  0  0  0  0
   -5.9760    2.6801   -1.9838 O   0  0  0  0  0  0  0  0  0  0  0  0
   -6.6147    3.1216   -2.9997 C   0  0  0  0  0  0  0  0  0  0  0  0
   -4.3342    1.2507   -1.0824 C   0  0  0  0  0  0  0  0  0  0  0  0
   -3.9606    0.6149   -2.6917 Cl  0  0  0  0  0  0  0  0  0  0  0  0
   -1.3066    0.0309   -0.4545 C   0  0  0  0  0  0  0  0  0  0  0  0
   -0.9583    1.2366   -0.4881 O   0  0  0  0  0  0  0  0  0  0  0  0
   -0.3706   -0.9460   -0.6541 N   0  0  0  0  0  0  0  0  0  0  0  0
    0.9860   -0.6254   -0.9231 C   0  0  0  0  0  0  0  0  0  0  0  0
    1.8805   -0.3713    0.2271 C   0  0  1  0  0  0  0  0  0  0  0  0
    2.0910   -1.4340    1.2268 C   0  0  0  0  0  0  0  0  0  0  0  0
    3.2648   -2.2791    0.7798 C   0  0  0  0  0  0  0  0  0  0  0  0
    3.7106   -1.5521   -0.4596 C   0  0  0  0  0  0  0  0  0  0  0  0
    3.2304   -0.1700   -0.2912 N   0  0  0  0  0  0  0  0  0  0  0  0
    4.0983    0.4154    0.7028 C   0  0  0  0  0  0  0  0  0  0  0  0
    3.7604    1.7713    1.2085 C   0  0  0  0  0  0  0  0  0  0  0  0
    4.9504    2.3748    0.5662 N   0  0  0  0  0  0  0  0  0  0  0  0
    5.2838    1.0836    0.0425 C   0  0  0  0  0  0  0  0  0  0  0  0
    5.4178    3.6900    0.5703 C   0  0  0  0  0  0  0  0  0  0  0  0
    4.7457    4.5718    1.2282 O   0  0  0  0  0  0  0  0  0  0  0  0
    6.6106    4.1036   -0.1236 C   0  0  0  0  0  0  0  0  0  0  0  0
    7.4161    3.3638   -0.8392 C   0  0  0  0  0  0  0  0  0  0  0  0
   -0.7774   -2.2254   -0.6127 C   0  0  0  0  0  0  0  0  0  0  0  0
    0.0296   -3.2767   -0.8075 N   0  0  0  0  0  0  0  0  0  0  0  0
   -0.8072   -7.0576   -0.6753 H   0  0  0  0  0  0  0  0  0  0  0  0
    0.8876   -7.5425   -0.2640 H   0  0  0  0  0  0  0  0  0  0  0  0
    0.4424   -7.4532   -1.9781 H   0  0  0  0  0  0  0  0  0  0  0  0
    1.6269   -5.3641   -1.1935 H   0  0  0  0  0  0  0  0  0  0  0  0
   -3.5673   -4.0746   -0.1544 H   0  0  0  0  0  0  0  0  0  0  0  0
   -4.0610   -1.8040    0.0121 H   0  0  0  0  0  0  0  0  0  0  0  0
   -7.2172    3.3212    2.5721 H   0  0  0  0  0  0  0  0  0  0  0  0
   -6.0408    4.5760    2.1554 H   0  0  0  0  0  0  0  0  0  0  0  0
   -6.1908    4.0998    3.8881 H   0  0  0  0  0  0  0  0  0  0  0  0
   -6.4067    3.5099    0.4270 H   0  0  0  0  0  0  0  0  0  0  0  0
   -7.3257    3.9980   -2.8709 H   0  0  0  0  0  0  0  0  0  0  0  0
   -5.9326    3.4927   -3.8361 H   0  0  0  0  0  0  0  0  0  0  0  0
   -7.3233    2.3598   -3.4958 H   0  0  0  0  0  0  0  0  0  0  0  0
    1.4572   -1.3547   -1.6486 H   0  0  0  0  0  0  0  0  0  0  0  0
    0.9751    0.3318   -1.5299 H   0  0  0  0  0  0  0  0  0  0  0  0
    1.5264    0.5442    0.7637 H   0  0  0  0  0  0  0  0  0  0  0  0
    1.2306   -1.9864    1.5897 H   0  0  0  0  0  0  0  0  0  0  0  0
    2.4843   -0.9093    2.1645 H   0  0  0  0  0  0  0  0  0  0  0  0
    4.0912   -2.3157    1.5119 H   0  0  0  0  0  0  0  0  0  0  0  0
    2.9710   -3.3302    0.5839 H   0  0  0  0  0  0  0  0  0  0  0  0
    4.8372   -1.5293   -0.5103 H   0  0  0  0  0  0  0  0  0  0  0  0
    3.3750   -1.9989   -1.3955 H   0  0  0  0  0  0  0  0  0  0  0  0
    4.4614   -0.3128    1.4794 H   0  0  0  0  0  0  0  0  0  0  0  0
    2.8652    2.2656    0.7908 H   0  0  0  0  0  0  0  0  0  0  0  0
    3.8834    1.8208    2.3072 H   0  0  0  0  0  0  0  0  0  0  0  0
    6.2725    0.6807    0.3770 H   0  0  0  0  0  0  0  0  0  0  0  0
    5.2466    1.0793   -1.0725 H   0  0  0  0  0  0  0  0  0  0  0  0
    6.8665    5.1752   -0.0337 H   0  0  0  0  0  0  0  0  0  0  0  0
    8.2976    3.8209   -1.3149 H   0  0  0  0  0  0  0  0  0  0  0  0
    7.2991    2.3145   -1.0172 H   0  0  0  0  0  0  0  0  0  0  0  0
  1  2  1  0
  2  3  1  0
  3  4  2  0
  4  5  1  0
  5  6  2  0
  6  7  1  0
  7  8  2  0
  8  9  1  0
  9 10  2  0
 10 11  1  0
 10 12  1  0
 12 13  1  0
 13 14  1  0
 12 15  2  0
 15 16  1  0
 16 17  1  0
 17 18  1  0
 16 19  2  0
 19 20  1  0
  8 21  1  0
 21 22  2  0
 21 23  1  0
 23 24  1  0
 24 25  1  0
 25 26  1  0
 26 27  1  0
 27 28  1  0
 28 29  1  0
 29 30  1  0
 30 31  1  0
 31 32  1  0
 32 33  1  0
 32 34  1  0
 34 35  2  0
 34 36  1  0
 36 37  2  3
 23 38  1  0
 38 39  2  0
 39  3  1  0
 38  6  1  0
 19  9  1  0
 29 25  1  0
 33 30  1  0
  1 40  1  0
  1 41  1  0
  1 42  1  0
  2 43  1  0
  5 44  1  0
  7 45  1  0
 14 46  1  0
 14 47  1  0
 14 48  1  0
 15 49  1  0
 18 50  1  0
 18 51  1  0
 18 52  1  0
 24 53  1  0
 24 54  1  0
 25 55  1  1
 26 56  1  0
 26 57  1  0
 27 58  1  0
 27 59  1  0
 28 60  1  0
 28 61  1  0
 30 62  1  0
 31 63  1  0
 31 64  1  0
 33 65  1  0
 33 66  1  0
 36 67  1  0
 37 68  1  0
 37 69  1  0
M  END
$$$$
[H]c1nc(-c2c(C([H])([H])[H])nn(C([H])([H])C#N)c2[H])c([H])c2c1C([H])([H])N(c1c(F)c(OC([H])([H])[H])c([H])c(OC([H])([H])[H])c1F)C(=O)C21C([H])([H])C1([H])[H]
     RDKit          3D

 55 59  0  0  0  0  0  0  0  0999 V2000
   -7.8813   -0.4571   -0.6894 C   0  0  0  0  0  0  0  0  0  0  0  0
   -6.6294    0.1145   -0.8816 O   0  0  0  0  0  0  0  0  0  0  0  0
   -5.4153   -0.4457   -0.5146 C   0  0  0  0  0  0  0  0  0  0  0  0
   -5.4009   -1.6779    0.0974 C   0  0  0  0  0  0  0  0  0  0  0  0
   -4.1996   -2.2721    0.4796 C   0  0  0  0  0  0  0  0  0  0  0  0
   -4.2319   -3.4965    1.0829 O   0  0  0  0  0  0  0  0  0  0  0  0
   -5.3341   -4.2778    1.3916 C   0  0  0  0  0  0  0  0  0  0  0  0
   -3.0253   -1.5862    0.2256 C   0  0  0  0  0  0  0  0  0  0  0  0
   -1.8728   -2.1808    0.6048 F   0  0  0  0  0  0  0  0  0  0  0  0
   -2.9905   -0.3500   -0.3846 C   0  0  0  0  0  0  0  0  0  0  0  0
   -1.7670    0.3314   -0.6306 N   0  0  0  0  0  0  0  0  0  0  0  0
   -0.8050   -0.1219   -1.6076 C   0  0  0  0  0  0  0  0  0  0  0  0
    0.5757    0.0201   -1.0929 C   0  0  0  0  0  0  0  0  0  0  0  0
    1.5753   -0.8894   -1.3962 C   0  0  0  0  0  0  0  0  0  0  0  0
    2.8088   -0.7562   -0.9307 N   0  0  0  0  0  0  0  0  0  0  0  0
    3.2107    0.2754   -0.1178 C   0  0  0  0  0  0  0  0  0  0  0  0
    2.2616    1.1835    0.1997 C   0  0  0  0  0  0  0  0  0  0  0  0
    0.9621    1.0586   -0.2803 C   0  0  0  0  0  0  0  0  0  0  0  0
   -0.0615    2.0720    0.0821 C   0  0  0  0  0  0  0  0  0  0  0  0
    0.1951    3.4186   -0.5486 C   0  0  0  0  0  0  0  0  0  0  0  0
    0.2182    3.2305    0.9299 C   0  0  0  0  0  0  0  0  0  0  0  0
   -1.4338    1.5146    0.0946 C   0  0  0  0  0  0  0  0  0  0  0  0
   -2.3354    2.0904    0.7573 O   0  0  0  0  0  0  0  0  0  0  0  0
    4.6075    0.2914    0.3054 C   0  0  0  0  0  0  0  0  0  0  0  0
    5.5826   -0.5905   -0.1614 C   0  0  0  0  0  0  0  0  0  0  0  0
    6.7479   -0.3174    0.4432 N   0  0  0  0  0  0  0  0  0  0  0  0
    7.9800   -1.0279    0.2054 C   0  0  0  0  0  0  0  0  0  0  0  0
    8.7360   -0.4007   -0.8753 C   0  0  0  0  0  0  0  0  0  0  0  0
    9.3352    0.1093   -1.7204 N   0  0  0  0  0  0  0  0  0  0  0  0
    6.5493    0.6879    1.2614 N   0  0  0  0  0  0  0  0  0  0  0  0
    5.2499    1.0842    1.2015 C   0  0  0  0  0  0  0  0  0  0  0  0
    4.7210    2.1799    2.0119 C   0  0  0  0  0  0  0  0  0  0  0  0
   -4.2161    0.1878   -0.7409 C   0  0  0  0  0  0  0  0  0  0  0  0
   -4.2445    1.3984   -1.3435 F   0  0  0  0  0  0  0  0  0  0  0  0
   -8.2915   -0.2278    0.3190 H   0  0  0  0  0  0  0  0  0  0  0  0
   -7.8202   -1.5435   -0.9012 H   0  0  0  0  0  0  0  0  0  0  0  0
   -8.5705   -0.0555   -1.4903 H   0  0  0  0  0  0  0  0  0  0  0  0
   -6.3195   -2.2048    0.2920 H   0  0  0  0  0  0  0  0  0  0  0  0
   -5.1309   -4.9675    2.2594 H   0  0  0  0  0  0  0  0  0  0  0  0
   -5.7133   -4.8796    0.5348 H   0  0  0  0  0  0  0  0  0  0  0  0
   -6.1633   -3.6282    1.7343 H   0  0  0  0  0  0  0  0  0  0  0  0
   -0.9662   -1.2204   -1.7819 H   0  0  0  0  0  0  0  0  0  0  0  0
   -0.8929    0.4419   -2.5710 H   0  0  0  0  0  0  0  0  0  0  0  0
    1.3031   -1.7303   -2.0410 H   0  0  0  0  0  0  0  0  0  0  0  0
    2.4853    2.0187    0.8155 H   0  0  0  0  0  0  0  0  0  0  0  0
    1.1750    3.6192   -1.0186 H   0  0  0  0  0  0  0  0  0  0  0  0
   -0.6624    3.9161   -1.0504 H   0  0  0  0  0  0  0  0  0  0  0  0
   -0.6789    3.6839    1.4409 H   0  0  0  0  0  0  0  0  0  0  0  0
    1.1300    3.3505    1.5167 H   0  0  0  0  0  0  0  0  0  0  0  0
    5.3847   -1.3588   -0.8976 H   0  0  0  0  0  0  0  0  0  0  0  0
    7.7391   -2.0893   -0.0198 H   0  0  0  0  0  0  0  0  0  0  0  0
    8.6163   -1.0395    1.1110 H   0  0  0  0  0  0  0  0  0  0  0  0
    5.5340    2.5505    2.7090 H   0  0  0  0  0  0  0  0  0  0  0  0
    3.8733    1.9081    2.6723 H   0  0  0  0  0  0  0  0  0  0  0  0
    4.4960    3.0560    1.3723 H   0  0  0  0  0  0  0  0  0  0  0  0
  1  2  1  0
  2  3  1  0
  3  4  2  0
  4  5  1  0
  5  6  1  0
  6  7  1  0
  5  8  2  0
  8  9  1  0
  8 10  1  0
 10 11  1  0
 11 12  1  0
 12 13  1  0
 13 14  2  0
 14 15  1  0
 15 16  2  0
 16 17  1  0
 17 18  2  0
 18 19  1  0
 19 20  1  0
 20 21  1  0
 19 22  1  0
 22 23  2  0
 16 24  1  0
 24 25  2  0
 25 26  1  0
 26 27  1  0
 27 28  1  0
 28 29  3  0
 26 30  1  0
 30 31  2  0
 31 32  1  0
 10 33  2  0
 33 34  1  0
 33  3  1  0
 22 11  1  0
 31 24  1  0
 18 13  1  0
 21 19  1  0
  1 35  1  0
  1 36  1  0
  1 37  1  0
  4 38  1  0
  7 39  1  0
  7 40  1  0
  7 41  1  0
 12 42  1  0
 12 43  1  0
 14 44  1  0
 17 45  1  0
 20 46  1  0
 20 47  1  0
 21 48  1  0
 21 49  1  0
 25 50  1  0
 27 51  1  0
 27 52  1  0
 32 53  1  0
 32 54  1  0
 32 55  1  0
M  END
$$$$
[H]C([H])=C([H])C(=O)N1C([H])([H])C([H])([H])N(C([H])([H])C([H])([H])C([H])([H])n2c(=O)c(-c3c(Cl)c(OC([H])([H])[H])c([H])c(OC([H])([H])[H])c3Cl)c([H])c3c([H])nc(N([H])C([H])([H])C([H])([H])OC([H])([H])C([H])([H])[H])nc32)C([H])([H])C1([H])[H]
     RDKit          3D

 78 81  0  0  0  0  0  0  0  0999 V2000
   -3.7648    7.9993    1.6412 C   0  0  0  0  0  0  0  0  0  0  0  0
   -2.8213    6.9029    2.0949 C   0  0  0  0  0  0  0  0  0  0  0  0
   -1.7001    6.9236    1.3001 O   0  0  0  0  0  0  0  0  0  0  0  0
   -1.9991    6.7183   -0.0273 C   0  0  0  0  0  0  0  0  0  0  0  0
   -2.6699    5.3816   -0.2628 C   0  0  0  0  0  0  0  0  0  0  0  0
   -1.7622    4.3468    0.1798 N   0  0  0  0  0  0  0  0  0  0  0  0
   -2.1570    2.9901    0.0633 C   0  0  0  0  0  0  0  0  0  0  0  0
   -3.3572    2.7052   -0.4521 N   0  0  0  0  0  0  0  0  0  0  0  0
   -3.7793    1.4460   -0.5874 C   0  0  0  0  0  0  0  0  0  0  0  0
   -2.9893    0.3838   -0.1986 C   0  0  0  0  0  0  0  0  0  0  0  0
   -3.4172   -0.9187   -0.3365 C   0  0  0  0  0  0  0  0  0  0  0  0
   -2.5654   -1.9013    0.0748 C   0  0  0  0  0  0  0  0  0  0  0  0
   -2.9730   -3.3000   -0.0507 C   0  0  0  0  0  0  0  0  0  0  0  0
   -3.6460   -3.8759    1.0180 C   0  0  0  0  0  0  0  0  0  0  0  0
   -3.9869   -2.9347    2.4624 Cl  0  0  0  0  0  0  0  0  0  0  0  0
   -4.0226   -5.1921    0.8886 C   0  0  0  0  0  0  0  0  0  0  0  0
   -4.6967   -5.7796    1.9505 O   0  0  0  0  0  0  0  0  0  0  0  0
   -5.1250   -7.1137    1.9217 C   0  0  0  0  0  0  0  0  0  0  0  0
   -3.7515   -5.9246   -0.2476 C   0  0  0  0  0  0  0  0  0  0  0  0
   -3.0837   -5.3551   -1.3095 C   0  0  0  0  0  0  0  0  0  0  0  0
   -2.7794   -6.0301   -2.4774 O   0  0  0  0  0  0  0  0  0  0  0  0
   -3.1829   -7.3881   -2.5781 C   0  0  0  0  0  0  0  0  0  0  0  0
   -2.7010   -4.0357   -1.1914 C   0  0  0  0  0  0  0  0  0  0  0  0
   -1.8403   -3.2591   -2.5284 Cl  0  0  0  0  0  0  0  0  0  0  0  0
   -1.3340   -1.5595    0.6020 C   0  0  0  0  0  0  0  0  0  0  0  0
   -0.6038   -2.5463    0.9599 O   0  0  0  0  0  0  0  0  0  0  0  0
   -0.9168   -0.2946    0.7365 N   0  0  0  0  0  0  0  0  0  0  0  0
    0.3858    0.0161    1.2947 C   0  0  0  0  0  0  0  0  0  0  0  0
    1.3786    0.0699    0.1435 C   0  0  0  0  0  0  0  0  0  0  0  0
    2.7387    0.3917    0.7096 C   0  0  0  0  0  0  0  0  0  0  0  0
    3.7695    0.4776   -0.2627 N   0  0  0  0  0  0  0  0  0  0  0  0
    4.1473   -0.7124   -0.9178 C   0  0  0  0  0  0  0  0  0  0  0  0
    5.4471   -1.3219   -0.5228 C   0  0  0  0  0  0  0  0  0  0  0  0
    6.4428   -0.2446   -0.4666 N   0  0  0  0  0  0  0  0  0  0  0  0
    6.1244    0.8748    0.3659 C   0  0  0  0  0  0  0  0  0  0  0  0
    4.7689    1.4395   -0.0019 C   0  0  0  0  0  0  0  0  0  0  0  0
    7.6210   -0.3882   -1.2249 C   0  0  0  0  0  0  0  0  0  0  0  0
    7.8247   -1.4229   -1.9458 O   0  0  0  0  0  0  0  0  0  0  0  0
    8.6793    0.6082   -1.2484 C   0  0  0  0  0  0  0  0  0  0  0  0
    9.7795    0.4448   -1.9747 C   0  0  0  0  0  0  0  0  0  0  0  0
   -1.7562    0.7030    0.3300 C   0  0  0  0  0  0  0  0  0  0  0  0
   -1.3654    1.9803    0.4509 N   0  0  0  0  0  0  0  0  0  0  0  0
   -3.2063    8.8888    1.2912 H   0  0  0  0  0  0  0  0  0  0  0  0
   -4.3424    8.3223    2.5347 H   0  0  0  0  0  0  0  0  0  0  0  0
   -4.4816    7.6011    0.9074 H   0  0  0  0  0  0  0  0  0  0  0  0
   -2.4860    7.1562    3.1428 H   0  0  0  0  0  0  0  0  0  0  0  0
   -3.3308    5.9428    2.1678 H   0  0  0  0  0  0  0  0  0  0  0  0
   -1.0516    6.7062   -0.6205 H   0  0  0  0  0  0  0  0  0  0  0  0
   -2.6280    7.4980   -0.4730 H   0  0  0  0  0  0  0  0  0  0  0  0
   -2.8044    5.2812   -1.3610 H   0  0  0  0  0  0  0  0  0  0  0  0
   -3.6201    5.2776    0.2625 H   0  0  0  0  0  0  0  0  0  0  0  0
   -0.8202    4.5483    0.5850 H   0  0  0  0  0  0  0  0  0  0  0  0
   -4.7491    1.1923   -1.0024 H   0  0  0  0  0  0  0  0  0  0  0  0
   -4.3891   -1.1370   -0.7548 H   0  0  0  0  0  0  0  0  0  0  0  0
   -6.0688   -7.2432    1.3825 H   0  0  0  0  0  0  0  0  0  0  0  0
   -5.2240   -7.4466    2.9837 H   0  0  0  0  0  0  0  0  0  0  0  0
   -4.3097   -7.7604    1.4981 H   0  0  0  0  0  0  0  0  0  0  0  0
   -4.0432   -6.9641   -0.3600 H   0  0  0  0  0  0  0  0  0  0  0  0
   -2.6334   -8.0174   -1.8229 H   0  0  0  0  0  0  0  0  0  0  0  0
   -4.2648   -7.4858   -2.3197 H   0  0  0  0  0  0  0  0  0  0  0  0
   -3.0679   -7.7971   -3.5943 H   0  0  0  0  0  0  0  0  0  0  0  0
    0.3463    1.0439    1.7370 H   0  0  0  0  0  0  0  0  0  0  0  0
    0.6961   -0.6786    2.0902 H   0  0  0  0  0  0  0  0  0  0  0  0
    1.4280   -0.9451   -0.2759 H   0  0  0  0  0  0  0  0  0  0  0  0
    1.0296    0.8377   -0.5522 H   0  0  0  0  0  0  0  0  0  0  0  0
    2.6487    1.4009    1.1934 H   0  0  0  0  0  0  0  0  0  0  0  0
    2.9485   -0.3110    1.5379 H   0  0  0  0  0  0  0  0  0  0  0  0
    3.3601   -1.4806   -0.8202 H   0  0  0  0  0  0  0  0  0  0  0  0
    4.2110   -0.4916   -2.0238 H   0  0  0  0  0  0  0  0  0  0  0  0
    5.4246   -1.8219    0.4710 H   0  0  0  0  0  0  0  0  0  0  0  0
    5.7306   -2.0916   -1.2567 H   0  0  0  0  0  0  0  0  0  0  0  0
    6.1229    0.4961    1.4250 H   0  0  0  0  0  0  0  0  0  0  0  0
    6.8611    1.6895    0.2673 H   0  0  0  0  0  0  0  0  0  0  0  0
    4.9046    2.1080   -0.8870 H   0  0  0  0  0  0  0  0  0  0  0  0
    4.4640    2.1014    0.8284 H   0  0  0  0  0  0  0  0  0  0  0  0
    8.5915    1.5246   -0.6612 H   0  0  0  0  0  0  0  0  0  0  0  0
   10.5347    1.2118   -1.9586 H   0  0  0  0  0  0  0  0  0  0  0  0
    9.8595   -0.4609   -2.5511 H   0  0  0  0  0  0  0  0  0  0  0  0
  1  2  1  0
  2  3  1  0
  3  4  1  0
  4  5  1  0
  5  6  1  0
  6  7  1  0
  7  8  2  0
  8  9  1  0
  9 10  2  0
 10 11  1  0
 11 12  2  0
 12 13  1  0
 13 14  2  0
 14 15  1  0
 14 16  1  0
 16 17  1  0
 17 18  1  0
 16 19  2  0
 19 20  1  0
 20 21  1  0
 21 22  1  0
 20 23  2  0
 23 24  1  0
 12 25  1  0
 25 26  2  0
 25 27  1  0
 27 28  1  0
 28 29  1  0
 29 30  1  0
 30 31  1  0
 31 32  1  0
 32 33  1  0
 33 34  1  0
 34 35  1  0
 35 36  1  0
 34 37  1  0
 37 38  2  0
 37 39  1  0
 39 40  2  3
 27 41  1  0
 41 42  2  0
 42  7  1  0
 41 10  1  0
 23 13  1  0
 36 31  1  0
  1 43  1  0
  1 44  1  0
  1 45  1  0
  2 46  1  0
  2 47  1  0
  4 48  1  0
  4 49  1  0
  5 50  1  0
  5 51  1  0
  6 52  1  0
  9 53  1  0
 11 54  1  0
 18 55  1  0
 18 56  1  0
 18 57  1  0
 19 58  1  0
 22 59  1  0
 22 60  1  0
 22 61  1  0
 28 62  1  0
 28 63  1  0
 29 64  1  0
 29 65  1  0
 30 66  1  0
 30 67  1  0
 32 68  1  0
 32 69  1  0
 33 70  1  0
 33 71  1  0
 35 72  1  0
 35 73  1  0
 36 74  1  0
 36 75  1  0
 39 76  1  0
 40 77  1  0
 40 78  1  0
M  END
$$$$
[H]OC([H])([H])[C@@]1([H])N(C(=O)C([H])=C([H])[H])C([H])([H])[C@@]([H])(n2nc(C#Cc3c([H])c(OC([H])([H])[H])c([H])c(OC([H])([H])[H])c3[H])c3c(N([H])[H])nc([H])nc32)C1([H])[H]
     RDKit          3D

 57 60  0  0  0  0  0  0  0  0999 V2000
    6.0297    0.1451    3.5742 C   0  0  0  0  0  0  0  0  0  0  0  0
    6.5062    0.7662    2.3949 O   0  0  0  0  0  0  0  0  0  0  0  0
    5.7664    0.8276    1.2287 C   0  0  0  0  0  0  0  0  0  0  0  0
    6.3282    1.4567    0.1397 C   0  0  0  0  0  0  0  0  0  0  0  0
    5.6715    1.5662   -1.0563 C   0  0  0  0  0  0  0  0  0  0  0  0
    6.2763    2.2088   -2.1274 O   0  0  0  0  0  0  0  0  0  0  0  0
    7.5645    2.7506   -1.9925 C   0  0  0  0  0  0  0  0  0  0  0  0
    4.4084    1.0222   -1.1512 C   0  0  0  0  0  0  0  0  0  0  0  0
    3.7936    0.3798   -0.0941 C   0  0  0  0  0  0  0  0  0  0  0  0
    4.5121    0.3002    1.0966 C   0  0  0  0  0  0  0  0  0  0  0  0
    2.4766   -0.1740   -0.2326 C   0  0  0  0  0  0  0  0  0  0  0  0
    1.3603   -0.6311   -0.3663 C   0  0  0  0  0  0  0  0  0  0  0  0
    0.0249   -1.1555   -0.5398 C   0  0  0  0  0  0  0  0  0  0  0  0
   -1.1170   -0.6992   -0.0275 N   0  0  0  0  0  0  0  0  0  0  0  0
   -2.1404   -1.4427   -0.4101 N   0  0  0  0  0  0  0  0  0  0  0  0
   -3.5100   -1.2658   -0.0664 C   0  0  1  0  0  0  0  0  0  0  0  0
   -3.7170   -1.0372    1.4281 C   0  0  0  0  0  0  0  0  0  0  0  0
   -5.1417   -0.4428    1.3635 C   0  0  1  0  0  0  0  0  0  0  0  0
   -5.7355   -0.1475    2.6669 C   0  0  0  0  0  0  0  0  0  0  0  0
   -7.0061    0.3759    2.5397 O   0  0  0  0  0  0  0  0  0  0  0  0
   -4.8974    0.6125    0.4338 N   0  0  0  0  0  0  0  0  0  0  0  0
   -4.1327   -0.0341   -0.6699 C   0  0  0  0  0  0  0  0  0  0  0  0
   -5.2069    1.9672    0.4396 C   0  0  0  0  0  0  0  0  0  0  0  0
   -5.8029    2.5432    1.3777 O   0  0  0  0  0  0  0  0  0  0  0  0
   -4.8404    2.8141   -0.6852 C   0  0  0  0  0  0  0  0  0  0  0  0
   -5.1250    4.0963   -0.6967 C   0  0  0  0  0  0  0  0  0  0  0  0
   -1.6699   -2.4248   -1.2011 C   0  0  0  0  0  0  0  0  0  0  0  0
   -2.2046   -3.4554   -1.8699 N   0  0  0  0  0  0  0  0  0  0  0  0
   -1.5014   -4.3250   -2.6152 C   0  0  0  0  0  0  0  0  0  0  0  0
   -0.1787   -4.1620   -2.7035 N   0  0  0  0  0  0  0  0  0  0  0  0
    0.4200   -3.1468   -2.0559 C   0  0  0  0  0  0  0  0  0  0  0  0
    1.8304   -3.0292   -2.1912 N   0  0  0  0  0  0  0  0  0  0  0  0
   -0.3063   -2.2570   -1.2923 C   0  0  0  0  0  0  0  0  0  0  0  0
    5.5166   -0.8028    3.2423 H   0  0  0  0  0  0  0  0  0  0  0  0
    5.3325    0.8411    4.0610 H   0  0  0  0  0  0  0  0  0  0  0  0
    6.8378   -0.1008    4.2650 H   0  0  0  0  0  0  0  0  0  0  0  0
    7.3317    1.8910    0.2092 H   0  0  0  0  0  0  0  0  0  0  0  0
    7.5418    3.4536   -1.1159 H   0  0  0  0  0  0  0  0  0  0  0  0
    7.8354    3.2681   -2.9280 H   0  0  0  0  0  0  0  0  0  0  0  0
    8.2881    1.9140   -1.7944 H   0  0  0  0  0  0  0  0  0  0  0  0
    3.9026    1.1222   -2.1182 H   0  0  0  0  0  0  0  0  0  0  0  0
    4.0633   -0.1954    1.9465 H   0  0  0  0  0  0  0  0  0  0  0  0
   -4.1061   -2.1856   -0.3001 H   0  0  0  0  0  0  0  0  0  0  0  0
   -3.0657   -0.2348    1.8168 H   0  0  0  0  0  0  0  0  0  0  0  0
   -3.7047   -1.9593    2.0060 H   0  0  0  0  0  0  0  0  0  0  0  0
   -5.7081   -1.2491    0.8037 H   0  0  0  0  0  0  0  0  0  0  0  0
   -5.1225    0.5911    3.2260 H   0  0  0  0  0  0  0  0  0  0  0  0
   -5.8168   -1.0839    3.2599 H   0  0  0  0  0  0  0  0  0  0  0  0
   -7.5646   -0.1137    1.8714 H   0  0  0  0  0  0  0  0  0  0  0  0
   -4.8299   -0.3630   -1.4615 H   0  0  0  0  0  0  0  0  0  0  0  0
   -3.3355    0.6270   -1.0242 H   0  0  0  0  0  0  0  0  0  0  0  0
   -4.3262    2.3634   -1.5159 H   0  0  0  0  0  0  0  0  0  0  0  0
   -4.8407    4.7104   -1.5496 H   0  0  0  0  0  0  0  0  0  0  0  0
   -5.6360    4.6113    0.0981 H   0  0  0  0  0  0  0  0  0  0  0  0
   -1.9889   -5.1491   -3.1406 H   0  0  0  0  0  0  0  0  0  0  0  0
    2.1826   -2.3482   -2.9031 H   0  0  0  0  0  0  0  0  0  0  0  0
    2.4781   -3.6100   -1.5927 H   0  0  0  0  0  0  0  0  0  0  0  0
  1  2  1  0
  2  3  1  0
  3  4  2  0
  4  5  1  0
  5  6  1  0
  6  7  1  0
  5  8  2  0
  8  9  1  0
  9 10  2  0
  9 11  1  0
 11 12  3  0
 12 13  1  0
 13 14  2  0
 14 15  1  0
 15 16  1  0
 16 17  1  0
 17 18  1  0
 18 19  1  0
 19 20  1  0
 18 21  1  0
 21 22  1  0
 21 23  1  0
 23 24  2  0
 23 25  1  0
 25 26  2  3
 15 27  1  0
 27 28  2  0
 28 29  1  0
 29 30  2  0
 30 31  1  0
 31 32  1  0
 31 33  2  0
 10  3  1  0
 33 13  1  0
 22 16  1  0
 33 27  1  0
  1 34  1  0
  1 35  1  0
  1 36  1  0
  4 37  1  0
  7 38  1  0
  7 39  1  0
  7 40  1  0
  8 41  1  0
 10 42  1  0
 16 43  1  6
 17 44  1  0
 17 45  1  0
 18 46  1  6
 19 47  1  0
 19 48  1  0
 20 49  1  0
 22 50  1  0
 22 51  1  0
 25 52  1  0
 26 53  1  0
 26 54  1  0
 29 55  1  0
 32 56  1  0
 32 57  1  0
M  END
$$$$
[H]c1nc([H])c(Cl)c([C@]([H])(Oc2c([H])c([H])c3c(c(-c4nc5c([H])c(N6C([H])([H])C([H])([H])N(C([H])([H])[H])C([H])([H])C6([H])[H])c([H])c([H])c5n4[H])nn3[H])c2[H])C([H])([H])[H])c1Cl
     RDKit          3D

 61 66  0  0  0  0  0  0  0  0999 V2000
   -5.8409    3.0232   -0.1910 C   0  0  0  0  0  0  0  0  0  0  0  0
   -6.1144    1.7275   -0.9317 C   0  0  1  0  0  0  0  0  0  0  0  0
   -5.0909    0.8869   -0.7531 O   0  0  0  0  0  0  0  0  0  0  0  0
   -4.4167   -0.2233   -0.7069 C   0  0  0  0  0  0  0  0  0  0  0  0
   -5.0788   -1.4396   -0.8437 C   0  0  0  0  0  0  0  0  0  0  0  0
   -4.4057   -2.6330   -0.8013 C   0  0  0  0  0  0  0  0  0  0  0  0
   -3.0519   -2.6344   -0.6215 C   0  0  0  0  0  0  0  0  0  0  0  0
   -2.1759   -3.6761   -0.5544 N   0  0  0  0  0  0  0  0  0  0  0  0
   -0.9859   -3.1781   -0.3830 N   0  0  0  0  0  0  0  0  0  0  0  0
   -1.0417   -1.7966   -0.3347 C   0  0  0  0  0  0  0  0  0  0  0  0
    0.1332   -0.9532   -0.1891 C   0  0  0  0  0  0  0  0  0  0  0  0
    1.3880   -1.5170   -0.0959 N   0  0  0  0  0  0  0  0  0  0  0  0
    2.3336   -0.5888    0.0219 C   0  0  0  0  0  0  0  0  0  0  0  0
    3.7240   -0.6858    0.1327 C   0  0  0  0  0  0  0  0  0  0  0  0
    4.4707    0.4863    0.2267 C   0  0  0  0  0  0  0  0  0  0  0  0
    3.8603    1.6866    0.2099 C   0  0  0  0  0  0  0  0  0  0  0  0
    2.4728    1.7469    0.1004 C   0  0  0  0  0  0  0  0  0  0  0  0
    1.6859    0.6106    0.0049 C   0  0  0  0  0  0  0  0  0  0  0  0
    0.3610    0.3443   -0.1222 N   0  0  0  0  0  0  0  0  0  0  0  0
    5.8766    0.3314    0.3705 N   0  0  0  0  0  0  0  0  0  0  0  0
    6.8798    1.0591   -0.3453 C   0  0  0  0  0  0  0  0  0  0  0  0
    8.0910    1.4362    0.4823 C   0  0  0  0  0  0  0  0  0  0  0  0
    8.5967    0.2955    1.1804 N   0  0  0  0  0  0  0  0  0  0  0  0
    9.1794   -0.7238    0.3715 C   0  0  0  0  0  0  0  0  0  0  0  0
    7.5809   -0.2091    2.0830 C   0  0  0  0  0  0  0  0  0  0  0  0
    6.3458   -0.6599    1.3450 C   0  0  0  0  0  0  0  0  0  0  0  0
   -2.3497   -1.4249   -0.4819 C   0  0  0  0  0  0  0  0  0  0  0  0
   -3.0381   -0.2469   -0.5249 C   0  0  0  0  0  0  0  0  0  0  0  0
   -7.4442    1.1500   -0.4760 C   0  0  0  0  0  0  0  0  0  0  0  0
   -8.2055    0.4445   -1.4000 C   0  0  0  0  0  0  0  0  0  0  0  0
   -7.6858    0.3658   -3.0925 Cl  0  0  0  0  0  0  0  0  0  0  0  0
   -9.3796   -0.2102   -1.0856 C   0  0  0  0  0  0  0  0  0  0  0  0
   -9.8139   -0.1652    0.1841 N   0  0  0  0  0  0  0  0  0  0  0  0
   -9.1123    0.4992    1.0902 C   0  0  0  0  0  0  0  0  0  0  0  0
   -7.9209    1.1679    0.7897 C   0  0  0  0  0  0  0  0  0  0  0  0
   -7.0924    1.9471    2.0758 Cl  0  0  0  0  0  0  0  0  0  0  0  0
   -5.3384    3.7499   -0.9212 H   0  0  0  0  0  0  0  0  0  0  0  0
   -6.7596    3.5737    0.0855 H   0  0  0  0  0  0  0  0  0  0  0  0
   -5.0941    2.8961    0.6077 H   0  0  0  0  0  0  0  0  0  0  0  0
   -6.3107    1.9308   -1.9919 H   0  0  0  0  0  0  0  0  0  0  0  0
   -6.1717   -1.5032   -0.9855 H   0  0  0  0  0  0  0  0  0  0  0  0
   -4.9700   -3.5689   -0.9155 H   0  0  0  0  0  0  0  0  0  0  0  0
   -2.4668   -4.6655   -0.6304 H   0  0  0  0  0  0  0  0  0  0  0  0
    4.1597   -1.6732    0.1414 H   0  0  0  0  0  0  0  0  0  0  0  0
    4.4063    2.6128    0.2774 H   0  0  0  0  0  0  0  0  0  0  0  0
    1.9687    2.6935    0.0810 H   0  0  0  0  0  0  0  0  0  0  0  0
   -0.3452    1.0876   -0.1575 H   0  0  0  0  0  0  0  0  0  0  0  0
    7.2824    0.3425   -1.1302 H   0  0  0  0  0  0  0  0  0  0  0  0
    6.5348    1.9754   -0.8200 H   0  0  0  0  0  0  0  0  0  0  0  0
    8.8771    1.7836   -0.2547 H   0  0  0  0  0  0  0  0  0  0  0  0
    7.8490    2.2094    1.2299 H   0  0  0  0  0  0  0  0  0  0  0  0
    8.4452   -1.4100   -0.0566 H   0  0  0  0  0  0  0  0  0  0  0  0
    9.9822   -1.2545    0.9385 H   0  0  0  0  0  0  0  0  0  0  0  0
    9.6944   -0.2330   -0.4738 H   0  0  0  0  0  0  0  0  0  0  0  0
    7.9532   -1.0454    2.6840 H   0  0  0  0  0  0  0  0  0  0  0  0
    7.3313    0.6346    2.7638 H   0  0  0  0  0  0  0  0  0  0  0  0
    6.5997   -1.5689    0.7745 H   0  0  0  0  0  0  0  0  0  0  0  0
    5.5725   -0.8193    2.1311 H   0  0  0  0  0  0  0  0  0  0  0  0
   -2.4959    0.6687   -0.4181 H   0  0  0  0  0  0  0  0  0  0  0  0
   -9.9680   -0.7549   -1.8081 H   0  0  0  0  0  0  0  0  0  0  0  0
   -9.4705    0.5279    2.1145 H   0  0  0  0  0  0  0  0  0  0  0  0
  1  2  1  0
  2  3  1  0
  3  4  1  0
  4  5  2  0
  5  6  1  0
  6  7  2  0
  7  8  1  0
  8  9  1  0
  9 10  2  0
 10 11  1  0
 11 12  2  0
 12 13  1  0
 13 14  2  0
 14 15  1  0
 15 16  2  0
 16 17  1  0
 17 18  2  0
 18 19  1  0
 15 20  1  0
 20 21  1  0
 21 22  1  0
 22 23  1  0
 23 24  1  0
 23 25  1  0
 25 26  1  0
 10 27  1  0
 27 28  2  0
  2 29  1  0
 29 30  2  0
 30 31  1  0
 30 32  1  0
 32 33  2  0
 33 34  1  0
 34 35  2  0
 35 36  1  0
 28  4  1  0
 35 29  1  0
 27  7  1  0
 19 11  1  0
 26 20  1  0
 18 13  1  0
  1 37  1  0
  1 38  1  0
  1 39  1  0
  2 40  1  6
  5 41  1  0
  6 42  1  0
  8 43  1  0
 14 44  1  0
 16 45  1  0
 17 46  1  0
 19 47  1  0
 21 48  1  0
 21 49  1  0
 22 50  1  0
 22 51  1  0
 24 52  1  0
 24 53  1  0
 24 54  1  0
 25 55  1  0
 25 56  1  0
 26 57  1  0
 26 58  1  0
 28 59  1  0
 32 60  1  0
 34 61  1  0
M  END
$$$$
[H]c1c(OC([H])([H])[H])c([H])c(C([H])([H])C([H])([H])c2c([H])c(-c3nc4c([H])c([H])c(-c5nn(C([H])([H])C([H])([H])N6C([H])([H])C([H])([H])OC([H])([H])C6([H])[H])c([H])c5[H])c([H])c4n3[H])nn2[H])c([H])c1OC([H])([H])[H]
     RDKit          3D

 72 77  0  0  0  0  0  0  0  0999 V2000
   10.1472    4.2769    1.2637 C   0  0  0  0  0  0  0  0  0  0  0  0
    8.9341    3.5124    1.2082 O   0  0  0  0  0  0  0  0  0  0  0  0
    9.0429    2.1447    1.0834 C   0  0  0  0  0  0  0  0  0  0  0  0
    7.8667    1.4067    1.0298 C   0  0  0  0  0  0  0  0  0  0  0  0
    7.8614    0.0345    0.9060 C   0  0  0  0  0  0  0  0  0  0  0  0
    6.5981   -0.7432    0.8511 C   0  0  0  0  0  0  0  0  0  0  0  0
    6.1800   -0.8507   -0.6024 C   0  0  0  0  0  0  0  0  0  0  0  0
    4.9301   -1.6131   -0.7806 C   0  0  0  0  0  0  0  0  0  0  0  0
    3.6394   -1.1093   -0.7806 C   0  0  0  0  0  0  0  0  0  0  0  0
    2.7433   -2.1374   -0.9779 C   0  0  0  0  0  0  0  0  0  0  0  0
    3.4985   -3.2448   -1.0941 N   0  0  0  0  0  0  0  0  0  0  0  0
    4.7940   -2.9322   -0.9771 N   0  0  0  0  0  0  0  0  0  0  0  0
    1.2828   -2.0319   -1.0450 C   0  0  0  0  0  0  0  0  0  0  0  0
    0.3920   -3.0206   -1.2377 N   0  0  0  0  0  0  0  0  0  0  0  0
   -0.8478   -2.4926   -1.2320 C   0  0  0  0  0  0  0  0  0  0  0  0
   -2.1223   -3.0088   -1.3787 C   0  0  0  0  0  0  0  0  0  0  0  0
   -3.2186   -2.1754   -1.3210 C   0  0  0  0  0  0  0  0  0  0  0  0
   -3.1002   -0.8009   -1.1165 C   0  0  0  0  0  0  0  0  0  0  0  0
   -1.8238   -0.3034   -0.9724 C   0  0  0  0  0  0  0  0  0  0  0  0
   -0.7210   -1.1378   -1.0299 C   0  0  0  0  0  0  0  0  0  0  0  0
    0.5860   -0.8898   -0.9201 N   0  0  0  0  0  0  0  0  0  0  0  0
   -4.2751    0.0544   -1.0600 C   0  0  0  0  0  0  0  0  0  0  0  0
   -4.2990    1.4124   -0.8621 C   0  0  0  0  0  0  0  0  0  0  0  0
   -5.6320    1.7893   -0.8837 C   0  0  0  0  0  0  0  0  0  0  0  0
   -6.3888    0.6914   -1.0885 N   0  0  0  0  0  0  0  0  0  0  0  0
   -7.8313    0.6323   -1.1793 C   0  0  0  0  0  0  0  0  0  0  0  0
   -8.4449    0.3948    0.1934 C   0  0  0  0  0  0  0  0  0  0  0  0
   -9.8863    0.3386    0.0961 N   0  0  0  0  0  0  0  0  0  0  0  0
  -10.4374    1.5999   -0.2390 C   0  0  0  0  0  0  0  0  0  0  0  0
  -11.8578    1.7763    0.2310 C   0  0  0  0  0  0  0  0  0  0  0  0
  -11.8297    1.5576    1.6261 O   0  0  0  0  0  0  0  0  0  0  0  0
  -11.6056    0.2262    1.8797 C   0  0  0  0  0  0  0  0  0  0  0  0
  -10.4375   -0.3766    1.1821 C   0  0  0  0  0  0  0  0  0  0  0  0
   -5.5487   -0.3228   -1.1890 N   0  0  0  0  0  0  0  0  0  0  0  0
    9.1024   -0.6051    0.8344 C   0  0  0  0  0  0  0  0  0  0  0  0
   10.2796    0.1057    0.8854 C   0  0  0  0  0  0  0  0  0  0  0  0
   11.5004   -0.5362    0.8141 O   0  0  0  0  0  0  0  0  0  0  0  0
   11.5358   -1.9647    0.6858 C   0  0  0  0  0  0  0  0  0  0  0  0
   10.2494    1.4735    1.0093 C   0  0  0  0  0  0  0  0  0  0  0  0
   10.6904    3.9243    2.1671 H   0  0  0  0  0  0  0  0  0  0  0  0
   10.7108    4.1129    0.3225 H   0  0  0  0  0  0  0  0  0  0  0  0
    9.8316    5.3283    1.3926 H   0  0  0  0  0  0  0  0  0  0  0  0
    6.9116    1.9234    1.0871 H   0  0  0  0  0  0  0  0  0  0  0  0
    6.7721   -1.7343    1.3048 H   0  0  0  0  0  0  0  0  0  0  0  0
    5.7783   -0.2692    1.4290 H   0  0  0  0  0  0  0  0  0  0  0  0
    6.9707   -1.3686   -1.1849 H   0  0  0  0  0  0  0  0  0  0  0  0
    6.1086    0.1698   -1.0391 H   0  0  0  0  0  0  0  0  0  0  0  0
    3.4084   -0.0495   -0.6418 H   0  0  0  0  0  0  0  0  0  0  0  0
    5.6136   -3.5883   -1.0251 H   0  0  0  0  0  0  0  0  0  0  0  0
   -2.2131   -4.0789   -1.5381 H   0  0  0  0  0  0  0  0  0  0  0  0
   -4.2169   -2.5844   -1.4369 H   0  0  0  0  0  0  0  0  0  0  0  0
   -1.6786    0.7513   -0.8126 H   0  0  0  0  0  0  0  0  0  0  0  0
    1.0057    0.0452   -0.7619 H   0  0  0  0  0  0  0  0  0  0  0  0
   -3.4953    2.1056   -0.7141 H   0  0  0  0  0  0  0  0  0  0  0  0
   -6.0501    2.7837   -0.7619 H   0  0  0  0  0  0  0  0  0  0  0  0
   -8.2225    1.6126   -1.5551 H   0  0  0  0  0  0  0  0  0  0  0  0
   -8.1664   -0.1443   -1.9036 H   0  0  0  0  0  0  0  0  0  0  0  0
   -8.0208   -0.5451    0.5974 H   0  0  0  0  0  0  0  0  0  0  0  0
   -8.1122    1.2290    0.8533 H   0  0  0  0  0  0  0  0  0  0  0  0
  -10.3623    1.8234   -1.3458 H   0  0  0  0  0  0  0  0  0  0  0  0
   -9.8531    2.4434    0.2340 H   0  0  0  0  0  0  0  0  0  0  0  0
  -12.1828    2.8217    0.0724 H   0  0  0  0  0  0  0  0  0  0  0  0
  -12.5363    1.0323   -0.2551 H   0  0  0  0  0  0  0  0  0  0  0  0
  -11.5825    0.0685    2.9896 H   0  0  0  0  0  0  0  0  0  0  0  0
  -12.5195   -0.3444    1.5414 H   0  0  0  0  0  0  0  0  0  0  0  0
  -10.6600   -1.4533    0.9166 H   0  0  0  0  0  0  0  0  0  0  0  0
   -9.6270   -0.4838    1.9678 H   0  0  0  0  0  0  0  0  0  0  0  0
    9.0964   -1.6676    0.7386 H   0  0  0  0  0  0  0  0  0  0  0  0
   11.0656   -2.2515   -0.2794 H   0  0  0  0  0  0  0  0  0  0  0  0
   10.9447   -2.4479    1.4870 H   0  0  0  0  0  0  0  0  0  0  0  0
   12.5674   -2.3321    0.6593 H   0  0  0  0  0  0  0  0  0  0  0  0
   11.1671    2.0375    1.0495 H   0  0  0  0  0  0  0  0  0  0  0  0
  1  2  1  0
  2  3  1  0
  3  4  2  0
  4  5  1  0
  5  6  1  0
  6  7  1  0
  7  8  1  0
  8  9  2  0
  9 10  1  0
 10 11  2  0
 11 12  1  0
 10 13  1  0
 13 14  2  0
 14 15  1  0
 15 16  2  0
 16 17  1  0
 17 18  2  0
 18 19  1  0
 19 20  2  0
 20 21  1  0
 18 22  1  0
 22 23  1  0
 23 24  2  0
 24 25  1  0
 25 26  1  0
 26 27  1  0
 27 28  1  0
 28 29  1  0
 29 30  1  0
 30 31  1  0
 31 32  1  0
 32 33  1  0
 25 34  1  0
  5 35  2  0
 35 36  1  0
 36 37  1  0
 37 38  1  0
 36 39  2  0
 39  3  1  0
 12  8  1  0
 21 13  1  0
 34 22  2  0
 20 15  1  0
 33 28  1  0
  1 40  1  0
  1 41  1  0
  1 42  1  0
  4 43  1  0
  6 44  1  0
  6 45  1  0
  7 46  1  0
  7 47  1  0
  9 48  1  0
 12 49  1  0
 16 50  1  0
 17 51  1  0
 19 52  1  0
 21 53  1  0
 23 54  1  0
 24 55  1  0
 26 56  1  0
 26 57  1  0
 27 58  1  0
 27 59  1  0
 29 60  1  0
 29 61  1  0
 30 62  1  0
 30 63  1  0
 32 64  1  0
 32 65  1  0
 33 66  1  0
 33 67  1  0
 35 68  1  0
 38 69  1  0
 38 70  1  0
 38 71  1  0
 39 72  1  0
M  END
$$$$
[H]c1nn(-c2c([H])c([H])c3c(nc(C4([H])C([H])([H])C4([H])[H])n3[H])c2[H])c(N([H])[H])c1C(=O)c1c([H])c2c([H])c([H])c(-c3c([H])nn(C([H])([H])C([H])([H])[H])c3[H])c([H])c2n1[H]
     RDKit          3D

 60 66  0  0  0  0  0  0  0  0999 V2000
   11.6738   -0.8548    0.3574 C   0  0  0  0  0  0  0  0  0  0  0  0
   10.7654   -1.6870   -0.5223 C   0  0  0  0  0  0  0  0  0  0  0  0
    9.5102   -0.9942   -0.7445 N   0  0  0  0  0  0  0  0  0  0  0  0
    8.3593   -1.0258   -0.0458 C   0  0  0  0  0  0  0  0  0  0  0  0
    7.4254   -0.1945   -0.6389 C   0  0  0  0  0  0  0  0  0  0  0  0
    8.0783    0.3339   -1.7266 C   0  0  0  0  0  0  0  0  0  0  0  0
    9.3220   -0.1564   -1.7717 N   0  0  0  0  0  0  0  0  0  0  0  0
    6.0469    0.0618   -0.2012 C   0  0  0  0  0  0  0  0  0  0  0  0
    5.7137    0.0325    1.1369 C   0  0  0  0  0  0  0  0  0  0  0  0
    4.4291    0.2698    1.5839 C   0  0  0  0  0  0  0  0  0  0  0  0
    3.4169    0.5494    0.6910 C   0  0  0  0  0  0  0  0  0  0  0  0
    2.0745    0.8213    0.8595 C   0  0  0  0  0  0  0  0  0  0  0  0
    1.5713    1.0220   -0.4077 C   0  0  0  0  0  0  0  0  0  0  0  0
    2.5951    0.8710   -1.2912 N   0  0  0  0  0  0  0  0  0  0  0  0
    3.7365    0.5814   -0.6468 C   0  0  0  0  0  0  0  0  0  0  0  0
    5.0389    0.3406   -1.0975 C   0  0  0  0  0  0  0  0  0  0  0  0
    0.1888    1.3335   -0.7416 C   0  0  0  0  0  0  0  0  0  0  0  0
    0.0426    2.1263   -1.7351 O   0  0  0  0  0  0  0  0  0  0  0  0
   -0.9864    0.8514   -0.0846 C   0  0  0  0  0  0  0  0  0  0  0  0
   -1.0898   -0.0303    0.9722 C   0  0  0  0  0  0  0  0  0  0  0  0
   -2.3966   -0.1749    1.2157 N   0  0  0  0  0  0  0  0  0  0  0  0
   -3.1202    0.5553    0.3847 N   0  0  0  0  0  0  0  0  0  0  0  0
   -2.2862    1.2038   -0.4344 C   0  0  0  0  0  0  0  0  0  0  0  0
   -2.7038    2.0975   -1.4767 N   0  0  0  0  0  0  0  0  0  0  0  0
   -4.5342    0.5915    0.4233 C   0  0  0  0  0  0  0  0  0  0  0  0
   -5.2276    1.7553    0.6578 C   0  0  0  0  0  0  0  0  0  0  0  0
   -6.6289    1.7470    0.6869 C   0  0  0  0  0  0  0  0  0  0  0  0
   -7.3170    0.5726    0.4810 C   0  0  0  0  0  0  0  0  0  0  0  0
   -8.6116    0.2136    0.4426 N   0  0  0  0  0  0  0  0  0  0  0  0
   -8.7376   -1.1033    0.1977 C   0  0  0  0  0  0  0  0  0  0  0  0
   -7.5129   -1.6035    0.0759 N   0  0  0  0  0  0  0  0  0  0  0  0
   -6.6246   -0.6054    0.2439 C   0  0  0  0  0  0  0  0  0  0  0  0
   -5.2411   -0.5624    0.2216 C   0  0  0  0  0  0  0  0  0  0  0  0
  -10.0021   -1.8900    0.0838 C   0  0  0  0  0  0  0  0  0  0  0  0
  -11.2577   -1.2257   -0.3642 C   0  0  0  0  0  0  0  0  0  0  0  0
  -11.0925   -1.6262    1.0642 C   0  0  0  0  0  0  0  0  0  0  0  0
   12.7177   -0.8350    0.0146 H   0  0  0  0  0  0  0  0  0  0  0  0
   11.3122    0.2093    0.3539 H   0  0  0  0  0  0  0  0  0  0  0  0
   11.5948   -1.1798    1.4341 H   0  0  0  0  0  0  0  0  0  0  0  0
   11.2507   -1.9126   -1.4948 H   0  0  0  0  0  0  0  0  0  0  0  0
   10.5549   -2.6361    0.0088 H   0  0  0  0  0  0  0  0  0  0  0  0
    8.2149   -1.6242    0.8456 H   0  0  0  0  0  0  0  0  0  0  0  0
    7.6716    1.0293   -2.4360 H   0  0  0  0  0  0  0  0  0  0  0  0
    6.4911   -0.1857    1.8686 H   0  0  0  0  0  0  0  0  0  0  0  0
    4.1463    0.2512    2.6327 H   0  0  0  0  0  0  0  0  0  0  0  0
    1.5332    0.8710    1.8217 H   0  0  0  0  0  0  0  0  0  0  0  0
    2.5007    0.9685   -2.3247 H   0  0  0  0  0  0  0  0  0  0  0  0
    5.2463    0.3755   -2.1565 H   0  0  0  0  0  0  0  0  0  0  0  0
   -0.3254   -0.5292    1.5181 H   0  0  0  0  0  0  0  0  0  0  0  0
   -3.3014    1.7374   -2.2426 H   0  0  0  0  0  0  0  0  0  0  0  0
   -2.4346    3.1041   -1.5060 H   0  0  0  0  0  0  0  0  0  0  0  0
   -4.6773    2.6723    0.8180 H   0  0  0  0  0  0  0  0  0  0  0  0
   -7.1821    2.6527    0.8692 H   0  0  0  0  0  0  0  0  0  0  0  0
   -9.3923    0.8743    0.5847 H   0  0  0  0  0  0  0  0  0  0  0  0
   -4.7044   -1.4765    0.0380 H   0  0  0  0  0  0  0  0  0  0  0  0
   -9.8930   -2.9577   -0.1948 H   0  0  0  0  0  0  0  0  0  0  0  0
  -11.2933   -0.1245   -0.5320 H   0  0  0  0  0  0  0  0  0  0  0  0
  -11.9800   -1.7637   -1.0236 H   0  0  0  0  0  0  0  0  0  0  0  0
  -11.7220   -2.4701    1.4118 H   0  0  0  0  0  0  0  0  0  0  0  0
  -10.9464   -0.8325    1.8416 H   0  0  0  0  0  0  0  0  0  0  0  0
  1  2  1  0
  2  3  1  0
  3  4  1  0
  4  5  2  0
  5  6  1  0
  6  7  2  0
  5  8  1  0
  8  9  2  0
  9 10  1  0
 10 11  2  0
 11 12  1  0
 12 13  2  0
 13 14  1  0
 14 15  1  0
 15 16  2  0
 13 17  1  0
 17 18  2  0
 17 19  1  0
 19 20  1  0
 20 21  2  0
 21 22  1  0
 22 23  1  0
 23 24  1  0
 22 25  1  0
 25 26  2  0
 26 27  1  0
 27 28  2  0
 28 29  1  0
 29 30  1  0
 30 31  2  0
 31 32  1  0
 32 33  2  0
 30 34  1  0
 34 35  1  0
 35 36  1  0
  7  3  1  0
 16  8  1  0
 23 19  2  0
 33 25  1  0
 36 34  1  0
 15 11  1  0
 32 28  1  0
  1 37  1  0
  1 38  1  0
  1 39  1  0
  2 40  1  0
  2 41  1  0
  4 42  1  0
  6 43  1  0
  9 44  1  0
 10 45  1  0
 12 46  1  0
 14 47  1  0
 16 48  1  0
 20 49  1  0
 24 50  1  0
 24 51  1  0
 26 52  1  0
 27 53  1  0
 29 54  1  0
 33 55  1  0
 34 56  1  0
 35 57  1  0
 35 58  1  0
 36 59  1  0
 36 60  1  0
M  END
$$$$
[H]c1nc(-c2c(C([H])([H])[H])nn(C([H])([H])C([H])([H])C#N)c2[H])c([H])c2c1C([H])([H])N(c1c(F)c(OC([H])([H])[H])c([H])c(OC([H])([H])[H])c1F)C(=O)C21C([H])([H])C1([H])[H]
     RDKit          3D

 58 62  0  0  0  0  0  0  0  0999 V2000
   -7.9763   -1.4930    0.6566 C   0  0  0  0  0  0  0  0  0  0  0  0
   -6.5948   -1.6265    0.5533 O   0  0  0  0  0  0  0  0  0  0  0  0
   -5.7145   -0.5956    0.2544 C   0  0  0  0  0  0  0  0  0  0  0  0
   -6.1643    0.7067    0.0249 C   0  0  0  0  0  0  0  0  0  0  0  0
   -5.2883    1.7283   -0.2719 C   0  0  0  0  0  0  0  0  0  0  0  0
   -5.6977    3.0173   -0.5019 O   0  0  0  0  0  0  0  0  0  0  0  0
   -6.9975    3.5140   -0.4817 C   0  0  0  0  0  0  0  0  0  0  0  0
   -3.9121    1.4774   -0.3503 C   0  0  0  0  0  0  0  0  0  0  0  0
   -3.0685    2.4982   -0.6488 F   0  0  0  0  0  0  0  0  0  0  0  0
   -3.4498    0.2054   -0.1276 C   0  0  0  0  0  0  0  0  0  0  0  0
   -2.0486   -0.0981   -0.1916 N   0  0  0  0  0  0  0  0  0  0  0  0
   -1.1820    0.4615    0.8021 C   0  0  0  0  0  0  0  0  0  0  0  0
    0.2475    0.1807    0.5359 C   0  0  0  0  0  0  0  0  0  0  0  0
    1.1610    1.0100    1.1918 C   0  0  0  0  0  0  0  0  0  0  0  0
    2.4489    0.8260    1.0213 N   0  0  0  0  0  0  0  0  0  0  0  0
    2.9694   -0.1537    0.2206 C   0  0  0  0  0  0  0  0  0  0  0  0
    2.0791   -0.9546   -0.4134 C   0  0  0  0  0  0  0  0  0  0  0  0
    0.6885   -0.8226   -0.2840 C   0  0  0  0  0  0  0  0  0  0  0  0
   -0.2585   -1.6847   -0.9763 C   0  0  0  0  0  0  0  0  0  0  0  0
   -0.4751   -3.1212   -0.5546 C   0  0  0  0  0  0  0  0  0  0  0  0
    0.1247   -2.7999   -1.8677 C   0  0  0  0  0  0  0  0  0  0  0  0
   -1.5237   -0.9413   -1.2047 C   0  0  0  0  0  0  0  0  0  0  0  0
   -2.1060   -1.0774   -2.2995 O   0  0  0  0  0  0  0  0  0  0  0  0
    4.4203   -0.2200    0.1340 C   0  0  0  0  0  0  0  0  0  0  0  0
    5.2864    0.7148    0.7159 C   0  0  0  0  0  0  0  0  0  0  0  0
    6.5553    0.3914    0.4870 N   0  0  0  0  0  0  0  0  0  0  0  0
    7.7469    1.1003    0.9162 C   0  0  0  0  0  0  0  0  0  0  0  0
    8.1744    2.1140   -0.1100 C   0  0  0  0  0  0  0  0  0  0  0  0
    7.0981    3.0677   -0.2998 C   0  0  0  0  0  0  0  0  0  0  0  0
    6.2595    3.8216   -0.4481 N   0  0  0  0  0  0  0  0  0  0  0  0
    6.5497   -0.7156   -0.2202 N   0  0  0  0  0  0  0  0  0  0  0  0
    5.2769   -1.1170   -0.4543 C   0  0  0  0  0  0  0  0  0  0  0  0
    4.9090   -2.3241   -1.2073 C   0  0  0  0  0  0  0  0  0  0  0  0
   -4.3587   -0.7887    0.1664 C   0  0  0  0  0  0  0  0  0  0  0  0
   -3.8856   -2.0260    0.3789 F   0  0  0  0  0  0  0  0  0  0  0  0
   -8.3550   -1.3964    1.6960 H   0  0  0  0  0  0  0  0  0  0  0  0
   -8.4196   -0.7394   -0.0298 H   0  0  0  0  0  0  0  0  0  0  0  0
   -8.4149   -2.4720    0.2997 H   0  0  0  0  0  0  0  0  0  0  0  0
   -7.2312    0.9115    0.0845 H   0  0  0  0  0  0  0  0  0  0  0  0
   -7.4391    3.6114   -1.5178 H   0  0  0  0  0  0  0  0  0  0  0  0
   -7.6694    2.8933    0.1247 H   0  0  0  0  0  0  0  0  0  0  0  0
   -6.9762    4.5697   -0.0913 H   0  0  0  0  0  0  0  0  0  0  0  0
   -1.3799    0.0596    1.8221 H   0  0  0  0  0  0  0  0  0  0  0  0
   -1.3400    1.5568    0.8339 H   0  0  0  0  0  0  0  0  0  0  0  0
    0.7977    1.8074    1.8428 H   0  0  0  0  0  0  0  0  0  0  0  0
    2.4334   -1.7306   -1.0560 H   0  0  0  0  0  0  0  0  0  0  0  0
   -1.4958   -3.5591   -0.5904 H   0  0  0  0  0  0  0  0  0  0  0  0
    0.1349   -3.5547    0.2674 H   0  0  0  0  0  0  0  0  0  0  0  0
    1.1967   -3.0410   -1.9660 H   0  0  0  0  0  0  0  0  0  0  0  0
   -0.4911   -2.9580   -2.8021 H   0  0  0  0  0  0  0  0  0  0  0  0
    4.9969    1.5813    1.2738 H   0  0  0  0  0  0  0  0  0  0  0  0
    7.5826    1.6394    1.8743 H   0  0  0  0  0  0  0  0  0  0  0  0
    8.6000    0.4180    1.0994 H   0  0  0  0  0  0  0  0  0  0  0  0
    9.1038    2.6051    0.3056 H   0  0  0  0  0  0  0  0  0  0  0  0
    8.4697    1.5838   -1.0423 H   0  0  0  0  0  0  0  0  0  0  0  0
    5.8392   -2.9059   -1.4516 H   0  0  0  0  0  0  0  0  0  0  0  0
    4.3168   -3.0408   -0.5751 H   0  0  0  0  0  0  0  0  0  0  0  0
    4.4469   -2.1146   -2.1891 H   0  0  0  0  0  0  0  0  0  0  0  0
  1  2  1  0
  2  3  1  0
  3  4  2  0
  4  5  1  0
  5  6  1  0
  6  7  1  0
  5  8  2  0
  8  9  1  0
  8 10  1  0
 10 11  1  0
 11 12  1  0
 12 13  1  0
 13 14  2  0
 14 15  1  0
 15 16  2  0
 16 17  1  0
 17 18  2  0
 18 19  1  0
 19 20  1  0
 20 21  1  0
 19 22  1  0
 22 23  2  0
 16 24  1  0
 24 25  2  0
 25 26  1  0
 26 27  1  0
 27 28  1  0
 28 29  1  0
 29 30  3  0
 26 31  1  0
 31 32  2  0
 32 33  1  0
 10 34  2  0
 34 35  1  0
 34  3  1  0
 22 11  1  0
 32 24  1  0
 18 13  1  0
 21 19  1  0
  1 36  1  0
  1 37  1  0
  1 38  1  0
  4 39  1  0
  7 40  1  0
  7 41  1  0
  7 42  1  0
 12 43  1  0
 12 44  1  0
 14 45  1  0
 17 46  1  0
 20 47  1  0
 20 48  1  0
 21 49  1  0
 21 50  1  0
 25 51  1  0
 27 52  1  0
 27 53  1  0
 28 54  1  0
 28 55  1  0
 33 56  1  0
 33 57  1  0
 33 58  1  0
M  END
$$$$
[H]c1c([H])c(Cl)c(-c2c([H])c3c([H])nc(N([H])c4c([H])c([H])c([H])c(SC([H])([H])[H])c4[H])nc3n(C([H])([H])[H])c2=O)c(Cl)c1[H]
     RDKit          3D

 45 48  0  0  0  0  0  0  0  0999 V2000
    8.5893    1.0036    0.0302 C   0  0  0  0  0  0  0  0  0  0  0  0
    7.5166    0.4546    1.3981 S   0  0  0  0  0  0  0  0  0  0  0  0
    6.0294   -0.2960    0.7331 C   0  0  0  0  0  0  0  0  0  0  0  0
    5.9684   -1.6474    0.4633 C   0  0  0  0  0  0  0  0  0  0  0  0
    4.8390   -2.2423   -0.0468 C   0  0  0  0  0  0  0  0  0  0  0  0
    3.6863   -1.4906   -0.3179 C   0  0  0  0  0  0  0  0  0  0  0  0
    3.7260   -0.1536   -0.0571 C   0  0  0  0  0  0  0  0  0  0  0  0
    2.6220    0.6819   -0.2630 N   0  0  0  0  0  0  0  0  0  0  0  0
    1.2883    0.2653   -0.1215 C   0  0  0  0  0  0  0  0  0  0  0  0
    0.9672   -0.9583    0.2433 N   0  0  0  0  0  0  0  0  0  0  0  0
   -0.2977   -1.3741    0.3835 C   0  0  0  0  0  0  0  0  0  0  0  0
   -1.3228   -0.4587    0.1285 C   0  0  0  0  0  0  0  0  0  0  0  0
   -2.6339   -0.8262    0.2551 C   0  0  0  0  0  0  0  0  0  0  0  0
   -3.6196    0.0835    0.0011 C   0  0  0  0  0  0  0  0  0  0  0  0
   -5.0111   -0.3402    0.1454 C   0  0  0  0  0  0  0  0  0  0  0  0
   -5.6365   -0.1961    1.3648 C   0  0  0  0  0  0  0  0  0  0  0  0
   -4.8064    0.4849    2.7574 Cl  0  0  0  0  0  0  0  0  0  0  0  0
   -6.9569   -0.6103    1.4596 C   0  0  0  0  0  0  0  0  0  0  0  0
   -7.6225   -1.1474    0.3740 C   0  0  0  0  0  0  0  0  0  0  0  0
   -6.9934   -1.2889   -0.8412 C   0  0  0  0  0  0  0  0  0  0  0  0
   -5.6886   -0.8841   -0.9501 C   0  0  0  0  0  0  0  0  0  0  0  0
   -4.8256   -1.0358   -2.4706 Cl  0  0  0  0  0  0  0  0  0  0  0  0
   -3.2848    1.3621   -0.3800 C   0  0  0  0  0  0  0  0  0  0  0  0
   -4.1716    2.2194   -0.6199 O   0  0  0  0  0  0  0  0  0  0  0  0
   -2.0120    1.7376   -0.5084 N   0  0  0  0  0  0  0  0  0  0  0  0
   -1.6244    3.0790   -0.9088 C   0  0  0  0  0  0  0  0  0  0  0  0
   -1.0191    0.8328   -0.2560 C   0  0  0  0  0  0  0  0  0  0  0  0
    0.2705    1.1649   -0.3719 N   0  0  0  0  0  0  0  0  0  0  0  0
    4.8997    0.4273    0.4656 C   0  0  0  0  0  0  0  0  0  0  0  0
    9.0119    0.1211   -0.5106 H   0  0  0  0  0  0  0  0  0  0  0  0
    9.4410    1.5366    0.4946 H   0  0  0  0  0  0  0  0  0  0  0  0
    8.0229    1.6111   -0.6839 H   0  0  0  0  0  0  0  0  0  0  0  0
    6.8383   -2.2531    0.6607 H   0  0  0  0  0  0  0  0  0  0  0  0
    4.8014   -3.3210   -0.2582 H   0  0  0  0  0  0  0  0  0  0  0  0
    2.8507   -2.0354   -0.7391 H   0  0  0  0  0  0  0  0  0  0  0  0
    2.8144    1.7021   -0.5464 H   0  0  0  0  0  0  0  0  0  0  0  0
   -0.5394   -2.3721    0.6807 H   0  0  0  0  0  0  0  0  0  0  0  0
   -2.8458   -1.8529    0.5603 H   0  0  0  0  0  0  0  0  0  0  0  0
   -7.4938   -0.5174    2.4001 H   0  0  0  0  0  0  0  0  0  0  0  0
   -8.6668   -1.4795    0.4329 H   0  0  0  0  0  0  0  0  0  0  0  0
   -7.5356   -1.7138   -1.6818 H   0  0  0  0  0  0  0  0  0  0  0  0
   -1.0314    3.5133   -0.0734 H   0  0  0  0  0  0  0  0  0  0  0  0
   -2.5134    3.6713   -1.1555 H   0  0  0  0  0  0  0  0  0  0  0  0
   -0.9431    3.0549   -1.7849 H   0  0  0  0  0  0  0  0  0  0  0  0
    4.9127    1.4877    0.6650 H   0  0  0  0  0  0  0  0  0  0  0  0
  1  2  1  0
  2  3  1  0
  3  4  2  0
  4  5  1  0
  5  6  2  0
  6  7  1  0
  7  8  1  0
  8  9  1  0
  9 10  2  0
 10 11  1  0
 11 12  2  0
 12 13  1  0
 13 14  2  0
 14 15  1  0
 15 16  2  0
 16 17  1  0
 16 18  1  0
 18 19  2  0
 19 20  1  0
 20 21  2  0
 21 22  1  0
 14 23  1  0
 23 24  2  0
 23 25  1  0
 25 26  1  0
 25 27  1  0
 27 28  2  0
  7 29  2  0
 29  3  1  0
 28  9  1  0
 27 12  1  0
 21 15  1  0
  1 30  1  0
  1 31  1  0
  1 32  1  0
  4 33  1  0
  5 34  1  0
  6 35  1  0
  8 36  1  0
 11 37  1  0
 13 38  1  0
 18 39  1  0
 19 40  1  0
 20 41  1  0
 26 42  1  0
 26 43  1  0
 26 44  1  0
 29 45  1  0
M  END
$$$$
[H]c1nc(N([H])[H])c(-c2nn(-c3c(Cl)c(OC([H])([H])[H])c([H])c(OC([H])([H])[H])c3Cl)c(=O)c([H])c2[H])c([H])c1-c1c([H])nn(C([H])([H])[H])c1[H]
     RDKit          3D

 50 53  0  0  0  0  0  0  0  0999 V2000
   -6.6495   -2.5800    0.9494 C   0  0  0  0  0  0  0  0  0  0  0  0
   -5.3277   -2.2150    1.2463 O   0  0  0  0  0  0  0  0  0  0  0  0
   -4.7789   -1.0531    0.7729 C   0  0  0  0  0  0  0  0  0  0  0  0
   -5.5460   -0.2203   -0.0148 C   0  0  0  0  0  0  0  0  0  0  0  0
   -5.0015    0.9484   -0.4937 C   0  0  0  0  0  0  0  0  0  0  0  0
   -5.8012    1.7589   -1.2808 O   0  0  0  0  0  0  0  0  0  0  0  0
   -7.1189    1.4771   -1.6240 C   0  0  0  0  0  0  0  0  0  0  0  0
   -3.7117    1.2570   -0.1770 C   0  0  0  0  0  0  0  0  0  0  0  0
   -3.0016    2.7393   -0.7771 Cl  0  0  0  0  0  0  0  0  0  0  0  0
   -2.9102    0.4479    0.6102 C   0  0  0  0  0  0  0  0  0  0  0  0
   -3.4556   -0.7203    1.0883 C   0  0  0  0  0  0  0  0  0  0  0  0
   -2.5652   -1.8420    2.0946 Cl  0  0  0  0  0  0  0  0  0  0  0  0
   -1.5529    0.7812    0.9398 N   0  0  0  0  0  0  0  0  0  0  0  0
   -0.5361    0.2901    0.2660 N   0  0  0  0  0  0  0  0  0  0  0  0
    0.7505    0.5965    0.5637 C   0  0  0  0  0  0  0  0  0  0  0  0
    0.9572    1.4546    1.6144 C   0  0  0  0  0  0  0  0  0  0  0  0
   -0.0893    1.9924    2.3482 C   0  0  0  0  0  0  0  0  0  0  0  0
   -1.3546    1.6228    1.9707 C   0  0  0  0  0  0  0  0  0  0  0  0
   -2.3294    2.0883    2.6103 O   0  0  0  0  0  0  0  0  0  0  0  0
    1.8446    0.0280   -0.2106 C   0  0  0  0  0  0  0  0  0  0  0  0
    3.1595    0.3042    0.0387 C   0  0  0  0  0  0  0  0  0  0  0  0
    4.1809   -0.2744   -0.7421 C   0  0  0  0  0  0  0  0  0  0  0  0
    3.8517   -1.1279   -1.7681 C   0  0  0  0  0  0  0  0  0  0  0  0
    2.5546   -1.3891   -2.0002 N   0  0  0  0  0  0  0  0  0  0  0  0
    1.5551   -0.8357   -1.2519 C   0  0  0  0  0  0  0  0  0  0  0  0
    0.1914   -1.1271   -1.5167 N   0  0  0  0  0  0  0  0  0  0  0  0
    5.5749    0.0321   -0.4638 C   0  0  0  0  0  0  0  0  0  0  0  0
    6.0811    1.2173    0.0305 C   0  0  0  0  0  0  0  0  0  0  0  0
    7.4084    1.0680    0.1345 N   0  0  0  0  0  0  0  0  0  0  0  0
    7.7684   -0.1419   -0.2655 N   0  0  0  0  0  0  0  0  0  0  0  0
    9.1274   -0.6800   -0.3001 C   0  0  0  0  0  0  0  0  0  0  0  0
    6.6640   -0.8030   -0.6394 C   0  0  0  0  0  0  0  0  0  0  0  0
   -6.9184   -2.4769   -0.1211 H   0  0  0  0  0  0  0  0  0  0  0  0
   -7.3748   -2.0442    1.5812 H   0  0  0  0  0  0  0  0  0  0  0  0
   -6.7220   -3.6883    1.1494 H   0  0  0  0  0  0  0  0  0  0  0  0
   -6.5810   -0.4771   -0.2634 H   0  0  0  0  0  0  0  0  0  0  0  0
   -7.5821    2.4356   -1.9677 H   0  0  0  0  0  0  0  0  0  0  0  0
   -7.1351    0.7382   -2.4524 H   0  0  0  0  0  0  0  0  0  0  0  0
   -7.7230    1.1263   -0.7844 H   0  0  0  0  0  0  0  0  0  0  0  0
    1.9561    1.7322    1.8950 H   0  0  0  0  0  0  0  0  0  0  0  0
    0.0879    2.6742    3.1821 H   0  0  0  0  0  0  0  0  0  0  0  0
    3.4361    0.9667    0.8337 H   0  0  0  0  0  0  0  0  0  0  0  0
    4.6502   -1.5730   -2.3698 H   0  0  0  0  0  0  0  0  0  0  0  0
   -0.2637   -1.9331   -1.0376 H   0  0  0  0  0  0  0  0  0  0  0  0
   -0.3955   -0.5747   -2.1734 H   0  0  0  0  0  0  0  0  0  0  0  0
    5.5546    2.1172    0.2970 H   0  0  0  0  0  0  0  0  0  0  0  0
    9.6590   -0.3171   -1.2142 H   0  0  0  0  0  0  0  0  0  0  0  0
    9.6813   -0.2130    0.5532 H   0  0  0  0  0  0  0  0  0  0  0  0
    9.1308   -1.7750   -0.2289 H   0  0  0  0  0  0  0  0  0  0  0  0
    6.6000   -1.8124   -1.0166 H   0  0  0  0  0  0  0  0  0  0  0  0
  1  2  1  0
  2  3  1  0
  3  4  2  0
  4  5  1  0
  5  6  1  0
  6  7  1  0
  5  8  2  0
  8  9  1  0
  8 10  1  0
 10 11  2  0
 11 12  1  0
 10 13  1  0
 13 14  1  0
 14 15  2  0
 15 16  1  0
 16 17  2  0
 17 18  1  0
 18 19  2  0
 15 20  1  0
 20 21  2  0
 21 22  1  0
 22 23  2  0
 23 24  1  0
 24 25  2  0
 25 26  1  0
 22 27  1  0
 27 28  1  0
 28 29  2  0
 29 30  1  0
 30 31  1  0
 30 32  1  0
 11  3  1  0
 18 13  1  0
 25 20  1  0
 32 27  2  0
  1 33  1  0
  1 34  1  0
  1 35  1  0
  4 36  1  0
  7 37  1  0
  7 38  1  0
  7 39  1  0
 16 40  1  0
 17 41  1  0
 21 42  1  0
 23 43  1  0
 26 44  1  0
 26 45  1  0
 28 46  1  0
 31 47  1  0
 31 48  1  0
 31 49  1  0
 32 50  1  0
M  END
$$$$
[H]c1nc2c([H])c([H])c3c([H])c([H])c(N([H])S(=O)(=O)N(C([H])([H])[H])C([H])([H])[C@@]4([H])OC([H])([H])C([H])([H])OC4([H])[H])c([H])c3c(=O)c2c([H])c1-c1c([H])nn(C([H])([H])[H])c1[H]
     RDKit          3D

 60 64  0  0  0  0  0  0  0  0999 V2000
   -3.6449   -1.1277    0.0340 C   0  0  0  0  0  0  0  0  0  0  0  0
   -3.8206    0.0671    0.7928 N   0  0  0  0  0  0  0  0  0  0  0  0
   -4.9182    0.1045    1.6863 C   0  0  0  0  0  0  0  0  0  0  0  0
   -6.2310   -0.3132    1.0838 C   0  0  2  0  0  0  0  0  0  0  0  0
   -7.3537   -0.2825    2.0998 C   0  0  0  0  0  0  0  0  0  0  0  0
   -8.5413   -0.3951    1.4202 O   0  0  0  0  0  0  0  0  0  0  0  0
   -8.5897   -1.6308    0.8040 C   0  0  0  0  0  0  0  0  0  0  0  0
   -7.3823   -1.9185   -0.0453 C   0  0  0  0  0  0  0  0  0  0  0  0
   -6.1864   -1.6246    0.5996 O   0  0  0  0  0  0  0  0  0  0  0  0
   -3.5358    1.4961   -0.0963 S   0  0  0  0  0  0  0  0  0  0  0  0
   -3.9405    1.2245   -1.5162 O   0  0  0  0  0  0  0  0  0  0  0  0
   -4.3819    2.6448    0.3753 O   0  0  0  0  0  0  0  0  0  0  0  0
   -1.8902    1.9908   -0.0028 N   0  0  0  0  0  0  0  0  0  0  0  0
   -0.8683    1.5818   -0.8990 C   0  0  0  0  0  0  0  0  0  0  0  0
   -1.0204    1.5758   -2.2686 C   0  0  0  0  0  0  0  0  0  0  0  0
    0.0077    1.1710   -3.1093 C   0  0  0  0  0  0  0  0  0  0  0  0
    1.2212    0.7589   -2.6214 C   0  0  0  0  0  0  0  0  0  0  0  0
    2.1022    0.3986   -3.6382 C   0  0  0  0  0  0  0  0  0  0  0  0
    3.4709    0.1534   -3.5323 C   0  0  0  0  0  0  0  0  0  0  0  0
    4.2501    0.1244   -2.3939 C   0  0  0  0  0  0  0  0  0  0  0  0
    5.5596   -0.0181   -2.6270 N   0  0  0  0  0  0  0  0  0  0  0  0
    6.4395   -0.0622   -1.6108 C   0  0  0  0  0  0  0  0  0  0  0  0
    6.0837    0.0323   -0.2820 C   0  0  0  0  0  0  0  0  0  0  0  0
    4.7243    0.1815   -0.0097 C   0  0  0  0  0  0  0  0  0  0  0  0
    3.8516    0.2227   -1.0770 C   0  0  0  0  0  0  0  0  0  0  0  0
    2.5474    0.3754   -0.5952 C   0  0  0  0  0  0  0  0  0  0  0  0
    2.3763    0.1341    0.6211 O   0  0  0  0  0  0  0  0  0  0  0  0
    1.3994    0.7557   -1.2547 C   0  0  0  0  0  0  0  0  0  0  0  0
    0.3789    1.1572   -0.4204 C   0  0  0  0  0  0  0  0  0  0  0  0
    7.0510   -0.0173    0.8027 C   0  0  0  0  0  0  0  0  0  0  0  0
    8.3442    0.4507    0.7212 C   0  0  0  0  0  0  0  0  0  0  0  0
    8.9319    0.2361    1.9111 N   0  0  0  0  0  0  0  0  0  0  0  0
    8.0904   -0.3414    2.7477 N   0  0  0  0  0  0  0  0  0  0  0  0
    8.3807   -0.7255    4.1339 C   0  0  0  0  0  0  0  0  0  0  0  0
    6.9330   -0.5040    2.0848 C   0  0  0  0  0  0  0  0  0  0  0  0
   -3.7585   -2.0378    0.6206 H   0  0  0  0  0  0  0  0  0  0  0  0
   -4.2812   -1.1018   -0.8908 H   0  0  0  0  0  0  0  0  0  0  0  0
   -2.5867   -1.1074   -0.3613 H   0  0  0  0  0  0  0  0  0  0  0  0
   -5.0113    1.1081    2.1079 H   0  0  0  0  0  0  0  0  0  0  0  0
   -4.7135   -0.5852    2.5325 H   0  0  0  0  0  0  0  0  0  0  0  0
   -6.4889    0.3263    0.1911 H   0  0  0  0  0  0  0  0  0  0  0  0
   -7.2918    0.5793    2.7866 H   0  0  0  0  0  0  0  0  0  0  0  0
   -7.2595   -1.2103    2.7367 H   0  0  0  0  0  0  0  0  0  0  0  0
   -9.4775   -1.6145    0.1133 H   0  0  0  0  0  0  0  0  0  0  0  0
   -8.7923   -2.4254    1.5323 H   0  0  0  0  0  0  0  0  0  0  0  0
   -7.4391   -1.4148   -1.0372 H   0  0  0  0  0  0  0  0  0  0  0  0
   -7.3755   -3.0105   -0.2508 H   0  0  0  0  0  0  0  0  0  0  0  0
   -1.5961    2.6455    0.7685 H   0  0  0  0  0  0  0  0  0  0  0  0
   -1.9314    1.8848   -2.7257 H   0  0  0  0  0  0  0  0  0  0  0  0
   -0.1236    1.1700   -4.1878 H   0  0  0  0  0  0  0  0  0  0  0  0
    1.6421    0.3062   -4.6110 H   0  0  0  0  0  0  0  0  0  0  0  0
    3.9873   -0.0382   -4.4572 H   0  0  0  0  0  0  0  0  0  0  0  0
    7.5190   -0.1794   -1.7943 H   0  0  0  0  0  0  0  0  0  0  0  0
    4.3677    0.2619    0.9956 H   0  0  0  0  0  0  0  0  0  0  0  0
    0.5403    1.1468    0.6467 H   0  0  0  0  0  0  0  0  0  0  0  0
    8.7952    0.9075   -0.1497 H   0  0  0  0  0  0  0  0  0  0  0  0
    9.4821   -0.6677    4.2871 H   0  0  0  0  0  0  0  0  0  0  0  0
    7.8315   -0.0793    4.8481 H   0  0  0  0  0  0  0  0  0  0  0  0
    8.0988   -1.7935    4.2125 H   0  0  0  0  0  0  0  0  0  0  0  0
    6.0238   -0.9469    2.4685 H   0  0  0  0  0  0  0  0  0  0  0  0
  1  2  1  0
  2  3  1  0
  3  4  1  0
  4  5  1  0
  5  6  1  0
  6  7  1  0
  7  8  1  0
  8  9  1  0
  2 10  1  0
 10 11  2  0
 10 12  2  0
 10 13  1  0
 13 14  1  0
 14 15  2  0
 15 16  1  0
 16 17  2  0
 17 18  1  0
 18 19  2  0
 19 20  1  0
 20 21  2  0
 21 22  1  0
 22 23  2  0
 23 24  1  0
 24 25  2  0
 25 26  1  0
 26 27  2  0
 26 28  1  0
 28 29  2  0
 23 30  1  0
 30 31  1  0
 31 32  2  0
 32 33  1  0
 33 34  1  0
 33 35  1  0
  9  4  1  0
 29 14  1  0
 35 30  2  0
 28 17  1  0
 25 20  1  0
  1 36  1  0
  1 37  1  0
  1 38  1  0
  3 39  1  0
  3 40  1  0
  4 41  1  6
  5 42  1  0
  5 43  1  0
  7 44  1  0
  7 45  1  0
  8 46  1  0
  8 47  1  0
 13 48  1  0
 15 49  1  0
 16 50  1  0
 18 51  1  0
 19 52  1  0
 22 53  1  0
 24 54  1  0
 29 55  1  0
 31 56  1  0
 34 57  1  0
 34 58  1  0
 34 59  1  0
 35 60  1  0
M  END
$$$$
[H]c1nc(N([H])[H])c(-c2nn(-c3c([H])c(OC([H])([H])[H])c([H])c(OC([H])([H])[H])c3[H])c(=O)c(C3([H])C([H])([H])C3([H])[H])c2[H])nc1-c1c([H])nn(C([H])([H])[H])c1[H]
     RDKit          3D

 56 60  0  0  0  0  0  0  0  0999 V2000
   -6.8286    1.2319   -2.5301 C   0  0  0  0  0  0  0  0  0  0  0  0
   -5.6125    0.5258   -2.3758 O   0  0  0  0  0  0  0  0  0  0  0  0
   -4.8802    0.7114   -1.2185 C   0  0  0  0  0  0  0  0  0  0  0  0
   -5.2509    1.5209   -0.1879 C   0  0  0  0  0  0  0  0  0  0  0  0
   -4.4835    1.6827    0.9725 C   0  0  0  0  0  0  0  0  0  0  0  0
   -4.9447    2.5275    1.9700 O   0  0  0  0  0  0  0  0  0  0  0  0
   -6.1579    3.2319    1.8121 C   0  0  0  0  0  0  0  0  0  0  0  0
   -3.2992    0.9876    1.0619 C   0  0  0  0  0  0  0  0  0  0  0  0
   -2.8920    0.1633    0.0376 C   0  0  0  0  0  0  0  0  0  0  0  0
   -3.6835    0.0285   -1.0917 C   0  0  0  0  0  0  0  0  0  0  0  0
   -1.6339   -0.4850    0.0679 N   0  0  0  0  0  0  0  0  0  0  0  0
   -0.5624    0.2956    0.3860 N   0  0  0  0  0  0  0  0  0  0  0  0
    0.6413   -0.2632    0.3962 C   0  0  0  0  0  0  0  0  0  0  0  0
    0.8218   -1.5725    0.1161 C   0  0  0  0  0  0  0  0  0  0  0  0
   -0.2393   -2.4245   -0.2162 C   0  0  0  0  0  0  0  0  0  0  0  0
    0.0053   -3.7731   -0.6786 C   0  0  0  0  0  0  0  0  0  0  0  0
    0.4024   -4.8296    0.3129 C   0  0  0  0  0  0  0  0  0  0  0  0
   -0.7625   -4.9843   -0.6395 C   0  0  0  0  0  0  0  0  0  0  0  0
   -1.4718   -1.7643   -0.2150 C   0  0  0  0  0  0  0  0  0  0  0  0
   -2.4793   -2.4616   -0.5084 O   0  0  0  0  0  0  0  0  0  0  0  0
    1.8568    0.5895    0.5078 C   0  0  0  0  0  0  0  0  0  0  0  0
    3.0679    0.0125    0.4951 N   0  0  0  0  0  0  0  0  0  0  0  0
    4.1818    0.8010    0.4275 C   0  0  0  0  0  0  0  0  0  0  0  0
    4.0044    2.1550    0.3861 C   0  0  0  0  0  0  0  0  0  0  0  0
    2.7979    2.7529    0.4055 N   0  0  0  0  0  0  0  0  0  0  0  0
    1.6928    1.9441    0.4664 C   0  0  0  0  0  0  0  0  0  0  0  0
    0.3884    2.5110    0.5022 N   0  0  0  0  0  0  0  0  0  0  0  0
    5.4933    0.1703    0.2956 C   0  0  0  0  0  0  0  0  0  0  0  0
    5.8743   -1.1358    0.3510 C   0  0  0  0  0  0  0  0  0  0  0  0
    7.1771   -1.1808    0.0672 N   0  0  0  0  0  0  0  0  0  0  0  0
    7.6771    0.0154   -0.1751 N   0  0  0  0  0  0  0  0  0  0  0  0
    9.0808    0.2852   -0.5303 C   0  0  0  0  0  0  0  0  0  0  0  0
    6.6647    0.8963   -0.0426 C   0  0  0  0  0  0  0  0  0  0  0  0
   -7.5681    0.8194   -1.8062 H   0  0  0  0  0  0  0  0  0  0  0  0
   -7.2174    1.1887   -3.5668 H   0  0  0  0  0  0  0  0  0  0  0  0
   -6.6015    2.2891   -2.2280 H   0  0  0  0  0  0  0  0  0  0  0  0
   -6.1752    2.0453   -0.2748 H   0  0  0  0  0  0  0  0  0  0  0  0
   -6.1315    3.8800    0.9141 H   0  0  0  0  0  0  0  0  0  0  0  0
   -6.3295    3.8745    2.7202 H   0  0  0  0  0  0  0  0  0  0  0  0
   -7.0290    2.5612    1.7043 H   0  0  0  0  0  0  0  0  0  0  0  0
   -2.6856    1.0969    1.9685 H   0  0  0  0  0  0  0  0  0  0  0  0
   -3.3769   -0.6255   -1.9076 H   0  0  0  0  0  0  0  0  0  0  0  0
    1.7979   -2.0478    0.1359 H   0  0  0  0  0  0  0  0  0  0  0  0
    0.8114   -3.7497   -1.5246 H   0  0  0  0  0  0  0  0  0  0  0  0
    1.2498   -5.4792    0.1966 H   0  0  0  0  0  0  0  0  0  0  0  0
    0.1525   -4.6065    1.3921 H   0  0  0  0  0  0  0  0  0  0  0  0
   -0.5805   -5.7785   -1.4342 H   0  0  0  0  0  0  0  0  0  0  0  0
   -1.8144   -5.0585   -0.2710 H   0  0  0  0  0  0  0  0  0  0  0  0
    4.8962    2.7838    0.3239 H   0  0  0  0  0  0  0  0  0  0  0  0
   -0.0856    2.6027    1.4203 H   0  0  0  0  0  0  0  0  0  0  0  0
   -0.1359    2.8574   -0.3370 H   0  0  0  0  0  0  0  0  0  0  0  0
    5.2149   -1.9555    0.5829 H   0  0  0  0  0  0  0  0  0  0  0  0
    9.5068    1.0611    0.1527 H   0  0  0  0  0  0  0  0  0  0  0  0
    9.0750    0.7827   -1.5307 H   0  0  0  0  0  0  0  0  0  0  0  0
    9.6435   -0.6694   -0.5444 H   0  0  0  0  0  0  0  0  0  0  0  0
    6.7377    1.9623   -0.1730 H   0  0  0  0  0  0  0  0  0  0  0  0
  1  2  1  0
  2  3  1  0
  3  4  2  0
  4  5  1  0
  5  6  1  0
  6  7  1  0
  5  8  2  0
  8  9  1  0
  9 10  2  0
  9 11  1  0
 11 12  1  0
 12 13  2  0
 13 14  1  0
 14 15  2  0
 15 16  1  0
 16 17  1  0
 17 18  1  0
 15 19  1  0
 19 20  2  0
 13 21  1  0
 21 22  2  0
 22 23  1  0
 23 24  2  0
 24 25  1  0
 25 26  2  0
 26 27  1  0
 23 28  1  0
 28 29  1  0
 29 30  2  0
 30 31  1  0
 31 32  1  0
 31 33  1  0
 10  3  1  0
 19 11  1  0
 26 21  1  0
 33 28  2  0
 18 16  1  0
  1 34  1  0
  1 35  1  0
  1 36  1  0
  4 37  1  0
  7 38  1  0
  7 39  1  0
  7 40  1  0
  8 41  1  0
 10 42  1  0
 14 43  1  0
 16 44  1  0
 17 45  1  0
 17 46  1  0
 18 47  1  0
 18 48  1  0
 24 49  1  0
 27 50  1  0
 27 51  1  0
 29 52  1  0
 32 53  1  0
 32 54  1  0
 32 55  1  0
 33 56  1  0
M  END
$$$$
[H]c1nc(N([H])c2nn([H])c(C([H])([H])C([H])([H])c3c([H])c(OC([H])([H])[H])c([H])c(OC([H])([H])[H])c3[H])c2[H])c2c([H])c([H])c(N([H])C([H])([H])C([H])([H])N3C([H])([H])C([H])([H])OC([H])([H])C3([H])[H])c([H])c2n1
     RDKit          3D

 70 74  0  0  0  0  0  0  0  0999 V2000
   -9.3657   -2.8138   -1.5320 C   0  0  0  0  0  0  0  0  0  0  0  0
   -9.9297   -1.6040   -1.1212 O   0  0  0  0  0  0  0  0  0  0  0  0
   -9.2072   -0.4871   -0.7125 C   0  0  0  0  0  0  0  0  0  0  0  0
   -7.8419   -0.4357   -0.6611 C   0  0  0  0  0  0  0  0  0  0  0  0
   -7.2137    0.7406   -0.2335 C   0  0  0  0  0  0  0  0  0  0  0  0
   -5.7349    0.7372   -0.2019 C   0  0  0  0  0  0  0  0  0  0  0  0
   -5.2031    0.2407    1.1194 C   0  0  0  0  0  0  0  0  0  0  0  0
   -3.7217    0.2517    1.1171 C   0  0  0  0  0  0  0  0  0  0  0  0
   -2.8309   -0.7298    0.7296 C   0  0  0  0  0  0  0  0  0  0  0  0
   -1.5527   -0.2553    0.9166 C   0  0  0  0  0  0  0  0  0  0  0  0
   -0.3399   -0.9731    0.6223 N   0  0  0  0  0  0  0  0  0  0  0  0
    0.8807   -0.3354    0.8996 C   0  0  0  0  0  0  0  0  0  0  0  0
    0.8894    0.9042    1.4510 N   0  0  0  0  0  0  0  0  0  0  0  0
    2.0263    1.5513    1.7471 C   0  0  0  0  0  0  0  0  0  0  0  0
    3.2211    0.9738    1.4986 N   0  0  0  0  0  0  0  0  0  0  0  0
    3.2927   -0.2461    0.9562 C   0  0  0  0  0  0  0  0  0  0  0  0
    4.5110   -0.8589    0.6863 C   0  0  0  0  0  0  0  0  0  0  0  0
    4.6267   -2.1076    0.1240 C   0  0  0  0  0  0  0  0  0  0  0  0
    5.8463   -2.7274   -0.1618 N   0  0  0  0  0  0  0  0  0  0  0  0
    7.1546   -2.1228   -0.0881 C   0  0  0  0  0  0  0  0  0  0  0  0
    7.3164   -1.0589   -1.1274 C   0  0  0  0  0  0  0  0  0  0  0  0
    8.6384   -0.4411   -1.0551 N   0  0  0  0  0  0  0  0  0  0  0  0
    8.7025    0.5956   -2.0345 C   0  0  0  0  0  0  0  0  0  0  0  0
    9.7936    1.6069   -1.7311 C   0  0  0  0  0  0  0  0  0  0  0  0
   10.6766    1.0826   -0.7858 O   0  0  0  0  0  0  0  0  0  0  0  0
    9.9862    1.0019    0.4209 C   0  0  0  0  0  0  0  0  0  0  0  0
    8.8913   -0.0038    0.2827 C   0  0  0  0  0  0  0  0  0  0  0  0
    3.4433   -2.7470   -0.1692 C   0  0  0  0  0  0  0  0  0  0  0  0
    2.2038   -2.1573    0.0910 C   0  0  0  0  0  0  0  0  0  0  0  0
    2.1190   -0.9078    0.6534 C   0  0  0  0  0  0  0  0  0  0  0  0
   -1.6919    0.9856    1.4062 N   0  0  0  0  0  0  0  0  0  0  0  0
   -2.9752    1.2872    1.5249 N   0  0  0  0  0  0  0  0  0  0  0  0
   -7.9369    1.8494    0.1379 C   0  0  0  0  0  0  0  0  0  0  0  0
   -9.2909    1.7933    0.0851 C   0  0  0  0  0  0  0  0  0  0  0  0
  -10.0534    2.8695    0.4436 O   0  0  0  0  0  0  0  0  0  0  0  0
   -9.5682    4.1013    0.8858 C   0  0  0  0  0  0  0  0  0  0  0  0
   -9.9317    0.6279   -0.3391 C   0  0  0  0  0  0  0  0  0  0  0  0
   -8.3781   -3.0381   -1.0817 H   0  0  0  0  0  0  0  0  0  0  0  0
   -9.2995   -2.8673   -2.6288 H   0  0  0  0  0  0  0  0  0  0  0  0
  -10.0451   -3.6513   -1.1915 H   0  0  0  0  0  0  0  0  0  0  0  0
   -7.2704   -1.3005   -0.9503 H   0  0  0  0  0  0  0  0  0  0  0  0
   -5.3540    0.0201   -0.9774 H   0  0  0  0  0  0  0  0  0  0  0  0
   -5.2988    1.7191   -0.4475 H   0  0  0  0  0  0  0  0  0  0  0  0
   -5.5134   -0.8198    1.2489 H   0  0  0  0  0  0  0  0  0  0  0  0
   -5.6143    0.8732    1.9459 H   0  0  0  0  0  0  0  0  0  0  0  0
   -3.1558   -1.6948    0.3494 H   0  0  0  0  0  0  0  0  0  0  0  0
   -0.4216   -1.9213    0.2226 H   0  0  0  0  0  0  0  0  0  0  0  0
    2.0424    2.5557    2.1935 H   0  0  0  0  0  0  0  0  0  0  0  0
    5.3969   -0.3002    0.9558 H   0  0  0  0  0  0  0  0  0  0  0  0
    5.8161   -3.7525   -0.4639 H   0  0  0  0  0  0  0  0  0  0  0  0
    7.9535   -2.8657   -0.1807 H   0  0  0  0  0  0  0  0  0  0  0  0
    7.2732   -1.6866    0.9468 H   0  0  0  0  0  0  0  0  0  0  0  0
    6.5402   -0.3093   -1.0661 H   0  0  0  0  0  0  0  0  0  0  0  0
    7.3138   -1.6002   -2.1237 H   0  0  0  0  0  0  0  0  0  0  0  0
    7.6967    1.1086   -2.0683 H   0  0  0  0  0  0  0  0  0  0  0  0
    8.8442    0.1404   -3.0340 H   0  0  0  0  0  0  0  0  0  0  0  0
    9.3029    2.4741   -1.2429 H   0  0  0  0  0  0  0  0  0  0  0  0
   10.2611    1.9512   -2.6509 H   0  0  0  0  0  0  0  0  0  0  0  0
   10.7404    0.6834    1.1895 H   0  0  0  0  0  0  0  0  0  0  0  0
    9.6249    2.0005    0.7588 H   0  0  0  0  0  0  0  0  0  0  0  0
    7.9740    0.4189    0.7733 H   0  0  0  0  0  0  0  0  0  0  0  0
    9.1621   -0.8962    0.9215 H   0  0  0  0  0  0  0  0  0  0  0  0
    3.4048   -3.7392   -0.6163 H   0  0  0  0  0  0  0  0  0  0  0  0
    1.3046   -2.6931   -0.1539 H   0  0  0  0  0  0  0  0  0  0  0  0
   -3.3179    2.2034    1.8851 H   0  0  0  0  0  0  0  0  0  0  0  0
   -7.4253    2.7245    0.4579 H   0  0  0  0  0  0  0  0  0  0  0  0
  -10.3963    4.8615    0.8189 H   0  0  0  0  0  0  0  0  0  0  0  0
   -9.2193    4.1269    1.9213 H   0  0  0  0  0  0  0  0  0  0  0  0
   -8.7458    4.4943    0.2529 H   0  0  0  0  0  0  0  0  0  0  0  0
  -11.0265    0.5921   -0.3789 H   0  0  0  0  0  0  0  0  0  0  0  0
  1  2  1  0
  2  3  1  0
  3  4  2  0
  4  5  1  0
  5  6  1  0
  6  7  1  0
  7  8  1  0
  8  9  2  0
  9 10  1  0
 10 11  1  0
 11 12  1  0
 12 13  2  0
 13 14  1  0
 14 15  2  0
 15 16  1  0
 16 17  2  0
 17 18  1  0
 18 19  1  0
 19 20  1  0
 20 21  1  0
 21 22  1  0
 22 23  1  0
 23 24  1  0
 24 25  1  0
 25 26  1  0
 26 27  1  0
 18 28  2  0
 28 29  1  0
 29 30  2  0
 10 31  2  0
 31 32  1  0
  5 33  2  0
 33 34  1  0
 34 35  1  0
 35 36  1  0
 34 37  2  0
 37  3  1  0
 32  8  1  0
 30 12  1  0
 30 16  1  0
 27 22  1  0
  1 38  1  0
  1 39  1  0
  1 40  1  0
  4 41  1  0
  6 42  1  0
  6 43  1  0
  7 44  1  0
  7 45  1  0
  9 46  1  0
 11 47  1  0
 14 48  1  0
 17 49  1  0
 19 50  1  0
 20 51  1  0
 20 52  1  0
 21 53  1  0
 21 54  1  0
 23 55  1  0
 23 56  1  0
 24 57  1  0
 24 58  1  0
 26 59  1  0
 26 60  1  0
 27 61  1  0
 27 62  1  0
 28 63  1  0
 29 64  1  0
 32 65  1  0
 33 66  1  0
 36 67  1  0
 36 68  1  0
 36 69  1  0
 37 70  1  0
M  END
$$$$
[H]c1nc(N([H])[H])c(-c2nn(-c3c([H])c([H])c([H])c(OC([H])([H])[H])c3C(F)(F)F)c(=O)c([H])c2[H])nc1-c1c([H])nn(C([H])([H])[H])c1[H]
     RDKit          3D

 48 51  0  0  0  0  0  0  0  0999 V2000
   -7.4476    1.3154   -0.4650 C   0  0  0  0  0  0  0  0  0  0  0  0
   -6.1333    1.1796   -0.0211 O   0  0  0  0  0  0  0  0  0  0  0  0
   -5.3488    0.0604   -0.2026 C   0  0  0  0  0  0  0  0  0  0  0  0
   -5.8014   -1.0584   -0.8567 C   0  0  0  0  0  0  0  0  0  0  0  0
   -4.9928   -2.1599   -1.0214 C   0  0  0  0  0  0  0  0  0  0  0  0
   -3.7396   -2.0982   -0.5161 C   0  0  0  0  0  0  0  0  0  0  0  0
   -3.2062   -0.9877    0.1652 C   0  0  0  0  0  0  0  0  0  0  0  0
   -4.0416    0.0935    0.3112 C   0  0  0  0  0  0  0  0  0  0  0  0
   -3.6202    1.3209    0.9948 C   0  0  0  0  0  0  0  0  0  0  0  0
   -3.6622    2.4292    0.1383 F   0  0  0  0  0  0  0  0  0  0  0  0
   -4.6197    1.6356    1.9483 F   0  0  0  0  0  0  0  0  0  0  0  0
   -2.4717    1.2522    1.7234 F   0  0  0  0  0  0  0  0  0  0  0  0
   -1.8651   -1.0494    0.6435 N   0  0  0  0  0  0  0  0  0  0  0  0
   -0.8248   -0.5347    0.0112 N   0  0  0  0  0  0  0  0  0  0  0  0
    0.4289   -0.5996    0.4322 C   0  0  0  0  0  0  0  0  0  0  0  0
    0.6770   -1.2583    1.6309 C   0  0  0  0  0  0  0  0  0  0  0  0
   -0.3665   -1.8169    2.3382 C   0  0  0  0  0  0  0  0  0  0  0  0
   -1.6462   -1.6914    1.8060 C   0  0  0  0  0  0  0  0  0  0  0  0
   -2.6167   -2.1899    2.4276 O   0  0  0  0  0  0  0  0  0  0  0  0
    1.5602   -0.0234   -0.2839 C   0  0  0  0  0  0  0  0  0  0  0  0
    2.8183   -0.1083    0.1727 N   0  0  0  0  0  0  0  0  0  0  0  0
    3.8626    0.4335   -0.5055 C   0  0  0  0  0  0  0  0  0  0  0  0
    3.6322    1.0925   -1.7004 C   0  0  0  0  0  0  0  0  0  0  0  0
    2.3765    1.1885   -2.1757 N   0  0  0  0  0  0  0  0  0  0  0  0
    1.3428    0.6344   -1.4736 C   0  0  0  0  0  0  0  0  0  0  0  0
    0.0039    0.7216   -1.9542 N   0  0  0  0  0  0  0  0  0  0  0  0
    5.2254    0.3386   -0.0057 C   0  0  0  0  0  0  0  0  0  0  0  0
    5.6192   -0.2782    1.1566 C   0  0  0  0  0  0  0  0  0  0  0  0
    6.9586   -0.1422    1.2519 N   0  0  0  0  0  0  0  0  0  0  0  0
    7.4341    0.5157    0.2327 N   0  0  0  0  0  0  0  0  0  0  0  0
    8.8213    0.8462    0.0039 C   0  0  0  0  0  0  0  0  0  0  0  0
    6.3812    0.8304   -0.5703 C   0  0  0  0  0  0  0  0  0  0  0  0
   -8.1955    1.0061    0.3070 H   0  0  0  0  0  0  0  0  0  0  0  0
   -7.6413    0.8191   -1.4375 H   0  0  0  0  0  0  0  0  0  0  0  0
   -7.6370    2.4042   -0.6377 H   0  0  0  0  0  0  0  0  0  0  0  0
   -6.8225   -1.0565   -1.2461 H   0  0  0  0  0  0  0  0  0  0  0  0
   -5.3685   -3.0405   -1.5436 H   0  0  0  0  0  0  0  0  0  0  0  0
   -3.0952   -2.9701   -0.6448 H   0  0  0  0  0  0  0  0  0  0  0  0
    1.6972   -1.3174    1.9843 H   0  0  0  0  0  0  0  0  0  0  0  0
   -0.2047   -2.3357    3.2740 H   0  0  0  0  0  0  0  0  0  0  0  0
    4.4861    1.5191   -2.2267 H   0  0  0  0  0  0  0  0  0  0  0  0
   -0.4125    0.0511   -2.6097 H   0  0  0  0  0  0  0  0  0  0  0  0
   -0.5670    1.5239   -1.6040 H   0  0  0  0  0  0  0  0  0  0  0  0
    4.9994   -0.7828    1.8753 H   0  0  0  0  0  0  0  0  0  0  0  0
    9.3728    0.7671    0.9456 H   0  0  0  0  0  0  0  0  0  0  0  0
    8.8986    1.9125   -0.3591 H   0  0  0  0  0  0  0  0  0  0  0  0
    9.2818    0.2306   -0.8073 H   0  0  0  0  0  0  0  0  0  0  0  0
    6.4703    1.3777   -1.4936 H   0  0  0  0  0  0  0  0  0  0  0  0
  1  2  1  0
  2  3  1  0
  3  4  2  0
  4  5  1  0
  5  6  2  0
  6  7  1  0
  7  8  2  0
  8  9  1  0
  9 10  1  0
  9 11  1  0
  9 12  1  0
  7 13  1  0
 13 14  1  0
 14 15  2  0
 15 16  1  0
 16 17  2  0
 17 18  1  0
 18 19  2  0
 15 20  1  0
 20 21  2  0
 21 22  1  0
 22 23  2  0
 23 24  1  0
 24 25  2  0
 25 26  1  0
 22 27  1  0
 27 28  1  0
 28 29  2  0
 29 30  1  0
 30 31  1  0
 30 32  1  0
  8  3  1  0
 18 13  1  0
 25 20  1  0
 32 27  2  0
  1 33  1  0
  1 34  1  0
  1 35  1  0
  4 36  1  0
  5 37  1  0
  6 38  1  0
 16 39  1  0
 17 40  1  0
 23 41  1  0
 26 42  1  0
 26 43  1  0
 28 44  1  0
 31 45  1  0
 31 46  1  0
 31 47  1  0
 32 48  1  0
M  END
$$$$
[H]C([H])=C([H])C(=O)N1C([H])([H])C([H])([H])N(C([H])([H])C([H])([H])C([H])([H])n2c(=O)c(-c3c(Cl)c(OC([H])([H])[H])c([H])c(OC([H])([H])[H])c3Cl)c([H])c3c([H])nc(N([H])C([H])([H])C([H])([H])C([H])([H])N4C(=O)C([H])([H])C([H])([H])C4([H])[H])nc32)C([H])([H])C1([H])[H]
     RDKit          3D

 85 89  0  0  0  0  0  0  0  0999 V2000
    2.2684    8.2888   -2.5810 C   0  0  0  0  0  0  0  0  0  0  0  0
    1.6309    7.0305   -2.4893 O   0  0  0  0  0  0  0  0  0  0  0  0
    1.5317    6.4002   -1.2608 C   0  0  0  0  0  0  0  0  0  0  0  0
    2.0376    6.9600   -0.1118 C   0  0  0  0  0  0  0  0  0  0  0  0
    1.9345    6.3197    1.1216 C   0  0  0  0  0  0  0  0  0  0  0  0
    2.4476    6.8926    2.2735 O   0  0  0  0  0  0  0  0  0  0  0  0
    3.0810    8.1457    2.1750 C   0  0  0  0  0  0  0  0  0  0  0  0
    1.3012    5.0950    1.1448 C   0  0  0  0  0  0  0  0  0  0  0  0
    1.1560    4.2671    2.6782 Cl  0  0  0  0  0  0  0  0  0  0  0  0
    0.7762    4.4941    0.0081 C   0  0  0  0  0  0  0  0  0  0  0  0
    0.9057    5.1759   -1.2001 C   0  0  0  0  0  0  0  0  0  0  0  0
    0.2514    4.4304   -2.6183 Cl  0  0  0  0  0  0  0  0  0  0  0  0
    0.1113    3.2107    0.0537 C   0  0  0  0  0  0  0  0  0  0  0  0
   -1.2467    3.1306    0.2619 C   0  0  0  0  0  0  0  0  0  0  0  0
   -1.8730    1.8848    0.3053 C   0  0  0  0  0  0  0  0  0  0  0  0
   -3.2288    1.7413    0.5140 C   0  0  0  0  0  0  0  0  0  0  0  0
   -3.7525    0.5117    0.5459 N   0  0  0  0  0  0  0  0  0  0  0  0
   -3.0621   -0.6302    0.3894 C   0  0  0  0  0  0  0  0  0  0  0  0
   -3.6496   -1.9203    0.4355 N   0  0  0  0  0  0  0  0  0  0  0  0
   -5.0502   -2.1439    0.6433 C   0  0  0  0  0  0  0  0  0  0  0  0
   -5.8296   -1.6835   -0.5491 C   0  0  0  0  0  0  0  0  0  0  0  0
   -7.3223   -1.8634   -0.4239 C   0  0  0  0  0  0  0  0  0  0  0  0
   -7.6708   -3.2529   -0.2302 N   0  0  0  0  0  0  0  0  0  0  0  0
   -7.9521   -4.2737   -1.2274 C   0  0  0  0  0  0  0  0  0  0  0  0
   -7.3469   -5.5076   -0.5995 C   0  0  0  0  0  0  0  0  0  0  0  0
   -7.7477   -5.3807    0.8429 C   0  0  0  0  0  0  0  0  0  0  0  0
   -7.8115   -3.9167    1.0440 C   0  0  0  0  0  0  0  0  0  0  0  0
   -7.9628   -3.2709    2.1257 O   0  0  0  0  0  0  0  0  0  0  0  0
   -1.7169   -0.4914    0.1817 N   0  0  0  0  0  0  0  0  0  0  0  0
   -1.1497    0.7231    0.1422 C   0  0  0  0  0  0  0  0  0  0  0  0
    0.1959    0.8452   -0.0627 N   0  0  0  0  0  0  0  0  0  0  0  0
    0.9451   -0.3950   -0.2361 C   0  0  0  0  0  0  0  0  0  0  0  0
    1.4256   -0.9147    1.0823 C   0  0  0  0  0  0  0  0  0  0  0  0
    2.1941   -2.1834    0.8969 C   0  0  0  0  0  0  0  0  0  0  0  0
    3.3524   -1.9746    0.0524 N   0  0  0  0  0  0  0  0  0  0  0  0
    4.3496   -1.1559    0.6661 C   0  0  0  0  0  0  0  0  0  0  0  0
    5.7495   -1.3523    0.2481 C   0  0  0  0  0  0  0  0  0  0  0  0
    6.0976   -2.7994    0.0838 N   0  0  0  0  0  0  0  0  0  0  0  0
    5.0189   -3.6495    0.4391 C   0  0  0  0  0  0  0  0  0  0  0  0
    3.8529   -3.2154   -0.4851 C   0  0  0  0  0  0  0  0  0  0  0  0
    7.3548   -3.1446   -0.3626 C   0  0  0  0  0  0  0  0  0  0  0  0
    8.1459   -2.0785   -0.5840 O   0  0  0  0  0  0  0  0  0  0  0  0
    7.9808   -4.3834   -0.6345 C   0  0  0  0  0  0  0  0  0  0  0  0
    7.5367   -5.5865   -0.5462 C   0  0  0  0  0  0  0  0  0  0  0  0
    0.8087    2.0427   -0.1061 C   0  0  0  0  0  0  0  0  0  0  0  0
    2.0598    2.0364   -0.3016 O   0  0  0  0  0  0  0  0  0  0  0  0
    2.5397    8.5521   -3.6202 H   0  0  0  0  0  0  0  0  0  0  0  0
    3.2128    8.3027   -1.9977 H   0  0  0  0  0  0  0  0  0  0  0  0
    1.6280    9.1000   -2.1264 H   0  0  0  0  0  0  0  0  0  0  0  0
    2.5283    7.9057   -0.1181 H   0  0  0  0  0  0  0  0  0  0  0  0
    3.9848    8.1081    1.5262 H   0  0  0  0  0  0  0  0  0  0  0  0
    2.3956    8.8974    1.6901 H   0  0  0  0  0  0  0  0  0  0  0  0
    3.3529    8.5581    3.1767 H   0  0  0  0  0  0  0  0  0  0  0  0
   -1.8548    4.0096    0.3948 H   0  0  0  0  0  0  0  0  0  0  0  0
   -3.8033    2.6491    0.6423 H   0  0  0  0  0  0  0  0  0  0  0  0
   -3.0289   -2.7466    0.3119 H   0  0  0  0  0  0  0  0  0  0  0  0
   -5.2732   -3.1992    0.9135 H   0  0  0  0  0  0  0  0  0  0  0  0
   -5.3771   -1.5601    1.5526 H   0  0  0  0  0  0  0  0  0  0  0  0
   -5.5865   -0.6223   -0.7456 H   0  0  0  0  0  0  0  0  0  0  0  0
   -5.4733   -2.3279   -1.4137 H   0  0  0  0  0  0  0  0  0  0  0  0
   -7.7573   -1.2835    0.3948 H   0  0  0  0  0  0  0  0  0  0  0  0
   -7.7940   -1.5506   -1.3940 H   0  0  0  0  0  0  0  0  0  0  0  0
   -7.4756   -4.0358   -2.2044 H   0  0  0  0  0  0  0  0  0  0  0  0
   -9.0341   -4.4206   -1.2951 H   0  0  0  0  0  0  0  0  0  0  0  0
   -7.7499   -6.4467   -1.0619 H   0  0  0  0  0  0  0  0  0  0  0  0
   -6.2328   -5.4733   -0.6638 H   0  0  0  0  0  0  0  0  0  0  0  0
   -8.7365   -5.8716    0.9526 H   0  0  0  0  0  0  0  0  0  0  0  0
   -6.9978   -5.8422    1.5009 H   0  0  0  0  0  0  0  0  0  0  0  0
    1.8141   -0.1176   -0.8939 H   0  0  0  0  0  0  0  0  0  0  0  0
    0.3861   -1.1591   -0.7817 H   0  0  0  0  0  0  0  0  0  0  0  0
    1.9878   -0.1525    1.6477 H   0  0  0  0  0  0  0  0  0  0  0  0
    0.5253   -1.1577    1.7031 H   0  0  0  0  0  0  0  0  0  0  0  0
    1.5220   -2.8852    0.3224 H   0  0  0  0  0  0  0  0  0  0  0  0
    2.4468   -2.7060    1.8189 H   0  0  0  0  0  0  0  0  0  0  0  0
    4.0633   -0.0748    0.5355 H   0  0  0  0  0  0  0  0  0  0  0  0
    4.2780   -1.3099    1.7745 H   0  0  0  0  0  0  0  0  0  0  0  0
    6.4606   -0.9429    0.9570 H   0  0  0  0  0  0  0  0  0  0  0  0
    5.9363   -0.9132   -0.7501 H   0  0  0  0  0  0  0  0  0  0  0  0
    5.1239   -4.7075    0.4586 H   0  0  0  0  0  0  0  0  0  0  0  0
    4.6799   -3.2797    1.4755 H   0  0  0  0  0  0  0  0  0  0  0  0
    4.1878   -3.1413   -1.5251 H   0  0  0  0  0  0  0  0  0  0  0  0
    3.0716   -3.9857   -0.3398 H   0  0  0  0  0  0  0  0  0  0  0  0
    9.0805   -4.2953   -0.9978 H   0  0  0  0  0  0  0  0  0  0  0  0
    8.2418   -6.4130   -0.8229 H   0  0  0  0  0  0  0  0  0  0  0  0
    6.5984   -5.9194   -0.2535 H   0  0  0  0  0  0  0  0  0  0  0  0
  1  2  1  0
  2  3  1  0
  3  4  2  0
  4  5  1  0
  5  6  1  0
  6  7  1  0
  5  8  2  0
  8  9  1  0
  8 10  1  0
 10 11  2  0
 11 12  1  0
 10 13  1  0
 13 14  2  0
 14 15  1  0
 15 16  2  0
 16 17  1  0
 17 18  2  0
 18 19  1  0
 19 20  1  0
 20 21  1  0
 21 22  1  0
 22 23  1  0
 23 24  1  0
 24 25  1  0
 25 26  1  0
 26 27  1  0
 27 28  2  0
 18 29  1  0
 29 30  2  0
 30 31  1  0
 31 32  1  0
 32 33  1  0
 33 34  1  0
 34 35  1  0
 35 36  1  0
 36 37  1  0
 37 38  1  0
 38 39  1  0
 39 40  1  0
 38 41  1  0
 41 42  2  0
 41 43  1  0
 43 44  2  3
 31 45  1  0
 45 46  2  0
 11  3  1  0
 45 13  1  0
 30 15  1  0
 40 35  1  0
 27 23  1  0
  1 47  1  0
  1 48  1  0
  1 49  1  0
  4 50  1  0
  7 51  1  0
  7 52  1  0
  7 53  1  0
 14 54  1  0
 16 55  1  0
 19 56  1  0
 20 57  1  0
 20 58  1  0
 21 59  1  0
 21 60  1  0
 22 61  1  0
 22 62  1  0
 24 63  1  0
 24 64  1  0
 25 65  1  0
 25 66  1  0
 26 67  1  0
 26 68  1  0
 32 69  1  0
 32 70  1  0
 33 71  1  0
 33 72  1  0
 34 73  1  0
 34 74  1  0
 36 75  1  0
 36 76  1  0
 37 77  1  0
 37 78  1  0
 39 79  1  0
 39 80  1  0
 40 81  1  0
 40 82  1  0
 43 83  1  0
 44 84  1  0
 44 85  1  0
M  END
$$$$
[H]c1nc2c([H])c([H])c(N(c3c(F)c([H])c([H])c([H])c3F)C([H])([H])c3nc([H])c([H])n3S(=O)(=O)N(C([H])([H])[H])C([H])([H])[H])nc2c([H])c1-c1c([H])nn(C([H])([H])[H])c1[H]
     RDKit          3D

 59 63  0  0  0  0  0  0  0  0999 V2000
   -5.1755    1.3163    1.7796 C   0  0  0  0  0  0  0  0  0  0  0  0
   -4.9996    2.0658    0.5740 N   0  0  0  0  0  0  0  0  0  0  0  0
   -5.8425    3.2396    0.5541 C   0  0  0  0  0  0  0  0  0  0  0  0
   -3.3937    2.5219    0.2321 S   0  0  0  0  0  0  0  0  0  0  0  0
   -2.6618    2.5313    1.5718 O   0  0  0  0  0  0  0  0  0  0  0  0
   -3.3876    3.9399   -0.2787 O   0  0  0  0  0  0  0  0  0  0  0  0
   -2.5689    1.4716   -0.8374 N   0  0  0  0  0  0  0  0  0  0  0  0
   -2.1055    1.8728   -2.0591 C   0  0  0  0  0  0  0  0  0  0  0  0
   -1.5083    0.7936   -2.6564 C   0  0  0  0  0  0  0  0  0  0  0  0
   -1.6017   -0.2445   -1.8232 N   0  0  0  0  0  0  0  0  0  0  0  0
   -2.2654    0.1995   -0.6969 C   0  0  0  0  0  0  0  0  0  0  0  0
   -2.5590   -0.6667    0.4716 C   0  0  0  0  0  0  0  0  0  0  0  0
   -1.5338   -1.7136    0.6062 N   0  0  0  0  0  0  0  0  0  0  0  0
   -0.2733   -1.1859    1.0257 C   0  0  0  0  0  0  0  0  0  0  0  0
   -0.0938   -0.9703    2.3723 C   0  0  0  0  0  0  0  0  0  0  0  0
    1.0826   -0.4298    2.8410 C   0  0  0  0  0  0  0  0  0  0  0  0
    2.0741   -0.1082    1.9479 C   0  0  0  0  0  0  0  0  0  0  0  0
    3.2290    0.4240    2.4409 N   0  0  0  0  0  0  0  0  0  0  0  0
    4.1961    0.7342    1.5638 C   0  0  0  0  0  0  0  0  0  0  0  0
    4.1000    0.5513    0.2018 C   0  0  0  0  0  0  0  0  0  0  0  0
    2.9055    0.0066   -0.2561 C   0  0  0  0  0  0  0  0  0  0  0  0
    1.8875   -0.3257    0.6122 C   0  0  0  0  0  0  0  0  0  0  0  0
    0.7272   -0.8543    0.1944 N   0  0  0  0  0  0  0  0  0  0  0  0
    5.1935    0.9109   -0.6899 C   0  0  0  0  0  0  0  0  0  0  0  0
    5.4998    0.2907   -1.8711 C   0  0  0  0  0  0  0  0  0  0  0  0
    6.5662    0.9201   -2.3728 N   0  0  0  0  0  0  0  0  0  0  0  0
    6.9751    1.9077   -1.5985 N   0  0  0  0  0  0  0  0  0  0  0  0
    8.1045    2.8147   -1.8167 C   0  0  0  0  0  0  0  0  0  0  0  0
    6.1333    1.9247   -0.5370 C   0  0  0  0  0  0  0  0  0  0  0  0
   -1.6998   -3.0678    0.3027 C   0  0  0  0  0  0  0  0  0  0  0  0
   -0.7002   -3.9645    0.5657 C   0  0  0  0  0  0  0  0  0  0  0  0
    0.4851   -3.6328    1.1613 F   0  0  0  0  0  0  0  0  0  0  0  0
   -0.8106   -5.3221    0.2488 C   0  0  0  0  0  0  0  0  0  0  0  0
   -1.9395   -5.8319   -0.3487 C   0  0  0  0  0  0  0  0  0  0  0  0
   -2.9361   -4.9261   -0.6086 C   0  0  0  0  0  0  0  0  0  0  0  0
   -2.8431   -3.5702   -0.3007 C   0  0  0  0  0  0  0  0  0  0  0  0
   -3.8873   -2.7560   -0.6344 F   0  0  0  0  0  0  0  0  0  0  0  0
   -6.0808    1.6492    2.3657 H   0  0  0  0  0  0  0  0  0  0  0  0
   -5.4359    0.2592    1.4791 H   0  0  0  0  0  0  0  0  0  0  0  0
   -4.3008    1.3435    2.4438 H   0  0  0  0  0  0  0  0  0  0  0  0
   -5.5414    3.8297   -0.3370 H   0  0  0  0  0  0  0  0  0  0  0  0
   -6.9145    2.9712    0.4525 H   0  0  0  0  0  0  0  0  0  0  0  0
   -5.6150    3.8345    1.4493 H   0  0  0  0  0  0  0  0  0  0  0  0
   -2.1869    2.8618   -2.4925 H   0  0  0  0  0  0  0  0  0  0  0  0
   -1.0492    0.8303   -3.6470 H   0  0  0  0  0  0  0  0  0  0  0  0
   -2.3660    0.0365    1.3658 H   0  0  0  0  0  0  0  0  0  0  0  0
   -3.5691   -0.9800    0.6126 H   0  0  0  0  0  0  0  0  0  0  0  0
   -0.8697   -1.2175    3.1077 H   0  0  0  0  0  0  0  0  0  0  0  0
    1.2124   -0.2633    3.9203 H   0  0  0  0  0  0  0  0  0  0  0  0
    5.1116    1.1548    1.9478 H   0  0  0  0  0  0  0  0  0  0  0  0
    2.7793   -0.1547   -1.2994 H   0  0  0  0  0  0  0  0  0  0  0  0
    4.9953   -0.5353   -2.3195 H   0  0  0  0  0  0  0  0  0  0  0  0
    7.7326    3.7188   -2.3330 H   0  0  0  0  0  0  0  0  0  0  0  0
    8.5944    3.0757   -0.8435 H   0  0  0  0  0  0  0  0  0  0  0  0
    8.8597    2.2826   -2.4249 H   0  0  0  0  0  0  0  0  0  0  0  0
    6.1614    2.5963    0.2976 H   0  0  0  0  0  0  0  0  0  0  0  0
    0.0077   -6.0144    0.4721 H   0  0  0  0  0  0  0  0  0  0  0  0
   -2.0386   -6.8782   -0.5990 H   0  0  0  0  0  0  0  0  0  0  0  0
   -3.8592   -5.2675   -1.0810 H   0  0  0  0  0  0  0  0  0  0  0  0
  1  2  1  0
  2  3  1  0
  2  4  1  0
  4  5  2  0
  4  6  2  0
  4  7  1  0
  7  8  1  0
  8  9  2  0
  9 10  1  0
 10 11  2  0
 11 12  1  0
 12 13  1  0
 13 14  1  0
 14 15  2  0
 15 16  1  0
 16 17  2  0
 17 18  1  0
 18 19  2  0
 19 20  1  0
 20 21  2  0
 21 22  1  0
 22 23  2  0
 20 24  1  0
 24 25  1  0
 25 26  2  0
 26 27  1  0
 27 28  1  0
 27 29  1  0
 13 30  1  0
 30 31  2  0
 31 32  1  0
 31 33  1  0
 33 34  2  0
 34 35  1  0
 35 36  2  0
 36 37  1  0
 11  7  1  0
 23 14  1  0
 29 24  2  0
 36 30  1  0
 22 17  1  0
  1 38  1  0
  1 39  1  0
  1 40  1  0
  3 41  1  0
  3 42  1  0
  3 43  1  0
  8 44  1  0
  9 45  1  0
 12 46  1  0
 12 47  1  0
 15 48  1  0
 16 49  1  0
 19 50  1  0
 21 51  1  0
 25 52  1  0
 28 53  1  0
 28 54  1  0
 28 55  1  0
 29 56  1  0
 33 57  1  0
 34 58  1  0
 35 59  1  0
M  END
$$$$
[H]/C(C(=O)N1C([H])([H])C([H])([H])C([H])(N2C(=O)N(c3c(Cl)c(OC([H])([H])[H])c([H])c(OC([H])([H])[H])c3Cl)C([H])([H])c3c([H])nc(N([H])c4c([H])c([H])c([H])c(C([H])([H])[H])c4[H])nc32)C([H])([H])C1([H])[H])=C(/[H])C([H])([H])N(C([H])([H])[H])C([H])([H])[H]
     RDKit          3D

 82 86  0  0  0  0  0  0  0  0999 V2000
   -6.7074   -6.0602    0.6609 C   0  0  0  0  0  0  0  0  0  0  0  0
   -6.1001   -4.8165    0.9391 O   0  0  0  0  0  0  0  0  0  0  0  0
   -5.1431   -4.3319    0.0749 C   0  0  0  0  0  0  0  0  0  0  0  0
   -4.7594   -5.0333   -1.0626 C   0  0  0  0  0  0  0  0  0  0  0  0
   -3.8047   -4.5377   -1.9144 C   0  0  0  0  0  0  0  0  0  0  0  0
   -3.3846   -5.1767   -3.0420 O   0  0  0  0  0  0  0  0  0  0  0  0
   -3.8942   -6.4191   -3.4470 C   0  0  0  0  0  0  0  0  0  0  0  0
   -3.2218   -3.3023   -1.6126 C   0  0  0  0  0  0  0  0  0  0  0  0
   -2.0061   -2.6615   -2.6885 Cl  0  0  0  0  0  0  0  0  0  0  0  0
   -3.5818   -2.5848   -0.4937 C   0  0  0  0  0  0  0  0  0  0  0  0
   -2.9517   -1.3312   -0.2406 N   0  0  0  0  0  0  0  0  0  0  0  0
   -3.7050   -0.1370   -0.4828 C   0  0  0  0  0  0  0  0  0  0  0  0
   -2.9640    1.0907   -0.1968 C   0  0  0  0  0  0  0  0  0  0  0  0
   -3.6371    2.2994   -0.4056 C   0  0  0  0  0  0  0  0  0  0  0  0
   -3.0499    3.4652   -0.1769 N   0  0  0  0  0  0  0  0  0  0  0  0
   -1.7812    3.5134    0.2647 C   0  0  0  0  0  0  0  0  0  0  0  0
   -1.0814    4.6990    0.5311 N   0  0  0  0  0  0  0  0  0  0  0  0
   -1.5275    6.0248    0.3859 C   0  0  0  0  0  0  0  0  0  0  0  0
   -0.8639    7.0060    1.1115 C   0  0  0  0  0  0  0  0  0  0  0  0
   -1.2344    8.3140    0.9984 C   0  0  0  0  0  0  0  0  0  0  0  0
   -2.2728    8.6893    0.1632 C   0  0  0  0  0  0  0  0  0  0  0  0
   -2.9529    7.7527   -0.5705 C   0  0  0  0  0  0  0  0  0  0  0  0
   -4.0658    8.1246   -1.4763 C   0  0  0  0  0  0  0  0  0  0  0  0
   -2.5573    6.4201   -0.4397 C   0  0  0  0  0  0  0  0  0  0  0  0
   -1.1288    2.3408    0.4672 N   0  0  0  0  0  0  0  0  0  0  0  0
   -1.6645    1.1310    0.2558 C   0  0  0  0  0  0  0  0  0  0  0  0
   -0.9290   -0.0788    0.4875 N   0  0  0  0  0  0  0  0  0  0  0  0
    0.4109    0.0468    0.9375 C   0  0  0  0  0  0  0  0  0  0  0  0
    1.3085   -0.4214   -0.1822 C   0  0  0  0  0  0  0  0  0  0  0  0
    2.7641   -0.4290    0.1277 C   0  0  0  0  0  0  0  0  0  0  0  0
    3.1266   -0.5983    1.4967 N   0  0  0  0  0  0  0  0  0  0  0  0
    2.1946   -0.2191    2.5287 C   0  0  0  0  0  0  0  0  0  0  0  0
    0.7832   -0.6551    2.1966 C   0  0  0  0  0  0  0  0  0  0  0  0
    4.3922   -1.1223    1.8494 C   0  0  0  0  0  0  0  0  0  0  0  0
    4.7216   -1.2808    3.0691 O   0  0  0  0  0  0  0  0  0  0  0  0
    5.3632   -1.4980    0.8528 C   0  0  0  0  0  0  0  0  0  0  0  0
    6.5641   -1.9928    1.2170 C   0  0  0  0  0  0  0  0  0  0  0  0
    7.5942   -2.3934    0.2284 C   0  0  0  0  0  0  0  0  0  0  0  0
    8.8139   -1.6066    0.3938 N   0  0  0  0  0  0  0  0  0  0  0  0
    8.5397   -0.2141    0.0041 C   0  0  0  0  0  0  0  0  0  0  0  0
    9.8190   -2.1310   -0.5095 C   0  0  0  0  0  0  0  0  0  0  0  0
   -1.6018   -1.2888    0.2305 C   0  0  0  0  0  0  0  0  0  0  0  0
   -1.0138   -2.3575    0.4156 O   0  0  0  0  0  0  0  0  0  0  0  0
   -4.5412   -3.1135    0.3369 C   0  0  0  0  0  0  0  0  0  0  0  0
   -5.0003   -2.2235    1.7615 Cl  0  0  0  0  0  0  0  0  0  0  0  0
   -6.0608   -6.9144    0.8694 H   0  0  0  0  0  0  0  0  0  0  0  0
   -7.0782   -6.0221   -0.3926 H   0  0  0  0  0  0  0  0  0  0  0  0
   -7.6272   -6.1256    1.2816 H   0  0  0  0  0  0  0  0  0  0  0  0
   -5.2385   -5.9760   -1.2537 H   0  0  0  0  0  0  0  0  0  0  0  0
   -3.0954   -6.9695   -4.0347 H   0  0  0  0  0  0  0  0  0  0  0  0
   -4.1634   -7.0159   -2.5526 H   0  0  0  0  0  0  0  0  0  0  0  0
   -4.7432   -6.3095   -4.1748 H   0  0  0  0  0  0  0  0  0  0  0  0
   -4.1176   -0.0970   -1.5229 H   0  0  0  0  0  0  0  0  0  0  0  0
   -4.6063   -0.1247    0.1713 H   0  0  0  0  0  0  0  0  0  0  0  0
   -4.6515    2.2955   -0.7586 H   0  0  0  0  0  0  0  0  0  0  0  0
   -0.0793    4.5848    0.8824 H   0  0  0  0  0  0  0  0  0  0  0  0
   -0.0533    6.7384    1.7685 H   0  0  0  0  0  0  0  0  0  0  0  0
   -0.7420    9.1123    1.5490 H   0  0  0  0  0  0  0  0  0  0  0  0
   -2.5419    9.7390    0.0963 H   0  0  0  0  0  0  0  0  0  0  0  0
   -4.8514    8.5963   -0.8379 H   0  0  0  0  0  0  0  0  0  0  0  0
   -3.7220    8.8356   -2.2691 H   0  0  0  0  0  0  0  0  0  0  0  0
   -4.4798    7.2000   -1.9156 H   0  0  0  0  0  0  0  0  0  0  0  0
   -3.1046    5.7216   -1.0416 H   0  0  0  0  0  0  0  0  0  0  0  0
    0.6556    1.1322    1.0660 H   0  0  0  0  0  0  0  0  0  0  0  0
    1.1540    0.2063   -1.1111 H   0  0  0  0  0  0  0  0  0  0  0  0
    1.0535   -1.4587   -0.5284 H   0  0  0  0  0  0  0  0  0  0  0  0
    3.3080   -1.1562   -0.5231 H   0  0  0  0  0  0  0  0  0  0  0  0
    3.1533    0.5924   -0.1756 H   0  0  0  0  0  0  0  0  0  0  0  0
    2.4687   -0.6225    3.5222 H   0  0  0  0  0  0  0  0  0  0  0  0
    2.1545    0.9077    2.5889 H   0  0  0  0  0  0  0  0  0  0  0  0
    0.7652   -1.7469    2.0455 H   0  0  0  0  0  0  0  0  0  0  0  0
    0.1597   -0.3254    3.0586 H   0  0  0  0  0  0  0  0  0  0  0  0
    5.2302   -1.4182   -0.2116 H   0  0  0  0  0  0  0  0  0  0  0  0
    6.8023   -2.1091    2.2598 H   0  0  0  0  0  0  0  0  0  0  0  0
    7.8328   -3.4523    0.4352 H   0  0  0  0  0  0  0  0  0  0  0  0
    7.2097   -2.3396   -0.7972 H   0  0  0  0  0  0  0  0  0  0  0  0
    9.4970    0.2983   -0.2123 H   0  0  0  0  0  0  0  0  0  0  0  0
    7.8831   -0.2237   -0.9055 H   0  0  0  0  0  0  0  0  0  0  0  0
    8.0623    0.3063    0.8449 H   0  0  0  0  0  0  0  0  0  0  0  0
   10.6488   -2.6160    0.0403 H   0  0  0  0  0  0  0  0  0  0  0  0
   10.2768   -1.2796   -1.0955 H   0  0  0  0  0  0  0  0  0  0  0  0
    9.3732   -2.8654   -1.2101 H   0  0  0  0  0  0  0  0  0  0  0  0
  1  2  1  0
  2  3  1  0
  3  4  2  0
  4  5  1  0
  5  6  1  0
  6  7  1  0
  5  8  2  0
  8  9  1  0
  8 10  1  0
 10 11  1  0
 11 12  1  0
 12 13  1  0
 13 14  2  0
 14 15  1  0
 15 16  2  0
 16 17  1  0
 17 18  1  0
 18 19  2  0
 19 20  1  0
 20 21  2  0
 21 22  1  0
 22 23  1  0
 22 24  2  0
 16 25  1  0
 25 26  2  0
 26 27  1  0
 27 28  1  0
 28 29  1  0
 29 30  1  0
 30 31  1  0
 31 32  1  0
 32 33  1  0
 31 34  1  0
 34 35  2  0
 34 36  1  0
 36 37  2  0
 37 38  1  0
 38 39  1  0
 39 40  1  0
 39 41  1  0
 27 42  1  0
 42 43  2  0
 10 44  2  0
 44 45  1  0
 44  3  1  0
 42 11  1  0
 26 13  1  0
 33 28  1  0
 24 18  1  0
  1 46  1  0
  1 47  1  0
  1 48  1  0
  4 49  1  0
  7 50  1  0
  7 51  1  0
  7 52  1  0
 12 53  1  0
 12 54  1  0
 14 55  1  0
 17 56  1  0
 19 57  1  0
 20 58  1  0
 21 59  1  0
 23 60  1  0
 23 61  1  0
 23 62  1  0
 24 63  1  0
 28 64  1  0
 29 65  1  0
 29 66  1  0
 30 67  1  0
 30 68  1  0
 32 69  1  0
 32 70  1  0
 33 71  1  0
 33 72  1  0
 36 73  1  0
 37 74  1  0
 38 75  1  0
 38 76  1  0
 40 77  1  0
 40 78  1  0
 40 79  1  0
 41 80  1  0
 41 81  1  0
 41 82  1  0
M  END
$$$$
[H]C([H])=C([H])C(=O)N1C([H])([H])C([H])([H])C([H])(OC([H])([H])C([H])([H])n2c(=O)c(-c3c(Cl)c(OC([H])([H])[H])c([H])c(OC([H])([H])[H])c3Cl)c([H])c3c([H])nc(N([H])C([H])([H])[H])nc32)C1([H])[H]
     RDKit          3D

 64 67  0  0  0  0  0  0  0  0999 V2000
   -1.0254    3.4594   -5.8153 C   0  0  0  0  0  0  0  0  0  0  0  0
   -1.1923    2.9898   -4.4558 N   0  0  0  0  0  0  0  0  0  0  0  0
   -0.1134    2.4880   -3.7007 C   0  0  0  0  0  0  0  0  0  0  0  0
    1.1040    2.4445   -4.2518 N   0  0  0  0  0  0  0  0  0  0  0  0
    2.1608    1.9585   -3.5349 C   0  0  0  0  0  0  0  0  0  0  0  0
    1.9730    1.5159   -2.2544 C   0  0  0  0  0  0  0  0  0  0  0  0
    2.9894    1.0017   -1.4489 C   0  0  0  0  0  0  0  0  0  0  0  0
    2.7456    0.5683   -0.1705 C   0  0  0  0  0  0  0  0  0  0  0  0
    3.7837    0.0324    0.6998 C   0  0  0  0  0  0  0  0  0  0  0  0
    4.5101    0.8740    1.5164 C   0  0  0  0  0  0  0  0  0  0  0  0
    4.1562    2.5986    1.4555 Cl  0  0  0  0  0  0  0  0  0  0  0  0
    5.4990    0.3887    2.3745 C   0  0  0  0  0  0  0  0  0  0  0  0
    6.1854    1.2870    3.1626 O   0  0  0  0  0  0  0  0  0  0  0  0
    7.2004    0.8100    4.0516 C   0  0  0  0  0  0  0  0  0  0  0  0
    5.7707   -0.9635    2.4206 C   0  0  0  0  0  0  0  0  0  0  0  0
    5.0250   -1.7995    1.5863 C   0  0  0  0  0  0  0  0  0  0  0  0
    5.2860   -3.1674    1.6215 O   0  0  0  0  0  0  0  0  0  0  0  0
    6.2902   -3.6977    2.4886 C   0  0  0  0  0  0  0  0  0  0  0  0
    4.0499   -1.3161    0.7408 C   0  0  0  0  0  0  0  0  0  0  0  0
    3.1614   -2.4489   -0.2752 Cl  0  0  0  0  0  0  0  0  0  0  0  0
    1.4622    0.6398    0.3432 C   0  0  0  0  0  0  0  0  0  0  0  0
    1.2155    0.2417    1.5343 O   0  0  0  0  0  0  0  0  0  0  0  0
    0.4781    1.1402   -0.4432 N   0  0  0  0  0  0  0  0  0  0  0  0
   -0.8833    1.2064    0.0927 C   0  0  0  0  0  0  0  0  0  0  0  0
   -1.5379   -0.0985   -0.2940 C   0  0  0  0  0  0  0  0  0  0  0  0
   -2.8315   -0.1238    0.1995 O   0  0  0  0  0  0  0  0  0  0  0  0
   -3.4983   -1.2996   -0.1697 C   0  0  0  0  0  0  0  0  0  0  0  0
   -3.8965   -2.1295    0.9989 C   0  0  0  0  0  0  0  0  0  0  0  0
   -5.3867   -2.2379    0.9603 C   0  0  0  0  0  0  0  0  0  0  0  0
   -5.8200   -1.1572    0.0738 N   0  0  0  0  0  0  0  0  0  0  0  0
   -4.7615   -0.8893   -0.8566 C   0  0  0  0  0  0  0  0  0  0  0  0
   -7.0635   -0.4967    0.1288 C   0  0  0  0  0  0  0  0  0  0  0  0
   -7.3361    0.4277   -0.6837 O   0  0  0  0  0  0  0  0  0  0  0  0
   -8.0530   -0.8609    1.1150 C   0  0  0  0  0  0  0  0  0  0  0  0
   -9.2243   -0.2636    1.1934 C   0  0  0  0  0  0  0  0  0  0  0  0
    0.7098    1.5663   -1.6962 C   0  0  0  0  0  0  0  0  0  0  0  0
   -0.3108    2.0635   -2.4618 N   0  0  0  0  0  0  0  0  0  0  0  0
   -0.2869    2.8380   -6.3847 H   0  0  0  0  0  0  0  0  0  0  0  0
   -0.7285    4.5216   -5.8162 H   0  0  0  0  0  0  0  0  0  0  0  0
   -2.0088    3.4089   -6.3503 H   0  0  0  0  0  0  0  0  0  0  0  0
   -2.1600    3.0398   -4.0474 H   0  0  0  0  0  0  0  0  0  0  0  0
    3.1529    1.9181   -3.9669 H   0  0  0  0  0  0  0  0  0  0  0  0
    3.9890    0.9451   -1.8449 H   0  0  0  0  0  0  0  0  0  0  0  0
    7.9298    0.1649    3.5432 H   0  0  0  0  0  0  0  0  0  0  0  0
    6.6429    0.2930    4.8805 H   0  0  0  0  0  0  0  0  0  0  0  0
    7.7245    1.7164    4.4503 H   0  0  0  0  0  0  0  0  0  0  0  0
    6.5372   -1.3672    3.0787 H   0  0  0  0  0  0  0  0  0  0  0  0
    5.9948   -3.3481    3.5106 H   0  0  0  0  0  0  0  0  0  0  0  0
    7.2793   -3.2810    2.2694 H   0  0  0  0  0  0  0  0  0  0  0  0
    6.2476   -4.8015    2.5244 H   0  0  0  0  0  0  0  0  0  0  0  0
   -1.4495    2.0264   -0.3792 H   0  0  0  0  0  0  0  0  0  0  0  0
   -0.8034    1.3105    1.1933 H   0  0  0  0  0  0  0  0  0  0  0  0
   -0.9975   -0.9856    0.0804 H   0  0  0  0  0  0  0  0  0  0  0  0
   -1.5826   -0.1478   -1.4000 H   0  0  0  0  0  0  0  0  0  0  0  0
   -2.8286   -1.9283   -0.8055 H   0  0  0  0  0  0  0  0  0  0  0  0
   -3.4089   -3.1449    0.9813 H   0  0  0  0  0  0  0  0  0  0  0  0
   -3.6219   -1.6459    1.9711 H   0  0  0  0  0  0  0  0  0  0  0  0
   -5.8658   -2.1801    1.9451 H   0  0  0  0  0  0  0  0  0  0  0  0
   -5.6799   -3.1830    0.4208 H   0  0  0  0  0  0  0  0  0  0  0  0
   -4.8816   -1.4283   -1.8185 H   0  0  0  0  0  0  0  0  0  0  0  0
   -4.7717    0.2005   -1.0581 H   0  0  0  0  0  0  0  0  0  0  0  0
   -7.8265   -1.6500    1.8168 H   0  0  0  0  0  0  0  0  0  0  0  0
   -9.9438   -0.5727    1.9579 H   0  0  0  0  0  0  0  0  0  0  0  0
   -9.4739    0.5293    0.5063 H   0  0  0  0  0  0  0  0  0  0  0  0
  1  2  1  0
  2  3  1  0
  3  4  2  0
  4  5  1  0
  5  6  2  0
  6  7  1  0
  7  8  2  0
  8  9  1  0
  9 10  2  0
 10 11  1  0
 10 12  1  0
 12 13  1  0
 13 14  1  0
 12 15  2  0
 15 16  1  0
 16 17  1  0
 17 18  1  0
 16 19  2  0
 19 20  1  0
  8 21  1  0
 21 22  2  0
 21 23  1  0
 23 24  1  0
 24 25  1  0
 25 26  1  0
 26 27  1  0
 27 28  1  0
 28 29  1  0
 29 30  1  0
 30 31  1  0
 30 32  1  0
 32 33  2  0
 32 34  1  0
 34 35  2  3
 23 36  1  0
 36 37  2  0
 37  3  1  0
 36  6  1  0
 19  9  1  0
 31 27  1  0
  1 38  1  0
  1 39  1  0
  1 40  1  0
  2 41  1  0
  5 42  1  0
  7 43  1  0
 14 44  1  0
 14 45  1  0
 14 46  1  0
 15 47  1  0
 18 48  1  0
 18 49  1  0
 18 50  1  0
 24 51  1  0
 24 52  1  0
 25 53  1  0
 25 54  1  0
 27 55  1  0
 28 56  1  0
 28 57  1  0
 29 58  1  0
 29 59  1  0
 31 60  1  0
 31 61  1  0
 34 62  1  0
 35 63  1  0
 35 64  1  0
M  END
$$$$
[H]/C(C(=O)N1C([H])([H])C([H])([H])C([H])(N2C(=O)N(c3c(Cl)c(OC([H])([H])[H])c([H])c(OC([H])([H])[H])c3Cl)C([H])([H])c3c([H])nc(N([H])C([H])([H])[H])nc32)C([H])([H])C1([H])[H])=C(/[H])C([H])([H])N(C([H])([H])[H])C([H])([H])[H]
     RDKit          3D

 72 75  0  0  0  0  0  0  0  0999 V2000
    1.7552   -2.4363    4.7587 C   0  0  0  0  0  0  0  0  0  0  0  0
    0.3512   -2.5205    5.1080 N   0  0  0  0  0  0  0  0  0  0  0  0
   -0.6687   -1.9515    4.2898 C   0  0  0  0  0  0  0  0  0  0  0  0
   -1.9482   -2.0595    4.6626 N   0  0  0  0  0  0  0  0  0  0  0  0
   -2.9949   -1.5695    3.9860 C   0  0  0  0  0  0  0  0  0  0  0  0
   -2.7213   -0.8845    2.7834 C   0  0  0  0  0  0  0  0  0  0  0  0
   -3.8329   -0.2956    2.0298 C   0  0  0  0  0  0  0  0  0  0  0  0
   -3.4205    0.2362    0.7707 N   0  0  0  0  0  0  0  0  0  0  0  0
   -2.0674    0.3515    0.3937 C   0  0  0  0  0  0  0  0  0  0  0  0
   -1.7689    0.9262   -0.6992 O   0  0  0  0  0  0  0  0  0  0  0  0
   -1.0273   -0.1438    1.1798 N   0  0  0  0  0  0  0  0  0  0  0  0
    0.3475   -0.0474    0.8306 C   0  0  0  0  0  0  0  0  0  0  0  0
    0.7611   -0.6232   -0.4736 C   0  0  0  0  0  0  0  0  0  0  0  0
    2.2578   -0.5041   -0.6157 C   0  0  0  0  0  0  0  0  0  0  0  0
    2.9072    0.5610    0.0513 N   0  0  0  0  0  0  0  0  0  0  0  0
    2.2035    1.5475    0.8803 C   0  0  0  0  0  0  0  0  0  0  0  0
    0.7364    1.4367    0.7516 C   0  0  0  0  0  0  0  0  0  0  0  0
    4.3012    0.7628   -0.0176 C   0  0  0  0  0  0  0  0  0  0  0  0
    4.7228    1.8054    0.6485 O   0  0  0  0  0  0  0  0  0  0  0  0
    5.3489    0.0560   -0.6700 C   0  0  0  0  0  0  0  0  0  0  0  0
    5.3537   -1.0174   -1.4145 C   0  0  0  0  0  0  0  0  0  0  0  0
    6.6090   -1.5937   -2.0132 C   0  0  0  0  0  0  0  0  0  0  0  0
    7.7922   -0.8421   -1.7470 N   0  0  0  0  0  0  0  0  0  0  0  0
    8.9025   -1.6817   -2.2725 C   0  0  0  0  0  0  0  0  0  0  0  0
    7.8633    0.3509   -2.6243 C   0  0  0  0  0  0  0  0  0  0  0  0
   -1.3957   -0.7841    2.4138 C   0  0  0  0  0  0  0  0  0  0  0  0
   -0.3863   -1.3017    3.1437 N   0  0  0  0  0  0  0  0  0  0  0  0
   -4.4456    0.6736   -0.1598 C   0  0  0  0  0  0  0  0  0  0  0  0
   -4.5840    2.0141   -0.3753 C   0  0  0  0  0  0  0  0  0  0  0  0
   -3.5928    3.2156    0.4148 Cl  0  0  0  0  0  0  0  0  0  0  0  0
   -5.5655    2.4505   -1.2727 C   0  0  0  0  0  0  0  0  0  0  0  0
   -5.6810    3.8089   -1.4690 O   0  0  0  0  0  0  0  0  0  0  0  0
   -6.6201    4.3818   -2.3394 C   0  0  0  0  0  0  0  0  0  0  0  0
   -6.3725    1.5102   -1.9207 C   0  0  0  0  0  0  0  0  0  0  0  0
   -6.2243    0.1666   -1.6964 C   0  0  0  0  0  0  0  0  0  0  0  0
   -7.0207   -0.7656   -2.3345 O   0  0  0  0  0  0  0  0  0  0  0  0
   -8.0046   -0.3051   -3.2395 C   0  0  0  0  0  0  0  0  0  0  0  0
   -5.2386   -0.2340   -0.7976 C   0  0  0  0  0  0  0  0  0  0  0  0
   -5.0618   -1.9465   -0.5321 Cl  0  0  0  0  0  0  0  0  0  0  0  0
    1.9552   -3.3115    4.0914 H   0  0  0  0  0  0  0  0  0  0  0  0
    1.9630   -1.5296    4.1748 H   0  0  0  0  0  0  0  0  0  0  0  0
    2.3985   -2.5078    5.6710 H   0  0  0  0  0  0  0  0  0  0  0  0
    0.1089   -3.0177    5.9899 H   0  0  0  0  0  0  0  0  0  0  0  0
   -4.0293   -1.6519    4.2796 H   0  0  0  0  0  0  0  0  0  0  0  0
   -4.7024   -0.9951    1.9394 H   0  0  0  0  0  0  0  0  0  0  0  0
   -4.2162    0.5948    2.6253 H   0  0  0  0  0  0  0  0  0  0  0  0
    1.0112   -0.5100    1.6110 H   0  0  0  0  0  0  0  0  0  0  0  0
    0.3369   -0.0659   -1.3607 H   0  0  0  0  0  0  0  0  0  0  0  0
    0.5012   -1.7045   -0.5805 H   0  0  0  0  0  0  0  0  0  0  0  0
    2.6789   -1.4650   -0.1945 H   0  0  0  0  0  0  0  0  0  0  0  0
    2.4803   -0.4920   -1.7128 H   0  0  0  0  0  0  0  0  0  0  0  0
    2.5804    1.4997    1.9360 H   0  0  0  0  0  0  0  0  0  0  0  0
    2.5002    2.5832    0.5380 H   0  0  0  0  0  0  0  0  0  0  0  0
    0.4489    1.8745   -0.2418 H   0  0  0  0  0  0  0  0  0  0  0  0
    0.1626    1.9791    1.5114 H   0  0  0  0  0  0  0  0  0  0  0  0
    6.4163    0.4466   -0.5362 H   0  0  0  0  0  0  0  0  0  0  0  0
    4.4317   -1.5275   -1.6165 H   0  0  0  0  0  0  0  0  0  0  0  0
    6.4905   -1.7001   -3.1179 H   0  0  0  0  0  0  0  0  0  0  0  0
    6.7116   -2.6266   -1.6177 H   0  0  0  0  0  0  0  0  0  0  0  0
    8.8027   -1.6291   -3.3731 H   0  0  0  0  0  0  0  0  0  0  0  0
    9.8562   -1.3138   -1.8906 H   0  0  0  0  0  0  0  0  0  0  0  0
    8.6887   -2.7411   -1.9536 H   0  0  0  0  0  0  0  0  0  0  0  0
    8.2148    1.2040   -2.0083 H   0  0  0  0  0  0  0  0  0  0  0  0
    6.7981    0.5555   -2.8980 H   0  0  0  0  0  0  0  0  0  0  0  0
    8.4644    0.1921   -3.5142 H   0  0  0  0  0  0  0  0  0  0  0  0
   -6.3183    5.4313   -2.5842 H   0  0  0  0  0  0  0  0  0  0  0  0
   -7.6053    4.4729   -1.8245 H   0  0  0  0  0  0  0  0  0  0  0  0
   -6.6578    3.7732   -3.2575 H   0  0  0  0  0  0  0  0  0  0  0  0
   -7.1223    1.8898   -2.6115 H   0  0  0  0  0  0  0  0  0  0  0  0
   -8.5700   -1.1432   -3.6963 H   0  0  0  0  0  0  0  0  0  0  0  0
   -7.5612    0.3784   -3.9994 H   0  0  0  0  0  0  0  0  0  0  0  0
   -8.7884    0.3099   -2.7127 H   0  0  0  0  0  0  0  0  0  0  0  0
  1  2  1  0
  2  3  1  0
  3  4  2  0
  4  5  1  0
  5  6  2  0
  6  7  1  0
  7  8  1  0
  8  9  1  0
  9 10  2  0
  9 11  1  0
 11 12  1  0
 12 13  1  0
 13 14  1  0
 14 15  1  0
 15 16  1  0
 16 17  1  0
 15 18  1  0
 18 19  2  0
 18 20  1  0
 20 21  2  0
 21 22  1  0
 22 23  1  0
 23 24  1  0
 23 25  1  0
 11 26  1  0
 26 27  2  0
  8 28  1  0
 28 29  2  0
 29 30  1  0
 29 31  1  0
 31 32  1  0
 32 33  1  0
 31 34  2  0
 34 35  1  0
 35 36  1  0
 36 37  1  0
 35 38  2  0
 38 39  1  0
 27  3  1  0
 38 28  1  0
 26  6  1  0
 17 12  1  0
  1 40  1  0
  1 41  1  0
  1 42  1  0
  2 43  1  0
  5 44  1  0
  7 45  1  0
  7 46  1  0
 12 47  1  0
 13 48  1  0
 13 49  1  0
 14 50  1  0
 14 51  1  0
 16 52  1  0
 16 53  1  0
 17 54  1  0
 17 55  1  0
 20 56  1  0
 21 57  1  0
 22 58  1  0
 22 59  1  0
 24 60  1  0
 24 61  1  0
 24 62  1  0
 25 63  1  0
 25 64  1  0
 25 65  1  0
 33 66  1  0
 33 67  1  0
 33 68  1  0
 34 69  1  0
 37 70  1  0
 37 71  1  0
 37 72  1  0
M  END
$$$$
[H]c1nc2c([H])c([H])c(N(c3c([H])c(OC([H])([H])[H])c([H])c(OC([H])([H])[H])c3[H])C([H])([H])C([H])([H])N([H])C([H])(C([H])([H])[H])C([H])([H])[H])nc2c([H])c1-c1c([H])nn(C([H])([H])[H])c1[H]
     RDKit          3D

 63 66  0  0  0  0  0  0  0  0999 V2000
   -7.2212    1.1292   -1.2129 C   0  0  0  0  0  0  0  0  0  0  0  0
   -5.9915    0.4957   -1.5183 O   0  0  0  0  0  0  0  0  0  0  0  0
   -4.7882    0.9975   -1.0126 C   0  0  0  0  0  0  0  0  0  0  0  0
   -4.7684    2.1171   -0.2084 C   0  0  0  0  0  0  0  0  0  0  0  0
   -3.5781    2.5894    0.2750 C   0  0  0  0  0  0  0  0  0  0  0  0
   -3.5529    3.7092    1.0796 O   0  0  0  0  0  0  0  0  0  0  0  0
   -4.7370    4.3930    1.4252 C   0  0  0  0  0  0  0  0  0  0  0  0
   -2.4031    1.9114   -0.0677 C   0  0  0  0  0  0  0  0  0  0  0  0
   -2.3730    0.7931   -0.8654 C   0  0  0  0  0  0  0  0  0  0  0  0
   -3.6139    0.3505   -1.3334 C   0  0  0  0  0  0  0  0  0  0  0  0
   -1.1800    0.1313   -1.2404 N   0  0  0  0  0  0  0  0  0  0  0  0
   -1.2300   -1.2225   -1.7521 C   0  0  0  0  0  0  0  0  0  0  0  0
   -1.7427   -2.2101   -0.7348 C   0  0  0  0  0  0  0  0  0  0  0  0
   -0.8680   -2.2239    0.4348 N   0  0  0  0  0  0  0  0  0  0  0  0
   -1.4503   -3.1786    1.3548 C   0  0  0  0  0  0  0  0  0  0  0  0
   -1.4862   -4.5686    0.7855 C   0  0  0  0  0  0  0  0  0  0  0  0
   -0.6517   -3.1497    2.6648 C   0  0  0  0  0  0  0  0  0  0  0  0
    0.0627    0.7934   -1.1806 C   0  0  0  0  0  0  0  0  0  0  0  0
    0.1218    2.1142   -1.6213 C   0  0  0  0  0  0  0  0  0  0  0  0
    1.2785    2.8519   -1.6021 C   0  0  0  0  0  0  0  0  0  0  0  0
    2.4166    2.2097   -1.1114 C   0  0  0  0  0  0  0  0  0  0  0  0
    3.5658    2.8728   -1.0677 N   0  0  0  0  0  0  0  0  0  0  0  0
    4.6950    2.3090   -0.6056 C   0  0  0  0  0  0  0  0  0  0  0  0
    4.6982    0.9854   -0.1486 C   0  0  0  0  0  0  0  0  0  0  0  0
    3.5146    0.3015   -0.1934 C   0  0  0  0  0  0  0  0  0  0  0  0
    2.3587    0.9002   -0.6737 C   0  0  0  0  0  0  0  0  0  0  0  0
    1.1930    0.2004   -0.7086 N   0  0  0  0  0  0  0  0  0  0  0  0
    5.9216    0.3734    0.3563 C   0  0  0  0  0  0  0  0  0  0  0  0
    6.9352    1.0429    1.0162 C   0  0  0  0  0  0  0  0  0  0  0  0
    7.8976    0.1343    1.3278 N   0  0  0  0  0  0  0  0  0  0  0  0
    7.5365   -1.0744    0.8950 N   0  0  0  0  0  0  0  0  0  0  0  0
    8.3499   -2.2668    1.0717 C   0  0  0  0  0  0  0  0  0  0  0  0
    6.3386   -0.9402    0.3040 C   0  0  0  0  0  0  0  0  0  0  0  0
   -7.0759    2.2111   -1.4237 H   0  0  0  0  0  0  0  0  0  0  0  0
   -7.4247    0.9417   -0.1384 H   0  0  0  0  0  0  0  0  0  0  0  0
   -8.0004    0.6533   -1.8212 H   0  0  0  0  0  0  0  0  0  0  0  0
   -5.7015    2.6149    0.0342 H   0  0  0  0  0  0  0  0  0  0  0  0
   -5.0930    4.9357    0.5244 H   0  0  0  0  0  0  0  0  0  0  0  0
   -5.4809    3.6334    1.7806 H   0  0  0  0  0  0  0  0  0  0  0  0
   -4.5614    5.0979    2.2678 H   0  0  0  0  0  0  0  0  0  0  0  0
   -1.5074    2.3428    0.3698 H   0  0  0  0  0  0  0  0  0  0  0  0
   -3.6744   -0.5112   -1.9650 H   0  0  0  0  0  0  0  0  0  0  0  0
   -0.2105   -1.5650   -2.0556 H   0  0  0  0  0  0  0  0  0  0  0  0
   -1.8495   -1.2961   -2.6731 H   0  0  0  0  0  0  0  0  0  0  0  0
   -1.6539   -3.2196   -1.1916 H   0  0  0  0  0  0  0  0  0  0  0  0
   -2.7789   -2.0734   -0.4288 H   0  0  0  0  0  0  0  0  0  0  0  0
    0.0798   -2.5192    0.1440 H   0  0  0  0  0  0  0  0  0  0  0  0
   -2.4970   -2.8902    1.6177 H   0  0  0  0  0  0  0  0  0  0  0  0
   -1.7035   -5.2935    1.6105 H   0  0  0  0  0  0  0  0  0  0  0  0
   -0.5787   -4.8410    0.2278 H   0  0  0  0  0  0  0  0  0  0  0  0
   -2.3711   -4.6318    0.0992 H   0  0  0  0  0  0  0  0  0  0  0  0
   -0.3946   -2.1274    2.9680 H   0  0  0  0  0  0  0  0  0  0  0  0
   -1.2864   -3.6609    3.4413 H   0  0  0  0  0  0  0  0  0  0  0  0
    0.2483   -3.7882    2.4964 H   0  0  0  0  0  0  0  0  0  0  0  0
   -0.7575    2.6299   -2.0133 H   0  0  0  0  0  0  0  0  0  0  0  0
    1.3810    3.8646   -1.9277 H   0  0  0  0  0  0  0  0  0  0  0  0
    5.6548    2.8236   -0.5550 H   0  0  0  0  0  0  0  0  0  0  0  0
    3.4355   -0.7284    0.1444 H   0  0  0  0  0  0  0  0  0  0  0  0
    7.0352    2.0836    1.2804 H   0  0  0  0  0  0  0  0  0  0  0  0
    8.2211   -2.9381    0.1813 H   0  0  0  0  0  0  0  0  0  0  0  0
    8.0646   -2.8632    1.9464 H   0  0  0  0  0  0  0  0  0  0  0  0
    9.4471   -2.0026    1.0746 H   0  0  0  0  0  0  0  0  0  0  0  0
    5.7858   -1.7540   -0.1469 H   0  0  0  0  0  0  0  0  0  0  0  0
  1  2  1  0
  2  3  1  0
  3  4  2  0
  4  5  1  0
  5  6  1  0
  6  7  1  0
  5  8  2  0
  8  9  1  0
  9 10  2  0
  9 11  1  0
 11 12  1  0
 12 13  1  0
 13 14  1  0
 14 15  1  0
 15 16  1  0
 15 17  1  0
 11 18  1  0
 18 19  2  0
 19 20  1  0
 20 21  2  0
 21 22  1  0
 22 23  2  0
 23 24  1  0
 24 25  2  0
 25 26  1  0
 26 27  2  0
 24 28  1  0
 28 29  1  0
 29 30  2  0
 30 31  1  0
 31 32  1  0
 31 33  1  0
 10  3  1  0
 27 18  1  0
 33 28  2  0
 26 21  1  0
  1 34  1  0
  1 35  1  0
  1 36  1  0
  4 37  1  0
  7 38  1  0
  7 39  1  0
  7 40  1  0
  8 41  1  0
 10 42  1  0
 12 43  1  0
 12 44  1  0
 13 45  1  0
 13 46  1  0
 14 47  1  0
 15 48  1  0
 16 49  1  0
 16 50  1  0
 16 51  1  0
 17 52  1  0
 17 53  1  0
 17 54  1  0
 19 55  1  0
 20 56  1  0
 23 57  1  0
 25 58  1  0
 29 59  1  0
 32 60  1  0
 32 61  1  0
 32 62  1  0
 33 63  1  0
M  END
$$$$
[H]c1nc(-c2c(C([H])([H])[H])nn(C([H])([H])[H])c2[H])c([H])c2c1C([H])([H])N(c1c(F)c(OC([H])([H])[H])c([H])c(OC([H])([H])[H])c1F)C(=O)N2C([H])([H])c1c([H])c([H])c2c(c1[H])OC([H])([H])C([H])([H])O2
     RDKit          3D

 68 73  0  0  0  0  0  0  0  0999 V2000
    6.8848    1.8109    3.3484 C   0  0  0  0  0  0  0  0  0  0  0  0
    5.6375    1.2931    2.9686 O   0  0  0  0  0  0  0  0  0  0  0  0
    5.3228    0.8627    1.6938 C   0  0  0  0  0  0  0  0  0  0  0  0
    6.2646    0.9253    0.6963 C   0  0  0  0  0  0  0  0  0  0  0  0
    5.9502    0.4977   -0.5646 C   0  0  0  0  0  0  0  0  0  0  0  0
    6.8480    0.5344   -1.6029 O   0  0  0  0  0  0  0  0  0  0  0  0
    8.1656    1.0025   -1.5108 C   0  0  0  0  0  0  0  0  0  0  0  0
    4.6724   -0.0030   -0.8389 C   0  0  0  0  0  0  0  0  0  0  0  0
    4.3425   -0.4330   -2.0758 F   0  0  0  0  0  0  0  0  0  0  0  0
    3.7178   -0.0719    0.1493 C   0  0  0  0  0  0  0  0  0  0  0  0
    2.3856   -0.5736   -0.1092 N   0  0  0  0  0  0  0  0  0  0  0  0
    2.0431   -1.8323    0.4644 C   0  0  0  0  0  0  0  0  0  0  0  0
    0.6190   -2.1641    0.2894 C   0  0  0  0  0  0  0  0  0  0  0  0
    0.1389   -3.3231    0.9316 C   0  0  0  0  0  0  0  0  0  0  0  0
   -1.1352   -3.6600    0.7756 N   0  0  0  0  0  0  0  0  0  0  0  0
   -2.0231   -2.9426    0.0188 C   0  0  0  0  0  0  0  0  0  0  0  0
   -1.5675   -1.8138   -0.6090 C   0  0  0  0  0  0  0  0  0  0  0  0
   -0.2473   -1.4267   -0.4720 C   0  0  0  0  0  0  0  0  0  0  0  0
    0.1396   -0.2171   -1.1112 N   0  0  0  0  0  0  0  0  0  0  0  0
   -0.7694    0.5760   -1.9100 C   0  0  0  0  0  0  0  0  0  0  0  0
   -1.5567    1.5141   -1.0942 C   0  0  0  0  0  0  0  0  0  0  0  0
   -1.4285    1.5908    0.2816 C   0  0  0  0  0  0  0  0  0  0  0  0
   -2.1953    2.4897    1.0246 C   0  0  0  0  0  0  0  0  0  0  0  0
   -3.0921    3.3165    0.4121 C   0  0  0  0  0  0  0  0  0  0  0  0
   -3.8654    4.2180    1.1266 O   0  0  0  0  0  0  0  0  0  0  0  0
   -4.4487    5.3624    0.5347 C   0  0  0  0  0  0  0  0  0  0  0  0
   -4.7868    5.1828   -0.9119 C   0  0  0  0  0  0  0  0  0  0  0  0
   -4.1524    4.1063   -1.5428 O   0  0  0  0  0  0  0  0  0  0  0  0
   -3.2329    3.2529   -0.9563 C   0  0  0  0  0  0  0  0  0  0  0  0
   -2.4630    2.3507   -1.7020 C   0  0  0  0  0  0  0  0  0  0  0  0
    1.4838    0.1788   -0.9026 C   0  0  0  0  0  0  0  0  0  0  0  0
    1.8854    1.2524   -1.4530 O   0  0  0  0  0  0  0  0  0  0  0  0
   -3.3839   -3.4375   -0.0132 C   0  0  0  0  0  0  0  0  0  0  0  0
   -3.9036   -4.4206    0.8359 C   0  0  0  0  0  0  0  0  0  0  0  0
   -5.1727   -4.6759    0.5335 N   0  0  0  0  0  0  0  0  0  0  0  0
   -6.0495   -5.6444    1.2108 C   0  0  0  0  0  0  0  0  0  0  0  0
   -5.4762   -3.8943   -0.4728 N   0  0  0  0  0  0  0  0  0  0  0  0
   -4.4160   -3.1190   -0.8426 C   0  0  0  0  0  0  0  0  0  0  0  0
   -4.4470   -2.1413   -1.9635 C   0  0  0  0  0  0  0  0  0  0  0  0
    4.0416    0.3578    1.4077 C   0  0  0  0  0  0  0  0  0  0  0  0
    3.1436    0.3163    2.4284 F   0  0  0  0  0  0  0  0  0  0  0  0
    7.7192    1.1634    3.0457 H   0  0  0  0  0  0  0  0  0  0  0  0
    6.9575    1.9181    4.4672 H   0  0  0  0  0  0  0  0  0  0  0  0
    7.0519    2.8040    2.9078 H   0  0  0  0  0  0  0  0  0  0  0  0
    7.2559    1.3259    0.9472 H   0  0  0  0  0  0  0  0  0  0  0  0
    8.2377    1.8408   -0.7674 H   0  0  0  0  0  0  0  0  0  0  0  0
    8.8607    0.1937   -1.2150 H   0  0  0  0  0  0  0  0  0  0  0  0
    8.4667    1.3723   -2.5302 H   0  0  0  0  0  0  0  0  0  0  0  0
    2.6445   -2.6012   -0.1267 H   0  0  0  0  0  0  0  0  0  0  0  0
    2.3426   -1.9057    1.5390 H   0  0  0  0  0  0  0  0  0  0  0  0
    0.7968   -3.9232    1.5381 H   0  0  0  0  0  0  0  0  0  0  0  0
   -2.2154   -1.2087   -1.1947 H   0  0  0  0  0  0  0  0  0  0  0  0
   -1.4393    0.0093   -2.5577 H   0  0  0  0  0  0  0  0  0  0  0  0
   -0.1704    1.2401   -2.6135 H   0  0  0  0  0  0  0  0  0  0  0  0
   -0.7240    0.9375    0.7471 H   0  0  0  0  0  0  0  0  0  0  0  0
   -2.0809    2.5380    2.1010 H   0  0  0  0  0  0  0  0  0  0  0  0
   -3.6787    6.1845    0.6292 H   0  0  0  0  0  0  0  0  0  0  0  0
   -5.3231    5.7220    1.1004 H   0  0  0  0  0  0  0  0  0  0  0  0
   -5.8911    5.0789   -1.0769 H   0  0  0  0  0  0  0  0  0  0  0  0
   -4.4962    6.1147   -1.4674 H   0  0  0  0  0  0  0  0  0  0  0  0
   -2.6090    2.3369   -2.7723 H   0  0  0  0  0  0  0  0  0  0  0  0
   -3.3403   -4.8845    1.6108 H   0  0  0  0  0  0  0  0  0  0  0  0
   -5.3972   -6.3141    1.8142 H   0  0  0  0  0  0  0  0  0  0  0  0
   -6.5337   -6.2889    0.4450 H   0  0  0  0  0  0  0  0  0  0  0  0
   -6.7563   -5.0783    1.8352 H   0  0  0  0  0  0  0  0  0  0  0  0
   -5.3895   -2.3504   -2.5542 H   0  0  0  0  0  0  0  0  0  0  0  0
   -4.5269   -1.0932   -1.6260 H   0  0  0  0  0  0  0  0  0  0  0  0
   -3.6350   -2.3296   -2.6986 H   0  0  0  0  0  0  0  0  0  0  0  0
  1  2  1  0
  2  3  1  0
  3  4  2  0
  4  5  1  0
  5  6  1  0
  6  7  1  0
  5  8  2  0
  8  9  1  0
  8 10  1  0
 10 11  1  0
 11 12  1  0
 12 13  1  0
 13 14  2  0
 14 15  1  0
 15 16  2  0
 16 17  1  0
 17 18  2  0
 18 19  1  0
 19 20  1  0
 20 21  1  0
 21 22  2  0
 22 23  1  0
 23 24  2  0
 24 25  1  0
 25 26  1  0
 26 27  1  0
 27 28  1  0
 28 29  1  0
 29 30  2  0
 19 31  1  0
 31 32  2  0
 16 33  1  0
 33 34  2  0
 34 35  1  0
 35 36  1  0
 35 37  1  0
 37 38  2  0
 38 39  1  0
 10 40  2  0
 40 41  1  0
 40  3  1  0
 31 11  1  0
 38 33  1  0
 18 13  1  0
 30 21  1  0
 29 24  1  0
  1 42  1  0
  1 43  1  0
  1 44  1  0
  4 45  1  0
  7 46  1  0
  7 47  1  0
  7 48  1  0
 12 49  1  0
 12 50  1  0
 14 51  1  0
 17 52  1  0
 20 53  1  0
 20 54  1  0
 22 55  1  0
 23 56  1  0
 26 57  1  0
 26 58  1  0
 27 59  1  0
 27 60  1  0
 30 61  1  0
 34 62  1  0
 36 63  1  0
 36 64  1  0
 36 65  1  0
 39 66  1  0
 39 67  1  0
 39 68  1  0
M  END
$$$$
[H]c1nc(-c2c(C([H])([H])[H])nn(C([H])([H])[H])c2[H])c([H])c2c1C([H])([H])N(c1c(F)c(OC([H])([H])[H])c([H])c(OC([H])([H])[H])c1F)C(=O)N2C([H])([H])C1([H])C([H])([H])C(=O)N(C([H])([H])[H])C1([H])[H]
     RDKit          3D

 66 70  0  0  0  0  0  0  0  0999 V2000
    7.7517   -0.6437    2.3110 C   0  0  0  0  0  0  0  0  0  0  0  0
    6.3471   -0.7918    2.2677 O   0  0  0  0  0  0  0  0  0  0  0  0
    5.6197   -0.4520    1.1269 C   0  0  0  0  0  0  0  0  0  0  0  0
    6.3060    0.0338    0.0377 C   0  0  0  0  0  0  0  0  0  0  0  0
    5.6007    0.3796   -1.1124 C   0  0  0  0  0  0  0  0  0  0  0  0
    6.2635    0.8689   -2.2179 O   0  0  0  0  0  0  0  0  0  0  0  0
    7.6692    1.0331   -2.2165 C   0  0  0  0  0  0  0  0  0  0  0  0
    4.2234    0.2257   -1.1315 C   0  0  0  0  0  0  0  0  0  0  0  0
    3.5855    0.5759   -2.2733 F   0  0  0  0  0  0  0  0  0  0  0  0
    3.5247   -0.2597   -0.0469 C   0  0  0  0  0  0  0  0  0  0  0  0
    2.0873   -0.4130   -0.0820 N   0  0  0  0  0  0  0  0  0  0  0  0
    1.5386   -1.3529   -0.9898 C   0  0  0  0  0  0  0  0  0  0  0  0
    0.0811   -1.5199   -0.8568 C   0  0  0  0  0  0  0  0  0  0  0  0
   -0.4906   -2.4976   -1.6441 C   0  0  0  0  0  0  0  0  0  0  0  0
   -1.7951   -2.7605   -1.6374 N   0  0  0  0  0  0  0  0  0  0  0  0
   -2.6162   -2.0481   -0.8285 C   0  0  0  0  0  0  0  0  0  0  0  0
   -2.0687   -1.0762   -0.0415 C   0  0  0  0  0  0  0  0  0  0  0  0
   -0.7260   -0.7614   -0.0082 C   0  0  0  0  0  0  0  0  0  0  0  0
   -0.1655    0.2128    0.8392 N   0  0  0  0  0  0  0  0  0  0  0  0
   -0.9442    0.9773    1.7285 C   0  0  0  0  0  0  0  0  0  0  0  0
   -1.4373    2.3026    1.3447 C   0  0  0  0  0  0  0  0  0  0  0  0
   -2.3307    2.4816    0.1790 C   0  0  0  0  0  0  0  0  0  0  0  0
   -2.9494    3.8036    0.4534 N   0  0  0  0  0  0  0  0  0  0  0  0
   -3.2322    4.8140   -0.5134 C   0  0  0  0  0  0  0  0  0  0  0  0
   -3.1935    3.8422    1.8508 C   0  0  0  0  0  0  0  0  0  0  0  0
   -3.9688    4.5858    2.4663 O   0  0  0  0  0  0  0  0  0  0  0  0
   -2.3412    2.8102    2.4931 C   0  0  0  0  0  0  0  0  0  0  0  0
    1.2740    0.3528    0.7646 C   0  0  0  0  0  0  0  0  0  0  0  0
    1.8154    1.2078    1.5010 O   0  0  0  0  0  0  0  0  0  0  0  0
   -4.0498   -2.3264   -0.8106 C   0  0  0  0  0  0  0  0  0  0  0  0
   -4.9683   -1.6712   -0.0320 C   0  0  0  0  0  0  0  0  0  0  0  0
   -6.1816   -2.1969   -0.2840 N   0  0  0  0  0  0  0  0  0  0  0  0
   -7.4409   -1.8066    0.3165 C   0  0  0  0  0  0  0  0  0  0  0  0
   -6.0527   -3.1473   -1.1831 N   0  0  0  0  0  0  0  0  0  0  0  0
   -4.7424   -3.2551   -1.5327 C   0  0  0  0  0  0  0  0  0  0  0  0
   -4.1836   -4.2080   -2.5169 C   0  0  0  0  0  0  0  0  0  0  0  0
    4.2446   -0.5953    1.0804 C   0  0  0  0  0  0  0  0  0  0  0  0
    3.6459   -1.0795    2.1944 F   0  0  0  0  0  0  0  0  0  0  0  0
    8.0393   -0.8310    3.3852 H   0  0  0  0  0  0  0  0  0  0  0  0
    8.0781    0.3601    1.9809 H   0  0  0  0  0  0  0  0  0  0  0  0
    8.2679   -1.4407    1.7230 H   0  0  0  0  0  0  0  0  0  0  0  0
    7.3791    0.1432    0.0789 H   0  0  0  0  0  0  0  0  0  0  0  0
    8.1576    0.0912   -1.8649 H   0  0  0  0  0  0  0  0  0  0  0  0
    7.9561    1.8232   -1.5075 H   0  0  0  0  0  0  0  0  0  0  0  0
    8.0298    1.3464   -3.2119 H   0  0  0  0  0  0  0  0  0  0  0  0
    1.7177   -1.0964   -2.0642 H   0  0  0  0  0  0  0  0  0  0  0  0
    1.9980   -2.3501   -0.7493 H   0  0  0  0  0  0  0  0  0  0  0  0
    0.1257   -3.1091   -2.3212 H   0  0  0  0  0  0  0  0  0  0  0  0
   -2.7653   -0.5413    0.5924 H   0  0  0  0  0  0  0  0  0  0  0  0
   -0.3929    1.1150    2.7114 H   0  0  0  0  0  0  0  0  0  0  0  0
   -1.8363    0.3580    2.0495 H   0  0  0  0  0  0  0  0  0  0  0  0
   -0.6320    3.0954    1.3414 H   0  0  0  0  0  0  0  0  0  0  0  0
   -1.8141    2.5964   -0.7892 H   0  0  0  0  0  0  0  0  0  0  0  0
   -3.1361    1.7524    0.0492 H   0  0  0  0  0  0  0  0  0  0  0  0
   -3.3693    4.3096   -1.5012 H   0  0  0  0  0  0  0  0  0  0  0  0
   -2.4371    5.5752   -0.5711 H   0  0  0  0  0  0  0  0  0  0  0  0
   -4.1843    5.3309   -0.2785 H   0  0  0  0  0  0  0  0  0  0  0  0
   -2.9943    2.0019    2.8665 H   0  0  0  0  0  0  0  0  0  0  0  0
   -1.7515    3.1883    3.3332 H   0  0  0  0  0  0  0  0  0  0  0  0
   -4.7760   -0.8681    0.6699 H   0  0  0  0  0  0  0  0  0  0  0  0
   -7.8986   -2.6897    0.7670 H   0  0  0  0  0  0  0  0  0  0  0  0
   -8.0666   -1.3635   -0.4999 H   0  0  0  0  0  0  0  0  0  0  0  0
   -7.2332   -1.0837    1.1254 H   0  0  0  0  0  0  0  0  0  0  0  0
   -3.4119   -4.8092   -1.9976 H   0  0  0  0  0  0  0  0  0  0  0  0
   -3.7461   -3.6870   -3.4041 H   0  0  0  0  0  0  0  0  0  0  0  0
   -5.0032   -4.8621   -2.9088 H   0  0  0  0  0  0  0  0  0  0  0  0
  1  2  1  0
  2  3  1  0
  3  4  2  0
  4  5  1  0
  5  6  1  0
  6  7  1  0
  5  8  2  0
  8  9  1  0
  8 10  1  0
 10 11  1  0
 11 12  1  0
 12 13  1  0
 13 14  2  0
 14 15  1  0
 15 16  2  0
 16 17  1  0
 17 18  2  0
 18 19  1  0
 19 20  1  0
 20 21  1  0
 21 22  1  0
 22 23  1  0
 23 24  1  0
 23 25  1  0
 25 26  2  0
 25 27  1  0
 19 28  1  0
 28 29  2  0
 16 30  1  0
 30 31  2  0
 31 32  1  0
 32 33  1  0
 32 34  1  0
 34 35  2  0
 35 36  1  0
 10 37  2  0
 37 38  1  0
 37  3  1  0
 28 11  1  0
 35 30  1  0
 18 13  1  0
 27 21  1  0
  1 39  1  0
  1 40  1  0
  1 41  1  0
  4 42  1  0
  7 43  1  0
  7 44  1  0
  7 45  1  0
 12 46  1  0
 12 47  1  0
 14 48  1  0
 17 49  1  0
 20 50  1  0
 20 51  1  0
 21 52  1  0
 22 53  1  0
 22 54  1  0
 24 55  1  0
 24 56  1  0
 24 57  1  0
 27 58  1  0
 27 59  1  0
 31 60  1  0
 33 61  1  0
 33 62  1  0
 33 63  1  0
 36 64  1  0
 36 65  1  0
 36 66  1  0
M  END
$$$$
[H]c1nc(N([H])[H])c(-c2nn(-c3c(Cl)c(OC([H])([H])[H])c([H])c(OC([H])([H])[H])c3Cl)c(=O)c(C([H])([H])[H])c2[H])nc1-c1c([H])nn(C2([H])C([H])([H])C([H])([H])N(C([H])([H])C([H])([H])OC([H])([H])[H])C([H])([H])C2([H])[H])c1[H]
     RDKit          3D

 74 78  0  0  0  0  0  0  0  0999 V2000
    9.9689   -1.7257    3.0558 C   0  0  0  0  0  0  0  0  0  0  0  0
    9.3007   -0.5462    3.2441 O   0  0  0  0  0  0  0  0  0  0  0  0
    8.7308    0.0269    2.1302 C   0  0  0  0  0  0  0  0  0  0  0  0
    7.7283   -0.8365    1.4856 C   0  0  0  0  0  0  0  0  0  0  0  0
    7.0940   -0.2901    0.3234 N   0  0  0  0  0  0  0  0  0  0  0  0
    6.2324    0.8161    0.5578 C   0  0  0  0  0  0  0  0  0  0  0  0
    4.9345    0.4879    1.2659 C   0  0  0  0  0  0  0  0  0  0  0  0
    4.2483   -0.6742    0.6164 C   0  0  0  0  0  0  0  0  0  0  0  0
    4.9578   -0.9481   -0.6948 C   0  0  0  0  0  0  0  0  0  0  0  0
    6.3872   -1.3171   -0.3909 C   0  0  0  0  0  0  0  0  0  0  0  0
    2.8436   -0.3874    0.3808 N   0  0  0  0  0  0  0  0  0  0  0  0
    2.3609    0.7860   -0.0393 C   0  0  0  0  0  0  0  0  0  0  0  0
    0.9736    0.7075   -0.1921 C   0  0  0  0  0  0  0  0  0  0  0  0
    0.6561   -0.5687    0.1579 C   0  0  0  0  0  0  0  0  0  0  0  0
    1.8145   -1.2055    0.5009 N   0  0  0  0  0  0  0  0  0  0  0  0
    0.1307    1.8154   -0.6589 C   0  0  0  0  0  0  0  0  0  0  0  0
    0.6598    3.0244   -1.0076 C   0  0  0  0  0  0  0  0  0  0  0  0
   -0.0559    4.0425   -1.4787 N   0  0  0  0  0  0  0  0  0  0  0  0
   -1.4355    3.8820   -1.6306 C   0  0  0  0  0  0  0  0  0  0  0  0
   -2.1405    4.9952   -2.1302 N   0  0  0  0  0  0  0  0  0  0  0  0
   -1.9757    2.7001   -1.2945 C   0  0  0  0  0  0  0  0  0  0  0  0
   -1.1855    1.6663   -0.8056 N   0  0  0  0  0  0  0  0  0  0  0  0
   -3.4114    2.3915   -1.4005 C   0  0  0  0  0  0  0  0  0  0  0  0
   -4.3661    3.1935   -1.8922 C   0  0  0  0  0  0  0  0  0  0  0  0
   -5.7230    2.7823   -1.9893 C   0  0  0  0  0  0  0  0  0  0  0  0
   -6.7202    3.6970   -2.5394 C   0  0  0  0  0  0  0  0  0  0  0  0
   -6.0669    1.5254   -1.5673 C   0  0  0  0  0  0  0  0  0  0  0  0
   -7.2477    1.0817   -1.6232 O   0  0  0  0  0  0  0  0  0  0  0  0
   -5.0972    0.7551   -1.0830 N   0  0  0  0  0  0  0  0  0  0  0  0
   -3.8341    1.1465   -0.9971 N   0  0  0  0  0  0  0  0  0  0  0  0
   -5.4582   -0.5488   -0.5947 C   0  0  0  0  0  0  0  0  0  0  0  0
   -4.9525   -1.6368   -1.2332 C   0  0  0  0  0  0  0  0  0  0  0  0
   -3.9069   -1.4591   -2.6206 Cl  0  0  0  0  0  0  0  0  0  0  0  0
   -5.2418   -2.9388   -0.8057 C   0  0  0  0  0  0  0  0  0  0  0  0
   -4.7015   -4.0052   -1.4889 O   0  0  0  0  0  0  0  0  0  0  0  0
   -4.8642   -5.3523   -1.2056 C   0  0  0  0  0  0  0  0  0  0  0  0
   -6.0487   -3.1290    0.2728 C   0  0  0  0  0  0  0  0  0  0  0  0
   -6.5946   -2.0290    0.9634 C   0  0  0  0  0  0  0  0  0  0  0  0
   -7.3566   -2.2501    1.9815 O   0  0  0  0  0  0  0  0  0  0  0  0
   -8.1016   -2.5015    2.9777 C   0  0  0  0  0  0  0  0  0  0  0  0
   -6.2638   -0.7400    0.4825 C   0  0  0  0  0  0  0  0  0  0  0  0
   -6.9413    0.6025    1.3545 Cl  0  0  0  0  0  0  0  0  0  0  0  0
   10.4099   -2.1147    4.0196 H   0  0  0  0  0  0  0  0  0  0  0  0
   10.8185   -1.5494    2.3828 H   0  0  0  0  0  0  0  0  0  0  0  0
    9.2799   -2.5308    2.6777 H   0  0  0  0  0  0  0  0  0  0  0  0
    9.6107    0.2463    1.4447 H   0  0  0  0  0  0  0  0  0  0  0  0
    8.3694    1.0332    2.4238 H   0  0  0  0  0  0  0  0  0  0  0  0
    8.2068   -1.7829    1.1635 H   0  0  0  0  0  0  0  0  0  0  0  0
    6.9283   -1.1314    2.2137 H   0  0  0  0  0  0  0  0  0  0  0  0
    6.7234    1.6676    1.1042 H   0  0  0  0  0  0  0  0  0  0  0  0
    5.9660    1.2588   -0.4219 H   0  0  0  0  0  0  0  0  0  0  0  0
    5.0782    0.3540    2.3564 H   0  0  0  0  0  0  0  0  0  0  0  0
    4.3108    1.3995    1.1793 H   0  0  0  0  0  0  0  0  0  0  0  0
    4.2590   -1.5940    1.2596 H   0  0  0  0  0  0  0  0  0  0  0  0
    4.4644   -1.8379   -1.1346 H   0  0  0  0  0  0  0  0  0  0  0  0
    4.8164   -0.1181   -1.3744 H   0  0  0  0  0  0  0  0  0  0  0  0
    6.3452   -2.2712    0.1780 H   0  0  0  0  0  0  0  0  0  0  0  0
    6.9081   -1.5104   -1.3491 H   0  0  0  0  0  0  0  0  0  0  0  0
    2.9154    1.6780   -0.2408 H   0  0  0  0  0  0  0  0  0  0  0  0
   -0.3430   -0.9855    0.1591 H   0  0  0  0  0  0  0  0  0  0  0  0
    1.7457    3.1922   -0.9053 H   0  0  0  0  0  0  0  0  0  0  0  0
   -2.2462    5.1391   -3.1812 H   0  0  0  0  0  0  0  0  0  0  0  0
   -2.5667    5.7188   -1.5345 H   0  0  0  0  0  0  0  0  0  0  0  0
   -4.1434    4.1829   -2.2462 H   0  0  0  0  0  0  0  0  0  0  0  0
   -7.7508    3.2975   -2.3579 H   0  0  0  0  0  0  0  0  0  0  0  0
   -6.5259    3.9426   -3.5927 H   0  0  0  0  0  0  0  0  0  0  0  0
   -6.6724    4.6322   -1.9105 H   0  0  0  0  0  0  0  0  0  0  0  0
   -5.5433   -5.5998   -0.3866 H   0  0  0  0  0  0  0  0  0  0  0  0
   -5.2616   -5.8355   -2.1522 H   0  0  0  0  0  0  0  0  0  0  0  0
   -3.8791   -5.8196   -0.9119 H   0  0  0  0  0  0  0  0  0  0  0  0
   -6.3020   -4.1294    0.6435 H   0  0  0  0  0  0  0  0  0  0  0  0
   -7.6236   -2.5244    4.0184 H   0  0  0  0  0  0  0  0  0  0  0  0
   -9.0388   -1.8384    3.1296 H   0  0  0  0  0  0  0  0  0  0  0  0
   -8.5899   -3.5416    2.9587 H   0  0  0  0  0  0  0  0  0  0  0  0
  1  2  1  0
  2  3  1  0
  3  4  1  0
  4  5  1  0
  5  6  1  0
  6  7  1  0
  7  8  1  0
  8  9  1  0
  9 10  1  0
  8 11  1  0
 11 12  1  0
 12 13  2  0
 13 14  1  0
 14 15  2  0
 13 16  1  0
 16 17  2  0
 17 18  1  0
 18 19  2  0
 19 20  1  0
 19 21  1  0
 21 22  2  0
 21 23  1  0
 23 24  1  0
 24 25  2  0
 25 26  1  0
 25 27  1  0
 27 28  2  0
 27 29  1  0
 29 30  1  0
 29 31  1  0
 31 32  2  0
 32 33  1  0
 32 34  1  0
 34 35  1  0
 35 36  1  0
 34 37  2  0
 37 38  1  0
 38 39  1  0
 39 40  1  0
 38 41  2  0
 41 42  1  0
 10  5  1  0
 15 11  1  0
 22 16  1  0
 30 23  2  0
 41 31  1  0
  1 43  1  0
  1 44  1  0
  1 45  1  0
  3 46  1  0
  3 47  1  0
  4 48  1  0
  4 49  1  0
  6 50  1  0
  6 51  1  0
  7 52  1  0
  7 53  1  0
  8 54  1  0
  9 55  1  0
  9 56  1  0
 10 57  1  0
 10 58  1  0
 12 59  1  0
 14 60  1  0
 17 61  1  0
 20 62  1  0
 20 63  1  0
 24 64  1  0
 26 65  1  0
 26 66  1  0
 26 67  1  0
 36 68  1  0
 36 69  1  0
 36 70  1  0
 37 71  1  0
 40 72  1  0
 40 73  1  0
 40 74  1  0
M  END
$$$$
[H]c1c(OC([H])([H])[H])c([H])c(C([H])([H])C([H])([H])c2c([H])c(-c3nc4c([H])c(C(=O)N5C([H])([H])C([H])([H])OC([H])([H])C5([H])[H])c([H])c([H])c4n3[H])nn2[H])c([H])c1OC([H])([H])[H]
     RDKit          3D

 61 65  0  0  0  0  0  0  0  0999 V2000
    4.8314   -1.6284    3.9514 C   0  0  0  0  0  0  0  0  0  0  0  0
    4.2850   -1.7756    2.6585 O   0  0  0  0  0  0  0  0  0  0  0  0
    5.0893   -1.5204    1.5631 C   0  0  0  0  0  0  0  0  0  0  0  0
    4.6382   -1.6384    0.2599 C   0  0  0  0  0  0  0  0  0  0  0  0
    5.4069   -1.3934   -0.8527 C   0  0  0  0  0  0  0  0  0  0  0  0
    4.9000   -1.5224   -2.2376 C   0  0  0  0  0  0  0  0  0  0  0  0
    4.3879   -0.1923   -2.7097 C   0  0  0  0  0  0  0  0  0  0  0  0
    3.2957    0.2833   -1.8468 C   0  0  0  0  0  0  0  0  0  0  0  0
    1.9617   -0.0112   -2.0392 C   0  0  0  0  0  0  0  0  0  0  0  0
    1.2225    0.6088   -1.0561 C   0  0  0  0  0  0  0  0  0  0  0  0
    2.1136    1.2551   -0.3019 N   0  0  0  0  0  0  0  0  0  0  0  0
    3.3409    1.0737   -0.7543 N   0  0  0  0  0  0  0  0  0  0  0  0
   -0.2445    0.5663   -0.8773 C   0  0  0  0  0  0  0  0  0  0  0  0
   -0.9780    1.1504    0.0529 N   0  0  0  0  0  0  0  0  0  0  0  0
   -2.2955    0.8478   -0.1571 C   0  0  0  0  0  0  0  0  0  0  0  0
   -3.4459    1.1861    0.4948 C   0  0  0  0  0  0  0  0  0  0  0  0
   -4.7366    0.7641    0.1109 C   0  0  0  0  0  0  0  0  0  0  0  0
   -4.7550   -0.0347   -0.9966 C   0  0  0  0  0  0  0  0  0  0  0  0
   -3.5769   -0.3851   -1.6699 C   0  0  0  0  0  0  0  0  0  0  0  0
   -2.3536    0.0408   -1.2706 C   0  0  0  0  0  0  0  0  0  0  0  0
   -1.0763   -0.1084   -1.6825 N   0  0  0  0  0  0  0  0  0  0  0  0
   -5.8747    1.1852    0.9021 C   0  0  0  0  0  0  0  0  0  0  0  0
   -5.5868    1.8703    1.9633 O   0  0  0  0  0  0  0  0  0  0  0  0
   -7.2115    0.9333    0.6402 N   0  0  0  0  0  0  0  0  0  0  0  0
   -7.8635    0.2409   -0.4209 C   0  0  0  0  0  0  0  0  0  0  0  0
   -9.3649    0.4396   -0.2903 C   0  0  0  0  0  0  0  0  0  0  0  0
   -9.7623    1.7321   -0.1179 O   0  0  0  0  0  0  0  0  0  0  0  0
   -9.1828    2.3499    0.9845 C   0  0  0  0  0  0  0  0  0  0  0  0
   -8.1617    1.4788    1.6529 C   0  0  0  0  0  0  0  0  0  0  0  0
    6.7225   -1.0023   -0.6070 C   0  0  0  0  0  0  0  0  0  0  0  0
    7.2359   -0.8650    0.6619 C   0  0  0  0  0  0  0  0  0  0  0  0
    8.5453   -0.4751    0.8681 O   0  0  0  0  0  0  0  0  0  0  0  0
    9.3550   -0.2173   -0.2617 C   0  0  0  0  0  0  0  0  0  0  0  0
    6.3966   -1.1307    1.7242 C   0  0  0  0  0  0  0  0  0  0  0  0
    4.0719   -1.8730    4.7343 H   0  0  0  0  0  0  0  0  0  0  0  0
    5.7419   -2.2461    4.0840 H   0  0  0  0  0  0  0  0  0  0  0  0
    5.1333   -0.5772    4.1588 H   0  0  0  0  0  0  0  0  0  0  0  0
    3.6116   -1.9444    0.1216 H   0  0  0  0  0  0  0  0  0  0  0  0
    5.7379   -1.9012   -2.8745 H   0  0  0  0  0  0  0  0  0  0  0  0
    4.1058   -2.2994   -2.2655 H   0  0  0  0  0  0  0  0  0  0  0  0
    5.2031    0.5619   -2.8015 H   0  0  0  0  0  0  0  0  0  0  0  0
    3.9493   -0.3841   -3.7315 H   0  0  0  0  0  0  0  0  0  0  0  0
    1.5011   -0.6188   -2.8091 H   0  0  0  0  0  0  0  0  0  0  0  0
    4.2470    1.4473   -0.3816 H   0  0  0  0  0  0  0  0  0  0  0  0
   -3.3785    1.8291    1.3766 H   0  0  0  0  0  0  0  0  0  0  0  0
   -5.6519   -0.4322   -1.3930 H   0  0  0  0  0  0  0  0  0  0  0  0
   -3.6270   -1.0234   -2.5507 H   0  0  0  0  0  0  0  0  0  0  0  0
   -0.8196   -0.6758   -2.5128 H   0  0  0  0  0  0  0  0  0  0  0  0
   -7.6984   -0.8571   -0.4130 H   0  0  0  0  0  0  0  0  0  0  0  0
   -7.6334    0.7012   -1.4306 H   0  0  0  0  0  0  0  0  0  0  0  0
   -9.8790    0.0153   -1.1841 H   0  0  0  0  0  0  0  0  0  0  0  0
   -9.7078   -0.1725    0.5615 H   0  0  0  0  0  0  0  0  0  0  0  0
   -9.9797    2.6791    1.6666 H   0  0  0  0  0  0  0  0  0  0  0  0
   -8.6619    3.2566    0.6124 H   0  0  0  0  0  0  0  0  0  0  0  0
   -8.6586    0.5974    2.0883 H   0  0  0  0  0  0  0  0  0  0  0  0
   -7.6560    2.0025    2.4575 H   0  0  0  0  0  0  0  0  0  0  0  0
    7.3256   -0.8099   -1.4883 H   0  0  0  0  0  0  0  0  0  0  0  0
   10.3042    0.2103    0.0640 H   0  0  0  0  0  0  0  0  0  0  0  0
    9.4781   -1.1212   -0.9037 H   0  0  0  0  0  0  0  0  0  0  0  0
    8.8622    0.5464   -0.9312 H   0  0  0  0  0  0  0  0  0  0  0  0
    6.8210   -1.0163    2.7195 H   0  0  0  0  0  0  0  0  0  0  0  0
  1  2  1  0
  2  3  1  0
  3  4  2  0
  4  5  1  0
  5  6  1  0
  6  7  1  0
  7  8  1  0
  8  9  2  0
  9 10  1  0
 10 11  2  0
 11 12  1  0
 10 13  1  0
 13 14  2  0
 14 15  1  0
 15 16  2  0
 16 17  1  0
 17 18  2  0
 18 19  1  0
 19 20  2  0
 20 21  1  0
 17 22  1  0
 22 23  2  0
 22 24  1  0
 24 25  1  0
 25 26  1  0
 26 27  1  0
 27 28  1  0
 28 29  1  0
  5 30  2  0
 30 31  1  0
 31 32  1  0
 32 33  1  0
 31 34  2  0
 34  3  1  0
 12  8  1  0
 21 13  1  0
 29 24  1  0
 20 15  1  0
  1 35  1  0
  1 36  1  0
  1 37  1  0
  4 38  1  0
  6 39  1  0
  6 40  1  0
  7 41  1  0
  7 42  1  0
  9 43  1  0
 12 44  1  0
 16 45  1  0
 18 46  1  0
 19 47  1  0
 21 48  1  0
 25 49  1  0
 25 50  1  0
 26 51  1  0
 26 52  1  0
 28 53  1  0
 28 54  1  0
 29 55  1  0
 29 56  1  0
 30 57  1  0
 33 58  1  0
 33 59  1  0
 33 60  1  0
 34 61  1  0
M  END
$$$$
[H]/C(C(=O)N1C([H])([H])C([H])([H])C([H])(N2C(=O)N(c3c(Cl)c(OC([H])([H])[H])c([H])c(OC([H])([H])[H])c3Cl)C([H])([H])c3c([H])nc(N([H])C([H])(C([H])([H])[H])C([H])([H])[H])nc32)C([H])([H])C1([H])[H])=C(/[H])C([H])([H])N(C([H])([H])[H])C([H])([H])[H]
     RDKit          3D

 78 81  0  0  0  0  0  0  0  0999 V2000
   -3.6857    6.5604    3.3445 C   0  0  0  0  0  0  0  0  0  0  0  0
   -3.4215    5.2000    3.1414 O   0  0  0  0  0  0  0  0  0  0  0  0
   -3.6151    4.5021    1.9614 C   0  0  0  0  0  0  0  0  0  0  0  0
   -4.1055    5.0862    0.8169 C   0  0  0  0  0  0  0  0  0  0  0  0
   -4.2903    4.3674   -0.3516 C   0  0  0  0  0  0  0  0  0  0  0  0
   -4.7806    4.9188   -1.5202 O   0  0  0  0  0  0  0  0  0  0  0  0
   -5.1435    6.2715   -1.6445 C   0  0  0  0  0  0  0  0  0  0  0  0
   -3.9585    3.0205   -0.3243 C   0  0  0  0  0  0  0  0  0  0  0  0
   -4.1650    2.0534   -1.7634 Cl  0  0  0  0  0  0  0  0  0  0  0  0
   -3.4683    2.4176    0.8053 C   0  0  0  0  0  0  0  0  0  0  0  0
   -3.1370    1.0162    0.7904 N   0  0  0  0  0  0  0  0  0  0  0  0
   -4.2442    0.0949    0.8202 C   0  0  0  0  0  0  0  0  0  0  0  0
   -3.8491   -1.3034    0.5350 C   0  0  0  0  0  0  0  0  0  0  0  0
   -4.8605   -2.2653    0.3675 C   0  0  0  0  0  0  0  0  0  0  0  0
   -4.5151   -3.5299    0.1527 N   0  0  0  0  0  0  0  0  0  0  0  0
   -3.2477   -3.9697    0.0819 C   0  0  0  0  0  0  0  0  0  0  0  0
   -3.0091   -5.3434   -0.1589 N   0  0  0  0  0  0  0  0  0  0  0  0
   -1.6824   -5.9110   -0.2495 C   0  0  0  0  0  0  0  0  0  0  0  0
   -1.7185   -7.3882   -0.5375 C   0  0  0  0  0  0  0  0  0  0  0  0
   -0.8685   -5.2739   -1.3772 C   0  0  0  0  0  0  0  0  0  0  0  0
   -2.2898   -3.0579    0.2401 N   0  0  0  0  0  0  0  0  0  0  0  0
   -2.5511   -1.7470    0.4618 C   0  0  0  0  0  0  0  0  0  0  0  0
   -1.5116   -0.7829    0.5680 N   0  0  0  0  0  0  0  0  0  0  0  0
   -0.1617   -1.2195    0.5067 C   0  0  0  0  0  0  0  0  0  0  0  0
    0.6333   -0.5964   -0.6198 C   0  0  0  0  0  0  0  0  0  0  0  0
    1.9335   -1.3463   -0.8768 C   0  0  0  0  0  0  0  0  0  0  0  0
    2.7032   -1.3003    0.3308 N   0  0  0  0  0  0  0  0  0  0  0  0
    2.0059   -1.6387    1.5514 C   0  0  0  0  0  0  0  0  0  0  0  0
    0.6940   -0.8551    1.6949 C   0  0  0  0  0  0  0  0  0  0  0  0
    4.0690   -0.9543    0.3864 C   0  0  0  0  0  0  0  0  0  0  0  0
    4.6578   -0.9462    1.5112 O   0  0  0  0  0  0  0  0  0  0  0  0
    4.8808   -0.5987   -0.7528 C   0  0  0  0  0  0  0  0  0  0  0  0
    6.1618   -0.2851   -0.6303 C   0  0  0  0  0  0  0  0  0  0  0  0
    6.9207    0.0665   -1.8402 C   0  0  0  0  0  0  0  0  0  0  0  0
    7.4913    1.3997   -1.8086 N   0  0  0  0  0  0  0  0  0  0  0  0
    8.5498    1.5053   -0.8228 C   0  0  0  0  0  0  0  0  0  0  0  0
    8.0750    1.6521   -3.1236 C   0  0  0  0  0  0  0  0  0  0  0  0
   -1.7797    0.5986    0.7353 C   0  0  0  0  0  0  0  0  0  0  0  0
   -0.9034    1.4964    0.8408 O   0  0  0  0  0  0  0  0  0  0  0  0
   -3.2964    3.1514    1.9440 C   0  0  0  0  0  0  0  0  0  0  0  0
   -2.6759    2.4247    3.4146 Cl  0  0  0  0  0  0  0  0  0  0  0  0
   -4.5741    6.6951    3.9992 H   0  0  0  0  0  0  0  0  0  0  0  0
   -2.8149    6.9800    3.9314 H   0  0  0  0  0  0  0  0  0  0  0  0
   -3.7524    7.1646    2.4398 H   0  0  0  0  0  0  0  0  0  0  0  0
   -4.3617    6.1398    0.8101 H   0  0  0  0  0  0  0  0  0  0  0  0
   -4.2776    6.9508   -1.5202 H   0  0  0  0  0  0  0  0  0  0  0  0
   -5.9226    6.4924   -0.8709 H   0  0  0  0  0  0  0  0  0  0  0  0
   -5.6552    6.4000   -2.6323 H   0  0  0  0  0  0  0  0  0  0  0  0
   -5.0647    0.3882    0.1318 H   0  0  0  0  0  0  0  0  0  0  0  0
   -4.6207    0.0701    1.8888 H   0  0  0  0  0  0  0  0  0  0  0  0
   -5.8942   -1.9108    0.4248 H   0  0  0  0  0  0  0  0  0  0  0  0
   -3.8064   -6.0006   -0.2798 H   0  0  0  0  0  0  0  0  0  0  0  0
   -1.1447   -5.7319    0.7187 H   0  0  0  0  0  0  0  0  0  0  0  0
   -1.8101   -7.5100   -1.6544 H   0  0  0  0  0  0  0  0  0  0  0  0
   -2.5945   -7.8690   -0.0439 H   0  0  0  0  0  0  0  0  0  0  0  0
   -0.8200   -7.9232   -0.1670 H   0  0  0  0  0  0  0  0  0  0  0  0
   -0.0522   -5.9872   -1.6118 H   0  0  0  0  0  0  0  0  0  0  0  0
   -0.3814   -4.3383   -1.0286 H   0  0  0  0  0  0  0  0  0  0  0  0
   -1.4780   -5.1521   -2.2874 H   0  0  0  0  0  0  0  0  0  0  0  0
   -0.0906   -2.3385    0.3700 H   0  0  0  0  0  0  0  0  0  0  0  0
    0.9650    0.4532   -0.3807 H   0  0  0  0  0  0  0  0  0  0  0  0
    0.1099   -0.5384   -1.5733 H   0  0  0  0  0  0  0  0  0  0  0  0
    1.7388   -2.3747   -1.2455 H   0  0  0  0  0  0  0  0  0  0  0  0
    2.4442   -0.7567   -1.6695 H   0  0  0  0  0  0  0  0  0  0  0  0
    2.6267   -1.2956    2.4014 H   0  0  0  0  0  0  0  0  0  0  0  0
    1.8486   -2.7173    1.6729 H   0  0  0  0  0  0  0  0  0  0  0  0
    0.3020   -1.0688    2.6623 H   0  0  0  0  0  0  0  0  0  0  0  0
    1.0116    0.2080    1.6611 H   0  0  0  0  0  0  0  0  0  0  0  0
    4.4200   -0.5897   -1.7521 H   0  0  0  0  0  0  0  0  0  0  0  0
    6.5849   -0.3054    0.3608 H   0  0  0  0  0  0  0  0  0  0  0  0
    7.7572   -0.6899   -1.9051 H   0  0  0  0  0  0  0  0  0  0  0  0
    6.2887   -0.0623   -2.7314 H   0  0  0  0  0  0  0  0  0  0  0  0
    8.1165    1.2294    0.1568 H   0  0  0  0  0  0  0  0  0  0  0  0
    9.4014    0.8843   -1.1430 H   0  0  0  0  0  0  0  0  0  0  0  0
    8.8776    2.5422   -0.7631 H   0  0  0  0  0  0  0  0  0  0  0  0
    7.4933    1.1084   -3.8938 H   0  0  0  0  0  0  0  0  0  0  0  0
    8.1727    2.7281   -3.3132 H   0  0  0  0  0  0  0  0  0  0  0  0
    9.1168    1.2353   -3.1263 H   0  0  0  0  0  0  0  0  0  0  0  0
  1  2  1  0
  2  3  1  0
  3  4  2  0
  4  5  1  0
  5  6  1  0
  6  7  1  0
  5  8  2  0
  8  9  1  0
  8 10  1  0
 10 11  1  0
 11 12  1  0
 12 13  1  0
 13 14  2  0
 14 15  1  0
 15 16  2  0
 16 17  1  0
 17 18  1  0
 18 19  1  0
 18 20  1  0
 16 21  1  0
 21 22  2  0
 22 23  1  0
 23 24  1  0
 24 25  1  0
 25 26  1  0
 26 27  1  0
 27 28  1  0
 28 29  1  0
 27 30  1  0
 30 31  2  0
 30 32  1  0
 32 33  2  0
 33 34  1  0
 34 35  1  0
 35 36  1  0
 35 37  1  0
 23 38  1  0
 38 39  2  0
 10 40  2  0
 40 41  1  0
 40  3  1  0
 38 11  1  0
 22 13  1  0
 29 24  1  0
  1 42  1  0
  1 43  1  0
  1 44  1  0
  4 45  1  0
  7 46  1  0
  7 47  1  0
  7 48  1  0
 12 49  1  0
 12 50  1  0
 14 51  1  0
 17 52  1  0
 18 53  1  0
 19 54  1  0
 19 55  1  0
 19 56  1  0
 20 57  1  0
 20 58  1  0
 20 59  1  0
 24 60  1  0
 25 61  1  0
 25 62  1  0
 26 63  1  0
 26 64  1  0
 28 65  1  0
 28 66  1  0
 29 67  1  0
 29 68  1  0
 32 69  1  0
 33 70  1  0
 34 71  1  0
 34 72  1  0
 36 73  1  0
 36 74  1  0
 36 75  1  0
 37 76  1  0
 37 77  1  0
 37 78  1  0
M  END
$$$$
[H]OC([H])([H])C([H])([H])N(c1nc2c([H])c(-c3c([H])nn(C([H])([H])[H])c3[H])c([H])nc2c([H])c1[H])c1c([H])c(OC([H])([H])[H])c([H])c(OC([H])([H])[H])c1[H]
     RDKit          3D

 53 56  0  0  0  0  0  0  0  0999 V2000
   -4.6007   -3.2310    0.9780 C   0  0  0  0  0  0  0  0  0  0  0  0
   -5.3020   -2.0177    1.1438 O   0  0  0  0  0  0  0  0  0  0  0  0
   -4.7130   -0.8161    0.7117 C   0  0  0  0  0  0  0  0  0  0  0  0
   -5.3952    0.3749    0.8727 C   0  0  0  0  0  0  0  0  0  0  0  0
   -4.8084    1.5475    0.4460 C   0  0  0  0  0  0  0  0  0  0  0  0
   -5.5001    2.7384    0.6108 O   0  0  0  0  0  0  0  0  0  0  0  0
   -6.7702    2.8236    1.1885 C   0  0  0  0  0  0  0  0  0  0  0  0
   -3.5589    1.5062   -0.1296 C   0  0  0  0  0  0  0  0  0  0  0  0
   -2.8538    0.3404   -0.3049 C   0  0  0  0  0  0  0  0  0  0  0  0
   -3.4613   -0.8391    0.1324 C   0  0  0  0  0  0  0  0  0  0  0  0
   -1.5647    0.2547   -0.8908 N   0  0  0  0  0  0  0  0  0  0  0  0
   -1.4316    0.1659   -2.3302 C   0  0  0  0  0  0  0  0  0  0  0  0
   -2.1544   -1.0858   -2.7931 C   0  0  0  0  0  0  0  0  0  0  0  0
   -2.0429   -1.1975   -4.1813 O   0  0  0  0  0  0  0  0  0  0  0  0
   -0.4206    0.2517   -0.0275 C   0  0  0  0  0  0  0  0  0  0  0  0
   -0.5739    0.3454    1.3376 C   0  0  0  0  0  0  0  0  0  0  0  0
    0.4861    0.3401    2.2130 C   0  0  0  0  0  0  0  0  0  0  0  0
    1.7601    0.2358    1.6909 C   0  0  0  0  0  0  0  0  0  0  0  0
    2.8556    0.2205    2.4732 N   0  0  0  0  0  0  0  0  0  0  0  0
    4.0964    0.1161    1.9538 C   0  0  0  0  0  0  0  0  0  0  0  0
    4.3088    0.0196    0.5950 C   0  0  0  0  0  0  0  0  0  0  0  0
    3.1858    0.0359   -0.1975 C   0  0  0  0  0  0  0  0  0  0  0  0
    1.9068    0.1429    0.3291 C   0  0  0  0  0  0  0  0  0  0  0  0
    0.8276    0.1514   -0.5110 N   0  0  0  0  0  0  0  0  0  0  0  0
    5.6406   -0.0951    0.0117 C   0  0  0  0  0  0  0  0  0  0  0  0
    5.9821   -0.7700   -1.1660 C   0  0  0  0  0  0  0  0  0  0  0  0
    7.3074   -0.6231   -1.3306 N   0  0  0  0  0  0  0  0  0  0  0  0
    7.8488    0.0875   -0.3621 N   0  0  0  0  0  0  0  0  0  0  0  0
    9.2680    0.4443   -0.2221 C   0  0  0  0  0  0  0  0  0  0  0  0
    6.8412    0.4158    0.4638 C   0  0  0  0  0  0  0  0  0  0  0  0
   -5.1649   -4.0367    1.4955 H   0  0  0  0  0  0  0  0  0  0  0  0
   -3.6298   -3.1394    1.5035 H   0  0  0  0  0  0  0  0  0  0  0  0
   -4.4217   -3.4761   -0.0934 H   0  0  0  0  0  0  0  0  0  0  0  0
   -6.3841    0.3498    1.3357 H   0  0  0  0  0  0  0  0  0  0  0  0
   -6.7946    2.5874    2.2707 H   0  0  0  0  0  0  0  0  0  0  0  0
   -7.1424    3.8593    1.0812 H   0  0  0  0  0  0  0  0  0  0  0  0
   -7.5151    2.1597    0.6587 H   0  0  0  0  0  0  0  0  0  0  0  0
   -3.0791    2.4165   -0.4717 H   0  0  0  0  0  0  0  0  0  0  0  0
   -2.9069   -1.7650   -0.0045 H   0  0  0  0  0  0  0  0  0  0  0  0
   -1.9270    1.0699   -2.7700 H   0  0  0  0  0  0  0  0  0  0  0  0
   -0.3822    0.1535   -2.6343 H   0  0  0  0  0  0  0  0  0  0  0  0
   -1.6576   -1.9718   -2.3453 H   0  0  0  0  0  0  0  0  0  0  0  0
   -3.2117   -1.0585   -2.5216 H   0  0  0  0  0  0  0  0  0  0  0  0
   -1.0583   -1.1915   -4.4001 H   0  0  0  0  0  0  0  0  0  0  0  0
   -1.5978    0.4273    1.7179 H   0  0  0  0  0  0  0  0  0  0  0  0
    0.3810    0.4132    3.2813 H   0  0  0  0  0  0  0  0  0  0  0  0
    4.9408    0.1077    2.6185 H   0  0  0  0  0  0  0  0  0  0  0  0
    3.3156   -0.0377   -1.2681 H   0  0  0  0  0  0  0  0  0  0  0  0
    5.2722   -1.2951   -1.7887 H   0  0  0  0  0  0  0  0  0  0  0  0
    9.8372   -0.4999   -0.2989 H   0  0  0  0  0  0  0  0  0  0  0  0
    9.4275    0.8230    0.8170 H   0  0  0  0  0  0  0  0  0  0  0  0
    9.5732    1.2158   -0.9295 H   0  0  0  0  0  0  0  0  0  0  0  0
    6.9620    1.0054    1.3668 H   0  0  0  0  0  0  0  0  0  0  0  0
  1  2  1  0
  2  3  1  0
  3  4  2  0
  4  5  1  0
  5  6  1  0
  6  7  1  0
  5  8  2  0
  8  9  1  0
  9 10  2  0
  9 11  1  0
 11 12  1  0
 12 13  1  0
 13 14  1  0
 11 15  1  0
 15 16  2  0
 16 17  1  0
 17 18  2  0
 18 19  1  0
 19 20  2  0
 20 21  1  0
 21 22  2  0
 22 23  1  0
 23 24  2  0
 21 25  1  0
 25 26  1  0
 26 27  2  0
 27 28  1  0
 28 29  1  0
 28 30  1  0
 10  3  1  0
 24 15  1  0
 30 25  2  0
 23 18  1  0
  1 31  1  0
  1 32  1  0
  1 33  1  0
  4 34  1  0
  7 35  1  0
  7 36  1  0
  7 37  1  0
  8 38  1  0
 10 39  1  0
 12 40  1  0
 12 41  1  0
 13 42  1  0
 13 43  1  0
 14 44  1  0
 16 45  1  0
 17 46  1  0
 20 47  1  0
 22 48  1  0
 26 49  1  0
 29 50  1  0
 29 51  1  0
 29 52  1  0
 30 53  1  0
M  END
$$$$
[H]C([H])=C([H])C(=O)N1C([H])([H])C([H])([H])N(C([H])([H])C([H])([H])C([H])([H])n2c(=O)c(-c3c(Cl)c(OC([H])([H])[H])c([H])c(OC([H])([H])[H])c3Cl)c([H])c3c([H])nc(N([H])C([H])([H])[H])nc32)C([H])([H])C1([H])[H]
     RDKit          3D

 68 71  0  0  0  0  0  0  0  0999 V2000
   -0.5149   -7.4268    1.3939 C   0  0  0  0  0  0  0  0  0  0  0  0
    0.0978   -6.1860    0.9774 N   0  0  0  0  0  0  0  0  0  0  0  0
   -0.7552   -5.0272    0.8096 C   0  0  0  0  0  0  0  0  0  0  0  0
   -2.0710   -5.1510    1.0469 N   0  0  0  0  0  0  0  0  0  0  0  0
   -2.9607   -4.1594    0.9301 C   0  0  0  0  0  0  0  0  0  0  0  0
   -2.4445   -2.9267    0.5312 C   0  0  0  0  0  0  0  0  0  0  0  0
   -3.2794   -1.8501    0.3811 C   0  0  0  0  0  0  0  0  0  0  0  0
   -2.6870   -0.6478   -0.0231 C   0  0  0  0  0  0  0  0  0  0  0  0
   -3.5657    0.4940   -0.1677 C   0  0  0  0  0  0  0  0  0  0  0  0
   -4.1589    0.7865   -1.3727 C   0  0  0  0  0  0  0  0  0  0  0  0
   -3.8603   -0.1600   -2.8036 Cl  0  0  0  0  0  0  0  0  0  0  0  0
   -5.0265    1.8794   -1.4463 C   0  0  0  0  0  0  0  0  0  0  0  0
   -5.6408    2.1981   -2.6567 O   0  0  0  0  0  0  0  0  0  0  0  0
   -6.5119    3.3053   -2.7034 C   0  0  0  0  0  0  0  0  0  0  0  0
   -5.2530    2.6180   -0.3123 C   0  0  0  0  0  0  0  0  0  0  0  0
   -4.6684    2.3346    0.8846 C   0  0  0  0  0  0  0  0  0  0  0  0
   -4.8996    3.0858    2.0356 O   0  0  0  0  0  0  0  0  0  0  0  0
   -5.7897    4.1862    1.9189 C   0  0  0  0  0  0  0  0  0  0  0  0
   -3.8075    1.2483    0.9509 C   0  0  0  0  0  0  0  0  0  0  0  0
   -3.0572    0.8783    2.4769 Cl  0  0  0  0  0  0  0  0  0  0  0  0
   -1.3354   -0.5742   -0.2534 C   0  0  0  0  0  0  0  0  0  0  0  0
   -0.7998    0.5235   -0.6220 O   0  0  0  0  0  0  0  0  0  0  0  0
   -0.5104   -1.6332   -0.1071 N   0  0  0  0  0  0  0  0  0  0  0  0
    0.9032   -1.5562   -0.3799 C   0  0  0  0  0  0  0  0  0  0  0  0
    1.6545   -1.1434    0.8802 C   0  0  0  0  0  0  0  0  0  0  0  0
    3.1557   -1.0956    0.5708 C   0  0  0  0  0  0  0  0  0  0  0  0
    3.4000   -0.1267   -0.4795 N   0  0  0  0  0  0  0  0  0  0  0  0
    4.7430   -0.1566   -0.9531 C   0  0  0  0  0  0  0  0  0  0  0  0
    5.6602    0.9267   -0.4337 C   0  0  0  0  0  0  0  0  0  0  0  0
    5.0857    2.2098   -0.4328 N   0  0  0  0  0  0  0  0  0  0  0  0
    3.6409    2.2492   -0.7797 C   0  0  0  0  0  0  0  0  0  0  0  0
    3.0028    1.1634    0.0451 C   0  0  0  0  0  0  0  0  0  0  0  0
    5.7197    3.4108   -0.1551 C   0  0  0  0  0  0  0  0  0  0  0  0
    4.9584    4.4856   -0.2178 O   0  0  0  0  0  0  0  0  0  0  0  0
    7.0915    3.6915    0.1959 C   0  0  0  0  0  0  0  0  0  0  0  0
    8.0795    2.8609    0.3447 C   0  0  0  0  0  0  0  0  0  0  0  0
   -1.0915   -2.8056    0.2889 C   0  0  0  0  0  0  0  0  0  0  0  0
   -0.2392   -3.8473    0.4248 N   0  0  0  0  0  0  0  0  0  0  0  0
    0.0897   -8.3016    1.1632 H   0  0  0  0  0  0  0  0  0  0  0  0
   -1.5589   -7.5169    0.9890 H   0  0  0  0  0  0  0  0  0  0  0  0
   -0.6660   -7.3600    2.5054 H   0  0  0  0  0  0  0  0  0  0  0  0
    1.1220   -6.1261    0.8009 H   0  0  0  0  0  0  0  0  0  0  0  0
   -4.0160   -4.2302    1.1137 H   0  0  0  0  0  0  0  0  0  0  0  0
   -4.3382   -1.9225    0.5639 H   0  0  0  0  0  0  0  0  0  0  0  0
   -7.2754    3.2659   -1.9061 H   0  0  0  0  0  0  0  0  0  0  0  0
   -5.9353    4.2299   -2.6340 H   0  0  0  0  0  0  0  0  0  0  0  0
   -7.0709    3.2744   -3.6712 H   0  0  0  0  0  0  0  0  0  0  0  0
   -5.9403    3.4764   -0.3875 H   0  0  0  0  0  0  0  0  0  0  0  0
   -5.3108    4.9444    1.2791 H   0  0  0  0  0  0  0  0  0  0  0  0
   -5.9785    4.6554    2.9048 H   0  0  0  0  0  0  0  0  0  0  0  0
   -6.7542    3.8658    1.4546 H   0  0  0  0  0  0  0  0  0  0  0  0
    1.2978   -2.5279   -0.7391 H   0  0  0  0  0  0  0  0  0  0  0  0
    1.0702   -0.7867   -1.1741 H   0  0  0  0  0  0  0  0  0  0  0  0
    1.2886   -0.1859    1.2871 H   0  0  0  0  0  0  0  0  0  0  0  0
    1.5340   -1.9081    1.6705 H   0  0  0  0  0  0  0  0  0  0  0  0
    3.6313   -0.7080    1.4936 H   0  0  0  0  0  0  0  0  0  0  0  0
    3.5208   -2.0959    0.3539 H   0  0  0  0  0  0  0  0  0  0  0  0
    5.2418   -1.1282   -0.7676 H   0  0  0  0  0  0  0  0  0  0  0  0
    4.7011   -0.0603   -2.0740 H   0  0  0  0  0  0  0  0  0  0  0  0
    6.0834    0.5968    0.5129 H   0  0  0  0  0  0  0  0  0  0  0  0
    6.5057    0.9408   -1.1886 H   0  0  0  0  0  0  0  0  0  0  0  0
    3.5787    1.9192   -1.8412 H   0  0  0  0  0  0  0  0  0  0  0  0
    3.2072    3.2336   -0.5820 H   0  0  0  0  0  0  0  0  0  0  0  0
    3.3091    1.2691    1.1147 H   0  0  0  0  0  0  0  0  0  0  0  0
    1.9108    1.2646   -0.0550 H   0  0  0  0  0  0  0  0  0  0  0  0
    7.3795    4.7703    0.3749 H   0  0  0  0  0  0  0  0  0  0  0  0
    8.0355    1.8064    0.2298 H   0  0  0  0  0  0  0  0  0  0  0  0
    9.0730    3.2833    0.6202 H   0  0  0  0  0  0  0  0  0  0  0  0
  1  2  1  0
  2  3  1  0
  3  4  2  0
  4  5  1  0
  5  6  2  0
  6  7  1  0
  7  8  2  0
  8  9  1  0
  9 10  2  0
 10 11  1  0
 10 12  1  0
 12 13  1  0
 13 14  1  0
 12 15  2  0
 15 16  1  0
 16 17  1  0
 17 18  1  0
 16 19  2  0
 19 20  1  0
  8 21  1  0
 21 22  2  0
 21 23  1  0
 23 24  1  0
 24 25  1  0
 25 26  1  0
 26 27  1  0
 27 28  1  0
 28 29  1  0
 29 30  1  0
 30 31  1  0
 31 32  1  0
 30 33  1  0
 33 34  2  0
 33 35  1  0
 35 36  2  3
 23 37  1  0
 37 38  2  0
 38  3  1  0
 37  6  1  0
 19  9  1  0
 32 27  1  0
  1 39  1  0
  1 40  1  0
  1 41  1  0
  2 42  1  0
  5 43  1  0
  7 44  1  0
 14 45  1  0
 14 46  1  0
 14 47  1  0
 15 48  1  0
 18 49  1  0
 18 50  1  0
 18 51  1  0
 24 52  1  0
 24 53  1  0
 25 54  1  0
 25 55  1  0
 26 56  1  0
 26 57  1  0
 28 58  1  0
 28 59  1  0
 29 60  1  0
 29 61  1  0
 31 62  1  0
 31 63  1  0
 32 64  1  0
 32 65  1  0
 35 66  1  0
 36 67  1  0
 36 68  1  0
M  END
$$$$
[H]c1nc(N([H])[H])c(-c2nn(-c3c([H])c(OC([H])([H])[H])c([H])c(OC([H])([H])[H])c3[H])c(=O)c(C([H])([H])[H])c2[H])c([H])c1-c1c([H])nn(C2([H])C([H])([H])C([H])([H])N([H])C([H])([H])C2([H])[H])c1[H]
     RDKit          3D

 65 69  0  0  0  0  0  0  0  0999 V2000
   -4.0039    4.2797   -2.5226 C   0  0  0  0  0  0  0  0  0  0  0  0
   -3.4580    3.0051   -2.2424 O   0  0  0  0  0  0  0  0  0  0  0  0
   -4.0304    2.1393   -1.3266 C   0  0  0  0  0  0  0  0  0  0  0  0
   -5.1733    2.5304   -0.6629 C   0  0  0  0  0  0  0  0  0  0  0  0
   -5.7751    1.6829    0.2654 C   0  0  0  0  0  0  0  0  0  0  0  0
   -6.9264    2.0828    0.9308 O   0  0  0  0  0  0  0  0  0  0  0  0
   -7.4937    1.1806    1.8623 C   0  0  0  0  0  0  0  0  0  0  0  0
   -5.1729    0.4565    0.4761 C   0  0  0  0  0  0  0  0  0  0  0  0
   -4.0437    0.0425   -0.1646 C   0  0  0  0  0  0  0  0  0  0  0  0
   -3.4672    0.9088   -1.0836 C   0  0  0  0  0  0  0  0  0  0  0  0
   -3.4445   -1.2419    0.0793 N   0  0  0  0  0  0  0  0  0  0  0  0
   -2.1943   -1.4019    0.3486 N   0  0  0  0  0  0  0  0  0  0  0  0
   -1.5883   -2.6086    0.5881 C   0  0  0  0  0  0  0  0  0  0  0  0
   -2.3884   -3.6936    0.5293 C   0  0  0  0  0  0  0  0  0  0  0  0
   -3.7574   -3.5808    0.2410 C   0  0  0  0  0  0  0  0  0  0  0  0
   -4.6099   -4.7967    0.1855 C   0  0  0  0  0  0  0  0  0  0  0  0
   -4.2450   -2.3188    0.0207 C   0  0  0  0  0  0  0  0  0  0  0  0
   -5.4836   -2.1683   -0.2450 O   0  0  0  0  0  0  0  0  0  0  0  0
   -0.1591   -2.6442    0.8361 C   0  0  0  0  0  0  0  0  0  0  0  0
    0.5808   -1.5016    0.4750 C   0  0  0  0  0  0  0  0  0  0  0  0
    1.9244   -1.4228    0.6953 C   0  0  0  0  0  0  0  0  0  0  0  0
    2.5177   -2.5177    1.2885 C   0  0  0  0  0  0  0  0  0  0  0  0
    1.8311   -3.6066    1.6371 N   0  0  0  0  0  0  0  0  0  0  0  0
    0.4808   -3.6751    1.4117 C   0  0  0  0  0  0  0  0  0  0  0  0
   -0.1512   -4.8855    1.8699 N   0  0  0  0  0  0  0  0  0  0  0  0
    2.6894   -0.2415    0.3195 C   0  0  0  0  0  0  0  0  0  0  0  0
    2.1803    1.0367    0.3300 C   0  0  0  0  0  0  0  0  0  0  0  0
    3.1636    1.8902   -0.0793 N   0  0  0  0  0  0  0  0  0  0  0  0
    4.2586    1.2012   -0.3431 N   0  0  0  0  0  0  0  0  0  0  0  0
    3.9920   -0.1167   -0.1048 C   0  0  0  0  0  0  0  0  0  0  0  0
    5.5318    1.7236   -0.8067 C   0  0  0  0  0  0  0  0  0  0  0  0
    6.5756    0.6272   -0.8799 C   0  0  0  0  0  0  0  0  0  0  0  0
    7.9735    1.2123   -0.9332 C   0  0  0  0  0  0  0  0  0  0  0  0
    7.9782    2.6004   -1.2917 N   0  0  0  0  0  0  0  0  0  0  0  0
    7.2652    3.4420   -0.3557 C   0  0  0  0  0  0  0  0  0  0  0  0
    6.0131    2.7737    0.1703 C   0  0  0  0  0  0  0  0  0  0  0  0
   -4.9147    4.2141   -3.1456 H   0  0  0  0  0  0  0  0  0  0  0  0
   -3.2307    4.9450   -2.9767 H   0  0  0  0  0  0  0  0  0  0  0  0
   -4.2966    4.7902   -1.5758 H   0  0  0  0  0  0  0  0  0  0  0  0
   -5.6630    3.4889   -0.8135 H   0  0  0  0  0  0  0  0  0  0  0  0
   -6.7537    0.9218    2.6463 H   0  0  0  0  0  0  0  0  0  0  0  0
   -8.4238    1.6007    2.3113 H   0  0  0  0  0  0  0  0  0  0  0  0
   -7.7579    0.2435    1.3026 H   0  0  0  0  0  0  0  0  0  0  0  0
   -5.6637   -0.1913    1.2102 H   0  0  0  0  0  0  0  0  0  0  0  0
   -2.5674    0.5889   -1.5995 H   0  0  0  0  0  0  0  0  0  0  0  0
   -2.0573   -4.7179    0.6683 H   0  0  0  0  0  0  0  0  0  0  0  0
   -5.4477   -4.7112   -0.5111 H   0  0  0  0  0  0  0  0  0  0  0  0
   -5.0015   -4.9670    1.2283 H   0  0  0  0  0  0  0  0  0  0  0  0
   -3.9549   -5.6539   -0.0370 H   0  0  0  0  0  0  0  0  0  0  0  0
    0.0700   -0.6698    0.0133 H   0  0  0  0  0  0  0  0  0  0  0  0
    3.5962   -2.4725    1.4725 H   0  0  0  0  0  0  0  0  0  0  0  0
    0.0045   -5.7865    1.3867 H   0  0  0  0  0  0  0  0  0  0  0  0
   -0.7827   -4.8811    2.7027 H   0  0  0  0  0  0  0  0  0  0  0  0
    1.1805    1.3318    0.6101 H   0  0  0  0  0  0  0  0  0  0  0  0
    4.6835   -0.9476   -0.2247 H   0  0  0  0  0  0  0  0  0  0  0  0
    5.3853    2.1348   -1.8158 H   0  0  0  0  0  0  0  0  0  0  0  0
    6.5405   -0.0278    0.0094 H   0  0  0  0  0  0  0  0  0  0  0  0
    6.4435    0.0053   -1.7793 H   0  0  0  0  0  0  0  0  0  0  0  0
    8.5004    1.0983    0.0502 H   0  0  0  0  0  0  0  0  0  0  0  0
    8.5971    0.6774   -1.6773 H   0  0  0  0  0  0  0  0  0  0  0  0
    7.7006    2.7614   -2.2792 H   0  0  0  0  0  0  0  0  0  0  0  0
    7.9322    3.6318    0.5055 H   0  0  0  0  0  0  0  0  0  0  0  0
    7.0250    4.4157   -0.8145 H   0  0  0  0  0  0  0  0  0  0  0  0
    5.2225    3.5156    0.3378 H   0  0  0  0  0  0  0  0  0  0  0  0
    6.2439    2.2678    1.1111 H   0  0  0  0  0  0  0  0  0  0  0  0
  1  2  1  0
  2  3  1  0
  3  4  2  0
  4  5  1  0
  5  6  1  0
  6  7  1  0
  5  8  2  0
  8  9  1  0
  9 10  2  0
  9 11  1  0
 11 12  1  0
 12 13  2  0
 13 14  1  0
 14 15  2  0
 15 16  1  0
 15 17  1  0
 17 18  2  0
 13 19  1  0
 19 20  2  0
 20 21  1  0
 21 22  2  0
 22 23  1  0
 23 24  2  0
 24 25  1  0
 21 26  1  0
 26 27  1  0
 27 28  2  0
 28 29  1  0
 29 30  1  0
 29 31  1  0
 31 32  1  0
 32 33  1  0
 33 34  1  0
 34 35  1  0
 35 36  1  0
 10  3  1  0
 17 11  1  0
 24 19  1  0
 30 26  2  0
 36 31  1  0
  1 37  1  0
  1 38  1  0
  1 39  1  0
  4 40  1  0
  7 41  1  0
  7 42  1  0
  7 43  1  0
  8 44  1  0
 10 45  1  0
 14 46  1  0
 16 47  1  0
 16 48  1  0
 16 49  1  0
 20 50  1  0
 22 51  1  0
 25 52  1  0
 25 53  1  0
 27 54  1  0
 30 55  1  0
 31 56  1  0
 32 57  1  0
 32 58  1  0
 33 59  1  0
 33 60  1  0
 34 61  1  0
 35 62  1  0
 35 63  1  0
 36 64  1  0
 36 65  1  0
M  END
$$$$
[H]c1nc2c([H])c([H])c(N(c3c(F)c(OC([H])([H])[H])c([H])c(OC([H])([H])[H])c3F)C([H])([H])C([H])([H])N([H])C([H])(C([H])([H])[H])C([H])([H])[H])nc2c([H])c1-c1c([H])nn(C([H])([H])[H])c1[H]
     RDKit          3D

 63 66  0  0  0  0  0  0  0  0999 V2000
   -3.0412    5.5954    0.7791 C   0  0  0  0  0  0  0  0  0  0  0  0
   -2.2597    4.5227    0.2949 O   0  0  0  0  0  0  0  0  0  0  0  0
   -2.8368    3.2926    0.1298 C   0  0  0  0  0  0  0  0  0  0  0  0
   -4.1464    3.0778    0.4207 C   0  0  0  0  0  0  0  0  0  0  0  0
   -4.7032    1.8468    0.2496 C   0  0  0  0  0  0  0  0  0  0  0  0
   -6.0359    1.5605    0.5280 O   0  0  0  0  0  0  0  0  0  0  0  0
   -6.9798    2.4637    1.0112 C   0  0  0  0  0  0  0  0  0  0  0  0
   -3.9212    0.8053   -0.2265 C   0  0  0  0  0  0  0  0  0  0  0  0
   -4.5296   -0.4046   -0.3923 F   0  0  0  0  0  0  0  0  0  0  0  0
   -2.5859    0.9576   -0.5393 C   0  0  0  0  0  0  0  0  0  0  0  0
   -1.7885   -0.1205   -1.0304 N   0  0  0  0  0  0  0  0  0  0  0  0
   -2.3064   -1.4448   -1.2617 C   0  0  0  0  0  0  0  0  0  0  0  0
   -1.3531   -2.4599   -1.7908 C   0  0  0  0  0  0  0  0  0  0  0  0
   -0.2508   -2.8248   -0.9843 N   0  0  0  0  0  0  0  0  0  0  0  0
   -0.6995   -3.5408    0.1831 C   0  0  0  0  0  0  0  0  0  0  0  0
   -1.3858   -4.8377   -0.0978 C   0  0  0  0  0  0  0  0  0  0  0  0
    0.4199   -3.8065    1.1760 C   0  0  0  0  0  0  0  0  0  0  0  0
   -0.4345    0.0832   -1.3350 C   0  0  0  0  0  0  0  0  0  0  0  0
   -0.1259    0.3739   -2.6537 C   0  0  0  0  0  0  0  0  0  0  0  0
    1.1437    0.5826   -3.1149 C   0  0  0  0  0  0  0  0  0  0  0  0
    2.1936    0.5032   -2.2301 C   0  0  0  0  0  0  0  0  0  0  0  0
    3.4764    0.7097   -2.6465 N   0  0  0  0  0  0  0  0  0  0  0  0
    4.4577    0.6263   -1.7424 C   0  0  0  0  0  0  0  0  0  0  0  0
    4.2303    0.3409   -0.4074 C   0  0  0  0  0  0  0  0  0  0  0  0
    2.9373    0.1314    0.0165 C   0  0  0  0  0  0  0  0  0  0  0  0
    1.9096    0.2150   -0.9121 C   0  0  0  0  0  0  0  0  0  0  0  0
    0.6171    0.0150   -0.5047 N   0  0  0  0  0  0  0  0  0  0  0  0
    5.3163    0.2624    0.5643 C   0  0  0  0  0  0  0  0  0  0  0  0
    6.4789    1.0009    0.5151 C   0  0  0  0  0  0  0  0  0  0  0  0
    7.2371    0.6556    1.5874 N   0  0  0  0  0  0  0  0  0  0  0  0
    6.6103   -0.2596    2.3040 N   0  0  0  0  0  0  0  0  0  0  0  0
    7.0960   -0.8850    3.5325 C   0  0  0  0  0  0  0  0  0  0  0  0
    5.4281   -0.5158    1.6927 C   0  0  0  0  0  0  0  0  0  0  0  0
   -2.0719    2.2459   -0.3434 C   0  0  0  0  0  0  0  0  0  0  0  0
   -0.7718    2.5227   -0.6373 F   0  0  0  0  0  0  0  0  0  0  0  0
   -3.5611    5.2782    1.7075 H   0  0  0  0  0  0  0  0  0  0  0  0
   -3.8440    5.8849    0.0626 H   0  0  0  0  0  0  0  0  0  0  0  0
   -2.4203    6.4967    1.0120 H   0  0  0  0  0  0  0  0  0  0  0  0
   -4.7889    3.8913    0.8007 H   0  0  0  0  0  0  0  0  0  0  0  0
   -7.7249    1.8612    1.6018 H   0  0  0  0  0  0  0  0  0  0  0  0
   -6.5777    3.3073    1.5815 H   0  0  0  0  0  0  0  0  0  0  0  0
   -7.5922    2.9231    0.1815 H   0  0  0  0  0  0  0  0  0  0  0  0
   -3.1675   -1.4567   -1.9992 H   0  0  0  0  0  0  0  0  0  0  0  0
   -2.8044   -1.8557   -0.3199 H   0  0  0  0  0  0  0  0  0  0  0  0
   -0.9162   -2.1449   -2.7907 H   0  0  0  0  0  0  0  0  0  0  0  0
   -1.9878   -3.3465   -2.0985 H   0  0  0  0  0  0  0  0  0  0  0  0
    0.4821   -3.3691   -1.4442 H   0  0  0  0  0  0  0  0  0  0  0  0
   -1.4106   -2.8647    0.7346 H   0  0  0  0  0  0  0  0  0  0  0  0
   -1.7190   -5.3018    0.8831 H   0  0  0  0  0  0  0  0  0  0  0  0
   -0.7446   -5.5604   -0.6354 H   0  0  0  0  0  0  0  0  0  0  0  0
   -2.3172   -4.6933   -0.6683 H   0  0  0  0  0  0  0  0  0  0  0  0
    0.6295   -2.9305    1.8192 H   0  0  0  0  0  0  0  0  0  0  0  0
    0.0205   -4.6059    1.8638 H   0  0  0  0  0  0  0  0  0  0  0  0
    1.3172   -4.2376    0.6985 H   0  0  0  0  0  0  0  0  0  0  0  0
   -0.9205    0.4418   -3.3628 H   0  0  0  0  0  0  0  0  0  0  0  0
    1.3745    0.8107   -4.1564 H   0  0  0  0  0  0  0  0  0  0  0  0
    5.4807    0.7879   -2.0569 H   0  0  0  0  0  0  0  0  0  0  0  0
    2.6927   -0.0955    1.0432 H   0  0  0  0  0  0  0  0  0  0  0  0
    6.7892    1.7291   -0.2073 H   0  0  0  0  0  0  0  0  0  0  0  0
    7.6836   -1.7721    3.2882 H   0  0  0  0  0  0  0  0  0  0  0  0
    7.7594   -0.1511    4.0526 H   0  0  0  0  0  0  0  0  0  0  0  0
    6.2523   -1.0885    4.2247 H   0  0  0  0  0  0  0  0  0  0  0  0
    4.6907   -1.2289    2.0503 H   0  0  0  0  0  0  0  0  0  0  0  0
  1  2  1  0
  2  3  1  0
  3  4  2  0
  4  5  1  0
  5  6  1  0
  6  7  1  0
  5  8  2  0
  8  9  1  0
  8 10  1  0
 10 11  1  0
 11 12  1  0
 12 13  1  0
 13 14  1  0
 14 15  1  0
 15 16  1  0
 15 17  1  0
 11 18  1  0
 18 19  2  0
 19 20  1  0
 20 21  2  0
 21 22  1  0
 22 23  2  0
 23 24  1  0
 24 25  2  0
 25 26  1  0
 26 27  2  0
 24 28  1  0
 28 29  1  0
 29 30  2  0
 30 31  1  0
 31 32  1  0
 31 33  1  0
 10 34  2  0
 34 35  1  0
 34  3  1  0
 27 18  1  0
 33 28  2  0
 26 21  1  0
  1 36  1  0
  1 37  1  0
  1 38  1  0
  4 39  1  0
  7 40  1  0
  7 41  1  0
  7 42  1  0
 12 43  1  0
 12 44  1  0
 13 45  1  0
 13 46  1  0
 14 47  1  0
 15 48  1  0
 16 49  1  0
 16 50  1  0
 16 51  1  0
 17 52  1  0
 17 53  1  0
 17 54  1  0
 19 55  1  0
 20 56  1  0
 23 57  1  0
 25 58  1  0
 29 59  1  0
 32 60  1  0
 32 61  1  0
 32 62  1  0
 33 63  1  0
M  END
$$$$
[H]c1c([H])c([H])c(C(=Nc2c([H])c([H])c(N(C(=O)C([H])([H])N3C([H])([H])C([H])([H])N(C([H])([H])[H])C([H])([H])C3([H])[H])C([H])([H])[H])c([H])c2[H])C2([H])C(=O)N([H])c3c([H])c(C(=O)OC([H])([H])[H])c([H])c([H])c32)c([H])c1[H]
     RDKit          3D

 73 77  0  0  0  0  0  0  0  0999 V2000
   -8.5895    3.6969   -3.0894 C   0  0  0  0  0  0  0  0  0  0  0  0
   -7.9079    2.8094   -2.1932 O   0  0  0  0  0  0  0  0  0  0  0  0
   -7.4096    1.6246   -2.7059 C   0  0  0  0  0  0  0  0  0  0  0  0
   -7.5224    1.2898   -3.8995 O   0  0  0  0  0  0  0  0  0  0  0  0
   -6.7156    0.7281   -1.7873 C   0  0  0  0  0  0  0  0  0  0  0  0
   -6.5696    1.0293   -0.4491 C   0  0  0  0  0  0  0  0  0  0  0  0
   -5.9124    0.1901    0.4219 C   0  0  0  0  0  0  0  0  0  0  0  0
   -5.3613   -1.0106   -0.0116 C   0  0  0  0  0  0  0  0  0  0  0  0
   -4.6209   -2.1234    0.6919 C   0  0  0  0  0  0  0  0  0  0  0  0
   -3.3212   -1.6084    1.2826 C   0  0  0  0  0  0  0  0  0  0  0  0
   -2.3398   -1.7250    0.5525 N   0  0  0  0  0  0  0  0  0  0  0  0
   -0.9903   -1.5029    0.4422 C   0  0  0  0  0  0  0  0  0  0  0  0
   -0.4566   -0.5020   -0.3835 C   0  0  0  0  0  0  0  0  0  0  0  0
    0.8973   -0.2999   -0.5003 C   0  0  0  0  0  0  0  0  0  0  0  0
    1.7957   -1.0670    0.1850 C   0  0  0  0  0  0  0  0  0  0  0  0
    1.2778   -2.0496    0.9963 C   0  0  0  0  0  0  0  0  0  0  0  0
   -0.0475   -2.2793    1.1372 C   0  0  0  0  0  0  0  0  0  0  0  0
    3.1895   -0.8267    0.0414 N   0  0  0  0  0  0  0  0  0  0  0  0
    3.9025   -0.5386    1.2677 C   0  0  0  0  0  0  0  0  0  0  0  0
    3.8212   -0.9280   -1.1916 C   0  0  0  0  0  0  0  0  0  0  0  0
    3.0541   -1.4183   -2.1423 O   0  0  0  0  0  0  0  0  0  0  0  0
    5.1659   -0.6017   -1.6338 C   0  0  0  0  0  0  0  0  0  0  0  0
    6.0767    0.0243   -0.7742 N   0  0  0  0  0  0  0  0  0  0  0  0
    5.8861    1.4058   -0.4754 C   0  0  0  0  0  0  0  0  0  0  0  0
    6.8768    2.2577   -1.2467 C   0  0  0  0  0  0  0  0  0  0  0  0
    8.2305    1.8688   -1.0385 N   0  0  0  0  0  0  0  0  0  0  0  0
    9.1495    2.2277   -2.0689 C   0  0  0  0  0  0  0  0  0  0  0  0
    8.4436    0.5882   -0.4547 C   0  0  0  0  0  0  0  0  0  0  0  0
    7.4173   -0.4493   -0.7610 C   0  0  0  0  0  0  0  0  0  0  0  0
   -3.3835   -0.9534    2.5901 C   0  0  0  0  0  0  0  0  0  0  0  0
   -2.3664   -0.1526    3.0618 C   0  0  0  0  0  0  0  0  0  0  0  0
   -2.4272    0.3732    4.3332 C   0  0  0  0  0  0  0  0  0  0  0  0
   -3.4808    0.1362    5.1863 C   0  0  0  0  0  0  0  0  0  0  0  0
   -4.4898   -0.6709    4.6880 C   0  0  0  0  0  0  0  0  0  0  0  0
   -4.4708   -1.2143    3.4320 C   0  0  0  0  0  0  0  0  0  0  0  0
   -4.3030   -3.0414   -0.4319 C   0  0  0  0  0  0  0  0  0  0  0  0
   -3.6273   -4.0910   -0.2873 O   0  0  0  0  0  0  0  0  0  0  0  0
   -4.8581   -2.5541   -1.6003 N   0  0  0  0  0  0  0  0  0  0  0  0
   -5.5144   -1.2952   -1.3459 C   0  0  0  0  0  0  0  0  0  0  0  0
   -6.1712   -0.4623   -2.2293 C   0  0  0  0  0  0  0  0  0  0  0  0
   -8.2410    4.7167   -2.8420 H   0  0  0  0  0  0  0  0  0  0  0  0
   -9.6951    3.7031   -2.8866 H   0  0  0  0  0  0  0  0  0  0  0  0
   -8.3577    3.4516   -4.1325 H   0  0  0  0  0  0  0  0  0  0  0  0
   -6.9970    1.9651   -0.1028 H   0  0  0  0  0  0  0  0  0  0  0  0
   -5.8142    0.4592    1.4705 H   0  0  0  0  0  0  0  0  0  0  0  0
   -5.1956   -2.6703    1.4065 H   0  0  0  0  0  0  0  0  0  0  0  0
   -1.1519    0.1024   -0.9229 H   0  0  0  0  0  0  0  0  0  0  0  0
    1.2258    0.4951   -1.1599 H   0  0  0  0  0  0  0  0  0  0  0  0
    1.9644   -2.6802    1.5571 H   0  0  0  0  0  0  0  0  0  0  0  0
   -0.4526   -3.0650    1.7864 H   0  0  0  0  0  0  0  0  0  0  0  0
    3.7892    0.5238    1.5576 H   0  0  0  0  0  0  0  0  0  0  0  0
    4.9317   -0.9033    1.3048 H   0  0  0  0  0  0  0  0  0  0  0  0
    3.4002   -1.0845    2.1343 H   0  0  0  0  0  0  0  0  0  0  0  0
    5.0800    0.0312   -2.5750 H   0  0  0  0  0  0  0  0  0  0  0  0
    5.6418   -1.5521   -2.0496 H   0  0  0  0  0  0  0  0  0  0  0  0
    6.0832    1.5904    0.6079 H   0  0  0  0  0  0  0  0  0  0  0  0
    4.8630    1.6871   -0.7440 H   0  0  0  0  0  0  0  0  0  0  0  0
    6.7450    3.3055   -0.8998 H   0  0  0  0  0  0  0  0  0  0  0  0
    6.6327    2.2447   -2.3273 H   0  0  0  0  0  0  0  0  0  0  0  0
    9.4632    1.3581   -2.6892 H   0  0  0  0  0  0  0  0  0  0  0  0
    8.8000    3.0717   -2.6842 H   0  0  0  0  0  0  0  0  0  0  0  0
   10.0952    2.5950   -1.5707 H   0  0  0  0  0  0  0  0  0  0  0  0
    9.4236    0.2012   -0.8674 H   0  0  0  0  0  0  0  0  0  0  0  0
    8.6600    0.7061    0.6432 H   0  0  0  0  0  0  0  0  0  0  0  0
    7.4765   -1.2108    0.0736 H   0  0  0  0  0  0  0  0  0  0  0  0
    7.6844   -1.0376   -1.6838 H   0  0  0  0  0  0  0  0  0  0  0  0
   -1.4924    0.0982    2.4306 H   0  0  0  0  0  0  0  0  0  0  0  0
   -1.6168    1.0005    4.6848 H   0  0  0  0  0  0  0  0  0  0  0  0
   -3.5323    0.5386    6.1669 H   0  0  0  0  0  0  0  0  0  0  0  0
   -5.3658   -0.9115    5.3001 H   0  0  0  0  0  0  0  0  0  0  0  0
   -5.2953   -1.8454    3.0839 H   0  0  0  0  0  0  0  0  0  0  0  0
   -4.8183   -3.0187   -2.5440 H   0  0  0  0  0  0  0  0  0  0  0  0
   -6.2616   -0.7500   -3.2892 H   0  0  0  0  0  0  0  0  0  0  0  0
  1  2  1  0
  2  3  1  0
  3  4  2  0
  3  5  1  0
  5  6  2  0
  6  7  1  0
  7  8  2  0
  8  9  1  0
  9 10  1  0
 10 11  2  3
 11 12  1  0
 12 13  2  0
 13 14  1  0
 14 15  2  0
 15 16  1  0
 16 17  2  0
 15 18  1  0
 18 19  1  0
 18 20  1  0
 20 21  2  0
 20 22  1  0
 22 23  1  0
 23 24  1  0
 24 25  1  0
 25 26  1  0
 26 27  1  0
 26 28  1  0
 28 29  1  0
 10 30  1  0
 30 31  2  0
 31 32  1  0
 32 33  2  0
 33 34  1  0
 34 35  2  0
  9 36  1  0
 36 37  2  0
 36 38  1  0
 38 39  1  0
 39 40  2  0
 40  5  1  0
 39  8  1  0
 17 12  1  0
 29 23  1  0
 35 30  1  0
  1 41  1  0
  1 42  1  0
  1 43  1  0
  6 44  1  0
  7 45  1  0
  9 46  1  0
 13 47  1  0
 14 48  1  0
 16 49  1  0
 17 50  1  0
 19 51  1  0
 19 52  1  0
 19 53  1  0
 22 54  1  0
 22 55  1  0
 24 56  1  0
 24 57  1  0
 25 58  1  0
 25 59  1  0
 27 60  1  0
 27 61  1  0
 27 62  1  0
 28 63  1  0
 28 64  1  0
 29 65  1  0
 29 66  1  0
 31 67  1  0
 32 68  1  0
 33 69  1  0
 34 70  1  0
 35 71  1  0
 38 72  1  0
 40 73  1  0
M  END
$$$$
[H]Oc1c([H])c([H])c(Cl)c(-n2nc([H])c(C(=O)c3c([H])c4c([H])c([H])c([H])c([H])c4n3[H])c2N([H])[H])c1[H]
     RDKit          3D

 38 41  0  0  0  0  0  0  0  0999 V2000
    1.8672   -1.3390    1.8048 N   0  0  0  0  0  0  0  0  0  0  0  0
    1.4532   -0.5706    0.7054 C   0  0  0  0  0  0  0  0  0  0  0  0
    0.1310   -0.2875    0.4077 C   0  0  0  0  0  0  0  0  0  0  0  0
    0.1586    0.4789   -0.7282 C   0  0  0  0  0  0  0  0  0  0  0  0
    1.4486    0.6230   -1.0606 N   0  0  0  0  0  0  0  0  0  0  0  0
    2.2292   -0.0049   -0.2032 N   0  0  0  0  0  0  0  0  0  0  0  0
    3.6632   -0.0248   -0.3049 C   0  0  0  0  0  0  0  0  0  0  0  0
    4.4571    1.0471    0.0462 C   0  0  0  0  0  0  0  0  0  0  0  0
    5.8358    1.0045   -0.0602 C   0  0  0  0  0  0  0  0  0  0  0  0
    6.5629    2.1253    0.3136 O   0  0  0  0  0  0  0  0  0  0  0  0
    6.4757   -0.1237   -0.5263 C   0  0  0  0  0  0  0  0  0  0  0  0
    5.6872   -1.1980   -0.8785 C   0  0  0  0  0  0  0  0  0  0  0  0
    4.2962   -1.1564   -0.7718 C   0  0  0  0  0  0  0  0  0  0  0  0
    3.3270   -2.5426   -1.2306 Cl  0  0  0  0  0  0  0  0  0  0  0  0
   -1.0512   -0.6924    1.1447 C   0  0  0  0  0  0  0  0  0  0  0  0
   -0.8785   -1.3603    2.1940 O   0  0  0  0  0  0  0  0  0  0  0  0
   -2.3856   -0.3634    0.7268 C   0  0  0  0  0  0  0  0  0  0  0  0
   -2.9210   -0.3110   -0.5302 C   0  0  0  0  0  0  0  0  0  0  0  0
   -4.2609    0.0706   -0.4309 C   0  0  0  0  0  0  0  0  0  0  0  0
   -5.2652    0.2808   -1.3364 C   0  0  0  0  0  0  0  0  0  0  0  0
   -6.5189    0.6614   -0.9280 C   0  0  0  0  0  0  0  0  0  0  0  0
   -6.7658    0.8321    0.4002 C   0  0  0  0  0  0  0  0  0  0  0  0
   -5.7752    0.6291    1.3498 C   0  0  0  0  0  0  0  0  0  0  0  0
   -4.5143    0.2444    0.9138 C   0  0  0  0  0  0  0  0  0  0  0  0
   -3.3730   -0.0232    1.5745 N   0  0  0  0  0  0  0  0  0  0  0  0
    1.4391   -2.2550    2.0160 H   0  0  0  0  0  0  0  0  0  0  0  0
    2.6230   -0.9766    2.4211 H   0  0  0  0  0  0  0  0  0  0  0  0
   -0.6519    0.9291   -1.3086 H   0  0  0  0  0  0  0  0  0  0  0  0
    3.9333    1.9271    0.4115 H   0  0  0  0  0  0  0  0  0  0  0  0
    6.9032    2.2750    1.2496 H   0  0  0  0  0  0  0  0  0  0  0  0
    7.5613   -0.1744   -0.6168 H   0  0  0  0  0  0  0  0  0  0  0  0
    6.1526   -2.1077   -1.2506 H   0  0  0  0  0  0  0  0  0  0  0  0
   -2.4765   -0.5167   -1.4796 H   0  0  0  0  0  0  0  0  0  0  0  0
   -5.0444    0.1396   -2.3808 H   0  0  0  0  0  0  0  0  0  0  0  0
   -7.2847    0.8191   -1.6540 H   0  0  0  0  0  0  0  0  0  0  0  0
   -7.7551    1.1366    0.7726 H   0  0  0  0  0  0  0  0  0  0  0  0
   -5.9653    0.7631    2.4083 H   0  0  0  0  0  0  0  0  0  0  0  0
   -3.3179    0.0413    2.6184 H   0  0  0  0  0  0  0  0  0  0  0  0
  1  2  1  0
  2  3  2  0
  3  4  1  0
  4  5  2  0
  5  6  1  0
  6  7  1  0
  7  8  2  0
  8  9  1  0
  9 10  1  0
  9 11  2  0
 11 12  1  0
 12 13  2  0
 13 14  1  0
  3 15  1  0
 15 16  2  0
 15 17  1  0
 17 18  2  0
 18 19  1  0
 19 20  2  0
 20 21  1  0
 21 22  2  0
 22 23  1  0
 23 24  2  0
 24 25  1  0
  6  2  1  0
 13  7  1  0
 25 17  1  0
 24 19  1  0
  1 26  1  0
  1 27  1  0
  4 28  1  0
  8 29  1  0
 10 30  1  0
 11 31  1  0
 12 32  1  0
 18 33  1  0
 20 34  1  0
 21 35  1  0
 22 36  1  0
 23 37  1  0
 25 38  1  0
M  END
$$$$
[H]c1nc2c([H])c([H])c(N(c3c([H])c(OC([H])([H])[H])c([H])c(OC([H])([H])[H])c3F)C([H])([H])C3([H])N([H])C(=O)C([H])([H])C3([H])[H])nc2c([H])c1-c1c([H])nn(C([H])([H])[H])c1[H]
     RDKit          3D

 60 64  0  0  0  0  0  0  0  0999 V2000
   -5.6258    3.9477   -0.2438 C   0  0  0  0  0  0  0  0  0  0  0  0
   -4.7394    3.1245   -0.9348 O   0  0  0  0  0  0  0  0  0  0  0  0
   -3.8864    2.1915   -0.3886 C   0  0  0  0  0  0  0  0  0  0  0  0
   -3.8567    1.9992    0.9972 C   0  0  0  0  0  0  0  0  0  0  0  0
   -3.0058    1.0721    1.5264 C   0  0  0  0  0  0  0  0  0  0  0  0
   -2.9577    0.8637    2.8817 O   0  0  0  0  0  0  0  0  0  0  0  0
   -3.7976    1.6186    3.7254 C   0  0  0  0  0  0  0  0  0  0  0  0
   -2.1881    0.3415    0.6657 C   0  0  0  0  0  0  0  0  0  0  0  0
   -1.3597   -0.5241    1.2510 F   0  0  0  0  0  0  0  0  0  0  0  0
   -2.1972    0.5062   -0.6793 C   0  0  0  0  0  0  0  0  0  0  0  0
   -3.0765    1.4624   -1.2049 C   0  0  0  0  0  0  0  0  0  0  0  0
   -1.4149   -0.2196   -1.5791 N   0  0  0  0  0  0  0  0  0  0  0  0
   -1.9188   -1.2736   -2.3757 C   0  0  0  0  0  0  0  0  0  0  0  0
   -2.4270   -2.5083   -1.7613 C   0  0  0  0  0  0  0  0  0  0  0  0
   -1.4953   -3.3323   -0.9526 C   0  0  0  0  0  0  0  0  0  0  0  0
   -2.3610   -3.9533    0.1501 C   0  0  0  0  0  0  0  0  0  0  0  0
   -3.6430   -3.2168    0.1182 C   0  0  0  0  0  0  0  0  0  0  0  0
   -4.5987   -3.4326    0.8877 O   0  0  0  0  0  0  0  0  0  0  0  0
   -3.5997   -2.2455   -0.9131 N   0  0  0  0  0  0  0  0  0  0  0  0
   -0.0435    0.1554   -1.6996 C   0  0  0  0  0  0  0  0  0  0  0  0
    0.3605    1.0018   -2.7223 C   0  0  0  0  0  0  0  0  0  0  0  0
    1.6570    1.4161   -2.8923 C   0  0  0  0  0  0  0  0  0  0  0  0
    2.5935    0.9430   -1.9705 C   0  0  0  0  0  0  0  0  0  0  0  0
    3.8681    1.3233   -2.0900 N   0  0  0  0  0  0  0  0  0  0  0  0
    4.7882    0.9028   -1.2332 C   0  0  0  0  0  0  0  0  0  0  0  0
    4.4764    0.0531   -0.1772 C   0  0  0  0  0  0  0  0  0  0  0  0
    3.1573   -0.3395   -0.0556 C   0  0  0  0  0  0  0  0  0  0  0  0
    2.2164    0.1076   -0.9548 C   0  0  0  0  0  0  0  0  0  0  0  0
    0.9234   -0.2543   -0.8552 N   0  0  0  0  0  0  0  0  0  0  0  0
    5.4820   -0.3973    0.7644 C   0  0  0  0  0  0  0  0  0  0  0  0
    5.5304   -1.5926    1.4426 C   0  0  0  0  0  0  0  0  0  0  0  0
    6.6489   -1.5815    2.2210 N   0  0  0  0  0  0  0  0  0  0  0  0
    7.2942   -0.4457    2.0612 N   0  0  0  0  0  0  0  0  0  0  0  0
    8.5230   -0.0986    2.7372 C   0  0  0  0  0  0  0  0  0  0  0  0
    6.5925    0.3056    1.1644 C   0  0  0  0  0  0  0  0  0  0  0  0
   -5.2479    4.2995    0.7279 H   0  0  0  0  0  0  0  0  0  0  0  0
   -5.8153    4.8560   -0.8864 H   0  0  0  0  0  0  0  0  0  0  0  0
   -6.6273    3.5009   -0.0895 H   0  0  0  0  0  0  0  0  0  0  0  0
   -4.5156    2.6010    1.5723 H   0  0  0  0  0  0  0  0  0  0  0  0
   -3.7543    1.2733    4.7803 H   0  0  0  0  0  0  0  0  0  0  0  0
   -3.4053    2.6709    3.7171 H   0  0  0  0  0  0  0  0  0  0  0  0
   -4.8436    1.6851    3.3552 H   0  0  0  0  0  0  0  0  0  0  0  0
   -3.1042    1.6133   -2.2591 H   0  0  0  0  0  0  0  0  0  0  0  0
   -1.1456   -1.6071   -3.1546 H   0  0  0  0  0  0  0  0  0  0  0  0
   -2.7546   -0.9138   -3.0723 H   0  0  0  0  0  0  0  0  0  0  0  0
   -2.8500   -3.2099   -2.5528 H   0  0  0  0  0  0  0  0  0  0  0  0
   -1.0723   -4.1956   -1.5222 H   0  0  0  0  0  0  0  0  0  0  0  0
   -0.6976   -2.7877   -0.4467 H   0  0  0  0  0  0  0  0  0  0  0  0
   -1.8781   -3.8640    1.1354 H   0  0  0  0  0  0  0  0  0  0  0  0
   -2.6054   -5.0164   -0.1059 H   0  0  0  0  0  0  0  0  0  0  0  0
   -4.2491   -1.4694   -1.0859 H   0  0  0  0  0  0  0  0  0  0  0  0
   -0.3887    1.3442   -3.4109 H   0  0  0  0  0  0  0  0  0  0  0  0
    2.0198    2.0693   -3.6657 H   0  0  0  0  0  0  0  0  0  0  0  0
    5.8004    1.2270   -1.3586 H   0  0  0  0  0  0  0  0  0  0  0  0
    2.8708   -1.0006    0.7517 H   0  0  0  0  0  0  0  0  0  0  0  0
    4.8583   -2.4264    1.4204 H   0  0  0  0  0  0  0  0  0  0  0  0
    8.4905   -0.3786    3.8170 H   0  0  0  0  0  0  0  0  0  0  0  0
    9.4222   -0.5021    2.2444 H   0  0  0  0  0  0  0  0  0  0  0  0
    8.6545    1.0154    2.7341 H   0  0  0  0  0  0  0  0  0  0  0  0
    6.9194    1.2954    0.8597 H   0  0  0  0  0  0  0  0  0  0  0  0
  1  2  1  0
  2  3  1  0
  3  4  2  0
  4  5  1  0
  5  6  1  0
  6  7  1  0
  5  8  2  0
  8  9  1  0
  8 10  1  0
 10 11  2  0
 10 12  1  0
 12 13  1  0
 13 14  1  0
 14 15  1  0
 15 16  1  0
 16 17  1  0
 17 18  2  0
 17 19  1  0
 12 20  1  0
 20 21  2  0
 21 22  1  0
 22 23  2  0
 23 24  1  0
 24 25  2  0
 25 26  1  0
 26 27  2  0
 27 28  1  0
 28 29  2  0
 26 30  1  0
 30 31  1  0
 31 32  2  0
 32 33  1  0
 33 34  1  0
 33 35  1  0
 11  3  1  0
 19 14  1  0
 29 20  1  0
 35 30  2  0
 28 23  1  0
  1 36  1  0
  1 37  1  0
  1 38  1  0
  4 39  1  0
  7 40  1  0
  7 41  1  0
  7 42  1  0
 11 43  1  0
 13 44  1  0
 13 45  1  0
 14 46  1  0
 15 47  1  0
 15 48  1  0
 16 49  1  0
 16 50  1  0
 19 51  1  0
 21 52  1  0
 22 53  1  0
 25 54  1  0
 27 55  1  0
 31 56  1  0
 34 57  1  0
 34 58  1  0
 34 59  1  0
 35 60  1  0
M  END
$$$$
[H]c1nc([H])c([H])c(-c2c([H])nc3c([H])c([H])c(N(c4c([H])c(OC([H])([H])[H])c([H])c(OC([H])([H])[H])c4[H])C([H])([H])c4nc([H])c([H])n4[H])nc3c2[H])c1[H]
     RDKit          3D

 55 59  0  0  0  0  0  0  0  0999 V2000
   -3.5903   -3.1598   -3.3750 C   0  0  0  0  0  0  0  0  0  0  0  0
   -3.0266   -2.8515   -2.1176 O   0  0  0  0  0  0  0  0  0  0  0  0
   -2.9829   -1.5775   -1.6138 C   0  0  0  0  0  0  0  0  0  0  0  0
   -3.5135   -0.5405   -2.3702 C   0  0  0  0  0  0  0  0  0  0  0  0
   -3.4875    0.7574   -1.8934 C   0  0  0  0  0  0  0  0  0  0  0  0
   -3.9933    1.8459   -2.5855 O   0  0  0  0  0  0  0  0  0  0  0  0
   -4.5924    1.8379   -3.8353 C   0  0  0  0  0  0  0  0  0  0  0  0
   -2.9176    1.0004   -0.6383 C   0  0  0  0  0  0  0  0  0  0  0  0
   -2.3885    0.0028    0.1265 C   0  0  0  0  0  0  0  0  0  0  0  0
   -2.4272   -1.2910   -0.3761 C   0  0  0  0  0  0  0  0  0  0  0  0
   -1.7861    0.1751    1.4056 N   0  0  0  0  0  0  0  0  0  0  0  0
   -2.5286   -0.1058    2.5726 C   0  0  0  0  0  0  0  0  0  0  0  0
   -1.7497   -0.1274    3.8433 C   0  0  0  0  0  0  0  0  0  0  0  0
   -0.6129   -0.7967    4.1012 N   0  0  0  0  0  0  0  0  0  0  0  0
   -0.1946   -0.5924    5.3551 C   0  0  0  0  0  0  0  0  0  0  0  0
   -1.1262    0.2562    5.9132 C   0  0  0  0  0  0  0  0  0  0  0  0
   -2.0552    0.5242    4.9856 N   0  0  0  0  0  0  0  0  0  0  0  0
   -0.4505    0.6561    1.4063 C   0  0  0  0  0  0  0  0  0  0  0  0
   -0.0590    1.7287    2.1950 C   0  0  0  0  0  0  0  0  0  0  0  0
    1.2130    2.2339    2.2023 C   0  0  0  0  0  0  0  0  0  0  0  0
    2.1491    1.6439    1.3815 C   0  0  0  0  0  0  0  0  0  0  0  0
    3.4198    2.0756    1.3118 N   0  0  0  0  0  0  0  0  0  0  0  0
    4.2868    1.4724    0.4903 C   0  0  0  0  0  0  0  0  0  0  0  0
    3.9538    0.3974   -0.3203 C   0  0  0  0  0  0  0  0  0  0  0  0
    2.6562   -0.0573   -0.2598 C   0  0  0  0  0  0  0  0  0  0  0  0
    1.7516    0.5747    0.5990 C   0  0  0  0  0  0  0  0  0  0  0  0
    0.4891    0.1068    0.6217 N   0  0  0  0  0  0  0  0  0  0  0  0
    4.9554   -0.1898   -1.1858 C   0  0  0  0  0  0  0  0  0  0  0  0
    5.9591    0.5653   -1.7423 C   0  0  0  0  0  0  0  0  0  0  0  0
    6.9193   -0.0292   -2.5777 C   0  0  0  0  0  0  0  0  0  0  0  0
    6.8563   -1.3431   -2.8341 N   0  0  0  0  0  0  0  0  0  0  0  0
    5.8825   -2.0989   -2.2994 C   0  0  0  0  0  0  0  0  0  0  0  0
    4.9125   -1.5296   -1.4629 C   0  0  0  0  0  0  0  0  0  0  0  0
   -3.7038   -4.2736   -3.5025 H   0  0  0  0  0  0  0  0  0  0  0  0
   -2.8997   -2.8152   -4.1540 H   0  0  0  0  0  0  0  0  0  0  0  0
   -4.5806   -2.6580   -3.5382 H   0  0  0  0  0  0  0  0  0  0  0  0
   -3.9507   -0.7365   -3.3369 H   0  0  0  0  0  0  0  0  0  0  0  0
   -4.6506    0.8685   -4.3449 H   0  0  0  0  0  0  0  0  0  0  0  0
   -4.0780    2.5844   -4.5049 H   0  0  0  0  0  0  0  0  0  0  0  0
   -5.6256    2.2402   -3.7246 H   0  0  0  0  0  0  0  0  0  0  0  0
   -2.8892    2.0036   -0.2520 H   0  0  0  0  0  0  0  0  0  0  0  0
   -2.0296   -2.1520    0.1654 H   0  0  0  0  0  0  0  0  0  0  0  0
   -3.0873   -1.0831    2.5288 H   0  0  0  0  0  0  0  0  0  0  0  0
   -3.3553    0.6674    2.6810 H   0  0  0  0  0  0  0  0  0  0  0  0
    0.6947   -0.9963    5.8649 H   0  0  0  0  0  0  0  0  0  0  0  0
   -1.0486    0.6035    6.9378 H   0  0  0  0  0  0  0  0  0  0  0  0
   -2.8956    1.1455    5.1245 H   0  0  0  0  0  0  0  0  0  0  0  0
   -0.7927    2.1947    2.8316 H   0  0  0  0  0  0  0  0  0  0  0  0
    1.5366    3.0661    2.8088 H   0  0  0  0  0  0  0  0  0  0  0  0
    5.3290    1.8107    0.4175 H   0  0  0  0  0  0  0  0  0  0  0  0
    2.3543   -0.8889   -0.8702 H   0  0  0  0  0  0  0  0  0  0  0  0
    6.0205    1.6239   -1.5455 H   0  0  0  0  0  0  0  0  0  0  0  0
    7.7190    0.5316   -3.0315 H   0  0  0  0  0  0  0  0  0  0  0  0
    5.8731   -3.1468   -2.5349 H   0  0  0  0  0  0  0  0  0  0  0  0
    4.1382   -2.1535   -1.0438 H   0  0  0  0  0  0  0  0  0  0  0  0
  1  2  1  0
  2  3  1  0
  3  4  2  0
  4  5  1  0
  5  6  1  0
  6  7  1  0
  5  8  2  0
  8  9  1  0
  9 10  2  0
  9 11  1  0
 11 12  1  0
 12 13  1  0
 13 14  2  0
 14 15  1  0
 15 16  2  0
 16 17  1  0
 11 18  1  0
 18 19  2  0
 19 20  1  0
 20 21  2  0
 21 22  1  0
 22 23  2  0
 23 24  1  0
 24 25  2  0
 25 26  1  0
 26 27  2  0
 24 28  1  0
 28 29  2  0
 29 30  1  0
 30 31  2  0
 31 32  1  0
 32 33  2  0
 10  3  1  0
 17 13  1  0
 27 18  1  0
 33 28  1  0
 26 21  1  0
  1 34  1  0
  1 35  1  0
  1 36  1  0
  4 37  1  0
  7 38  1  0
  7 39  1  0
  7 40  1  0
  8 41  1  0
 10 42  1  0
 12 43  1  0
 12 44  1  0
 15 45  1  0
 16 46  1  0
 17 47  1  0
 19 48  1  0
 20 49  1  0
 23 50  1  0
 25 51  1  0
 29 52  1  0
 30 53  1  0
 32 54  1  0
 33 55  1  0
M  END
$$$$
[H]c1nn(-c2c([H])c([H])c3c(nc(C([H])([H])[H])n3[H])c2[H])c(N([H])[H])c1C(=O)c1c([H])c2c([H])c([H])c(C([H])([H])N3C([H])([H])C([H])([H])OC([H])([H])C3([H])[H])c([H])c2n1[H]
     RDKit          3D

 59 64  0  0  0  0  0  0  0  0999 V2000
   11.0856   -1.2966    1.2916 C   0  0  0  0  0  0  0  0  0  0  0  0
    9.7314   -0.8431    0.9050 C   0  0  0  0  0  0  0  0  0  0  0  0
    8.5374   -1.4450    1.0666 N   0  0  0  0  0  0  0  0  0  0  0  0
    7.5584   -0.6827    0.5670 C   0  0  0  0  0  0  0  0  0  0  0  0
    6.1766   -0.8175    0.4695 C   0  0  0  0  0  0  0  0  0  0  0  0
    5.4038    0.1616   -0.1160 C   0  0  0  0  0  0  0  0  0  0  0  0
    6.0414    1.2779   -0.6017 C   0  0  0  0  0  0  0  0  0  0  0  0
    7.4143    1.4438   -0.5209 C   0  0  0  0  0  0  0  0  0  0  0  0
    8.1820    0.4428    0.0748 C   0  0  0  0  0  0  0  0  0  0  0  0
    9.4925    0.3190    0.2925 N   0  0  0  0  0  0  0  0  0  0  0  0
    3.9699    0.0342   -0.2291 N   0  0  0  0  0  0  0  0  0  0  0  0
    3.1900   -0.2468    0.7935 N   0  0  0  0  0  0  0  0  0  0  0  0
    1.9166   -0.2998    0.3782 C   0  0  0  0  0  0  0  0  0  0  0  0
    1.8734   -0.0428   -0.9694 C   0  0  0  0  0  0  0  0  0  0  0  0
    0.7561    0.0366   -1.8955 C   0  0  0  0  0  0  0  0  0  0  0  0
    0.9601    0.3421   -3.0959 O   0  0  0  0  0  0  0  0  0  0  0  0
   -0.6072   -0.2267   -1.4838 C   0  0  0  0  0  0  0  0  0  0  0  0
   -0.9820   -1.2278   -0.6211 C   0  0  0  0  0  0  0  0  0  0  0  0
   -2.3701   -1.1407   -0.4801 C   0  0  0  0  0  0  0  0  0  0  0  0
   -3.2958   -1.8634    0.2383 C   0  0  0  0  0  0  0  0  0  0  0  0
   -4.6533   -1.5673    0.2019 C   0  0  0  0  0  0  0  0  0  0  0  0
   -5.1137   -0.5187   -0.5729 C   0  0  0  0  0  0  0  0  0  0  0  0
   -6.5617   -0.1782   -0.6399 C   0  0  0  0  0  0  0  0  0  0  0  0
   -6.9432    0.7834    0.3761 N   0  0  0  0  0  0  0  0  0  0  0  0
   -8.3637    1.1077    0.2762 C   0  0  0  0  0  0  0  0  0  0  0  0
   -8.5432    2.3850    1.1088 C   0  0  0  0  0  0  0  0  0  0  0  0
   -8.0073    2.2074    2.3683 O   0  0  0  0  0  0  0  0  0  0  0  0
   -7.7541    0.8843    2.6883 C   0  0  0  0  0  0  0  0  0  0  0  0
   -6.7803    0.2292    1.7164 C   0  0  0  0  0  0  0  0  0  0  0  0
   -4.1723    0.1934   -1.2849 C   0  0  0  0  0  0  0  0  0  0  0  0
   -2.8078   -0.0977   -1.2534 C   0  0  0  0  0  0  0  0  0  0  0  0
   -1.7293    0.4323   -1.8438 N   0  0  0  0  0  0  0  0  0  0  0  0
    3.2208    0.1652   -1.3083 C   0  0  0  0  0  0  0  0  0  0  0  0
    3.6842    0.4661   -2.6056 N   0  0  0  0  0  0  0  0  0  0  0  0
   11.6101   -1.5655    0.3571 H   0  0  0  0  0  0  0  0  0  0  0  0
   11.0632   -2.1076    2.0228 H   0  0  0  0  0  0  0  0  0  0  0  0
   11.6024   -0.4177    1.7472 H   0  0  0  0  0  0  0  0  0  0  0  0
    5.6836   -1.7054    0.8576 H   0  0  0  0  0  0  0  0  0  0  0  0
    5.4472    2.0436   -1.0579 H   0  0  0  0  0  0  0  0  0  0  0  0
    7.9458    2.3073   -0.8925 H   0  0  0  0  0  0  0  0  0  0  0  0
   10.2134    1.0320    0.0194 H   0  0  0  0  0  0  0  0  0  0  0  0
    1.0284   -0.5058    1.0009 H   0  0  0  0  0  0  0  0  0  0  0  0
   -0.3743   -1.9795   -0.1214 H   0  0  0  0  0  0  0  0  0  0  0  0
   -2.9706   -2.6856    0.8510 H   0  0  0  0  0  0  0  0  0  0  0  0
   -5.3211   -2.1736    0.7882 H   0  0  0  0  0  0  0  0  0  0  0  0
   -6.7557    0.3056   -1.6331 H   0  0  0  0  0  0  0  0  0  0  0  0
   -7.2206   -1.0434   -0.5592 H   0  0  0  0  0  0  0  0  0  0  0  0
   -8.9479    0.3237    0.7590 H   0  0  0  0  0  0  0  0  0  0  0  0
   -8.6834    1.3271   -0.7557 H   0  0  0  0  0  0  0  0  0  0  0  0
   -7.8917    3.1506    0.5933 H   0  0  0  0  0  0  0  0  0  0  0  0
   -9.5737    2.7526    1.0906 H   0  0  0  0  0  0  0  0  0  0  0  0
   -7.2656    0.8644    3.6840 H   0  0  0  0  0  0  0  0  0  0  0  0
   -8.6924    0.2875    2.7903 H   0  0  0  0  0  0  0  0  0  0  0  0
   -5.7436    0.2582    2.0702 H   0  0  0  0  0  0  0  0  0  0  0  0
   -7.1073   -0.8307    1.6455 H   0  0  0  0  0  0  0  0  0  0  0  0
   -4.5384    1.0083   -1.8849 H   0  0  0  0  0  0  0  0  0  0  0  0
   -1.7212    1.2475   -2.5013 H   0  0  0  0  0  0  0  0  0  0  0  0
    4.2145   -0.2412   -3.1522 H   0  0  0  0  0  0  0  0  0  0  0  0
    3.4898    1.4038   -3.0094 H   0  0  0  0  0  0  0  0  0  0  0  0
  1  2  1  0
  2  3  2  0
  3  4  1  0
  4  5  2  0
  5  6  1  0
  6  7  2  0
  7  8  1  0
  8  9  2  0
  9 10  1  0
  6 11  1  0
 11 12  1  0
 12 13  2  0
 13 14  1  0
 14 15  1  0
 15 16  2  0
 15 17  1  0
 17 18  2  0
 18 19  1  0
 19 20  2  0
 20 21  1  0
 21 22  2  0
 22 23  1  0
 23 24  1  0
 24 25  1  0
 25 26  1  0
 26 27  1  0
 27 28  1  0
 28 29  1  0
 22 30  1  0
 30 31  2  0
 31 32  1  0
 14 33  2  0
 33 34  1  0
 10  2  1  0
 33 11  1  0
  9  4  1  0
 32 17  1  0
 31 19  1  0
 29 24  1  0
  1 35  1  0
  1 36  1  0
  1 37  1  0
  5 38  1  0
  7 39  1  0
  8 40  1  0
 10 41  1  0
 13 42  1  0
 18 43  1  0
 20 44  1  0
 21 45  1  0
 23 46  1  0
 23 47  1  0
 25 48  1  0
 25 49  1  0
 26 50  1  0
 26 51  1  0
 28 52  1  0
 28 53  1  0
 29 54  1  0
 29 55  1  0
 30 56  1  0
 32 57  1  0
 34 58  1  0
 34 59  1  0
M  END
$$$$
[H]c1nc(N([H])[H])c(-c2nn(-c3c([H])c(OC([H])([H])[H])c([H])c(OC([H])([H])[H])c3[H])c(=O)c([H])c2[H])nc1-c1c([H])nn(C2([H])C([H])([H])C([H])([H])N(C([H])([H])C([H])([H])OC([H])([H])[H])C([H])([H])C2([H])[H])c1[H]
     RDKit          3D

 71 75  0  0  0  0  0  0  0  0999 V2000
  -10.1916    0.0470    1.2967 C   0  0  0  0  0  0  0  0  0  0  0  0
   -9.1127    0.6509    1.8637 O   0  0  0  0  0  0  0  0  0  0  0  0
   -8.2504    1.2446    0.9682 C   0  0  0  0  0  0  0  0  0  0  0  0
   -7.7034    0.2335    0.0236 C   0  0  0  0  0  0  0  0  0  0  0  0
   -6.7718    0.8065   -0.9379 N   0  0  0  0  0  0  0  0  0  0  0  0
   -5.5767    1.2317   -0.2884 C   0  0  0  0  0  0  0  0  0  0  0  0
   -4.4692    1.6326   -1.2034 C   0  0  0  0  0  0  0  0  0  0  0  0
   -4.3925    0.9145   -2.4946 C   0  0  0  0  0  0  0  0  0  0  0  0
   -5.6899    0.3327   -2.9792 C   0  0  0  0  0  0  0  0  0  0  0  0
   -6.4034   -0.3099   -1.8183 C   0  0  0  0  0  0  0  0  0  0  0  0
   -3.4369   -0.2015   -2.4173 N   0  0  0  0  0  0  0  0  0  0  0  0
   -2.2128   -0.0998   -1.9099 C   0  0  0  0  0  0  0  0  0  0  0  0
   -1.6129   -1.3356   -2.0020 C   0  0  0  0  0  0  0  0  0  0  0  0
   -2.5402   -2.1916   -2.5931 C   0  0  0  0  0  0  0  0  0  0  0  0
   -3.6287   -1.4443   -2.8223 N   0  0  0  0  0  0  0  0  0  0  0  0
   -0.2642   -1.6635   -1.5584 C   0  0  0  0  0  0  0  0  0  0  0  0
    0.2788   -2.9237   -1.6749 C   0  0  0  0  0  0  0  0  0  0  0  0
    1.5335   -3.1933   -1.2512 N   0  0  0  0  0  0  0  0  0  0  0  0
    2.2635   -2.1847   -0.6989 C   0  0  0  0  0  0  0  0  0  0  0  0
    3.5776   -2.4527   -0.2519 N   0  0  0  0  0  0  0  0  0  0  0  0
    1.7448   -0.9184   -0.5712 C   0  0  0  0  0  0  0  0  0  0  0  0
    0.4987   -0.7069   -1.0068 N   0  0  0  0  0  0  0  0  0  0  0  0
    2.5480    0.1550    0.0249 C   0  0  0  0  0  0  0  0  0  0  0  0
    2.0056    1.4160    0.1366 C   0  0  0  0  0  0  0  0  0  0  0  0
    2.7153    2.4868    0.6922 C   0  0  0  0  0  0  0  0  0  0  0  0
    4.0075    2.1603    1.1167 C   0  0  0  0  0  0  0  0  0  0  0  0
    4.7467    3.0411    1.6345 O   0  0  0  0  0  0  0  0  0  0  0  0
    4.5109    0.9255    0.9965 N   0  0  0  0  0  0  0  0  0  0  0  0
    3.7941   -0.0662    0.4585 N   0  0  0  0  0  0  0  0  0  0  0  0
    5.8232    0.6284    1.4361 C   0  0  0  0  0  0  0  0  0  0  0  0
    6.6697   -0.0837    0.5794 C   0  0  0  0  0  0  0  0  0  0  0  0
    7.9592   -0.4002    0.9593 C   0  0  0  0  0  0  0  0  0  0  0  0
    8.8352   -1.0970    0.1614 O   0  0  0  0  0  0  0  0  0  0  0  0
    8.4444   -1.5279   -1.1076 C   0  0  0  0  0  0  0  0  0  0  0  0
    8.4350   -0.0093    2.2124 C   0  0  0  0  0  0  0  0  0  0  0  0
    7.6117    0.6920    3.0645 C   0  0  0  0  0  0  0  0  0  0  0  0
    8.0554    1.1022    4.3331 O   0  0  0  0  0  0  0  0  0  0  0  0
    9.3373    0.8358    4.8151 C   0  0  0  0  0  0  0  0  0  0  0  0
    6.3445    0.9881    2.6586 C   0  0  0  0  0  0  0  0  0  0  0  0
   -9.9627   -0.7804    0.6038 H   0  0  0  0  0  0  0  0  0  0  0  0
  -10.8850   -0.3105    2.0985 H   0  0  0  0  0  0  0  0  0  0  0  0
  -10.7810    0.8563    0.7738 H   0  0  0  0  0  0  0  0  0  0  0  0
   -8.8186    2.0573    0.4643 H   0  0  0  0  0  0  0  0  0  0  0  0
   -7.4721    1.7562    1.5725 H   0  0  0  0  0  0  0  0  0  0  0  0
   -8.5611   -0.1256   -0.6219 H   0  0  0  0  0  0  0  0  0  0  0  0
   -7.3219   -0.6373    0.5512 H   0  0  0  0  0  0  0  0  0  0  0  0
   -5.2608    0.4181    0.4050 H   0  0  0  0  0  0  0  0  0  0  0  0
   -5.8550    2.0931    0.3890 H   0  0  0  0  0  0  0  0  0  0  0  0
   -4.5743    2.7366   -1.3954 H   0  0  0  0  0  0  0  0  0  0  0  0
   -3.5027    1.5247   -0.6688 H   0  0  0  0  0  0  0  0  0  0  0  0
   -4.0053    1.5786   -3.2934 H   0  0  0  0  0  0  0  0  0  0  0  0
   -5.5400   -0.4163   -3.7775 H   0  0  0  0  0  0  0  0  0  0  0  0
   -6.3659    1.1183   -3.3914 H   0  0  0  0  0  0  0  0  0  0  0  0
   -5.6720   -0.9651   -1.3017 H   0  0  0  0  0  0  0  0  0  0  0  0
   -7.2886   -0.8872   -2.1218 H   0  0  0  0  0  0  0  0  0  0  0  0
   -1.7758    0.8218   -1.4939 H   0  0  0  0  0  0  0  0  0  0  0  0
   -2.4026   -3.2191   -2.8113 H   0  0  0  0  0  0  0  0  0  0  0  0
   -0.3647   -3.6864   -2.1287 H   0  0  0  0  0  0  0  0  0  0  0  0
    4.3669   -2.2648   -0.9128 H   0  0  0  0  0  0  0  0  0  0  0  0
    3.7350   -2.8249    0.7083 H   0  0  0  0  0  0  0  0  0  0  0  0
    1.0090    1.5697   -0.2158 H   0  0  0  0  0  0  0  0  0  0  0  0
    2.3258    3.4706    0.7927 H   0  0  0  0  0  0  0  0  0  0  0  0
    6.3032   -0.3901   -0.3986 H   0  0  0  0  0  0  0  0  0  0  0  0
    7.9059   -0.7092   -1.6348 H   0  0  0  0  0  0  0  0  0  0  0  0
    7.7922   -2.4331   -0.9795 H   0  0  0  0  0  0  0  0  0  0  0  0
    9.3631   -1.8276   -1.6549 H   0  0  0  0  0  0  0  0  0  0  0  0
    9.4507   -0.2608    2.5065 H   0  0  0  0  0  0  0  0  0  0  0  0
   10.0482    1.0340    3.9618 H   0  0  0  0  0  0  0  0  0  0  0  0
    9.3817   -0.2168    5.1452 H   0  0  0  0  0  0  0  0  0  0  0  0
    9.5480    1.5329    5.6570 H   0  0  0  0  0  0  0  0  0  0  0  0
    5.6972    1.5374    3.3279 H   0  0  0  0  0  0  0  0  0  0  0  0
  1  2  1  0
  2  3  1  0
  3  4  1  0
  4  5  1  0
  5  6  1  0
  6  7  1  0
  7  8  1  0
  8  9  1  0
  9 10  1  0
  8 11  1  0
 11 12  1  0
 12 13  2  0
 13 14  1  0
 14 15  2  0
 13 16  1  0
 16 17  2  0
 17 18  1  0
 18 19  2  0
 19 20  1  0
 19 21  1  0
 21 22  2  0
 21 23  1  0
 23 24  1  0
 24 25  2  0
 25 26  1  0
 26 27  2  0
 26 28  1  0
 28 29  1  0
 28 30  1  0
 30 31  2  0
 31 32  1  0
 32 33  1  0
 33 34  1  0
 32 35  2  0
 35 36  1  0
 36 37  1  0
 37 38  1  0
 36 39  2  0
 10  5  1  0
 15 11  1  0
 22 16  1  0
 29 23  2  0
 39 30  1  0
  1 40  1  0
  1 41  1  0
  1 42  1  0
  3 43  1  0
  3 44  1  0
  4 45  1  0
  4 46  1  0
  6 47  1  0
  6 48  1  0
  7 49  1  0
  7 50  1  0
  8 51  1  0
  9 52  1  0
  9 53  1  0
 10 54  1  0
 10 55  1  0
 12 56  1  0
 14 57  1  0
 17 58  1  0
 20 59  1  0
 20 60  1  0
 24 61  1  0
 25 62  1  0
 31 63  1  0
 34 64  1  0
 34 65  1  0
 34 66  1  0
 35 67  1  0
 38 68  1  0
 38 69  1  0
 38 70  1  0
 39 71  1  0
M  END
$$$$
[H]c1nc(N([H])c2nn([H])c(C([H])([H])C([H])([H])c3c([H])c(OC([H])([H])[H])c([H])c(OC([H])([H])[H])c3[H])c2[H])c2c([H])c([H])c(N3C([H])([H])C([H])([H])N(C([H])(C([H])([H])[H])C([H])([H])[H])C([H])([H])C3([H])[H])c([H])c2n1
     RDKit          3D

 72 76  0  0  0  0  0  0  0  0999 V2000
   -9.3008    3.4604   -0.6218 C   0  0  0  0  0  0  0  0  0  0  0  0
   -9.9856    2.4003    0.0011 O   0  0  0  0  0  0  0  0  0  0  0  0
   -9.4101    1.2169    0.3817 C   0  0  0  0  0  0  0  0  0  0  0  0
   -8.0751    0.9347    0.1905 C   0  0  0  0  0  0  0  0  0  0  0  0
   -7.5220   -0.2587    0.5806 C   0  0  0  0  0  0  0  0  0  0  0  0
   -6.0802   -0.5837    0.3836 C   0  0  0  0  0  0  0  0  0  0  0  0
   -5.2644   -0.1500    1.5708 C   0  0  0  0  0  0  0  0  0  0  0  0
   -3.8459   -0.5030    1.3088 C   0  0  0  0  0  0  0  0  0  0  0  0
   -2.8897    0.2901    0.6898 C   0  0  0  0  0  0  0  0  0  0  0  0
   -1.7383   -0.4599    0.6767 C   0  0  0  0  0  0  0  0  0  0  0  0
   -0.4352   -0.1237    0.1537 N   0  0  0  0  0  0  0  0  0  0  0  0
    0.6317   -1.0403    0.2387 C   0  0  0  0  0  0  0  0  0  0  0  0
    0.4360   -2.2447    0.8147 N   0  0  0  0  0  0  0  0  0  0  0  0
    1.4080   -3.1594    0.9283 C   0  0  0  0  0  0  0  0  0  0  0  0
    2.6182   -2.8456    0.4432 N   0  0  0  0  0  0  0  0  0  0  0  0
    2.9005   -1.6638   -0.1482 C   0  0  0  0  0  0  0  0  0  0  0  0
    4.1396   -1.3616   -0.6359 C   0  0  0  0  0  0  0  0  0  0  0  0
    4.4630   -0.1416   -1.2549 C   0  0  0  0  0  0  0  0  0  0  0  0
    3.4287    0.7553   -1.3429 C   0  0  0  0  0  0  0  0  0  0  0  0
    2.1469    0.4617   -0.8465 C   0  0  0  0  0  0  0  0  0  0  0  0
    1.8692   -0.7367   -0.2500 C   0  0  0  0  0  0  0  0  0  0  0  0
    5.7796    0.0658   -1.7217 N   0  0  0  0  0  0  0  0  0  0  0  0
    6.1699    1.2782   -2.3685 C   0  0  0  0  0  0  0  0  0  0  0  0
    7.3065    1.8560   -1.5102 C   0  0  0  0  0  0  0  0  0  0  0  0
    8.3904    0.9398   -1.4915 N   0  0  0  0  0  0  0  0  0  0  0  0
    8.1154   -0.3498   -2.0162 C   0  0  0  0  0  0  0  0  0  0  0  0
    6.7991   -0.9517   -1.5603 C   0  0  0  0  0  0  0  0  0  0  0  0
    9.0440    0.9315   -0.2021 C   0  0  0  0  0  0  0  0  0  0  0  0
   10.1957   -0.0054   -0.0910 C   0  0  0  0  0  0  0  0  0  0  0  0
    9.5469    2.3379    0.0548 C   0  0  0  0  0  0  0  0  0  0  0  0
   -2.0102   -1.6318    1.2591 N   0  0  0  0  0  0  0  0  0  0  0  0
   -3.2723   -1.6834    1.6487 N   0  0  0  0  0  0  0  0  0  0  0  0
   -8.3222   -1.2082    1.1828 C   0  0  0  0  0  0  0  0  0  0  0  0
   -9.6664   -0.9407    1.3826 C   0  0  0  0  0  0  0  0  0  0  0  0
  -10.5054   -1.8678    1.9842 O   0  0  0  0  0  0  0  0  0  0  0  0
  -10.0802   -3.1248    2.4324 C   0  0  0  0  0  0  0  0  0  0  0  0
  -10.2010    0.2618    0.9842 C   0  0  0  0  0  0  0  0  0  0  0  0
   -8.6898    4.0459    0.0906 H   0  0  0  0  0  0  0  0  0  0  0  0
  -10.0423    4.1283   -1.1397 H   0  0  0  0  0  0  0  0  0  0  0  0
   -8.5943    3.0406   -1.3647 H   0  0  0  0  0  0  0  0  0  0  0  0
   -7.4627    1.6844   -0.2805 H   0  0  0  0  0  0  0  0  0  0  0  0
   -5.6913   -0.0738   -0.5178 H   0  0  0  0  0  0  0  0  0  0  0  0
   -5.9304   -1.6806    0.2394 H   0  0  0  0  0  0  0  0  0  0  0  0
   -5.3701    0.9381    1.7561 H   0  0  0  0  0  0  0  0  0  0  0  0
   -5.5797   -0.6966    2.4832 H   0  0  0  0  0  0  0  0  0  0  0  0
   -2.9975    1.2777    0.2968 H   0  0  0  0  0  0  0  0  0  0  0  0
   -0.3943    0.8270   -0.2676 H   0  0  0  0  0  0  0  0  0  0  0  0
    1.1872   -4.1092    1.4016 H   0  0  0  0  0  0  0  0  0  0  0  0
    4.9488   -2.0928   -0.5543 H   0  0  0  0  0  0  0  0  0  0  0  0
    3.6080    1.7178   -1.8097 H   0  0  0  0  0  0  0  0  0  0  0  0
    1.3946    1.2078   -0.9508 H   0  0  0  0  0  0  0  0  0  0  0  0
    5.4216    2.0595   -2.4580 H   0  0  0  0  0  0  0  0  0  0  0  0
    6.6090    1.0865   -3.3843 H   0  0  0  0  0  0  0  0  0  0  0  0
    6.8819    2.0457   -0.5168 H   0  0  0  0  0  0  0  0  0  0  0  0
    7.6086    2.8374   -1.9605 H   0  0  0  0  0  0  0  0  0  0  0  0
    8.0816   -0.2934   -3.1240 H   0  0  0  0  0  0  0  0  0  0  0  0
    8.8927   -1.1030   -1.7852 H   0  0  0  0  0  0  0  0  0  0  0  0
    6.8550   -1.3174   -0.5179 H   0  0  0  0  0  0  0  0  0  0  0  0
    6.5693   -1.7796   -2.2617 H   0  0  0  0  0  0  0  0  0  0  0  0
    8.3006    0.6857    0.5830 H   0  0  0  0  0  0  0  0  0  0  0  0
    9.9179   -1.0773   -0.0298 H   0  0  0  0  0  0  0  0  0  0  0  0
   10.9784    0.1913   -0.8522 H   0  0  0  0  0  0  0  0  0  0  0  0
   10.6940    0.2257    0.8952 H   0  0  0  0  0  0  0  0  0  0  0  0
    8.7366    2.9559    0.5213 H   0  0  0  0  0  0  0  0  0  0  0  0
    9.8063    2.8346   -0.9001 H   0  0  0  0  0  0  0  0  0  0  0  0
   10.4318    2.3453    0.7224 H   0  0  0  0  0  0  0  0  0  0  0  0
   -3.7717   -2.4629    2.1287 H   0  0  0  0  0  0  0  0  0  0  0  0
   -7.9468   -2.1641    1.5109 H   0  0  0  0  0  0  0  0  0  0  0  0
   -9.6501   -3.6746    1.5738 H   0  0  0  0  0  0  0  0  0  0  0  0
  -10.9640   -3.6679    2.8164 H   0  0  0  0  0  0  0  0  0  0  0  0
   -9.3553   -3.0580    3.2695 H   0  0  0  0  0  0  0  0  0  0  0  0
  -11.2675    0.4393    1.1576 H   0  0  0  0  0  0  0  0  0  0  0  0
  1  2  1  0
  2  3  1  0
  3  4  2  0
  4  5  1  0
  5  6  1  0
  6  7  1  0
  7  8  1  0
  8  9  2  0
  9 10  1  0
 10 11  1  0
 11 12  1  0
 12 13  2  0
 13 14  1  0
 14 15  2  0
 15 16  1  0
 16 17  2  0
 17 18  1  0
 18 19  2  0
 19 20  1  0
 20 21  2  0
 18 22  1  0
 22 23  1  0
 23 24  1  0
 24 25  1  0
 25 26  1  0
 26 27  1  0
 25 28  1  0
 28 29  1  0
 28 30  1  0
 10 31  2  0
 31 32  1  0
  5 33  2  0
 33 34  1  0
 34 35  1  0
 35 36  1  0
 34 37  2  0
 37  3  1  0
 32  8  1  0
 21 12  1  0
 27 22  1  0
 21 16  1  0
  1 38  1  0
  1 39  1  0
  1 40  1  0
  4 41  1  0
  6 42  1  0
  6 43  1  0
  7 44  1  0
  7 45  1  0
  9 46  1  0
 11 47  1  0
 14 48  1  0
 17 49  1  0
 19 50  1  0
 20 51  1  0
 23 52  1  0
 23 53  1  0
 24 54  1  0
 24 55  1  0
 26 56  1  0
 26 57  1  0
 27 58  1  0
 27 59  1  0
 28 60  1  0
 29 61  1  0
 29 62  1  0
 29 63  1  0
 30 64  1  0
 30 65  1  0
 30 66  1  0
 32 67  1  0
 33 68  1  0
 36 69  1  0
 36 70  1  0
 36 71  1  0
 37 72  1  0
M  END
$$$$
[H]c1nc2c([H])c([H])c(N(c3c([H])c(F)c([H])c(F)c3[H])C([H])([H])c3nc([H])c([H])n3[H])nc2c([H])c1-c1c([H])nn(C([H])([H])[H])c1[H]
     RDKit          3D

 48 52  0  0  0  0  0  0  0  0999 V2000
    8.2936   -0.7502   -0.4322 C   0  0  0  0  0  0  0  0  0  0  0  0
    6.8714   -0.7993   -0.1195 N   0  0  0  0  0  0  0  0  0  0  0  0
    5.9659    0.1942   -0.2488 C   0  0  0  0  0  0  0  0  0  0  0  0
    4.7175   -0.2607    0.1536 C   0  0  0  0  0  0  0  0  0  0  0  0
    4.9172   -1.5718    0.5296 C   0  0  0  0  0  0  0  0  0  0  0  0
    6.2226   -1.8454    0.3469 N   0  0  0  0  0  0  0  0  0  0  0  0
    3.4834    0.5381    0.1501 C   0  0  0  0  0  0  0  0  0  0  0  0
    3.4713    1.8979    0.3732 C   0  0  0  0  0  0  0  0  0  0  0  0
    2.3494    2.6388    0.3545 N   0  0  0  0  0  0  0  0  0  0  0  0
    1.1380    2.0626    0.1060 C   0  0  0  0  0  0  0  0  0  0  0  0
   -0.0152    2.8007    0.0689 C   0  0  0  0  0  0  0  0  0  0  0  0
   -1.2041    2.1215   -0.2068 C   0  0  0  0  0  0  0  0  0  0  0  0
   -1.2272    0.7389   -0.4364 C   0  0  0  0  0  0  0  0  0  0  0  0
   -0.0347    0.1214   -0.3732 N   0  0  0  0  0  0  0  0  0  0  0  0
    1.1088    0.7104   -0.1206 C   0  0  0  0  0  0  0  0  0  0  0  0
    2.2798   -0.0701   -0.1016 C   0  0  0  0  0  0  0  0  0  0  0  0
   -2.4453    0.1150   -0.7330 N   0  0  0  0  0  0  0  0  0  0  0  0
   -3.6181    0.9860   -0.9539 C   0  0  0  0  0  0  0  0  0  0  0  0
   -4.2469    1.3645    0.3232 C   0  0  0  0  0  0  0  0  0  0  0  0
   -3.8033    1.1497    1.5792 N   0  0  0  0  0  0  0  0  0  0  0  0
   -4.7235    1.6564    2.4024 C   0  0  0  0  0  0  0  0  0  0  0  0
   -5.7529    2.1945    1.6712 C   0  0  0  0  0  0  0  0  0  0  0  0
   -5.4362    2.0022    0.3790 N   0  0  0  0  0  0  0  0  0  0  0  0
   -2.6889   -1.2824   -0.7709 C   0  0  0  0  0  0  0  0  0  0  0  0
   -4.0368   -1.7158   -0.8377 C   0  0  0  0  0  0  0  0  0  0  0  0
   -4.3749   -3.0445   -0.8789 C   0  0  0  0  0  0  0  0  0  0  0  0
   -5.6800   -3.4078   -0.9487 F   0  0  0  0  0  0  0  0  0  0  0  0
   -3.4010   -4.0057   -0.8537 C   0  0  0  0  0  0  0  0  0  0  0  0
   -2.1000   -3.5897   -0.7882 C   0  0  0  0  0  0  0  0  0  0  0  0
   -1.1009   -4.5001   -0.7557 F   0  0  0  0  0  0  0  0  0  0  0  0
   -1.7229   -2.2429   -0.7468 C   0  0  0  0  0  0  0  0  0  0  0  0
    8.4904    0.0368   -1.2208 H   0  0  0  0  0  0  0  0  0  0  0  0
    8.8858   -0.4174    0.4535 H   0  0  0  0  0  0  0  0  0  0  0  0
    8.6665   -1.7039   -0.8602 H   0  0  0  0  0  0  0  0  0  0  0  0
    6.1830    1.1814   -0.6077 H   0  0  0  0  0  0  0  0  0  0  0  0
    4.1092   -2.2078    0.8997 H   0  0  0  0  0  0  0  0  0  0  0  0
    4.4162    2.3777    0.5751 H   0  0  0  0  0  0  0  0  0  0  0  0
    0.0166    3.8646    0.2477 H   0  0  0  0  0  0  0  0  0  0  0  0
   -2.0678    2.7487   -0.2264 H   0  0  0  0  0  0  0  0  0  0  0  0
    2.2569   -1.1277   -0.2789 H   0  0  0  0  0  0  0  0  0  0  0  0
   -4.3041    0.5369   -1.6859 H   0  0  0  0  0  0  0  0  0  0  0  0
   -3.2974    1.9435   -1.4471 H   0  0  0  0  0  0  0  0  0  0  0  0
   -4.6554    1.6397    3.4880 H   0  0  0  0  0  0  0  0  0  0  0  0
   -6.6588    2.6843    2.0682 H   0  0  0  0  0  0  0  0  0  0  0  0
   -6.0300    2.3029   -0.4227 H   0  0  0  0  0  0  0  0  0  0  0  0
   -4.8553   -1.0112   -0.8437 H   0  0  0  0  0  0  0  0  0  0  0  0
   -3.6806   -5.0596   -0.8863 H   0  0  0  0  0  0  0  0  0  0  0  0
   -0.6813   -1.9956   -0.7032 H   0  0  0  0  0  0  0  0  0  0  0  0
  1  2  1  0
  2  3  1  0
  3  4  2  0
  4  5  1  0
  5  6  2  0
  4  7  1  0
  7  8  2  0
  8  9  1  0
  9 10  2  0
 10 11  1  0
 11 12  2  0
 12 13  1  0
 13 14  2  0
 14 15  1  0
 15 16  2  0
 13 17  1  0
 17 18  1  0
 18 19  1  0
 19 20  2  0
 20 21  1  0
 21 22  2  0
 22 23  1  0
 17 24  1  0
 24 25  2  0
 25 26  1  0
 26 27  1  0
 26 28  2  0
 28 29  1  0
 29 30  1  0
 29 31  2  0
  6  2  1  0
 16  7  1  0
 23 19  1  0
 31 24  1  0
 15 10  1  0
  1 32  1  0
  1 33  1  0
  1 34  1  0
  3 35  1  0
  5 36  1  0
  8 37  1  0
 11 38  1  0
 12 39  1  0
 16 40  1  0
 18 41  1  0
 18 42  1  0
 21 43  1  0
 22 44  1  0
 23 45  1  0
 25 46  1  0
 28 47  1  0
 31 48  1  0
M  END
$$$$
[H]c1nc([H])c(N2C(=O)N(c3c(F)c(OC([H])([H])[H])c([H])c(OC([H])([H])[H])c3F)C([H])([H])c3c([H])nc(-c4c(C([H])([H])[H])nn(C([H])([H])[H])c4[H])c([H])c32)nc1[H]
     RDKit          3D

 57 61  0  0  0  0  0  0  0  0999 V2000
    6.9974    1.6238    2.7866 C   0  0  0  0  0  0  0  0  0  0  0  0
    5.5944    1.4492    2.7019 O   0  0  0  0  0  0  0  0  0  0  0  0
    5.0716    1.0961    1.4674 C   0  0  0  0  0  0  0  0  0  0  0  0
    5.8286    0.9031    0.3245 C   0  0  0  0  0  0  0  0  0  0  0  0
    5.2378    0.5529   -0.8630 C   0  0  0  0  0  0  0  0  0  0  0  0
    6.0063    0.3663   -1.9890 O   0  0  0  0  0  0  0  0  0  0  0  0
    7.4022    0.5258   -1.9618 C   0  0  0  0  0  0  0  0  0  0  0  0
    3.8634    0.3854   -0.9400 C   0  0  0  0  0  0  0  0  0  0  0  0
    3.2621    0.0445   -2.1004 F   0  0  0  0  0  0  0  0  0  0  0  0
    3.0623    0.5698    0.1845 C   0  0  0  0  0  0  0  0  0  0  0  0
    1.6685    0.4104    0.1368 N   0  0  0  0  0  0  0  0  0  0  0  0
    0.7929    1.5527    0.1943 C   0  0  0  0  0  0  0  0  0  0  0  0
   -0.6378    1.2260    0.1417 C   0  0  0  0  0  0  0  0  0  0  0  0
   -1.5488    2.2625    0.2039 C   0  0  0  0  0  0  0  0  0  0  0  0
   -2.8634    2.0709    0.1645 N   0  0  0  0  0  0  0  0  0  0  0  0
   -3.4075    0.8277    0.0581 C   0  0  0  0  0  0  0  0  0  0  0  0
   -2.5596   -0.2075   -0.0046 C   0  0  0  0  0  0  0  0  0  0  0  0
   -1.1559   -0.0296    0.0359 C   0  0  0  0  0  0  0  0  0  0  0  0
   -0.2508   -1.1070   -0.0210 N   0  0  0  0  0  0  0  0  0  0  0  0
    1.1568   -0.9090    0.0274 C   0  0  0  0  0  0  0  0  0  0  0  0
    1.9535   -1.9153   -0.0272 O   0  0  0  0  0  0  0  0  0  0  0  0
   -0.7759   -2.4226   -0.1123 C   0  0  0  0  0  0  0  0  0  0  0  0
   -1.0653   -3.0477   -1.2984 C   0  0  0  0  0  0  0  0  0  0  0  0
   -1.5669   -4.3158   -1.2690 N   0  0  0  0  0  0  0  0  0  0  0  0
   -1.7807   -4.9588   -0.1127 C   0  0  0  0  0  0  0  0  0  0  0  0
   -1.4787   -4.3024    1.0700 C   0  0  0  0  0  0  0  0  0  0  0  0
   -0.9905   -3.0683    1.0504 N   0  0  0  0  0  0  0  0  0  0  0  0
   -4.8597    0.6944    0.0678 C   0  0  0  0  0  0  0  0  0  0  0  0
   -5.7311    1.7263    0.4975 C   0  0  0  0  0  0  0  0  0  0  0  0
   -6.9709    1.2793    0.3379 N   0  0  0  0  0  0  0  0  0  0  0  0
   -8.1390    2.1106    0.6955 C   0  0  0  0  0  0  0  0  0  0  0  0
   -6.9537    0.0791   -0.1468 N   0  0  0  0  0  0  0  0  0  0  0  0
   -5.6608   -0.3319   -0.3347 C   0  0  0  0  0  0  0  0  0  0  0  0
   -5.3168   -1.6412   -0.8916 C   0  0  0  0  0  0  0  0  0  0  0  0
    3.6935    0.9174    1.3433 C   0  0  0  0  0  0  0  0  0  0  0  0
    2.9244    1.1065    2.4645 F   0  0  0  0  0  0  0  0  0  0  0  0
    7.4628    0.7227    2.3382 H   0  0  0  0  0  0  0  0  0  0  0  0
    7.3007    2.5194    2.2149 H   0  0  0  0  0  0  0  0  0  0  0  0
    7.2944    1.7544    3.8581 H   0  0  0  0  0  0  0  0  0  0  0  0
    6.8949    1.0423    0.4097 H   0  0  0  0  0  0  0  0  0  0  0  0
    7.8806    0.0714   -1.0678 H   0  0  0  0  0  0  0  0  0  0  0  0
    7.7124    1.5883   -1.9825 H   0  0  0  0  0  0  0  0  0  0  0  0
    7.8341    0.0476   -2.8909 H   0  0  0  0  0  0  0  0  0  0  0  0
    0.9962    2.2905   -0.6205 H   0  0  0  0  0  0  0  0  0  0  0  0
    0.9731    2.0183    1.2063 H   0  0  0  0  0  0  0  0  0  0  0  0
   -1.2138    3.2958    0.2854 H   0  0  0  0  0  0  0  0  0  0  0  0
   -2.8995   -1.2282   -0.0677 H   0  0  0  0  0  0  0  0  0  0  0  0
   -0.9071   -2.5578   -2.2231 H   0  0  0  0  0  0  0  0  0  0  0  0
   -2.1764   -5.9600   -0.0213 H   0  0  0  0  0  0  0  0  0  0  0  0
   -1.6244   -4.7647    2.0394 H   0  0  0  0  0  0  0  0  0  0  0  0
   -5.3759    2.6849    0.8783 H   0  0  0  0  0  0  0  0  0  0  0  0
   -9.0219    1.5944    0.2790 H   0  0  0  0  0  0  0  0  0  0  0  0
   -8.0153    3.0998    0.2616 H   0  0  0  0  0  0  0  0  0  0  0  0
   -8.1954    2.2288    1.7999 H   0  0  0  0  0  0  0  0  0  0  0  0
   -4.5346   -1.4932   -1.6783 H   0  0  0  0  0  0  0  0  0  0  0  0
   -4.9516   -2.3816   -0.1829 H   0  0  0  0  0  0  0  0  0  0  0  0
   -6.2351   -2.0964   -1.3481 H   0  0  0  0  0  0  0  0  0  0  0  0
  1  2  1  0
  2  3  1  0
  3  4  2  0
  4  5  1  0
  5  6  1  0
  6  7  1  0
  5  8  2  0
  8  9  1  0
  8 10  1  0
 10 11  1  0
 11 12  1  0
 12 13  1  0
 13 14  2  0
 14 15  1  0
 15 16  2  0
 16 17  1  0
 17 18  2  0
 18 19  1  0
 19 20  1  0
 20 21  2  0
 19 22  1  0
 22 23  2  0
 23 24  1  0
 24 25  2  0
 25 26  1  0
 26 27  2  0
 16 28  1  0
 28 29  2  0
 29 30  1  0
 30 31  1  0
 30 32  1  0
 32 33  2  0
 33 34  1  0
 10 35  2  0
 35 36  1  0
 35  3  1  0
 20 11  1  0
 27 22  1  0
 33 28  1  0
 18 13  1  0
  1 37  1  0
  1 38  1  0
  1 39  1  0
  4 40  1  0
  7 41  1  0
  7 42  1  0
  7 43  1  0
 12 44  1  0
 12 45  1  0
 14 46  1  0
 17 47  1  0
 23 48  1  0
 25 49  1  0
 26 50  1  0
 29 51  1  0
 31 52  1  0
 31 53  1  0
 31 54  1  0
 34 55  1  0
 34 56  1  0
 34 57  1  0
M  END
$$$$
[H]c1c([H])c(OC([H])([H])[H])c(F)c(-c2c([H])c([H])c3c(N([H])C(=O)c4c([H])c([H])c(N(C([H])([H])[H])C([H])([H])C([H])([H])N(C([H])([H])[H])C([H])([H])[H])c([H])c4[H])nn([H])c3c2[H])c1F
     RDKit          3D

 62 65  0  0  0  0  0  0  0  0999 V2000
   10.8518    1.2108    2.3384 C   0  0  0  0  0  0  0  0  0  0  0  0
    9.4714    1.3295    2.0581 O   0  0  0  0  0  0  0  0  0  0  0  0
    8.9231    0.4287    1.1583 C   0  0  0  0  0  0  0  0  0  0  0  0
    9.6712   -0.5652    0.5383 C   0  0  0  0  0  0  0  0  0  0  0  0
    9.0755   -1.4412   -0.3543 C   0  0  0  0  0  0  0  0  0  0  0  0
    7.7200   -1.3053   -0.6151 C   0  0  0  0  0  0  0  0  0  0  0  0
    7.1136   -2.1601   -1.4938 F   0  0  0  0  0  0  0  0  0  0  0  0
    6.9353   -0.3393   -0.0282 C   0  0  0  0  0  0  0  0  0  0  0  0
    5.5286   -0.1406   -0.2589 C   0  0  0  0  0  0  0  0  0  0  0  0
    4.5803   -0.9276    0.3469 C   0  0  0  0  0  0  0  0  0  0  0  0
    3.2161   -0.7493    0.1384 C   0  0  0  0  0  0  0  0  0  0  0  0
    2.7883    0.2530   -0.7071 C   0  0  0  0  0  0  0  0  0  0  0  0
    1.5393    0.6663   -1.1096 C   0  0  0  0  0  0  0  0  0  0  0  0
    0.2768    0.1182   -0.7026 N   0  0  0  0  0  0  0  0  0  0  0  0
   -0.9245    0.6392   -1.2340 C   0  0  0  0  0  0  0  0  0  0  0  0
   -0.8878    1.5694   -2.0653 O   0  0  0  0  0  0  0  0  0  0  0  0
   -2.1995    0.0803   -0.8031 C   0  0  0  0  0  0  0  0  0  0  0  0
   -3.1876   -0.1822   -1.7554 C   0  0  0  0  0  0  0  0  0  0  0  0
   -4.4187   -0.6965   -1.4269 C   0  0  0  0  0  0  0  0  0  0  0  0
   -4.7034   -0.9705   -0.0926 C   0  0  0  0  0  0  0  0  0  0  0  0
   -3.7210   -0.7079    0.8479 C   0  0  0  0  0  0  0  0  0  0  0  0
   -2.4898   -0.1958    0.5294 C   0  0  0  0  0  0  0  0  0  0  0  0
   -5.9732   -1.5093    0.2035 N   0  0  0  0  0  0  0  0  0  0  0  0
   -6.1657   -2.9468    0.2977 C   0  0  0  0  0  0  0  0  0  0  0  0
   -7.0994   -0.6429    0.4144 C   0  0  0  0  0  0  0  0  0  0  0  0
   -6.6908    0.7942    0.2710 C   0  0  0  0  0  0  0  0  0  0  0  0
   -7.9081    1.5914    0.5094 N   0  0  0  0  0  0  0  0  0  0  0  0
   -8.7901    1.3240   -0.6141 C   0  0  0  0  0  0  0  0  0  0  0  0
   -8.4758    1.1543    1.7554 C   0  0  0  0  0  0  0  0  0  0  0  0
    1.7509    1.6974   -1.9539 N   0  0  0  0  0  0  0  0  0  0  0  0
    3.0471    1.9273   -2.0807 N   0  0  0  0  0  0  0  0  0  0  0  0
    3.7289    1.0601   -1.3297 C   0  0  0  0  0  0  0  0  0  0  0  0
    5.0836    0.8628   -1.1055 C   0  0  0  0  0  0  0  0  0  0  0  0
    7.5846    0.5226    0.8674 C   0  0  0  0  0  0  0  0  0  0  0  0
    6.8577    1.4919    1.4744 F   0  0  0  0  0  0  0  0  0  0  0  0
   11.1841    1.9467    3.0990 H   0  0  0  0  0  0  0  0  0  0  0  0
   11.4168    1.4557    1.4095 H   0  0  0  0  0  0  0  0  0  0  0  0
   11.0786    0.1766    2.6572 H   0  0  0  0  0  0  0  0  0  0  0  0
   10.7317   -0.6350    0.7713 H   0  0  0  0  0  0  0  0  0  0  0  0
    9.6452   -2.2019   -0.8305 H   0  0  0  0  0  0  0  0  0  0  0  0
    4.8615   -1.7261    1.0185 H   0  0  0  0  0  0  0  0  0  0  0  0
    2.4737   -1.3670    0.6144 H   0  0  0  0  0  0  0  0  0  0  0  0
    0.2720   -0.6563   -0.0101 H   0  0  0  0  0  0  0  0  0  0  0  0
   -2.9340    0.0450   -2.8031 H   0  0  0  0  0  0  0  0  0  0  0  0
   -5.1610   -0.8891   -2.1937 H   0  0  0  0  0  0  0  0  0  0  0  0
   -3.9630   -0.9316    1.9005 H   0  0  0  0  0  0  0  0  0  0  0  0
   -1.7261    0.0041    1.2946 H   0  0  0  0  0  0  0  0  0  0  0  0
   -6.9868   -3.1680    1.0288 H   0  0  0  0  0  0  0  0  0  0  0  0
   -5.2211   -3.4690    0.5756 H   0  0  0  0  0  0  0  0  0  0  0  0
   -6.4822   -3.3482   -0.6841 H   0  0  0  0  0  0  0  0  0  0  0  0
   -7.8320   -0.8916   -0.4141 H   0  0  0  0  0  0  0  0  0  0  0  0
   -7.6166   -0.8417    1.3757 H   0  0  0  0  0  0  0  0  0  0  0  0
   -5.9856    1.0601    1.0986 H   0  0  0  0  0  0  0  0  0  0  0  0
   -6.2905    0.9995   -0.7326 H   0  0  0  0  0  0  0  0  0  0  0  0
   -9.4405    0.4666   -0.3791 H   0  0  0  0  0  0  0  0  0  0  0  0
   -8.1653    1.1443   -1.5284 H   0  0  0  0  0  0  0  0  0  0  0  0
   -9.3571    2.2472   -0.8294 H   0  0  0  0  0  0  0  0  0  0  0  0
   -9.2263    0.3566    1.6187 H   0  0  0  0  0  0  0  0  0  0  0  0
   -7.7259    0.8482    2.5055 H   0  0  0  0  0  0  0  0  0  0  0  0
   -9.0392    2.0065    2.2281 H   0  0  0  0  0  0  0  0  0  0  0  0
    3.5263    2.6654   -2.6653 H   0  0  0  0  0  0  0  0  0  0  0  0
    5.8546    1.4622   -1.5643 H   0  0  0  0  0  0  0  0  0  0  0  0
  1  2  1  0
  2  3  1  0
  3  4  2  0
  4  5  1  0
  5  6  2  0
  6  7  1  0
  6  8  1  0
  8  9  1  0
  9 10  2  0
 10 11  1  0
 11 12  2  0
 12 13  1  0
 13 14  1  0
 14 15  1  0
 15 16  2  0
 15 17  1  0
 17 18  2  0
 18 19  1  0
 19 20  2  0
 20 21  1  0
 21 22  2  0
 20 23  1  0
 23 24  1  0
 23 25  1  0
 25 26  1  0
 26 27  1  0
 27 28  1  0
 27 29  1  0
 13 30  2  0
 30 31  1  0
 31 32  1  0
 32 33  2  0
  8 34  2  0
 34 35  1  0
 34  3  1  0
 33  9  1  0
 32 12  1  0
 22 17  1  0
  1 36  1  0
  1 37  1  0
  1 38  1  0
  4 39  1  0
  5 40  1  0
 10 41  1  0
 11 42  1  0
 14 43  1  0
 18 44  1  0
 19 45  1  0
 21 46  1  0
 22 47  1  0
 24 48  1  0
 24 49  1  0
 24 50  1  0
 25 51  1  0
 25 52  1  0
 26 53  1  0
 26 54  1  0
 28 55  1  0
 28 56  1  0
 28 57  1  0
 29 58  1  0
 29 59  1  0
 29 60  1  0
 31 61  1  0
 33 62  1  0
M  END
$$$$
[H]c1nc(N([H])C(=O)c2c([H])c([H])c(N3C([H])([H])C([H])([H])N(C([H])([H])[H])C([H])([H])C3([H])[H])c([H])c2[H])c([H])c(Oc2c([H])c([H])c3c(C(=O)N([H])C([H])([H])[H])c([H])c([H])c([H])c3c2[H])c1[H]
     RDKit          3D

 66 70  0  0  0  0  0  0  0  0999 V2000
    9.2740    0.0138    2.6618 C   0  0  0  0  0  0  0  0  0  0  0  0
    9.2141   -0.2313    1.3806 N   0  0  0  0  0  0  0  0  0  0  0  0
    9.1515   -0.4986   -0.0177 C   0  0  0  0  0  0  0  0  0  0  0  0
   10.1487   -0.5978   -0.7627 O   0  0  0  0  0  0  0  0  0  0  0  0
    7.8677   -0.6895   -0.6861 C   0  0  0  0  0  0  0  0  0  0  0  0
    7.6890   -1.8562   -1.4605 C   0  0  0  0  0  0  0  0  0  0  0  0
    6.4889   -2.1340   -2.0405 C   0  0  0  0  0  0  0  0  0  0  0  0
    5.4583   -1.2440   -1.8508 C   0  0  0  0  0  0  0  0  0  0  0  0
    5.5779   -0.0852   -1.1040 C   0  0  0  0  0  0  0  0  0  0  0  0
    4.5135    0.7863   -0.9682 C   0  0  0  0  0  0  0  0  0  0  0  0
    4.6389    1.9472   -0.2542 C   0  0  0  0  0  0  0  0  0  0  0  0
    3.5468    2.8190   -0.1327 O   0  0  0  0  0  0  0  0  0  0  0  0
    2.5414    2.4210    0.7552 C   0  0  0  0  0  0  0  0  0  0  0  0
    2.7233    2.4199    2.1152 C   0  0  0  0  0  0  0  0  0  0  0  0
    1.6994    2.0193    2.9414 C   0  0  0  0  0  0  0  0  0  0  0  0
    0.5321    1.6334    2.4042 N   0  0  0  0  0  0  0  0  0  0  0  0
    0.2978    1.6158    1.0489 C   0  0  0  0  0  0  0  0  0  0  0  0
   -0.9420    1.1565    0.6342 N   0  0  0  0  0  0  0  0  0  0  0  0
   -1.4053    1.1931   -0.7278 C   0  0  0  0  0  0  0  0  0  0  0  0
   -0.7610    1.6701   -1.6400 O   0  0  0  0  0  0  0  0  0  0  0  0
   -2.7652    0.5832   -0.8919 C   0  0  0  0  0  0  0  0  0  0  0  0
   -2.9577   -0.7319   -0.5930 C   0  0  0  0  0  0  0  0  0  0  0  0
   -4.2324   -1.2912   -0.6498 C   0  0  0  0  0  0  0  0  0  0  0  0
   -5.3339   -0.5604   -1.0023 C   0  0  0  0  0  0  0  0  0  0  0  0
   -5.1259    0.7772   -1.3099 C   0  0  0  0  0  0  0  0  0  0  0  0
   -3.8424    1.3512   -1.2552 C   0  0  0  0  0  0  0  0  0  0  0  0
   -6.6658   -1.1335   -1.0014 N   0  0  0  0  0  0  0  0  0  0  0  0
   -6.8707   -2.3970   -0.3270 C   0  0  0  0  0  0  0  0  0  0  0  0
   -8.1225   -2.4692    0.4782 C   0  0  0  0  0  0  0  0  0  0  0  0
   -9.1135   -1.5163    0.1129 N   0  0  0  0  0  0  0  0  0  0  0  0
   -9.3169   -0.4789    1.0713 C   0  0  0  0  0  0  0  0  0  0  0  0
   -9.0662   -1.1108   -1.2528 C   0  0  0  0  0  0  0  0  0  0  0  0
   -7.7589   -0.4872   -1.6523 C   0  0  0  0  0  0  0  0  0  0  0  0
    1.3107    2.0115    0.2495 C   0  0  0  0  0  0  0  0  0  0  0  0
    5.8424    2.2297    0.3258 C   0  0  0  0  0  0  0  0  0  0  0  0
    6.9166    1.3390    0.1822 C   0  0  0  0  0  0  0  0  0  0  0  0
    6.8196    0.1682   -0.5244 C   0  0  0  0  0  0  0  0  0  0  0  0
    9.1637    1.1166    2.9962 H   0  0  0  0  0  0  0  0  0  0  0  0
   10.1416   -0.3730    3.2948 H   0  0  0  0  0  0  0  0  0  0  0  0
    8.3722   -0.4224    3.2825 H   0  0  0  0  0  0  0  0  0  0  0  0
   10.5783   -0.0905    1.2709 H   0  0  0  0  0  0  0  0  0  0  0  0
    8.5371   -2.5165   -1.5754 H   0  0  0  0  0  0  0  0  0  0  0  0
    6.3294   -3.0330   -2.6401 H   0  0  0  0  0  0  0  0  0  0  0  0
    4.4869   -1.4648   -2.3086 H   0  0  0  0  0  0  0  0  0  0  0  0
    3.5963    0.4738   -1.4607 H   0  0  0  0  0  0  0  0  0  0  0  0
    3.6882    2.7459    2.4848 H   0  0  0  0  0  0  0  0  0  0  0  0
    1.8597    2.0222    3.9996 H   0  0  0  0  0  0  0  0  0  0  0  0
   -1.5866    0.7183    1.3364 H   0  0  0  0  0  0  0  0  0  0  0  0
   -2.1145   -1.3724   -0.2991 H   0  0  0  0  0  0  0  0  0  0  0  0
   -4.3488   -2.3573   -0.4132 H   0  0  0  0  0  0  0  0  0  0  0  0
   -5.9661    1.3822   -1.5961 H   0  0  0  0  0  0  0  0  0  0  0  0
   -3.6823    2.3698   -1.4875 H   0  0  0  0  0  0  0  0  0  0  0  0
   -6.0288   -2.5359    0.4266 H   0  0  0  0  0  0  0  0  0  0  0  0
   -6.7623   -3.1915   -1.0758 H   0  0  0  0  0  0  0  0  0  0  0  0
   -8.5134   -3.5276    0.3821 H   0  0  0  0  0  0  0  0  0  0  0  0
   -7.9120   -2.2953    1.5773 H   0  0  0  0  0  0  0  0  0  0  0  0
  -10.2064   -0.7404    1.7152 H   0  0  0  0  0  0  0  0  0  0  0  0
   -9.5585    0.4881    0.6078 H   0  0  0  0  0  0  0  0  0  0  0  0
   -8.4398   -0.4032    1.7601 H   0  0  0  0  0  0  0  0  0  0  0  0
   -9.3627   -1.9843   -1.8825 H   0  0  0  0  0  0  0  0  0  0  0  0
   -9.9115   -0.3740   -1.3896 H   0  0  0  0  0  0  0  0  0  0  0  0
   -7.7801    0.6159   -1.5247 H   0  0  0  0  0  0  0  0  0  0  0  0
   -7.6344   -0.6854   -2.7561 H   0  0  0  0  0  0  0  0  0  0  0  0
    1.2376    2.0371   -0.8392 H   0  0  0  0  0  0  0  0  0  0  0  0
    5.9913    3.1212    0.8939 H   0  0  0  0  0  0  0  0  0  0  0  0
    7.8536    1.6341    0.6259 H   0  0  0  0  0  0  0  0  0  0  0  0
  1  2  1  0
  2  3  1  0
  3  4  2  0
  3  5  1  0
  5  6  2  0
  6  7  1  0
  7  8  2  0
  8  9  1  0
  9 10  2  0
 10 11  1  0
 11 12  1  0
 12 13  1  0
 13 14  2  0
 14 15  1  0
 15 16  2  0
 16 17  1  0
 17 18  1  0
 18 19  1  0
 19 20  2  0
 19 21  1  0
 21 22  2  0
 22 23  1  0
 23 24  2  0
 24 25  1  0
 25 26  2  0
 24 27  1  0
 27 28  1  0
 28 29  1  0
 29 30  1  0
 30 31  1  0
 30 32  1  0
 32 33  1  0
 17 34  2  0
 11 35  2  0
 35 36  1  0
 36 37  2  0
 37  5  1  0
 37  9  1  0
 34 13  1  0
 26 21  1  0
 33 27  1  0
  1 38  1  0
  1 39  1  0
  1 40  1  0
  2 41  1  0
  6 42  1  0
  7 43  1  0
  8 44  1  0
 10 45  1  0
 14 46  1  0
 15 47  1  0
 18 48  1  0
 22 49  1  0
 23 50  1  0
 25 51  1  0
 26 52  1  0
 28 53  1  0
 28 54  1  0
 29 55  1  0
 29 56  1  0
 31 57  1  0
 31 58  1  0
 31 59  1  0
 32 60  1  0
 32 61  1  0
 33 62  1  0
 33 63  1  0
 34 64  1  0
 35 65  1  0
 36 66  1  0
M  END
$$$$
[H]c1nc(N([H])[H])c(-c2nn(-c3c([H])c(OC([H])([H])[H])c([H])c(OC([H])([H])[H])c3[H])c(=O)c([H])c2[H])nc1-c1c([H])nn(C([H])([H])[C@]2([H])OC([H])([H])C(C([H])([H])[H])(C([H])([H])[H])N([H])C2([H])[H])c1[H]
     RDKit          3D

 68 72  0  0  0  0  0  0  0  0999 V2000
   -8.1199   -4.4111    1.1031 C   0  0  0  0  0  0  0  0  0  0  0  0
   -6.9166   -3.8010    0.7532 O   0  0  0  0  0  0  0  0  0  0  0  0
   -6.7956   -2.5063    0.2885 C   0  0  0  0  0  0  0  0  0  0  0  0
   -7.9135   -1.7235    0.1431 C   0  0  0  0  0  0  0  0  0  0  0  0
   -7.7997   -0.4148   -0.3258 C   0  0  0  0  0  0  0  0  0  0  0  0
   -8.9585    0.3025   -0.4432 O   0  0  0  0  0  0  0  0  0  0  0  0
   -9.0334    1.6434   -0.9050 C   0  0  0  0  0  0  0  0  0  0  0  0
   -6.5378    0.0940   -0.6467 C   0  0  0  0  0  0  0  0  0  0  0  0
   -5.4174   -0.6885   -0.5015 C   0  0  0  0  0  0  0  0  0  0  0  0
   -5.5770   -1.9741   -0.0356 C   0  0  0  0  0  0  0  0  0  0  0  0
   -4.1600   -0.1285   -0.8347 N   0  0  0  0  0  0  0  0  0  0  0  0
   -3.2210   -0.1132    0.1282 N   0  0  0  0  0  0  0  0  0  0  0  0
   -2.0051    0.3719   -0.0310 C   0  0  0  0  0  0  0  0  0  0  0  0
   -1.6542    0.9003   -1.2501 C   0  0  0  0  0  0  0  0  0  0  0  0
   -2.6058    0.9014   -2.2757 C   0  0  0  0  0  0  0  0  0  0  0  0
   -3.8517    0.3789   -2.0363 C   0  0  0  0  0  0  0  0  0  0  0  0
   -4.7394    0.3576   -2.9259 O   0  0  0  0  0  0  0  0  0  0  0  0
   -1.0749    0.3254    1.1098 C   0  0  0  0  0  0  0  0  0  0  0  0
    0.1805    0.8098    0.9934 N   0  0  0  0  0  0  0  0  0  0  0  0
    1.0324    0.7694    2.0295 C   0  0  0  0  0  0  0  0  0  0  0  0
    0.6143    0.2247    3.2261 C   0  0  0  0  0  0  0  0  0  0  0  0
   -0.6307   -0.2611    3.3577 N   0  0  0  0  0  0  0  0  0  0  0  0
   -1.4555   -0.2086    2.3145 C   0  0  0  0  0  0  0  0  0  0  0  0
   -2.7775   -0.7177    2.4353 N   0  0  0  0  0  0  0  0  0  0  0  0
    2.3934    1.2769    1.9552 C   0  0  0  0  0  0  0  0  0  0  0  0
    3.3466    1.2867    2.9481 C   0  0  0  0  0  0  0  0  0  0  0  0
    4.4616    1.8472    2.4511 N   0  0  0  0  0  0  0  0  0  0  0  0
    4.2907    2.2064    1.1827 N   0  0  0  0  0  0  0  0  0  0  0  0
    5.2753    2.8423    0.3193 C   0  0  0  0  0  0  0  0  0  0  0  0
    6.0591    1.7572   -0.3929 C   0  0  1  0  0  0  0  0  0  0  0  0
    6.7677    0.8635    0.5837 C   0  0  0  0  0  0  0  0  0  0  0  0
    7.7788    0.1166   -0.1370 N   0  0  0  0  0  0  0  0  0  0  0  0
    7.2200   -0.3911   -1.3513 C   0  0  0  0  0  0  0  0  0  0  0  0
    7.5727   -1.8786   -1.4549 C   0  0  0  0  0  0  0  0  0  0  0  0
    7.8756    0.2990   -2.5214 C   0  0  0  0  0  0  0  0  0  0  0  0
    5.7164   -0.2972   -1.4032 C   0  0  0  0  0  0  0  0  0  0  0  0
    5.2456    0.9785   -1.1958 O   0  0  0  0  0  0  0  0  0  0  0  0
    3.0319    1.8652    0.8630 C   0  0  0  0  0  0  0  0  0  0  0  0
   -8.9011   -4.3182    0.3215 H   0  0  0  0  0  0  0  0  0  0  0  0
   -7.9199   -5.4792    1.3346 H   0  0  0  0  0  0  0  0  0  0  0  0
   -8.4518   -3.9468    2.0740 H   0  0  0  0  0  0  0  0  0  0  0  0
   -8.9005   -2.1393    0.3999 H   0  0  0  0  0  0  0  0  0  0  0  0
   -8.7164    1.6589   -1.9638 H   0  0  0  0  0  0  0  0  0  0  0  0
  -10.0701    2.0268   -0.8192 H   0  0  0  0  0  0  0  0  0  0  0  0
   -8.3335    2.2232   -0.2420 H   0  0  0  0  0  0  0  0  0  0  0  0
   -6.5150    1.1201   -1.0068 H   0  0  0  0  0  0  0  0  0  0  0  0
   -4.6736   -2.5738    0.0707 H   0  0  0  0  0  0  0  0  0  0  0  0
   -0.6692    1.3049   -1.4152 H   0  0  0  0  0  0  0  0  0  0  0  0
   -2.3867    1.3025   -3.2517 H   0  0  0  0  0  0  0  0  0  0  0  0
    1.2557    0.1632    4.0988 H   0  0  0  0  0  0  0  0  0  0  0  0
   -2.9361   -1.7368    2.1989 H   0  0  0  0  0  0  0  0  0  0  0  0
   -3.5567   -0.0996    2.7465 H   0  0  0  0  0  0  0  0  0  0  0  0
    3.2365    0.9134    3.9585 H   0  0  0  0  0  0  0  0  0  0  0  0
    5.9993    3.4157    0.9513 H   0  0  0  0  0  0  0  0  0  0  0  0
    4.7753    3.5245   -0.3671 H   0  0  0  0  0  0  0  0  0  0  0  0
    6.8246    2.2778   -1.0017 H   0  0  0  0  0  0  0  0  0  0  0  0
    7.2434    1.4279    1.4206 H   0  0  0  0  0  0  0  0  0  0  0  0
    6.0910    0.1172    1.0548 H   0  0  0  0  0  0  0  0  0  0  0  0
    8.5737    0.7703   -0.3037 H   0  0  0  0  0  0  0  0  0  0  0  0
    7.7061   -2.1700   -2.5229 H   0  0  0  0  0  0  0  0  0  0  0  0
    6.7380   -2.4541   -1.0089 H   0  0  0  0  0  0  0  0  0  0  0  0
    8.4718   -2.0707   -0.8411 H   0  0  0  0  0  0  0  0  0  0  0  0
    7.1460    0.7602   -3.2194 H   0  0  0  0  0  0  0  0  0  0  0  0
    8.5668    1.1105   -2.1668 H   0  0  0  0  0  0  0  0  0  0  0  0
    8.5451   -0.3949   -3.0971 H   0  0  0  0  0  0  0  0  0  0  0  0
    5.4201   -0.5901   -2.4505 H   0  0  0  0  0  0  0  0  0  0  0  0
    5.2684   -1.0591   -0.7334 H   0  0  0  0  0  0  0  0  0  0  0  0
    2.5512    2.0124   -0.0964 H   0  0  0  0  0  0  0  0  0  0  0  0
  1  2  1  0
  2  3  1  0
  3  4  2  0
  4  5  1  0
  5  6  1  0
  6  7  1  0
  5  8  2  0
  8  9  1  0
  9 10  2  0
  9 11  1  0
 11 12  1  0
 12 13  2  0
 13 14  1  0
 14 15  2  0
 15 16  1  0
 16 17  2  0
 13 18  1  0
 18 19  2  0
 19 20  1  0
 20 21  2  0
 21 22  1  0
 22 23  2  0
 23 24  1  0
 20 25  1  0
 25 26  1  0
 26 27  2  0
 27 28  1  0
 28 29  1  0
 29 30  1  0
 30 31  1  0
 31 32  1  0
 32 33  1  0
 33 34  1  0
 33 35  1  0
 33 36  1  0
 36 37  1  0
 28 38  1  0
 10  3  1  0
 16 11  1  0
 23 18  1  0
 38 25  2  0
 37 30  1  0
  1 39  1  0
  1 40  1  0
  1 41  1  0
  4 42  1  0
  7 43  1  0
  7 44  1  0
  7 45  1  0
  8 46  1  0
 10 47  1  0
 14 48  1  0
 15 49  1  0
 21 50  1  0
 24 51  1  0
 24 52  1  0
 26 53  1  0
 29 54  1  0
 29 55  1  0
 30 56  1  6
 31 57  1  0
 31 58  1  0
 32 59  1  0
 34 60  1  0
 34 61  1  0
 34 62  1  0
 35 63  1  0
 35 64  1  0
 35 65  1  0
 36 66  1  0
 36 67  1  0
 38 68  1  0
M  END
$$$$
[H]C([H])=C([H])C(=O)N1C([H])([H])C([H])([H])N(C([H])([H])C([H])([H])C([H])([H])n2c(=O)c(-c3c(Cl)c(OC([H])([H])[H])c([H])c(OC([H])([H])[H])c3Cl)c([H])c3c([H])nc(N([H])C([H])([H])C([H])([H])OC([H])([H])[H])nc32)C([H])([H])C1([H])[H]
     RDKit          3D

 75 78  0  0  0  0  0  0  0  0999 V2000
   -0.8839    8.2846   -1.5774 C   0  0  0  0  0  0  0  0  0  0  0  0
   -1.1527    6.9865   -1.1298 O   0  0  0  0  0  0  0  0  0  0  0  0
   -0.0356    6.1695   -1.3415 C   0  0  0  0  0  0  0  0  0  0  0  0
   -0.3669    4.7996   -0.8466 C   0  0  0  0  0  0  0  0  0  0  0  0
   -1.5151    4.2445   -1.5616 N   0  0  0  0  0  0  0  0  0  0  0  0
   -1.9571    2.9305   -1.2190 C   0  0  0  0  0  0  0  0  0  0  0  0
   -3.0101    2.4196   -1.8779 N   0  0  0  0  0  0  0  0  0  0  0  0
   -3.4465    1.1656   -1.5695 C   0  0  0  0  0  0  0  0  0  0  0  0
   -2.7877    0.4606   -0.5858 C   0  0  0  0  0  0  0  0  0  0  0  0
   -3.2223   -0.7819   -0.2636 C   0  0  0  0  0  0  0  0  0  0  0  0
   -2.5713   -1.5038    0.7418 C   0  0  0  0  0  0  0  0  0  0  0  0
   -3.1164   -2.8307    0.9822 C   0  0  0  0  0  0  0  0  0  0  0  0
   -4.1040   -3.0461    1.9194 C   0  0  0  0  0  0  0  0  0  0  0  0
   -4.6984   -1.6866    2.8589 Cl  0  0  0  0  0  0  0  0  0  0  0  0
   -4.6359   -4.3107    2.1370 C   0  0  0  0  0  0  0  0  0  0  0  0
   -5.6259   -4.4448    3.0972 O   0  0  0  0  0  0  0  0  0  0  0  0
   -6.1551   -5.7428    3.3023 C   0  0  0  0  0  0  0  0  0  0  0  0
   -4.1475   -5.3561    1.3853 C   0  0  0  0  0  0  0  0  0  0  0  0
   -3.1549   -5.1991    0.4284 C   0  0  0  0  0  0  0  0  0  0  0  0
   -2.6765   -6.2666   -0.3196 O   0  0  0  0  0  0  0  0  0  0  0  0
   -3.2429   -7.5383   -0.0701 C   0  0  0  0  0  0  0  0  0  0  0  0
   -2.6671   -3.9085    0.2621 C   0  0  0  0  0  0  0  0  0  0  0  0
   -1.4150   -3.6881   -0.9401 Cl  0  0  0  0  0  0  0  0  0  0  0  0
   -1.5004   -0.9538    1.3951 C   0  0  0  0  0  0  0  0  0  0  0  0
   -0.9309   -1.6392    2.3082 O   0  0  0  0  0  0  0  0  0  0  0  0
   -1.0638    0.2810    1.0777 N   0  0  0  0  0  0  0  0  0  0  0  0
    0.0261    0.8857    1.7815 C   0  0  0  0  0  0  0  0  0  0  0  0
    1.3913    0.5127    1.3498 C   0  0  0  0  0  0  0  0  0  0  0  0
    1.6624    0.8123   -0.0834 C   0  0  0  0  0  0  0  0  0  0  0  0
    3.0034    0.4279   -0.4797 N   0  0  0  0  0  0  0  0  0  0  0  0
    3.9384    1.3354    0.1564 C   0  0  0  0  0  0  0  0  0  0  0  0
    5.1757    1.4872   -0.7387 C   0  0  0  0  0  0  0  0  0  0  0  0
    5.4119    0.1893   -1.2862 N   0  0  0  0  0  0  0  0  0  0  0  0
    4.4437   -0.1685   -2.3684 C   0  0  0  0  0  0  0  0  0  0  0  0
    3.0938    0.3675   -1.8991 C   0  0  0  0  0  0  0  0  0  0  0  0
    6.3560   -0.7281   -0.9146 C   0  0  0  0  0  0  0  0  0  0  0  0
    6.3558   -1.8310   -1.6664 O   0  0  0  0  0  0  0  0  0  0  0  0
    7.3621   -0.7975    0.1002 C   0  0  0  0  0  0  0  0  0  0  0  0
    7.6431    0.0760    1.0329 C   0  0  0  0  0  0  0  0  0  0  0  0
   -1.6910    0.9791    0.1075 C   0  0  0  0  0  0  0  0  0  0  0  0
   -1.3355    2.2209   -0.2661 N   0  0  0  0  0  0  0  0  0  0  0  0
   -1.7726    8.9146   -1.4055 H   0  0  0  0  0  0  0  0  0  0  0  0
   -0.5976    8.2647   -2.6641 H   0  0  0  0  0  0  0  0  0  0  0  0
    0.0015    8.7084   -1.0450 H   0  0  0  0  0  0  0  0  0  0  0  0
    0.7964    6.6051   -0.7732 H   0  0  0  0  0  0  0  0  0  0  0  0
    0.1975    6.0812   -2.4377 H   0  0  0  0  0  0  0  0  0  0  0  0
    0.4619    4.0797   -0.8952 H   0  0  0  0  0  0  0  0  0  0  0  0
   -0.6624    4.9038    0.2341 H   0  0  0  0  0  0  0  0  0  0  0  0
   -1.9630    4.8238   -2.2872 H   0  0  0  0  0  0  0  0  0  0  0  0
   -4.2974    0.7215   -2.0838 H   0  0  0  0  0  0  0  0  0  0  0  0
   -4.0801   -1.1945   -0.8027 H   0  0  0  0  0  0  0  0  0  0  0  0
   -6.5603   -6.1905    2.3642 H   0  0  0  0  0  0  0  0  0  0  0  0
   -5.3406   -6.3973    3.6374 H   0  0  0  0  0  0  0  0  0  0  0  0
   -7.0110   -5.7294    4.0121 H   0  0  0  0  0  0  0  0  0  0  0  0
   -4.5502   -6.3559    1.5390 H   0  0  0  0  0  0  0  0  0  0  0  0
   -4.3428   -7.5386   -0.1923 H   0  0  0  0  0  0  0  0  0  0  0  0
   -2.8352   -8.2168   -0.8728 H   0  0  0  0  0  0  0  0  0  0  0  0
   -2.9017   -7.9655    0.8936 H   0  0  0  0  0  0  0  0  0  0  0  0
   -0.0770    0.6036    2.8543 H   0  0  0  0  0  0  0  0  0  0  0  0
   -0.1166    2.0126    1.7640 H   0  0  0  0  0  0  0  0  0  0  0  0
    2.1904    1.0531    1.9450 H   0  0  0  0  0  0  0  0  0  0  0  0
    1.5312   -0.5801    1.5121 H   0  0  0  0  0  0  0  0  0  0  0  0
    1.5904    1.9120   -0.2905 H   0  0  0  0  0  0  0  0  0  0  0  0
    0.9372    0.2906   -0.7130 H   0  0  0  0  0  0  0  0  0  0  0  0
    3.5057    2.3151    0.4047 H   0  0  0  0  0  0  0  0  0  0  0  0
    4.2855    0.8652    1.0909 H   0  0  0  0  0  0  0  0  0  0  0  0
    4.8085    2.1345   -1.6224 H   0  0  0  0  0  0  0  0  0  0  0  0
    5.9820    1.9712   -0.2411 H   0  0  0  0  0  0  0  0  0  0  0  0
    4.4405   -1.2345   -2.5719 H   0  0  0  0  0  0  0  0  0  0  0  0
    4.7469    0.3894   -3.2673 H   0  0  0  0  0  0  0  0  0  0  0  0
    2.3307   -0.3591   -2.2465 H   0  0  0  0  0  0  0  0  0  0  0  0
    2.8638    1.3327   -2.4044 H   0  0  0  0  0  0  0  0  0  0  0  0
    8.0328   -1.7112    0.1443 H   0  0  0  0  0  0  0  0  0  0  0  0
    8.4757   -0.1379    1.7565 H   0  0  0  0  0  0  0  0  0  0  0  0
    7.1759    1.0148    1.2451 H   0  0  0  0  0  0  0  0  0  0  0  0
  1  2  1  0
  2  3  1  0
  3  4  1  0
  4  5  1  0
  5  6  1  0
  6  7  2  0
  7  8  1  0
  8  9  2  0
  9 10  1  0
 10 11  2  0
 11 12  1  0
 12 13  2  0
 13 14  1  0
 13 15  1  0
 15 16  1  0
 16 17  1  0
 15 18  2  0
 18 19  1  0
 19 20  1  0
 20 21  1  0
 19 22  2  0
 22 23  1  0
 11 24  1  0
 24 25  2  0
 24 26  1  0
 26 27  1  0
 27 28  1  0
 28 29  1  0
 29 30  1  0
 30 31  1  0
 31 32  1  0
 32 33  1  0
 33 34  1  0
 34 35  1  0
 33 36  1  0
 36 37  2  0
 36 38  1  0
 38 39  2  3
 26 40  1  0
 40 41  2  0
 41  6  1  0
 40  9  1  0
 22 12  1  0
 35 30  1  0
  1 42  1  0
  1 43  1  0
  1 44  1  0
  3 45  1  0
  3 46  1  0
  4 47  1  0
  4 48  1  0
  5 49  1  0
  8 50  1  0
 10 51  1  0
 17 52  1  0
 17 53  1  0
 17 54  1  0
 18 55  1  0
 21 56  1  0
 21 57  1  0
 21 58  1  0
 27 59  1  0
 27 60  1  0
 28 61  1  0
 28 62  1  0
 29 63  1  0
 29 64  1  0
 31 65  1  0
 31 66  1  0
 32 67  1  0
 32 68  1  0
 34 69  1  0
 34 70  1  0
 35 71  1  0
 35 72  1  0
 38 73  1  0
 39 74  1  0
 39 75  1  0
M  END
$$$$
[H]C1=C(C#Cc2c([H])c(OC([H])([H])[H])c([H])c(OC([H])([H])[H])c2[H])c2c(N([H])[H])nc([H])nc2C1([H])[C@]1([H])C([H])([H])N(C(=O)/C([H])=C(\[H])C([H])([H])N(C([H])([H])[H])C([H])([H])[H])C([H])([H])C1([H])[H]
     RDKit          3D

 66 69  0  0  0  0  0  0  0  0999 V2000
   -7.7058   -3.1468   -0.6861 C   0  0  0  0  0  0  0  0  0  0  0  0
   -8.2808   -1.8779   -0.5419 O   0  0  0  0  0  0  0  0  0  0  0  0
   -7.5328   -0.7128   -0.4604 C   0  0  0  0  0  0  0  0  0  0  0  0
   -8.1474    0.5120   -0.3190 C   0  0  0  0  0  0  0  0  0  0  0  0
   -7.4190    1.6928   -0.2352 C   0  0  0  0  0  0  0  0  0  0  0  0
   -8.0250    2.9339   -0.0926 O   0  0  0  0  0  0  0  0  0  0  0  0
   -9.4397    2.9856   -0.0313 C   0  0  0  0  0  0  0  0  0  0  0  0
   -6.0417    1.5893   -0.2999 C   0  0  0  0  0  0  0  0  0  0  0  0
   -5.3773    0.3877   -0.4411 C   0  0  0  0  0  0  0  0  0  0  0  0
   -6.1560   -0.7510   -0.5189 C   0  0  0  0  0  0  0  0  0  0  0  0
   -3.9420    0.3599   -0.5010 C   0  0  0  0  0  0  0  0  0  0  0  0
   -2.7347    0.3356   -0.5711 C   0  0  0  0  0  0  0  0  0  0  0  0
   -1.2878    0.2961   -0.6736 C   0  0  0  0  0  0  0  0  0  0  0  0
   -0.4947    1.3031   -0.9482 C   0  0  0  0  0  0  0  0  0  0  0  0
    0.9415    0.9043   -0.9732 C   0  0  0  0  0  0  0  0  0  0  0  0
    1.6650    1.7428    0.0134 C   0  0  1  0  0  0  0  0  0  0  0  0
    1.2117    1.5342    1.4583 C   0  0  0  0  0  0  0  0  0  0  0  0
    2.3977    2.1227    2.1651 C   0  0  0  0  0  0  0  0  0  0  0  0
    3.5371    1.6056    1.4276 N   0  0  0  0  0  0  0  0  0  0  0  0
    3.1402    1.4509    0.0635 C   0  0  0  0  0  0  0  0  0  0  0  0
    4.7610    1.3328    2.0850 C   0  0  0  0  0  0  0  0  0  0  0  0
    4.8082    1.4928    3.3846 O   0  0  0  0  0  0  0  0  0  0  0  0
    5.9874    0.8937    1.4932 C   0  0  0  0  0  0  0  0  0  0  0  0
    6.2693    0.6706    0.2348 C   0  0  0  0  0  0  0  0  0  0  0  0
    7.6295    0.2043   -0.2086 C   0  0  0  0  0  0  0  0  0  0  0  0
    7.5096   -1.0738   -0.8777 N   0  0  0  0  0  0  0  0  0  0  0  0
    8.8296   -1.4944   -1.2908 C   0  0  0  0  0  0  0  0  0  0  0  0
    6.8171   -2.0461   -0.0852 C   0  0  0  0  0  0  0  0  0  0  0  0
    0.8818   -0.5352   -0.6690 C   0  0  0  0  0  0  0  0  0  0  0  0
    1.7965   -1.5278   -0.5363 N   0  0  0  0  0  0  0  0  0  0  0  0
    1.4827   -2.7971   -0.2484 C   0  0  0  0  0  0  0  0  0  0  0  0
    0.1898   -3.1170   -0.0791 N   0  0  0  0  0  0  0  0  0  0  0  0
   -0.7691   -2.2049   -0.1917 C   0  0  0  0  0  0  0  0  0  0  0  0
   -2.1502   -2.4965   -0.0212 N   0  0  0  0  0  0  0  0  0  0  0  0
   -0.4364   -0.8785   -0.4930 C   0  0  0  0  0  0  0  0  0  0  0  0
   -8.4564   -3.9086   -0.9214 H   0  0  0  0  0  0  0  0  0  0  0  0
   -7.2595   -3.4193    0.3107 H   0  0  0  0  0  0  0  0  0  0  0  0
   -6.8432   -3.1610   -1.3997 H   0  0  0  0  0  0  0  0  0  0  0  0
   -9.2141    0.5712   -0.2708 H   0  0  0  0  0  0  0  0  0  0  0  0
   -9.7753    4.0363   -0.1732 H   0  0  0  0  0  0  0  0  0  0  0  0
   -9.8132    2.4161   -0.9095 H   0  0  0  0  0  0  0  0  0  0  0  0
   -9.8558    2.5188    0.8647 H   0  0  0  0  0  0  0  0  0  0  0  0
   -5.4236    2.4922   -0.2383 H   0  0  0  0  0  0  0  0  0  0  0  0
   -5.6488   -1.6994   -0.6295 H   0  0  0  0  0  0  0  0  0  0  0  0
   -0.8163    2.3303   -1.1419 H   0  0  0  0  0  0  0  0  0  0  0  0
    1.3811    1.0714   -1.9928 H   0  0  0  0  0  0  0  0  0  0  0  0
    1.4622    2.8260   -0.1961 H   0  0  0  0  0  0  0  0  0  0  0  0
    1.2025    0.4359    1.7133 H   0  0  0  0  0  0  0  0  0  0  0  0
    0.2622    2.0260    1.6676 H   0  0  0  0  0  0  0  0  0  0  0  0
    2.3826    3.2372    2.1215 H   0  0  0  0  0  0  0  0  0  0  0  0
    2.3965    1.7595    3.2172 H   0  0  0  0  0  0  0  0  0  0  0  0
    3.6373    2.2509   -0.5545 H   0  0  0  0  0  0  0  0  0  0  0  0
    3.3580    0.4346   -0.3407 H   0  0  0  0  0  0  0  0  0  0  0  0
    6.8586    0.6996    2.1618 H   0  0  0  0  0  0  0  0  0  0  0  0
    5.5643    0.8217   -0.5182 H   0  0  0  0  0  0  0  0  0  0  0  0
    8.3287    0.1493    0.6401 H   0  0  0  0  0  0  0  0  0  0  0  0
    7.9765    0.9647   -0.9396 H   0  0  0  0  0  0  0  0  0  0  0  0
    9.2174   -2.1673   -0.4863 H   0  0  0  0  0  0  0  0  0  0  0  0
    8.8208   -2.0110   -2.2725 H   0  0  0  0  0  0  0  0  0  0  0  0
    9.4983   -0.6229   -1.3307 H   0  0  0  0  0  0  0  0  0  0  0  0
    7.4855   -2.9257    0.0456 H   0  0  0  0  0  0  0  0  0  0  0  0
    5.8529   -2.3824   -0.5563 H   0  0  0  0  0  0  0  0  0  0  0  0
    6.5695   -1.6586    0.9234 H   0  0  0  0  0  0  0  0  0  0  0  0
    2.2609   -3.5666   -0.1510 H   0  0  0  0  0  0  0  0  0  0  0  0
   -2.5110   -2.5817    0.9471 H   0  0  0  0  0  0  0  0  0  0  0  0
   -2.8140   -2.6282   -0.8058 H   0  0  0  0  0  0  0  0  0  0  0  0
  1  2  1  0
  2  3  1  0
  3  4  2  0
  4  5  1  0
  5  6  1  0
  6  7  1  0
  5  8  2  0
  8  9  1  0
  9 10  2  0
  9 11  1  0
 11 12  3  0
 12 13  1  0
 13 14  2  0
 14 15  1  0
 15 16  1  0
 16 17  1  0
 17 18  1  0
 18 19  1  0
 19 20  1  0
 19 21  1  0
 21 22  2  0
 21 23  1  0
 23 24  2  0
 24 25  1  0
 25 26  1  0
 26 27  1  0
 26 28  1  0
 15 29  1  0
 29 30  2  0
 30 31  1  0
 31 32  2  0
 32 33  1  0
 33 34  1  0
 33 35  2  0
 10  3  1  0
 35 13  1  0
 20 16  1  0
 35 29  1  0
  1 36  1  0
  1 37  1  0
  1 38  1  0
  4 39  1  0
  7 40  1  0
  7 41  1  0
  7 42  1  0
  8 43  1  0
 10 44  1  0
 14 45  1  0
 15 46  1  0
 16 47  1  6
 17 48  1  0
 17 49  1  0
 18 50  1  0
 18 51  1  0
 20 52  1  0
 20 53  1  0
 23 54  1  0
 24 55  1  0
 25 56  1  0
 25 57  1  0
 27 58  1  0
 27 59  1  0
 27 60  1  0
 28 61  1  0
 28 62  1  0
 28 63  1  0
 31 64  1  0
 34 65  1  0
 34 66  1  0
M  END
$$$$
[H]C([H])=C([H])C(=O)N([H])c1c([H])c([H])c([H])c(C([H])([H])N2C(=O)N(c3c(Cl)c(OC([H])([H])[H])c([H])c(OC([H])([H])[H])c3Cl)C([H])([H])c3c([H])nc(N([H])C([H])([H])C([H])([H])C([H])([H])C([H])([H])N(C([H])([H])C([H])([H])[H])C([H])([H])C([H])([H])[H])nc32)c1[H]
     RDKit          3D

 84 87  0  0  0  0  0  0  0  0999 V2000
    8.4914    2.4899   -1.8658 C   0  0  0  0  0  0  0  0  0  0  0  0
    7.5522    2.5683   -0.7134 C   0  0  0  0  0  0  0  0  0  0  0  0
    7.6828    1.5337    0.2105 N   0  0  0  0  0  0  0  0  0  0  0  0
    8.8053    1.4407    1.0603 C   0  0  0  0  0  0  0  0  0  0  0  0
   10.0493    1.0136    0.3477 C   0  0  0  0  0  0  0  0  0  0  0  0
    7.1821    0.2497   -0.2073 C   0  0  0  0  0  0  0  0  0  0  0  0
    5.7230    0.0987   -0.3711 C   0  0  0  0  0  0  0  0  0  0  0  0
    4.9352    0.3801    0.8805 C   0  0  0  0  0  0  0  0  0  0  0  0
    3.4429    0.1946    0.7087 C   0  0  0  0  0  0  0  0  0  0  0  0
    3.1353   -1.1537    0.3543 N   0  0  0  0  0  0  0  0  0  0  0  0
    1.8030   -1.6197    0.1700 C   0  0  0  0  0  0  0  0  0  0  0  0
    1.5884   -2.9267   -0.1497 N   0  0  0  0  0  0  0  0  0  0  0  0
    0.3914   -3.4606   -0.3253 C   0  0  0  0  0  0  0  0  0  0  0  0
   -0.7340   -2.6188   -0.1716 C   0  0  0  0  0  0  0  0  0  0  0  0
   -2.0686   -3.1661   -0.4526 C   0  0  0  0  0  0  0  0  0  0  0  0
   -3.1026   -2.3994    0.1534 N   0  0  0  0  0  0  0  0  0  0  0  0
   -2.9404   -1.0353    0.4556 C   0  0  0  0  0  0  0  0  0  0  0  0
   -3.9639   -0.3509    0.7117 O   0  0  0  0  0  0  0  0  0  0  0  0
   -1.6402   -0.4759    0.4631 N   0  0  0  0  0  0  0  0  0  0  0  0
   -1.4709    0.9186    0.7911 C   0  0  0  0  0  0  0  0  0  0  0  0
   -1.7331    1.8035   -0.3911 C   0  0  0  0  0  0  0  0  0  0  0  0
   -1.2906    1.5294   -1.6511 C   0  0  0  0  0  0  0  0  0  0  0  0
   -1.5735    2.3786   -2.7291 C   0  0  0  0  0  0  0  0  0  0  0  0
   -2.3308    3.5301   -2.4908 C   0  0  0  0  0  0  0  0  0  0  0  0
   -2.7895    3.8396   -1.2528 C   0  0  0  0  0  0  0  0  0  0  0  0
   -3.5482    5.0003   -0.9736 N   0  0  0  0  0  0  0  0  0  0  0  0
   -3.6260    6.1277   -1.7847 C   0  0  0  0  0  0  0  0  0  0  0  0
   -3.0018    6.2533   -2.8922 O   0  0  0  0  0  0  0  0  0  0  0  0
   -4.4441    7.2735   -1.4179 C   0  0  0  0  0  0  0  0  0  0  0  0
   -5.1506    7.3328   -0.3211 C   0  0  0  0  0  0  0  0  0  0  0  0
   -2.4739    2.9541   -0.2167 C   0  0  0  0  0  0  0  0  0  0  0  0
   -0.5327   -1.3107    0.1508 C   0  0  0  0  0  0  0  0  0  0  0  0
    0.7329   -0.8421    0.3115 N   0  0  0  0  0  0  0  0  0  0  0  0
   -4.3089   -3.1067    0.4794 C   0  0  0  0  0  0  0  0  0  0  0  0
   -4.5386   -3.3459    1.8144 C   0  0  0  0  0  0  0  0  0  0  0  0
   -3.3993   -2.7706    3.0187 Cl  0  0  0  0  0  0  0  0  0  0  0  0
   -5.6810   -4.0433    2.2265 C   0  0  0  0  0  0  0  0  0  0  0  0
   -5.8684   -4.2582    3.5674 O   0  0  0  0  0  0  0  0  0  0  0  0
   -6.9861   -4.9496    4.0530 C   0  0  0  0  0  0  0  0  0  0  0  0
   -6.6063   -4.5078    1.3000 C   0  0  0  0  0  0  0  0  0  0  0  0
   -6.3631   -4.2611   -0.0249 C   0  0  0  0  0  0  0  0  0  0  0  0
   -7.2636   -4.7093   -0.9695 O   0  0  0  0  0  0  0  0  0  0  0  0
   -8.4269   -5.4090   -0.6543 C   0  0  0  0  0  0  0  0  0  0  0  0
   -5.2244   -3.5667   -0.4284 C   0  0  0  0  0  0  0  0  0  0  0  0
   -4.9235   -3.2558   -2.1244 Cl  0  0  0  0  0  0  0  0  0  0  0  0
    8.9073    1.4797   -2.0180 H   0  0  0  0  0  0  0  0  0  0  0  0
    9.3498    3.1863   -1.7121 H   0  0  0  0  0  0  0  0  0  0  0  0
    7.9850    2.8491   -2.8142 H   0  0  0  0  0  0  0  0  0  0  0  0
    7.8147    3.5377   -0.1632 H   0  0  0  0  0  0  0  0  0  0  0  0
    6.4976    2.7741   -1.0367 H   0  0  0  0  0  0  0  0  0  0  0  0
    9.0138    2.4944    1.4419 H   0  0  0  0  0  0  0  0  0  0  0  0
    8.6224    0.8274    1.9781 H   0  0  0  0  0  0  0  0  0  0  0  0
    9.7822    0.1581   -0.3375 H   0  0  0  0  0  0  0  0  0  0  0  0
   10.4806    1.8415   -0.2273 H   0  0  0  0  0  0  0  0  0  0  0  0
   10.8219    0.6321    1.0827 H   0  0  0  0  0  0  0  0  0  0  0  0
    7.5619   -0.5153    0.4712 H   0  0  0  0  0  0  0  0  0  0  0  0
    7.6567    0.0562   -1.2134 H   0  0  0  0  0  0  0  0  0  0  0  0
    5.5502   -0.9929   -0.6118 H   0  0  0  0  0  0  0  0  0  0  0  0
    5.3029    0.6197   -1.2582 H   0  0  0  0  0  0  0  0  0  0  0  0
    5.2943   -0.3543    1.6464 H   0  0  0  0  0  0  0  0  0  0  0  0
    5.0936    1.4231    1.2467 H   0  0  0  0  0  0  0  0  0  0  0  0
    2.9826    0.4354    1.6921 H   0  0  0  0  0  0  0  0  0  0  0  0
    3.1167    0.9569   -0.0286 H   0  0  0  0  0  0  0  0  0  0  0  0
    3.9101   -1.8345    0.2209 H   0  0  0  0  0  0  0  0  0  0  0  0
    0.2008   -4.4974   -0.5803 H   0  0  0  0  0  0  0  0  0  0  0  0
   -2.0488   -4.2297   -0.1068 H   0  0  0  0  0  0  0  0  0  0  0  0
   -2.2752   -3.1906   -1.5489 H   0  0  0  0  0  0  0  0  0  0  0  0
   -0.4945    1.1464    1.2677 H   0  0  0  0  0  0  0  0  0  0  0  0
   -2.2427    1.1583    1.5531 H   0  0  0  0  0  0  0  0  0  0  0  0
   -0.7080    0.6327   -1.8371 H   0  0  0  0  0  0  0  0  0  0  0  0
   -1.2230    2.1581   -3.7086 H   0  0  0  0  0  0  0  0  0  0  0  0
   -2.5248    4.1365   -3.3917 H   0  0  0  0  0  0  0  0  0  0  0  0
   -4.1173    5.0234   -0.0648 H   0  0  0  0  0  0  0  0  0  0  0  0
   -4.5025    8.1568   -2.0673 H   0  0  0  0  0  0  0  0  0  0  0  0
   -5.7455    8.2368   -0.1156 H   0  0  0  0  0  0  0  0  0  0  0  0
   -5.1812    6.5392    0.3958 H   0  0  0  0  0  0  0  0  0  0  0  0
   -2.8451    3.2115    0.7687 H   0  0  0  0  0  0  0  0  0  0  0  0
   -6.8976   -6.0468    3.8276 H   0  0  0  0  0  0  0  0  0  0  0  0
   -7.9440   -4.5564    3.6380 H   0  0  0  0  0  0  0  0  0  0  0  0
   -6.9602   -4.8658    5.1555 H   0  0  0  0  0  0  0  0  0  0  0  0
   -7.4879   -5.0504    1.6564 H   0  0  0  0  0  0  0  0  0  0  0  0
   -9.0440   -5.5103   -1.5943 H   0  0  0  0  0  0  0  0  0  0  0  0
   -8.1527   -6.4567   -0.3868 H   0  0  0  0  0  0  0  0  0  0  0  0
   -9.0599   -4.9372    0.1307 H   0  0  0  0  0  0  0  0  0  0  0  0
  1  2  1  0
  2  3  1  0
  3  4  1  0
  4  5  1  0
  3  6  1  0
  6  7  1  0
  7  8  1  0
  8  9  1  0
  9 10  1  0
 10 11  1  0
 11 12  2  0
 12 13  1  0
 13 14  2  0
 14 15  1  0
 15 16  1  0
 16 17  1  0
 17 18  2  0
 17 19  1  0
 19 20  1  0
 20 21  1  0
 21 22  2  0
 22 23  1  0
 23 24  2  0
 24 25  1  0
 25 26  1  0
 26 27  1  0
 27 28  2  0
 27 29  1  0
 29 30  2  3
 25 31  2  0
 19 32  1  0
 32 33  2  0
 16 34  1  0
 34 35  2  0
 35 36  1  0
 35 37  1  0
 37 38  1  0
 38 39  1  0
 37 40  2  0
 40 41  1  0
 41 42  1  0
 42 43  1  0
 41 44  2  0
 44 45  1  0
 33 11  1  0
 44 34  1  0
 32 14  1  0
 31 21  1  0
  1 46  1  0
  1 47  1  0
  1 48  1  0
  2 49  1  0
  2 50  1  0
  4 51  1  0
  4 52  1  0
  5 53  1  0
  5 54  1  0
  5 55  1  0
  6 56  1  0
  6 57  1  0
  7 58  1  0
  7 59  1  0
  8 60  1  0
  8 61  1  0
  9 62  1  0
  9 63  1  0
 10 64  1  0
 13 65  1  0
 15 66  1  0
 15 67  1  0
 20 68  1  0
 20 69  1  0
 22 70  1  0
 23 71  1  0
 24 72  1  0
 26 73  1  0
 29 74  1  0
 30 75  1  0
 30 76  1  0
 31 77  1  0
 39 78  1  0
 39 79  1  0
 39 80  1  0
 40 81  1  0
 43 82  1  0
 43 83  1  0
 43 84  1  0
M  END
$$$$
[H]OC([H])(C([H])([H])Oc1c(OC([H])([H])[H])c([H])c2c(Oc3c([H])c([H])c(N([H])c4c([H])c([H])c(C(C([H])([H])[H])(C([H])([H])[H])C([H])([H])[H])c([H])c4[H])c([H])c3[H])c([H])c([H])nc2c1[H])C([H])([H])N1C([H])([H])C([H])([H])OC([H])([H])C1([H])[H]
     RDKit          3D

 80 84  0  0  0  0  0  0  0  0999 V2000
    1.0225   -2.2401    0.7505 C   0  0  0  0  0  0  0  0  0  0  0  0
    2.2957   -1.8824    0.2855 O   0  0  0  0  0  0  0  0  0  0  0  0
    2.5977   -0.6112   -0.1377 C   0  0  0  0  0  0  0  0  0  0  0  0
    1.6273    0.3816   -0.2091 C   0  0  0  0  0  0  0  0  0  0  0  0
    2.0455    1.6482   -0.6186 C   0  0  0  0  0  0  0  0  0  0  0  0
    1.0340    2.6688   -0.7558 C   0  0  0  0  0  0  0  0  0  0  0  0
   -0.1683    2.2765   -0.5484 O   0  0  0  0  0  0  0  0  0  0  0  0
   -1.3667    1.8830   -0.3314 C   0  0  0  0  0  0  0  0  0  0  0  0
   -2.0115    1.5004   -1.5894 C   0  0  0  0  0  0  0  0  0  0  0  0
   -3.2520    1.0249   -1.6227 C   0  0  0  0  0  0  0  0  0  0  0  0
   -4.0250    0.8521   -0.4780 C   0  0  0  0  0  0  0  0  0  0  0  0
   -5.2106    0.2058   -0.6463 N   0  0  0  0  0  0  0  0  0  0  0  0
   -6.4705    0.1038   -0.0567 C   0  0  0  0  0  0  0  0  0  0  0  0
   -6.7743   -1.0030    0.7181 C   0  0  0  0  0  0  0  0  0  0  0  0
   -8.0530   -1.3161    1.1128 C   0  0  0  0  0  0  0  0  0  0  0  0
   -9.1003   -0.5199    0.7456 C   0  0  0  0  0  0  0  0  0  0  0  0
   -8.8257    0.6221   -0.0322 C   0  0  0  0  0  0  0  0  0  0  0  0
   -7.5344    0.9175   -0.4191 C   0  0  0  0  0  0  0  0  0  0  0  0
  -10.5101   -0.8681    0.9635 C   0  0  0  0  0  0  0  0  0  0  0  0
  -11.2481    0.2273    1.7096 C   0  0  0  0  0  0  0  0  0  0  0  0
  -11.2036   -1.0955   -0.4063 C   0  0  0  0  0  0  0  0  0  0  0  0
  -10.6869   -2.1576    1.6780 C   0  0  0  0  0  0  0  0  0  0  0  0
   -3.4553    1.2138    0.7106 C   0  0  0  0  0  0  0  0  0  0  0  0
   -2.1451    1.7230    0.7684 C   0  0  0  0  0  0  0  0  0  0  0  0
    1.3922    3.9133   -1.1379 C   0  0  0  0  0  0  0  0  0  0  0  0
    2.7468    4.2035   -1.4354 C   0  0  0  0  0  0  0  0  0  0  0  0
    3.6592    3.1893   -1.3090 N   0  0  0  0  0  0  0  0  0  0  0  0
    3.2906    1.9509   -0.9163 C   0  0  0  0  0  0  0  0  0  0  0  0
    4.2814    0.9532   -0.8516 C   0  0  0  0  0  0  0  0  0  0  0  0
    3.9322   -0.3229   -0.4746 C   0  0  0  0  0  0  0  0  0  0  0  0
    4.8108   -1.4247   -0.4498 O   0  0  0  0  0  0  0  0  0  0  0  0
    5.9982   -1.5139   -1.0279 C   0  0  0  0  0  0  0  0  0  0  0  0
    7.2860   -0.8983   -1.1209 C   0  0  0  0  0  0  0  0  0  0  0  0
    7.8249   -1.7019   -2.3361 O   0  0  0  0  0  0  0  0  0  0  0  0
    8.4205   -1.1963   -0.1976 C   0  0  0  0  0  0  0  0  0  0  0  0
    8.4951   -0.5606    1.0765 N   0  0  0  0  0  0  0  0  0  0  0  0
    9.6353   -1.1866    1.7736 C   0  0  0  0  0  0  0  0  0  0  0  0
   10.8689   -1.1725    0.9162 C   0  0  0  0  0  0  0  0  0  0  0  0
   11.2486    0.1237    0.6883 O   0  0  0  0  0  0  0  0  0  0  0  0
   10.2509    0.9331    0.2231 C   0  0  0  0  0  0  0  0  0  0  0  0
    8.9216    0.8512    0.8486 C   0  0  0  0  0  0  0  0  0  0  0  0
    1.1053   -2.3637    1.9284 H   0  0  0  0  0  0  0  0  0  0  0  0
    0.7155   -3.2785    0.4289 H   0  0  0  0  0  0  0  0  0  0  0  0
    0.2341   -1.5046    0.5667 H   0  0  0  0  0  0  0  0  0  0  0  0
    0.6253    0.2273    0.0025 H   0  0  0  0  0  0  0  0  0  0  0  0
   -1.3996    1.6475   -2.4685 H   0  0  0  0  0  0  0  0  0  0  0  0
   -3.7025    0.7398   -2.6127 H   0  0  0  0  0  0  0  0  0  0  0  0
   -5.2209   -0.5142   -1.5618 H   0  0  0  0  0  0  0  0  0  0  0  0
   -5.9487   -1.6519    1.0141 H   0  0  0  0  0  0  0  0  0  0  0  0
   -8.2772   -2.1971    1.7163 H   0  0  0  0  0  0  0  0  0  0  0  0
   -9.6400    1.2431   -0.3232 H   0  0  0  0  0  0  0  0  0  0  0  0
   -7.2914    1.7945   -1.0151 H   0  0  0  0  0  0  0  0  0  0  0  0
  -12.0931    0.5719    1.0816 H   0  0  0  0  0  0  0  0  0  0  0  0
  -10.5804    1.0610    1.9769 H   0  0  0  0  0  0  0  0  0  0  0  0
  -11.6516   -0.1704    2.6600 H   0  0  0  0  0  0  0  0  0  0  0  0
  -10.7698   -2.0149   -0.8067 H   0  0  0  0  0  0  0  0  0  0  0  0
  -10.8316   -0.2408   -1.0548 H   0  0  0  0  0  0  0  0  0  0  0  0
  -12.2794   -1.1282   -0.2841 H   0  0  0  0  0  0  0  0  0  0  0  0
  -10.5764   -2.0894    2.7801 H   0  0  0  0  0  0  0  0  0  0  0  0
   -9.9918   -2.9152    1.2212 H   0  0  0  0  0  0  0  0  0  0  0  0
  -11.6956   -2.5204    1.4555 H   0  0  0  0  0  0  0  0  0  0  0  0
   -4.0036    1.0915    1.6562 H   0  0  0  0  0  0  0  0  0  0  0  0
   -1.6900    1.9896    1.7374 H   0  0  0  0  0  0  0  0  0  0  0  0
    0.6777    4.7247   -1.2312 H   0  0  0  0  0  0  0  0  0  0  0  0
    3.0320    5.1738   -1.7219 H   0  0  0  0  0  0  0  0  0  0  0  0
    5.3157    1.2525   -1.0481 H   0  0  0  0  0  0  0  0  0  0  0  0
    6.2463   -2.7233   -1.0430 H   0  0  0  0  0  0  0  0  0  0  0  0
    5.6336   -1.5081   -2.2131 H   0  0  0  0  0  0  0  0  0  0  0  0
    7.2659    0.1375   -1.5218 H   0  0  0  0  0  0  0  0  0  0  0  0
    7.7087   -2.5933   -1.8719 H   0  0  0  0  0  0  0  0  0  0  0  0
    9.3818   -1.0109   -0.8272 H   0  0  0  0  0  0  0  0  0  0  0  0
    8.4536   -2.3047   -0.0617 H   0  0  0  0  0  0  0  0  0  0  0  0
    9.8306   -0.5157    2.6475 H   0  0  0  0  0  0  0  0  0  0  0  0
    9.3234   -2.1606    2.1092 H   0  0  0  0  0  0  0  0  0  0  0  0
   10.7789   -1.7929   -0.0115 H   0  0  0  0  0  0  0  0  0  0  0  0
   11.7119   -1.6528    1.5266 H   0  0  0  0  0  0  0  0  0  0  0  0
   10.1604    0.8780   -0.8842 H   0  0  0  0  0  0  0  0  0  0  0  0
   10.6531    1.9962    0.3763 H   0  0  0  0  0  0  0  0  0  0  0  0
    8.1794    1.3532    0.2170 H   0  0  0  0  0  0  0  0  0  0  0  0
    8.9661    1.2740    1.8551 H   0  0  0  0  0  0  0  0  0  0  0  0
  1  2  1  0
  2  3  1  0
  3  4  2  0
  4  5  1  0
  5  6  2  0
  6  7  1  0
  7  8  1  0
  8  9  2  0
  9 10  1  0
 10 11  2  0
 11 12  1  0
 12 13  1  0
 13 14  2  0
 14 15  1  0
 15 16  2  0
 16 17  1  0
 17 18  2  0
 16 19  1  0
 19 20  1  0
 19 21  1  0
 19 22  1  0
 11 23  1  0
 23 24  2  0
  6 25  1  0
 25 26  2  0
 26 27  1  0
 27 28  2  0
 28 29  1  0
 29 30  2  0
 30 31  1  0
 31 32  1  0
 32 33  1  0
 33 34  1  0
 33 35  1  0
 35 36  1  0
 36 37  1  0
 37 38  1  0
 38 39  1  0
 39 40  1  0
 40 41  1  0
 30  3  1  0
 41 36  1  0
 28  5  1  0
 24  8  1  0
 18 13  1  0
  1 42  1  0
  1 43  1  0
  1 44  1  0
  4 45  1  0
  9 46  1  0
 10 47  1  0
 12 48  1  0
 14 49  1  0
 15 50  1  0
 17 51  1  0
 18 52  1  0
 20 53  1  0
 20 54  1  0
 20 55  1  0
 21 56  1  0
 21 57  1  0
 21 58  1  0
 22 59  1  0
 22 60  1  0
 22 61  1  0
 23 62  1  0
 24 63  1  0
 25 64  1  0
 26 65  1  0
 29 66  1  0
 32 67  1  0
 32 68  1  0
 33 69  1  0
 34 70  1  0
 35 71  1  0
 35 72  1  0
 37 73  1  0
 37 74  1  0
 38 75  1  0
 38 76  1  0
 40 77  1  0
 40 78  1  0
 41 79  1  0
 41 80  1  0
M  END
$$$$
[H]c1nc(-c2c([H])c([H])c([H])c([H])c2[H])c([H])c2c1C([H])([H])N(c1c(F)c(OC([H])([H])[H])c([H])c(OC([H])([H])[H])c1F)C(=O)N2C([H])([H])C([H])([H])[H]
     RDKit          3D

 52 55  0  0  0  0  0  0  0  0999 V2000
    1.4525   -3.3905    0.6958 C   0  0  0  0  0  0  0  0  0  0  0  0
    1.3173   -2.1369    1.5653 C   0  0  0  0  0  0  0  0  0  0  0  0
    0.7806   -1.0807    0.7543 N   0  0  0  0  0  0  0  0  0  0  0  0
   -0.6141   -0.8736    0.6489 C   0  0  0  0  0  0  0  0  0  0  0  0
   -1.3666   -1.6733    1.3115 O   0  0  0  0  0  0  0  0  0  0  0  0
   -1.1834    0.1625   -0.1445 N   0  0  0  0  0  0  0  0  0  0  0  0
   -0.3302    1.0190   -0.9225 C   0  0  0  0  0  0  0  0  0  0  0  0
    1.1156    0.7788   -0.7352 C   0  0  0  0  0  0  0  0  0  0  0  0
    2.0161    1.6175   -1.4039 C   0  0  0  0  0  0  0  0  0  0  0  0
    3.3431    1.4786   -1.3158 N   0  0  0  0  0  0  0  0  0  0  0  0
    3.8901    0.4957   -0.5565 C   0  0  0  0  0  0  0  0  0  0  0  0
    3.0284   -0.3415    0.1104 C   0  0  0  0  0  0  0  0  0  0  0  0
    1.6442   -0.2230    0.0398 C   0  0  0  0  0  0  0  0  0  0  0  0
    5.3298    0.3800   -0.4800 C   0  0  0  0  0  0  0  0  0  0  0  0
    6.1256    1.2845   -1.1943 C   0  0  0  0  0  0  0  0  0  0  0  0
    7.4876    1.2689   -1.1904 C   0  0  0  0  0  0  0  0  0  0  0  0
    8.1244    0.3058   -0.4389 C   0  0  0  0  0  0  0  0  0  0  0  0
    7.3895   -0.6041    0.2792 C   0  0  0  0  0  0  0  0  0  0  0  0
    6.0056   -0.5518    0.2468 C   0  0  0  0  0  0  0  0  0  0  0  0
   -2.6055    0.3265   -0.1337 C   0  0  0  0  0  0  0  0  0  0  0  0
   -3.2234    1.4441    0.3653 C   0  0  0  0  0  0  0  0  0  0  0  0
   -2.4801    2.4562    0.8701 F   0  0  0  0  0  0  0  0  0  0  0  0
   -4.6156    1.6114    0.3859 C   0  0  0  0  0  0  0  0  0  0  0  0
   -5.1614    2.7678    0.9056 O   0  0  0  0  0  0  0  0  0  0  0  0
   -6.5445    2.9768    0.9440 C   0  0  0  0  0  0  0  0  0  0  0  0
   -5.3959    0.5969   -0.1226 C   0  0  0  0  0  0  0  0  0  0  0  0
   -4.8007   -0.5358   -0.6301 C   0  0  0  0  0  0  0  0  0  0  0  0
   -5.5714   -1.5569   -1.1415 O   0  0  0  0  0  0  0  0  0  0  0  0
   -6.9750   -1.4342   -1.1393 C   0  0  0  0  0  0  0  0  0  0  0  0
   -3.4132   -0.6674   -0.6347 C   0  0  0  0  0  0  0  0  0  0  0  0
   -2.8859   -1.7984   -1.1495 F   0  0  0  0  0  0  0  0  0  0  0  0
    0.5716   -4.0487    0.8213 H   0  0  0  0  0  0  0  0  0  0  0  0
    2.3653   -3.9683    0.9867 H   0  0  0  0  0  0  0  0  0  0  0  0
    1.4939   -3.1472   -0.3831 H   0  0  0  0  0  0  0  0  0  0  0  0
    0.5571   -2.4101    2.3610 H   0  0  0  0  0  0  0  0  0  0  0  0
    2.2294   -1.8996    2.1165 H   0  0  0  0  0  0  0  0  0  0  0  0
   -0.5125    0.9065   -2.0231 H   0  0  0  0  0  0  0  0  0  0  0  0
   -0.5138    2.0677   -0.5955 H   0  0  0  0  0  0  0  0  0  0  0  0
    1.6252    2.4212   -2.0255 H   0  0  0  0  0  0  0  0  0  0  0  0
    3.4527   -1.1272    0.7154 H   0  0  0  0  0  0  0  0  0  0  0  0
    5.6428    2.0548   -1.7957 H   0  0  0  0  0  0  0  0  0  0  0  0
    8.0919    1.9722   -1.7461 H   0  0  0  0  0  0  0  0  0  0  0  0
    9.2060    0.2753   -0.4209 H   0  0  0  0  0  0  0  0  0  0  0  0
    7.9214   -1.3566    0.8668 H   0  0  0  0  0  0  0  0  0  0  0  0
    5.4467   -1.2866    0.8264 H   0  0  0  0  0  0  0  0  0  0  0  0
   -6.9967    2.6259    0.0147 H   0  0  0  0  0  0  0  0  0  0  0  0
   -6.7887    4.0765    0.9895 H   0  0  0  0  0  0  0  0  0  0  0  0
   -7.0126    2.4621    1.8024 H   0  0  0  0  0  0  0  0  0  0  0  0
   -6.4991    0.6892   -0.1231 H   0  0  0  0  0  0  0  0  0  0  0  0
   -7.4041   -1.1227   -0.1724 H   0  0  0  0  0  0  0  0  0  0  0  0
   -7.3998   -2.4663   -1.3233 H   0  0  0  0  0  0  0  0  0  0  0  0
   -7.3601   -0.8206   -1.9769 H   0  0  0  0  0  0  0  0  0  0  0  0
  1  2  1  0
  2  3  1  0
  3  4  1  0
  4  5  2  0
  4  6  1  0
  6  7  1  0
  7  8  1  0
  8  9  2  0
  9 10  1  0
 10 11  2  0
 11 12  1  0
 12 13  2  0
 11 14  1  0
 14 15  2  0
 15 16  1  0
 16 17  2  0
 17 18  1  0
 18 19  2  0
  6 20  1  0
 20 21  2  0
 21 22  1  0
 21 23  1  0
 23 24  1  0
 24 25  1  0
 23 26  2  0
 26 27  1  0
 27 28  1  0
 28 29  1  0
 27 30  2  0
 30 31  1  0
 13  3  1  0
 19 14  1  0
 30 20  1  0
 13  8  1  0
  1 32  1  0
  1 33  1  0
  1 34  1  0
  2 35  1  0
  2 36  1  0
  7 37  1  0
  7 38  1  0
  9 39  1  0
 12 40  1  0
 15 41  1  0
 16 42  1  0
 17 43  1  0
 18 44  1  0
 19 45  1  0
 25 46  1  0
 25 47  1  0
 25 48  1  0
 26 49  1  0
 29 50  1  0
 29 51  1  0
 29 52  1  0
M  END
$$$$
[H]C([H])=C([H])C(=O)N1C([H])([H])C([H])([H])N(C([H])([H])C([H])([H])C([H])([H])n2c(=O)c(-c3c([H])c(OC([H])([H])[H])c([H])c(OC([H])([H])[H])c3Cl)c([H])c3c([H])nc(N([H])C([H])([H])[H])nc32)C([H])([H])C1([H])[H]
     RDKit          3D

 68 71  0  0  0  0  0  0  0  0999 V2000
    0.1408   -7.2658    2.2499 C   0  0  0  0  0  0  0  0  0  0  0  0
    0.4798   -6.0576    1.5312 N   0  0  0  0  0  0  0  0  0  0  0  0
   -0.4562   -4.9673    1.4211 C   0  0  0  0  0  0  0  0  0  0  0  0
   -1.6666   -5.0183    1.9689 N   0  0  0  0  0  0  0  0  0  0  0  0
   -2.5520   -4.0205    1.8838 C   0  0  0  0  0  0  0  0  0  0  0  0
   -2.1948   -2.8875    1.1979 C   0  0  0  0  0  0  0  0  0  0  0  0
   -3.0687   -1.8090    1.0718 C   0  0  0  0  0  0  0  0  0  0  0  0
   -2.6691   -0.6935    0.3773 C   0  0  0  0  0  0  0  0  0  0  0  0
   -3.5355    0.4648    0.1877 C   0  0  0  0  0  0  0  0  0  0  0  0
   -3.7121    0.9805   -1.0884 C   0  0  0  0  0  0  0  0  0  0  0  0
   -4.5479    2.0798   -1.3069 C   0  0  0  0  0  0  0  0  0  0  0  0
   -4.6694    2.5300   -2.5924 O   0  0  0  0  0  0  0  0  0  0  0  0
   -5.4655    3.6194   -2.9496 C   0  0  0  0  0  0  0  0  0  0  0  0
   -5.1651    2.5988   -0.2011 C   0  0  0  0  0  0  0  0  0  0  0  0
   -5.0238    2.1257    1.0847 C   0  0  0  0  0  0  0  0  0  0  0  0
   -5.6593    2.6710    2.1844 O   0  0  0  0  0  0  0  0  0  0  0  0
   -6.5163    3.7732    2.0646 C   0  0  0  0  0  0  0  0  0  0  0  0
   -4.1784    1.0240    1.2637 C   0  0  0  0  0  0  0  0  0  0  0  0
   -3.9727    0.4060    2.9096 Cl  0  0  0  0  0  0  0  0  0  0  0  0
   -1.4081   -0.6849   -0.1725 C   0  0  0  0  0  0  0  0  0  0  0  0
   -1.0438    0.3328   -0.8052 O   0  0  0  0  0  0  0  0  0  0  0  0
   -0.5706   -1.7296   -0.0468 N   0  0  0  0  0  0  0  0  0  0  0  0
    0.7504   -1.6793   -0.6303 C   0  0  0  0  0  0  0  0  0  0  0  0
    1.7098   -1.1232    0.4035 C   0  0  0  0  0  0  0  0  0  0  0  0
    3.1109   -1.0309   -0.0806 C   0  0  0  0  0  0  0  0  0  0  0  0
    3.1882   -0.1527   -1.2309 N   0  0  0  0  0  0  0  0  0  0  0  0
    4.5318   -0.0855   -1.7625 C   0  0  0  0  0  0  0  0  0  0  0  0
    5.4053    0.8851   -0.9666 C   0  0  0  0  0  0  0  0  0  0  0  0
    4.8224    2.1765   -0.8970 N   0  0  0  0  0  0  0  0  0  0  0  0
    3.4806    2.2562   -1.5435 C   0  0  0  0  0  0  0  0  0  0  0  0
    2.6714    1.1562   -0.8886 C   0  0  0  0  0  0  0  0  0  0  0  0
    5.3517    3.3146   -0.3203 C   0  0  0  0  0  0  0  0  0  0  0  0
    4.5850    4.4038   -0.3866 O   0  0  0  0  0  0  0  0  0  0  0  0
    6.5788    3.5515    0.3424 C   0  0  0  0  0  0  0  0  0  0  0  0
    7.5481    2.7267    0.5768 C   0  0  0  0  0  0  0  0  0  0  0  0
   -0.9478   -2.8098    0.6213 C   0  0  0  0  0  0  0  0  0  0  0  0
   -0.1063   -3.8539    0.7470 N   0  0  0  0  0  0  0  0  0  0  0  0
    0.4245   -8.1820    1.6684 H   0  0  0  0  0  0  0  0  0  0  0  0
    0.6694   -7.3581    3.2214 H   0  0  0  0  0  0  0  0  0  0  0  0
   -0.9498   -7.2394    2.4623 H   0  0  0  0  0  0  0  0  0  0  0  0
    1.4211   -5.9981    1.0939 H   0  0  0  0  0  0  0  0  0  0  0  0
   -3.5335   -4.0676    2.3308 H   0  0  0  0  0  0  0  0  0  0  0  0
   -4.0409   -1.8689    1.5169 H   0  0  0  0  0  0  0  0  0  0  0  0
   -3.2085    0.5266   -1.8991 H   0  0  0  0  0  0  0  0  0  0  0  0
   -6.3952    3.2347   -3.4613 H   0  0  0  0  0  0  0  0  0  0  0  0
   -4.9258    4.2928   -3.6706 H   0  0  0  0  0  0  0  0  0  0  0  0
   -5.8096    4.2679   -2.1497 H   0  0  0  0  0  0  0  0  0  0  0  0
   -5.8141    3.4385   -0.3566 H   0  0  0  0  0  0  0  0  0  0  0  0
   -7.5667    3.4320    1.8287 H   0  0  0  0  0  0  0  0  0  0  0  0
   -6.2164    4.4744    1.2821 H   0  0  0  0  0  0  0  0  0  0  0  0
   -6.5500    4.3684    3.0106 H   0  0  0  0  0  0  0  0  0  0  0  0
    0.6859   -1.0286   -1.5222 H   0  0  0  0  0  0  0  0  0  0  0  0
    1.0480   -2.6785   -0.9835 H   0  0  0  0  0  0  0  0  0  0  0  0
    1.3433   -0.1412    0.7140 H   0  0  0  0  0  0  0  0  0  0  0  0
    1.6705   -1.7747    1.3177 H   0  0  0  0  0  0  0  0  0  0  0  0
    3.7286   -0.5725    0.7127 H   0  0  0  0  0  0  0  0  0  0  0  0
    3.5592   -2.0099   -0.3414 H   0  0  0  0  0  0  0  0  0  0  0  0
    4.9838   -1.0854   -1.6408 H   0  0  0  0  0  0  0  0  0  0  0  0
    4.5159    0.1751   -2.8138 H   0  0  0  0  0  0  0  0  0  0  0  0
    5.6553    0.4235    0.0280 H   0  0  0  0  0  0  0  0  0  0  0  0
    6.3483    0.9411   -1.5393 H   0  0  0  0  0  0  0  0  0  0  0  0
    3.0291    3.2281   -1.3670 H   0  0  0  0  0  0  0  0  0  0  0  0
    3.6238    2.0057   -2.5963 H   0  0  0  0  0  0  0  0  0  0  0  0
    2.6838    1.2938    0.2182 H   0  0  0  0  0  0  0  0  0  0  0  0
    1.6262    1.3224   -1.2147 H   0  0  0  0  0  0  0  0  0  0  0  0
    6.7662    4.5846    0.7281 H   0  0  0  0  0  0  0  0  0  0  0  0
    7.5303    1.7062    0.2765 H   0  0  0  0  0  0  0  0  0  0  0  0
    8.4718    3.0817    1.1271 H   0  0  0  0  0  0  0  0  0  0  0  0
  1  2  1  0
  2  3  1  0
  3  4  2  0
  4  5  1  0
  5  6  2  0
  6  7  1  0
  7  8  2  0
  8  9  1  0
  9 10  2  0
 10 11  1  0
 11 12  1  0
 12 13  1  0
 11 14  2  0
 14 15  1  0
 15 16  1  0
 16 17  1  0
 15 18  2  0
 18 19  1  0
  8 20  1  0
 20 21  2  0
 20 22  1  0
 22 23  1  0
 23 24  1  0
 24 25  1  0
 25 26  1  0
 26 27  1  0
 27 28  1  0
 28 29  1  0
 29 30  1  0
 30 31  1  0
 29 32  1  0
 32 33  2  0
 32 34  1  0
 34 35  2  3
 22 36  1  0
 36 37  2  0
 37  3  1  0
 36  6  1  0
 18  9  1  0
 31 26  1  0
  1 38  1  0
  1 39  1  0
  1 40  1  0
  2 41  1  0
  5 42  1  0
  7 43  1  0
 10 44  1  0
 13 45  1  0
 13 46  1  0
 13 47  1  0
 14 48  1  0
 17 49  1  0
 17 50  1  0
 17 51  1  0
 23 52  1  0
 23 53  1  0
 24 54  1  0
 24 55  1  0
 25 56  1  0
 25 57  1  0
 27 58  1  0
 27 59  1  0
 28 60  1  0
 28 61  1  0
 30 62  1  0
 30 63  1  0
 31 64  1  0
 31 65  1  0
 34 66  1  0
 35 67  1  0
 35 68  1  0
M  END
$$$$
[H]C([H])=C([H])C(=O)N1C([H])([H])C([H])([H])N(C([H])([H])C([H])([H])C([H])([H])n2c(=O)c(-c3c(Cl)c(OC([H])([H])[H])c([H])c(OC([H])([H])[H])c3Cl)c([H])c3c([H])nc(N([H])C([H])([H])C([H])(F)F)nc32)C([H])([H])C1([H])[H]
     RDKit          3D

 71 74  0  0  0  0  0  0  0  0999 V2000
   -7.2948   -3.7395    2.6316 C   0  0  0  0  0  0  0  0  0  0  0  0
   -6.1762   -2.8685    2.4895 O   0  0  0  0  0  0  0  0  0  0  0  0
   -5.7692   -2.4528    1.2076 C   0  0  0  0  0  0  0  0  0  0  0  0
   -6.4705   -2.9033    0.1097 C   0  0  0  0  0  0  0  0  0  0  0  0
   -6.1140   -2.5267   -1.1676 C   0  0  0  0  0  0  0  0  0  0  0  0
   -6.8391   -2.9967   -2.2529 O   0  0  0  0  0  0  0  0  0  0  0  0
   -7.9306   -3.8541   -2.0179 C   0  0  0  0  0  0  0  0  0  0  0  0
   -5.0329   -1.6839   -1.3183 C   0  0  0  0  0  0  0  0  0  0  0  0
   -4.5472   -1.1809   -2.9355 Cl  0  0  0  0  0  0  0  0  0  0  0  0
   -4.3242   -1.2263   -0.2362 C   0  0  0  0  0  0  0  0  0  0  0  0
   -4.6995   -1.6177    1.0459 C   0  0  0  0  0  0  0  0  0  0  0  0
   -3.8410   -1.0712    2.4592 Cl  0  0  0  0  0  0  0  0  0  0  0  0
   -3.1746   -0.3320   -0.3730 C   0  0  0  0  0  0  0  0  0  0  0  0
   -3.3239    1.0194   -0.3652 C   0  0  0  0  0  0  0  0  0  0  0  0
   -2.2042    1.8165   -0.4979 C   0  0  0  0  0  0  0  0  0  0  0  0
   -2.3377    3.1878   -0.4924 C   0  0  0  0  0  0  0  0  0  0  0  0
   -1.2502    3.9399   -0.6214 N   0  0  0  0  0  0  0  0  0  0  0  0
   -0.0344    3.3957   -0.7559 C   0  0  0  0  0  0  0  0  0  0  0  0
    1.1174    4.2126   -0.8931 N   0  0  0  0  0  0  0  0  0  0  0  0
    1.0763    5.6432   -0.8923 C   0  0  0  0  0  0  0  0  0  0  0  0
    0.6187    6.2503    0.4096 C   0  0  0  0  0  0  0  0  0  0  0  0
    0.6130    7.6402    0.3165 F   0  0  0  0  0  0  0  0  0  0  0  0
    1.4871    5.9513    1.4454 F   0  0  0  0  0  0  0  0  0  0  0  0
    0.1178    2.0378   -0.7636 N   0  0  0  0  0  0  0  0  0  0  0  0
   -0.9608    1.2600   -0.6354 C   0  0  0  0  0  0  0  0  0  0  0  0
   -0.8155   -0.0841   -0.6428 N   0  0  0  0  0  0  0  0  0  0  0  0
    0.4906   -0.7185   -0.7870 C   0  0  0  0  0  0  0  0  0  0  0  0
    1.0722   -0.9137    0.5938 C   0  0  0  0  0  0  0  0  0  0  0  0
    2.4207   -1.5627    0.5624 C   0  0  0  0  0  0  0  0  0  0  0  0
    3.4191   -0.8376   -0.1575 N   0  0  0  0  0  0  0  0  0  0  0  0
    3.8234    0.3836    0.4319 C   0  0  0  0  0  0  0  0  0  0  0  0
    5.2627    0.4876    0.8282 C   0  0  0  0  0  0  0  0  0  0  0  0
    6.1660   -0.2247   -0.0002 N   0  0  0  0  0  0  0  0  0  0  0  0
    5.6886   -1.0254   -1.0983 C   0  0  0  0  0  0  0  0  0  0  0  0
    4.4353   -1.7166   -0.6209 C   0  0  0  0  0  0  0  0  0  0  0  0
    7.5549   -0.1538    0.2493 C   0  0  0  0  0  0  0  0  0  0  0  0
    8.3779   -0.7924   -0.4925 O   0  0  0  0  0  0  0  0  0  0  0  0
    8.1385    0.6170    1.3230 C   0  0  0  0  0  0  0  0  0  0  0  0
    9.4352    0.6828    1.5559 C   0  0  0  0  0  0  0  0  0  0  0  0
   -1.9074   -0.8362   -0.5136 C   0  0  0  0  0  0  0  0  0  0  0  0
   -1.8061   -2.1037   -0.5164 O   0  0  0  0  0  0  0  0  0  0  0  0
   -7.0346   -4.6835    2.0984 H   0  0  0  0  0  0  0  0  0  0  0  0
   -7.4916   -3.9110    3.7081 H   0  0  0  0  0  0  0  0  0  0  0  0
   -8.1548   -3.2681    2.1248 H   0  0  0  0  0  0  0  0  0  0  0  0
   -7.3296   -3.5752    0.2554 H   0  0  0  0  0  0  0  0  0  0  0  0
   -8.4323   -4.1331   -2.9784 H   0  0  0  0  0  0  0  0  0  0  0  0
   -8.6774   -3.3130   -1.3736 H   0  0  0  0  0  0  0  0  0  0  0  0
   -7.6326   -4.7928   -1.5105 H   0  0  0  0  0  0  0  0  0  0  0  0
   -4.2774    1.4953   -0.2600 H   0  0  0  0  0  0  0  0  0  0  0  0
   -3.3342    3.5996   -0.3820 H   0  0  0  0  0  0  0  0  0  0  0  0
    2.0679    3.7536   -1.0035 H   0  0  0  0  0  0  0  0  0  0  0  0
    0.3930    5.9896   -1.7233 H   0  0  0  0  0  0  0  0  0  0  0  0
    2.0589    6.0863   -1.1554 H   0  0  0  0  0  0  0  0  0  0  0  0
   -0.3854    5.9368    0.6859 H   0  0  0  0  0  0  0  0  0  0  0  0
    1.1209   -0.0247   -1.3654 H   0  0  0  0  0  0  0  0  0  0  0  0
    0.3376   -1.6894   -1.3012 H   0  0  0  0  0  0  0  0  0  0  0  0
    1.0471    0.0525    1.1032 H   0  0  0  0  0  0  0  0  0  0  0  0
    0.3907   -1.5949    1.1516 H   0  0  0  0  0  0  0  0  0  0  0  0
    2.7543   -1.7127    1.6075 H   0  0  0  0  0  0  0  0  0  0  0  0
    2.2928   -2.5547    0.0471 H   0  0  0  0  0  0  0  0  0  0  0  0
    3.5209    1.2314   -0.2507 H   0  0  0  0  0  0  0  0  0  0  0  0
    3.2146    0.5526    1.3551 H   0  0  0  0  0  0  0  0  0  0  0  0
    5.3753    0.2487    1.9160 H   0  0  0  0  0  0  0  0  0  0  0  0
    5.5371    1.5814    0.7579 H   0  0  0  0  0  0  0  0  0  0  0  0
    5.5089   -0.3793   -1.9778 H   0  0  0  0  0  0  0  0  0  0  0  0
    6.4108   -1.8222   -1.3889 H   0  0  0  0  0  0  0  0  0  0  0  0
    4.7536   -2.3601    0.2511 H   0  0  0  0  0  0  0  0  0  0  0  0
    4.0108   -2.3871   -1.3966 H   0  0  0  0  0  0  0  0  0  0  0  0
    7.4821    1.1726    1.9744 H   0  0  0  0  0  0  0  0  0  0  0  0
    9.8609    1.2618    2.3610 H   0  0  0  0  0  0  0  0  0  0  0  0
   10.1503    0.1372    0.9238 H   0  0  0  0  0  0  0  0  0  0  0  0
  1  2  1  0
  2  3  1  0
  3  4  2  0
  4  5  1  0
  5  6  1  0
  6  7  1  0
  5  8  2  0
  8  9  1  0
  8 10  1  0
 10 11  2  0
 11 12  1  0
 10 13  1  0
 13 14  2  0
 14 15  1  0
 15 16  2  0
 16 17  1  0
 17 18  2  0
 18 19  1  0
 19 20  1  0
 20 21  1  0
 21 22  1  0
 21 23  1  0
 18 24  1  0
 24 25  2  0
 25 26  1  0
 26 27  1  0
 27 28  1  0
 28 29  1  0
 29 30  1  0
 30 31  1  0
 31 32  1  0
 32 33  1  0
 33 34  1  0
 34 35  1  0
 33 36  1  0
 36 37  2  0
 36 38  1  0
 38 39  2  3
 26 40  1  0
 40 41  2  0
 11  3  1  0
 40 13  1  0
 25 15  1  0
 35 30  1  0
  1 42  1  0
  1 43  1  0
  1 44  1  0
  4 45  1  0
  7 46  1  0
  7 47  1  0
  7 48  1  0
 14 49  1  0
 16 50  1  0
 19 51  1  0
 20 52  1  0
 20 53  1  0
 21 54  1  0
 27 55  1  0
 27 56  1  0
 28 57  1  0
 28 58  1  0
 29 59  1  0
 29 60  1  0
 31 61  1  0
 31 62  1  0
 32 63  1  0
 32 64  1  0
 34 65  1  0
 34 66  1  0
 35 67  1  0
 35 68  1  0
 38 69  1  0
 39 70  1  0
 39 71  1  0
M  END
$$$$
[H]/C(C(=O)N1C([H])([H])C([H])([H])[C@]([H])(n2c([H])c(C#Cc3c([H])c(OC([H])([H])[H])c([H])c(OC([H])([H])[H])c3[H])c3c(N([H])[H])nc([H])nc32)C1([H])[H])=C(/[H])C([H])([H])N1C([H])([H])C([H])([H])C([H])([H])C1([H])[H]
     RDKit          3D

 69 73  0  0  0  0  0  0  0  0999 V2000
   -6.8977    4.5144   -0.5152 C   0  0  0  0  0  0  0  0  0  0  0  0
   -7.9206    3.6262   -0.1145 O   0  0  0  0  0  0  0  0  0  0  0  0
   -7.6331    2.3017    0.1065 C   0  0  0  0  0  0  0  0  0  0  0  0
   -8.6251    1.4145    0.5005 C   0  0  0  0  0  0  0  0  0  0  0  0
   -8.3824    0.0766    0.7338 C   0  0  0  0  0  0  0  0  0  0  0  0
   -9.4001   -0.7690    1.1243 O   0  0  0  0  0  0  0  0  0  0  0  0
  -10.7090   -0.2749    1.2914 C   0  0  0  0  0  0  0  0  0  0  0  0
   -7.1040   -0.3689    0.5628 C   0  0  0  0  0  0  0  0  0  0  0  0
   -6.0945    0.4938    0.1703 C   0  0  0  0  0  0  0  0  0  0  0  0
   -6.3484    1.8189   -0.0579 C   0  0  0  0  0  0  0  0  0  0  0  0
   -4.7786   -0.0116    0.0055 C   0  0  0  0  0  0  0  0  0  0  0  0
   -3.6667   -0.4577   -0.1382 C   0  0  0  0  0  0  0  0  0  0  0  0
   -2.3615   -1.0082   -0.3102 C   0  0  0  0  0  0  0  0  0  0  0  0
   -1.1826   -0.3339   -0.4883 C   0  0  0  0  0  0  0  0  0  0  0  0
   -0.2060   -1.2683   -0.6068 N   0  0  0  0  0  0  0  0  0  0  0  0
    1.1914   -1.0487   -0.8062 C   0  0  1  0  0  0  0  0  0  0  0  0
    1.6072    0.3938   -0.5798 C   0  0  0  0  0  0  0  0  0  0  0  0
    3.1381    0.2180   -0.5174 C   0  0  0  0  0  0  0  0  0  0  0  0
    3.3789   -1.1334   -0.1046 N   0  0  0  0  0  0  0  0  0  0  0  0
    2.0623   -1.7358    0.2397 C   0  0  0  0  0  0  0  0  0  0  0  0
    4.5748   -1.8589   -0.0018 C   0  0  0  0  0  0  0  0  0  0  0  0
    4.4808   -3.0997    0.4027 O   0  0  0  0  0  0  0  0  0  0  0  0
    5.9257   -1.4545   -0.2753 C   0  0  0  0  0  0  0  0  0  0  0  0
    6.3670   -0.2842   -0.6872 C   0  0  0  0  0  0  0  0  0  0  0  0
    7.8262   -0.1118   -0.9018 C   0  0  0  0  0  0  0  0  0  0  0  0
    8.4543    0.8805   -0.1225 N   0  0  0  0  0  0  0  0  0  0  0  0
    8.0908    2.2220   -0.4189 C   0  0  0  0  0  0  0  0  0  0  0  0
    7.6921    2.8435    0.8969 C   0  0  0  0  0  0  0  0  0  0  0  0
    8.5803    2.1160    1.8817 C   0  0  0  0  0  0  0  0  0  0  0  0
    8.5192    0.6999    1.2812 C   0  0  0  0  0  0  0  0  0  0  0  0
   -0.7556   -2.4968   -0.5061 C   0  0  0  0  0  0  0  0  0  0  0  0
   -0.2438   -3.7526   -0.5533 N   0  0  0  0  0  0  0  0  0  0  0  0
   -1.0050   -4.8523   -0.4254 C   0  0  0  0  0  0  0  0  0  0  0  0
   -2.3197   -4.6862   -0.2446 N   0  0  0  0  0  0  0  0  0  0  0  0
   -2.8997   -3.4772   -0.1870 C   0  0  0  0  0  0  0  0  0  0  0  0
   -4.2902   -3.3005    0.0037 N   0  0  0  0  0  0  0  0  0  0  0  0
   -2.1009   -2.3580   -0.3206 C   0  0  0  0  0  0  0  0  0  0  0  0
   -6.3481    4.1310   -1.4170 H   0  0  0  0  0  0  0  0  0  0  0  0
   -6.1376    4.5678    0.3038 H   0  0  0  0  0  0  0  0  0  0  0  0
   -7.2904    5.5110   -0.7373 H   0  0  0  0  0  0  0  0  0  0  0  0
   -9.6302    1.7815    0.6318 H   0  0  0  0  0  0  0  0  0  0  0  0
  -10.7805    0.3601    2.2064 H   0  0  0  0  0  0  0  0  0  0  0  0
  -11.3988   -1.1311    1.4209 H   0  0  0  0  0  0  0  0  0  0  0  0
  -11.0593    0.2948    0.3889 H   0  0  0  0  0  0  0  0  0  0  0  0
   -6.8619   -1.4189    0.7354 H   0  0  0  0  0  0  0  0  0  0  0  0
   -5.5624    2.4999   -0.3653 H   0  0  0  0  0  0  0  0  0  0  0  0
   -1.0254    0.7313   -0.5312 H   0  0  0  0  0  0  0  0  0  0  0  0
    1.5474   -1.3206   -1.8219 H   0  0  0  0  0  0  0  0  0  0  0  0
    1.2604    0.6978    0.4075 H   0  0  0  0  0  0  0  0  0  0  0  0
    1.3122    1.0579   -1.3963 H   0  0  0  0  0  0  0  0  0  0  0  0
    3.4450    0.3584   -1.5951 H   0  0  0  0  0  0  0  0  0  0  0  0
    3.5766    0.9908    0.1393 H   0  0  0  0  0  0  0  0  0  0  0  0
    2.0901   -2.8189    0.1286 H   0  0  0  0  0  0  0  0  0  0  0  0
    1.7213   -1.3780    1.2268 H   0  0  0  0  0  0  0  0  0  0  0  0
    6.7003   -2.2419   -0.1151 H   0  0  0  0  0  0  0  0  0  0  0  0
    5.6621    0.5010   -0.8505 H   0  0  0  0  0  0  0  0  0  0  0  0
    8.3356   -1.0656   -0.8102 H   0  0  0  0  0  0  0  0  0  0  0  0
    7.9403    0.1993   -1.9840 H   0  0  0  0  0  0  0  0  0  0  0  0
    7.2743    2.2895   -1.1746 H   0  0  0  0  0  0  0  0  0  0  0  0
    9.0082    2.7491   -0.8040 H   0  0  0  0  0  0  0  0  0  0  0  0
    7.8661    3.9396    0.9136 H   0  0  0  0  0  0  0  0  0  0  0  0
    6.6456    2.5656    1.1068 H   0  0  0  0  0  0  0  0  0  0  0  0
    8.2244    2.1450    2.9098 H   0  0  0  0  0  0  0  0  0  0  0  0
    9.6113    2.5377    1.7450 H   0  0  0  0  0  0  0  0  0  0  0  0
    9.4293    0.1415    1.5788 H   0  0  0  0  0  0  0  0  0  0  0  0
    7.6550    0.1758    1.7290 H   0  0  0  0  0  0  0  0  0  0  0  0
   -0.5722   -5.8548   -0.4663 H   0  0  0  0  0  0  0  0  0  0  0  0
   -4.9210   -3.0565   -0.8005 H   0  0  0  0  0  0  0  0  0  0  0  0
   -4.6818   -3.4171    0.9601 H   0  0  0  0  0  0  0  0  0  0  0  0
  1  2  1  0
  2  3  1  0
  3  4  2  0
  4  5  1  0
  5  6  1  0
  6  7  1  0
  5  8  2  0
  8  9  1  0
  9 10  2  0
  9 11  1  0
 11 12  3  0
 12 13  1  0
 13 14  2  0
 14 15  1  0
 15 16  1  0
 16 17  1  0
 17 18  1  0
 18 19  1  0
 19 20  1  0
 19 21  1  0
 21 22  2  0
 21 23  1  0
 23 24  2  0
 24 25  1  0
 25 26  1  0
 26 27  1  0
 27 28  1  0
 28 29  1  0
 29 30  1  0
 15 31  1  0
 31 32  2  0
 32 33  1  0
 33 34  2  0
 34 35  1  0
 35 36  1  0
 35 37  2  0
 10  3  1  0
 37 13  1  0
 20 16  1  0
 30 26  1  0
 37 31  1  0
  1 38  1  0
  1 39  1  0
  1 40  1  0
  4 41  1  0
  7 42  1  0
  7 43  1  0
  7 44  1  0
  8 45  1  0
 10 46  1  0
 14 47  1  0
 16 48  1  6
 17 49  1  0
 17 50  1  0
 18 51  1  0
 18 52  1  0
 20 53  1  0
 20 54  1  0
 23 55  1  0
 24 56  1  0
 25 57  1  0
 25 58  1  0
 27 59  1  0
 27 60  1  0
 28 61  1  0
 28 62  1  0
 29 63  1  0
 29 64  1  0
 30 65  1  0
 30 66  1  0
 33 67  1  0
 36 68  1  0
 36 69  1  0
M  END
$$$$
[H]C([H])=C([H])C(=O)N([H])c1c([H])c([H])c([H])c(C([H])([H])N2C(=O)N(c3c(Cl)c(OC([H])([H])[H])c([H])c(OC([H])([H])[H])c3Cl)C([H])([H])c3c([H])nc(N([H])C([H])([H])C([H])([H])C([H])([H])C([H])([H])N([H])C([H])([H])C([H])([H])[H])nc32)c1[H]
     RDKit          3D

 78 81  0  0  0  0  0  0  0  0999 V2000
    8.3434   -0.6262   -0.7397 C   0  0  0  0  0  0  0  0  0  0  0  0
    8.5319    0.7311   -0.0896 C   0  0  0  0  0  0  0  0  0  0  0  0
    7.6855    1.7390   -0.6376 N   0  0  0  0  0  0  0  0  0  0  0  0
    6.2942    1.5340   -0.3255 C   0  0  0  0  0  0  0  0  0  0  0  0
    5.9911    1.7426    1.1204 C   0  0  0  0  0  0  0  0  0  0  0  0
    4.5382    1.5198    1.4205 C   0  0  0  0  0  0  0  0  0  0  0  0
    3.7008    2.4669    0.6156 C   0  0  0  0  0  0  0  0  0  0  0  0
    2.3073    2.2584    0.9367 N   0  0  0  0  0  0  0  0  0  0  0  0
    1.6384    1.0884    0.5119 C   0  0  0  0  0  0  0  0  0  0  0  0
    2.2068    0.1254   -0.2080 N   0  0  0  0  0  0  0  0  0  0  0  0
    1.5397   -0.9558   -0.5702 C   0  0  0  0  0  0  0  0  0  0  0  0
    0.1932   -1.1159   -0.1976 C   0  0  0  0  0  0  0  0  0  0  0  0
   -0.4717   -2.3326   -0.6809 C   0  0  0  0  0  0  0  0  0  0  0  0
   -1.7815   -2.4962   -0.1186 N   0  0  0  0  0  0  0  0  0  0  0  0
   -2.3946   -1.4728    0.6394 C   0  0  0  0  0  0  0  0  0  0  0  0
   -3.5809   -1.6792    0.9996 O   0  0  0  0  0  0  0  0  0  0  0  0
   -1.7600   -0.2645    1.0063 N   0  0  0  0  0  0  0  0  0  0  0  0
   -2.3371    0.8061    1.7624 C   0  0  0  0  0  0  0  0  0  0  0  0
   -2.9156    1.9188    1.0285 C   0  0  0  0  0  0  0  0  0  0  0  0
   -3.9915    1.7531    0.2063 C   0  0  0  0  0  0  0  0  0  0  0  0
   -4.5028    2.8525   -0.4313 C   0  0  0  0  0  0  0  0  0  0  0  0
   -3.9969    4.1218   -0.2943 C   0  0  0  0  0  0  0  0  0  0  0  0
   -2.9124    4.3226    0.5284 C   0  0  0  0  0  0  0  0  0  0  0  0
   -2.3412    5.5828    0.7615 N   0  0  0  0  0  0  0  0  0  0  0  0
   -2.9425    6.8325    0.5528 C   0  0  0  0  0  0  0  0  0  0  0  0
   -4.1306    6.9596    0.1186 O   0  0  0  0  0  0  0  0  0  0  0  0
   -2.2246    8.0761    0.8269 C   0  0  0  0  0  0  0  0  0  0  0  0
   -2.7633    9.2496    0.6458 C   0  0  0  0  0  0  0  0  0  0  0  0
   -2.3966    3.1775    1.1773 C   0  0  0  0  0  0  0  0  0  0  0  0
   -0.4150   -0.1305    0.5498 C   0  0  0  0  0  0  0  0  0  0  0  0
    0.3286    0.9277    0.8723 N   0  0  0  0  0  0  0  0  0  0  0  0
   -2.4682   -3.7389   -0.3316 C   0  0  0  0  0  0  0  0  0  0  0  0
   -2.4932   -4.6627    0.6709 C   0  0  0  0  0  0  0  0  0  0  0  0
   -1.6779   -4.3164    2.1747 Cl  0  0  0  0  0  0  0  0  0  0  0  0
   -3.1669   -5.8839    0.4972 C   0  0  0  0  0  0  0  0  0  0  0  0
   -3.1614   -6.7836    1.5436 O   0  0  0  0  0  0  0  0  0  0  0  0
   -3.7950   -8.0412    1.5088 C   0  0  0  0  0  0  0  0  0  0  0  0
   -3.8054   -6.1469   -0.6951 C   0  0  0  0  0  0  0  0  0  0  0  0
   -3.7791   -5.2141   -1.7050 C   0  0  0  0  0  0  0  0  0  0  0  0
   -4.4074   -5.4372   -2.9198 O   0  0  0  0  0  0  0  0  0  0  0  0
   -5.0910   -6.6618   -3.1106 C   0  0  0  0  0  0  0  0  0  0  0  0
   -3.0979   -4.0018   -1.5034 C   0  0  0  0  0  0  0  0  0  0  0  0
   -3.0646   -2.8213   -2.7888 Cl  0  0  0  0  0  0  0  0  0  0  0  0
    7.4668   -1.1779   -0.3760 H   0  0  0  0  0  0  0  0  0  0  0  0
    9.2403   -1.2496   -0.5451 H   0  0  0  0  0  0  0  0  0  0  0  0
    8.2794   -0.4841   -1.8457 H   0  0  0  0  0  0  0  0  0  0  0  0
    9.5846    1.0303   -0.3146 H   0  0  0  0  0  0  0  0  0  0  0  0
    8.3806    0.6539    0.9946 H   0  0  0  0  0  0  0  0  0  0  0  0
    7.9732    2.6693   -0.2988 H   0  0  0  0  0  0  0  0  0  0  0  0
    5.9490    0.5137   -0.6372 H   0  0  0  0  0  0  0  0  0  0  0  0
    5.7292    2.2604   -0.9714 H   0  0  0  0  0  0  0  0  0  0  0  0
    6.2943    2.7845    1.4117 H   0  0  0  0  0  0  0  0  0  0  0  0
    6.5998    1.0809    1.7864 H   0  0  0  0  0  0  0  0  0  0  0  0
    4.3974    1.7137    2.5205 H   0  0  0  0  0  0  0  0  0  0  0  0
    4.2115    0.4967    1.2670 H   0  0  0  0  0  0  0  0  0  0  0  0
    3.9975    3.5252    0.7476 H   0  0  0  0  0  0  0  0  0  0  0  0
    3.8031    2.2789   -0.4885 H   0  0  0  0  0  0  0  0  0  0  0  0
    1.8183    2.9832    1.4833 H   0  0  0  0  0  0  0  0  0  0  0  0
    2.0230   -1.7186   -1.1518 H   0  0  0  0  0  0  0  0  0  0  0  0
   -0.5267   -2.3520   -1.8063 H   0  0  0  0  0  0  0  0  0  0  0  0
    0.1375   -3.2395   -0.4413 H   0  0  0  0  0  0  0  0  0  0  0  0
   -1.5161    1.1394    2.4720 H   0  0  0  0  0  0  0  0  0  0  0  0
   -3.0725    0.3165    2.4656 H   0  0  0  0  0  0  0  0  0  0  0  0
   -4.4275    0.7948    0.0602 H   0  0  0  0  0  0  0  0  0  0  0  0
   -5.3611    2.6979   -1.0844 H   0  0  0  0  0  0  0  0  0  0  0  0
   -4.4502    4.9244   -0.8416 H   0  0  0  0  0  0  0  0  0  0  0  0
   -1.3428    5.6198    1.1424 H   0  0  0  0  0  0  0  0  0  0  0  0
   -1.2137    8.0091    1.1900 H   0  0  0  0  0  0  0  0  0  0  0  0
   -2.2044   10.1689    0.8581 H   0  0  0  0  0  0  0  0  0  0  0  0
   -3.7766    9.4103    0.2879 H   0  0  0  0  0  0  0  0  0  0  0  0
   -1.5282    3.3838    1.8214 H   0  0  0  0  0  0  0  0  0  0  0  0
   -3.4514   -8.5860    2.4363 H   0  0  0  0  0  0  0  0  0  0  0  0
   -4.8881   -7.9966    1.4553 H   0  0  0  0  0  0  0  0  0  0  0  0
   -3.3711   -8.6620    0.6662 H   0  0  0  0  0  0  0  0  0  0  0  0
   -4.3242   -7.0910   -0.8192 H   0  0  0  0  0  0  0  0  0  0  0  0
   -5.7933   -6.8724   -2.2878 H   0  0  0  0  0  0  0  0  0  0  0  0
   -5.6997   -6.5303   -4.0290 H   0  0  0  0  0  0  0  0  0  0  0  0
   -4.3700   -7.4982   -3.2776 H   0  0  0  0  0  0  0  0  0  0  0  0
  1  2  1  0
  2  3  1  0
  3  4  1  0
  4  5  1  0
  5  6  1  0
  6  7  1  0
  7  8  1  0
  8  9  1  0
  9 10  2  0
 10 11  1  0
 11 12  2  0
 12 13  1  0
 13 14  1  0
 14 15  1  0
 15 16  2  0
 15 17  1  0
 17 18  1  0
 18 19  1  0
 19 20  2  0
 20 21  1  0
 21 22  2  0
 22 23  1  0
 23 24  1  0
 24 25  1  0
 25 26  2  0
 25 27  1  0
 27 28  2  3
 23 29  2  0
 17 30  1  0
 30 31  2  0
 14 32  1  0
 32 33  2  0
 33 34  1  0
 33 35  1  0
 35 36  1  0
 36 37  1  0
 35 38  2  0
 38 39  1  0
 39 40  1  0
 40 41  1  0
 39 42  2  0
 42 43  1  0
 31  9  1  0
 42 32  1  0
 30 12  1  0
 29 19  1  0
  1 44  1  0
  1 45  1  0
  1 46  1  0
  2 47  1  0
  2 48  1  0
  3 49  1  0
  4 50  1  0
  4 51  1  0
  5 52  1  0
  5 53  1  0
  6 54  1  0
  6 55  1  0
  7 56  1  0
  7 57  1  0
  8 58  1  0
 11 59  1  0
 13 60  1  0
 13 61  1  0
 18 62  1  0
 18 63  1  0
 20 64  1  0
 21 65  1  0
 22 66  1  0
 24 67  1  0
 27 68  1  0
 28 69  1  0
 28 70  1  0
 29 71  1  0
 37 72  1  0
 37 73  1  0
 37 74  1  0
 38 75  1  0
 41 76  1  0
 41 77  1  0
 41 78  1  0
M  END
$$$$
[H]c1nc2c([H])c([H])c(N(c3c(Cl)c(OC([H])([H])[H])c([H])c(OC([H])([H])[H])c3Cl)C([H])([H])c3nc([H])c([H])n3[H])nc2c([H])c1-c1c([H])nn(C([H])([H])[H])c1[H]
     RDKit          3D

 56 60  0  0  0  0  0  0  0  0999 V2000
   -5.2141   -3.9107    2.4410 C   0  0  0  0  0  0  0  0  0  0  0  0
   -4.0079   -3.6774    1.7342 O   0  0  0  0  0  0  0  0  0  0  0  0
   -3.7296   -2.3680    1.3421 C   0  0  0  0  0  0  0  0  0  0  0  0
   -4.5972   -1.3171    1.6284 C   0  0  0  0  0  0  0  0  0  0  0  0
   -4.3173   -0.0288    1.2401 C   0  0  0  0  0  0  0  0  0  0  0  0
   -5.1723    1.0218    1.5193 O   0  0  0  0  0  0  0  0  0  0  0  0
   -6.3788    0.8980    2.2062 C   0  0  0  0  0  0  0  0  0  0  0  0
   -3.1380    0.2553    0.5395 C   0  0  0  0  0  0  0  0  0  0  0  0
   -2.7453    1.8912    0.0841 Cl  0  0  0  0  0  0  0  0  0  0  0  0
   -2.2733   -0.7590    0.2465 C   0  0  0  0  0  0  0  0  0  0  0  0
   -1.0877   -0.5537   -0.4920 N   0  0  0  0  0  0  0  0  0  0  0  0
   -0.9815   -0.7396   -1.8975 C   0  0  0  0  0  0  0  0  0  0  0  0
   -1.8822    0.0689   -2.7454 C   0  0  0  0  0  0  0  0  0  0  0  0
   -1.5856    1.2077   -3.4083 N   0  0  0  0  0  0  0  0  0  0  0  0
   -2.6666    1.6127   -4.0667 C   0  0  0  0  0  0  0  0  0  0  0  0
   -3.6780    0.7239   -3.8272 C   0  0  0  0  0  0  0  0  0  0  0  0
   -3.1688   -0.2084   -3.0166 N   0  0  0  0  0  0  0  0  0  0  0  0
    0.0797   -0.1279    0.2486 C   0  0  0  0  0  0  0  0  0  0  0  0
    0.0200    0.0644    1.6102 C   0  0  0  0  0  0  0  0  0  0  0  0
    1.1061    0.4690    2.3567 C   0  0  0  0  0  0  0  0  0  0  0  0
    2.2864    0.6775    1.6570 C   0  0  0  0  0  0  0  0  0  0  0  0
    3.3790    1.0743    2.3423 N   0  0  0  0  0  0  0  0  0  0  0  0
    4.5178    1.2764    1.6736 C   0  0  0  0  0  0  0  0  0  0  0  0
    4.6426    1.0996    0.2999 C   0  0  0  0  0  0  0  0  0  0  0  0
    3.5462    0.6994   -0.4003 C   0  0  0  0  0  0  0  0  0  0  0  0
    2.3598    0.4883    0.2925 C   0  0  0  0  0  0  0  0  0  0  0  0
    1.2477    0.0885   -0.3778 N   0  0  0  0  0  0  0  0  0  0  0  0
    5.9332    1.3471   -0.3366 C   0  0  0  0  0  0  0  0  0  0  0  0
    6.8595    2.2786    0.0771 C   0  0  0  0  0  0  0  0  0  0  0  0
    7.9046    2.1804   -0.7832 N   0  0  0  0  0  0  0  0  0  0  0  0
    7.7047    1.2684   -1.6935 N   0  0  0  0  0  0  0  0  0  0  0  0
    8.6056    0.8975   -2.7657 C   0  0  0  0  0  0  0  0  0  0  0  0
    6.4849    0.7337   -1.4393 C   0  0  0  0  0  0  0  0  0  0  0  0
   -2.5803   -2.0657    0.6539 C   0  0  0  0  0  0  0  0  0  0  0  0
   -1.4758   -3.3631    0.2820 Cl  0  0  0  0  0  0  0  0  0  0  0  0
   -5.3823   -5.0221    2.5256 H   0  0  0  0  0  0  0  0  0  0  0  0
   -6.0434   -3.5452    1.7933 H   0  0  0  0  0  0  0  0  0  0  0  0
   -5.2086   -3.4337    3.4404 H   0  0  0  0  0  0  0  0  0  0  0  0
   -5.4939   -1.5673    2.1674 H   0  0  0  0  0  0  0  0  0  0  0  0
   -6.2762    0.1815    3.0401 H   0  0  0  0  0  0  0  0  0  0  0  0
   -6.6209    1.9122    2.6380 H   0  0  0  0  0  0  0  0  0  0  0  0
   -7.2056    0.6029    1.5108 H   0  0  0  0  0  0  0  0  0  0  0  0
    0.0955   -0.6062   -2.2097 H   0  0  0  0  0  0  0  0  0  0  0  0
   -1.1660   -1.8292   -2.1541 H   0  0  0  0  0  0  0  0  0  0  0  0
   -2.7907    2.4978   -4.7083 H   0  0  0  0  0  0  0  0  0  0  0  0
   -4.6867    0.7978   -4.2364 H   0  0  0  0  0  0  0  0  0  0  0  0
   -3.7123   -1.0456   -2.6451 H   0  0  0  0  0  0  0  0  0  0  0  0
   -0.9367   -0.1143    2.1139 H   0  0  0  0  0  0  0  0  0  0  0  0
    1.0442    0.6171    3.4337 H   0  0  0  0  0  0  0  0  0  0  0  0
    5.3987    1.5942    2.2119 H   0  0  0  0  0  0  0  0  0  0  0  0
    3.6077    0.5525   -1.4679 H   0  0  0  0  0  0  0  0  0  0  0  0
    6.7951    2.9675    0.9186 H   0  0  0  0  0  0  0  0  0  0  0  0
    8.8814   -0.1916   -2.6548 H   0  0  0  0  0  0  0  0  0  0  0  0
    9.5593    1.4462   -2.6425 H   0  0  0  0  0  0  0  0  0  0  0  0
    8.1396    1.0288   -3.7559 H   0  0  0  0  0  0  0  0  0  0  0  0
    6.0045   -0.0465   -1.9968 H   0  0  0  0  0  0  0  0  0  0  0  0
  1  2  1  0
  2  3  1  0
  3  4  2  0
  4  5  1  0
  5  6  1  0
  6  7  1  0
  5  8  2  0
  8  9  1  0
  8 10  1  0
 10 11  1  0
 11 12  1  0
 12 13  1  0
 13 14  2  0
 14 15  1  0
 15 16  2  0
 16 17  1  0
 11 18  1  0
 18 19  2  0
 19 20  1  0
 20 21  2  0
 21 22  1  0
 22 23  2  0
 23 24  1  0
 24 25  2  0
 25 26  1  0
 26 27  2  0
 24 28  1  0
 28 29  1  0
 29 30  2  0
 30 31  1  0
 31 32  1  0
 31 33  1  0
 10 34  2  0
 34 35  1  0
 34  3  1  0
 17 13  1  0
 27 18  1  0
 33 28  2  0
 26 21  1  0
  1 36  1  0
  1 37  1  0
  1 38  1  0
  4 39  1  0
  7 40  1  0
  7 41  1  0
  7 42  1  0
 12 43  1  0
 12 44  1  0
 15 45  1  0
 16 46  1  0
 17 47  1  0
 19 48  1  0
 20 49  1  0
 23 50  1  0
 25 51  1  0
 29 52  1  0
 32 53  1  0
 32 54  1  0
 32 55  1  0
 33 56  1  0
M  END
$$$$
[H]c1nc(N([H])[H])c(-c2nn(-c3c([H])c([H])c([H])c(C(=O)N([H])C([H])([H])[H])c3[H])c(=O)c([H])c2[H])c([H])c1-c1c([H])nn(C2([H])C([H])([H])C([H])([H])N(C([H])([H])C([H])([H])OC([H])([H])[H])C([H])([H])C2([H])[H])c1[H]
     RDKit          3D

 71 75  0  0  0  0  0  0  0  0999 V2000
  -11.7374   -0.9851   -0.9908 C   0  0  0  0  0  0  0  0  0  0  0  0
  -10.8767   -0.4358    0.0594 N   0  0  0  0  0  0  0  0  0  0  0  0
   -9.4880   -0.3010   -0.1008 C   0  0  0  0  0  0  0  0  0  0  0  0
   -8.9557   -0.6585   -1.1750 O   0  0  0  0  0  0  0  0  0  0  0  0
   -8.6579    0.2445    0.9531 C   0  0  0  0  0  0  0  0  0  0  0  0
   -9.1386    0.5338    2.1947 C   0  0  0  0  0  0  0  0  0  0  0  0
   -8.2620    1.0576    3.1364 C   0  0  0  0  0  0  0  0  0  0  0  0
   -6.9333    1.2898    2.8509 C   0  0  0  0  0  0  0  0  0  0  0  0
   -6.4269    1.0037    1.6002 C   0  0  0  0  0  0  0  0  0  0  0  0
   -7.3001    0.4883    0.6816 C   0  0  0  0  0  0  0  0  0  0  0  0
   -5.0505    1.2383    1.2827 N   0  0  0  0  0  0  0  0  0  0  0  0
   -4.2441    0.2613    0.9125 N   0  0  0  0  0  0  0  0  0  0  0  0
   -2.9361    0.4478    0.6058 C   0  0  0  0  0  0  0  0  0  0  0  0
   -2.4790    1.7419    0.7024 C   0  0  0  0  0  0  0  0  0  0  0  0
   -3.2968    2.7969    1.0884 C   0  0  0  0  0  0  0  0  0  0  0  0
   -4.6131    2.5143    1.3814 C   0  0  0  0  0  0  0  0  0  0  0  0
   -5.4210    3.4274    1.7412 O   0  0  0  0  0  0  0  0  0  0  0  0
   -2.0815   -0.6517    0.2042 C   0  0  0  0  0  0  0  0  0  0  0  0
   -0.7542   -0.4954   -0.1099 C   0  0  0  0  0  0  0  0  0  0  0  0
    0.0454   -1.5796   -0.4934 C   0  0  0  0  0  0  0  0  0  0  0  0
   -0.5831   -2.8050   -0.5349 C   0  0  0  0  0  0  0  0  0  0  0  0
   -1.8798   -2.9534   -0.2275 N   0  0  0  0  0  0  0  0  0  0  0  0
   -2.6434   -1.9284    0.1373 C   0  0  0  0  0  0  0  0  0  0  0  0
   -4.0307   -2.0776    0.4686 N   0  0  0  0  0  0  0  0  0  0  0  0
    1.4518   -1.3958   -0.8209 C   0  0  0  0  0  0  0  0  0  0  0  0
    2.1434   -2.1562   -1.7365 C   0  0  0  0  0  0  0  0  0  0  0  0
    3.4104   -1.6878   -1.7639 N   0  0  0  0  0  0  0  0  0  0  0  0
    3.5631   -0.6760   -0.9202 N   0  0  0  0  0  0  0  0  0  0  0  0
    2.3678   -0.4877   -0.3358 C   0  0  0  0  0  0  0  0  0  0  0  0
    4.7659    0.0901   -0.6607 C   0  0  0  0  0  0  0  0  0  0  0  0
    5.2082    0.8433   -1.8741 C   0  0  0  0  0  0  0  0  0  0  0  0
    6.7114    0.6847   -2.0763 C   0  0  0  0  0  0  0  0  0  0  0  0
    7.3684    0.8980   -0.7990 N   0  0  0  0  0  0  0  0  0  0  0  0
    8.8162    1.0314   -1.0040 C   0  0  0  0  0  0  0  0  0  0  0  0
    9.4430    1.2527    0.3347 C   0  0  0  0  0  0  0  0  0  0  0  0
   10.8063    1.4056    0.3335 O   0  0  0  0  0  0  0  0  0  0  0  0
   11.4881    0.3191   -0.1696 C   0  0  0  0  0  0  0  0  0  0  0  0
    7.1659   -0.2859    0.0074 C   0  0  0  0  0  0  0  0  0  0  0  0
    5.8500   -0.9220   -0.3254 C   0  0  0  0  0  0  0  0  0  0  0  0
  -11.2208   -0.8278   -1.9399 H   0  0  0  0  0  0  0  0  0  0  0  0
  -11.9852   -2.0374   -0.7999 H   0  0  0  0  0  0  0  0  0  0  0  0
  -12.6821   -0.4198   -1.0180 H   0  0  0  0  0  0  0  0  0  0  0  0
  -11.3221   -0.1384    0.9474 H   0  0  0  0  0  0  0  0  0  0  0  0
  -10.1859    0.3690    2.4808 H   0  0  0  0  0  0  0  0  0  0  0  0
   -8.6673    1.2773    4.1094 H   0  0  0  0  0  0  0  0  0  0  0  0
   -6.3166    1.6973    3.6338 H   0  0  0  0  0  0  0  0  0  0  0  0
   -6.9293    0.2567   -0.3018 H   0  0  0  0  0  0  0  0  0  0  0  0
   -1.4592    1.9832    0.4791 H   0  0  0  0  0  0  0  0  0  0  0  0
   -2.9346    3.8128    1.1635 H   0  0  0  0  0  0  0  0  0  0  0  0
   -0.2810    0.4563   -0.0744 H   0  0  0  0  0  0  0  0  0  0  0  0
    0.0252   -3.6495   -0.8299 H   0  0  0  0  0  0  0  0  0  0  0  0
   -4.7887   -2.0071   -0.2301 H   0  0  0  0  0  0  0  0  0  0  0  0
   -4.2836   -2.2679    1.4730 H   0  0  0  0  0  0  0  0  0  0  0  0
    1.8141   -2.9782   -2.3503 H   0  0  0  0  0  0  0  0  0  0  0  0
    2.0947    0.2535    0.4165 H   0  0  0  0  0  0  0  0  0  0  0  0
    4.5740    0.7628    0.2147 H   0  0  0  0  0  0  0  0  0  0  0  0
    4.7144    0.3780   -2.7650 H   0  0  0  0  0  0  0  0  0  0  0  0
    4.9246    1.9192   -1.8486 H   0  0  0  0  0  0  0  0  0  0  0  0
    6.9420   -0.3384   -2.4233 H   0  0  0  0  0  0  0  0  0  0  0  0
    7.0808    1.3991   -2.8481 H   0  0  0  0  0  0  0  0  0  0  0  0
    9.1200    0.0263   -1.4091 H   0  0  0  0  0  0  0  0  0  0  0  0
    9.0635    1.7810   -1.7544 H   0  0  0  0  0  0  0  0  0  0  0  0
    9.2294    0.3299    0.9439 H   0  0  0  0  0  0  0  0  0  0  0  0
    9.0060    2.1119    0.8815 H   0  0  0  0  0  0  0  0  0  0  0  0
   11.2852   -0.6224    0.4141 H   0  0  0  0  0  0  0  0  0  0  0  0
   11.1317    0.1217   -1.1981 H   0  0  0  0  0  0  0  0  0  0  0  0
   12.5784    0.5347   -0.1445 H   0  0  0  0  0  0  0  0  0  0  0  0
    7.2326   -0.0002    1.0842 H   0  0  0  0  0  0  0  0  0  0  0  0
    7.9925   -0.9921   -0.2273 H   0  0  0  0  0  0  0  0  0  0  0  0
    5.9300   -1.6033   -1.1944 H   0  0  0  0  0  0  0  0  0  0  0  0
    5.5020   -1.5027    0.5570 H   0  0  0  0  0  0  0  0  0  0  0  0
  1  2  1  0
  2  3  1  0
  3  4  2  0
  3  5  1  0
  5  6  2  0
  6  7  1  0
  7  8  2  0
  8  9  1  0
  9 10  2  0
  9 11  1  0
 11 12  1  0
 12 13  2  0
 13 14  1  0
 14 15  2  0
 15 16  1  0
 16 17  2  0
 13 18  1  0
 18 19  2  0
 19 20  1  0
 20 21  2  0
 21 22  1  0
 22 23  2  0
 23 24  1  0
 20 25  1  0
 25 26  1  0
 26 27  2  0
 27 28  1  0
 28 29  1  0
 28 30  1  0
 30 31  1  0
 31 32  1  0
 32 33  1  0
 33 34  1  0
 34 35  1  0
 35 36  1  0
 36 37  1  0
 33 38  1  0
 38 39  1  0
 10  5  1  0
 16 11  1  0
 23 18  1  0
 29 25  2  0
 39 30  1  0
  1 40  1  0
  1 41  1  0
  1 42  1  0
  2 43  1  0
  6 44  1  0
  7 45  1  0
  8 46  1  0
 10 47  1  0
 14 48  1  0
 15 49  1  0
 19 50  1  0
 21 51  1  0
 24 52  1  0
 24 53  1  0
 26 54  1  0
 29 55  1  0
 30 56  1  0
 31 57  1  0
 31 58  1  0
 32 59  1  0
 32 60  1  0
 34 61  1  0
 34 62  1  0
 35 63  1  0
 35 64  1  0
 37 65  1  0
 37 66  1  0
 37 67  1  0
 38 68  1  0
 38 69  1  0
 39 70  1  0
 39 71  1  0
M  END
$$$$
[H]C([H])=C([H])C(=O)N1C([H])([H])C([H])(C([H])([H])n2nc(C#Cc3c([H])c(OC([H])([H])[H])c([H])c(OC([H])([H])[H])c3[H])c3c(N([H])[H])nc([H])nc32)C1([H])[H]
     RDKit          3D

 53 56  0  0  0  0  0  0  0  0999 V2000
    4.1972    3.7342   -3.1061 C   0  0  0  0  0  0  0  0  0  0  0  0
    5.2908    3.1741   -2.4028 O   0  0  0  0  0  0  0  0  0  0  0  0
    5.1027    2.0854   -1.5653 C   0  0  0  0  0  0  0  0  0  0  0  0
    6.1865    1.5529   -0.8867 C   0  0  0  0  0  0  0  0  0  0  0  0
    6.0284    0.4725   -0.0490 C   0  0  0  0  0  0  0  0  0  0  0  0
    7.1300   -0.0432    0.6200 O   0  0  0  0  0  0  0  0  0  0  0  0
    6.9950   -1.1540    1.4876 C   0  0  0  0  0  0  0  0  0  0  0  0
    4.7657   -0.0645    0.0964 C   0  0  0  0  0  0  0  0  0  0  0  0
    3.6634    0.4336   -0.5587 C   0  0  0  0  0  0  0  0  0  0  0  0
    3.8592    1.5195   -1.3921 C   0  0  0  0  0  0  0  0  0  0  0  0
    2.3447   -0.1552   -0.3842 C   0  0  0  0  0  0  0  0  0  0  0  0
    1.2599   -0.6577   -0.2268 C   0  0  0  0  0  0  0  0  0  0  0  0
   -0.0300   -1.2739   -0.0204 C   0  0  0  0  0  0  0  0  0  0  0  0
   -1.1562   -1.1489   -0.7098 N   0  0  0  0  0  0  0  0  0  0  0  0
   -2.1143   -1.8948   -0.1784 N   0  0  0  0  0  0  0  0  0  0  0  0
   -3.4956   -2.0519   -0.6167 C   0  0  0  0  0  0  0  0  0  0  0  0
   -4.4171   -1.0546    0.0176 C   0  0  0  0  0  0  0  0  0  0  0  0
   -4.1189    0.3903   -0.2381 C   0  0  0  0  0  0  0  0  0  0  0  0
   -5.5425    0.6230   -0.4230 N   0  0  0  0  0  0  0  0  0  0  0  0
   -5.6480   -0.7550   -0.8264 C   0  0  0  0  0  0  0  0  0  0  0  0
   -6.4278    1.7054   -0.2760 C   0  0  0  0  0  0  0  0  0  0  0  0
   -7.6455    1.5327   -0.5381 O   0  0  0  0  0  0  0  0  0  0  0  0
   -5.9205    2.9930    0.1727 C   0  0  0  0  0  0  0  0  0  0  0  0
   -6.7241    4.0358    0.3230 C   0  0  0  0  0  0  0  0  0  0  0  0
   -1.6173   -2.5434    0.9046 C   0  0  0  0  0  0  0  0  0  0  0  0
   -2.1765   -3.4154    1.7876 N   0  0  0  0  0  0  0  0  0  0  0  0
   -1.4232   -3.9117    2.7902 C   0  0  0  0  0  0  0  0  0  0  0  0
   -0.1350   -3.5351    2.8972 N   0  0  0  0  0  0  0  0  0  0  0  0
    0.4459   -2.6894    2.0587 C   0  0  0  0  0  0  0  0  0  0  0  0
    1.8016   -2.2669    2.1370 N   0  0  0  0  0  0  0  0  0  0  0  0
   -0.2985   -2.1519    1.0062 C   0  0  0  0  0  0  0  0  0  0  0  0
    4.5423    4.3594   -3.9595 H   0  0  0  0  0  0  0  0  0  0  0  0
    3.6068    2.9021   -3.5871 H   0  0  0  0  0  0  0  0  0  0  0  0
    3.4947    4.2699   -2.4418 H   0  0  0  0  0  0  0  0  0  0  0  0
    7.1583    2.0100   -1.0340 H   0  0  0  0  0  0  0  0  0  0  0  0
    7.9669   -1.2219    2.0478 H   0  0  0  0  0  0  0  0  0  0  0  0
    6.8837   -2.0762    0.9121 H   0  0  0  0  0  0  0  0  0  0  0  0
    6.1992   -0.9877    2.2314 H   0  0  0  0  0  0  0  0  0  0  0  0
    4.6259   -0.9280    0.7627 H   0  0  0  0  0  0  0  0  0  0  0  0
    3.0005    1.9149   -1.9084 H   0  0  0  0  0  0  0  0  0  0  0  0
   -3.8311   -3.0602   -0.3807 H   0  0  0  0  0  0  0  0  0  0  0  0
   -3.5467   -1.8721   -1.7307 H   0  0  0  0  0  0  0  0  0  0  0  0
   -4.6501   -1.2400    1.0933 H   0  0  0  0  0  0  0  0  0  0  0  0
   -3.7495    0.9415    0.6421 H   0  0  0  0  0  0  0  0  0  0  0  0
   -3.5668    0.6096   -1.1726 H   0  0  0  0  0  0  0  0  0  0  0  0
   -6.5628   -1.2831   -0.4888 H   0  0  0  0  0  0  0  0  0  0  0  0
   -5.4336   -0.9752   -1.8783 H   0  0  0  0  0  0  0  0  0  0  0  0
   -4.8761    3.1127    0.3896 H   0  0  0  0  0  0  0  0  0  0  0  0
   -7.7647    3.9050    0.1037 H   0  0  0  0  0  0  0  0  0  0  0  0
   -6.3452    4.9901    0.6561 H   0  0  0  0  0  0  0  0  0  0  0  0
   -1.8529   -4.6155    3.5131 H   0  0  0  0  0  0  0  0  0  0  0  0
    1.9893   -1.3199    2.5325 H   0  0  0  0  0  0  0  0  0  0  0  0
    2.5321   -2.9206    1.7975 H   0  0  0  0  0  0  0  0  0  0  0  0
  1  2  1  0
  2  3  1  0
  3  4  2  0
  4  5  1  0
  5  6  1  0
  6  7  1  0
  5  8  2  0
  8  9  1  0
  9 10  2  0
  9 11  1  0
 11 12  3  0
 12 13  1  0
 13 14  2  0
 14 15  1  0
 15 16  1  0
 16 17  1  0
 17 18  1  0
 18 19  1  0
 19 20  1  0
 19 21  1  0
 21 22  2  0
 21 23  1  0
 23 24  2  3
 15 25  1  0
 25 26  2  0
 26 27  1  0
 27 28  2  0
 28 29  1  0
 29 30  1  0
 29 31  2  0
 10  3  1  0
 31 13  1  0
 20 17  1  0
 31 25  1  0
  1 32  1  0
  1 33  1  0
  1 34  1  0
  4 35  1  0
  7 36  1  0
  7 37  1  0
  7 38  1  0
  8 39  1  0
 10 40  1  0
 16 41  1  0
 16 42  1  0
 17 43  1  0
 18 44  1  0
 18 45  1  0
 20 46  1  0
 20 47  1  0
 23 48  1  0
 24 49  1  0
 24 50  1  0
 27 51  1  0
 30 52  1  0
 30 53  1  0
M  END
$$$$
[H]c1nc2c([H])c([H])c(N(c3c([H])c(OC([H])([H])[H])c([H])c(OC([H])([H])[H])c3[H])C([H])([H])C3([H])OC([H])([H])C([H])([H])C3([H])[H])nc2c([H])c1-c1c([H])nn(C([H])([H])[H])c1[H]
     RDKit          3D

 60 64  0  0  0  0  0  0  0  0999 V2000
   -3.2394   -5.3726    1.0050 C   0  0  0  0  0  0  0  0  0  0  0  0
   -2.4644   -4.2265    1.1571 O   0  0  0  0  0  0  0  0  0  0  0  0
   -2.8358   -2.9875    0.6548 C   0  0  0  0  0  0  0  0  0  0  0  0
   -4.0376   -2.8761   -0.0329 C   0  0  0  0  0  0  0  0  0  0  0  0
   -4.4172   -1.6512   -0.5375 C   0  0  0  0  0  0  0  0  0  0  0  0
   -5.5875   -1.4704   -1.2247 O   0  0  0  0  0  0  0  0  0  0  0  0
   -6.5322   -2.4536   -1.5066 C   0  0  0  0  0  0  0  0  0  0  0  0
   -3.5932   -0.5380   -0.3541 C   0  0  0  0  0  0  0  0  0  0  0  0
   -2.3976   -0.6389    0.3279 C   0  0  0  0  0  0  0  0  0  0  0  0
   -2.0263   -1.8693    0.8303 C   0  0  0  0  0  0  0  0  0  0  0  0
   -1.5599    0.5396    0.4859 N   0  0  0  0  0  0  0  0  0  0  0  0
   -1.8705    1.4173    1.5722 C   0  0  0  0  0  0  0  0  0  0  0  0
   -1.1728    2.7357    1.5953 C   0  0  0  0  0  0  0  0  0  0  0  0
   -1.5983    3.6325    0.4413 C   0  0  0  0  0  0  0  0  0  0  0  0
   -2.1287    4.8780    1.1382 C   0  0  0  0  0  0  0  0  0  0  0  0
   -1.2970    4.7879    2.4343 C   0  0  0  0  0  0  0  0  0  0  0  0
   -1.5175    3.4609    2.7617 O   0  0  0  0  0  0  0  0  0  0  0  0
   -0.4703    0.7020   -0.3964 C   0  0  0  0  0  0  0  0  0  0  0  0
   -0.5985    1.1688   -1.6802 C   0  0  0  0  0  0  0  0  0  0  0  0
    0.4687    1.3114   -2.5443 C   0  0  0  0  0  0  0  0  0  0  0  0
    1.7277    0.9683   -2.1004 C   0  0  0  0  0  0  0  0  0  0  0  0
    2.8060    1.0769   -2.8925 N   0  0  0  0  0  0  0  0  0  0  0  0
    4.0312    0.7451   -2.4838 C   0  0  0  0  0  0  0  0  0  0  0  0
    4.2524    0.2692   -1.2158 C   0  0  0  0  0  0  0  0  0  0  0  0
    3.1452    0.1523   -0.3873 C   0  0  0  0  0  0  0  0  0  0  0  0
    1.8680    0.4969   -0.8097 C   0  0  0  0  0  0  0  0  0  0  0  0
    0.8000    0.3769   -0.0083 N   0  0  0  0  0  0  0  0  0  0  0  0
    5.5843   -0.0902   -0.7902 C   0  0  0  0  0  0  0  0  0  0  0  0
    6.7369    0.5251   -1.2294 C   0  0  0  0  0  0  0  0  0  0  0  0
    7.7741   -0.1018   -0.5987 N   0  0  0  0  0  0  0  0  0  0  0  0
    7.3201   -1.0595    0.1954 N   0  0  0  0  0  0  0  0  0  0  0  0
    8.0739   -1.9594    1.0373 C   0  0  0  0  0  0  0  0  0  0  0  0
    5.9797   -1.0711    0.0939 C   0  0  0  0  0  0  0  0  0  0  0  0
   -3.6368   -5.5135   -0.0209 H   0  0  0  0  0  0  0  0  0  0  0  0
   -4.0530   -5.5009    1.7277 H   0  0  0  0  0  0  0  0  0  0  0  0
   -2.5474   -6.2524    1.1676 H   0  0  0  0  0  0  0  0  0  0  0  0
   -4.6912   -3.7338   -0.1847 H   0  0  0  0  0  0  0  0  0  0  0  0
   -6.0679   -3.4602   -1.6583 H   0  0  0  0  0  0  0  0  0  0  0  0
   -7.2579   -2.4956   -0.6619 H   0  0  0  0  0  0  0  0  0  0  0  0
   -7.1434   -2.2216   -2.4117 H   0  0  0  0  0  0  0  0  0  0  0  0
   -3.9181    0.4100   -0.7604 H   0  0  0  0  0  0  0  0  0  0  0  0
   -1.1061   -1.9922    1.3671 H   0  0  0  0  0  0  0  0  0  0  0  0
   -1.6000    0.8776    2.5310 H   0  0  0  0  0  0  0  0  0  0  0  0
   -2.9782    1.5946    1.6338 H   0  0  0  0  0  0  0  0  0  0  0  0
   -0.0807    2.5845    1.6424 H   0  0  0  0  0  0  0  0  0  0  0  0
   -2.3766    3.1895   -0.1914 H   0  0  0  0  0  0  0  0  0  0  0  0
   -0.7276    3.8811   -0.1776 H   0  0  0  0  0  0  0  0  0  0  0  0
   -1.8747    5.7624    0.5461 H   0  0  0  0  0  0  0  0  0  0  0  0
   -3.1977    4.7740    1.3262 H   0  0  0  0  0  0  0  0  0  0  0  0
   -0.2534    5.0011    2.0990 H   0  0  0  0  0  0  0  0  0  0  0  0
   -1.6575    5.4726    3.1998 H   0  0  0  0  0  0  0  0  0  0  0  0
   -1.5790    1.4393   -2.0404 H   0  0  0  0  0  0  0  0  0  0  0  0
    0.3166    1.6905   -3.5644 H   0  0  0  0  0  0  0  0  0  0  0  0
    4.8701    0.8499   -3.1596 H   0  0  0  0  0  0  0  0  0  0  0  0
    3.2691   -0.2158    0.6139 H   0  0  0  0  0  0  0  0  0  0  0  0
    6.8722    1.3416   -1.9257 H   0  0  0  0  0  0  0  0  0  0  0  0
    9.0435   -1.4822    1.3454 H   0  0  0  0  0  0  0  0  0  0  0  0
    8.3333   -2.8511    0.4634 H   0  0  0  0  0  0  0  0  0  0  0  0
    7.5023   -2.2687    1.9339 H   0  0  0  0  0  0  0  0  0  0  0  0
    5.3165   -1.7596    0.6372 H   0  0  0  0  0  0  0  0  0  0  0  0
  1  2  1  0
  2  3  1  0
  3  4  2  0
  4  5  1  0
  5  6  1  0
  6  7  1  0
  5  8  2  0
  8  9  1  0
  9 10  2  0
  9 11  1  0
 11 12  1  0
 12 13  1  0
 13 14  1  0
 14 15  1  0
 15 16  1  0
 16 17  1  0
 11 18  1  0
 18 19  2  0
 19 20  1  0
 20 21  2  0
 21 22  1  0
 22 23  2  0
 23 24  1  0
 24 25  2  0
 25 26  1  0
 26 27  2  0
 24 28  1  0
 28 29  1  0
 29 30  2  0
 30 31  1  0
 31 32  1  0
 31 33  1  0
 10  3  1  0
 17 13  1  0
 27 18  1  0
 33 28  2  0
 26 21  1  0
  1 34  1  0
  1 35  1  0
  1 36  1  0
  4 37  1  0
  7 38  1  0
  7 39  1  0
  7 40  1  0
  8 41  1  0
 10 42  1  0
 12 43  1  0
 12 44  1  0
 13 45  1  0
 14 46  1  0
 14 47  1  0
 15 48  1  0
 15 49  1  0
 16 50  1  0
 16 51  1  0
 19 52  1  0
 20 53  1  0
 23 54  1  0
 25 55  1  0
 29 56  1  0
 32 57  1  0
 32 58  1  0
 32 59  1  0
 33 60  1  0
M  END
$$$$
[H]C([H])=C([H])C(=O)N1C([H])([H])C([H])([H])N(C([H])([H])C([H])([H])C([H])([H])n2c(=O)c(-c3c([H])c(OC([H])([H])[H])c([H])c(OC([H])([H])[H])c3Cl)c([H])c3c([H])nc(N([H])[C@]4([H])C([H])([H])OC([H])([H])C4([H])[H])nc32)C([H])([H])C1([H])[H]
     RDKit          3D

 76 80  0  0  0  0  0  0  0  0999 V2000
   -4.2865   -5.5985    3.0406 C   0  0  0  0  0  0  0  0  0  0  0  0
   -3.7731   -4.2963    2.8893 O   0  0  0  0  0  0  0  0  0  0  0  0
   -3.5081   -3.8159    1.6214 C   0  0  0  0  0  0  0  0  0  0  0  0
   -3.7336   -4.5951    0.5093 C   0  0  0  0  0  0  0  0  0  0  0  0
   -3.4766   -4.1340   -0.7881 C   0  0  0  0  0  0  0  0  0  0  0  0
   -3.6973   -4.9081   -1.9054 O   0  0  0  0  0  0  0  0  0  0  0  0
   -4.1940   -6.2144   -1.7583 C   0  0  0  0  0  0  0  0  0  0  0  0
   -2.9797   -2.8435   -0.9130 C   0  0  0  0  0  0  0  0  0  0  0  0
   -2.6480   -2.2321   -2.5334 Cl  0  0  0  0  0  0  0  0  0  0  0  0
   -2.7316   -2.0159    0.1528 C   0  0  0  0  0  0  0  0  0  0  0  0
   -3.0096   -2.5416    1.4023 C   0  0  0  0  0  0  0  0  0  0  0  0
   -2.2264   -0.6402    0.0155 C   0  0  0  0  0  0  0  0  0  0  0  0
   -2.8444    0.3124   -0.7503 C   0  0  0  0  0  0  0  0  0  0  0  0
   -2.3904    1.6133   -0.8458 C   0  0  0  0  0  0  0  0  0  0  0  0
   -3.0168    2.5797   -1.6005 C   0  0  0  0  0  0  0  0  0  0  0  0
   -2.4951    3.8136   -1.6043 N   0  0  0  0  0  0  0  0  0  0  0  0
   -1.3984    4.1463   -0.9122 C   0  0  0  0  0  0  0  0  0  0  0  0
   -0.8881    5.4491   -0.9054 N   0  0  0  0  0  0  0  0  0  0  0  0
   -1.5186    6.5184   -1.6264 C   0  0  1  0  0  0  0  0  0  0  0  0
   -2.8945    6.7970   -1.0492 C   0  0  0  0  0  0  0  0  0  0  0  0
   -2.6028    7.9438   -0.0841 C   0  0  0  0  0  0  0  0  0  0  0  0
   -1.7130    8.7171   -0.8402 O   0  0  0  0  0  0  0  0  0  0  0  0
   -0.7927    7.8367   -1.3809 C   0  0  0  0  0  0  0  0  0  0  0  0
   -0.7894    3.1724   -0.1712 N   0  0  0  0  0  0  0  0  0  0  0  0
   -1.2497    1.9302   -0.1204 C   0  0  0  0  0  0  0  0  0  0  0  0
   -0.6067    0.9962    0.6526 N   0  0  0  0  0  0  0  0  0  0  0  0
    0.5869    1.4258    1.3691 C   0  0  0  0  0  0  0  0  0  0  0  0
    1.7863    1.4566    0.4887 C   0  0  0  0  0  0  0  0  0  0  0  0
    2.2611    0.1930   -0.1207 C   0  0  0  0  0  0  0  0  0  0  0  0
    2.7628   -0.7312    0.8328 N   0  0  0  0  0  0  0  0  0  0  0  0
    4.0059   -0.3899    1.4181 C   0  0  0  0  0  0  0  0  0  0  0  0
    5.1980   -1.2144    1.1019 C   0  0  0  0  0  0  0  0  0  0  0  0
    5.1133   -2.2286    0.1252 N   0  0  0  0  0  0  0  0  0  0  0  0
    3.7955   -2.4755   -0.5073 C   0  0  0  0  0  0  0  0  0  0  0  0
    2.6868   -2.1101    0.4078 C   0  0  0  0  0  0  0  0  0  0  0  0
    6.1929   -3.0220   -0.2833 C   0  0  0  0  0  0  0  0  0  0  0  0
    5.8616   -3.8956   -1.2052 O   0  0  0  0  0  0  0  0  0  0  0  0
    7.5452   -3.0365    0.1245 C   0  0  0  0  0  0  0  0  0  0  0  0
    8.1991   -2.3271    0.9962 C   0  0  0  0  0  0  0  0  0  0  0  0
   -1.0772   -0.2459    0.7231 C   0  0  0  0  0  0  0  0  0  0  0  0
   -0.5633   -1.1581    1.4121 O   0  0  0  0  0  0  0  0  0  0  0  0
   -5.1647   -5.7886    2.3686 H   0  0  0  0  0  0  0  0  0  0  0  0
   -4.6947   -5.7629    4.0683 H   0  0  0  0  0  0  0  0  0  0  0  0
   -3.5157   -6.3380    2.7583 H   0  0  0  0  0  0  0  0  0  0  0  0
   -4.1229   -5.5826    0.6577 H   0  0  0  0  0  0  0  0  0  0  0  0
   -5.2722   -6.2008   -1.5291 H   0  0  0  0  0  0  0  0  0  0  0  0
   -3.6890   -6.7514   -0.9027 H   0  0  0  0  0  0  0  0  0  0  0  0
   -4.0078   -6.8372   -2.6672 H   0  0  0  0  0  0  0  0  0  0  0  0
   -2.8333   -1.9402    2.2792 H   0  0  0  0  0  0  0  0  0  0  0  0
   -3.7317    0.0299   -1.3093 H   0  0  0  0  0  0  0  0  0  0  0  0
   -3.8867    2.3618   -2.1662 H   0  0  0  0  0  0  0  0  0  0  0  0
   -0.0181    5.6589   -0.3609 H   0  0  0  0  0  0  0  0  0  0  0  0
   -1.6206    6.3389   -2.7122 H   0  0  0  0  0  0  0  0  0  0  0  0
   -3.3480    5.9429   -0.5288 H   0  0  0  0  0  0  0  0  0  0  0  0
   -3.5797    7.1645   -1.8441 H   0  0  0  0  0  0  0  0  0  0  0  0
   -3.5064    8.5525    0.0883 H   0  0  0  0  0  0  0  0  0  0  0  0
   -2.1476    7.5349    0.8193 H   0  0  0  0  0  0  0  0  0  0  0  0
    0.0148    7.6738   -0.6245 H   0  0  0  0  0  0  0  0  0  0  0  0
   -0.3348    8.2278   -2.2866 H   0  0  0  0  0  0  0  0  0  0  0  0
    0.6878    0.8335    2.2923 H   0  0  0  0  0  0  0  0  0  0  0  0
    0.3487    2.4755    1.7060 H   0  0  0  0  0  0  0  0  0  0  0  0
    2.6503    1.9130    1.0641 H   0  0  0  0  0  0  0  0  0  0  0  0
    1.5968    2.2253   -0.3192 H   0  0  0  0  0  0  0  0  0  0  0  0
    1.3704   -0.2721   -0.6335 H   0  0  0  0  0  0  0  0  0  0  0  0
    2.9914    0.4176   -0.9377 H   0  0  0  0  0  0  0  0  0  0  0  0
    4.2027    0.6867    1.1420 H   0  0  0  0  0  0  0  0  0  0  0  0
    3.8508   -0.3197    2.5395 H   0  0  0  0  0  0  0  0  0  0  0  0
    6.0002   -0.4960    0.7667 H   0  0  0  0  0  0  0  0  0  0  0  0
    5.5837   -1.6256    2.0919 H   0  0  0  0  0  0  0  0  0  0  0  0
    3.7657   -3.5513   -0.7708 H   0  0  0  0  0  0  0  0  0  0  0  0
    3.8023   -1.8994   -1.4459 H   0  0  0  0  0  0  0  0  0  0  0  0
    1.7158   -2.2862   -0.0682 H   0  0  0  0  0  0  0  0  0  0  0  0
    2.7070   -2.7277    1.3352 H   0  0  0  0  0  0  0  0  0  0  0  0
    8.2130   -3.8148   -0.4047 H   0  0  0  0  0  0  0  0  0  0  0  0
    7.7833   -1.5559    1.5922 H   0  0  0  0  0  0  0  0  0  0  0  0
    9.2993   -2.5184    1.1562 H   0  0  0  0  0  0  0  0  0  0  0  0
  1  2  1  0
  2  3  1  0
  3  4  2  0
  4  5  1  0
  5  6  1  0
  6  7  1  0
  5  8  2  0
  8  9  1  0
  8 10  1  0
 10 11  2  0
 10 12  1  0
 12 13  2  0
 13 14  1  0
 14 15  2  0
 15 16  1  0
 16 17  2  0
 17 18  1  0
 18 19  1  0
 19 20  1  0
 20 21  1  0
 21 22  1  0
 22 23  1  0
 17 24  1  0
 24 25  2  0
 25 26  1  0
 26 27  1  0
 27 28  1  0
 28 29  1  0
 29 30  1  0
 30 31  1  0
 31 32  1  0
 32 33  1  0
 33 34  1  0
 34 35  1  0
 33 36  1  0
 36 37  2  0
 36 38  1  0
 38 39  2  3
 26 40  1  0
 40 41  2  0
 11  3  1  0
 40 12  1  0
 25 14  1  0
 35 30  1  0
 23 19  1  0
  1 42  1  0
  1 43  1  0
  1 44  1  0
  4 45  1  0
  7 46  1  0
  7 47  1  0
  7 48  1  0
 11 49  1  0
 13 50  1  0
 15 51  1  0
 18 52  1  0
 19 53  1  6
 20 54  1  0
 20 55  1  0
 21 56  1  0
 21 57  1  0
 23 58  1  0
 23 59  1  0
 27 60  1  0
 27 61  1  0
 28 62  1  0
 28 63  1  0
 29 64  1  0
 29 65  1  0
 31 66  1  0
 31 67  1  0
 32 68  1  0
 32 69  1  0
 34 70  1  0
 34 71  1  0
 35 72  1  0
 35 73  1  0
 38 74  1  0
 39 75  1  0
 39 76  1  0
M  END
$$$$
[H]c1nc2c([H])c([H])/c(=N\c3c([H])c(OC([H])([H])[H])c([H])c(OC([H])([H])[H])c3[H])n(C([H])([H])C([H])([H])N([H])C([H])(C([H])([H])[H])C([H])([H])[H])c2c([H])c1-c1c([H])nn(C([H])([H])[H])c1[H]
     RDKit          3D

 63 66  0  0  0  0  0  0  0  0999 V2000
   -7.0587   -0.0249    2.4146 C   0  0  0  0  0  0  0  0  0  0  0  0
   -5.7130    0.2026    2.1395 O   0  0  0  0  0  0  0  0  0  0  0  0
   -5.1398   -0.0551    0.8785 C   0  0  0  0  0  0  0  0  0  0  0  0
   -5.8911   -0.5536   -0.1644 C   0  0  0  0  0  0  0  0  0  0  0  0
   -5.3319   -0.8077   -1.4038 C   0  0  0  0  0  0  0  0  0  0  0  0
   -6.1129   -1.3056   -2.4232 O   0  0  0  0  0  0  0  0  0  0  0  0
   -7.4776   -1.5497   -2.1865 C   0  0  0  0  0  0  0  0  0  0  0  0
   -3.9674   -0.5496   -1.5959 C   0  0  0  0  0  0  0  0  0  0  0  0
   -3.1892   -0.0516   -0.5745 C   0  0  0  0  0  0  0  0  0  0  0  0
   -3.8043    0.1814    0.6383 C   0  0  0  0  0  0  0  0  0  0  0  0
   -1.7924    0.2120   -0.7751 N   0  0  0  0  0  0  0  0  0  0  0  0
   -0.9210   -0.6889   -0.4161 C   0  0  0  0  0  0  0  0  0  0  0  0
   -1.3467   -1.8711    0.1455 C   0  0  0  0  0  0  0  0  0  0  0  0
   -0.4736   -2.8610    0.5466 C   0  0  0  0  0  0  0  0  0  0  0  0
    0.8757   -2.6431    0.3717 C   0  0  0  0  0  0  0  0  0  0  0  0
    1.7142   -3.6035    0.7632 N   0  0  0  0  0  0  0  0  0  0  0  0
    3.0262   -3.4231    0.6096 C   0  0  0  0  0  0  0  0  0  0  0  0
    3.5144   -2.2467    0.0475 C   0  0  0  0  0  0  0  0  0  0  0  0
    2.6491   -1.2521   -0.3581 C   0  0  0  0  0  0  0  0  0  0  0  0
    1.3012   -1.4521   -0.1938 C   0  0  0  0  0  0  0  0  0  0  0  0
    0.4010   -0.5000   -0.5764 N   0  0  0  0  0  0  0  0  0  0  0  0
    0.8722    0.7388   -1.1657 C   0  0  0  0  0  0  0  0  0  0  0  0
    1.1255    1.7832   -0.0921 C   0  0  0  0  0  0  0  0  0  0  0  0
    1.5858    3.0055   -0.6290 N   0  0  0  0  0  0  0  0  0  0  0  0
    1.8473    4.0506    0.2837 C   0  0  0  0  0  0  0  0  0  0  0  0
    0.5271    4.4062    0.9798 C   0  0  0  0  0  0  0  0  0  0  0  0
    2.8411    3.7313    1.3579 C   0  0  0  0  0  0  0  0  0  0  0  0
    4.9442   -2.0220   -0.1321 C   0  0  0  0  0  0  0  0  0  0  0  0
    5.8588   -3.0245   -0.3894 C   0  0  0  0  0  0  0  0  0  0  0  0
    7.0987   -2.4846   -0.5025 N   0  0  0  0  0  0  0  0  0  0  0  0
    6.9538   -1.1902   -0.3208 N   0  0  0  0  0  0  0  0  0  0  0  0
    8.0432   -0.2476   -0.3621 C   0  0  0  0  0  0  0  0  0  0  0  0
    5.6697   -0.8638   -0.0938 C   0  0  0  0  0  0  0  0  0  0  0  0
   -7.1929   -0.0121    3.5185 H   0  0  0  0  0  0  0  0  0  0  0  0
   -7.7540    0.6316    1.8754 H   0  0  0  0  0  0  0  0  0  0  0  0
   -7.2970   -1.0741    2.0760 H   0  0  0  0  0  0  0  0  0  0  0  0
   -6.9375   -0.7353    0.0376 H   0  0  0  0  0  0  0  0  0  0  0  0
   -7.5458   -2.4899   -1.5753 H   0  0  0  0  0  0  0  0  0  0  0  0
   -7.9912   -0.6960   -1.7073 H   0  0  0  0  0  0  0  0  0  0  0  0
   -7.9986   -1.7872   -3.1450 H   0  0  0  0  0  0  0  0  0  0  0  0
   -3.5282   -0.7469   -2.5619 H   0  0  0  0  0  0  0  0  0  0  0  0
   -3.2261    0.5772    1.4786 H   0  0  0  0  0  0  0  0  0  0  0  0
   -2.4149   -2.0822    0.3015 H   0  0  0  0  0  0  0  0  0  0  0  0
   -0.8628   -3.7829    0.9876 H   0  0  0  0  0  0  0  0  0  0  0  0
    3.7843   -4.1482    0.8979 H   0  0  0  0  0  0  0  0  0  0  0  0
    3.0514   -0.3541   -0.7872 H   0  0  0  0  0  0  0  0  0  0  0  0
    0.0075    1.1504   -1.7696 H   0  0  0  0  0  0  0  0  0  0  0  0
    1.6826    0.6275   -1.8854 H   0  0  0  0  0  0  0  0  0  0  0  0
    1.7989    1.3069    0.6436 H   0  0  0  0  0  0  0  0  0  0  0  0
    0.1600    1.9502    0.4288 H   0  0  0  0  0  0  0  0  0  0  0  0
    1.3467    3.2405   -1.5903 H   0  0  0  0  0  0  0  0  0  0  0  0
    2.2009    4.9614   -0.2348 H   0  0  0  0  0  0  0  0  0  0  0  0
    0.4188    3.6477    1.7895 H   0  0  0  0  0  0  0  0  0  0  0  0
    0.5388    5.4370    1.3472 H   0  0  0  0  0  0  0  0  0  0  0  0
   -0.2769    4.2353    0.2407 H   0  0  0  0  0  0  0  0  0  0  0  0
    2.3923    3.1724    2.1985 H   0  0  0  0  0  0  0  0  0  0  0  0
    3.1992    4.6945    1.7828 H   0  0  0  0  0  0  0  0  0  0  0  0
    3.7441    3.2130    0.9653 H   0  0  0  0  0  0  0  0  0  0  0  0
    5.6818   -4.0856   -0.4951 H   0  0  0  0  0  0  0  0  0  0  0  0
    8.7586   -0.4389    0.4654 H   0  0  0  0  0  0  0  0  0  0  0  0
    8.6286   -0.3600   -1.3059 H   0  0  0  0  0  0  0  0  0  0  0  0
    7.7323    0.7985   -0.2800 H   0  0  0  0  0  0  0  0  0  0  0  0
    5.2697    0.1099    0.0854 H   0  0  0  0  0  0  0  0  0  0  0  0
  1  2  1  0
  2  3  1  0
  3  4  2  0
  4  5  1  0
  5  6  1  0
  6  7  1  0
  5  8  2  0
  8  9  1  0
  9 10  2  0
  9 11  1  0
 11 12  2  0
 12 13  1  0
 13 14  2  0
 14 15  1  0
 15 16  2  0
 16 17  1  0
 17 18  2  0
 18 19  1  0
 19 20  2  0
 20 21  1  0
 21 22  1  0
 22 23  1  0
 23 24  1  0
 24 25  1  0
 25 26  1  0
 25 27  1  0
 18 28  1  0
 28 29  1  0
 29 30  2  0
 30 31  1  0
 31 32  1  0
 31 33  1  0
 10  3  1  0
 21 12  1  0
 33 28  2  0
 20 15  1  0
  1 34  1  0
  1 35  1  0
  1 36  1  0
  4 37  1  0
  7 38  1  0
  7 39  1  0
  7 40  1  0
  8 41  1  0
 10 42  1  0
 13 43  1  0
 14 44  1  0
 17 45  1  0
 19 46  1  0
 22 47  1  0
 22 48  1  0
 23 49  1  0
 23 50  1  0
 24 51  1  0
 25 52  1  0
 26 53  1  0
 26 54  1  0
 26 55  1  0
 27 56  1  0
 27 57  1  0
 27 58  1  0
 29 59  1  0
 32 60  1  0
 32 61  1  0
 32 62  1  0
 33 63  1  0
M  END
$$$$
[H]c1nc(N([H])[H])c(-c2nn(-c3c(Br)c(OC([H])([H])[H])c([H])c(OC([H])([H])[H])c3Br)c(=O)c([H])c2[H])nc1-c1c([H])nn(C([H])([H])[H])c1[H]
     RDKit          3D

 49 52  0  0  0  0  0  0  0  0999 V2000
   -7.0749    1.5329    1.5875 C   0  0  0  0  0  0  0  0  0  0  0  0
   -5.8477    0.8476    1.7362 O   0  0  0  0  0  0  0  0  0  0  0  0
   -4.9960    0.6588    0.6631 C   0  0  0  0  0  0  0  0  0  0  0  0
   -5.3567    1.1501   -0.5696 C   0  0  0  0  0  0  0  0  0  0  0  0
   -4.4975    0.9532   -1.6256 C   0  0  0  0  0  0  0  0  0  0  0  0
   -4.8485    1.4429   -2.8724 O   0  0  0  0  0  0  0  0  0  0  0  0
   -6.0836    2.1427   -3.0633 C   0  0  0  0  0  0  0  0  0  0  0  0
   -3.3206    0.2834   -1.4312 C   0  0  0  0  0  0  0  0  0  0  0  0
   -2.1286    0.0120   -2.9041 Br  0  0  0  0  0  0  0  0  0  0  0  0
   -2.9292   -0.2246   -0.1970 C   0  0  0  0  0  0  0  0  0  0  0  0
   -3.8075   -0.0143    0.8457 C   0  0  0  0  0  0  0  0  0  0  0  0
   -3.3268   -0.6873    2.5623 Br  0  0  0  0  0  0  0  0  0  0  0  0
   -1.6931   -0.9141   -0.0508 N   0  0  0  0  0  0  0  0  0  0  0  0
   -0.5338   -0.2876    0.0499 N   0  0  0  0  0  0  0  0  0  0  0  0
    0.6367   -0.8914    0.1867 C   0  0  0  0  0  0  0  0  0  0  0  0
    0.6369   -2.2840    0.2264 C   0  0  0  0  0  0  0  0  0  0  0  0
   -0.5486   -2.9854    0.1252 C   0  0  0  0  0  0  0  0  0  0  0  0
   -1.6982   -2.2552   -0.0131 C   0  0  0  0  0  0  0  0  0  0  0  0
   -2.7941   -2.8685   -0.1077 O   0  0  0  0  0  0  0  0  0  0  0  0
    1.8988   -0.1804    0.2953 C   0  0  0  0  0  0  0  0  0  0  0  0
    3.0749   -0.8079    0.4333 N   0  0  0  0  0  0  0  0  0  0  0  0
    4.2342   -0.1223    0.5321 C   0  0  0  0  0  0  0  0  0  0  0  0
    4.2504    1.2550    0.4945 C   0  0  0  0  0  0  0  0  0  0  0  0
    3.0713    1.8894    0.3560 N   0  0  0  0  0  0  0  0  0  0  0  0
    1.8994    1.1950    0.2562 C   0  0  0  0  0  0  0  0  0  0  0  0
    0.6655    1.8610    0.1113 N   0  0  0  0  0  0  0  0  0  0  0  0
    5.4930   -0.8488    0.6809 C   0  0  0  0  0  0  0  0  0  0  0  0
    5.6864   -2.2182    0.7392 C   0  0  0  0  0  0  0  0  0  0  0  0
    7.0007   -2.4338    0.8790 N   0  0  0  0  0  0  0  0  0  0  0  0
    7.6710   -1.3002    0.9151 N   0  0  0  0  0  0  0  0  0  0  0  0
    9.1188   -1.1281    1.0574 C   0  0  0  0  0  0  0  0  0  0  0  0
    6.7603   -0.3121    0.7946 C   0  0  0  0  0  0  0  0  0  0  0  0
   -6.9162    2.6043    1.2926 H   0  0  0  0  0  0  0  0  0  0  0  0
   -7.5819    1.5287    2.5751 H   0  0  0  0  0  0  0  0  0  0  0  0
   -7.7184    1.0170    0.8696 H   0  0  0  0  0  0  0  0  0  0  0  0
   -6.2924    1.6838   -0.7292 H   0  0  0  0  0  0  0  0  0  0  0  0
   -6.9287    1.4509   -2.8830 H   0  0  0  0  0  0  0  0  0  0  0  0
   -6.1606    2.5116   -4.1017 H   0  0  0  0  0  0  0  0  0  0  0  0
   -6.1180    3.0409   -2.3878 H   0  0  0  0  0  0  0  0  0  0  0  0
    1.5964   -2.7822    0.3387 H   0  0  0  0  0  0  0  0  0  0  0  0
   -0.5220   -4.0717    0.1589 H   0  0  0  0  0  0  0  0  0  0  0  0
    5.1995    1.7969    0.5758 H   0  0  0  0  0  0  0  0  0  0  0  0
    0.1125    2.0943    0.9496 H   0  0  0  0  0  0  0  0  0  0  0  0
    0.3128    2.1157   -0.8231 H   0  0  0  0  0  0  0  0  0  0  0  0
    4.8927   -2.9576    0.6794 H   0  0  0  0  0  0  0  0  0  0  0  0
    9.6606   -1.8185    0.3556 H   0  0  0  0  0  0  0  0  0  0  0  0
    9.4563   -1.3068    2.0804 H   0  0  0  0  0  0  0  0  0  0  0  0
    9.3864   -0.1063    0.7321 H   0  0  0  0  0  0  0  0  0  0  0  0
    7.0081    0.7389    0.7902 H   0  0  0  0  0  0  0  0  0  0  0  0
  1  2  1  0
  2  3  1  0
  3  4  2  0
  4  5  1  0
  5  6  1  0
  6  7  1  0
  5  8  2  0
  8  9  1  0
  8 10  1  0
 10 11  2  0
 11 12  1  0
 10 13  1  0
 13 14  1  0
 14 15  2  0
 15 16  1  0
 16 17  2  0
 17 18  1  0
 18 19  2  0
 15 20  1  0
 20 21  2  0
 21 22  1  0
 22 23  2  0
 23 24  1  0
 24 25  2  0
 25 26  1  0
 22 27  1  0
 27 28  1  0
 28 29  2  0
 29 30  1  0
 30 31  1  0
 30 32  1  0
 11  3  1  0
 18 13  1  0
 25 20  1  0
 32 27  2  0
  1 33  1  0
  1 34  1  0
  1 35  1  0
  4 36  1  0
  7 37  1  0
  7 38  1  0
  7 39  1  0
 16 40  1  0
 17 41  1  0
 23 42  1  0
 26 43  1  0
 26 44  1  0
 28 45  1  0
 31 46  1  0
 31 47  1  0
 31 48  1  0
 32 49  1  0
M  END
$$$$
[H]C([H])=C([H])C(=O)N1C([H])([H])C([H])([H])N(C([H])([H])C([H])([H])n2c(=O)c(-c3c(Cl)c(OC([H])([H])[H])c([H])c(OC([H])([H])[H])c3Cl)c([H])c3c([H])nc(N([H])C([H])([H])[H])nc32)C([H])([H])C1([H])[H]
     RDKit          3D

 65 68  0  0  0  0  0  0  0  0999 V2000
   -3.8349    6.5829    1.0895 C   0  0  0  0  0  0  0  0  0  0  0  0
   -2.7521    5.7099    0.6889 N   0  0  0  0  0  0  0  0  0  0  0  0
   -2.9048    4.2962    0.7064 C   0  0  0  0  0  0  0  0  0  0  0  0
   -4.0856    3.7745    1.1162 N   0  0  0  0  0  0  0  0  0  0  0  0
   -4.2602    2.4308    1.1279 C   0  0  0  0  0  0  0  0  0  0  0  0
   -3.1981    1.6312    0.7083 C   0  0  0  0  0  0  0  0  0  0  0  0
   -3.3995    0.2670    0.7070 C   0  0  0  0  0  0  0  0  0  0  0  0
   -2.3679   -0.5065    0.2740 C   0  0  0  0  0  0  0  0  0  0  0  0
   -2.4161   -1.9508    0.2244 C   0  0  0  0  0  0  0  0  0  0  0  0
   -2.0730   -2.6514    1.3540 C   0  0  0  0  0  0  0  0  0  0  0  0
   -1.7056   -1.9328    2.9099 Cl  0  0  0  0  0  0  0  0  0  0  0  0
   -1.9944   -4.0615    1.2910 C   0  0  0  0  0  0  0  0  0  0  0  0
   -1.6816   -4.8138    2.2865 O   0  0  0  0  0  0  0  0  0  0  0  0
   -1.3940   -5.7298    3.1448 C   0  0  0  0  0  0  0  0  0  0  0  0
   -2.2808   -4.6705    0.0402 C   0  0  0  0  0  0  0  0  0  0  0  0
   -2.6229   -3.8943   -1.0602 C   0  0  0  0  0  0  0  0  0  0  0  0
   -2.8953   -4.4466   -2.3113 O   0  0  0  0  0  0  0  0  0  0  0  0
   -2.8647   -5.8600   -2.4620 C   0  0  0  0  0  0  0  0  0  0  0  0
   -2.6971   -2.5329   -0.9853 C   0  0  0  0  0  0  0  0  0  0  0  0
   -3.1504   -1.5514   -2.3763 Cl  0  0  0  0  0  0  0  0  0  0  0  0
   -1.1580    0.0595   -0.1498 C   0  0  0  0  0  0  0  0  0  0  0  0
   -0.2048   -0.6731   -0.5508 O   0  0  0  0  0  0  0  0  0  0  0  0
   -0.9632    1.3832   -0.1451 N   0  0  0  0  0  0  0  0  0  0  0  0
    0.2187    1.9718   -0.7119 C   0  0  0  0  0  0  0  0  0  0  0  0
    1.4169    1.8259    0.1546 C   0  0  0  0  0  0  0  0  0  0  0  0
    2.5602    2.5256   -0.4915 N   0  0  0  0  0  0  0  0  0  0  0  0
    2.8267    1.9215   -1.7733 C   0  0  0  0  0  0  0  0  0  0  0  0
    4.3354    1.8736   -2.0301 C   0  0  0  0  0  0  0  0  0  0  0  0
    4.7390    0.8250   -1.0088 N   0  0  0  0  0  0  0  0  0  0  0  0
    4.5212    1.2814    0.3204 C   0  0  0  0  0  0  0  0  0  0  0  0
    3.6874    2.5251    0.3815 C   0  0  0  0  0  0  0  0  0  0  0  0
    5.1812   -0.3659   -1.5505 C   0  0  0  0  0  0  0  0  0  0  0  0
    5.0773   -0.4401   -2.8906 O   0  0  0  0  0  0  0  0  0  0  0  0
    5.7338   -1.5538   -1.0043 C   0  0  0  0  0  0  0  0  0  0  0  0
    6.0798   -2.0212    0.0693 C   0  0  0  0  0  0  0  0  0  0  0  0
   -1.9840    2.1659    0.2875 C   0  0  0  0  0  0  0  0  0  0  0  0
   -1.8988    3.5028    0.3099 N   0  0  0  0  0  0  0  0  0  0  0  0
   -3.6829    7.6239    0.7186 H   0  0  0  0  0  0  0  0  0  0  0  0
   -4.7621    6.2249    0.5923 H   0  0  0  0  0  0  0  0  0  0  0  0
   -4.0480    6.5428    2.1783 H   0  0  0  0  0  0  0  0  0  0  0  0
   -1.8578    6.1623    0.3955 H   0  0  0  0  0  0  0  0  0  0  0  0
   -5.1815    1.9575    1.4378 H   0  0  0  0  0  0  0  0  0  0  0  0
   -4.3657   -0.1558    1.0385 H   0  0  0  0  0  0  0  0  0  0  0  0
   -1.4674   -6.8170    2.8191 H   0  0  0  0  0  0  0  0  0  0  0  0
   -1.9936   -5.7033    4.1280 H   0  0  0  0  0  0  0  0  0  0  0  0
   -0.3279   -5.7107    3.5851 H   0  0  0  0  0  0  0  0  0  0  0  0
   -2.2178   -5.7251   -0.0116 H   0  0  0  0  0  0  0  0  0  0  0  0
   -3.1639   -6.4209   -1.5801 H   0  0  0  0  0  0  0  0  0  0  0  0
   -3.5443   -6.1491   -3.3331 H   0  0  0  0  0  0  0  0  0  0  0  0
   -1.8563   -6.2359   -2.7852 H   0  0  0  0  0  0  0  0  0  0  0  0
    0.3954    1.4021   -1.6827 H   0  0  0  0  0  0  0  0  0  0  0  0
    0.0902    3.0421   -0.9912 H   0  0  0  0  0  0  0  0  0  0  0  0
    1.2488    2.3460    1.0991 H   0  0  0  0  0  0  0  0  0  0  0  0
    1.7480    0.8078    0.3243 H   0  0  0  0  0  0  0  0  0  0  0  0
    2.2678    2.3858   -2.6167 H   0  0  0  0  0  0  0  0  0  0  0  0
    2.4781    0.8768   -1.7364 H   0  0  0  0  0  0  0  0  0  0  0  0
    4.5642    1.5500   -3.0262 H   0  0  0  0  0  0  0  0  0  0  0  0
    4.8617    2.7761   -1.7049 H   0  0  0  0  0  0  0  0  0  0  0  0
    5.5514    1.5258    0.7473 H   0  0  0  0  0  0  0  0  0  0  0  0
    4.0671    0.5273    1.0130 H   0  0  0  0  0  0  0  0  0  0  0  0
    3.2222    2.5227    1.4301 H   0  0  0  0  0  0  0  0  0  0  0  0
    4.3119    3.4328    0.3138 H   0  0  0  0  0  0  0  0  0  0  0  0
    5.9175   -2.4053   -1.8428 H   0  0  0  0  0  0  0  0  0  0  0  0
    6.3775   -2.4069    1.0363 H   0  0  0  0  0  0  0  0  0  0  0  0
    5.7776   -0.8744    0.7634 H   0  0  0  0  0  0  0  0  0  0  0  0
  1  2  1  0
  2  3  1  0
  3  4  2  0
  4  5  1  0
  5  6  2  0
  6  7  1  0
  7  8  2  0
  8  9  1  0
  9 10  2  0
 10 11  1  0
 10 12  1  0
 12 13  1  0
 13 14  1  0
 12 15  2  0
 15 16  1  0
 16 17  1  0
 17 18  1  0
 16 19  2  0
 19 20  1  0
  8 21  1  0
 21 22  2  0
 21 23  1  0
 23 24  1  0
 24 25  1  0
 25 26  1  0
 26 27  1  0
 27 28  1  0
 28 29  1  0
 29 30  1  0
 30 31  1  0
 29 32  1  0
 32 33  2  0
 32 34  1  0
 34 35  2  3
 23 36  1  0
 36 37  2  0
 37  3  1  0
 36  6  1  0
 19  9  1  0
 31 26  1  0
  1 38  1  0
  1 39  1  0
  1 40  1  0
  2 41  1  0
  5 42  1  0
  7 43  1  0
 14 44  1  0
 14 45  1  0
 14 46  1  0
 15 47  1  0
 18 48  1  0
 18 49  1  0
 18 50  1  0
 24 51  1  0
 24 52  1  0
 25 53  1  0
 25 54  1  0
 27 55  1  0
 27 56  1  0
 28 57  1  0
 28 58  1  0
 30 59  1  0
 30 60  1  0
 31 61  1  0
 31 62  1  0
 34 63  1  0
 35 64  1  0
 35 65  1  0
M  END
$$$$
[H]c1nc(-c2c(C([H])([H])[H])nn(C([H])([H])C([H])([H])N(C([H])([H])[H])C([H])([H])[H])c2[H])c([H])c2c1C([H])([H])N(c1c(F)c(OC([H])([H])[H])c([H])c(OC([H])([H])[H])c1F)C(=O)C21C([H])([H])C1([H])[H]
     RDKit          3D

 65 69  0  0  0  0  0  0  0  0999 V2000
   -7.4326   -1.7603   -3.3689 C   0  0  0  0  0  0  0  0  0  0  0  0
   -6.1538   -1.6436   -2.7844 O   0  0  0  0  0  0  0  0  0  0  0  0
   -5.9327   -0.7338   -1.7674 C   0  0  0  0  0  0  0  0  0  0  0  0
   -6.9811    0.0491   -1.3416 C   0  0  0  0  0  0  0  0  0  0  0  0
   -6.8061    0.9723   -0.3282 C   0  0  0  0  0  0  0  0  0  0  0  0
   -7.8309    1.7828    0.1346 O   0  0  0  0  0  0  0  0  0  0  0  0
   -9.1034    1.6218   -0.4917 C   0  0  0  0  0  0  0  0  0  0  0  0
   -5.5666    1.0853    0.2380 C   0  0  0  0  0  0  0  0  0  0  0  0
   -5.3951    1.9949    1.2385 F   0  0  0  0  0  0  0  0  0  0  0  0
   -4.4670    0.3227   -0.1481 C   0  0  0  0  0  0  0  0  0  0  0  0
   -3.1935    0.4580    0.4499 N   0  0  0  0  0  0  0  0  0  0  0  0
   -2.2204    1.3980   -0.0960 C   0  0  0  0  0  0  0  0  0  0  0  0
   -0.8498    0.9871    0.2230 C   0  0  0  0  0  0  0  0  0  0  0  0
    0.1871    1.2739   -0.6262 C   0  0  0  0  0  0  0  0  0  0  0  0
    1.4362    0.9177   -0.3776 N   0  0  0  0  0  0  0  0  0  0  0  0
    1.8032    0.2342    0.7443 C   0  0  0  0  0  0  0  0  0  0  0  0
    0.7830   -0.0637    1.6099 C   0  0  0  0  0  0  0  0  0  0  0  0
   -0.5496    0.3048    1.3655 C   0  0  0  0  0  0  0  0  0  0  0  0
   -1.6138   -0.0265    2.3152 C   0  0  0  0  0  0  0  0  0  0  0  0
   -1.3851   -0.4735    3.6873 C   0  0  0  0  0  0  0  0  0  0  0  0
   -1.7138    0.9447    3.4741 C   0  0  0  0  0  0  0  0  0  0  0  0
   -2.8902   -0.3423    1.5847 C   0  0  0  0  0  0  0  0  0  0  0  0
   -3.6383   -1.2766    1.9786 O   0  0  0  0  0  0  0  0  0  0  0  0
    3.1992   -0.0953    0.9191 C   0  0  0  0  0  0  0  0  0  0  0  0
    4.1956    0.3176    0.0342 C   0  0  0  0  0  0  0  0  0  0  0  0
    5.3915   -0.1375    0.4343 N   0  0  0  0  0  0  0  0  0  0  0  0
    6.6374    0.1200   -0.2716 C   0  0  0  0  0  0  0  0  0  0  0  0
    6.8621   -0.9769   -1.2860 C   0  0  0  0  0  0  0  0  0  0  0  0
    8.0683   -0.8125   -2.0361 N   0  0  0  0  0  0  0  0  0  0  0  0
    8.0143    0.3165   -2.9161 C   0  0  0  0  0  0  0  0  0  0  0  0
    9.2529   -0.8103   -1.2251 C   0  0  0  0  0  0  0  0  0  0  0  0
    5.1961   -0.8217    1.5349 N   0  0  0  0  0  0  0  0  0  0  0  0
    3.8589   -0.8189    1.8659 C   0  0  0  0  0  0  0  0  0  0  0  0
    3.2978   -1.5034    3.0383 C   0  0  0  0  0  0  0  0  0  0  0  0
   -4.7017   -0.5945   -1.1774 C   0  0  0  0  0  0  0  0  0  0  0  0
   -3.6991   -1.3646   -1.6061 F   0  0  0  0  0  0  0  0  0  0  0  0
   -7.8358   -0.7560   -3.6785 H   0  0  0  0  0  0  0  0  0  0  0  0
   -7.4215   -2.3681   -4.2893 H   0  0  0  0  0  0  0  0  0  0  0  0
   -8.1403   -2.2277   -2.6336 H   0  0  0  0  0  0  0  0  0  0  0  0
   -7.9865   -0.0199   -1.7767 H   0  0  0  0  0  0  0  0  0  0  0  0
   -8.9121    1.8237   -1.5846 H   0  0  0  0  0  0  0  0  0  0  0  0
   -9.8496    2.3370   -0.1253 H   0  0  0  0  0  0  0  0  0  0  0  0
   -9.3881    0.5731   -0.4034 H   0  0  0  0  0  0  0  0  0  0  0  0
   -2.3116    1.3656   -1.2166 H   0  0  0  0  0  0  0  0  0  0  0  0
   -2.3926    2.4091    0.3004 H   0  0  0  0  0  0  0  0  0  0  0  0
    0.0073    1.8234   -1.5686 H   0  0  0  0  0  0  0  0  0  0  0  0
    0.9696   -0.5944    2.5233 H   0  0  0  0  0  0  0  0  0  0  0  0
   -2.1839   -1.1046    4.1628 H   0  0  0  0  0  0  0  0  0  0  0  0
   -0.3789   -0.7610    4.0429 H   0  0  0  0  0  0  0  0  0  0  0  0
   -0.9115    1.6925    3.6188 H   0  0  0  0  0  0  0  0  0  0  0  0
   -2.7226    1.3638    3.6575 H   0  0  0  0  0  0  0  0  0  0  0  0
    4.0416    0.9273   -0.8643 H   0  0  0  0  0  0  0  0  0  0  0  0
    7.4487    0.0732    0.4822 H   0  0  0  0  0  0  0  0  0  0  0  0
    6.6439    1.1042   -0.7486 H   0  0  0  0  0  0  0  0  0  0  0  0
    6.8609   -1.9699   -0.7993 H   0  0  0  0  0  0  0  0  0  0  0  0
    6.0140   -0.9689   -2.0000 H   0  0  0  0  0  0  0  0  0  0  0  0
    7.1185    0.2744   -3.5625 H   0  0  0  0  0  0  0  0  0  0  0  0
    7.9278    1.2486   -2.3147 H   0  0  0  0  0  0  0  0  0  0  0  0
    8.9614    0.3944   -3.5155 H   0  0  0  0  0  0  0  0  0  0  0  0
   10.1510   -1.0240   -1.8440 H   0  0  0  0  0  0  0  0  0  0  0  0
    9.2322   -1.5679   -0.4229 H   0  0  0  0  0  0  0  0  0  0  0  0
    9.3631    0.1865   -0.7321 H   0  0  0  0  0  0  0  0  0  0  0  0
    2.5501   -2.2881    2.7798 H   0  0  0  0  0  0  0  0  0  0  0  0
    2.9374   -0.7663    3.7583 H   0  0  0  0  0  0  0  0  0  0  0  0
    4.1485   -2.0252    3.5672 H   0  0  0  0  0  0  0  0  0  0  0  0
  1  2  1  0
  2  3  1  0
  3  4  2  0
  4  5  1  0
  5  6  1  0
  6  7  1  0
  5  8  2  0
  8  9  1  0
  8 10  1  0
 10 11  1  0
 11 12  1  0
 12 13  1  0
 13 14  2  0
 14 15  1  0
 15 16  2  0
 16 17  1  0
 17 18  2  0
 18 19  1  0
 19 20  1  0
 20 21  1  0
 19 22  1  0
 22 23  2  0
 16 24  1  0
 24 25  2  0
 25 26  1  0
 26 27  1  0
 27 28  1  0
 28 29  1  0
 29 30  1  0
 29 31  1  0
 26 32  1  0
 32 33  2  0
 33 34  1  0
 10 35  2  0
 35 36  1  0
 35  3  1  0
 22 11  1  0
 33 24  1  0
 18 13  1  0
 21 19  1  0
  1 37  1  0
  1 38  1  0
  1 39  1  0
  4 40  1  0
  7 41  1  0
  7 42  1  0
  7 43  1  0
 12 44  1  0
 12 45  1  0
 14 46  1  0
 17 47  1  0
 20 48  1  0
 20 49  1  0
 21 50  1  0
 21 51  1  0
 25 52  1  0
 27 53  1  0
 27 54  1  0
 28 55  1  0
 28 56  1  0
 30 57  1  0
 30 58  1  0
 30 59  1  0
 31 60  1  0
 31 61  1  0
 31 62  1  0
 34 63  1  0
 34 64  1  0
 34 65  1  0
M  END
$$$$
[H]OC([H])([H])C([H])([H])N(c1nc([H])c2nc([H])c(-c3c([H])nn(C([H])([H])[H])c3[H])nc2n1)c1c([H])c(OC([H])([H])[H])c([H])c(OC([H])([H])[H])c1[H]
     RDKit          3D

 51 54  0  0  0  0  0  0  0  0999 V2000
   -5.9418    3.7077    0.9045 C   0  0  0  0  0  0  0  0  0  0  0  0
   -4.6111    3.2301    0.8768 O   0  0  0  0  0  0  0  0  0  0  0  0
   -4.4041    1.9044    0.5293 C   0  0  0  0  0  0  0  0  0  0  0  0
   -5.4326    1.0474    0.2145 C   0  0  0  0  0  0  0  0  0  0  0  0
   -5.1778   -0.2671   -0.1260 C   0  0  0  0  0  0  0  0  0  0  0  0
   -6.2102   -1.1367   -0.4439 O   0  0  0  0  0  0  0  0  0  0  0  0
   -5.9614   -2.4781   -0.7920 C   0  0  0  0  0  0  0  0  0  0  0  0
   -3.8760   -0.6989   -0.1438 C   0  0  0  0  0  0  0  0  0  0  0  0
   -2.7809    0.1320    0.1685 C   0  0  0  0  0  0  0  0  0  0  0  0
   -3.1054    1.4257    0.4989 C   0  0  0  0  0  0  0  0  0  0  0  0
   -1.4976   -0.4262    0.1518 N   0  0  0  0  0  0  0  0  0  0  0  0
   -1.3489   -1.8804    0.2851 C   0  0  0  0  0  0  0  0  0  0  0  0
   -1.8728   -2.4133    1.5758 C   0  0  0  0  0  0  0  0  0  0  0  0
   -1.6582   -3.8095    1.5480 O   0  0  0  0  0  0  0  0  0  0  0  0
   -0.3193    0.3026   -0.0501 C   0  0  0  0  0  0  0  0  0  0  0  0
   -0.3358    1.5790   -0.3838 N   0  0  0  0  0  0  0  0  0  0  0  0
    0.7476    2.3254   -0.5891 C   0  0  0  0  0  0  0  0  0  0  0  0
    1.9835    1.7191   -0.4418 C   0  0  0  0  0  0  0  0  0  0  0  0
    3.1218    2.3850   -0.6270 N   0  0  0  0  0  0  0  0  0  0  0  0
    4.3250    1.7877   -0.4822 C   0  0  0  0  0  0  0  0  0  0  0  0
    4.4153    0.4568   -0.1348 C   0  0  0  0  0  0  0  0  0  0  0  0
    3.2678   -0.2141    0.0518 N   0  0  0  0  0  0  0  0  0  0  0  0
    2.0529    0.3863   -0.0936 C   0  0  0  0  0  0  0  0  0  0  0  0
    0.9114   -0.2805    0.0913 N   0  0  0  0  0  0  0  0  0  0  0  0
    5.7308   -0.1823    0.0194 C   0  0  0  0  0  0  0  0  0  0  0  0
    5.9385   -1.5019    0.3631 C   0  0  0  0  0  0  0  0  0  0  0  0
    7.2549   -1.7085    0.4035 N   0  0  0  0  0  0  0  0  0  0  0  0
    7.9013   -0.5931    0.1045 N   0  0  0  0  0  0  0  0  0  0  0  0
    9.3310   -0.4551    0.0537 C   0  0  0  0  0  0  0  0  0  0  0  0
    6.9691    0.3704   -0.1384 C   0  0  0  0  0  0  0  0  0  0  0  0
   -6.5565    3.0129    1.5135 H   0  0  0  0  0  0  0  0  0  0  0  0
   -6.3649    3.8357   -0.1119 H   0  0  0  0  0  0  0  0  0  0  0  0
   -5.9297    4.7179    1.3824 H   0  0  0  0  0  0  0  0  0  0  0  0
   -6.4417    1.4315    0.2408 H   0  0  0  0  0  0  0  0  0  0  0  0
   -5.4127   -3.0290   -0.0021 H   0  0  0  0  0  0  0  0  0  0  0  0
   -5.3375   -2.5423   -1.7302 H   0  0  0  0  0  0  0  0  0  0  0  0
   -6.9041   -3.0032   -1.0355 H   0  0  0  0  0  0  0  0  0  0  0  0
   -3.6509   -1.7186   -0.4101 H   0  0  0  0  0  0  0  0  0  0  0  0
   -2.3220    2.1294    0.7777 H   0  0  0  0  0  0  0  0  0  0  0  0
   -1.7983   -2.4231   -0.5681 H   0  0  0  0  0  0  0  0  0  0  0  0
   -0.2634   -2.1759    0.2474 H   0  0  0  0  0  0  0  0  0  0  0  0
   -1.3162   -2.0222    2.4608 H   0  0  0  0  0  0  0  0  0  0  0  0
   -2.9256   -2.2634    1.7860 H   0  0  0  0  0  0  0  0  0  0  0  0
   -1.7230   -4.1686    0.6350 H   0  0  0  0  0  0  0  0  0  0  0  0
    0.6952    3.3744   -0.8631 H   0  0  0  0  0  0  0  0  0  0  0  0
    5.2628    2.3291   -0.6325 H   0  0  0  0  0  0  0  0  0  0  0  0
    5.2123   -2.2678    0.5718 H   0  0  0  0  0  0  0  0  0  0  0  0
    9.7712   -0.0151    0.9732 H   0  0  0  0  0  0  0  0  0  0  0  0
    9.6261    0.1491   -0.8499 H   0  0  0  0  0  0  0  0  0  0  0  0
    9.7841   -1.4568   -0.0858 H   0  0  0  0  0  0  0  0  0  0  0  0
    7.1779    1.3920   -0.4082 H   0  0  0  0  0  0  0  0  0  0  0  0
  1  2  1  0
  2  3  1  0
  3  4  2  0
  4  5  1  0
  5  6  1  0
  6  7  1  0
  5  8  2  0
  8  9  1  0
  9 10  2  0
  9 11  1  0
 11 12  1  0
 12 13  1  0
 13 14  1  0
 11 15  1  0
 15 16  2  0
 16 17  1  0
 17 18  2  0
 18 19  1  0
 19 20  2  0
 20 21  1  0
 21 22  2  0
 22 23  1  0
 23 24  2  0
 21 25  1  0
 25 26  1  0
 26 27  2  0
 27 28  1  0
 28 29  1  0
 28 30  1  0
 10  3  1  0
 24 15  1  0
 30 25  2  0
 23 18  1  0
  1 31  1  0
  1 32  1  0
  1 33  1  0
  4 34  1  0
  7 35  1  0
  7 36  1  0
  7 37  1  0
  8 38  1  0
 10 39  1  0
 12 40  1  0
 12 41  1  0
 13 42  1  0
 13 43  1  0
 14 44  1  0
 17 45  1  0
 20 46  1  0
 26 47  1  0
 29 48  1  0
 29 49  1  0
 29 50  1  0
 30 51  1  0
M  END
$$$$
[H]c1nc(-c2c(C([H])([H])[H])nn(C([H])([H])C(=O)N3C([H])([H])C([H])([H])OC([H])([H])C3([H])[H])c2[H])c([H])c2c1C([H])([H])N(c1c(F)c(OC([H])([H])[H])c([H])c(OC([H])([H])[H])c1F)C(=O)C21C([H])([H])C1([H])[H]
     RDKit          3D

 69 74  0  0  0  0  0  0  0  0999 V2000
    8.0974   -2.3810   -1.6014 C   0  0  0  0  0  0  0  0  0  0  0  0
    6.8124   -2.1334   -1.1225 O   0  0  0  0  0  0  0  0  0  0  0  0
    6.4700   -1.0133   -0.4311 C   0  0  0  0  0  0  0  0  0  0  0  0
    7.3406   -0.0297   -0.1044 C   0  0  0  0  0  0  0  0  0  0  0  0
    6.9302    1.1042    0.6212 C   0  0  0  0  0  0  0  0  0  0  0  0
    7.7365    2.0670    0.9546 O   0  0  0  0  0  0  0  0  0  0  0  0
    8.6158    2.9648    1.2344 C   0  0  0  0  0  0  0  0  0  0  0  0
    5.5775    1.1620    0.9847 C   0  0  0  0  0  0  0  0  0  0  0  0
    5.1876    2.2635    1.7077 F   0  0  0  0  0  0  0  0  0  0  0  0
    4.6998    0.1694    0.6515 C   0  0  0  0  0  0  0  0  0  0  0  0
    3.3016    0.2646    1.0109 N   0  0  0  0  0  0  0  0  0  0  0  0
    2.6373   -0.7390    1.8021 C   0  0  0  0  0  0  0  0  0  0  0  0
    1.3213   -1.0515    1.1554 C   0  0  0  0  0  0  0  0  0  0  0  0
    0.9057   -2.3354    0.9958 C   0  0  0  0  0  0  0  0  0  0  0  0
   -0.2885   -2.5667    0.3888 N   0  0  0  0  0  0  0  0  0  0  0  0
   -1.0550   -1.5602   -0.0492 C   0  0  0  0  0  0  0  0  0  0  0  0
   -0.6492   -0.2579    0.1065 C   0  0  0  0  0  0  0  0  0  0  0  0
    0.5377    0.0106    0.7071 C   0  0  0  0  0  0  0  0  0  0  0  0
    1.0904    1.3768    0.9143 C   0  0  0  0  0  0  0  0  0  0  0  0
    0.3090    2.5706    0.6224 C   0  0  0  0  0  0  0  0  0  0  0  0
    0.6270    2.2190    2.0391 C   0  0  0  0  0  0  0  0  0  0  0  0
    2.5413    1.3880    0.5564 C   0  0  0  0  0  0  0  0  0  0  0  0
    2.9914    2.3344   -0.0926 O   0  0  0  0  0  0  0  0  0  0  0  0
   -2.3084   -1.8594   -0.7242 C   0  0  0  0  0  0  0  0  0  0  0  0
   -3.2273   -0.9233   -1.1815 C   0  0  0  0  0  0  0  0  0  0  0  0
   -4.2629   -1.5242   -1.7791 N   0  0  0  0  0  0  0  0  0  0  0  0
   -5.4576   -0.9315   -2.4036 C   0  0  0  0  0  0  0  0  0  0  0  0
   -6.5026   -0.8466   -1.3730 C   0  0  0  0  0  0  0  0  0  0  0  0
   -7.1465   -1.9155   -1.0278 O   0  0  0  0  0  0  0  0  0  0  0  0
   -6.8292    0.3628   -0.7461 N   0  0  0  0  0  0  0  0  0  0  0  0
   -6.1949    1.6008   -1.0627 C   0  0  0  0  0  0  0  0  0  0  0  0
   -6.2175    2.4415    0.2119 C   0  0  0  0  0  0  0  0  0  0  0  0
   -7.4902    2.7322    0.6399 O   0  0  0  0  0  0  0  0  0  0  0  0
   -8.4443    1.8227    0.2109 C   0  0  0  0  0  0  0  0  0  0  0  0
   -7.8709    0.4168    0.2932 C   0  0  0  0  0  0  0  0  0  0  0  0
   -3.9986   -2.8256   -1.6981 N   0  0  0  0  0  0  0  0  0  0  0  0
   -2.8561   -3.0655   -1.0834 C   0  0  0  0  0  0  0  0  0  0  0  0
   -2.2223   -4.4028   -0.8080 C   0  0  0  0  0  0  0  0  0  0  0  0
    5.1247   -0.9230   -0.0526 C   0  0  0  0  0  0  0  0  0  0  0  0
    4.2504   -1.8859   -0.3762 F   0  0  0  0  0  0  0  0  0  0  0  0
    8.2121   -3.4713   -1.7953 H   0  0  0  0  0  0  0  0  0  0  0  0
    8.2469   -1.8685   -2.5763 H   0  0  0  0  0  0  0  0  0  0  0  0
    8.8588   -2.0168   -0.9116 H   0  0  0  0  0  0  0  0  0  0  0  0
    8.3779   -0.0619   -0.3780 H   0  0  0  0  0  0  0  0  0  0  0  0
    9.0290    2.9568    2.3066 H   0  0  0  0  0  0  0  0  0  0  0  0
    8.1869    4.0281    1.1815 H   0  0  0  0  0  0  0  0  0  0  0  0
    9.5595    2.9957    0.5738 H   0  0  0  0  0  0  0  0  0  0  0  0
    2.4926   -0.3386    2.8280 H   0  0  0  0  0  0  0  0  0  0  0  0
    3.2841   -1.6278    1.8728 H   0  0  0  0  0  0  0  0  0  0  0  0
    1.4950   -3.1822    1.3385 H   0  0  0  0  0  0  0  0  0  0  0  0
   -1.2782    0.5511   -0.2509 H   0  0  0  0  0  0  0  0  0  0  0  0
   -0.7789    2.5485    0.3950 H   0  0  0  0  0  0  0  0  0  0  0  0
    0.7848    3.5038    0.2416 H   0  0  0  0  0  0  0  0  0  0  0  0
    1.4180    2.7945    2.5702 H   0  0  0  0  0  0  0  0  0  0  0  0
   -0.1386    1.7362    2.6962 H   0  0  0  0  0  0  0  0  0  0  0  0
   -3.1275    0.1604   -1.0722 H   0  0  0  0  0  0  0  0  0  0  0  0
   -5.2198    0.0771   -2.7874 H   0  0  0  0  0  0  0  0  0  0  0  0
   -5.7671   -1.5545   -3.2737 H   0  0  0  0  0  0  0  0  0  0  0  0
   -6.7259    2.1285   -1.8879 H   0  0  0  0  0  0  0  0  0  0  0  0
   -5.1542    1.4672   -1.3240 H   0  0  0  0  0  0  0  0  0  0  0  0
   -5.6998    3.4050   -0.0213 H   0  0  0  0  0  0  0  0  0  0  0  0
   -5.6090    1.8826    0.9659 H   0  0  0  0  0  0  0  0  0  0  0  0
   -8.8671    2.0490   -0.7799 H   0  0  0  0  0  0  0  0  0  0  0  0
   -9.3157    1.8625    0.9231 H   0  0  0  0  0  0  0  0  0  0  0  0
   -8.6724   -0.3299    0.0783 H   0  0  0  0  0  0  0  0  0  0  0  0
   -7.4380    0.3079    1.3083 H   0  0  0  0  0  0  0  0  0  0  0  0
   -2.2633   -4.5429    0.2840 H   0  0  0  0  0  0  0  0  0  0  0  0
   -1.1890   -4.3696   -1.2257 H   0  0  0  0  0  0  0  0  0  0  0  0
   -2.7846   -5.1911   -1.3710 H   0  0  0  0  0  0  0  0  0  0  0  0
  1  2  1  0
  2  3  1  0
  3  4  2  0
  4  5  1  0
  5  6  1  0
  6  7  1  0
  5  8  2  0
  8  9  1  0
  8 10  1  0
 10 11  1  0
 11 12  1  0
 12 13  1  0
 13 14  2  0
 14 15  1  0
 15 16  2  0
 16 17  1  0
 17 18  2  0
 18 19  1  0
 19 20  1  0
 20 21  1  0
 19 22  1  0
 22 23  2  0
 16 24  1  0
 24 25  2  0
 25 26  1  0
 26 27  1  0
 27 28  1  0
 28 29  2  0
 28 30  1  0
 30 31  1  0
 31 32  1  0
 32 33  1  0
 33 34  1  0
 34 35  1  0
 26 36  1  0
 36 37  2  0
 37 38  1  0
 10 39  2  0
 39 40  1  0
 39  3  1  0
 22 11  1  0
 37 24  1  0
 18 13  1  0
 21 19  1  0
 35 30  1  0
  1 41  1  0
  1 42  1  0
  1 43  1  0
  4 44  1  0
  7 45  1  0
  7 46  1  0
  7 47  1  0
 12 48  1  0
 12 49  1  0
 14 50  1  0
 17 51  1  0
 20 52  1  0
 20 53  1  0
 21 54  1  0
 21 55  1  0
 25 56  1  0
 27 57  1  0
 27 58  1  0
 31 59  1  0
 31 60  1  0
 32 61  1  0
 32 62  1  0
 34 63  1  0
 34 64  1  0
 35 65  1  0
 35 66  1  0
 38 67  1  0
 38 68  1  0
 38 69  1  0
M  END
$$$$
[H]c1nn(-c2c([H])c([H])c3c(nc(C([H])([H])[H])n3[H])c2[H])c(N([H])[H])c1C(=O)c1c([H])c(Br)c(Br)n1[H]
     RDKit          3D

 37 40  0  0  0  0  0  0  0  0999 V2000
    7.0214    0.8738    1.6373 C   0  0  0  0  0  0  0  0  0  0  0  0
    5.6899    0.5643    1.0496 C   0  0  0  0  0  0  0  0  0  0  0  0
    4.5059    1.0125    1.4961 N   0  0  0  0  0  0  0  0  0  0  0  0
    3.5056    0.5399    0.7321 C   0  0  0  0  0  0  0  0  0  0  0  0
    2.1291    0.6817    0.7415 C   0  0  0  0  0  0  0  0  0  0  0  0
    1.3516    0.0361   -0.2267 C   0  0  0  0  0  0  0  0  0  0  0  0
    1.9818   -0.7338   -1.1766 C   0  0  0  0  0  0  0  0  0  0  0  0
    3.3360   -0.9004   -1.2221 C   0  0  0  0  0  0  0  0  0  0  0  0
    4.0836   -0.2409   -0.2393 C   0  0  0  0  0  0  0  0  0  0  0  0
    5.3950   -0.2022   -0.0164 N   0  0  0  0  0  0  0  0  0  0  0  0
   -0.0562    0.2114   -0.1788 N   0  0  0  0  0  0  0  0  0  0  0  0
   -0.6735    1.3380    0.1221 N   0  0  0  0  0  0  0  0  0  0  0  0
   -2.0212    1.1779    0.0801 C   0  0  0  0  0  0  0  0  0  0  0  0
   -2.2773   -0.1217   -0.2660 C   0  0  0  0  0  0  0  0  0  0  0  0
   -3.5210   -0.8403   -0.4790 C   0  0  0  0  0  0  0  0  0  0  0  0
   -3.5327   -2.0494   -0.8588 O   0  0  0  0  0  0  0  0  0  0  0  0
   -4.7859   -0.1964   -0.2647 C   0  0  0  0  0  0  0  0  0  0  0  0
   -5.9224   -0.4352   -1.0515 C   0  0  0  0  0  0  0  0  0  0  0  0
   -6.9730    0.3113   -0.5731 C   0  0  0  0  0  0  0  0  0  0  0  0
   -8.7544    0.4020   -1.2266 Br  0  0  0  0  0  0  0  0  0  0  0  0
   -6.4651    0.9981    0.5016 C   0  0  0  0  0  0  0  0  0  0  0  0
   -7.4126    2.2272    1.6260 Br  0  0  0  0  0  0  0  0  0  0  0  0
   -5.1481    0.6796    0.6720 N   0  0  0  0  0  0  0  0  0  0  0  0
   -1.0023   -0.7039   -0.4223 C   0  0  0  0  0  0  0  0  0  0  0  0
   -0.7962   -2.0703   -0.7861 N   0  0  0  0  0  0  0  0  0  0  0  0
    7.8056    0.3324    1.0721 H   0  0  0  0  0  0  0  0  0  0  0  0
    7.1924    1.9763    1.5712 H   0  0  0  0  0  0  0  0  0  0  0  0
    7.0724    0.5021    2.6804 H   0  0  0  0  0  0  0  0  0  0  0  0
    1.6815    1.2972    1.5083 H   0  0  0  0  0  0  0  0  0  0  0  0
    1.3699   -1.2244   -1.9164 H   0  0  0  0  0  0  0  0  0  0  0  0
    3.8503   -1.4951   -1.9518 H   0  0  0  0  0  0  0  0  0  0  0  0
    6.1353   -0.6988   -0.5859 H   0  0  0  0  0  0  0  0  0  0  0  0
   -2.7685    1.9399    0.2750 H   0  0  0  0  0  0  0  0  0  0  0  0
   -5.9949   -1.1025   -1.9141 H   0  0  0  0  0  0  0  0  0  0  0  0
   -4.5635    1.0834    1.4459 H   0  0  0  0  0  0  0  0  0  0  0  0
   -0.5439   -2.8017   -0.0711 H   0  0  0  0  0  0  0  0  0  0  0  0
   -0.8947   -2.3684   -1.7838 H   0  0  0  0  0  0  0  0  0  0  0  0
  1  2  1  0
  2  3  2  0
  3  4  1  0
  4  5  2  0
  5  6  1  0
  6  7  2  0
  7  8  1  0
  8  9  2  0
  9 10  1  0
  6 11  1  0
 11 12  1  0
 12 13  2  0
 13 14  1  0
 14 15  1  0
 15 16  2  0
 15 17  1  0
 17 18  2  0
 18 19  1  0
 19 20  1  0
 19 21  2  0
 21 22  1  0
 21 23  1  0
 14 24  2  0
 24 25  1  0
 10  2  1  0
 24 11  1  0
  9  4  1  0
 23 17  1  0
  1 26  1  0
  1 27  1  0
  1 28  1  0
  5 29  1  0
  7 30  1  0
  8 31  1  0
 10 32  1  0
 13 33  1  0
 18 34  1  0
 23 35  1  0
 25 36  1  0
 25 37  1  0
M  END
$$$$
[H]c1nc(-c2c(C([H])([H])[H])nn(C([H])([H])[H])c2[H])c([H])c2c1C([H])([H])N(c1c(F)c(OC([H])([H])[H])c([H])c(OC([H])([H])[H])c1F)C(=O)N2c1c([H])c(F)c([H])c(F)c1[H]
     RDKit          3D

 59 63  0  0  0  0  0  0  0  0999 V2000
   -7.4607    0.2773    2.3462 C   0  0  0  0  0  0  0  0  0  0  0  0
   -6.0732    0.0143    2.4432 O   0  0  0  0  0  0  0  0  0  0  0  0
   -5.3010    0.3348    1.3145 C   0  0  0  0  0  0  0  0  0  0  0  0
   -5.8503    0.8737    0.1731 C   0  0  0  0  0  0  0  0  0  0  0  0
   -5.1185    1.1979   -0.9467 C   0  0  0  0  0  0  0  0  0  0  0  0
   -5.6912    1.7420   -2.0926 O   0  0  0  0  0  0  0  0  0  0  0  0
   -7.0874    1.9654   -2.0856 C   0  0  0  0  0  0  0  0  0  0  0  0
   -3.7547    0.9468   -0.8663 C   0  0  0  0  0  0  0  0  0  0  0  0
   -2.9749    1.2378   -1.9258 F   0  0  0  0  0  0  0  0  0  0  0  0
   -3.1755    0.4097    0.2604 C   0  0  0  0  0  0  0  0  0  0  0  0
   -1.7577    0.2109    0.2572 N   0  0  0  0  0  0  0  0  0  0  0  0
   -0.9819    1.3847    0.6027 C   0  0  0  0  0  0  0  0  0  0  0  0
    0.4618    1.2191    0.4763 C   0  0  0  0  0  0  0  0  0  0  0  0
    1.2507    2.3300    0.7204 C   0  0  0  0  0  0  0  0  0  0  0  0
    2.5799    2.2435    0.6420 N   0  0  0  0  0  0  0  0  0  0  0  0
    3.2148    1.1023    0.3294 C   0  0  0  0  0  0  0  0  0  0  0  0
    2.4208   -0.0150    0.0835 C   0  0  0  0  0  0  0  0  0  0  0  0
    1.0643    0.0446    0.1566 C   0  0  0  0  0  0  0  0  0  0  0  0
    0.2927   -1.1367   -0.1286 N   0  0  0  0  0  0  0  0  0  0  0  0
   -1.1304   -1.0209   -0.0684 C   0  0  0  0  0  0  0  0  0  0  0  0
   -1.8479   -2.0351   -0.3103 O   0  0  0  0  0  0  0  0  0  0  0  0
    0.9548   -2.3558   -0.4522 C   0  0  0  0  0  0  0  0  0  0  0  0
    1.6121   -3.1225    0.4778 C   0  0  0  0  0  0  0  0  0  0  0  0
    2.2408   -4.2766    0.1047 C   0  0  0  0  0  0  0  0  0  0  0  0
    2.9140   -5.0660    1.0106 F   0  0  0  0  0  0  0  0  0  0  0  0
    2.2008   -4.6568   -1.2313 C   0  0  0  0  0  0  0  0  0  0  0  0
    1.5572   -3.9296   -2.2060 C   0  0  0  0  0  0  0  0  0  0  0  0
    1.5260   -4.3107   -3.5145 F   0  0  0  0  0  0  0  0  0  0  0  0
    0.9370   -2.7644   -1.7581 C   0  0  0  0  0  0  0  0  0  0  0  0
    4.6530    0.9831    0.2544 C   0  0  0  0  0  0  0  0  0  0  0  0
    5.3541   -0.1399   -0.1152 C   0  0  0  0  0  0  0  0  0  0  0  0
    6.6905    0.1367   -0.0535 N   0  0  0  0  0  0  0  0  0  0  0  0
    7.7421   -0.8372   -0.3788 C   0  0  0  0  0  0  0  0  0  0  0  0
    6.8052    1.3869    0.3404 N   0  0  0  0  0  0  0  0  0  0  0  0
    5.5802    1.9462    0.5419 C   0  0  0  0  0  0  0  0  0  0  0  0
    5.3446    3.3555    1.0033 C   0  0  0  0  0  0  0  0  0  0  0  0
   -3.9325    0.0956    1.3638 C   0  0  0  0  0  0  0  0  0  0  0  0
   -3.3975   -0.4373    2.4902 F   0  0  0  0  0  0  0  0  0  0  0  0
   -7.8830   -0.3309    1.5095 H   0  0  0  0  0  0  0  0  0  0  0  0
   -7.9701   -0.0162    3.2822 H   0  0  0  0  0  0  0  0  0  0  0  0
   -7.6531    1.3499    2.0980 H   0  0  0  0  0  0  0  0  0  0  0  0
   -6.9347    1.0474    0.1781 H   0  0  0  0  0  0  0  0  0  0  0  0
   -7.3180    2.5682   -1.1664 H   0  0  0  0  0  0  0  0  0  0  0  0
   -7.5723    0.9701   -2.0031 H   0  0  0  0  0  0  0  0  0  0  0  0
   -7.4047    2.5311   -2.9984 H   0  0  0  0  0  0  0  0  0  0  0  0
   -1.2261    1.7063    1.6380 H   0  0  0  0  0  0  0  0  0  0  0  0
   -1.3091    2.2022   -0.0694 H   0  0  0  0  0  0  0  0  0  0  0  0
    0.8097    3.2850    0.9786 H   0  0  0  0  0  0  0  0  0  0  0  0
    2.9105   -0.9456   -0.1730 H   0  0  0  0  0  0  0  0  0  0  0  0
    1.6237   -2.7893    1.5196 H   0  0  0  0  0  0  0  0  0  0  0  0
    2.7144   -5.5874   -1.5070 H   0  0  0  0  0  0  0  0  0  0  0  0
    0.4244   -2.1817   -2.5351 H   0  0  0  0  0  0  0  0  0  0  0  0
    4.9593   -1.1109   -0.4218 H   0  0  0  0  0  0  0  0  0  0  0  0
    8.7143   -0.4215   -0.0875 H   0  0  0  0  0  0  0  0  0  0  0  0
    7.5362   -1.7657    0.1950 H   0  0  0  0  0  0  0  0  0  0  0  0
    7.6932   -0.9839   -1.4777 H   0  0  0  0  0  0  0  0  0  0  0  0
    6.3008    3.7094    1.4743 H   0  0  0  0  0  0  0  0  0  0  0  0
    4.5624    3.3990    1.7771 H   0  0  0  0  0  0  0  0  0  0  0  0
    5.1601    4.0302    0.1422 H   0  0  0  0  0  0  0  0  0  0  0  0
  1  2  1  0
  2  3  1  0
  3  4  2  0
  4  5  1  0
  5  6  1  0
  6  7  1  0
  5  8  2  0
  8  9  1  0
  8 10  1  0
 10 11  1  0
 11 12  1  0
 12 13  1  0
 13 14  2  0
 14 15  1  0
 15 16  2  0
 16 17  1  0
 17 18  2  0
 18 19  1  0
 19 20  1  0
 20 21  2  0
 19 22  1  0
 22 23  2  0
 23 24  1  0
 24 25  1  0
 24 26  2  0
 26 27  1  0
 27 28  1  0
 27 29  2  0
 16 30  1  0
 30 31  2  0
 31 32  1  0
 32 33  1  0
 32 34  1  0
 34 35  2  0
 35 36  1  0
 10 37  2  0
 37 38  1  0
 37  3  1  0
 20 11  1  0
 29 22  1  0
 35 30  1  0
 18 13  1  0
  1 39  1  0
  1 40  1  0
  1 41  1  0
  4 42  1  0
  7 43  1  0
  7 44  1  0
  7 45  1  0
 12 46  1  0
 12 47  1  0
 14 48  1  0
 17 49  1  0
 23 50  1  0
 26 51  1  0
 29 52  1  0
 31 53  1  0
 33 54  1  0
 33 55  1  0
 33 56  1  0
 36 57  1  0
 36 58  1  0
 36 59  1  0
M  END
$$$$
[H]c1nn(C([H])([H])[H])c([H])c1-c1nc([H])c2c(c1[H])N(c1c([H])c([H])c(C#N)c([H])c1[H])C(=O)N(c1c(F)c(OC([H])([H])[H])c([H])c(OC([H])([H])[H])c1F)C2([H])[H]
     RDKit          3D

 57 61  0  0  0  0  0  0  0  0999 V2000
   -7.1299   -1.8149    1.9726 C   0  0  0  0  0  0  0  0  0  0  0  0
   -5.7305   -1.6805    1.9920 O   0  0  0  0  0  0  0  0  0  0  0  0
   -5.0540   -1.1741    0.9055 C   0  0  0  0  0  0  0  0  0  0  0  0
   -5.7573   -0.7944   -0.2154 C   0  0  0  0  0  0  0  0  0  0  0  0
   -5.0674   -0.2805   -1.3180 C   0  0  0  0  0  0  0  0  0  0  0  0
   -5.8128    0.0882   -2.4218 O   0  0  0  0  0  0  0  0  0  0  0  0
   -7.2005   -0.0179   -2.5071 C   0  0  0  0  0  0  0  0  0  0  0  0
   -3.6970   -0.1657   -1.2576 C   0  0  0  0  0  0  0  0  0  0  0  0
   -3.0193    0.3280   -2.3144 F   0  0  0  0  0  0  0  0  0  0  0  0
   -2.9698   -0.5391   -0.1460 C   0  0  0  0  0  0  0  0  0  0  0  0
   -1.5315   -0.4087   -0.1068 N   0  0  0  0  0  0  0  0  0  0  0  0
   -0.8052   -1.6442   -0.1534 C   0  0  0  0  0  0  0  0  0  0  0  0
    0.6486   -1.4272   -0.0715 C   0  0  0  0  0  0  0  0  0  0  0  0
    1.4843   -2.5621   -0.0763 C   0  0  0  0  0  0  0  0  0  0  0  0
    2.8031   -2.4237   -0.0092 N   0  0  0  0  0  0  0  0  0  0  0  0
    3.4367   -1.2451    0.0660 C   0  0  0  0  0  0  0  0  0  0  0  0
    2.6692   -0.1070    0.0741 C   0  0  0  0  0  0  0  0  0  0  0  0
    1.2719   -0.2144    0.0047 C   0  0  0  0  0  0  0  0  0  0  0  0
    0.4804    0.9767    0.0259 N   0  0  0  0  0  0  0  0  0  0  0  0
   -0.9175    0.8606   -0.0309 C   0  0  0  0  0  0  0  0  0  0  0  0
   -1.6368    1.8779   -0.0146 O   0  0  0  0  0  0  0  0  0  0  0  0
    1.1650    2.2221    0.1035 C   0  0  0  0  0  0  0  0  0  0  0  0
    1.4267    2.7928    1.3291 C   0  0  0  0  0  0  0  0  0  0  0  0
    2.0981    4.0095    1.3989 C   0  0  0  0  0  0  0  0  0  0  0  0
    2.5073    4.6550    0.2516 C   0  0  0  0  0  0  0  0  0  0  0  0
    2.2512    4.0929   -0.9893 C   0  0  0  0  0  0  0  0  0  0  0  0
    1.5832    2.8851   -1.0277 C   0  0  0  0  0  0  0  0  0  0  0  0
    3.2034    5.9156    0.3111 C   0  0  0  0  0  0  0  0  0  0  0  0
    3.7783    6.9165    0.3645 N   0  0  0  0  0  0  0  0  0  0  0  0
    4.8854   -1.1679    0.1396 C   0  0  0  0  0  0  0  0  0  0  0  0
    5.6676   -0.0361    0.2142 C   0  0  0  0  0  0  0  0  0  0  0  0
    6.9458   -0.4758    0.2663 N   0  0  0  0  0  0  0  0  0  0  0  0
    7.0055   -1.7869    0.2293 N   0  0  0  0  0  0  0  0  0  0  0  0
    8.2223   -2.5748    0.2688 C   0  0  0  0  0  0  0  0  0  0  0  0
    5.7349   -2.2503    0.1500 C   0  0  0  0  0  0  0  0  0  0  0  0
   -3.6694   -1.0413    0.9251 C   0  0  0  0  0  0  0  0  0  0  0  0
   -2.9835   -1.4136    2.0295 F   0  0  0  0  0  0  0  0  0  0  0  0
   -7.5794   -0.7871    2.0824 H   0  0  0  0  0  0  0  0  0  0  0  0
   -7.5006   -2.2739    1.0519 H   0  0  0  0  0  0  0  0  0  0  0  0
   -7.4770   -2.3862    2.8839 H   0  0  0  0  0  0  0  0  0  0  0  0
   -6.8390   -0.8805   -0.2731 H   0  0  0  0  0  0  0  0  0  0  0  0
   -7.4754   -1.0968   -2.4134 H   0  0  0  0  0  0  0  0  0  0  0  0
   -7.7293    0.5947   -1.7316 H   0  0  0  0  0  0  0  0  0  0  0  0
   -7.5086    0.3295   -3.5193 H   0  0  0  0  0  0  0  0  0  0  0  0
   -1.0720   -2.1645   -1.1063 H   0  0  0  0  0  0  0  0  0  0  0  0
   -1.0708   -2.2826    0.7228 H   0  0  0  0  0  0  0  0  0  0  0  0
    0.9844   -3.5369   -0.1377 H   0  0  0  0  0  0  0  0  0  0  0  0
    3.1060    0.8885    0.1336 H   0  0  0  0  0  0  0  0  0  0  0  0
    1.1130    2.3001    2.2331 H   0  0  0  0  0  0  0  0  0  0  0  0
    2.3122    4.4751    2.3526 H   0  0  0  0  0  0  0  0  0  0  0  0
    2.5826    4.6171   -1.8684 H   0  0  0  0  0  0  0  0  0  0  0  0
    1.3655    2.4199   -1.9812 H   0  0  0  0  0  0  0  0  0  0  0  0
    5.3270    0.9992    0.2279 H   0  0  0  0  0  0  0  0  0  0  0  0
    8.5917   -2.8393   -0.7459 H   0  0  0  0  0  0  0  0  0  0  0  0
    8.0454   -3.4889    0.8968 H   0  0  0  0  0  0  0  0  0  0  0  0
    9.0374   -1.9418    0.7255 H   0  0  0  0  0  0  0  0  0  0  0  0
    5.5012   -3.3202    0.1043 H   0  0  0  0  0  0  0  0  0  0  0  0
  1  2  1  0
  2  3  1  0
  3  4  2  0
  4  5  1  0
  5  6  1  0
  6  7  1  0
  5  8  2  0
  8  9  1  0
  8 10  1  0
 10 11  1  0
 11 12  1  0
 12 13  1  0
 13 14  2  0
 14 15  1  0
 15 16  2  0
 16 17  1  0
 17 18  2  0
 18 19  1  0
 19 20  1  0
 20 21  2  0
 19 22  1  0
 22 23  2  0
 23 24  1  0
 24 25  2  0
 25 26  1  0
 26 27  2  0
 25 28  1  0
 28 29  3  0
 16 30  1  0
 30 31  1  0
 31 32  2  0
 32 33  1  0
 33 34  1  0
 33 35  1  0
 10 36  2  0
 36 37  1  0
 36  3  1  0
 20 11  1  0
 27 22  1  0
 35 30  2  0
 18 13  1  0
  1 38  1  0
  1 39  1  0
  1 40  1  0
  4 41  1  0
  7 42  1  0
  7 43  1  0
  7 44  1  0
 12 45  1  0
 12 46  1  0
 14 47  1  0
 17 48  1  0
 23 49  1  0
 24 50  1  0
 26 51  1  0
 27 52  1  0
 31 53  1  0
 34 54  1  0
 34 55  1  0
 34 56  1  0
 35 57  1  0
M  END
$$$$
[H]/C(C(=O)N1C([H])([H])C([H])([H])C([H])(N2C(=O)N(c3c(Cl)c(OC([H])([H])[H])c([H])c(OC([H])([H])[H])c3Cl)C([H])([H])c3c([H])nc(N([H])c4c([H])c([H])c([H])c([H])c4OC([H])([H])[H])nc32)C([H])([H])C1([H])[H])=C(/[H])C([H])([H])N(C([H])([H])[H])C([H])([H])[H]
     RDKit          3D

 83 87  0  0  0  0  0  0  0  0999 V2000
    1.3480   -7.3121    0.1842 C   0  0  0  0  0  0  0  0  0  0  0  0
    0.4326   -6.2439    0.0480 O   0  0  0  0  0  0  0  0  0  0  0  0
   -0.9185   -6.5479   -0.0983 C   0  0  0  0  0  0  0  0  0  0  0  0
   -1.3388   -7.8373   -0.1096 C   0  0  0  0  0  0  0  0  0  0  0  0
   -2.6847   -8.0930   -0.2565 C   0  0  0  0  0  0  0  0  0  0  0  0
   -3.5702   -7.0723   -0.3871 C   0  0  0  0  0  0  0  0  0  0  0  0
   -3.1028   -5.7587   -0.3716 C   0  0  0  0  0  0  0  0  0  0  0  0
   -1.7842   -5.4359   -0.2296 C   0  0  0  0  0  0  0  0  0  0  0  0
   -1.2660   -4.1486   -0.2087 N   0  0  0  0  0  0  0  0  0  0  0  0
   -1.9379   -2.9385   -0.3024 C   0  0  0  0  0  0  0  0  0  0  0  0
   -3.2460   -2.7781   -0.4340 N   0  0  0  0  0  0  0  0  0  0  0  0
   -3.9250   -1.6506   -0.5214 C   0  0  0  0  0  0  0  0  0  0  0  0
   -3.1753   -0.4652   -0.4694 C   0  0  0  0  0  0  0  0  0  0  0  0
   -3.9044    0.8050   -0.5688 C   0  0  0  0  0  0  0  0  0  0  0  0
   -3.0789    1.9838   -0.4733 N   0  0  0  0  0  0  0  0  0  0  0  0
   -1.6535    1.9223   -0.3327 C   0  0  0  0  0  0  0  0  0  0  0  0
   -0.9309    2.9350   -0.2671 O   0  0  0  0  0  0  0  0  0  0  0  0
   -1.0446    0.6501   -0.2655 N   0  0  0  0  0  0  0  0  0  0  0  0
    0.3650    0.4999   -0.1293 C   0  0  0  0  0  0  0  0  0  0  0  0
    1.0299    1.1264   -1.3460 C   0  0  0  0  0  0  0  0  0  0  0  0
    2.1894    1.9998   -0.9492 C   0  0  0  0  0  0  0  0  0  0  0  0
    3.0966    1.1898   -0.0931 N   0  0  0  0  0  0  0  0  0  0  0  0
    2.4544    0.6997    1.0989 C   0  0  0  0  0  0  0  0  0  0  0  0
    0.9915    1.1334    1.0681 C   0  0  0  0  0  0  0  0  0  0  0  0
    4.4269    0.9856   -0.4934 C   0  0  0  0  0  0  0  0  0  0  0  0
    4.7175    1.5680   -1.6221 O   0  0  0  0  0  0  0  0  0  0  0  0
    5.5011    0.2692    0.0987 C   0  0  0  0  0  0  0  0  0  0  0  0
    5.5659   -0.4188    1.2021 C   0  0  0  0  0  0  0  0  0  0  0  0
    6.7391   -1.1381    1.7485 C   0  0  0  0  0  0  0  0  0  0  0  0
    7.9298   -1.0129    0.9914 N   0  0  0  0  0  0  0  0  0  0  0  0
    8.5333    0.2948    1.0325 C   0  0  0  0  0  0  0  0  0  0  0  0
    8.8877   -1.9944    1.4686 C   0  0  0  0  0  0  0  0  0  0  0  0
   -1.8266   -0.5533   -0.3352 C   0  0  0  0  0  0  0  0  0  0  0  0
   -1.2257   -1.7540   -0.2543 N   0  0  0  0  0  0  0  0  0  0  0  0
   -3.7012    3.2613   -0.5218 C   0  0  0  0  0  0  0  0  0  0  0  0
   -4.3436    3.7247    0.5963 C   0  0  0  0  0  0  0  0  0  0  0  0
   -4.4000    2.7634    2.0800 Cl  0  0  0  0  0  0  0  0  0  0  0  0
   -4.9604    4.9694    0.5704 C   0  0  0  0  0  0  0  0  0  0  0  0
   -5.5989    5.3928    1.7318 O   0  0  0  0  0  0  0  0  0  0  0  0
   -6.2492    6.6439    1.7872 C   0  0  0  0  0  0  0  0  0  0  0  0
   -4.9481    5.7628   -0.5526 C   0  0  0  0  0  0  0  0  0  0  0  0
   -4.3006    5.2939   -1.6761 C   0  0  0  0  0  0  0  0  0  0  0  0
   -4.2748    6.0778   -2.8229 O   0  0  0  0  0  0  0  0  0  0  0  0
   -4.8727    7.3351   -2.9148 C   0  0  0  0  0  0  0  0  0  0  0  0
   -3.6855    4.0475   -1.6444 C   0  0  0  0  0  0  0  0  0  0  0  0
   -2.8810    3.5023   -3.0928 Cl  0  0  0  0  0  0  0  0  0  0  0  0
    1.3882   -7.9601   -0.7220 H   0  0  0  0  0  0  0  0  0  0  0  0
    1.0223   -7.9697    1.0439 H   0  0  0  0  0  0  0  0  0  0  0  0
    2.3585   -6.9439    0.4866 H   0  0  0  0  0  0  0  0  0  0  0  0
   -0.6024   -8.6333   -0.0028 H   0  0  0  0  0  0  0  0  0  0  0  0
   -2.9987   -9.1499   -0.2622 H   0  0  0  0  0  0  0  0  0  0  0  0
   -4.6159   -7.2387   -0.5019 H   0  0  0  0  0  0  0  0  0  0  0  0
   -3.8619   -4.9787   -0.4822 H   0  0  0  0  0  0  0  0  0  0  0  0
   -0.1948   -4.0569   -0.1070 H   0  0  0  0  0  0  0  0  0  0  0  0
   -4.9985   -1.5750   -0.6282 H   0  0  0  0  0  0  0  0  0  0  0  0
   -4.3847    0.8555   -1.5875 H   0  0  0  0  0  0  0  0  0  0  0  0
   -4.7117    0.8688    0.2014 H   0  0  0  0  0  0  0  0  0  0  0  0
    0.6428   -0.5809   -0.0955 H   0  0  0  0  0  0  0  0  0  0  0  0
    1.4718    0.3060   -1.9699 H   0  0  0  0  0  0  0  0  0  0  0  0
    0.3444    1.7353   -1.9581 H   0  0  0  0  0  0  0  0  0  0  0  0
    1.9456    2.9587   -0.5115 H   0  0  0  0  0  0  0  0  0  0  0  0
    2.7528    2.1906   -1.9026 H   0  0  0  0  0  0  0  0  0  0  0  0
    2.4631   -0.4279    1.0279 H   0  0  0  0  0  0  0  0  0  0  0  0
    2.9314    1.0666    2.0346 H   0  0  0  0  0  0  0  0  0  0  0  0
    0.9883    2.2333    1.0716 H   0  0  0  0  0  0  0  0  0  0  0  0
    0.5805    0.7162    2.0317 H   0  0  0  0  0  0  0  0  0  0  0  0
    6.4608    0.2743   -0.4739 H   0  0  0  0  0  0  0  0  0  0  0  0
    4.6612   -0.4789    1.7989 H   0  0  0  0  0  0  0  0  0  0  0  0
    6.9356   -0.6462    2.7509 H   0  0  0  0  0  0  0  0  0  0  0  0
    6.4893   -2.1882    2.0226 H   0  0  0  0  0  0  0  0  0  0  0  0
    8.8706    0.5873    0.0365 H   0  0  0  0  0  0  0  0  0  0  0  0
    9.4148    0.3162    1.7108 H   0  0  0  0  0  0  0  0  0  0  0  0
    7.7744    1.0309    1.3836 H   0  0  0  0  0  0  0  0  0  0  0  0
    8.7273   -2.9745    0.9876 H   0  0  0  0  0  0  0  0  0  0  0  0
    8.7959   -2.0523    2.5786 H   0  0  0  0  0  0  0  0  0  0  0  0
    9.9130   -1.6114    1.2457 H   0  0  0  0  0  0  0  0  0  0  0  0
   -5.5415    7.4710    1.7151 H   0  0  0  0  0  0  0  0  0  0  0  0
   -6.8616    6.6821    2.7287 H   0  0  0  0  0  0  0  0  0  0  0  0
   -6.9730    6.6529    0.9284 H   0  0  0  0  0  0  0  0  0  0  0  0
   -5.4391    6.7473   -0.5643 H   0  0  0  0  0  0  0  0  0  0  0  0
   -5.9774    7.2891   -3.0497 H   0  0  0  0  0  0  0  0  0  0  0  0
   -4.4765    7.8355   -3.8296 H   0  0  0  0  0  0  0  0  0  0  0  0
   -4.6738    7.9652   -2.0192 H   0  0  0  0  0  0  0  0  0  0  0  0
  1  2  1  0
  2  3  1  0
  3  4  2  0
  4  5  1  0
  5  6  2  0
  6  7  1  0
  7  8  2  0
  8  9  1  0
  9 10  1  0
 10 11  2  0
 11 12  1  0
 12 13  2  0
 13 14  1  0
 14 15  1  0
 15 16  1  0
 16 17  2  0
 16 18  1  0
 18 19  1  0
 19 20  1  0
 20 21  1  0
 21 22  1  0
 22 23  1  0
 23 24  1  0
 22 25  1  0
 25 26  2  0
 25 27  1  0
 27 28  2  0
 28 29  1  0
 29 30  1  0
 30 31  1  0
 30 32  1  0
 18 33  1  0
 33 34  2  0
 15 35  1  0
 35 36  2  0
 36 37  1  0
 36 38  1  0
 38 39  1  0
 39 40  1  0
 38 41  2  0
 41 42  1  0
 42 43  1  0
 43 44  1  0
 42 45  2  0
 45 46  1  0
  8  3  1  0
 34 10  1  0
 45 35  1  0
 33 13  1  0
 24 19  1  0
  1 47  1  0
  1 48  1  0
  1 49  1  0
  4 50  1  0
  5 51  1  0
  6 52  1  0
  7 53  1  0
  9 54  1  0
 12 55  1  0
 14 56  1  0
 14 57  1  0
 19 58  1  0
 20 59  1  0
 20 60  1  0
 21 61  1  0
 21 62  1  0
 23 63  1  0
 23 64  1  0
 24 65  1  0
 24 66  1  0
 27 67  1  0
 28 68  1  0
 29 69  1  0
 29 70  1  0
 31 71  1  0
 31 72  1  0
 31 73  1  0
 32 74  1  0
 32 75  1  0
 32 76  1  0
 40 77  1  0
 40 78  1  0
 40 79  1  0
 41 80  1  0
 44 81  1  0
 44 82  1  0
 44 83  1  0
M  END
$$$$
[H]c1nc(N([H])[H])c(-c2nn(-c3c([H])c(OC([H])([H])[H])c([H])c(OC([H])([H])[H])c3[H])c(=O)c([H])c2[H])c([H])c1-c1c([H])nn(C2([H])C([H])([H])C([H])([H])N(C([H])([H])[H])C([H])([H])C2([H])[H])c1[H]
     RDKit          3D

 65 69  0  0  0  0  0  0  0  0999 V2000
    8.2507    2.5059   -2.7060 C   0  0  0  0  0  0  0  0  0  0  0  0
    8.6192    1.4520   -1.8533 O   0  0  0  0  0  0  0  0  0  0  0  0
    7.7467    0.8363   -0.9695 C   0  0  0  0  0  0  0  0  0  0  0  0
    8.2425   -0.1878   -0.1898 C   0  0  0  0  0  0  0  0  0  0  0  0
    7.4416   -0.8600    0.7214 C   0  0  0  0  0  0  0  0  0  0  0  0
    7.9968   -1.8821    1.4782 O   0  0  0  0  0  0  0  0  0  0  0  0
    7.2825   -2.6214    2.4214 C   0  0  0  0  0  0  0  0  0  0  0  0
    6.1055   -0.4810    0.8415 C   0  0  0  0  0  0  0  0  0  0  0  0
    5.5809    0.5402    0.0747 C   0  0  0  0  0  0  0  0  0  0  0  0
    6.4264    1.1674   -0.8103 C   0  0  0  0  0  0  0  0  0  0  0  0
    4.2107    0.8906    0.2332 N   0  0  0  0  0  0  0  0  0  0  0  0
    3.2316    0.0279    0.1948 N   0  0  0  0  0  0  0  0  0  0  0  0
    1.9216    0.3280    0.3408 C   0  0  0  0  0  0  0  0  0  0  0  0
    1.5983    1.6420    0.5452 C   0  0  0  0  0  0  0  0  0  0  0  0
    2.5961    2.6294    0.5991 C   0  0  0  0  0  0  0  0  0  0  0  0
    3.8875    2.1809    0.4344 C   0  0  0  0  0  0  0  0  0  0  0  0
    4.8310    3.0250    0.4732 O   0  0  0  0  0  0  0  0  0  0  0  0
    0.8856   -0.6794    0.2878 C   0  0  0  0  0  0  0  0  0  0  0  0
   -0.4416   -0.3846    0.4297 C   0  0  0  0  0  0  0  0  0  0  0  0
   -1.4018   -1.3746    0.3735 C   0  0  0  0  0  0  0  0  0  0  0  0
   -0.9813   -2.6709    0.1698 C   0  0  0  0  0  0  0  0  0  0  0  0
    0.3164   -2.9959    0.0262 N   0  0  0  0  0  0  0  0  0  0  0  0
    1.2455   -2.0111    0.0841 C   0  0  0  0  0  0  0  0  0  0  0  0
    2.6270   -2.2831   -0.0592 N   0  0  0  0  0  0  0  0  0  0  0  0
   -2.8251   -1.0788    0.5223 C   0  0  0  0  0  0  0  0  0  0  0  0
   -3.7902   -1.9011    1.0646 C   0  0  0  0  0  0  0  0  0  0  0  0
   -4.9592   -1.2501    1.0096 N   0  0  0  0  0  0  0  0  0  0  0  0
   -4.8137   -0.0606    0.4672 N   0  0  0  0  0  0  0  0  0  0  0  0
   -3.5147    0.0761    0.1567 C   0  0  0  0  0  0  0  0  0  0  0  0
   -5.8768    0.9013    0.2562 C   0  0  0  0  0  0  0  0  0  0  0  0
   -6.0172    1.1210   -1.2263 C   0  0  0  0  0  0  0  0  0  0  0  0
   -7.4708    1.2056   -1.6377 C   0  0  0  0  0  0  0  0  0  0  0  0
   -8.1514   -0.0542   -1.4120 N   0  0  0  0  0  0  0  0  0  0  0  0
   -9.5525    0.0124   -1.6833 C   0  0  0  0  0  0  0  0  0  0  0  0
   -7.8210   -0.6345   -0.1355 C   0  0  0  0  0  0  0  0  0  0  0  0
   -7.1809    0.3541    0.8061 C   0  0  0  0  0  0  0  0  0  0  0  0
    7.4788    3.1784   -2.2673 H   0  0  0  0  0  0  0  0  0  0  0  0
    9.1661    3.1417   -2.8373 H   0  0  0  0  0  0  0  0  0  0  0  0
    7.9552    2.1688   -3.6998 H   0  0  0  0  0  0  0  0  0  0  0  0
    9.2782   -0.4975   -0.2680 H   0  0  0  0  0  0  0  0  0  0  0  0
    7.9264   -3.4413    2.7952 H   0  0  0  0  0  0  0  0  0  0  0  0
    6.3882   -3.1198    1.9618 H   0  0  0  0  0  0  0  0  0  0  0  0
    6.9744   -2.0242    3.3050 H   0  0  0  0  0  0  0  0  0  0  0  0
    5.4737   -0.9889    1.5393 H   0  0  0  0  0  0  0  0  0  0  0  0
    6.0226    1.9623   -1.4089 H   0  0  0  0  0  0  0  0  0  0  0  0
    0.5923    2.0137    0.6766 H   0  0  0  0  0  0  0  0  0  0  0  0
    2.3433    3.6615    0.7596 H   0  0  0  0  0  0  0  0  0  0  0  0
   -0.8015    0.6211    0.5902 H   0  0  0  0  0  0  0  0  0  0  0  0
   -1.7559   -3.4544    0.1265 H   0  0  0  0  0  0  0  0  0  0  0  0
    3.2381   -2.5037    0.7474 H   0  0  0  0  0  0  0  0  0  0  0  0
    3.0408   -2.2602   -1.0081 H   0  0  0  0  0  0  0  0  0  0  0  0
   -3.6437   -2.8906    1.4640 H   0  0  0  0  0  0  0  0  0  0  0  0
   -3.0289    0.9213   -0.3025 H   0  0  0  0  0  0  0  0  0  0  0  0
   -5.6111    1.8626    0.7442 H   0  0  0  0  0  0  0  0  0  0  0  0
   -5.5732    0.2564   -1.7465 H   0  0  0  0  0  0  0  0  0  0  0  0
   -5.5456    2.0782   -1.5443 H   0  0  0  0  0  0  0  0  0  0  0  0
   -8.0058    1.9807   -1.0605 H   0  0  0  0  0  0  0  0  0  0  0  0
   -7.5271    1.4356   -2.7132 H   0  0  0  0  0  0  0  0  0  0  0  0
   -9.9006    0.9740   -2.0653 H   0  0  0  0  0  0  0  0  0  0  0  0
  -10.0989   -0.2389   -0.7315 H   0  0  0  0  0  0  0  0  0  0  0  0
   -9.8100   -0.7827   -2.4367 H   0  0  0  0  0  0  0  0  0  0  0  0
   -7.2165   -1.5479   -0.2537 H   0  0  0  0  0  0  0  0  0  0  0  0
   -8.7826   -0.9408    0.3367 H   0  0  0  0  0  0  0  0  0  0  0  0
   -6.9325   -0.2026    1.7387 H   0  0  0  0  0  0  0  0  0  0  0  0
   -7.8902    1.1519    1.1052 H   0  0  0  0  0  0  0  0  0  0  0  0
  1  2  1  0
  2  3  1  0
  3  4  2  0
  4  5  1  0
  5  6  1  0
  6  7  1  0
  5  8  2  0
  8  9  1  0
  9 10  2  0
  9 11  1  0
 11 12  1  0
 12 13  2  0
 13 14  1  0
 14 15  2  0
 15 16  1  0
 16 17  2  0
 13 18  1  0
 18 19  2  0
 19 20  1  0
 20 21  2  0
 21 22  1  0
 22 23  2  0
 23 24  1  0
 20 25  1  0
 25 26  1  0
 26 27  2  0
 27 28  1  0
 28 29  1  0
 28 30  1  0
 30 31  1  0
 31 32  1  0
 32 33  1  0
 33 34  1  0
 33 35  1  0
 35 36  1  0
 10  3  1  0
 16 11  1  0
 23 18  1  0
 29 25  2  0
 36 30  1  0
  1 37  1  0
  1 38  1  0
  1 39  1  0
  4 40  1  0
  7 41  1  0
  7 42  1  0
  7 43  1  0
  8 44  1  0
 10 45  1  0
 14 46  1  0
 15 47  1  0
 19 48  1  0
 21 49  1  0
 24 50  1  0
 24 51  1  0
 26 52  1  0
 29 53  1  0
 30 54  1  0
 31 55  1  0
 31 56  1  0
 32 57  1  0
 32 58  1  0
 34 59  1  0
 34 60  1  0
 34 61  1  0
 35 62  1  0
 35 63  1  0
 36 64  1  0
 36 65  1  0
M  END
$$$$
[H]OC(C([H])([H])[H])(C([H])([H])[H])C([H])([H])N([H])c1nc([H])c2c([H])c(-c3c(Cl)c(OC([H])([H])[H])c([H])c(OC([H])([H])[H])c3Cl)c(=O)n(C([H])([H])C([H])([H])C([H])([H])N3C([H])([H])C([H])([H])N(C(=O)C([H])=C([H])[H])C([H])([H])C3([H])[H])c2n1
     RDKit          3D

 78 81  0  0  0  0  0  0  0  0999 V2000
   -6.3412    6.4846   -1.4591 C   0  0  0  0  0  0  0  0  0  0  0  0
   -5.8217    5.1770   -1.4938 O   0  0  0  0  0  0  0  0  0  0  0  0
   -4.7836    4.7615   -0.6728 C   0  0  0  0  0  0  0  0  0  0  0  0
   -4.1824    5.5998    0.2394 C   0  0  0  0  0  0  0  0  0  0  0  0
   -3.1469    5.2183    1.0714 C   0  0  0  0  0  0  0  0  0  0  0  0
   -2.5555    6.0825    1.9847 O   0  0  0  0  0  0  0  0  0  0  0  0
   -3.0599    7.4077    2.0412 C   0  0  0  0  0  0  0  0  0  0  0  0
   -2.7051    3.8986    0.9578 C   0  0  0  0  0  0  0  0  0  0  0  0
   -1.3894    3.4227    2.0190 Cl  0  0  0  0  0  0  0  0  0  0  0  0
   -3.2737    3.0271    0.0631 C   0  0  0  0  0  0  0  0  0  0  0  0
   -4.3000    3.4471   -0.7445 C   0  0  0  0  0  0  0  0  0  0  0  0
   -5.0701    2.3871   -1.9071 Cl  0  0  0  0  0  0  0  0  0  0  0  0
   -2.7835    1.6698   -0.0215 C   0  0  0  0  0  0  0  0  0  0  0  0
   -3.3613    0.7173    0.7855 C   0  0  0  0  0  0  0  0  0  0  0  0
   -2.9099   -0.5672    0.7195 C   0  0  0  0  0  0  0  0  0  0  0  0
   -3.4819   -1.5390    1.5127 C   0  0  0  0  0  0  0  0  0  0  0  0
   -3.0060   -2.7885    1.4002 N   0  0  0  0  0  0  0  0  0  0  0  0
   -2.0129   -3.1451    0.5668 C   0  0  0  0  0  0  0  0  0  0  0  0
   -1.5559   -4.5083    0.5002 N   0  0  0  0  0  0  0  0  0  0  0  0
   -0.5008   -4.9197   -0.3766 C   0  0  0  0  0  0  0  0  0  0  0  0
   -0.2054   -6.3976   -0.2699 C   0  0  0  0  0  0  0  0  0  0  0  0
    0.9430   -6.7002   -1.2227 C   0  0  0  0  0  0  0  0  0  0  0  0
   -1.3705   -7.2531   -0.6992 C   0  0  0  0  0  0  0  0  0  0  0  0
    0.1772   -6.7312    1.0178 O   0  0  0  0  0  0  0  0  0  0  0  0
   -1.4671   -2.1884   -0.1974 N   0  0  0  0  0  0  0  0  0  0  0  0
   -1.8855   -0.8912   -0.1508 C   0  0  0  0  0  0  0  0  0  0  0  0
   -1.3062    0.0174   -0.9463 N   0  0  0  0  0  0  0  0  0  0  0  0
   -0.2252   -0.3167   -1.8365 C   0  0  0  0  0  0  0  0  0  0  0  0
    1.1444   -0.1092   -1.3142 C   0  0  0  0  0  0  0  0  0  0  0  0
    1.5192   -0.8823   -0.0841 C   0  0  0  0  0  0  0  0  0  0  0  0
    2.8883   -0.5605    0.3073 N   0  0  0  0  0  0  0  0  0  0  0  0
    2.9855    0.8218    0.7850 C   0  0  0  0  0  0  0  0  0  0  0  0
    4.2507    0.9270    1.5492 C   0  0  0  0  0  0  0  0  0  0  0  0
    5.3873    0.3477    0.8512 N   0  0  0  0  0  0  0  0  0  0  0  0
    5.2380   -0.5019   -0.2758 C   0  0  0  0  0  0  0  0  0  0  0  0
    3.8270   -0.6423   -0.7709 C   0  0  0  0  0  0  0  0  0  0  0  0
    6.6832    0.7020    1.3754 C   0  0  0  0  0  0  0  0  0  0  0  0
    6.6549    1.5381    2.3997 O   0  0  0  0  0  0  0  0  0  0  0  0
    7.9820    0.3172    0.9937 C   0  0  0  0  0  0  0  0  0  0  0  0
    8.3788   -0.4747    0.0706 C   0  0  0  0  0  0  0  0  0  0  0  0
   -1.7645    1.2860   -0.8702 C   0  0  0  0  0  0  0  0  0  0  0  0
   -1.2577    2.1925   -1.5981 O   0  0  0  0  0  0  0  0  0  0  0  0
   -7.3270    6.5761   -1.9187 H   0  0  0  0  0  0  0  0  0  0  0  0
   -6.4537    6.7923   -0.3893 H   0  0  0  0  0  0  0  0  0  0  0  0
   -5.5766    7.1707   -1.9237 H   0  0  0  0  0  0  0  0  0  0  0  0
   -4.5442    6.6252    0.3102 H   0  0  0  0  0  0  0  0  0  0  0  0
   -4.1647    7.4140    2.2139 H   0  0  0  0  0  0  0  0  0  0  0  0
   -2.8640    7.9527    1.0889 H   0  0  0  0  0  0  0  0  0  0  0  0
   -2.5891    7.9259    2.9050 H   0  0  0  0  0  0  0  0  0  0  0  0
   -4.1615    0.9559    1.4706 H   0  0  0  0  0  0  0  0  0  0  0  0
   -4.2750   -1.2334    2.1725 H   0  0  0  0  0  0  0  0  0  0  0  0
   -2.0052   -5.2255    1.1091 H   0  0  0  0  0  0  0  0  0  0  0  0
   -0.7520   -4.6692   -1.4246 H   0  0  0  0  0  0  0  0  0  0  0  0
    0.4307   -4.3927   -0.0607 H   0  0  0  0  0  0  0  0  0  0  0  0
    1.9232   -6.6619   -0.7307 H   0  0  0  0  0  0  0  0  0  0  0  0
    0.8717   -6.0316   -2.1189 H   0  0  0  0  0  0  0  0  0  0  0  0
    0.8195   -7.7328   -1.6225 H   0  0  0  0  0  0  0  0  0  0  0  0
   -2.1510   -7.3280    0.0623 H   0  0  0  0  0  0  0  0  0  0  0  0
   -1.7171   -6.9032   -1.6804 H   0  0  0  0  0  0  0  0  0  0  0  0
   -0.9637   -8.2909   -0.8542 H   0  0  0  0  0  0  0  0  0  0  0  0
   -0.5649   -7.2324    1.4401 H   0  0  0  0  0  0  0  0  0  0  0  0
   -0.3036   -1.3656   -2.1960 H   0  0  0  0  0  0  0  0  0  0  0  0
   -0.3712    0.3054   -2.7454 H   0  0  0  0  0  0  0  0  0  0  0  0
    1.4108    0.9669   -1.2208 H   0  0  0  0  0  0  0  0  0  0  0  0
    1.8482   -0.4842   -2.1206 H   0  0  0  0  0  0  0  0  0  0  0  0
    0.8891   -0.5866    0.7705 H   0  0  0  0  0  0  0  0  0  0  0  0
    1.5322   -1.9664   -0.3031 H   0  0  0  0  0  0  0  0  0  0  0  0
    2.1037    1.0540    1.3957 H   0  0  0  0  0  0  0  0  0  0  0  0
    3.0106    1.5235   -0.0751 H   0  0  0  0  0  0  0  0  0  0  0  0
    4.1749    0.4656    2.5595 H   0  0  0  0  0  0  0  0  0  0  0  0
    4.4455    2.0174    1.7215 H   0  0  0  0  0  0  0  0  0  0  0  0
    5.8508   -0.0997   -1.1510 H   0  0  0  0  0  0  0  0  0  0  0  0
    5.6503   -1.5162    0.0158 H   0  0  0  0  0  0  0  0  0  0  0  0
    3.6736    0.1560   -1.5349 H   0  0  0  0  0  0  0  0  0  0  0  0
    3.7125   -1.6321   -1.2862 H   0  0  0  0  0  0  0  0  0  0  0  0
    8.8282    0.7783    1.5956 H   0  0  0  0  0  0  0  0  0  0  0  0
    7.7966   -1.0189   -0.6142 H   0  0  0  0  0  0  0  0  0  0  0  0
    9.4768   -0.6421   -0.0648 H   0  0  0  0  0  0  0  0  0  0  0  0
  1  2  1  0
  2  3  1  0
  3  4  2  0
  4  5  1  0
  5  6  1  0
  6  7  1  0
  5  8  2  0
  8  9  1  0
  8 10  1  0
 10 11  2  0
 11 12  1  0
 10 13  1  0
 13 14  2  0
 14 15  1  0
 15 16  2  0
 16 17  1  0
 17 18  2  0
 18 19  1  0
 19 20  1  0
 20 21  1  0
 21 22  1  0
 21 23  1  0
 21 24  1  0
 18 25  1  0
 25 26  2  0
 26 27  1  0
 27 28  1  0
 28 29  1  0
 29 30  1  0
 30 31  1  0
 31 32  1  0
 32 33  1  0
 33 34  1  0
 34 35  1  0
 35 36  1  0
 34 37  1  0
 37 38  2  0
 37 39  1  0
 39 40  2  3
 27 41  1  0
 41 42  2  0
 11  3  1  0
 41 13  1  0
 26 15  1  0
 36 31  1  0
  1 43  1  0
  1 44  1  0
  1 45  1  0
  4 46  1  0
  7 47  1  0
  7 48  1  0
  7 49  1  0
 14 50  1  0
 16 51  1  0
 19 52  1  0
 20 53  1  0
 20 54  1  0
 22 55  1  0
 22 56  1  0
 22 57  1  0
 23 58  1  0
 23 59  1  0
 23 60  1  0
 24 61  1  0
 28 62  1  0
 28 63  1  0
 29 64  1  0
 29 65  1  0
 30 66  1  0
 30 67  1  0
 32 68  1  0
 32 69  1  0
 33 70  1  0
 33 71  1  0
 35 72  1  0
 35 73  1  0
 36 74  1  0
 36 75  1  0
 39 76  1  0
 40 77  1  0
 40 78  1  0
M  END
$$$$
[H]O[C@@]1([H])C([H])([H])N(C([H])([H])/C([H])=C(\[H])C(=O)N2C([H])([H])C([H])(n3c([H])c(C#Cc4c([H])c(OC([H])([H])[H])c([H])c(OC([H])([H])[H])c4[H])c4c(N([H])[H])nc([H])nc43)C2([H])[H])C([H])([H])C1([H])[H]
     RDKit          3D

 67 71  0  0  0  0  0  0  0  0999 V2000
    9.6186   -0.8939    0.1762 C   0  0  0  0  0  0  0  0  0  0  0  0
    9.4357    0.5089    0.2837 O   0  0  0  0  0  0  0  0  0  0  0  0
    8.1816    1.0972    0.2383 C   0  0  0  0  0  0  0  0  0  0  0  0
    8.0577    2.4651    0.3473 C   0  0  0  0  0  0  0  0  0  0  0  0
    6.8271    3.0865    0.3065 C   0  0  0  0  0  0  0  0  0  0  0  0
    6.6884    4.4608    0.4146 O   0  0  0  0  0  0  0  0  0  0  0  0
    5.4110    5.0549    0.3685 C   0  0  0  0  0  0  0  0  0  0  0  0
    5.7004    2.3066    0.1525 C   0  0  0  0  0  0  0  0  0  0  0  0
    5.7729    0.9211    0.0381 C   0  0  0  0  0  0  0  0  0  0  0  0
    7.0302    0.3546    0.0855 C   0  0  0  0  0  0  0  0  0  0  0  0
    4.5725    0.1358   -0.1260 C   0  0  0  0  0  0  0  0  0  0  0  0
    3.5634   -0.5133   -0.2838 C   0  0  0  0  0  0  0  0  0  0  0  0
    2.3522   -1.2864   -0.5048 C   0  0  0  0  0  0  0  0  0  0  0  0
    1.0865   -0.8122   -0.7112 C   0  0  0  0  0  0  0  0  0  0  0  0
    0.2496   -1.8692   -0.8800 N   0  0  0  0  0  0  0  0  0  0  0  0
   -1.1560   -1.6666   -1.1234 C   0  0  0  0  0  0  0  0  0  0  0  0
   -2.0501   -2.8573   -1.1078 C   0  0  0  0  0  0  0  0  0  0  0  0
   -3.0540   -2.0205   -0.4868 N   0  0  0  0  0  0  0  0  0  0  0  0
   -1.9626   -1.3035    0.1356 C   0  0  0  0  0  0  0  0  0  0  0  0
   -4.4573   -1.9434   -0.4954 C   0  0  0  0  0  0  0  0  0  0  0  0
   -5.0870   -2.7946   -1.2237 O   0  0  0  0  0  0  0  0  0  0  0  0
   -5.2214   -0.9736    0.2600 C   0  0  0  0  0  0  0  0  0  0  0  0
   -6.5353   -0.9380    0.2205 C   0  0  0  0  0  0  0  0  0  0  0  0
   -7.3144    0.0522    0.9931 C   0  0  0  0  0  0  0  0  0  0  0  0
   -8.1289    0.9060    0.1342 N   0  0  0  0  0  0  0  0  0  0  0  0
   -8.8639    1.8124    1.0077 C   0  0  0  0  0  0  0  0  0  0  0  0
   -7.8596    2.9031    1.3410 C   0  0  0  0  0  0  0  0  0  0  0  0
   -7.0179    3.0123    0.0870 C   0  0  1  0  0  0  0  0  0  0  0  0
   -5.6697    3.1469    0.4255 O   0  0  0  0  0  0  0  0  0  0  0  0
   -7.2624    1.7273   -0.6803 C   0  0  0  0  0  0  0  0  0  0  0  0
    0.9891   -2.9857   -0.7790 C   0  0  0  0  0  0  0  0  0  0  0  0
    0.6711   -4.2781   -0.8628 N   0  0  0  0  0  0  0  0  0  0  0  0
    1.6357   -5.2004   -0.7168 C   0  0  0  0  0  0  0  0  0  0  0  0
    2.9229   -4.8941   -0.4875 N   0  0  0  0  0  0  0  0  0  0  0  0
    3.2989   -3.6048   -0.3940 C   0  0  0  0  0  0  0  0  0  0  0  0
    4.6492   -3.2550   -0.1522 N   0  0  0  0  0  0  0  0  0  0  0  0
    2.3119   -2.6467   -0.5428 C   0  0  0  0  0  0  0  0  0  0  0  0
    8.8730   -1.4053    0.8404 H   0  0  0  0  0  0  0  0  0  0  0  0
   10.6126   -1.2149    0.5027 H   0  0  0  0  0  0  0  0  0  0  0  0
    9.3872   -1.2750   -0.8454 H   0  0  0  0  0  0  0  0  0  0  0  0
    8.9797    3.0525    0.4695 H   0  0  0  0  0  0  0  0  0  0  0  0
    4.7223    4.5679    1.0873 H   0  0  0  0  0  0  0  0  0  0  0  0
    4.9995    4.8510   -0.6588 H   0  0  0  0  0  0  0  0  0  0  0  0
    5.4480    6.1424    0.5574 H   0  0  0  0  0  0  0  0  0  0  0  0
    4.6978    2.7460    0.1140 H   0  0  0  0  0  0  0  0  0  0  0  0
    7.1002   -0.7350   -0.0020 H   0  0  0  0  0  0  0  0  0  0  0  0
    0.8363    0.2280   -0.7290 H   0  0  0  0  0  0  0  0  0  0  0  0
   -1.3905   -0.8931   -1.8871 H   0  0  0  0  0  0  0  0  0  0  0  0
   -2.3232   -3.2443   -2.1128 H   0  0  0  0  0  0  0  0  0  0  0  0
   -1.7378   -3.6362   -0.4075 H   0  0  0  0  0  0  0  0  0  0  0  0
   -2.1005   -0.2268    0.2701 H   0  0  0  0  0  0  0  0  0  0  0  0
   -1.5230   -1.8308    1.0173 H   0  0  0  0  0  0  0  0  0  0  0  0
   -4.7013   -0.2598    0.8722 H   0  0  0  0  0  0  0  0  0  0  0  0
   -7.1114   -1.6495   -0.3946 H   0  0  0  0  0  0  0  0  0  0  0  0
   -6.6632    0.7113    1.5853 H   0  0  0  0  0  0  0  0  0  0  0  0
   -8.0586   -0.4543    1.6776 H   0  0  0  0  0  0  0  0  0  0  0  0
   -9.1635    1.3254    1.9609 H   0  0  0  0  0  0  0  0  0  0  0  0
   -9.7444    2.2103    0.4717 H   0  0  0  0  0  0  0  0  0  0  0  0
   -8.3676    3.8453    1.5617 H   0  0  0  0  0  0  0  0  0  0  0  0
   -7.2527    2.5704    2.2160 H   0  0  0  0  0  0  0  0  0  0  0  0
   -7.3155    3.9062   -0.4970 H   0  0  0  0  0  0  0  0  0  0  0  0
   -5.1425    2.7705   -0.3460 H   0  0  0  0  0  0  0  0  0  0  0  0
   -6.3231    1.2168   -0.9740 H   0  0  0  0  0  0  0  0  0  0  0  0
   -7.8425    1.9693   -1.6049 H   0  0  0  0  0  0  0  0  0  0  0  0
    1.3755   -6.2529   -0.7842 H   0  0  0  0  0  0  0  0  0  0  0  0
    5.2753   -3.1989   -0.9834 H   0  0  0  0  0  0  0  0  0  0  0  0
    5.0678   -3.0511    0.7698 H   0  0  0  0  0  0  0  0  0  0  0  0
  1  2  1  0
  2  3  1  0
  3  4  2  0
  4  5  1  0
  5  6  1  0
  6  7  1  0
  5  8  2  0
  8  9  1  0
  9 10  2  0
  9 11  1  0
 11 12  3  0
 12 13  1  0
 13 14  2  0
 14 15  1  0
 15 16  1  0
 16 17  1  0
 17 18  1  0
 18 19  1  0
 18 20  1  0
 20 21  2  0
 20 22  1  0
 22 23  2  0
 23 24  1  0
 24 25  1  0
 25 26  1  0
 26 27  1  0
 27 28  1  0
 28 29  1  0
 28 30  1  0
 15 31  1  0
 31 32  2  0
 32 33  1  0
 33 34  2  0
 34 35  1  0
 35 36  1  0
 35 37  2  0
 10  3  1  0
 37 13  1  0
 19 16  1  0
 30 25  1  0
 37 31  1  0
  1 38  1  0
  1 39  1  0
  1 40  1  0
  4 41  1  0
  7 42  1  0
  7 43  1  0
  7 44  1  0
  8 45  1  0
 10 46  1  0
 14 47  1  0
 16 48  1  0
 17 49  1  0
 17 50  1  0
 19 51  1  0
 19 52  1  0
 22 53  1  0
 23 54  1  0
 24 55  1  0
 24 56  1  0
 26 57  1  0
 26 58  1  0
 27 59  1  0
 27 60  1  0
 28 61  1  6
 29 62  1  0
 30 63  1  0
 30 64  1  0
 33 65  1  0
 36 66  1  0
 36 67  1  0
M  END
$$$$
[H]c1nc(-c2c(C([H])([H])[H])nn(C([H])([H])[H])c2[H])c([H])c2c1C([H])([H])N(c1c(F)c(OC([H])([H])[H])c([H])c(OC([H])([H])[H])c1F)C(=O)N2c1c([H])c([H])c(S(=O)(=O)C([H])([H])[H])c([H])c1[H]
     RDKit          3D

 65 69  0  0  0  0  0  0  0  0999 V2000
    7.3110   -0.9959    2.9279 C   0  0  0  0  0  0  0  0  0  0  0  0
    6.4603   -0.7939    1.9624 O   0  0  0  0  0  0  0  0  0  0  0  0
    5.7064   -0.5636    0.9615 C   0  0  0  0  0  0  0  0  0  0  0  0
    6.2811   -0.0587   -0.2244 C   0  0  0  0  0  0  0  0  0  0  0  0
    5.5537    0.2163   -1.3417 C   0  0  0  0  0  0  0  0  0  0  0  0
    6.1400    0.7129   -2.4995 O   0  0  0  0  0  0  0  0  0  0  0  0
    7.5355    0.9367   -2.5095 C   0  0  0  0  0  0  0  0  0  0  0  0
    4.1917    0.0071   -1.3589 C   0  0  0  0  0  0  0  0  0  0  0  0
    3.4907    0.2904   -2.4864 F   0  0  0  0  0  0  0  0  0  0  0  0
    3.5806   -0.4846   -0.2267 C   0  0  0  0  0  0  0  0  0  0  0  0
    2.1532   -0.6987   -0.2064 N   0  0  0  0  0  0  0  0  0  0  0  0
    1.6325   -2.0394   -0.1738 C   0  0  0  0  0  0  0  0  0  0  0  0
    0.1526   -2.0908   -0.1243 C   0  0  0  0  0  0  0  0  0  0  0  0
   -0.4197   -3.3668   -0.0691 C   0  0  0  0  0  0  0  0  0  0  0  0
   -1.7429   -3.4845   -0.0269 N   0  0  0  0  0  0  0  0  0  0  0  0
   -2.6115   -2.4275   -0.0342 C   0  0  0  0  0  0  0  0  0  0  0  0
   -2.0410   -1.2028   -0.0872 C   0  0  0  0  0  0  0  0  0  0  0  0
   -0.6590   -1.0115   -0.1331 C   0  0  0  0  0  0  0  0  0  0  0  0
   -0.1218    0.3080   -0.1799 N   0  0  0  0  0  0  0  0  0  0  0  0
    1.2925    0.4470   -0.2167 C   0  0  0  0  0  0  0  0  0  0  0  0
    1.8341    1.5863   -0.2592 O   0  0  0  0  0  0  0  0  0  0  0  0
   -0.9533    1.4541   -0.1839 C   0  0  0  0  0  0  0  0  0  0  0  0
   -1.2404    2.1829   -1.3109 C   0  0  0  0  0  0  0  0  0  0  0  0
   -2.0657    3.2994   -1.2165 C   0  0  0  0  0  0  0  0  0  0  0  0
   -2.6026    3.6895   -0.0096 C   0  0  0  0  0  0  0  0  0  0  0  0
   -2.3063    2.9498    1.1100 C   0  0  0  0  0  0  0  0  0  0  0  0
   -1.4804    1.8250    1.0396 C   0  0  0  0  0  0  0  0  0  0  0  0
   -3.6369    5.0879    0.1201 S   0  0  0  0  0  0  0  0  0  0  0  0
   -2.6726    6.5642    0.4628 C   0  0  0  0  0  0  0  0  0  0  0  0
   -4.3422    5.3023   -1.1846 O   0  0  0  0  0  0  0  0  0  0  0  0
   -4.6149    4.9472    1.2587 O   0  0  0  0  0  0  0  0  0  0  0  0
   -4.0352   -2.7013    0.0370 C   0  0  0  0  0  0  0  0  0  0  0  0
   -4.6089   -3.9528    0.3188 C   0  0  0  0  0  0  0  0  0  0  0  0
   -5.9434   -3.8744    0.2841 N   0  0  0  0  0  0  0  0  0  0  0  0
   -6.8508   -5.0028    0.5352 C   0  0  0  0  0  0  0  0  0  0  0  0
   -6.2296   -2.6426   -0.0043 N   0  0  0  0  0  0  0  0  0  0  0  0
   -5.1088   -1.8793   -0.1673 C   0  0  0  0  0  0  0  0  0  0  0  0
   -5.1501   -0.4585   -0.5165 C   0  0  0  0  0  0  0  0  0  0  0  0
    4.3184   -0.7580    0.8895 C   0  0  0  0  0  0  0  0  0  0  0  0
    3.7230   -1.2406    1.9967 F   0  0  0  0  0  0  0  0  0  0  0  0
    8.3646   -0.6859    2.6088 H   0  0  0  0  0  0  0  0  0  0  0  0
    7.1904   -0.4253    3.8893 H   0  0  0  0  0  0  0  0  0  0  0  0
    7.4723   -2.0963    3.1809 H   0  0  0  0  0  0  0  0  0  0  0  0
    7.3678    0.1233   -0.2554 H   0  0  0  0  0  0  0  0  0  0  0  0
    7.8694    1.3730   -3.4709 H   0  0  0  0  0  0  0  0  0  0  0  0
    8.0411   -0.0558   -2.4309 H   0  0  0  0  0  0  0  0  0  0  0  0
    7.8002    1.5651   -1.6416 H   0  0  0  0  0  0  0  0  0  0  0  0
    1.9245   -2.5861   -1.1050 H   0  0  0  0  0  0  0  0  0  0  0  0
    1.9862   -2.5817    0.7353 H   0  0  0  0  0  0  0  0  0  0  0  0
    0.2307   -4.2385   -0.0633 H   0  0  0  0  0  0  0  0  0  0  0  0
   -2.6353   -0.3227   -0.0830 H   0  0  0  0  0  0  0  0  0  0  0  0
   -0.8178    1.8819   -2.2747 H   0  0  0  0  0  0  0  0  0  0  0  0
   -2.3041    3.8861   -2.0929 H   0  0  0  0  0  0  0  0  0  0  0  0
   -2.7074    3.2284    2.0536 H   0  0  0  0  0  0  0  0  0  0  0  0
   -1.2835    1.2845    1.9512 H   0  0  0  0  0  0  0  0  0  0  0  0
   -2.2222    6.8667   -0.4934 H   0  0  0  0  0  0  0  0  0  0  0  0
   -1.9171    6.3461    1.2573 H   0  0  0  0  0  0  0  0  0  0  0  0
   -3.4066    7.3087    0.8476 H   0  0  0  0  0  0  0  0  0  0  0  0
   -4.0012   -4.8274    0.5293 H   0  0  0  0  0  0  0  0  0  0  0  0
   -7.9015   -4.6604    0.5540 H   0  0  0  0  0  0  0  0  0  0  0  0
   -6.5515   -5.5749    1.4356 H   0  0  0  0  0  0  0  0  0  0  0  0
   -6.7692   -5.6831   -0.3551 H   0  0  0  0  0  0  0  0  0  0  0  0
   -6.2110   -0.1967   -0.8238 H   0  0  0  0  0  0  0  0  0  0  0  0
   -4.9026    0.1989    0.3201 H   0  0  0  0  0  0  0  0  0  0  0  0
   -4.5353   -0.2059   -1.4256 H   0  0  0  0  0  0  0  0  0  0  0  0
  1  2  1  0
  2  3  1  0
  3  4  2  0
  4  5  1  0
  5  6  1  0
  6  7  1  0
  5  8  2  0
  8  9  1  0
  8 10  1  0
 10 11  1  0
 11 12  1  0
 12 13  1  0
 13 14  2  0
 14 15  1  0
 15 16  2  0
 16 17  1  0
 17 18  2  0
 18 19  1  0
 19 20  1  0
 20 21  2  0
 19 22  1  0
 22 23  2  0
 23 24  1  0
 24 25  2  0
 25 26  1  0
 26 27  2  0
 25 28  1  0
 28 29  1  0
 28 30  2  0
 28 31  2  0
 16 32  1  0
 32 33  2  0
 33 34  1  0
 34 35  1  0
 34 36  1  0
 36 37  2  0
 37 38  1  0
 10 39  2  0
 39 40  1  0
 39  3  1  0
 20 11  1  0
 27 22  1  0
 37 32  1  0
 18 13  1  0
  1 41  1  0
  1 42  1  0
  1 43  1  0
  4 44  1  0
  7 45  1  0
  7 46  1  0
  7 47  1  0
 12 48  1  0
 12 49  1  0
 14 50  1  0
 17 51  1  0
 23 52  1  0
 24 53  1  0
 26 54  1  0
 27 55  1  0
 29 56  1  0
 29 57  1  0
 29 58  1  0
 33 59  1  0
 35 60  1  0
 35 61  1  0
 35 62  1  0
 38 63  1  0
 38 64  1  0
 38 65  1  0
M  END
$$$$
[H]c1c(F)c(C([H])([H])Oc2nsc(N([H])C(=O)N([H])C([H])([H])C([H])([H])C([H])([H])C([H])([H])N3C([H])([H])C([H])([H])C([H])([H])C3([H])[H])c2C(=O)N([H])[H])c(F)c([H])c1Br
     RDKit          3D

 56 58  0  0  0  0  0  0  0  0999 V2000
    4.4757    2.5014    0.1819 N   0  0  0  0  0  0  0  0  0  0  0  0
    3.0883    2.6109    0.0297 C   0  0  0  0  0  0  0  0  0  0  0  0
    2.5744    3.7492    0.0346 O   0  0  0  0  0  0  0  0  0  0  0  0
    2.2772    1.3677   -0.1322 C   0  0  0  0  0  0  0  0  0  0  0  0
    0.9113    1.4317   -0.2857 C   0  0  0  0  0  0  0  0  0  0  0  0
    0.0285    2.5599   -0.3255 N   0  0  0  0  0  0  0  0  0  0  0  0
   -1.4001    2.2931   -0.5038 C   0  0  0  0  0  0  0  0  0  0  0  0
   -1.6724    1.0888   -0.6008 O   0  0  0  0  0  0  0  0  0  0  0  0
   -2.2264    3.4049   -0.5378 N   0  0  0  0  0  0  0  0  0  0  0  0
   -3.6235    3.5369   -0.6737 C   0  0  0  0  0  0  0  0  0  0  0  0
   -4.4921    3.0299    0.4044 C   0  0  0  0  0  0  0  0  0  0  0  0
   -4.5801    1.5808    0.7120 C   0  0  0  0  0  0  0  0  0  0  0  0
   -5.1055    0.7659   -0.4326 C   0  0  0  0  0  0  0  0  0  0  0  0
   -5.2294   -0.6091   -0.2066 N   0  0  0  0  0  0  0  0  0  0  0  0
   -5.7152   -1.3946   -1.2869 C   0  0  0  0  0  0  0  0  0  0  0  0
   -5.3975   -2.8387   -0.8815 C   0  0  0  0  0  0  0  0  0  0  0  0
   -4.7819   -2.7355    0.5000 C   0  0  0  0  0  0  0  0  0  0  0  0
   -4.1826   -1.3222    0.4197 C   0  0  0  0  0  0  0  0  0  0  0  0
    0.4681   -0.2282   -0.4279 S   0  0  0  0  0  0  0  0  0  0  0  0
    1.9763   -0.9007   -0.2914 N   0  0  0  0  0  0  0  0  0  0  0  0
    2.8150    0.1258   -0.1386 C   0  0  0  0  0  0  0  0  0  0  0  0
    4.2207   -0.1906    0.0058 O   0  0  0  0  0  0  0  0  0  0  0  0
    4.5030   -1.5622   -0.0373 C   0  0  0  0  0  0  0  0  0  0  0  0
    5.8729   -1.9774    0.0983 C   0  0  0  0  0  0  0  0  0  0  0  0
    6.0950   -3.3790    0.0457 C   0  0  0  0  0  0  0  0  0  0  0  0
    5.0252   -4.2241   -0.1261 F   0  0  0  0  0  0  0  0  0  0  0  0
    7.3421   -3.8964    0.1617 C   0  0  0  0  0  0  0  0  0  0  0  0
    8.4117   -3.0615    0.3328 C   0  0  0  0  0  0  0  0  0  0  0  0
   10.1811   -3.7751    0.4985 Br  0  0  0  0  0  0  0  0  0  0  0  0
    8.2383   -1.6997    0.3889 C   0  0  0  0  0  0  0  0  0  0  0  0
    6.9512   -1.1606    0.2695 C   0  0  0  0  0  0  0  0  0  0  0  0
    6.8516    0.1682    0.3326 F   0  0  0  0  0  0  0  0  0  0  0  0
    4.9161    2.4458    1.1290 H   0  0  0  0  0  0  0  0  0  0  0  0
    5.0565    2.4777   -0.7030 H   0  0  0  0  0  0  0  0  0  0  0  0
    0.3485    3.5070   -0.2372 H   0  0  0  0  0  0  0  0  0  0  0  0
   -1.7068    4.3893   -0.4387 H   0  0  0  0  0  0  0  0  0  0  0  0
   -3.9572    3.0727   -1.6704 H   0  0  0  0  0  0  0  0  0  0  0  0
   -3.8933    4.6231   -0.8594 H   0  0  0  0  0  0  0  0  0  0  0  0
   -4.1945    3.6160    1.3380 H   0  0  0  0  0  0  0  0  0  0  0  0
   -5.5606    3.4140    0.2643 H   0  0  0  0  0  0  0  0  0  0  0  0
   -3.7031    1.2285    1.2227 H   0  0  0  0  0  0  0  0  0  0  0  0
   -5.4182    1.5030    1.5085 H   0  0  0  0  0  0  0  0  0  0  0  0
   -4.4783    0.9787   -1.3243 H   0  0  0  0  0  0  0  0  0  0  0  0
   -6.1228    1.1698   -0.6898 H   0  0  0  0  0  0  0  0  0  0  0  0
   -6.8186   -1.2416   -1.3734 H   0  0  0  0  0  0  0  0  0  0  0  0
   -5.1817   -1.1111   -2.2191 H   0  0  0  0  0  0  0  0  0  0  0  0
   -4.6199   -3.2062   -1.5894 H   0  0  0  0  0  0  0  0  0  0  0  0
   -6.3141   -3.4595   -0.8902 H   0  0  0  0  0  0  0  0  0  0  0  0
   -4.0037   -3.4922    0.6720 H   0  0  0  0  0  0  0  0  0  0  0  0
   -5.5662   -2.7144    1.2845 H   0  0  0  0  0  0  0  0  0  0  0  0
   -3.2713   -1.4580   -0.2248 H   0  0  0  0  0  0  0  0  0  0  0  0
   -3.9279   -0.9529    1.4245 H   0  0  0  0  0  0  0  0  0  0  0  0
    3.9036   -2.0348    0.8165 H   0  0  0  0  0  0  0  0  0  0  0  0
    4.0311   -2.0250   -0.9783 H   0  0  0  0  0  0  0  0  0  0  0  0
    7.5214   -4.9671    0.1226 H   0  0  0  0  0  0  0  0  0  0  0  0
    9.0604   -1.0221    0.5225 H   0  0  0  0  0  0  0  0  0  0  0  0
  1  2  1  0
  2  3  2  0
  2  4  1  0
  4  5  2  0
  5  6  1  0
  6  7  1  0
  7  8  2  0
  7  9  1  0
  9 10  1  0
 10 11  1  0
 11 12  1  0
 12 13  1  0
 13 14  1  0
 14 15  1  0
 15 16  1  0
 16 17  1  0
 17 18  1  0
  5 19  1  0
 19 20  1  0
 20 21  2  0
 21 22  1  0
 22 23  1  0
 23 24  1  0
 24 25  2  0
 25 26  1  0
 25 27  1  0
 27 28  2  0
 28 29  1  0
 28 30  1  0
 30 31  2  0
 31 32  1  0
 21  4  1  0
 31 24  1  0
 18 14  1  0
  1 33  1  0
  1 34  1  0
  6 35  1  0
  9 36  1  0
 10 37  1  0
 10 38  1  0
 11 39  1  0
 11 40  1  0
 12 41  1  0
 12 42  1  0
 13 43  1  0
 13 44  1  0
 15 45  1  0
 15 46  1  0
 16 47  1  0
 16 48  1  0
 17 49  1  0
 17 50  1  0
 18 51  1  0
 18 52  1  0
 23 53  1  0
 23 54  1  0
 27 55  1  0
 30 56  1  0
M  END
$$$$
[H]c1nc(N([H])C(=O)C([H])([H])N2C([H])([H])C([H])([H])N(c3c(Cl)c([H])nc4c3nc(-c3c([H])c([H])c(N5C([H])([H])C([H])([H])N(C([H])([H])[H])C([H])([H])C5([H])[H])c([H])c3[H])n4[H])C([H])([H])C2([H])[H])sc1[H]
     RDKit          3D

 68 73  0  0  0  0  0  0  0  0999 V2000
    9.6951    1.1791   -1.2292 C   0  0  0  0  0  0  0  0  0  0  0  0
    8.4489    1.6678   -1.7796 N   0  0  0  0  0  0  0  0  0  0  0  0
    7.8170    2.4826   -0.7714 C   0  0  0  0  0  0  0  0  0  0  0  0
    6.9529    1.6960    0.1717 C   0  0  0  0  0  0  0  0  0  0  0  0
    5.9204    1.0333   -0.5955 N   0  0  0  0  0  0  0  0  0  0  0  0
    6.1576    0.8197   -2.0021 C   0  0  0  0  0  0  0  0  0  0  0  0
    7.6409    0.5783   -2.2236 C   0  0  0  0  0  0  0  0  0  0  0  0
    4.7041    0.5724   -0.0247 C   0  0  0  0  0  0  0  0  0  0  0  0
    4.5295    0.5294    1.3549 C   0  0  0  0  0  0  0  0  0  0  0  0
    3.3423    0.0732    1.8837 C   0  0  0  0  0  0  0  0  0  0  0  0
    2.2925   -0.3532    1.0951 C   0  0  0  0  0  0  0  0  0  0  0  0
    2.4740   -0.3057   -0.2663 C   0  0  0  0  0  0  0  0  0  0  0  0
    3.6698    0.1531   -0.8241 C   0  0  0  0  0  0  0  0  0  0  0  0
    1.0723   -0.8496    1.7312 C   0  0  0  0  0  0  0  0  0  0  0  0
   -0.0480   -1.3040    1.1616 N   0  0  0  0  0  0  0  0  0  0  0  0
   -0.9476   -1.6865    2.0526 C   0  0  0  0  0  0  0  0  0  0  0  0
   -2.2301   -2.2298    1.8860 C   0  0  0  0  0  0  0  0  0  0  0  0
   -2.8354   -2.3802    0.6571 N   0  0  0  0  0  0  0  0  0  0  0  0
   -4.0240   -3.1519    0.3899 C   0  0  0  0  0  0  0  0  0  0  0  0
   -5.1288   -2.2513   -0.1298 C   0  0  0  0  0  0  0  0  0  0  0  0
   -4.7323   -0.9364   -0.3783 N   0  0  0  0  0  0  0  0  0  0  0  0
   -5.7827    0.0252   -0.5589 C   0  0  0  0  0  0  0  0  0  0  0  0
   -6.5469    0.3343    0.6348 C   0  0  0  0  0  0  0  0  0  0  0  0
   -6.2553   -0.2126    1.7302 O   0  0  0  0  0  0  0  0  0  0  0  0
   -7.6214    1.2329    0.6290 N   0  0  0  0  0  0  0  0  0  0  0  0
   -8.0850    1.9313   -0.5313 C   0  0  0  0  0  0  0  0  0  0  0  0
   -9.0910    2.7892   -0.6126 N   0  0  0  0  0  0  0  0  0  0  0  0
   -9.3955    3.3402   -1.7302 C   0  0  0  0  0  0  0  0  0  0  0  0
   -8.6425    3.0090   -2.8369 C   0  0  0  0  0  0  0  0  0  0  0  0
   -7.5288    1.9043   -2.1632 S   0  0  0  0  0  0  0  0  0  0  0  0
   -3.4411   -0.5781   -0.7557 C   0  0  0  0  0  0  0  0  0  0  0  0
   -2.4533   -1.6892   -0.5926 C   0  0  0  0  0  0  0  0  0  0  0  0
   -2.8837   -2.5298    3.0697 C   0  0  0  0  0  0  0  0  0  0  0  0
   -4.5078   -3.1402    3.1960 Cl  0  0  0  0  0  0  0  0  0  0  0  0
   -2.2687   -2.2918    4.3076 C   0  0  0  0  0  0  0  0  0  0  0  0
   -1.0524   -1.7751    4.3907 N   0  0  0  0  0  0  0  0  0  0  0  0
   -0.3927   -1.4733    3.2853 C   0  0  0  0  0  0  0  0  0  0  0  0
    0.8541   -0.9556    3.0473 N   0  0  0  0  0  0  0  0  0  0  0  0
   10.4121    2.0078   -1.0557 H   0  0  0  0  0  0  0  0  0  0  0  0
   10.0841    0.3896   -1.8768 H   0  0  0  0  0  0  0  0  0  0  0  0
    9.4549    0.7320   -0.2274 H   0  0  0  0  0  0  0  0  0  0  0  0
    8.5648    3.1033   -0.2385 H   0  0  0  0  0  0  0  0  0  0  0  0
    7.1396    3.1990   -1.3060 H   0  0  0  0  0  0  0  0  0  0  0  0
    7.5333    0.9925    0.8024 H   0  0  0  0  0  0  0  0  0  0  0  0
    6.4755    2.4527    0.8617 H   0  0  0  0  0  0  0  0  0  0  0  0
    5.6697   -0.1571   -2.2748 H   0  0  0  0  0  0  0  0  0  0  0  0
    5.7982    1.6257   -2.6492 H   0  0  0  0  0  0  0  0  0  0  0  0
    7.9580   -0.3605   -1.7159 H   0  0  0  0  0  0  0  0  0  0  0  0
    7.8108    0.4279   -3.3072 H   0  0  0  0  0  0  0  0  0  0  0  0
    5.3325    0.8549    1.9675 H   0  0  0  0  0  0  0  0  0  0  0  0
    3.1837    0.0307    2.9626 H   0  0  0  0  0  0  0  0  0  0  0  0
    1.6681   -0.6318   -0.8885 H   0  0  0  0  0  0  0  0  0  0  0  0
    3.7326    0.1648   -1.9018 H   0  0  0  0  0  0  0  0  0  0  0  0
   -3.7213   -3.7210   -0.5985 H   0  0  0  0  0  0  0  0  0  0  0  0
   -4.3516   -3.9006    1.0598 H   0  0  0  0  0  0  0  0  0  0  0  0
   -5.5378   -2.6707   -1.1018 H   0  0  0  0  0  0  0  0  0  0  0  0
   -5.9792   -2.3113    0.5579 H   0  0  0  0  0  0  0  0  0  0  0  0
   -6.4685   -0.4143   -1.3404 H   0  0  0  0  0  0  0  0  0  0  0  0
   -5.3143    0.9231   -1.0011 H   0  0  0  0  0  0  0  0  0  0  0  0
   -8.1719    1.4490    1.5148 H   0  0  0  0  0  0  0  0  0  0  0  0
  -10.2352    4.0658   -1.8358 H   0  0  0  0  0  0  0  0  0  0  0  0
   -8.7747    3.3911   -3.8637 H   0  0  0  0  0  0  0  0  0  0  0  0
   -3.3899   -0.1310   -1.7976 H   0  0  0  0  0  0  0  0  0  0  0  0
   -3.1418    0.3139   -0.1137 H   0  0  0  0  0  0  0  0  0  0  0  0
   -2.6744   -2.4047   -1.4522 H   0  0  0  0  0  0  0  0  0  0  0  0
   -1.4312   -1.4417   -0.7121 H   0  0  0  0  0  0  0  0  0  0  0  0
   -2.7979   -2.5361    5.2346 H   0  0  0  0  0  0  0  0  0  0  0  0
    1.4956   -0.7002    3.8281 H   0  0  0  0  0  0  0  0  0  0  0  0
  1  2  1  0
  2  3  1  0
  3  4  1  0
  4  5  1  0
  5  6  1  0
  6  7  1  0
  5  8  1  0
  8  9  2  0
  9 10  1  0
 10 11  2  0
 11 12  1  0
 12 13  2  0
 11 14  1  0
 14 15  2  0
 15 16  1  0
 16 17  2  0
 17 18  1  0
 18 19  1  0
 19 20  1  0
 20 21  1  0
 21 22  1  0
 22 23  1  0
 23 24  2  0
 23 25  1  0
 25 26  1  0
 26 27  2  0
 27 28  1  0
 28 29  2  0
 29 30  1  0
 21 31  1  0
 31 32  1  0
 17 33  1  0
 33 34  1  0
 33 35  2  0
 35 36  1  0
 36 37  2  0
 37 38  1  0
  7  2  1  0
 13  8  1  0
 38 14  1  0
 37 16  1  0
 32 18  1  0
 30 26  1  0
  1 39  1  0
  1 40  1  0
  1 41  1  0
  3 42  1  0
  3 43  1  0
  4 44  1  0
  4 45  1  0
  6 46  1  0
  6 47  1  0
  7 48  1  0
  7 49  1  0
  9 50  1  0
 10 51  1  0
 12 52  1  0
 13 53  1  0
 19 54  1  0
 19 55  1  0
 20 56  1  0
 20 57  1  0
 22 58  1  0
 22 59  1  0
 25 60  1  0
 28 61  1  0
 29 62  1  0
 31 63  1  0
 31 64  1  0
 32 65  1  0
 32 66  1  0
 35 67  1  0
 38 68  1  0
M  END
$$$$
[H]c1nc2c([H])c([H])c(N(c3c(F)c(OC([H])([H])[H])c([H])c(OC([H])([H])[H])c3F)C([H])([H])C([H])([H])OC([H])(C([H])([H])[H])C([H])([H])[H])nc2c([H])c1-c1c([H])nn(C([H])([H])[H])c1[H]
     RDKit          3D

 62 65  0  0  0  0  0  0  0  0999 V2000
   -4.3512   -4.6928    0.1776 C   0  0  0  0  0  0  0  0  0  0  0  0
   -3.8081   -3.5239    0.7491 O   0  0  0  0  0  0  0  0  0  0  0  0
   -3.0029   -2.7055   -0.0290 C   0  0  0  0  0  0  0  0  0  0  0  0
   -2.7332   -3.0201   -1.3359 C   0  0  0  0  0  0  0  0  0  0  0  0
   -1.9356   -2.2216   -2.1289 C   0  0  0  0  0  0  0  0  0  0  0  0
   -1.6573   -2.5322   -3.4520 O   0  0  0  0  0  0  0  0  0  0  0  0
   -2.2214   -3.7126   -3.9857 C   0  0  0  0  0  0  0  0  0  0  0  0
   -1.4088   -1.0872   -1.5745 C   0  0  0  0  0  0  0  0  0  0  0  0
   -0.6205   -0.2657   -2.3012 F   0  0  0  0  0  0  0  0  0  0  0  0
   -1.6436   -0.7065   -0.2473 C   0  0  0  0  0  0  0  0  0  0  0  0
   -1.0625    0.4822    0.2631 N   0  0  0  0  0  0  0  0  0  0  0  0
   -1.7769    1.7250    0.1357 C   0  0  0  0  0  0  0  0  0  0  0  0
   -3.1088    1.7591    0.8420 C   0  0  0  0  0  0  0  0  0  0  0  0
   -3.6454    3.0297    0.6048 O   0  0  0  0  0  0  0  0  0  0  0  0
   -4.8694    3.2243    1.1919 C   0  0  0  0  0  0  0  0  0  0  0  0
   -4.8968    4.3642    2.1695 C   0  0  0  0  0  0  0  0  0  0  0  0
   -5.9533    3.4129    0.1456 C   0  0  0  0  0  0  0  0  0  0  0  0
    0.2332    0.4071    0.8832 C   0  0  0  0  0  0  0  0  0  0  0  0
    0.3451    0.2665    2.2479 C   0  0  0  0  0  0  0  0  0  0  0  0
    1.5640    0.1865    2.9096 C   0  0  0  0  0  0  0  0  0  0  0  0
    2.7013    0.2546    2.1329 C   0  0  0  0  0  0  0  0  0  0  0  0
    3.9162    0.1838    2.7254 N   0  0  0  0  0  0  0  0  0  0  0  0
    4.9922    0.2570    1.9296 C   0  0  0  0  0  0  0  0  0  0  0  0
    4.9546    0.3980    0.5583 C   0  0  0  0  0  0  0  0  0  0  0  0
    3.7199    0.4687   -0.0364 C   0  0  0  0  0  0  0  0  0  0  0  0
    2.5723    0.3959    0.7639 C   0  0  0  0  0  0  0  0  0  0  0  0
    1.3628    0.4698    0.1582 N   0  0  0  0  0  0  0  0  0  0  0  0
    6.1821    0.4735   -0.2432 C   0  0  0  0  0  0  0  0  0  0  0  0
    6.3671    1.1639   -1.4217 C   0  0  0  0  0  0  0  0  0  0  0  0
    7.6586    0.9577   -1.8157 N   0  0  0  0  0  0  0  0  0  0  0  0
    8.2820    0.1869   -0.9595 N   0  0  0  0  0  0  0  0  0  0  0  0
    9.6616   -0.2552   -1.0335 C   0  0  0  0  0  0  0  0  0  0  0  0
    7.3929   -0.1269    0.0218 C   0  0  0  0  0  0  0  0  0  0  0  0
   -2.4440   -1.5357    0.4995 C   0  0  0  0  0  0  0  0  0  0  0  0
   -2.7487   -1.2986    1.7837 F   0  0  0  0  0  0  0  0  0  0  0  0
   -4.9551   -5.2611    0.8983 H   0  0  0  0  0  0  0  0  0  0  0  0
   -5.0343   -4.3870   -0.6601 H   0  0  0  0  0  0  0  0  0  0  0  0
   -3.5487   -5.3700   -0.2188 H   0  0  0  0  0  0  0  0  0  0  0  0
   -3.1525   -3.9224   -1.7745 H   0  0  0  0  0  0  0  0  0  0  0  0
   -1.8479   -3.8813   -5.0275 H   0  0  0  0  0  0  0  0  0  0  0  0
   -1.8885   -4.5788   -3.3487 H   0  0  0  0  0  0  0  0  0  0  0  0
   -3.3310   -3.7096   -3.9328 H   0  0  0  0  0  0  0  0  0  0  0  0
   -1.1324    2.5792    0.4526 H   0  0  0  0  0  0  0  0  0  0  0  0
   -2.0086    1.9483   -0.9479 H   0  0  0  0  0  0  0  0  0  0  0  0
   -3.7940    1.0237    0.3845 H   0  0  0  0  0  0  0  0  0  0  0  0
   -3.0163    1.5831    1.9387 H   0  0  0  0  0  0  0  0  0  0  0  0
   -5.1360    2.2924    1.7338 H   0  0  0  0  0  0  0  0  0  0  0  0
   -3.9733    4.9840    2.0453 H   0  0  0  0  0  0  0  0  0  0  0  0
   -5.7474    5.0355    1.9217 H   0  0  0  0  0  0  0  0  0  0  0  0
   -4.9812    4.0264    3.2179 H   0  0  0  0  0  0  0  0  0  0  0  0
   -5.6970    2.7062   -0.6872 H   0  0  0  0  0  0  0  0  0  0  0  0
   -5.8960    4.4437   -0.2402 H   0  0  0  0  0  0  0  0  0  0  0  0
   -6.9322    3.1640    0.5627 H   0  0  0  0  0  0  0  0  0  0  0  0
   -0.5505    0.2198    2.8545 H   0  0  0  0  0  0  0  0  0  0  0  0
    1.6430    0.0757    3.9827 H   0  0  0  0  0  0  0  0  0  0  0  0
    5.9696    0.2017    2.3892 H   0  0  0  0  0  0  0  0  0  0  0  0
    3.6238    0.5786   -1.1011 H   0  0  0  0  0  0  0  0  0  0  0  0
    5.6547    1.7585   -1.9536 H   0  0  0  0  0  0  0  0  0  0  0  0
    9.9797   -0.7441   -0.0886 H   0  0  0  0  0  0  0  0  0  0  0  0
   10.3447    0.6062   -1.1776 H   0  0  0  0  0  0  0  0  0  0  0  0
    9.7863   -1.0035   -1.8533 H   0  0  0  0  0  0  0  0  0  0  0  0
    7.6036   -0.7518    0.8801 H   0  0  0  0  0  0  0  0  0  0  0  0
  1  2  1  0
  2  3  1  0
  3  4  2  0
  4  5  1  0
  5  6  1  0
  6  7  1  0
  5  8  2  0
  8  9  1  0
  8 10  1  0
 10 11  1  0
 11 12  1  0
 12 13  1  0
 13 14  1  0
 14 15  1  0
 15 16  1  0
 15 17  1  0
 11 18  1  0
 18 19  2  0
 19 20  1  0
 20 21  2  0
 21 22  1  0
 22 23  2  0
 23 24  1  0
 24 25  2  0
 25 26  1  0
 26 27  2  0
 24 28  1  0
 28 29  1  0
 29 30  2  0
 30 31  1  0
 31 32  1  0
 31 33  1  0
 10 34  2  0
 34 35  1  0
 34  3  1  0
 27 18  1  0
 33 28  2  0
 26 21  1  0
  1 36  1  0
  1 37  1  0
  1 38  1  0
  4 39  1  0
  7 40  1  0
  7 41  1  0
  7 42  1  0
 12 43  1  0
 12 44  1  0
 13 45  1  0
 13 46  1  0
 15 47  1  0
 16 48  1  0
 16 49  1  0
 16 50  1  0
 17 51  1  0
 17 52  1  0
 17 53  1  0
 19 54  1  0
 20 55  1  0
 23 56  1  0
 25 57  1  0
 29 58  1  0
 32 59  1  0
 32 60  1  0
 32 61  1  0
 33 62  1  0
M  END
$$$$
[H]c1nc(N([H])c2nn([H])c(C([H])([H])C([H])([H])c3c([H])c(OC([H])([H])[H])c([H])c(OC([H])([H])[H])c3[H])c2[H])c2c([H])c([H])c(N3C([H])([H])C([H])([H])N(C([H])([H])C([H])([H])OC([H])([H])[H])C([H])([H])C3([H])[H])c([H])c2n1
     RDKit          3D

 73 77  0  0  0  0  0  0  0  0999 V2000
  -12.3182    0.0585   -0.5770 C   0  0  0  0  0  0  0  0  0  0  0  0
  -11.3539   -0.8954   -0.7547 O   0  0  0  0  0  0  0  0  0  0  0  0
  -10.0566   -0.4777   -0.7613 C   0  0  0  0  0  0  0  0  0  0  0  0
   -9.7726    0.4947   -1.8546 C   0  0  0  0  0  0  0  0  0  0  0  0
   -8.4264    0.9721   -1.9179 N   0  0  0  0  0  0  0  0  0  0  0  0
   -7.5319   -0.0716   -2.3099 C   0  0  0  0  0  0  0  0  0  0  0  0
   -6.0739    0.3766   -2.1953 C   0  0  0  0  0  0  0  0  0  0  0  0
   -5.8061    0.7004   -0.7950 N   0  0  0  0  0  0  0  0  0  0  0  0
   -6.9373    1.0063    0.0514 C   0  0  0  0  0  0  0  0  0  0  0  0
   -7.9829    1.7324   -0.7938 C   0  0  0  0  0  0  0  0  0  0  0  0
   -4.4592    0.7064   -0.3123 C   0  0  0  0  0  0  0  0  0  0  0  0
   -3.3972    0.4627   -1.1514 C   0  0  0  0  0  0  0  0  0  0  0  0
   -2.0706    0.4619   -0.6991 C   0  0  0  0  0  0  0  0  0  0  0  0
   -1.7766    0.7056    0.6059 C   0  0  0  0  0  0  0  0  0  0  0  0
   -0.4933    0.7104    1.0704 C   0  0  0  0  0  0  0  0  0  0  0  0
    0.6055    0.4627    0.2194 N   0  0  0  0  0  0  0  0  0  0  0  0
    1.9443    0.4822    0.7760 C   0  0  0  0  0  0  0  0  0  0  0  0
    3.1244    0.2670    0.1040 C   0  0  0  0  0  0  0  0  0  0  0  0
    4.1917    0.3700    0.9899 C   0  0  0  0  0  0  0  0  0  0  0  0
    5.6358    0.2128    0.6931 C   0  0  0  0  0  0  0  0  0  0  0  0
    6.1098   -1.2146    0.8448 C   0  0  0  0  0  0  0  0  0  0  0  0
    7.5696   -1.2202    0.5151 C   0  0  0  0  0  0  0  0  0  0  0  0
    8.4458   -1.0013    1.5560 C   0  0  0  0  0  0  0  0  0  0  0  0
    9.7832   -1.0011    1.2841 C   0  0  0  0  0  0  0  0  0  0  0  0
   10.6562   -0.7803    2.3370 O   0  0  0  0  0  0  0  0  0  0  0  0
   12.0395   -0.7760    2.0764 C   0  0  0  0  0  0  0  0  0  0  0  0
   10.2327   -1.2136    0.0083 C   0  0  0  0  0  0  0  0  0  0  0  0
    9.3532   -1.4307   -1.0210 C   0  0  0  0  0  0  0  0  0  0  0  0
    9.8861   -1.6394   -2.2917 O   0  0  0  0  0  0  0  0  0  0  0  0
   11.2577   -1.6365   -2.5527 C   0  0  0  0  0  0  0  0  0  0  0  0
    8.0058   -1.4369   -0.7811 C   0  0  0  0  0  0  0  0  0  0  0  0
    3.6246    0.6445    2.1725 N   0  0  0  0  0  0  0  0  0  0  0  0
    2.2950    0.7124    2.0534 N   0  0  0  0  0  0  0  0  0  0  0  0
   -0.2992    0.9641    2.3904 N   0  0  0  0  0  0  0  0  0  0  0  0
   -1.3271    1.2023    3.2139 C   0  0  0  0  0  0  0  0  0  0  0  0
   -2.5795    1.1960    2.7524 N   0  0  0  0  0  0  0  0  0  0  0  0
   -2.8484    0.9553    1.4709 C   0  0  0  0  0  0  0  0  0  0  0  0
   -4.1591    0.9524    1.0065 C   0  0  0  0  0  0  0  0  0  0  0  0
  -13.3578   -0.3940   -0.5747 H   0  0  0  0  0  0  0  0  0  0  0  0
  -12.2472    0.5990    0.4008 H   0  0  0  0  0  0  0  0  0  0  0  0
  -12.3769    0.8221   -1.3796 H   0  0  0  0  0  0  0  0  0  0  0  0
   -9.4276   -1.3933   -0.9396 H   0  0  0  0  0  0  0  0  0  0  0  0
   -9.8327   -0.0339    0.2329 H   0  0  0  0  0  0  0  0  0  0  0  0
   -9.9550   -0.0386   -2.8349 H   0  0  0  0  0  0  0  0  0  0  0  0
  -10.5126    1.3282   -1.8698 H   0  0  0  0  0  0  0  0  0  0  0  0
   -7.7179   -0.2919   -3.3882 H   0  0  0  0  0  0  0  0  0  0  0  0
   -7.6379   -1.0176   -1.7653 H   0  0  0  0  0  0  0  0  0  0  0  0
   -5.4737   -0.5351   -2.4243 H   0  0  0  0  0  0  0  0  0  0  0  0
   -5.8381    1.1971   -2.8736 H   0  0  0  0  0  0  0  0  0  0  0  0
   -6.6894    1.7101    0.8775 H   0  0  0  0  0  0  0  0  0  0  0  0
   -7.3604    0.0519    0.4070 H   0  0  0  0  0  0  0  0  0  0  0  0
   -7.4504    2.6424   -1.1998 H   0  0  0  0  0  0  0  0  0  0  0  0
   -8.7935    2.1241   -0.1637 H   0  0  0  0  0  0  0  0  0  0  0  0
   -3.6112    0.2641   -2.2057 H   0  0  0  0  0  0  0  0  0  0  0  0
   -1.2916    0.2650   -1.4054 H   0  0  0  0  0  0  0  0  0  0  0  0
    0.5605    0.2619   -0.7909 H   0  0  0  0  0  0  0  0  0  0  0  0
    3.2220    0.0510   -0.9474 H   0  0  0  0  0  0  0  0  0  0  0  0
    5.9309    0.6583   -0.2630 H   0  0  0  0  0  0  0  0  0  0  0  0
    6.1899    0.8034    1.4806 H   0  0  0  0  0  0  0  0  0  0  0  0
    6.0141   -1.5794    1.8836 H   0  0  0  0  0  0  0  0  0  0  0  0
    5.5566   -1.9135    0.1945 H   0  0  0  0  0  0  0  0  0  0  0  0
    8.0843   -0.8345    2.5600 H   0  0  0  0  0  0  0  0  0  0  0  0
   12.3124   -1.7245    1.5766 H   0  0  0  0  0  0  0  0  0  0  0  0
   12.3028    0.1052    1.4698 H   0  0  0  0  0  0  0  0  0  0  0  0
   12.6355   -0.7241    3.0170 H   0  0  0  0  0  0  0  0  0  0  0  0
   11.3097   -1.2002   -0.1384 H   0  0  0  0  0  0  0  0  0  0  0  0
   11.8285   -2.3820   -1.9550 H   0  0  0  0  0  0  0  0  0  0  0  0
   11.4099   -1.9043   -3.6180 H   0  0  0  0  0  0  0  0  0  0  0  0
   11.7417   -0.6600   -2.4010 H   0  0  0  0  0  0  0  0  0  0  0  0
    7.3014   -1.6063   -1.5802 H   0  0  0  0  0  0  0  0  0  0  0  0
    4.1817    0.7805    3.0482 H   0  0  0  0  0  0  0  0  0  0  0  0
   -1.1532    1.4003    4.2525 H   0  0  0  0  0  0  0  0  0  0  0  0
   -4.9458    1.1546    1.7406 H   0  0  0  0  0  0  0  0  0  0  0  0
  1  2  1  0
  2  3  1  0
  3  4  1  0
  4  5  1  0
  5  6  1  0
  6  7  1  0
  7  8  1  0
  8  9  1  0
  9 10  1  0
  8 11  1  0
 11 12  2  0
 12 13  1  0
 13 14  2  0
 14 15  1  0
 15 16  1  0
 16 17  1  0
 17 18  1  0
 18 19  2  0
 19 20  1  0
 20 21  1  0
 21 22  1  0
 22 23  2  0
 23 24  1  0
 24 25  1  0
 25 26  1  0
 24 27  2  0
 27 28  1  0
 28 29  1  0
 29 30  1  0
 28 31  2  0
 19 32  1  0
 32 33  1  0
 15 34  2  0
 34 35  1  0
 35 36  2  0
 36 37  1  0
 37 38  2  0
 10  5  1  0
 38 11  1  0
 37 14  1  0
 33 17  2  0
 31 22  1  0
  1 39  1  0
  1 40  1  0
  1 41  1  0
  3 42  1  0
  3 43  1  0
  4 44  1  0
  4 45  1  0
  6 46  1  0
  6 47  1  0
  7 48  1  0
  7 49  1  0
  9 50  1  0
  9 51  1  0
 10 52  1  0
 10 53  1  0
 12 54  1  0
 13 55  1  0
 16 56  1  0
 18 57  1  0
 20 58  1  0
 20 59  1  0
 21 60  1  0
 21 61  1  0
 23 62  1  0
 26 63  1  0
 26 64  1  0
 26 65  1  0
 27 66  1  0
 30 67  1  0
 30 68  1  0
 30 69  1  0
 31 70  1  0
 32 71  1  0
 35 72  1  0
 38 73  1  0
M  END
$$$$
[H]C([H])=C([H])C(=O)N1C([H])([H])C([H])(N2C([H])([H])C([H])([H])C([H])([H])[C@@]2([H])C([H])([H])n2c(=O)c(-c3c(Cl)c(OC([H])([H])[H])c([H])c(OC([H])([H])[H])c3Cl)c([H])c3c([H])nc(N([H])C([H])([H])[H])nc32)C1([H])[H]
     RDKit          3D

 69 73  0  0  0  0  0  0  0  0999 V2000
    0.2738   -7.2033   -0.8734 C   0  0  0  0  0  0  0  0  0  0  0  0
    0.7795   -5.8630   -0.6996 N   0  0  0  0  0  0  0  0  0  0  0  0
   -0.1648   -4.8076   -0.4919 C   0  0  0  0  0  0  0  0  0  0  0  0
   -1.4944   -5.0625   -0.4604 N   0  0  0  0  0  0  0  0  0  0  0  0
   -2.3956   -4.0742   -0.2634 C   0  0  0  0  0  0  0  0  0  0  0  0
   -2.0031   -2.7638   -0.0859 C   0  0  0  0  0  0  0  0  0  0  0  0
   -2.9129   -1.7551    0.1322 C   0  0  0  0  0  0  0  0  0  0  0  0
   -2.4206   -0.4849    0.3157 C   0  0  0  0  0  0  0  0  0  0  0  0
   -3.3549    0.5961    0.5491 C   0  0  0  0  0  0  0  0  0  0  0  0
   -3.7147    0.8905    1.8482 C   0  0  0  0  0  0  0  0  0  0  0  0
   -3.0620   -0.0194    3.2243 Cl  0  0  0  0  0  0  0  0  0  0  0  0
   -4.6056    1.9229    2.0526 C   0  0  0  0  0  0  0  0  0  0  0  0
   -4.9620    2.2116    3.3681 O   0  0  0  0  0  0  0  0  0  0  0  0
   -5.8772    3.2729    3.5697 C   0  0  0  0  0  0  0  0  0  0  0  0
   -5.1216    2.6419    0.9684 C   0  0  0  0  0  0  0  0  0  0  0  0
   -4.7375    2.3170   -0.3150 C   0  0  0  0  0  0  0  0  0  0  0  0
   -5.2355    3.0147   -1.3998 O   0  0  0  0  0  0  0  0  0  0  0  0
   -6.1511    4.0859   -1.2909 C   0  0  0  0  0  0  0  0  0  0  0  0
   -3.8488    1.2891   -0.5363 C   0  0  0  0  0  0  0  0  0  0  0  0
   -3.3639    0.8828   -2.1934 Cl  0  0  0  0  0  0  0  0  0  0  0  0
   -1.0790   -0.2132    0.2856 C   0  0  0  0  0  0  0  0  0  0  0  0
   -0.6138    0.9743    0.4569 O   0  0  0  0  0  0  0  0  0  0  0  0
   -0.2186   -1.2328    0.0676 N   0  0  0  0  0  0  0  0  0  0  0  0
    1.1854   -0.8991    0.0824 C   0  0  0  0  0  0  0  0  0  0  0  0
    1.7525   -0.3598   -1.1693 C   0  0  2  0  0  0  0  0  0  0  0  0
    1.6869   -1.1918   -2.3961 C   0  0  0  0  0  0  0  0  0  0  0  0
    2.9593   -2.0291   -2.3951 C   0  0  0  0  0  0  0  0  0  0  0  0
    3.8549   -1.3009   -1.4031 C   0  0  0  0  0  0  0  0  0  0  0  0
    3.1793   -0.0859   -1.0720 N   0  0  0  0  0  0  0  0  0  0  0  0
    3.5823    0.5455    0.1433 C   0  0  0  0  0  0  0  0  0  0  0  0
    2.9887    1.8932    0.3179 C   0  0  0  0  0  0  0  0  0  0  0  0
    4.2994    2.5160    0.3010 N   0  0  0  0  0  0  0  0  0  0  0  0
    4.8927    1.2435    0.0756 C   0  0  0  0  0  0  0  0  0  0  0  0
    4.7588    3.8565    0.4609 C   0  0  0  0  0  0  0  0  0  0  0  0
    3.8666    4.7701    0.6885 O   0  0  0  0  0  0  0  0  0  0  0  0
    6.1431    4.2417    0.3835 C   0  0  0  0  0  0  0  0  0  0  0  0
    7.1848    3.4995    0.1577 C   0  0  0  0  0  0  0  0  0  0  0  0
   -0.6347   -2.5149   -0.1211 C   0  0  0  0  0  0  0  0  0  0  0  0
    0.2177   -3.5354   -0.3200 N   0  0  0  0  0  0  0  0  0  0  0  0
   -0.8140   -7.2702   -0.5817 H   0  0  0  0  0  0  0  0  0  0  0  0
    0.7856   -7.9180   -0.1665 H   0  0  0  0  0  0  0  0  0  0  0  0
    0.4379   -7.5626   -1.9008 H   0  0  0  0  0  0  0  0  0  0  0  0
    1.8044   -5.7144   -0.7315 H   0  0  0  0  0  0  0  0  0  0  0  0
   -3.4622   -4.2870   -0.2397 H   0  0  0  0  0  0  0  0  0  0  0  0
   -3.9793   -1.9944    0.1516 H   0  0  0  0  0  0  0  0  0  0  0  0
   -6.2266    3.3081    4.6342 H   0  0  0  0  0  0  0  0  0  0  0  0
   -6.7887    3.0365    2.9501 H   0  0  0  0  0  0  0  0  0  0  0  0
   -5.4496    4.2619    3.3188 H   0  0  0  0  0  0  0  0  0  0  0  0
   -5.8126    3.4367    1.1923 H   0  0  0  0  0  0  0  0  0  0  0  0
   -5.6099    5.0251   -1.0298 H   0  0  0  0  0  0  0  0  0  0  0  0
   -6.6603    4.2470   -2.2730 H   0  0  0  0  0  0  0  0  0  0  0  0
   -6.8711    3.8835   -0.4872 H   0  0  0  0  0  0  0  0  0  0  0  0
    1.3564   -0.1165    0.8811 H   0  0  0  0  0  0  0  0  0  0  0  0
    1.7180   -1.7950    0.4725 H   0  0  0  0  0  0  0  0  0  0  0  0
    1.2906    0.6410   -1.4156 H   0  0  0  0  0  0  0  0  0  0  0  0
    0.7792   -1.7450   -2.5947 H   0  0  0  0  0  0  0  0  0  0  0  0
    1.8228   -0.5157   -3.3077 H   0  0  0  0  0  0  0  0  0  0  0  0
    2.7585   -3.0284   -1.9640 H   0  0  0  0  0  0  0  0  0  0  0  0
    3.4045   -2.1476   -3.3807 H   0  0  0  0  0  0  0  0  0  0  0  0
    4.1259   -1.9287   -0.5384 H   0  0  0  0  0  0  0  0  0  0  0  0
    4.7883   -1.0117   -1.9617 H   0  0  0  0  0  0  0  0  0  0  0  0
    3.5529   -0.1157    1.0492 H   0  0  0  0  0  0  0  0  0  0  0  0
    2.3511    2.2188   -0.5286 H   0  0  0  0  0  0  0  0  0  0  0  0
    2.4212    2.0477    1.2703 H   0  0  0  0  0  0  0  0  0  0  0  0
    5.5917    0.9597    0.8986 H   0  0  0  0  0  0  0  0  0  0  0  0
    5.3672    1.0868   -0.9167 H   0  0  0  0  0  0  0  0  0  0  0  0
    6.3417    5.3166    0.5387 H   0  0  0  0  0  0  0  0  0  0  0  0
    7.1711    2.4505   -0.0119 H   0  0  0  0  0  0  0  0  0  0  0  0
    8.1719    3.9615    0.1335 H   0  0  0  0  0  0  0  0  0  0  0  0
  1  2  1  0
  2  3  1  0
  3  4  2  0
  4  5  1  0
  5  6  2  0
  6  7  1  0
  7  8  2  0
  8  9  1  0
  9 10  2  0
 10 11  1  0
 10 12  1  0
 12 13  1  0
 13 14  1  0
 12 15  2  0
 15 16  1  0
 16 17  1  0
 17 18  1  0
 16 19  2  0
 19 20  1  0
  8 21  1  0
 21 22  2  0
 21 23  1  0
 23 24  1  0
 24 25  1  0
 25 26  1  0
 26 27  1  0
 27 28  1  0
 28 29  1  0
 29 30  1  0
 30 31  1  0
 31 32  1  0
 32 33  1  0
 32 34  1  0
 34 35  2  0
 34 36  1  0
 36 37  2  3
 23 38  1  0
 38 39  2  0
 39  3  1  0
 38  6  1  0
 19  9  1  0
 29 25  1  0
 33 30  1  0
  1 40  1  0
  1 41  1  0
  1 42  1  0
  2 43  1  0
  5 44  1  0
  7 45  1  0
 14 46  1  0
 14 47  1  0
 14 48  1  0
 15 49  1  0
 18 50  1  0
 18 51  1  0
 18 52  1  0
 24 53  1  0
 24 54  1  0
 25 55  1  6
 26 56  1  0
 26 57  1  0
 27 58  1  0
 27 59  1  0
 28 60  1  0
 28 61  1  0
 30 62  1  0
 31 63  1  0
 31 64  1  0
 33 65  1  0
 33 66  1  0
 36 67  1  0
 37 68  1  0
 37 69  1  0
M  END
$$$$
[H]c1nc2c([H])c([H])c(N(c3c(F)c(OC([H])([H])[H])c([H])c(OC([H])([H])[H])c3F)C([H])([H])C3([H])N([H])C(=O)C([H])([H])C3([H])[H])nc2c([H])c1-c1c([H])nn(C([H])([H])[H])c1[H]
     RDKit          3D

 60 64  0  0  0  0  0  0  0  0999 V2000
   -5.8624   -2.7813    1.5650 C   0  0  0  0  0  0  0  0  0  0  0  0
   -5.0378   -1.6318    1.5780 O   0  0  0  0  0  0  0  0  0  0  0  0
   -3.9654   -1.5744    0.7089 C   0  0  0  0  0  0  0  0  0  0  0  0
   -3.6759   -2.5884   -0.1604 C   0  0  0  0  0  0  0  0  0  0  0  0
   -2.6069   -2.4591   -0.9821 C   0  0  0  0  0  0  0  0  0  0  0  0
   -2.3282   -3.4965   -1.8553 O   0  0  0  0  0  0  0  0  0  0  0  0
   -3.0961   -4.6561   -1.9208 C   0  0  0  0  0  0  0  0  0  0  0  0
   -1.8069   -1.3091   -0.9494 C   0  0  0  0  0  0  0  0  0  0  0  0
   -0.7886   -1.3264   -1.8043 F   0  0  0  0  0  0  0  0  0  0  0  0
   -2.0667   -0.2493   -0.0791 C   0  0  0  0  0  0  0  0  0  0  0  0
   -1.2381    0.8958   -0.0101 N   0  0  0  0  0  0  0  0  0  0  0  0
   -1.4797    2.0650    0.7509 C   0  0  0  0  0  0  0  0  0  0  0  0
   -2.5378    3.0222    0.2944 C   0  0  0  0  0  0  0  0  0  0  0  0
   -2.6637    4.1777    1.3169 C   0  0  0  0  0  0  0  0  0  0  0  0
   -3.6690    5.0447    0.5586 C   0  0  0  0  0  0  0  0  0  0  0  0
   -3.1488    4.8928   -0.8354 C   0  0  0  0  0  0  0  0  0  0  0  0
   -3.5694    5.5575   -1.8094 O   0  0  0  0  0  0  0  0  0  0  0  0
   -2.1143    3.8762   -0.8345 N   0  0  0  0  0  0  0  0  0  0  0  0
    0.0082    0.8802   -0.7218 C   0  0  0  0  0  0  0  0  0  0  0  0
    0.2373    1.4020   -1.9643 C   0  0  0  0  0  0  0  0  0  0  0  0
    1.4804    1.3780   -2.5761 C   0  0  0  0  0  0  0  0  0  0  0  0
    2.5223    0.8022   -1.8963 C   0  0  0  0  0  0  0  0  0  0  0  0
    3.7708    0.7350   -2.4169 N   0  0  0  0  0  0  0  0  0  0  0  0
    4.7678    0.1647   -1.7243 C   0  0  0  0  0  0  0  0  0  0  0  0
    4.6013   -0.3782   -0.4712 C   0  0  0  0  0  0  0  0  0  0  0  0
    3.3485   -0.3293    0.0911 C   0  0  0  0  0  0  0  0  0  0  0  0
    2.3131    0.2711   -0.6456 C   0  0  0  0  0  0  0  0  0  0  0  0
    1.0752    0.3281   -0.1072 N   0  0  0  0  0  0  0  0  0  0  0  0
    5.7217   -0.9976    0.2641 C   0  0  0  0  0  0  0  0  0  0  0  0
    6.8061   -1.6737   -0.2740 C   0  0  0  0  0  0  0  0  0  0  0  0
    7.6095   -2.0898    0.7013 N   0  0  0  0  0  0  0  0  0  0  0  0
    7.0782   -1.7040    1.8512 N   0  0  0  0  0  0  0  0  0  0  0  0
    7.7109   -2.0006    3.1287 C   0  0  0  0  0  0  0  0  0  0  0  0
    5.9191   -1.0309    1.6253 C   0  0  0  0  0  0  0  0  0  0  0  0
   -3.1588   -0.4394    0.7283 C   0  0  0  0  0  0  0  0  0  0  0  0
   -3.4863    0.4714    1.6529 F   0  0  0  0  0  0  0  0  0  0  0  0
   -5.3448   -3.6746    1.9846 H   0  0  0  0  0  0  0  0  0  0  0  0
   -6.8293   -2.5847    2.1145 H   0  0  0  0  0  0  0  0  0  0  0  0
   -6.1778   -3.0661    0.5316 H   0  0  0  0  0  0  0  0  0  0  0  0
   -4.3099   -3.4773   -0.1729 H   0  0  0  0  0  0  0  0  0  0  0  0
   -4.0731   -4.4532   -2.3973 H   0  0  0  0  0  0  0  0  0  0  0  0
   -2.5532   -5.4038   -2.5213 H   0  0  0  0  0  0  0  0  0  0  0  0
   -3.2479   -5.1231   -0.9170 H   0  0  0  0  0  0  0  0  0  0  0  0
   -0.5375    2.7253    0.7533 H   0  0  0  0  0  0  0  0  0  0  0  0
   -1.5472    1.8761    1.8709 H   0  0  0  0  0  0  0  0  0  0  0  0
   -3.4901    2.6254   -0.0188 H   0  0  0  0  0  0  0  0  0  0  0  0
   -3.0766    3.8043    2.2643 H   0  0  0  0  0  0  0  0  0  0  0  0
   -1.6755    4.6222    1.3764 H   0  0  0  0  0  0  0  0  0  0  0  0
   -3.6273    6.0873    0.9129 H   0  0  0  0  0  0  0  0  0  0  0  0
   -4.6694    4.6314    0.6885 H   0  0  0  0  0  0  0  0  0  0  0  0
   -1.3584    3.8784   -1.4881 H   0  0  0  0  0  0  0  0  0  0  0  0
   -0.5834    1.8447   -2.4840 H   0  0  0  0  0  0  0  0  0  0  0  0
    1.6527    1.7911   -3.5547 H   0  0  0  0  0  0  0  0  0  0  0  0
    5.7901    0.0978   -2.1265 H   0  0  0  0  0  0  0  0  0  0  0  0
    3.1420   -0.7302    1.0622 H   0  0  0  0  0  0  0  0  0  0  0  0
    6.9136   -1.8036   -1.3401 H   0  0  0  0  0  0  0  0  0  0  0  0
    7.8073   -3.1006    3.2958 H   0  0  0  0  0  0  0  0  0  0  0  0
    8.7331   -1.6054    3.0927 H   0  0  0  0  0  0  0  0  0  0  0  0
    7.1033   -1.5980    3.9606 H   0  0  0  0  0  0  0  0  0  0  0  0
    5.2896   -0.6121    2.3771 H   0  0  0  0  0  0  0  0  0  0  0  0
  1  2  1  0
  2  3  1  0
  3  4  2  0
  4  5  1  0
  5  6  1  0
  6  7  1  0
  5  8  2  0
  8  9  1  0
  8 10  1  0
 10 11  1  0
 11 12  1  0
 12 13  1  0
 13 14  1  0
 14 15  1  0
 15 16  1  0
 16 17  2  0
 16 18  1  0
 11 19  1  0
 19 20  2  0
 20 21  1  0
 21 22  2  0
 22 23  1  0
 23 24  2  0
 24 25  1  0
 25 26  2  0
 26 27  1  0
 27 28  2  0
 25 29  1  0
 29 30  1  0
 30 31  2  0
 31 32  1  0
 32 33  1  0
 32 34  1  0
 10 35  2  0
 35 36  1  0
 35  3  1  0
 18 13  1  0
 28 19  1  0
 34 29  2  0
 27 22  1  0
  1 37  1  0
  1 38  1  0
  1 39  1  0
  4 40  1  0
  7 41  1  0
  7 42  1  0
  7 43  1  0
 12 44  1  0
 12 45  1  0
 13 46  1  0
 14 47  1  0
 14 48  1  0
 15 49  1  0
 15 50  1  0
 18 51  1  0
 20 52  1  0
 21 53  1  0
 24 54  1  0
 26 55  1  0
 30 56  1  0
 33 57  1  0
 33 58  1  0
 33 59  1  0
 34 60  1  0
M  END
$$$$
[H]OC([H])([H])C([H])([H])Oc1c(Oc2c([H])c([H])nc(N([H])C(=O)c3c([H])c([H])c(C4([H])C([H])([H])C([H])([H])N(C([H])([H])C([H])([H])O[H])C([H])([H])C4([H])[H])c([H])c3[H])c2[H])c([H])c2c([H])c([H])n(C(=O)N([H])C([H])([H])[H])c2c1[H]
     RDKit          3D

 77 81  0  0  0  0  0  0  0  0999 V2000
   -9.5777    4.1577    2.1238 C   0  0  0  0  0  0  0  0  0  0  0  0
   -8.4699    3.2325    2.2242 N   0  0  0  0  0  0  0  0  0  0  0  0
   -8.0157    2.4950    1.0957 C   0  0  0  0  0  0  0  0  0  0  0  0
   -8.6092    2.6789    0.0111 O   0  0  0  0  0  0  0  0  0  0  0  0
   -6.9294    1.5923    1.2249 N   0  0  0  0  0  0  0  0  0  0  0  0
   -6.2665    1.3810    2.4024 C   0  0  0  0  0  0  0  0  0  0  0  0
   -5.2749    0.4472    2.2198 C   0  0  0  0  0  0  0  0  0  0  0  0
   -5.3735    0.1052    0.8711 C   0  0  0  0  0  0  0  0  0  0  0  0
   -4.6479   -0.7827    0.1087 C   0  0  0  0  0  0  0  0  0  0  0  0
   -4.9053   -0.9828   -1.2234 C   0  0  0  0  0  0  0  0  0  0  0  0
   -4.1271   -1.9067   -1.9484 O   0  0  0  0  0  0  0  0  0  0  0  0
   -3.1147   -2.5748   -1.2474 C   0  0  0  0  0  0  0  0  0  0  0  0
   -3.3024   -3.7763   -0.5984 C   0  0  0  0  0  0  0  0  0  0  0  0
   -2.2994   -4.4176    0.0867 C   0  0  0  0  0  0  0  0  0  0  0  0
   -1.0811   -3.8530    0.1289 N   0  0  0  0  0  0  0  0  0  0  0  0
   -0.8284   -2.6740   -0.4874 C   0  0  0  0  0  0  0  0  0  0  0  0
    0.4691   -2.1017   -0.4001 N   0  0  0  0  0  0  0  0  0  0  0  0
    1.5050   -2.7108    0.3536 C   0  0  0  0  0  0  0  0  0  0  0  0
    1.3004   -3.7844    0.9682 O   0  0  0  0  0  0  0  0  0  0  0  0
    2.8387   -2.0982    0.4358 C   0  0  0  0  0  0  0  0  0  0  0  0
    3.3843   -1.4298   -0.6384 C   0  0  0  0  0  0  0  0  0  0  0  0
    4.6249   -0.8303   -0.5489 C   0  0  0  0  0  0  0  0  0  0  0  0
    5.3647   -0.8802    0.6226 C   0  0  0  0  0  0  0  0  0  0  0  0
    4.8186   -1.5459    1.6837 C   0  0  0  0  0  0  0  0  0  0  0  0
    3.5671   -2.1564    1.6103 C   0  0  0  0  0  0  0  0  0  0  0  0
    6.6749   -0.2120    0.6419 C   0  0  0  0  0  0  0  0  0  0  0  0
    6.6410    1.0746    1.4546 C   0  0  0  0  0  0  0  0  0  0  0  0
    7.8775    1.8405    1.0948 C   0  0  0  0  0  0  0  0  0  0  0  0
    9.0611    1.0543    1.0666 N   0  0  0  0  0  0  0  0  0  0  0  0
    9.7745    1.1216   -0.1865 C   0  0  0  0  0  0  0  0  0  0  0  0
   10.3576    2.5069   -0.3779 C   0  0  0  0  0  0  0  0  0  0  0  0
   11.0453    2.5614   -1.5880 O   0  0  0  0  0  0  0  0  0  0  0  0
    8.9627   -0.2470    1.6298 C   0  0  0  0  0  0  0  0  0  0  0  0
    7.7666   -1.0484    1.2156 C   0  0  0  0  0  0  0  0  0  0  0  0
   -1.8519   -2.0270   -1.1827 C   0  0  0  0  0  0  0  0  0  0  0  0
   -5.9300   -0.2803   -1.8633 C   0  0  0  0  0  0  0  0  0  0  0  0
   -6.1545   -0.5039   -3.1740 O   0  0  0  0  0  0  0  0  0  0  0  0
   -7.0561   -0.0149   -4.0829 C   0  0  0  0  0  0  0  0  0  0  0  0
   -8.5060   -0.2671   -3.8168 C   0  0  0  0  0  0  0  0  0  0  0  0
   -8.7526   -1.6412   -3.7632 O   0  0  0  0  0  0  0  0  0  0  0  0
   -6.6510    0.6065   -1.0947 C   0  0  0  0  0  0  0  0  0  0  0  0
   -6.3888    0.8099    0.2634 C   0  0  0  0  0  0  0  0  0  0  0  0
  -10.5128    3.6572    2.5057 H   0  0  0  0  0  0  0  0  0  0  0  0
   -9.8070    4.4652    1.0899 H   0  0  0  0  0  0  0  0  0  0  0  0
   -9.3495    5.0416    2.7594 H   0  0  0  0  0  0  0  0  0  0  0  0
   -8.0346    3.1479    3.1689 H   0  0  0  0  0  0  0  0  0  0  0  0
   -6.4619    1.8570    3.3573 H   0  0  0  0  0  0  0  0  0  0  0  0
   -4.5638    0.0379    2.9048 H   0  0  0  0  0  0  0  0  0  0  0  0
   -3.8410   -1.3388    0.6103 H   0  0  0  0  0  0  0  0  0  0  0  0
   -4.2789   -4.2187   -0.6401 H   0  0  0  0  0  0  0  0  0  0  0  0
   -2.4377   -5.3613    0.6008 H   0  0  0  0  0  0  0  0  0  0  0  0
    0.6543   -1.2114   -0.9055 H   0  0  0  0  0  0  0  0  0  0  0  0
    2.7940   -1.3954   -1.5538 H   0  0  0  0  0  0  0  0  0  0  0  0
    4.9909   -0.3294   -1.4168 H   0  0  0  0  0  0  0  0  0  0  0  0
    5.3892   -1.5898    2.6097 H   0  0  0  0  0  0  0  0  0  0  0  0
    3.1702   -2.6742    2.4782 H   0  0  0  0  0  0  0  0  0  0  0  0
    6.9589    0.0970   -0.3806 H   0  0  0  0  0  0  0  0  0  0  0  0
    5.7451    1.6844    1.2000 H   0  0  0  0  0  0  0  0  0  0  0  0
    6.6478    0.8864    2.5462 H   0  0  0  0  0  0  0  0  0  0  0  0
    7.7331    2.2625    0.0563 H   0  0  0  0  0  0  0  0  0  0  0  0
    8.0512    2.7245    1.7417 H   0  0  0  0  0  0  0  0  0  0  0  0
   10.6253    0.4170   -0.2018 H   0  0  0  0  0  0  0  0  0  0  0  0
    9.1349    0.9235   -1.0700 H   0  0  0  0  0  0  0  0  0  0  0  0
   10.9425    2.8696    0.4787 H   0  0  0  0  0  0  0  0  0  0  0  0
    9.4982    3.2251   -0.4938 H   0  0  0  0  0  0  0  0  0  0  0  0
   11.2025    1.6476   -1.9506 H   0  0  0  0  0  0  0  0  0  0  0  0
    9.0826   -0.1806    2.7405 H   0  0  0  0  0  0  0  0  0  0  0  0
    9.8662   -0.8341    1.2924 H   0  0  0  0  0  0  0  0  0  0  0  0
    8.0155   -1.8614    0.4949 H   0  0  0  0  0  0  0  0  0  0  0  0
    7.3657   -1.5236    2.1607 H   0  0  0  0  0  0  0  0  0  0  0  0
   -1.5909   -1.0806   -1.6611 H   0  0  0  0  0  0  0  0  0  0  0  0
   -6.9511    1.1035   -4.2381 H   0  0  0  0  0  0  0  0  0  0  0  0
   -6.8641   -0.4284   -5.1228 H   0  0  0  0  0  0  0  0  0  0  0  0
   -9.0871    0.0745   -4.7249 H   0  0  0  0  0  0  0  0  0  0  0  0
   -8.9447    0.2550   -2.9731 H   0  0  0  0  0  0  0  0  0  0  0  0
   -9.6149   -1.7912   -3.2811 H   0  0  0  0  0  0  0  0  0  0  0  0
   -7.4485    1.2022   -1.4976 H   0  0  0  0  0  0  0  0  0  0  0  0
  1  2  1  0
  2  3  1  0
  3  4  2  0
  3  5  1  0
  5  6  1  0
  6  7  2  0
  7  8  1  0
  8  9  2  0
  9 10  1  0
 10 11  1  0
 11 12  1  0
 12 13  2  0
 13 14  1  0
 14 15  2  0
 15 16  1  0
 16 17  1  0
 17 18  1  0
 18 19  2  0
 18 20  1  0
 20 21  2  0
 21 22  1  0
 22 23  2  0
 23 24  1  0
 24 25  2  0
 23 26  1  0
 26 27  1  0
 27 28  1  0
 28 29  1  0
 29 30  1  0
 30 31  1  0
 31 32  1  0
 29 33  1  0
 33 34  1  0
 16 35  2  0
 10 36  2  0
 36 37  1  0
 37 38  1  0
 38 39  1  0
 39 40  1  0
 36 41  1  0
 41 42  2  0
 42  5  1  0
 42  8  1  0
 35 12  1  0
 25 20  1  0
 34 26  1  0
  1 43  1  0
  1 44  1  0
  1 45  1  0
  2 46  1  0
  6 47  1  0
  7 48  1  0
  9 49  1  0
 13 50  1  0
 14 51  1  0
 17 52  1  0
 21 53  1  0
 22 54  1  0
 24 55  1  0
 25 56  1  0
 26 57  1  0
 27 58  1  0
 27 59  1  0
 28 60  1  0
 28 61  1  0
 30 62  1  0
 30 63  1  0
 31 64  1  0
 31 65  1  0
 32 66  1  0
 33 67  1  0
 33 68  1  0
 34 69  1  0
 34 70  1  0
 35 71  1  0
 38 72  1  0
 38 73  1  0
 39 74  1  0
 39 75  1  0
 40 76  1  0
 41 77  1  0
M  END
$$$$
[H]c1c([H])c(OC([H])([H])[H])c(F)c(-c2c([H])c([H])c3c(N([H])C(=O)c4c([H])c([H])c(N5C([H])([H])C([H])([H])N(C([H])([H])C([H])([H])[H])C([H])([H])C5([H])[H])c([H])c4[H])nn([H])c3c2[H])c1[H]
     RDKit          3D

 63 67  0  0  0  0  0  0  0  0999 V2000
   -9.3508    0.0183    0.9161 C   0  0  0  0  0  0  0  0  0  0  0  0
   -8.1531    0.8766    1.1175 C   0  0  0  0  0  0  0  0  0  0  0  0
   -7.1174    0.2611    1.9041 N   0  0  0  0  0  0  0  0  0  0  0  0
   -5.9696    1.1163    2.0813 C   0  0  0  0  0  0  0  0  0  0  0  0
   -5.0897    1.1906    0.8811 C   0  0  0  0  0  0  0  0  0  0  0  0
   -4.6423   -0.1679    0.5641 N   0  0  0  0  0  0  0  0  0  0  0  0
   -5.2531   -1.2215    1.3321 C   0  0  0  0  0  0  0  0  0  0  0  0
   -6.7528   -1.0550    1.4546 C   0  0  0  0  0  0  0  0  0  0  0  0
   -3.6693   -0.3479   -0.4464 C   0  0  0  0  0  0  0  0  0  0  0  0
   -3.1736    0.7631   -1.1171 C   0  0  0  0  0  0  0  0  0  0  0  0
   -2.2278    0.6679   -2.1108 C   0  0  0  0  0  0  0  0  0  0  0  0
   -1.7286   -0.5856   -2.4800 C   0  0  0  0  0  0  0  0  0  0  0  0
   -2.1995   -1.7045   -1.8344 C   0  0  0  0  0  0  0  0  0  0  0  0
   -3.1583   -1.5601   -0.8332 C   0  0  0  0  0  0  0  0  0  0  0  0
   -0.7352   -0.6679   -3.5389 C   0  0  0  0  0  0  0  0  0  0  0  0
   -1.1243   -0.8008   -4.7366 O   0  0  0  0  0  0  0  0  0  0  0  0
    0.6544   -0.6049   -3.2800 N   0  0  0  0  0  0  0  0  0  0  0  0
    1.1564   -0.4563   -1.9662 C   0  0  0  0  0  0  0  0  0  0  0  0
    0.5133   -0.3515   -0.7971 N   0  0  0  0  0  0  0  0  0  0  0  0
    1.3641   -0.2261    0.2036 N   0  0  0  0  0  0  0  0  0  0  0  0
    2.6296   -0.2412   -0.2522 C   0  0  0  0  0  0  0  0  0  0  0  0
    3.8706   -0.1485    0.3393 C   0  0  0  0  0  0  0  0  0  0  0  0
    5.0421   -0.1974   -0.4181 C   0  0  0  0  0  0  0  0  0  0  0  0
    4.9319   -0.3425   -1.7894 C   0  0  0  0  0  0  0  0  0  0  0  0
    3.6785   -0.4319   -2.3462 C   0  0  0  0  0  0  0  0  0  0  0  0
    2.5108   -0.3861   -1.6209 C   0  0  0  0  0  0  0  0  0  0  0  0
    6.3380   -0.0992    0.2404 C   0  0  0  0  0  0  0  0  0  0  0  0
    6.6264   -0.8301    1.3731 C   0  0  0  0  0  0  0  0  0  0  0  0
    7.8755   -0.7212    1.9843 C   0  0  0  0  0  0  0  0  0  0  0  0
    8.8551    0.1090    1.4867 C   0  0  0  0  0  0  0  0  0  0  0  0
    8.5750    0.8423    0.3560 C   0  0  0  0  0  0  0  0  0  0  0  0
    9.5132    1.7046   -0.2087 O   0  0  0  0  0  0  0  0  0  0  0  0
   10.7731    1.8119    0.4110 C   0  0  0  0  0  0  0  0  0  0  0  0
    7.3284    0.7263   -0.2443 C   0  0  0  0  0  0  0  0  0  0  0  0
    7.0964    1.4732   -1.3595 F   0  0  0  0  0  0  0  0  0  0  0  0
  -10.2118    0.6862    0.6620 H   0  0  0  0  0  0  0  0  0  0  0  0
   -9.6651   -0.5371    1.8274 H   0  0  0  0  0  0  0  0  0  0  0  0
   -9.2442   -0.6722    0.0515 H   0  0  0  0  0  0  0  0  0  0  0  0
   -7.7890    1.2049    0.1252 H   0  0  0  0  0  0  0  0  0  0  0  0
   -8.4708    1.7977    1.6554 H   0  0  0  0  0  0  0  0  0  0  0  0
   -6.3525    2.1330    2.3009 H   0  0  0  0  0  0  0  0  0  0  0  0
   -5.3868    0.7682    2.9374 H   0  0  0  0  0  0  0  0  0  0  0  0
   -4.2314    1.8449    1.1241 H   0  0  0  0  0  0  0  0  0  0  0  0
   -5.6131    1.5507   -0.0281 H   0  0  0  0  0  0  0  0  0  0  0  0
   -4.9737   -2.2387    1.0122 H   0  0  0  0  0  0  0  0  0  0  0  0
   -4.8535   -1.1202    2.3810 H   0  0  0  0  0  0  0  0  0  0  0  0
   -7.1035   -1.7900    2.2081 H   0  0  0  0  0  0  0  0  0  0  0  0
   -7.2045   -1.3005    0.4992 H   0  0  0  0  0  0  0  0  0  0  0  0
   -3.5262    1.7750   -0.8728 H   0  0  0  0  0  0  0  0  0  0  0  0
   -1.8345    1.5275   -2.6402 H   0  0  0  0  0  0  0  0  0  0  0  0
   -1.8178   -2.6849   -2.1137 H   0  0  0  0  0  0  0  0  0  0  0  0
   -3.5051   -2.4617   -0.3474 H   0  0  0  0  0  0  0  0  0  0  0  0
    1.3517   -0.6688   -4.0823 H   0  0  0  0  0  0  0  0  0  0  0  0
    1.0894   -0.1297    1.2008 H   0  0  0  0  0  0  0  0  0  0  0  0
    3.9109   -0.0366    1.4073 H   0  0  0  0  0  0  0  0  0  0  0  0
    5.8336   -0.3853   -2.4046 H   0  0  0  0  0  0  0  0  0  0  0  0
    3.6030   -0.5450   -3.4187 H   0  0  0  0  0  0  0  0  0  0  0  0
    5.8635   -1.4918    1.7804 H   0  0  0  0  0  0  0  0  0  0  0  0
    8.1045   -1.3022    2.8845 H   0  0  0  0  0  0  0  0  0  0  0  0
    9.8110    0.1733    1.9794 H   0  0  0  0  0  0  0  0  0  0  0  0
   11.3787    2.5382   -0.1710 H   0  0  0  0  0  0  0  0  0  0  0  0
   11.2430    0.8021    0.4177 H   0  0  0  0  0  0  0  0  0  0  0  0
   10.6070    2.1500    1.4537 H   0  0  0  0  0  0  0  0  0  0  0  0
  1  2  1  0
  2  3  1  0
  3  4  1  0
  4  5  1  0
  5  6  1  0
  6  7  1  0
  7  8  1  0
  6  9  1  0
  9 10  2  0
 10 11  1  0
 11 12  2  0
 12 13  1  0
 13 14  2  0
 12 15  1  0
 15 16  2  0
 15 17  1  0
 17 18  1  0
 18 19  2  0
 19 20  1  0
 20 21  1  0
 21 22  2  0
 22 23  1  0
 23 24  2  0
 24 25  1  0
 25 26  2  0
 23 27  1  0
 27 28  2  0
 28 29  1  0
 29 30  2  0
 30 31  1  0
 31 32  1  0
 32 33  1  0
 31 34  2  0
 34 35  1  0
  8  3  1  0
 14  9  1  0
 26 18  1  0
 34 27  1  0
 26 21  1  0
  1 36  1  0
  1 37  1  0
  1 38  1  0
  2 39  1  0
  2 40  1  0
  4 41  1  0
  4 42  1  0
  5 43  1  0
  5 44  1  0
  7 45  1  0
  7 46  1  0
  8 47  1  0
  8 48  1  0
 10 49  1  0
 11 50  1  0
 13 51  1  0
 14 52  1  0
 17 53  1  0
 20 54  1  0
 22 55  1  0
 24 56  1  0
 25 57  1  0
 28 58  1  0
 29 59  1  0
 30 60  1  0
 33 61  1  0
 33 62  1  0
 33 63  1  0
M  END
$$$$
[H]C([H])=C([H])C(=O)N1C([H])([H])C([H])([H])N(C([H])([H])C([H])([H])C([H])([H])n2c(=O)c(-c3c([H])c(OC([H])([H])[H])c([H])c(OC([H])([H])[H])c3Cl)c([H])c3c([H])nc(N([H])C([H])([H])C([H])([H])N4C([H])([H])C([H])([H])OC([H])([H])C4([H])[H])nc32)C([H])([H])C1([H])[H]
     RDKit          3D

 84 88  0  0  0  0  0  0  0  0999 V2000
   -1.9338    9.4750    1.0436 C   0  0  0  0  0  0  0  0  0  0  0  0
   -2.1105    8.0743    0.9639 O   0  0  0  0  0  0  0  0  0  0  0  0
   -1.1161    7.1997    0.5974 C   0  0  0  0  0  0  0  0  0  0  0  0
    0.1680    7.5967    0.2653 C   0  0  0  0  0  0  0  0  0  0  0  0
    1.1431    6.6891   -0.0983 C   0  0  0  0  0  0  0  0  0  0  0  0
    2.4365    7.0333   -0.4377 O   0  0  0  0  0  0  0  0  0  0  0  0
    2.9295    8.3329   -0.4583 C   0  0  0  0  0  0  0  0  0  0  0  0
    0.8591    5.3243   -0.1428 C   0  0  0  0  0  0  0  0  0  0  0  0
    2.0642    4.1403   -0.6003 Cl  0  0  0  0  0  0  0  0  0  0  0  0
   -0.4091    4.9076    0.1831 C   0  0  0  0  0  0  0  0  0  0  0  0
   -1.3839    5.8448    0.5494 C   0  0  0  0  0  0  0  0  0  0  0  0
   -0.6983    3.4853    0.1411 C   0  0  0  0  0  0  0  0  0  0  0  0
   -1.4256    2.9551   -0.8989 C   0  0  0  0  0  0  0  0  0  0  0  0
   -1.7177    1.5948   -0.9603 C   0  0  0  0  0  0  0  0  0  0  0  0
   -2.4515    1.0433   -1.9730 C   0  0  0  0  0  0  0  0  0  0  0  0
   -2.7285   -0.2719   -1.9931 N   0  0  0  0  0  0  0  0  0  0  0  0
   -2.3003   -1.1088   -1.0221 C   0  0  0  0  0  0  0  0  0  0  0  0
   -2.6132   -2.5017   -1.0611 N   0  0  0  0  0  0  0  0  0  0  0  0
   -3.3944   -3.0305   -2.1431 C   0  0  0  0  0  0  0  0  0  0  0  0
   -3.6243   -4.5148   -1.9657 C   0  0  0  0  0  0  0  0  0  0  0  0
   -4.3156   -4.8269   -0.7468 N   0  0  0  0  0  0  0  0  0  0  0  0
   -4.4909   -6.2589   -0.6726 C   0  0  0  0  0  0  0  0  0  0  0  0
   -5.7023   -6.6322    0.1574 C   0  0  0  0  0  0  0  0  0  0  0  0
   -6.8850   -6.1133   -0.3590 O   0  0  0  0  0  0  0  0  0  0  0  0
   -6.6767   -5.0439   -1.2211 C   0  0  0  0  0  0  0  0  0  0  0  0
   -5.5912   -4.1889   -0.5962 C   0  0  0  0  0  0  0  0  0  0  0  0
   -1.5797   -0.5633   -0.0305 N   0  0  0  0  0  0  0  0  0  0  0  0
   -1.2689    0.7420    0.0466 C   0  0  0  0  0  0  0  0  0  0  0  0
   -0.5623    1.2799    1.0481 N   0  0  0  0  0  0  0  0  0  0  0  0
   -0.0383    0.4334    2.0915 C   0  0  0  0  0  0  0  0  0  0  0  0
    1.3965    0.0131    1.8702 C   0  0  0  0  0  0  0  0  0  0  0  0
    1.6480   -0.7642    0.6205 C   0  0  0  0  0  0  0  0  0  0  0  0
    3.0640   -1.0521    0.5270 N   0  0  0  0  0  0  0  0  0  0  0  0
    3.5696   -1.9702    1.4828 C   0  0  0  0  0  0  0  0  0  0  0  0
    5.0012   -2.3419    1.2815 C   0  0  0  0  0  0  0  0  0  0  0  0
    5.1918   -2.8416   -0.0539 N   0  0  0  0  0  0  0  0  0  0  0  0
    4.0875   -2.6742   -0.9986 C   0  0  0  0  0  0  0  0  0  0  0  0
    3.4541   -1.3065   -0.8421 C   0  0  0  0  0  0  0  0  0  0  0  0
    6.3880   -3.4749   -0.4822 C   0  0  0  0  0  0  0  0  0  0  0  0
    6.4927   -3.8901   -1.6576 O   0  0  0  0  0  0  0  0  0  0  0  0
    7.4879   -3.6434    0.4320 C   0  0  0  0  0  0  0  0  0  0  0  0
    8.6313   -4.2197    0.1082 C   0  0  0  0  0  0  0  0  0  0  0  0
   -0.2727    2.6150    1.1149 C   0  0  0  0  0  0  0  0  0  0  0  0
    0.4065    3.0298    2.1124 O   0  0  0  0  0  0  0  0  0  0  0  0
   -2.8879    9.9977    1.2553 H   0  0  0  0  0  0  0  0  0  0  0  0
   -1.5227    9.8768    0.1000 H   0  0  0  0  0  0  0  0  0  0  0  0
   -1.2293    9.7659    1.8657 H   0  0  0  0  0  0  0  0  0  0  0  0
    0.3954    8.6399    0.2956 H   0  0  0  0  0  0  0  0  0  0  0  0
    2.7565    8.7295   -1.5000 H   0  0  0  0  0  0  0  0  0  0  0  0
    2.3924    8.9759    0.2640 H   0  0  0  0  0  0  0  0  0  0  0  0
    4.0181    8.2793   -0.2433 H   0  0  0  0  0  0  0  0  0  0  0  0
   -2.3674    5.5089    0.8006 H   0  0  0  0  0  0  0  0  0  0  0  0
   -1.7969    3.5668   -1.7035 H   0  0  0  0  0  0  0  0  0  0  0  0
   -2.8087    1.7004   -2.7686 H   0  0  0  0  0  0  0  0  0  0  0  0
   -2.2862   -3.1530   -0.3196 H   0  0  0  0  0  0  0  0  0  0  0  0
   -4.3053   -2.4472   -2.2958 H   0  0  0  0  0  0  0  0  0  0  0  0
   -2.8066   -2.9287   -3.0997 H   0  0  0  0  0  0  0  0  0  0  0  0
   -4.1825   -4.9309   -2.8205 H   0  0  0  0  0  0  0  0  0  0  0  0
   -2.6366   -5.0083   -1.9202 H   0  0  0  0  0  0  0  0  0  0  0  0
   -3.6148   -6.7195   -0.1866 H   0  0  0  0  0  0  0  0  0  0  0  0
   -4.5777   -6.7389   -1.6668 H   0  0  0  0  0  0  0  0  0  0  0  0
   -5.7828   -7.7425    0.1251 H   0  0  0  0  0  0  0  0  0  0  0  0
   -5.4992   -6.3119    1.1980 H   0  0  0  0  0  0  0  0  0  0  0  0
   -7.5939   -4.4273   -1.2706 H   0  0  0  0  0  0  0  0  0  0  0  0
   -6.3843   -5.3864   -2.2398 H   0  0  0  0  0  0  0  0  0  0  0  0
   -5.6583   -3.1641   -0.9586 H   0  0  0  0  0  0  0  0  0  0  0  0
   -5.8153   -4.1836    0.5089 H   0  0  0  0  0  0  0  0  0  0  0  0
   -0.1544    0.9554    3.0637 H   0  0  0  0  0  0  0  0  0  0  0  0
   -0.6357   -0.4984    2.1642 H   0  0  0  0  0  0  0  0  0  0  0  0
    1.7424   -0.6318    2.7285 H   0  0  0  0  0  0  0  0  0  0  0  0
    2.0619    0.9184    1.9414 H   0  0  0  0  0  0  0  0  0  0  0  0
    1.0560   -1.7074    0.6919 H   0  0  0  0  0  0  0  0  0  0  0  0
    1.3993   -0.1621   -0.2731 H   0  0  0  0  0  0  0  0  0  0  0  0
    3.5235   -1.4799    2.5012 H   0  0  0  0  0  0  0  0  0  0  0  0
    2.9769   -2.9040    1.5832 H   0  0  0  0  0  0  0  0  0  0  0  0
    5.7126   -1.5366    1.5460 H   0  0  0  0  0  0  0  0  0  0  0  0
    5.2150   -3.1980    1.9725 H   0  0  0  0  0  0  0  0  0  0  0  0
    3.3604   -3.4868   -0.9249 H   0  0  0  0  0  0  0  0  0  0  0  0
    4.5357   -2.7012   -2.0128 H   0  0  0  0  0  0  0  0  0  0  0  0
    2.5319   -1.3043   -1.4575 H   0  0  0  0  0  0  0  0  0  0  0  0
    4.1234   -0.5202   -1.2518 H   0  0  0  0  0  0  0  0  0  0  0  0
    7.4079   -3.2846    1.4619 H   0  0  0  0  0  0  0  0  0  0  0  0
    9.4494   -4.3423    0.7960 H   0  0  0  0  0  0  0  0  0  0  0  0
    8.7590   -4.5909   -0.9005 H   0  0  0  0  0  0  0  0  0  0  0  0
  1  2  1  0
  2  3  1  0
  3  4  2  0
  4  5  1  0
  5  6  1  0
  6  7  1  0
  5  8  2  0
  8  9  1  0
  8 10  1  0
 10 11  2  0
 10 12  1  0
 12 13  2  0
 13 14  1  0
 14 15  2  0
 15 16  1  0
 16 17  2  0
 17 18  1  0
 18 19  1  0
 19 20  1  0
 20 21  1  0
 21 22  1  0
 22 23  1  0
 23 24  1  0
 24 25  1  0
 25 26  1  0
 17 27  1  0
 27 28  2  0
 28 29  1  0
 29 30  1  0
 30 31  1  0
 31 32  1  0
 32 33  1  0
 33 34  1  0
 34 35  1  0
 35 36  1  0
 36 37  1  0
 37 38  1  0
 36 39  1  0
 39 40  2  0
 39 41  1  0
 41 42  2  3
 29 43  1  0
 43 44  2  0
 11  3  1  0
 43 12  1  0
 28 14  1  0
 38 33  1  0
 26 21  1  0
  1 45  1  0
  1 46  1  0
  1 47  1  0
  4 48  1  0
  7 49  1  0
  7 50  1  0
  7 51  1  0
 11 52  1  0
 13 53  1  0
 15 54  1  0
 18 55  1  0
 19 56  1  0
 19 57  1  0
 20 58  1  0
 20 59  1  0
 22 60  1  0
 22 61  1  0
 23 62  1  0
 23 63  1  0
 25 64  1  0
 25 65  1  0
 26 66  1  0
 26 67  1  0
 30 68  1  0
 30 69  1  0
 31 70  1  0
 31 71  1  0
 32 72  1  0
 32 73  1  0
 34 74  1  0
 34 75  1  0
 35 76  1  0
 35 77  1  0
 37 78  1  0
 37 79  1  0
 38 80  1  0
 38 81  1  0
 41 82  1  0
 42 83  1  0
 42 84  1  0
M  END
$$$$
[H]c1nc([H])c(C([H])([H])n2nc(C([H])([H])[H])c(-c3nc([H])c4c(c3[H])N(C([H])([H])C([H])([H])[H])C(=O)N(c3c(F)c(OC([H])([H])[H])c([H])c(OC([H])([H])[H])c3F)C4([H])[H])c2[H])c([H])c1[H]
     RDKit          3D

 64 68  0  0  0  0  0  0  0  0999 V2000
    0.2096    0.8943   -3.2983 C   0  0  0  0  0  0  0  0  0  0  0  0
    0.0011   -0.3686   -2.4633 C   0  0  0  0  0  0  0  0  0  0  0  0
   -0.7975    0.0012   -1.3249 N   0  0  0  0  0  0  0  0  0  0  0  0
   -2.2346   -0.0749   -1.3722 C   0  0  0  0  0  0  0  0  0  0  0  0
   -2.8231   -0.4520   -2.4097 O   0  0  0  0  0  0  0  0  0  0  0  0
   -2.9778    0.2920   -0.2044 N   0  0  0  0  0  0  0  0  0  0  0  0
   -2.4505    1.1520    0.7896 C   0  0  0  0  0  0  0  0  0  0  0  0
   -1.0029    0.8675    0.9822 C   0  0  0  0  0  0  0  0  0  0  0  0
   -0.3665    1.1216    2.1928 C   0  0  0  0  0  0  0  0  0  0  0  0
    0.9630    0.9960    2.3498 N   0  0  0  0  0  0  0  0  0  0  0  0
    1.7193    0.6119    1.3091 C   0  0  0  0  0  0  0  0  0  0  0  0
    1.1113    0.3559    0.1111 C   0  0  0  0  0  0  0  0  0  0  0  0
   -0.2559    0.4667   -0.1043 C   0  0  0  0  0  0  0  0  0  0  0  0
    3.1818    0.4215    1.4526 C   0  0  0  0  0  0  0  0  0  0  0  0
    4.0117   -0.0583    0.4679 C   0  0  0  0  0  0  0  0  0  0  0  0
    5.2868   -0.1217    0.9275 N   0  0  0  0  0  0  0  0  0  0  0  0
    6.4669   -0.6037    0.1963 C   0  0  0  0  0  0  0  0  0  0  0  0
    7.0135    0.5570   -0.5150 C   0  0  0  0  0  0  0  0  0  0  0  0
    6.6680    0.8014   -1.8142 C   0  0  0  0  0  0  0  0  0  0  0  0
    7.1529    1.8834   -2.5306 C   0  0  0  0  0  0  0  0  0  0  0  0
    8.0100    2.7130   -1.8540 C   0  0  0  0  0  0  0  0  0  0  0  0
    8.3594    2.4837   -0.5671 N   0  0  0  0  0  0  0  0  0  0  0  0
    7.8731    1.4182    0.1067 C   0  0  0  0  0  0  0  0  0  0  0  0
    5.2610    0.3075    2.1747 N   0  0  0  0  0  0  0  0  0  0  0  0
    3.9927    0.6483    2.5320 C   0  0  0  0  0  0  0  0  0  0  0  0
    3.5962    1.1781    3.8574 C   0  0  0  0  0  0  0  0  0  0  0  0
   -4.2673   -0.3625   -0.0955 C   0  0  0  0  0  0  0  0  0  0  0  0
   -4.3361   -1.4557    0.7270 C   0  0  0  0  0  0  0  0  0  0  0  0
   -3.2839   -1.8858    1.4436 F   0  0  0  0  0  0  0  0  0  0  0  0
   -5.5461   -2.1844    0.8535 C   0  0  0  0  0  0  0  0  0  0  0  0
   -5.5677   -3.2221    1.6437 O   0  0  0  0  0  0  0  0  0  0  0  0
   -5.5959   -4.2415    2.4176 C   0  0  0  0  0  0  0  0  0  0  0  0
   -6.6567   -1.7467    0.1136 C   0  0  0  0  0  0  0  0  0  0  0  0
   -6.5816   -0.6295   -0.7219 C   0  0  0  0  0  0  0  0  0  0  0  0
   -7.6694   -0.1946   -1.4539 O   0  0  0  0  0  0  0  0  0  0  0  0
   -8.9334   -0.7864   -1.4603 C   0  0  0  0  0  0  0  0  0  0  0  0
   -5.3738    0.0183   -0.7885 C   0  0  0  0  0  0  0  0  0  0  0  0
   -5.2189    1.1256   -1.5850 F   0  0  0  0  0  0  0  0  0  0  0  0
   -0.7328    1.4754   -3.3882 H   0  0  0  0  0  0  0  0  0  0  0  0
    0.5312    0.5872   -4.3301 H   0  0  0  0  0  0  0  0  0  0  0  0
    1.0114    1.5245   -2.8907 H   0  0  0  0  0  0  0  0  0  0  0  0
    0.9356   -0.8811   -2.2311 H   0  0  0  0  0  0  0  0  0  0  0  0
   -0.5853   -1.0874   -3.0932 H   0  0  0  0  0  0  0  0  0  0  0  0
   -2.9458    0.9721    1.7735 H   0  0  0  0  0  0  0  0  0  0  0  0
   -2.6091    2.2281    0.5043 H   0  0  0  0  0  0  0  0  0  0  0  0
   -1.0150    1.4291    2.9969 H   0  0  0  0  0  0  0  0  0  0  0  0
    1.7359    0.0539   -0.7128 H   0  0  0  0  0  0  0  0  0  0  0  0
    3.7197   -0.3527   -0.5342 H   0  0  0  0  0  0  0  0  0  0  0  0
    7.1615   -1.0739    0.9253 H   0  0  0  0  0  0  0  0  0  0  0  0
    6.1201   -1.3911   -0.5094 H   0  0  0  0  0  0  0  0  0  0  0  0
    5.9956    0.1356   -2.3441 H   0  0  0  0  0  0  0  0  0  0  0  0
    6.8819    2.0643   -3.5581 H   0  0  0  0  0  0  0  0  0  0  0  0
    8.4442    3.5847   -2.3366 H   0  0  0  0  0  0  0  0  0  0  0  0
    8.2014    1.3054    1.1175 H   0  0  0  0  0  0  0  0  0  0  0  0
    2.6544    0.6941    4.2003 H   0  0  0  0  0  0  0  0  0  0  0  0
    4.3760    0.8913    4.6291 H   0  0  0  0  0  0  0  0  0  0  0  0
    3.5596    2.2832    3.8554 H   0  0  0  0  0  0  0  0  0  0  0  0
   -6.0374   -5.1773    1.9110 H   0  0  0  0  0  0  0  0  0  0  0  0
   -4.6007   -4.5791    2.8792 H   0  0  0  0  0  0  0  0  0  0  0  0
   -6.2628   -4.1610    3.3438 H   0  0  0  0  0  0  0  0  0  0  0  0
   -7.5896   -2.2677    0.1900 H   0  0  0  0  0  0  0  0  0  0  0  0
   -8.8319   -1.9089   -1.3441 H   0  0  0  0  0  0  0  0  0  0  0  0
   -9.4413   -0.6669   -2.4506 H   0  0  0  0  0  0  0  0  0  0  0  0
   -9.6155   -0.4443   -0.6884 H   0  0  0  0  0  0  0  0  0  0  0  0
  1  2  1  0
  2  3  1  0
  3  4  1  0
  4  5  2  0
  4  6  1  0
  6  7  1  0
  7  8  1  0
  8  9  2  0
  9 10  1  0
 10 11  2  0
 11 12  1  0
 12 13  2  0
 11 14  1  0
 14 15  2  0
 15 16  1  0
 16 17  1  0
 17 18  1  0
 18 19  2  0
 19 20  1  0
 20 21  2  0
 21 22  1  0
 22 23  2  0
 16 24  1  0
 24 25  2  0
 25 26  1  0
  6 27  1  0
 27 28  2  0
 28 29  1  0
 28 30  1  0
 30 31  1  0
 31 32  1  0
 30 33  2  0
 33 34  1  0
 34 35  1  0
 35 36  1  0
 34 37  2  0
 37 38  1  0
 13  3  1  0
 25 14  1  0
 37 27  1  0
 13  8  1  0
 23 18  1  0
  1 39  1  0
  1 40  1  0
  1 41  1  0
  2 42  1  0
  2 43  1  0
  7 44  1  0
  7 45  1  0
  9 46  1  0
 12 47  1  0
 15 48  1  0
 17 49  1  0
 17 50  1  0
 19 51  1  0
 20 52  1  0
 21 53  1  0
 23 54  1  0
 26 55  1  0
 26 56  1  0
 26 57  1  0
 32 58  1  0
 32 59  1  0
 32 60  1  0
 33 61  1  0
 36 62  1  0
 36 63  1  0
 36 64  1  0
M  END
$$$$
[H]c1nc([H])c(N2C(=O)N(c3c(F)c(OC([H])([H])[H])c([H])c(OC([H])([H])[H])c3F)C([H])([H])c3c([H])nc(-c4c(C([H])([H])[H])nn(C([H])([H])[H])c4[H])c([H])c32)c([H])c1[H]
     RDKit          3D

 58 62  0  0  0  0  0  0  0  0999 V2000
   -7.6441   -0.3292   -1.5903 C   0  0  0  0  0  0  0  0  0  0  0  0
   -6.2578   -0.4241   -1.7055 O   0  0  0  0  0  0  0  0  0  0  0  0
   -5.4127   -0.1513   -0.6692 C   0  0  0  0  0  0  0  0  0  0  0  0
   -5.8800    0.2369    0.5576 C   0  0  0  0  0  0  0  0  0  0  0  0
   -4.9516    0.4978    1.5730 C   0  0  0  0  0  0  0  0  0  0  0  0
   -5.3850    0.8921    2.8246 O   0  0  0  0  0  0  0  0  0  0  0  0
   -6.7701    1.0245    3.0519 C   0  0  0  0  0  0  0  0  0  0  0  0
   -3.5998    0.3631    1.3300 C   0  0  0  0  0  0  0  0  0  0  0  0
   -2.7527    0.6256    2.3529 F   0  0  0  0  0  0  0  0  0  0  0  0
   -3.1132   -0.0288    0.0930 C   0  0  0  0  0  0  0  0  0  0  0  0
   -1.7079   -0.1667   -0.1360 N   0  0  0  0  0  0  0  0  0  0  0  0
   -1.1156   -1.4274   -0.4578 C   0  0  0  0  0  0  0  0  0  0  0  0
    0.3521   -1.4147   -0.4444 C   0  0  0  0  0  0  0  0  0  0  0  0
    1.0631   -2.6190   -0.6177 C   0  0  0  0  0  0  0  0  0  0  0  0
    2.3928   -2.6431   -0.6444 N   0  0  0  0  0  0  0  0  0  0  0  0
    3.1040   -1.5164   -0.5066 C   0  0  0  0  0  0  0  0  0  0  0  0
    2.4802   -0.2992   -0.3329 C   0  0  0  0  0  0  0  0  0  0  0  0
    1.0806   -0.2616   -0.3025 C   0  0  0  0  0  0  0  0  0  0  0  0
    0.4679    1.0264   -0.0767 N   0  0  0  0  0  0  0  0  0  0  0  0
   -0.9502    1.0314   -0.0014 C   0  0  0  0  0  0  0  0  0  0  0  0
   -1.5353    2.1285    0.1887 O   0  0  0  0  0  0  0  0  0  0  0  0
    1.2480    2.1967    0.0608 C   0  0  0  0  0  0  0  0  0  0  0  0
    1.4967    2.7287    1.3071 C   0  0  0  0  0  0  0  0  0  0  0  0
    2.2723    3.8896    1.4361 C   0  0  0  0  0  0  0  0  0  0  0  0
    2.7885    4.5032    0.3231 C   0  0  0  0  0  0  0  0  0  0  0  0
    2.5351    3.9693   -0.8840 N   0  0  0  0  0  0  0  0  0  0  0  0
    1.7808    2.8383   -1.0254 C   0  0  0  0  0  0  0  0  0  0  0  0
    4.5567   -1.5981   -0.5438 C   0  0  0  0  0  0  0  0  0  0  0  0
    5.4603   -0.5402   -0.4041 C   0  0  0  0  0  0  0  0  0  0  0  0
    6.6778   -1.0515   -0.5024 N   0  0  0  0  0  0  0  0  0  0  0  0
    7.9219   -0.2989   -0.4142 C   0  0  0  0  0  0  0  0  0  0  0  0
    6.6038   -2.3621   -0.6947 N   0  0  0  0  0  0  0  0  0  0  0  0
    5.2954   -2.7345   -0.7253 C   0  0  0  0  0  0  0  0  0  0  0  0
    4.7695   -4.1037   -0.9186 C   0  0  0  0  0  0  0  0  0  0  0  0
   -4.0320   -0.2801   -0.8894 C   0  0  0  0  0  0  0  0  0  0  0  0
   -3.6147   -0.6606   -2.1148 F   0  0  0  0  0  0  0  0  0  0  0  0
   -8.0080    0.5438   -2.1779 H   0  0  0  0  0  0  0  0  0  0  0  0
   -8.0620   -1.2202   -2.1651 H   0  0  0  0  0  0  0  0  0  0  0  0
   -8.0670   -0.3517   -0.5893 H   0  0  0  0  0  0  0  0  0  0  0  0
   -6.9191    0.3644    0.8188 H   0  0  0  0  0  0  0  0  0  0  0  0
   -7.2554    0.0584    2.8070 H   0  0  0  0  0  0  0  0  0  0  0  0
   -6.9983    1.3797    4.0751 H   0  0  0  0  0  0  0  0  0  0  0  0
   -7.1767    1.7425    2.2802 H   0  0  0  0  0  0  0  0  0  0  0  0
   -1.4723   -2.2507    0.2038 H   0  0  0  0  0  0  0  0  0  0  0  0
   -1.4750   -1.6984   -1.4973 H   0  0  0  0  0  0  0  0  0  0  0  0
    0.4565   -3.5096   -0.7247 H   0  0  0  0  0  0  0  0  0  0  0  0
    3.0149    0.6281   -0.2190 H   0  0  0  0  0  0  0  0  0  0  0  0
    1.1145    2.2894    2.2297 H   0  0  0  0  0  0  0  0  0  0  0  0
    2.4767    4.3222    2.4179 H   0  0  0  0  0  0  0  0  0  0  0  0
    3.3978    5.4152    0.4289 H   0  0  0  0  0  0  0  0  0  0  0  0
    1.5786    2.4111   -2.0027 H   0  0  0  0  0  0  0  0  0  0  0  0
    5.1494    0.4792   -0.2473 H   0  0  0  0  0  0  0  0  0  0  0  0
    8.7418   -0.8268   -0.9466 H   0  0  0  0  0  0  0  0  0  0  0  0
    8.2013   -0.0826    0.6430 H   0  0  0  0  0  0  0  0  0  0  0  0
    7.8120    0.6801   -0.9259 H   0  0  0  0  0  0  0  0  0  0  0  0
    5.6102   -4.8217   -1.0550 H   0  0  0  0  0  0  0  0  0  0  0  0
    4.1527   -4.4177   -0.0400 H   0  0  0  0  0  0  0  0  0  0  0  0
    4.1025   -4.1757   -1.8102 H   0  0  0  0  0  0  0  0  0  0  0  0
  1  2  1  0
  2  3  1  0
  3  4  2  0
  4  5  1  0
  5  6  1  0
  6  7  1  0
  5  8  2  0
  8  9  1  0
  8 10  1  0
 10 11  1  0
 11 12  1  0
 12 13  1  0
 13 14  2  0
 14 15  1  0
 15 16  2  0
 16 17  1  0
 17 18  2  0
 18 19  1  0
 19 20  1  0
 20 21  2  0
 19 22  1  0
 22 23  2  0
 23 24  1  0
 24 25  2  0
 25 26  1  0
 26 27  2  0
 16 28  1  0
 28 29  2  0
 29 30  1  0
 30 31  1  0
 30 32  1  0
 32 33  2  0
 33 34  1  0
 10 35  2  0
 35 36  1  0
 35  3  1  0
 20 11  1  0
 27 22  1  0
 33 28  1  0
 18 13  1  0
  1 37  1  0
  1 38  1  0
  1 39  1  0
  4 40  1  0
  7 41  1  0
  7 42  1  0
  7 43  1  0
 12 44  1  0
 12 45  1  0
 14 46  1  0
 17 47  1  0
 23 48  1  0
 24 49  1  0
 25 50  1  0
 27 51  1  0
 29 52  1  0
 31 53  1  0
 31 54  1  0
 31 55  1  0
 34 56  1  0
 34 57  1  0
 34 58  1  0
M  END
$$$$
[H]c1nc(N([H])[H])c(-c2nn(-c3c(Cl)c(OC([H])([H])[H])c([H])c(OC([H])([H])[H])c3Cl)c(=O)c([H])c2[H])nc1-c1c(C(F)(F)F)nn(C([H])([H])[H])c1[H]
     RDKit          3D

 52 55  0  0  0  0  0  0  0  0999 V2000
   -7.3428    1.5180    0.4843 C   0  0  0  0  0  0  0  0  0  0  0  0
   -5.9973    1.7785    0.1461 O   0  0  0  0  0  0  0  0  0  0  0  0
   -5.2023    0.7393   -0.2973 C   0  0  0  0  0  0  0  0  0  0  0  0
   -5.7345   -0.5248   -0.3998 C   0  0  0  0  0  0  0  0  0  0  0  0
   -4.9913   -1.6068   -0.8365 C   0  0  0  0  0  0  0  0  0  0  0  0
   -5.5707   -2.8839   -0.9278 O   0  0  0  0  0  0  0  0  0  0  0  0
   -6.9335   -3.0834   -0.5720 C   0  0  0  0  0  0  0  0  0  0  0  0
   -3.6856   -1.3798   -1.1706 C   0  0  0  0  0  0  0  0  0  0  0  0
   -2.6866   -2.6993   -1.7300 Cl  0  0  0  0  0  0  0  0  0  0  0  0
   -3.0869   -0.1214   -1.0886 C   0  0  0  0  0  0  0  0  0  0  0  0
   -3.8705    0.9247   -0.6474 C   0  0  0  0  0  0  0  0  0  0  0  0
   -3.1878    2.5368   -0.5180 Cl  0  0  0  0  0  0  0  0  0  0  0  0
   -1.7173    0.0460   -1.4539 N   0  0  0  0  0  0  0  0  0  0  0  0
   -0.7407    0.0200   -0.5859 N   0  0  0  0  0  0  0  0  0  0  0  0
    0.5575    0.1697   -0.8690 C   0  0  0  0  0  0  0  0  0  0  0  0
    0.8829    0.3682   -2.1940 C   0  0  0  0  0  0  0  0  0  0  0  0
   -0.1075    0.4085   -3.1830 C   0  0  0  0  0  0  0  0  0  0  0  0
   -1.4046    0.2406   -2.7578 C   0  0  0  0  0  0  0  0  0  0  0  0
   -2.3626    0.2652   -3.6027 O   0  0  0  0  0  0  0  0  0  0  0  0
    1.5887    0.1273    0.1753 C   0  0  0  0  0  0  0  0  0  0  0  0
    2.8898    0.2754   -0.0978 N   0  0  0  0  0  0  0  0  0  0  0  0
    3.8440    0.2419    0.8466 C   0  0  0  0  0  0  0  0  0  0  0  0
    3.4235    0.0412    2.1664 C   0  0  0  0  0  0  0  0  0  0  0  0
    2.1128   -0.1140    2.4900 N   0  0  0  0  0  0  0  0  0  0  0  0
    1.2229   -0.0676    1.4865 C   0  0  0  0  0  0  0  0  0  0  0  0
   -0.1767   -0.2243    1.7612 N   0  0  0  0  0  0  0  0  0  0  0  0
    5.2636    0.3968    0.5873 C   0  0  0  0  0  0  0  0  0  0  0  0
    6.2787    0.3875    1.5157 C   0  0  0  0  0  0  0  0  0  0  0  0
    7.4691    0.5603    0.8907 N   0  0  0  0  0  0  0  0  0  0  0  0
    8.7438    0.6018    1.5643 C   0  0  0  0  0  0  0  0  0  0  0  0
    7.2060    0.6727   -0.3762 N   0  0  0  0  0  0  0  0  0  0  0  0
    5.8744    0.5813   -0.6277 C   0  0  0  0  0  0  0  0  0  0  0  0
    5.3210    0.6730   -1.9782 C   0  0  0  0  0  0  0  0  0  0  0  0
    6.3398    0.8698   -2.9300 F   0  0  0  0  0  0  0  0  0  0  0  0
    4.5127    1.7840   -2.1007 F   0  0  0  0  0  0  0  0  0  0  0  0
    4.6590   -0.4650   -2.3933 F   0  0  0  0  0  0  0  0  0  0  0  0
   -7.8561    2.4321    0.8418 H   0  0  0  0  0  0  0  0  0  0  0  0
   -7.8650    1.2025   -0.4495 H   0  0  0  0  0  0  0  0  0  0  0  0
   -7.3565    0.7147    1.2552 H   0  0  0  0  0  0  0  0  0  0  0  0
   -6.7854   -0.7179   -0.1331 H   0  0  0  0  0  0  0  0  0  0  0  0
   -7.0305   -2.7106    0.4876 H   0  0  0  0  0  0  0  0  0  0  0  0
   -7.1871   -4.1528   -0.5474 H   0  0  0  0  0  0  0  0  0  0  0  0
   -7.6139   -2.4645   -1.1782 H   0  0  0  0  0  0  0  0  0  0  0  0
    1.9068    0.4990   -2.5081 H   0  0  0  0  0  0  0  0  0  0  0  0
    0.1514    0.5658   -4.2310 H   0  0  0  0  0  0  0  0  0  0  0  0
    4.1971    0.0168    2.9100 H   0  0  0  0  0  0  0  0  0  0  0  0
   -0.7905    0.5961    1.9572 H   0  0  0  0  0  0  0  0  0  0  0  0
   -0.5893   -1.1800    1.7648 H   0  0  0  0  0  0  0  0  0  0  0  0
    6.1675    0.2621    2.5941 H   0  0  0  0  0  0  0  0  0  0  0  0
    9.0800   -0.3919    1.9243 H   0  0  0  0  0  0  0  0  0  0  0  0
    8.6430    1.2769    2.4413 H   0  0  0  0  0  0  0  0  0  0  0  0
    9.5376    0.9936    0.8994 H   0  0  0  0  0  0  0  0  0  0  0  0
  1  2  1  0
  2  3  1  0
  3  4  2  0
  4  5  1  0
  5  6  1  0
  6  7  1  0
  5  8  2  0
  8  9  1  0
  8 10  1  0
 10 11  2  0
 11 12  1  0
 10 13  1  0
 13 14  1  0
 14 15  2  0
 15 16  1  0
 16 17  2  0
 17 18  1  0
 18 19  2  0
 15 20  1  0
 20 21  2  0
 21 22  1  0
 22 23  2  0
 23 24  1  0
 24 25  2  0
 25 26  1  0
 22 27  1  0
 27 28  2  0
 28 29  1  0
 29 30  1  0
 29 31  1  0
 31 32  2  0
 32 33  1  0
 33 34  1  0
 33 35  1  0
 33 36  1  0
 11  3  1  0
 18 13  1  0
 25 20  1  0
 32 27  1  0
  1 37  1  0
  1 38  1  0
  1 39  1  0
  4 40  1  0
  7 41  1  0
  7 42  1  0
  7 43  1  0
 16 44  1  0
 17 45  1  0
 23 46  1  0
 26 47  1  0
 26 48  1  0
 28 49  1  0
 30 50  1  0
 30 51  1  0
 30 52  1  0
M  END
$$$$
[H]c1nc(-c2c(C([H])([H])[H])nn(C([H])([H])[H])c2[H])c([H])c2c1C([H])([H])N(c1c(F)c(OC([H])([H])[H])c([H])c(OC([H])([H])[H])c1F)C(=O)N2C([H])([H])C([H])([H])c1c([H])nn(C([H])([H])[H])c1[H]
     RDKit          3D

 65 69  0  0  0  0  0  0  0  0999 V2000
    7.9536   -1.0678    1.7819 C   0  0  0  0  0  0  0  0  0  0  0  0
    6.5564   -1.2886    1.7420 O   0  0  0  0  0  0  0  0  0  0  0  0
    5.8151   -0.5816    0.8068 C   0  0  0  0  0  0  0  0  0  0  0  0
    6.3768    0.3227   -0.0814 C   0  0  0  0  0  0  0  0  0  0  0  0
    5.6422    1.0162   -1.0008 C   0  0  0  0  0  0  0  0  0  0  0  0
    6.1606    1.9268   -1.9050 O   0  0  0  0  0  0  0  0  0  0  0  0
    7.5723    2.1325   -1.8453 C   0  0  0  0  0  0  0  0  0  0  0  0
    4.2713    0.7993   -1.0406 C   0  0  0  0  0  0  0  0  0  0  0  0
    3.4576    1.4419   -1.9194 F   0  0  0  0  0  0  0  0  0  0  0  0
    3.6640   -0.0885   -0.1800 C   0  0  0  0  0  0  0  0  0  0  0  0
    2.2414   -0.3391   -0.1948 N   0  0  0  0  0  0  0  0  0  0  0  0
    1.8274   -1.5567   -0.8543 C   0  0  0  0  0  0  0  0  0  0  0  0
    0.3677   -1.7531   -0.8105 C   0  0  0  0  0  0  0  0  0  0  0  0
   -0.1746   -2.8882   -1.3979 C   0  0  0  0  0  0  0  0  0  0  0  0
   -1.5090   -3.1126   -1.3865 N   0  0  0  0  0  0  0  0  0  0  0  0
   -2.3738   -2.2596   -0.8133 C   0  0  0  0  0  0  0  0  0  0  0  0
   -1.8640   -1.1242   -0.2228 C   0  0  0  0  0  0  0  0  0  0  0  0
   -0.4846   -0.8736   -0.2236 C   0  0  0  0  0  0  0  0  0  0  0  0
   -0.0567    0.3131    0.4077 N   0  0  0  0  0  0  0  0  0  0  0  0
   -0.9484    1.2537    1.0338 C   0  0  0  0  0  0  0  0  0  0  0  0
   -1.4393    2.3261    0.0852 C   0  0  0  0  0  0  0  0  0  0  0  0
   -2.3407    3.2171    0.8544 C   0  0  0  0  0  0  0  0  0  0  0  0
   -2.0136    4.3476    1.5581 C   0  0  0  0  0  0  0  0  0  0  0  0
   -3.1471    4.8336    2.0990 N   0  0  0  0  0  0  0  0  0  0  0  0
   -4.1774    4.0710    1.7760 N   0  0  0  0  0  0  0  0  0  0  0  0
   -5.5753    4.1922    2.1199 C   0  0  0  0  0  0  0  0  0  0  0  0
   -3.6979    3.0616    1.0031 C   0  0  0  0  0  0  0  0  0  0  0  0
    1.3404    0.5738    0.4145 C   0  0  0  0  0  0  0  0  0  0  0  0
    1.8088    1.6025    0.9506 O   0  0  0  0  0  0  0  0  0  0  0  0
   -3.8109   -2.4878   -0.7924 C   0  0  0  0  0  0  0  0  0  0  0  0
   -4.8157   -1.7217   -0.2511 C   0  0  0  0  0  0  0  0  0  0  0  0
   -6.0153   -2.3037   -0.4550 N   0  0  0  0  0  0  0  0  0  0  0  0
   -7.3348   -1.8198   -0.0403 C   0  0  0  0  0  0  0  0  0  0  0  0
   -5.7821   -3.4254   -1.1167 N   0  0  0  0  0  0  0  0  0  0  0  0
   -4.4572   -3.5855   -1.3475 C   0  0  0  0  0  0  0  0  0  0  0  0
   -3.8137   -4.7154   -2.0561 C   0  0  0  0  0  0  0  0  0  0  0  0
    4.4517   -0.7625    0.7287 C   0  0  0  0  0  0  0  0  0  0  0  0
    3.8939   -1.6386    1.5856 F   0  0  0  0  0  0  0  0  0  0  0  0
    8.3398   -1.2487    0.7523 H   0  0  0  0  0  0  0  0  0  0  0  0
    8.4597   -1.8051    2.4440 H   0  0  0  0  0  0  0  0  0  0  0  0
    8.2330   -0.0429    2.0641 H   0  0  0  0  0  0  0  0  0  0  0  0
    7.4301    0.4753   -0.0369 H   0  0  0  0  0  0  0  0  0  0  0  0
    8.1392    1.1954   -1.9555 H   0  0  0  0  0  0  0  0  0  0  0  0
    7.8710    2.5615   -0.8554 H   0  0  0  0  0  0  0  0  0  0  0  0
    7.8238    2.8338   -2.6657 H   0  0  0  0  0  0  0  0  0  0  0  0
    2.2740   -2.4560   -0.3374 H   0  0  0  0  0  0  0  0  0  0  0  0
    2.1906   -1.5678   -1.9251 H   0  0  0  0  0  0  0  0  0  0  0  0
    0.5175   -3.5817   -1.8626 H   0  0  0  0  0  0  0  0  0  0  0  0
   -2.5570   -0.4386    0.2358 H   0  0  0  0  0  0  0  0  0  0  0  0
   -0.3407    1.8137    1.8065 H   0  0  0  0  0  0  0  0  0  0  0  0
   -1.7596    0.7913    1.6316 H   0  0  0  0  0  0  0  0  0  0  0  0
   -1.9295    1.9208   -0.8046 H   0  0  0  0  0  0  0  0  0  0  0  0
   -0.5431    2.9419   -0.1933 H   0  0  0  0  0  0  0  0  0  0  0  0
   -1.0343    4.7739    1.6619 H   0  0  0  0  0  0  0  0  0  0  0  0
   -5.6882    4.8230    3.0203 H   0  0  0  0  0  0  0  0  0  0  0  0
   -5.9739    3.1573    2.3086 H   0  0  0  0  0  0  0  0  0  0  0  0
   -6.1190    4.5976    1.2388 H   0  0  0  0  0  0  0  0  0  0  0  0
   -4.2591    2.2637    0.5682 H   0  0  0  0  0  0  0  0  0  0  0  0
   -4.6559   -0.7852    0.2649 H   0  0  0  0  0  0  0  0  0  0  0  0
   -7.9499   -1.5232   -0.9053 H   0  0  0  0  0  0  0  0  0  0  0  0
   -7.2046   -0.9988    0.7021 H   0  0  0  0  0  0  0  0  0  0  0  0
   -7.8774   -2.6407    0.4785 H   0  0  0  0  0  0  0  0  0  0  0  0
   -4.5873   -5.4518   -2.3263 H   0  0  0  0  0  0  0  0  0  0  0  0
   -3.1054   -5.2650   -1.3733 H   0  0  0  0  0  0  0  0  0  0  0  0
   -3.2628   -4.3810   -2.9481 H   0  0  0  0  0  0  0  0  0  0  0  0
  1  2  1  0
  2  3  1  0
  3  4  2  0
  4  5  1  0
  5  6  1  0
  6  7  1  0
  5  8  2  0
  8  9  1  0
  8 10  1  0
 10 11  1  0
 11 12  1  0
 12 13  1  0
 13 14  2  0
 14 15  1  0
 15 16  2  0
 16 17  1  0
 17 18  2  0
 18 19  1  0
 19 20  1  0
 20 21  1  0
 21 22  1  0
 22 23  1  0
 23 24  2  0
 24 25  1  0
 25 26  1  0
 25 27  1  0
 19 28  1  0
 28 29  2  0
 16 30  1  0
 30 31  2  0
 31 32  1  0
 32 33  1  0
 32 34  1  0
 34 35  2  0
 35 36  1  0
 10 37  2  0
 37 38  1  0
 37  3  1  0
 28 11  1  0
 35 30  1  0
 18 13  1  0
 27 22  2  0
  1 39  1  0
  1 40  1  0
  1 41  1  0
  4 42  1  0
  7 43  1  0
  7 44  1  0
  7 45  1  0
 12 46  1  0
 12 47  1  0
 14 48  1  0
 17 49  1  0
 20 50  1  0
 20 51  1  0
 21 52  1  0
 21 53  1  0
 23 54  1  0
 26 55  1  0
 26 56  1  0
 26 57  1  0
 27 58  1  0
 31 59  1  0
 33 60  1  0
 33 61  1  0
 33 62  1  0
 36 63  1  0
 36 64  1  0
 36 65  1  0
M  END
$$$$
[H]c1nc([H])c(-c2nc([H])c3c(c2[H])C2(C(=O)N(c4c(F)c(OC([H])([H])[H])c([H])c(OC([H])([H])[H])c4F)C3([H])[H])C([H])([H])C2([H])[H])c([H])c1OC([H])([H])[H]
     RDKit          3D

 54 58  0  0  0  0  0  0  0  0999 V2000
    7.2286   -0.0071    2.2747 C   0  0  0  0  0  0  0  0  0  0  0  0
    7.4788   -1.0643    1.4026 O   0  0  0  0  0  0  0  0  0  0  0  0
    6.6237   -1.5840    0.4687 C   0  0  0  0  0  0  0  0  0  0  0  0
    7.0053   -2.6351   -0.3309 C   0  0  0  0  0  0  0  0  0  0  0  0
    6.1714   -3.1628   -1.2617 N   0  0  0  0  0  0  0  0  0  0  0  0
    4.9447   -2.6832   -1.4398 C   0  0  0  0  0  0  0  0  0  0  0  0
    4.5036   -1.6230   -0.6618 C   0  0  0  0  0  0  0  0  0  0  0  0
    5.3253   -1.0789    0.2779 C   0  0  0  0  0  0  0  0  0  0  0  0
    3.1579   -1.1180   -0.8829 C   0  0  0  0  0  0  0  0  0  0  0  0
    2.6663   -0.0835   -0.1294 C   0  0  0  0  0  0  0  0  0  0  0  0
    1.3737    0.4205   -0.3231 C   0  0  0  0  0  0  0  0  0  0  0  0
    0.6133   -0.1619   -1.3011 C   0  0  0  0  0  0  0  0  0  0  0  0
   -0.7441    0.3247   -1.5856 C   0  0  0  0  0  0  0  0  0  0  0  0
   -1.4216    0.6720   -0.3654 N   0  0  0  0  0  0  0  0  0  0  0  0
   -0.6744    1.2751    0.6810 C   0  0  0  0  0  0  0  0  0  0  0  0
   -1.2416    1.5904    1.7330 O   0  0  0  0  0  0  0  0  0  0  0  0
    0.8094    1.5186    0.4811 C   0  0  0  0  0  0  0  0  0  0  0  0
    1.5254    2.1366    1.6166 C   0  0  0  0  0  0  0  0  0  0  0  0
    1.2625    2.9147    0.3531 C   0  0  0  0  0  0  0  0  0  0  0  0
   -2.8196    0.4183   -0.2414 C   0  0  0  0  0  0  0  0  0  0  0  0
   -3.6667    1.4993   -0.0994 C   0  0  0  0  0  0  0  0  0  0  0  0
   -3.1874    2.7861   -0.0700 F   0  0  0  0  0  0  0  0  0  0  0  0
   -5.0487    1.3558    0.0216 C   0  0  0  0  0  0  0  0  0  0  0  0
   -5.8385    2.4974    0.1615 O   0  0  0  0  0  0  0  0  0  0  0  0
   -7.2261    2.3302    0.2809 C   0  0  0  0  0  0  0  0  0  0  0  0
   -5.5965    0.0896   -0.0004 C   0  0  0  0  0  0  0  0  0  0  0  0
   -4.7684   -1.0053   -0.1413 C   0  0  0  0  0  0  0  0  0  0  0  0
   -5.3398   -2.2879   -0.1621 O   0  0  0  0  0  0  0  0  0  0  0  0
   -6.7234   -2.4547   -0.0434 C   0  0  0  0  0  0  0  0  0  0  0  0
   -3.3983   -0.8275   -0.2591 C   0  0  0  0  0  0  0  0  0  0  0  0
   -2.5926   -1.9055   -0.3970 F   0  0  0  0  0  0  0  0  0  0  0  0
    1.1410   -1.2152   -2.0529 C   0  0  0  0  0  0  0  0  0  0  0  0
    2.3781   -1.6798   -1.8492 N   0  0  0  0  0  0  0  0  0  0  0  0
    6.5154   -0.2526    3.0831 H   0  0  0  0  0  0  0  0  0  0  0  0
    8.2042    0.2707    2.7672 H   0  0  0  0  0  0  0  0  0  0  0  0
    6.8960    0.9155    1.7395 H   0  0  0  0  0  0  0  0  0  0  0  0
    8.0061   -3.0696   -0.2258 H   0  0  0  0  0  0  0  0  0  0  0  0
    4.2618   -3.0808   -2.1694 H   0  0  0  0  0  0  0  0  0  0  0  0
    5.0369   -0.2508    0.9116 H   0  0  0  0  0  0  0  0  0  0  0  0
    3.2393    0.3925    0.6431 H   0  0  0  0  0  0  0  0  0  0  0  0
   -0.5964    1.2615   -2.2115 H   0  0  0  0  0  0  0  0  0  0  0  0
   -1.3431   -0.4161   -2.1711 H   0  0  0  0  0  0  0  0  0  0  0  0
    2.5727    1.8520    1.8879 H   0  0  0  0  0  0  0  0  0  0  0  0
    0.9290    2.4212    2.5337 H   0  0  0  0  0  0  0  0  0  0  0  0
    0.5347    3.7663    0.4723 H   0  0  0  0  0  0  0  0  0  0  0  0
    2.1600    3.1568   -0.2625 H   0  0  0  0  0  0  0  0  0  0  0  0
   -7.6157    1.8876   -0.6720 H   0  0  0  0  0  0  0  0  0  0  0  0
   -7.5403    1.7279    1.1679 H   0  0  0  0  0  0  0  0  0  0  0  0
   -7.6914    3.3374    0.3660 H   0  0  0  0  0  0  0  0  0  0  0  0
   -6.6717    0.0175    0.0961 H   0  0  0  0  0  0  0  0  0  0  0  0
   -7.2164   -1.7598   -0.7730 H   0  0  0  0  0  0  0  0  0  0  0  0
   -7.0961   -2.2996    1.0006 H   0  0  0  0  0  0  0  0  0  0  0  0
   -7.0132   -3.4777   -0.3593 H   0  0  0  0  0  0  0  0  0  0  0  0
    0.5067   -1.6513   -2.8178 H   0  0  0  0  0  0  0  0  0  0  0  0
  1  2  1  0
  2  3  1  0
  3  4  2  0
  4  5  1  0
  5  6  2  0
  6  7  1  0
  7  8  2  0
  7  9  1  0
  9 10  2  0
 10 11  1  0
 11 12  2  0
 12 13  1  0
 13 14  1  0
 14 15  1  0
 15 16  2  0
 15 17  1  0
 17 18  1  0
 18 19  1  0
 14 20  1  0
 20 21  2  0
 21 22  1  0
 21 23  1  0
 23 24  1  0
 24 25  1  0
 23 26  2  0
 26 27  1  0
 27 28  1  0
 28 29  1  0
 27 30  2  0
 30 31  1  0
 12 32  1  0
 32 33  2  0
  8  3  1  0
 33  9  1  0
 17 11  1  0
 19 17  1  0
 30 20  1  0
  1 34  1  0
  1 35  1  0
  1 36  1  0
  4 37  1  0
  6 38  1  0
  8 39  1  0
 10 40  1  0
 13 41  1  0
 13 42  1  0
 18 43  1  0
 18 44  1  0
 19 45  1  0
 19 46  1  0
 25 47  1  0
 25 48  1  0
 25 49  1  0
 26 50  1  0
 29 51  1  0
 29 52  1  0
 29 53  1  0
 32 54  1  0
M  END
$$$$
[H]c1nc(N([H])[H])c(-c2nn(-c3c([H])c(OC([H])([H])[H])c([H])c(OC([H])([H])[H])c3[H])c(=O)c([H])c2[H])c([H])c1-c1c([H])nn(C2([H])C([H])([H])C([H])([H])N(C([H])([H])C([H])([H])OC([H])([H])[H])C([H])([H])C2([H])[H])c1[H]
     RDKit          3D

 72 76  0  0  0  0  0  0  0  0999 V2000
   -8.1933   -0.2526    2.9085 C   0  0  0  0  0  0  0  0  0  0  0  0
   -9.3575   -0.1039    2.1942 O   0  0  0  0  0  0  0  0  0  0  0  0
   -9.1817   -0.3007    0.8442 C   0  0  0  0  0  0  0  0  0  0  0  0
   -8.2299    0.6797    0.2711 C   0  0  0  0  0  0  0  0  0  0  0  0
   -8.0496    0.5024   -1.1623 N   0  0  0  0  0  0  0  0  0  0  0  0
   -7.1100    1.4900   -1.6641 C   0  0  0  0  0  0  0  0  0  0  0  0
   -5.6785    1.0868   -1.3852 C   0  0  0  0  0  0  0  0  0  0  0  0
   -5.3815   -0.3031   -1.8510 C   0  0  0  0  0  0  0  0  0  0  0  0
   -6.3369   -1.2521   -1.1424 C   0  0  0  0  0  0  0  0  0  0  0  0
   -7.7251   -0.8257   -1.5605 C   0  0  0  0  0  0  0  0  0  0  0  0
   -4.0061   -0.6311   -1.6003 N   0  0  0  0  0  0  0  0  0  0  0  0
   -2.9239    0.1429   -1.7983 C   0  0  0  0  0  0  0  0  0  0  0  0
   -1.7802   -0.5638   -1.4259 C   0  0  0  0  0  0  0  0  0  0  0  0
   -2.2464   -1.7879   -1.0007 C   0  0  0  0  0  0  0  0  0  0  0  0
   -3.5777   -1.7891   -1.1199 N   0  0  0  0  0  0  0  0  0  0  0  0
   -0.3992   -0.0867   -1.4857 C   0  0  0  0  0  0  0  0  0  0  0  0
    0.0337    0.7985   -2.4431 C   0  0  0  0  0  0  0  0  0  0  0  0
    1.3140    1.1952   -2.4423 N   0  0  0  0  0  0  0  0  0  0  0  0
    2.2101    0.7682   -1.5433 C   0  0  0  0  0  0  0  0  0  0  0  0
    3.5506    1.2115   -1.5785 N   0  0  0  0  0  0  0  0  0  0  0  0
    1.8318   -0.1365   -0.5393 C   0  0  0  0  0  0  0  0  0  0  0  0
    0.5278   -0.5444   -0.5352 C   0  0  0  0  0  0  0  0  0  0  0  0
    2.8338   -0.5874    0.4323 C   0  0  0  0  0  0  0  0  0  0  0  0
    2.4721   -1.4675    1.4124 C   0  0  0  0  0  0  0  0  0  0  0  0
    3.4502   -1.8787    2.3237 C   0  0  0  0  0  0  0  0  0  0  0  0
    4.7236   -1.3839    2.1954 C   0  0  0  0  0  0  0  0  0  0  0  0
    5.6251   -1.7291    2.9919 O   0  0  0  0  0  0  0  0  0  0  0  0
    5.0180   -0.5155    1.2035 N   0  0  0  0  0  0  0  0  0  0  0  0
    4.1125   -0.1216    0.3432 N   0  0  0  0  0  0  0  0  0  0  0  0
    6.3314   -0.0131    1.0824 C   0  0  0  0  0  0  0  0  0  0  0  0
    6.5267    1.3467    1.0974 C   0  0  0  0  0  0  0  0  0  0  0  0
    7.8018    1.8681    0.9806 C   0  0  0  0  0  0  0  0  0  0  0  0
    7.9767    3.2449    0.9982 O   0  0  0  0  0  0  0  0  0  0  0  0
    9.2881    3.7852    0.8782 C   0  0  0  0  0  0  0  0  0  0  0  0
    8.8837    1.0318    0.8485 C   0  0  0  0  0  0  0  0  0  0  0  0
    8.7084   -0.3300    0.8313 C   0  0  0  0  0  0  0  0  0  0  0  0
    9.7746   -1.1959    0.7002 O   0  0  0  0  0  0  0  0  0  0  0  0
    9.5435   -2.5889    0.6880 C   0  0  0  0  0  0  0  0  0  0  0  0
    7.4260   -0.8324    0.9494 C   0  0  0  0  0  0  0  0  0  0  0  0
   -7.7887   -1.2722    2.7358 H   0  0  0  0  0  0  0  0  0  0  0  0
   -8.4612   -0.1252    3.9942 H   0  0  0  0  0  0  0  0  0  0  0  0
   -7.4051    0.4845    2.7209 H   0  0  0  0  0  0  0  0  0  0  0  0
   -8.8878   -1.3630    0.6675 H   0  0  0  0  0  0  0  0  0  0  0  0
  -10.1846   -0.0934    0.3633 H   0  0  0  0  0  0  0  0  0  0  0  0
   -7.2428    0.6763    0.7910 H   0  0  0  0  0  0  0  0  0  0  0  0
   -8.6586    1.6963    0.4020 H   0  0  0  0  0  0  0  0  0  0  0  0
   -7.3048    2.4444   -1.1521 H   0  0  0  0  0  0  0  0  0  0  0  0
   -7.2251    1.6453   -2.7548 H   0  0  0  0  0  0  0  0  0  0  0  0
   -5.0387    1.8025   -1.9496 H   0  0  0  0  0  0  0  0  0  0  0  0
   -5.4245    1.1807   -0.3078 H   0  0  0  0  0  0  0  0  0  0  0  0
   -5.6013   -0.4087   -2.9348 H   0  0  0  0  0  0  0  0  0  0  0  0
   -6.1625   -2.2600   -1.5666 H   0  0  0  0  0  0  0  0  0  0  0  0
   -6.1851   -1.2540   -0.0617 H   0  0  0  0  0  0  0  0  0  0  0  0
   -7.6913   -0.8151   -2.6913 H   0  0  0  0  0  0  0  0  0  0  0  0
   -8.5224   -1.5130   -1.3043 H   0  0  0  0  0  0  0  0  0  0  0  0
   -2.9240    1.1446   -2.1803 H   0  0  0  0  0  0  0  0  0  0  0  0
   -1.6688   -2.6210   -0.6307 H   0  0  0  0  0  0  0  0  0  0  0  0
   -0.6387    1.1794   -3.1949 H   0  0  0  0  0  0  0  0  0  0  0  0
    3.8114    2.0904   -1.0418 H   0  0  0  0  0  0  0  0  0  0  0  0
    4.3179    0.7456   -2.0923 H   0  0  0  0  0  0  0  0  0  0  0  0
    0.1882   -1.2516    0.2319 H   0  0  0  0  0  0  0  0  0  0  0  0
    1.4755   -1.8839    1.5504 H   0  0  0  0  0  0  0  0  0  0  0  0
    3.1699   -2.5801    3.1078 H   0  0  0  0  0  0  0  0  0  0  0  0
    5.7123    2.0443    1.1986 H   0  0  0  0  0  0  0  0  0  0  0  0
    9.2466    4.8912    0.8275 H   0  0  0  0  0  0  0  0  0  0  0  0
    9.7341    3.3394   -0.0384 H   0  0  0  0  0  0  0  0  0  0  0  0
    9.9460    3.4898    1.7148 H   0  0  0  0  0  0  0  0  0  0  0  0
    9.8685    1.4347    0.7582 H   0  0  0  0  0  0  0  0  0  0  0  0
    8.8850   -2.8497   -0.1829 H   0  0  0  0  0  0  0  0  0  0  0  0
    9.1001   -2.9502    1.6471 H   0  0  0  0  0  0  0  0  0  0  0  0
   10.5386   -3.0754    0.5356 H   0  0  0  0  0  0  0  0  0  0  0  0
    7.2353   -1.9031    0.9412 H   0  0  0  0  0  0  0  0  0  0  0  0
  1  2  1  0
  2  3  1  0
  3  4  1  0
  4  5  1  0
  5  6  1  0
  6  7  1  0
  7  8  1  0
  8  9  1  0
  9 10  1  0
  8 11  1  0
 11 12  1  0
 12 13  2  0
 13 14  1  0
 14 15  2  0
 13 16  1  0
 16 17  2  0
 17 18  1  0
 18 19  2  0
 19 20  1  0
 19 21  1  0
 21 22  2  0
 21 23  1  0
 23 24  1  0
 24 25  2  0
 25 26  1  0
 26 27  2  0
 26 28  1  0
 28 29  1  0
 28 30  1  0
 30 31  2  0
 31 32  1  0
 32 33  1  0
 33 34  1  0
 32 35  2  0
 35 36  1  0
 36 37  1  0
 37 38  1  0
 36 39  2  0
 10  5  1  0
 15 11  1  0
 22 16  1  0
 29 23  2  0
 39 30  1  0
  1 40  1  0
  1 41  1  0
  1 42  1  0
  3 43  1  0
  3 44  1  0
  4 45  1  0
  4 46  1  0
  6 47  1  0
  6 48  1  0
  7 49  1  0
  7 50  1  0
  8 51  1  0
  9 52  1  0
  9 53  1  0
 10 54  1  0
 10 55  1  0
 12 56  1  0
 14 57  1  0
 17 58  1  0
 20 59  1  0
 20 60  1  0
 22 61  1  0
 24 62  1  0
 25 63  1  0
 31 64  1  0
 34 65  1  0
 34 66  1  0
 34 67  1  0
 35 68  1  0
 38 69  1  0
 38 70  1  0
 38 71  1  0
 39 72  1  0
M  END
$$$$
[H]Oc1c([H])c([H])c(C([H])([H])[H])c([H])c1-c1nc([H])c(N([H])[C@]([H])(c2c([H])c([H])c([H])c([H])c2[H])C([H])([H])O[H])c([H])c1-c1c([H])c([H])c2c(c(C([H])([H])[H])nn2[H])c1[H]
     RDKit          3D

 60 64  0  0  0  0  0  0  0  0999 V2000
   -2.9675   -2.2257   -4.0673 C   0  0  0  0  0  0  0  0  0  0  0  0
   -3.6836   -2.2505   -2.7785 C   0  0  0  0  0  0  0  0  0  0  0  0
   -4.9354   -2.7131   -2.6126 N   0  0  0  0  0  0  0  0  0  0  0  0
   -5.2680   -2.5890   -1.3398 N   0  0  0  0  0  0  0  0  0  0  0  0
   -4.2265   -2.0422   -0.6726 C   0  0  0  0  0  0  0  0  0  0  0  0
   -4.0065   -1.6900    0.6459 C   0  0  0  0  0  0  0  0  0  0  0  0
   -2.8070   -1.1329    1.0508 C   0  0  0  0  0  0  0  0  0  0  0  0
   -1.7756   -0.9001    0.1723 C   0  0  0  0  0  0  0  0  0  0  0  0
   -2.0054   -1.2569   -1.1472 C   0  0  0  0  0  0  0  0  0  0  0  0
   -3.1923   -1.8125   -1.5683 C   0  0  0  0  0  0  0  0  0  0  0  0
   -0.5131   -0.3044    0.6244 C   0  0  0  0  0  0  0  0  0  0  0  0
    0.6194   -1.1191    0.7616 C   0  0  0  0  0  0  0  0  0  0  0  0
    1.8145   -0.5821    1.1983 C   0  0  0  0  0  0  0  0  0  0  0  0
    2.9728   -1.3901    1.3600 N   0  0  0  0  0  0  0  0  0  0  0  0
    4.2690   -0.8469    1.5805 C   0  0  1  0  0  0  0  0  0  0  0  0
    5.2756   -1.9560    1.8799 C   0  0  0  0  0  0  0  0  0  0  0  0
    4.8805   -2.6371    3.0214 O   0  0  0  0  0  0  0  0  0  0  0  0
    4.7338   -0.1963    0.3105 C   0  0  0  0  0  0  0  0  0  0  0  0
    4.4597   -0.8369   -0.8767 C   0  0  0  0  0  0  0  0  0  0  0  0
    4.8841   -0.2865   -2.0895 C   0  0  0  0  0  0  0  0  0  0  0  0
    5.5780    0.9001   -2.0909 C   0  0  0  0  0  0  0  0  0  0  0  0
    5.8311    1.5090   -0.8750 C   0  0  0  0  0  0  0  0  0  0  0  0
    5.4215    0.9831    0.3317 C   0  0  0  0  0  0  0  0  0  0  0  0
    1.8138    0.7609    1.4795 C   0  0  0  0  0  0  0  0  0  0  0  0
    0.7167    1.5353    1.3429 N   0  0  0  0  0  0  0  0  0  0  0  0
   -0.4818    1.0371    0.9128 C   0  0  0  0  0  0  0  0  0  0  0  0
   -1.6330    1.8995    0.7645 C   0  0  0  0  0  0  0  0  0  0  0  0
   -2.4112    2.1702    1.8616 C   0  0  0  0  0  0  0  0  0  0  0  0
   -3.5216    2.9874    1.8091 C   0  0  0  0  0  0  0  0  0  0  0  0
   -4.3352    3.2486    3.0358 C   0  0  0  0  0  0  0  0  0  0  0  0
   -3.8525    3.5486    0.5997 C   0  0  0  0  0  0  0  0  0  0  0  0
   -3.0993    3.3085   -0.5435 C   0  0  0  0  0  0  0  0  0  0  0  0
   -1.9829    2.4718   -0.4328 C   0  0  0  0  0  0  0  0  0  0  0  0
   -1.2532    2.2521   -1.5823 O   0  0  0  0  0  0  0  0  0  0  0  0
   -3.6709   -1.8336   -4.8530 H   0  0  0  0  0  0  0  0  0  0  0  0
   -2.6368   -3.2144   -4.4136 H   0  0  0  0  0  0  0  0  0  0  0  0
   -2.0436   -1.5914   -3.9980 H   0  0  0  0  0  0  0  0  0  0  0  0
   -6.1771   -2.8630   -0.9121 H   0  0  0  0  0  0  0  0  0  0  0  0
   -4.8211   -1.8727    1.3436 H   0  0  0  0  0  0  0  0  0  0  0  0
   -2.7245   -0.9004    2.0999 H   0  0  0  0  0  0  0  0  0  0  0  0
   -1.1952   -1.0790   -1.8587 H   0  0  0  0  0  0  0  0  0  0  0  0
    0.5424   -2.1759    0.5195 H   0  0  0  0  0  0  0  0  0  0  0  0
    2.8881   -2.4502    1.3187 H   0  0  0  0  0  0  0  0  0  0  0  0
    4.2506   -0.1523    2.4274 H   0  0  0  0  0  0  0  0  0  0  0  0
    6.2691   -1.4988    2.0542 H   0  0  0  0  0  0  0  0  0  0  0  0
    5.3369   -2.6713    1.0535 H   0  0  0  0  0  0  0  0  0  0  0  0
    4.8534   -3.6037    2.8565 H   0  0  0  0  0  0  0  0  0  0  0  0
    3.9140   -1.7806   -0.9449 H   0  0  0  0  0  0  0  0  0  0  0  0
    4.6629   -0.8021   -3.0365 H   0  0  0  0  0  0  0  0  0  0  0  0
    5.9046    1.3226   -3.0325 H   0  0  0  0  0  0  0  0  0  0  0  0
    6.3734    2.4434   -0.8325 H   0  0  0  0  0  0  0  0  0  0  0  0
    5.6204    1.4617    1.2865 H   0  0  0  0  0  0  0  0  0  0  0  0
    2.7587    1.2000    1.8412 H   0  0  0  0  0  0  0  0  0  0  0  0
   -2.1702    1.7356    2.8405 H   0  0  0  0  0  0  0  0  0  0  0  0
   -4.1087    4.2413    3.4796 H   0  0  0  0  0  0  0  0  0  0  0  0
   -4.1609    2.4245    3.7389 H   0  0  0  0  0  0  0  0  0  0  0  0
   -5.4024    3.1988    2.7081 H   0  0  0  0  0  0  0  0  0  0  0  0
   -4.7182    4.1998    0.5044 H   0  0  0  0  0  0  0  0  0  0  0  0
   -3.3813    3.7634   -1.4868 H   0  0  0  0  0  0  0  0  0  0  0  0
   -1.4828    2.6540   -2.4700 H   0  0  0  0  0  0  0  0  0  0  0  0
  1  2  1  0
  2  3  2  0
  3  4  1  0
  4  5  1  0
  5  6  2  0
  6  7  1  0
  7  8  2  0
  8  9  1  0
  9 10  2  0
  8 11  1  0
 11 12  2  0
 12 13  1  0
 13 14  1  0
 14 15  1  0
 15 16  1  0
 16 17  1  0
 15 18  1  0
 18 19  2  0
 19 20  1  0
 20 21  2  0
 21 22  1  0
 22 23  2  0
 13 24  2  0
 24 25  1  0
 25 26  2  0
 26 27  1  0
 27 28  2  0
 28 29  1  0
 29 30  1  0
 29 31  2  0
 31 32  1  0
 32 33  2  0
 33 34  1  0
 10  2  1  0
 26 11  1  0
 33 27  1  0
 10  5  1  0
 23 18  1  0
  1 35  1  0
  1 36  1  0
  1 37  1  0
  4 38  1  0
  6 39  1  0
  7 40  1  0
  9 41  1  0
 12 42  1  0
 14 43  1  0
 15 44  1  1
 16 45  1  0
 16 46  1  0
 17 47  1  0
 19 48  1  0
 20 49  1  0
 21 50  1  0
 22 51  1  0
 23 52  1  0
 24 53  1  0
 28 54  1  0
 30 55  1  0
 30 56  1  0
 30 57  1  0
 31 58  1  0
 32 59  1  0
 34 60  1  0
M  END
$$$$
[H]c1nc2c([H])c(OC([H])([H])C3(N([H])[H])C([H])([H])C3([H])[H])c(OC([H])([H])[H])c([H])c2c(Oc2c([H])c([H])c3c(C(=O)N([H])C([H])([H])[H])c([H])c([H])c([H])c3c2[H])c1[H]
     RDKit          3D

 58 62  0  0  0  0  0  0  0  0999 V2000
    8.5994    1.7914   -0.1617 C   0  0  0  0  0  0  0  0  0  0  0  0
    7.4911    0.9589    0.2598 N   0  0  0  0  0  0  0  0  0  0  0  0
    7.3900   -0.3980   -0.1024 C   0  0  0  0  0  0  0  0  0  0  0  0
    8.3045   -0.9386   -0.8199 O   0  0  0  0  0  0  0  0  0  0  0  0
    6.2664   -1.2075    0.3341 C   0  0  0  0  0  0  0  0  0  0  0  0
    6.5594   -2.4322    0.9771 C   0  0  0  0  0  0  0  0  0  0  0  0
    5.5223   -3.1461    1.4931 C   0  0  0  0  0  0  0  0  0  0  0  0
    4.2292   -2.6772    1.3840 C   0  0  0  0  0  0  0  0  0  0  0  0
    3.9316   -1.4872    0.7577 C   0  0  0  0  0  0  0  0  0  0  0  0
    2.6533   -1.0487    0.6297 C   0  0  0  0  0  0  0  0  0  0  0  0
    2.3092    0.1618   -0.0429 C   0  0  0  0  0  0  0  0  0  0  0  0
    1.0231    0.4705   -0.0953 O   0  0  0  0  0  0  0  0  0  0  0  0
    0.1572    1.4303   -0.3308 C   0  0  0  0  0  0  0  0  0  0  0  0
    0.4458    2.7722   -0.6321 C   0  0  0  0  0  0  0  0  0  0  0  0
   -0.6134    3.6359   -0.8525 C   0  0  0  0  0  0  0  0  0  0  0  0
   -1.8936    3.2567   -0.7920 N   0  0  0  0  0  0  0  0  0  0  0  0
   -2.1918    1.9611   -0.5007 C   0  0  0  0  0  0  0  0  0  0  0  0
   -3.5193    1.5482   -0.4313 C   0  0  0  0  0  0  0  0  0  0  0  0
   -3.8664    0.2339   -0.1350 C   0  0  0  0  0  0  0  0  0  0  0  0
   -5.2005   -0.1546   -0.0712 O   0  0  0  0  0  0  0  0  0  0  0  0
   -6.2690    0.7130   -0.2922 C   0  0  0  0  0  0  0  0  0  0  0  0
   -7.6089    0.0624   -0.1669 C   0  0  0  0  0  0  0  0  0  0  0  0
   -7.9069   -0.5319    1.1410 N   0  0  0  0  0  0  0  0  0  0  0  0
   -8.8063    0.5611   -0.9026 C   0  0  0  0  0  0  0  0  0  0  0  0
   -8.1468   -0.7524   -1.3096 C   0  0  0  0  0  0  0  0  0  0  0  0
   -2.8498   -0.6695    0.0930 C   0  0  0  0  0  0  0  0  0  0  0  0
   -3.2010   -1.9758    0.3872 O   0  0  0  0  0  0  0  0  0  0  0  0
   -2.1404   -2.8899    0.6187 C   0  0  0  0  0  0  0  0  0  0  0  0
   -1.5138   -0.2435    0.0208 C   0  0  0  0  0  0  0  0  0  0  0  0
   -1.2071    1.0581   -0.2733 C   0  0  0  0  0  0  0  0  0  0  0  0
    3.3621    0.8746   -0.5671 C   0  0  0  0  0  0  0  0  0  0  0  0
    4.6428    0.4279   -0.4326 C   0  0  0  0  0  0  0  0  0  0  0  0
    4.9828   -0.7373    0.2191 C   0  0  0  0  0  0  0  0  0  0  0  0
    8.9819    1.3592   -1.1214 H   0  0  0  0  0  0  0  0  0  0  0  0
    8.3267    2.8263   -0.3641 H   0  0  0  0  0  0  0  0  0  0  0  0
    9.4174    1.7160    0.6122 H   0  0  0  0  0  0  0  0  0  0  0  0
    6.7698    1.3909    0.8661 H   0  0  0  0  0  0  0  0  0  0  0  0
    7.5994   -2.7418    1.0266 H   0  0  0  0  0  0  0  0  0  0  0  0
    5.7310   -4.0842    1.9882 H   0  0  0  0  0  0  0  0  0  0  0  0
    3.4183   -3.2639    1.8035 H   0  0  0  0  0  0  0  0  0  0  0  0
    1.8665   -1.6570    1.0640 H   0  0  0  0  0  0  0  0  0  0  0  0
    1.4601    3.1061   -0.6731 H   0  0  0  0  0  0  0  0  0  0  0  0
   -0.3431    4.6695   -1.0840 H   0  0  0  0  0  0  0  0  0  0  0  0
   -4.2743    2.2817   -0.6155 H   0  0  0  0  0  0  0  0  0  0  0  0
   -6.1909    1.1723   -1.3185 H   0  0  0  0  0  0  0  0  0  0  0  0
   -6.1720    1.5722    0.4073 H   0  0  0  0  0  0  0  0  0  0  0  0
   -7.1771   -1.2645    1.3739 H   0  0  0  0  0  0  0  0  0  0  0  0
   -7.8305    0.2177    1.8763 H   0  0  0  0  0  0  0  0  0  0  0  0
   -8.7248    1.3409   -1.6832 H   0  0  0  0  0  0  0  0  0  0  0  0
   -9.8093    0.5290   -0.4342 H   0  0  0  0  0  0  0  0  0  0  0  0
   -7.4955   -0.7657   -2.2047 H   0  0  0  0  0  0  0  0  0  0  0  0
   -8.7856   -1.6343   -1.1073 H   0  0  0  0  0  0  0  0  0  0  0  0
   -2.5174   -3.8917    0.8810 H   0  0  0  0  0  0  0  0  0  0  0  0
   -1.4776   -2.4585    1.4240 H   0  0  0  0  0  0  0  0  0  0  0  0
   -1.5168   -2.8965   -0.2996 H   0  0  0  0  0  0  0  0  0  0  0  0
   -0.7468   -0.9889    0.2076 H   0  0  0  0  0  0  0  0  0  0  0  0
    3.1544    1.8071   -1.1166 H   0  0  0  0  0  0  0  0  0  0  0  0
    5.4010    1.0303   -0.9113 H   0  0  0  0  0  0  0  0  0  0  0  0
  1  2  1  0
  2  3  1  0
  3  4  2  0
  3  5  1  0
  5  6  2  0
  6  7  1  0
  7  8  2  0
  8  9  1  0
  9 10  2  0
 10 11  1  0
 11 12  1  0
 12 13  1  0
 13 14  2  0
 14 15  1  0
 15 16  2  0
 16 17  1  0
 17 18  2  0
 18 19  1  0
 19 20  1  0
 20 21  1  0
 21 22  1  0
 22 23  1  0
 22 24  1  0
 24 25  1  0
 19 26  2  0
 26 27  1  0
 27 28  1  0
 26 29  1  0
 29 30  2  0
 11 31  2  0
 31 32  1  0
 32 33  2  0
 33  5  1  0
 33  9  1  0
 30 13  1  0
 30 17  1  0
 25 22  1  0
  1 34  1  0
  1 35  1  0
  1 36  1  0
  2 37  1  0
  6 38  1  0
  7 39  1  0
  8 40  1  0
 10 41  1  0
 14 42  1  0
 15 43  1  0
 18 44  1  0
 21 45  1  0
 21 46  1  0
 23 47  1  0
 23 48  1  0
 24 49  1  0
 24 50  1  0
 25 51  1  0
 25 52  1  0
 28 53  1  0
 28 54  1  0
 28 55  1  0
 29 56  1  0
 31 57  1  0
 32 58  1  0
M  END
$$$$
[H]c1nc(N([H])c2nn([H])c(C([H])([H])C([H])([H])c3c([H])c(OC([H])([H])[H])c([H])c(OC([H])([H])[H])c3[H])c2[H])c2c([H])c([H])c(N3C([H])([H])[C@]([H])(C([H])([H])[H])N(C([H])([H])[H])[C@]([H])(C([H])([H])[H])C3([H])[H])c([H])c2n1
     RDKit          3D

 72 76  0  0  0  0  0  0  0  0999 V2000
   10.5567   -1.5876   -1.9561 C   0  0  0  0  0  0  0  0  0  0  0  0
   10.5646   -0.9919   -0.6755 O   0  0  0  0  0  0  0  0  0  0  0  0
    9.3980   -0.6346   -0.0129 C   0  0  0  0  0  0  0  0  0  0  0  0
    8.1362   -0.8450   -0.5785 C   0  0  0  0  0  0  0  0  0  0  0  0
    6.9837   -0.4908    0.0787 C   0  0  0  0  0  0  0  0  0  0  0  0
    5.6489   -0.6977   -0.4861 C   0  0  0  0  0  0  0  0  0  0  0  0
    5.1511    0.4723   -1.3035 C   0  0  0  0  0  0  0  0  0  0  0  0
    3.7844    0.0873   -1.7974 C   0  0  0  0  0  0  0  0  0  0  0  0
    2.5857    0.3459   -1.1083 C   0  0  0  0  0  0  0  0  0  0  0  0
    1.5648   -0.1500   -1.8693 C   0  0  0  0  0  0  0  0  0  0  0  0
    0.1640   -0.1750   -1.6798 N   0  0  0  0  0  0  0  0  0  0  0  0
   -0.4759    0.3622   -0.5601 C   0  0  0  0  0  0  0  0  0  0  0  0
    0.1755    0.9565    0.4494 N   0  0  0  0  0  0  0  0  0  0  0  0
   -0.4099    1.4741    1.5233 C   0  0  0  0  0  0  0  0  0  0  0  0
   -1.7398    1.4046    1.6169 N   0  0  0  0  0  0  0  0  0  0  0  0
   -2.4810    0.8323    0.6639 C   0  0  0  0  0  0  0  0  0  0  0  0
   -3.8730    0.7842    0.8082 C   0  0  0  0  0  0  0  0  0  0  0  0
   -4.6731    0.2054   -0.1471 C   0  0  0  0  0  0  0  0  0  0  0  0
   -4.0493   -0.3244   -1.2503 C   0  0  0  0  0  0  0  0  0  0  0  0
   -2.6666   -0.2784   -1.3970 C   0  0  0  0  0  0  0  0  0  0  0  0
   -1.8738    0.2971   -0.4466 C   0  0  0  0  0  0  0  0  0  0  0  0
   -6.1089    0.1429   -0.0213 N   0  0  0  0  0  0  0  0  0  0  0  0
   -6.6620    0.7082    1.1787 C   0  0  0  0  0  0  0  0  0  0  0  0
   -8.1454    0.8238    1.2061 C   0  0  2  0  0  0  0  0  0  0  0  0
   -8.6727    0.9148    2.5986 C   0  0  0  0  0  0  0  0  0  0  0  0
   -8.7932   -0.2438    0.4297 N   0  0  0  0  0  0  0  0  0  0  0  0
   -8.4484   -1.5283    0.9830 C   0  0  0  0  0  0  0  0  0  0  0  0
   -8.3263   -0.0728   -0.9206 C   0  0  2  0  0  0  0  0  0  0  0  0
   -9.2232   -0.7192   -1.9385 C   0  0  0  0  0  0  0  0  0  0  0  0
   -6.8849   -0.4688   -1.0824 C   0  0  0  0  0  0  0  0  0  0  0  0
    2.1312   -0.6980   -2.9965 N   0  0  0  0  0  0  0  0  0  0  0  0
    3.4333   -0.5344   -2.9083 N   0  0  0  0  0  0  0  0  0  0  0  0
    7.1074    0.0846    1.3262 C   0  0  0  0  0  0  0  0  0  0  0  0
    8.3583    0.3041    1.9105 C   0  0  0  0  0  0  0  0  0  0  0  0
    8.4158    0.8873    3.1687 O   0  0  0  0  0  0  0  0  0  0  0  0
    9.6598    1.1146    3.7691 C   0  0  0  0  0  0  0  0  0  0  0  0
    9.5093   -0.0586    1.2348 C   0  0  0  0  0  0  0  0  0  0  0  0
    9.9846   -0.9435   -2.6547 H   0  0  0  0  0  0  0  0  0  0  0  0
   10.1161   -2.5915   -1.9698 H   0  0  0  0  0  0  0  0  0  0  0  0
   11.6271   -1.6028   -2.2969 H   0  0  0  0  0  0  0  0  0  0  0  0
    8.0646   -1.2950   -1.5521 H   0  0  0  0  0  0  0  0  0  0  0  0
    4.8701   -0.8936    0.2908 H   0  0  0  0  0  0  0  0  0  0  0  0
    5.6007   -1.5925   -1.1721 H   0  0  0  0  0  0  0  0  0  0  0  0
    5.8192    0.6998   -2.1610 H   0  0  0  0  0  0  0  0  0  0  0  0
    5.0351    1.3764   -0.6684 H   0  0  0  0  0  0  0  0  0  0  0  0
    2.5182    0.8403   -0.1662 H   0  0  0  0  0  0  0  0  0  0  0  0
   -0.4027   -0.6221   -2.4258 H   0  0  0  0  0  0  0  0  0  0  0  0
    0.2187    1.9338    2.2831 H   0  0  0  0  0  0  0  0  0  0  0  0
   -4.3204    1.2182    1.7013 H   0  0  0  0  0  0  0  0  0  0  0  0
   -4.6734   -0.7894   -2.0199 H   0  0  0  0  0  0  0  0  0  0  0  0
   -2.2495   -0.7070   -2.2749 H   0  0  0  0  0  0  0  0  0  0  0  0
   -6.2423    1.7539    1.2531 H   0  0  0  0  0  0  0  0  0  0  0  0
   -6.2637    0.1993    2.1013 H   0  0  0  0  0  0  0  0  0  0  0  0
   -8.4177    1.7696    0.6624 H   0  0  0  0  0  0  0  0  0  0  0  0
   -9.6720    0.4166    2.6660 H   0  0  0  0  0  0  0  0  0  0  0  0
   -8.8833    1.9905    2.8666 H   0  0  0  0  0  0  0  0  0  0  0  0
   -8.0046    0.4658    3.3641 H   0  0  0  0  0  0  0  0  0  0  0  0
   -9.1409   -1.6980    1.8534 H   0  0  0  0  0  0  0  0  0  0  0  0
   -7.4270   -1.5566    1.4262 H   0  0  0  0  0  0  0  0  0  0  0  0
   -8.6369   -2.3463    0.2831 H   0  0  0  0  0  0  0  0  0  0  0  0
   -8.3694    1.0369   -1.1270 H   0  0  0  0  0  0  0  0  0  0  0  0
   -9.5959   -0.0114   -2.7078 H   0  0  0  0  0  0  0  0  0  0  0  0
  -10.1338   -1.1607   -1.4531 H   0  0  0  0  0  0  0  0  0  0  0  0
   -8.7262   -1.6006   -2.4401 H   0  0  0  0  0  0  0  0  0  0  0  0
   -6.5735   -0.0663   -2.0889 H   0  0  0  0  0  0  0  0  0  0  0  0
   -6.7331   -1.5605   -1.1469 H   0  0  0  0  0  0  0  0  0  0  0  0
    4.1321   -0.8601   -3.6394 H   0  0  0  0  0  0  0  0  0  0  0  0
    6.2151    0.3730    1.8654 H   0  0  0  0  0  0  0  0  0  0  0  0
   10.2974    0.1928    3.6991 H   0  0  0  0  0  0  0  0  0  0  0  0
    9.4662    1.3314    4.8475 H   0  0  0  0  0  0  0  0  0  0  0  0
   10.1929    1.9759    3.3326 H   0  0  0  0  0  0  0  0  0  0  0  0
   10.4871    0.0980    1.6594 H   0  0  0  0  0  0  0  0  0  0  0  0
  1  2  1  0
  2  3  1  0
  3  4  2  0
  4  5  1  0
  5  6  1  0
  6  7  1  0
  7  8  1  0
  8  9  2  0
  9 10  1  0
 10 11  1  0
 11 12  1  0
 12 13  2  0
 13 14  1  0
 14 15  2  0
 15 16  1  0
 16 17  2  0
 17 18  1  0
 18 19  2  0
 19 20  1  0
 20 21  2  0
 18 22  1  0
 22 23  1  0
 23 24  1  0
 24 25  1  0
 24 26  1  0
 26 27  1  0
 26 28  1  0
 28 29  1  0
 28 30  1  0
 10 31  2  0
 31 32  1  0
  5 33  2  0
 33 34  1  0
 34 35  1  0
 35 36  1  0
 34 37  2  0
 37  3  1  0
 32  8  1  0
 21 12  1  0
 30 22  1  0
 21 16  1  0
  1 38  1  0
  1 39  1  0
  1 40  1  0
  4 41  1  0
  6 42  1  0
  6 43  1  0
  7 44  1  0
  7 45  1  0
  9 46  1  0
 11 47  1  0
 14 48  1  0
 17 49  1  0
 19 50  1  0
 20 51  1  0
 23 52  1  0
 23 53  1  0
 24 54  1  6
 25 55  1  0
 25 56  1  0
 25 57  1  0
 27 58  1  0
 27 59  1  0
 27 60  1  0
 28 61  1  6
 29 62  1  0
 29 63  1  0
 29 64  1  0
 30 65  1  0
 30 66  1  0
 32 67  1  0
 33 68  1  0
 36 69  1  0
 36 70  1  0
 36 71  1  0
 37 72  1  0
M  END
$$$$
[H]c1nc(C([H])([H])[H])c([H])nc1N1C(=O)N(c2c(F)c(OC([H])([H])[H])c([H])c(OC([H])([H])[H])c2F)C([H])([H])c2c([H])nc(-c3c(C([H])([H])[H])nn(C([H])([H])[H])c3[H])c([H])c21
     RDKit          3D

 60 64  0  0  0  0  0  0  0  0999 V2000
   -7.5554    0.5343    2.7171 C   0  0  0  0  0  0  0  0  0  0  0  0
   -6.5063    1.1208    1.9421 O   0  0  0  0  0  0  0  0  0  0  0  0
   -5.4531    0.2463    1.6037 C   0  0  0  0  0  0  0  0  0  0  0  0
   -5.4193   -1.0565    1.9657 C   0  0  0  0  0  0  0  0  0  0  0  0
   -4.3734   -1.9720    1.6422 C   0  0  0  0  0  0  0  0  0  0  0  0
   -4.3963   -3.1911    2.0144 O   0  0  0  0  0  0  0  0  0  0  0  0
   -4.5084   -4.3909    2.4307 C   0  0  0  0  0  0  0  0  0  0  0  0
   -3.3468   -1.3911    0.8936 C   0  0  0  0  0  0  0  0  0  0  0  0
   -2.3412   -2.1879    0.5483 F   0  0  0  0  0  0  0  0  0  0  0  0
   -3.3334   -0.0670    0.5005 C   0  0  0  0  0  0  0  0  0  0  0  0
   -2.1800    0.3733   -0.2110 N   0  0  0  0  0  0  0  0  0  0  0  0
   -1.9348   -0.0563   -1.5375 C   0  0  0  0  0  0  0  0  0  0  0  0
   -0.4459   -0.2838   -1.7270 C   0  0  0  0  0  0  0  0  0  0  0  0
   -0.0169   -1.1510   -2.7079 C   0  0  0  0  0  0  0  0  0  0  0  0
    1.2920   -1.3041   -2.9952 N   0  0  0  0  0  0  0  0  0  0  0  0
    2.2257   -0.6103   -2.3283 C   0  0  0  0  0  0  0  0  0  0  0  0
    1.8322    0.2630   -1.3432 C   0  0  0  0  0  0  0  0  0  0  0  0
    0.4961    0.4302   -1.0343 C   0  0  0  0  0  0  0  0  0  0  0  0
    0.1184    1.2064    0.1123 N   0  0  0  0  0  0  0  0  0  0  0  0
   -1.2594    1.1667    0.5024 C   0  0  0  0  0  0  0  0  0  0  0  0
   -1.6506    1.8340    1.4712 O   0  0  0  0  0  0  0  0  0  0  0  0
    1.0613    1.9738    0.8332 C   0  0  0  0  0  0  0  0  0  0  0  0
    1.2764    1.7024    2.1531 C   0  0  0  0  0  0  0  0  0  0  0  0
    2.1838    2.4136    2.8901 N   0  0  0  0  0  0  0  0  0  0  0  0
    2.8580    3.3932    2.2675 C   0  0  0  0  0  0  0  0  0  0  0  0
    3.8534    4.1589    3.0536 C   0  0  0  0  0  0  0  0  0  0  0  0
    2.6525    3.6775    0.9456 C   0  0  0  0  0  0  0  0  0  0  0  0
    1.7425    2.9514    0.2392 N   0  0  0  0  0  0  0  0  0  0  0  0
    3.6578   -0.7674   -2.6130 C   0  0  0  0  0  0  0  0  0  0  0  0
    4.6835   -0.1308   -1.9751 C   0  0  0  0  0  0  0  0  0  0  0  0
    5.8244   -0.5450   -2.5248 N   0  0  0  0  0  0  0  0  0  0  0  0
    7.1558   -0.1076   -2.1258 C   0  0  0  0  0  0  0  0  0  0  0  0
    5.5819   -1.4375   -3.5102 N   0  0  0  0  0  0  0  0  0  0  0  0
    4.2349   -1.5702   -3.5572 C   0  0  0  0  0  0  0  0  0  0  0  0
    3.5346   -2.4903   -4.5267 C   0  0  0  0  0  0  0  0  0  0  0  0
   -4.3652    0.7111    0.8530 C   0  0  0  0  0  0  0  0  0  0  0  0
   -4.4094    2.0314    0.4865 F   0  0  0  0  0  0  0  0  0  0  0  0
   -8.3564    1.2193    2.9490 H   0  0  0  0  0  0  0  0  0  0  0  0
   -7.0868    0.2557    3.7090 H   0  0  0  0  0  0  0  0  0  0  0  0
   -7.8662   -0.4247    2.2577 H   0  0  0  0  0  0  0  0  0  0  0  0
   -6.2235   -1.4844    2.5470 H   0  0  0  0  0  0  0  0  0  0  0  0
   -5.5567   -4.6852    2.8098 H   0  0  0  0  0  0  0  0  0  0  0  0
   -4.3494   -5.2396    1.6674 H   0  0  0  0  0  0  0  0  0  0  0  0
   -3.8773   -4.6925    3.3486 H   0  0  0  0  0  0  0  0  0  0  0  0
   -2.1728    0.7464   -2.2992 H   0  0  0  0  0  0  0  0  0  0  0  0
   -2.4518   -0.9655   -1.8749 H   0  0  0  0  0  0  0  0  0  0  0  0
   -0.7624   -1.7181   -3.2649 H   0  0  0  0  0  0  0  0  0  0  0  0
    2.5729    0.8254   -0.7910 H   0  0  0  0  0  0  0  0  0  0  0  0
    0.7577    0.9252    2.6969 H   0  0  0  0  0  0  0  0  0  0  0  0
    4.2139    3.4744    3.8678 H   0  0  0  0  0  0  0  0  0  0  0  0
    4.6811    4.5244    2.4325 H   0  0  0  0  0  0  0  0  0  0  0  0
    3.2832    5.0110    3.5170 H   0  0  0  0  0  0  0  0  0  0  0  0
    3.1896    4.4606    0.4395 H   0  0  0  0  0  0  0  0  0  0  0  0
    4.5656    0.5930   -1.1496 H   0  0  0  0  0  0  0  0  0  0  0  0
    7.2180    0.9932   -2.0719 H   0  0  0  0  0  0  0  0  0  0  0  0
    7.3808   -0.5132   -1.1031 H   0  0  0  0  0  0  0  0  0  0  0  0
    7.9307   -0.5238   -2.7997 H   0  0  0  0  0  0  0  0  0  0  0  0
    4.2981   -3.1532   -5.0341 H   0  0  0  0  0  0  0  0  0  0  0  0
    2.9092   -3.1740   -3.9495 H   0  0  0  0  0  0  0  0  0  0  0  0
    2.9329   -1.9319   -5.2531 H   0  0  0  0  0  0  0  0  0  0  0  0
  1  2  1  0
  2  3  1  0
  3  4  2  0
  4  5  1  0
  5  6  1  0
  6  7  1  0
  5  8  2  0
  8  9  1  0
  8 10  1  0
 10 11  1  0
 11 12  1  0
 12 13  1  0
 13 14  2  0
 14 15  1  0
 15 16  2  0
 16 17  1  0
 17 18  2  0
 18 19  1  0
 19 20  1  0
 20 21  2  0
 19 22  1  0
 22 23  2  0
 23 24  1  0
 24 25  2  0
 25 26  1  0
 25 27  1  0
 27 28  2  0
 16 29  1  0
 29 30  2  0
 30 31  1  0
 31 32  1  0
 31 33  1  0
 33 34  2  0
 34 35  1  0
 10 36  2  0
 36 37  1  0
 36  3  1  0
 20 11  1  0
 28 22  1  0
 34 29  1  0
 18 13  1  0
  1 38  1  0
  1 39  1  0
  1 40  1  0
  4 41  1  0
  7 42  1  0
  7 43  1  0
  7 44  1  0
 12 45  1  0
 12 46  1  0
 14 47  1  0
 17 48  1  0
 23 49  1  0
 26 50  1  0
 26 51  1  0
 26 52  1  0
 27 53  1  0
 30 54  1  0
 32 55  1  0
 32 56  1  0
 32 57  1  0
 35 58  1  0
 35 59  1  0
 35 60  1  0
M  END
$$$$
[H]c1nc([H])c(N2C(=O)N(c3c(F)c(OC([H])([H])[H])c([H])c(OC([H])([H])[H])c3F)C([H])([H])c3c([H])nc(-c4c([H])nc(C5(C#N)C([H])([H])C([H])([H])C5([H])[H])c([H])c4[H])c([H])c32)c([H])c1[H]
     RDKit          3D

 65 70  0  0  0  0  0  0  0  0999 V2000
    8.4472   -1.4935   -2.6192 C   0  0  0  0  0  0  0  0  0  0  0  0
    7.0561   -1.4091   -2.4240 O   0  0  0  0  0  0  0  0  0  0  0  0
    6.4692   -0.6742   -1.4258 C   0  0  0  0  0  0  0  0  0  0  0  0
    7.1545    0.0539   -0.4696 C   0  0  0  0  0  0  0  0  0  0  0  0
    6.5257    0.7712    0.5173 C   0  0  0  0  0  0  0  0  0  0  0  0
    7.1563    1.5050    1.4830 O   0  0  0  0  0  0  0  0  0  0  0  0
    8.5287    1.6316    1.6079 C   0  0  0  0  0  0  0  0  0  0  0  0
    5.1225    0.7807    0.5791 C   0  0  0  0  0  0  0  0  0  0  0  0
    4.4986    1.4830    1.5706 F   0  0  0  0  0  0  0  0  0  0  0  0
    4.4295    0.0694   -0.3558 C   0  0  0  0  0  0  0  0  0  0  0  0
    2.9934    0.0961   -0.2815 N   0  0  0  0  0  0  0  0  0  0  0  0
    2.2830    1.2962   -0.5637 C   0  0  0  0  0  0  0  0  0  0  0  0
    0.8329    1.1752   -0.3547 C   0  0  0  0  0  0  0  0  0  0  0  0
    0.0652    2.3421   -0.5541 C   0  0  0  0  0  0  0  0  0  0  0  0
   -1.2603    2.3274   -0.4038 N   0  0  0  0  0  0  0  0  0  0  0  0
   -1.8982    1.1673   -0.0484 C   0  0  0  0  0  0  0  0  0  0  0  0
   -1.1823    0.0210    0.1522 C   0  0  0  0  0  0  0  0  0  0  0  0
    0.2075    0.0074    0.0004 C   0  0  0  0  0  0  0  0  0  0  0  0
    0.9869   -1.1690    0.2188 N   0  0  0  0  0  0  0  0  0  0  0  0
    2.4032   -1.1462    0.0794 C   0  0  0  0  0  0  0  0  0  0  0  0
    3.0380   -2.2012    0.2790 O   0  0  0  0  0  0  0  0  0  0  0  0
    0.2817   -2.3274    0.5536 C   0  0  0  0  0  0  0  0  0  0  0  0
   -0.3168   -3.0695   -0.4479 C   0  0  0  0  0  0  0  0  0  0  0  0
   -1.0421   -4.2167   -0.2031 C   0  0  0  0  0  0  0  0  0  0  0  0
   -1.1394   -4.5923    1.1162 C   0  0  0  0  0  0  0  0  0  0  0  0
   -0.5505   -3.8630    2.1012 N   0  0  0  0  0  0  0  0  0  0  0  0
    0.1510   -2.7498    1.8486 C   0  0  0  0  0  0  0  0  0  0  0  0
   -3.3357    1.1310    0.0846 C   0  0  0  0  0  0  0  0  0  0  0  0
   -3.9965    0.0461    0.5629 C   0  0  0  0  0  0  0  0  0  0  0  0
   -5.3923    0.0715    0.6252 C   0  0  0  0  0  0  0  0  0  0  0  0
   -6.0752    1.1745    0.2104 C   0  0  0  0  0  0  0  0  0  0  0  0
   -5.4131    2.2443   -0.2607 N   0  0  0  0  0  0  0  0  0  0  0  0
   -4.0645    2.2221   -0.3222 C   0  0  0  0  0  0  0  0  0  0  0  0
   -7.5316    1.1967    0.2780 C   0  0  0  0  0  0  0  0  0  0  0  0
   -8.1741    2.4862   -0.2670 C   0  0  0  0  0  0  0  0  0  0  0  0
   -9.3422    1.5810   -0.6784 C   0  0  0  0  0  0  0  0  0  0  0  0
   -8.2759    0.4931   -0.8624 C   0  0  0  0  0  0  0  0  0  0  0  0
   -8.1461    0.8055    1.5425 C   0  0  0  0  0  0  0  0  0  0  0  0
   -8.6297    0.5121    2.5588 N   0  0  0  0  0  0  0  0  0  0  0  0
    5.0745   -0.6460   -1.3421 C   0  0  0  0  0  0  0  0  0  0  0  0
    4.3552   -1.3384   -2.2531 F   0  0  0  0  0  0  0  0  0  0  0  0
    8.9834   -1.7730   -1.6754 H   0  0  0  0  0  0  0  0  0  0  0  0
    8.7013   -2.2569   -3.4039 H   0  0  0  0  0  0  0  0  0  0  0  0
    8.8191   -0.4778   -2.8658 H   0  0  0  0  0  0  0  0  0  0  0  0
    8.2396    0.0441   -0.5210 H   0  0  0  0  0  0  0  0  0  0  0  0
    9.0595    1.4131    0.6705 H   0  0  0  0  0  0  0  0  0  0  0  0
    8.9577    0.9236    2.3769 H   0  0  0  0  0  0  0  0  0  0  0  0
    8.8081    2.6399    1.9997 H   0  0  0  0  0  0  0  0  0  0  0  0
    2.4997    1.5910   -1.6299 H   0  0  0  0  0  0  0  0  0  0  0  0
    2.6958    2.1148    0.0693 H   0  0  0  0  0  0  0  0  0  0  0  0
    0.5695    3.2748   -0.8356 H   0  0  0  0  0  0  0  0  0  0  0  0
   -1.6010   -0.9367    0.4328 H   0  0  0  0  0  0  0  0  0  0  0  0
   -0.2496   -2.7954   -1.5026 H   0  0  0  0  0  0  0  0  0  0  0  0
   -1.5246   -4.8192   -0.9545 H   0  0  0  0  0  0  0  0  0  0  0  0
   -1.6971   -5.4801    1.3592 H   0  0  0  0  0  0  0  0  0  0  0  0
    0.6065   -2.2018    2.6981 H   0  0  0  0  0  0  0  0  0  0  0  0
   -3.4599   -0.8218    0.9006 H   0  0  0  0  0  0  0  0  0  0  0  0
   -5.8951   -0.8262    1.0190 H   0  0  0  0  0  0  0  0  0  0  0  0
   -3.5714    3.1158   -0.7121 H   0  0  0  0  0  0  0  0  0  0  0  0
   -8.4212    3.1393    0.5875 H   0  0  0  0  0  0  0  0  0  0  0  0
   -7.6454    2.9433   -1.1030 H   0  0  0  0  0  0  0  0  0  0  0  0
   -9.9823    1.3727    0.1899 H   0  0  0  0  0  0  0  0  0  0  0  0
   -9.8079    1.9539   -1.5804 H   0  0  0  0  0  0  0  0  0  0  0  0
   -7.7622    0.5821   -1.8333 H   0  0  0  0  0  0  0  0  0  0  0  0
   -8.6163   -0.5148   -0.6424 H   0  0  0  0  0  0  0  0  0  0  0  0
  1  2  1  0
  2  3  1  0
  3  4  2  0
  4  5  1  0
  5  6  1  0
  6  7  1  0
  5  8  2  0
  8  9  1  0
  8 10  1  0
 10 11  1  0
 11 12  1  0
 12 13  1  0
 13 14  2  0
 14 15  1  0
 15 16  2  0
 16 17  1  0
 17 18  2  0
 18 19  1  0
 19 20  1  0
 20 21  2  0
 19 22  1  0
 22 23  2  0
 23 24  1  0
 24 25  2  0
 25 26  1  0
 26 27  2  0
 16 28  1  0
 28 29  2  0
 29 30  1  0
 30 31  2  0
 31 32  1  0
 32 33  2  0
 31 34  1  0
 34 35  1  0
 35 36  1  0
 36 37  1  0
 34 38  1  0
 38 39  3  0
 10 40  2  0
 40 41  1  0
 40  3  1  0
 20 11  1  0
 27 22  1  0
 33 28  1  0
 37 34  1  0
 18 13  1  0
  1 42  1  0
  1 43  1  0
  1 44  1  0
  4 45  1  0
  7 46  1  0
  7 47  1  0
  7 48  1  0
 12 49  1  0
 12 50  1  0
 14 51  1  0
 17 52  1  0
 23 53  1  0
 24 54  1  0
 25 55  1  0
 27 56  1  0
 29 57  1  0
 30 58  1  0
 33 59  1  0
 35 60  1  0
 35 61  1  0
 36 62  1  0
 36 63  1  0
 37 64  1  0
 37 65  1  0
M  END
$$$$
[H]c1nc2c([H])c([H])c(N(c3c([H])c(OC([H])([H])[H])c([H])c(OC([H])([H])[H])c3F)C([H])([H])c3nn([H])c([H])c3[H])nc2c([H])c1-c1c([H])nn(C([H])([H])[H])c1[H]
     RDKit          3D

 56 60  0  0  0  0  0  0  0  0999 V2000
   -3.5920   -2.7101    1.6325 C   0  0  0  0  0  0  0  0  0  0  0  0
   -4.1099   -1.4607    1.9886 O   0  0  0  0  0  0  0  0  0  0  0  0
   -3.6933   -0.3199    1.2891 C   0  0  0  0  0  0  0  0  0  0  0  0
   -4.2371    0.9147    1.6739 C   0  0  0  0  0  0  0  0  0  0  0  0
   -3.8431    2.0483    1.0031 C   0  0  0  0  0  0  0  0  0  0  0  0
   -4.3299    3.2820    1.3368 O   0  0  0  0  0  0  0  0  0  0  0  0
   -5.2855    3.5315    2.3536 C   0  0  0  0  0  0  0  0  0  0  0  0
   -2.9311    1.9245   -0.0229 C   0  0  0  0  0  0  0  0  0  0  0  0
   -2.5785    3.0826   -0.6544 F   0  0  0  0  0  0  0  0  0  0  0  0
   -2.3933    0.6947   -0.4035 C   0  0  0  0  0  0  0  0  0  0  0  0
   -2.7820   -0.4456    0.2668 C   0  0  0  0  0  0  0  0  0  0  0  0
   -1.5067    0.6037   -1.4980 N   0  0  0  0  0  0  0  0  0  0  0  0
   -1.9954    0.2075   -2.8266 C   0  0  0  0  0  0  0  0  0  0  0  0
   -2.6011   -1.1435   -2.8129 C   0  0  0  0  0  0  0  0  0  0  0  0
   -3.9170   -1.5414   -2.7195 C   0  0  0  0  0  0  0  0  0  0  0  0
   -3.9660   -2.9137   -2.7440 C   0  0  0  0  0  0  0  0  0  0  0  0
   -2.6839   -3.3406   -2.8504 N   0  0  0  0  0  0  0  0  0  0  0  0
   -1.8839   -2.2872   -2.8908 N   0  0  0  0  0  0  0  0  0  0  0  0
   -0.1409    0.9463   -1.3395 C   0  0  0  0  0  0  0  0  0  0  0  0
    0.2583    2.1230   -1.9946 C   0  0  0  0  0  0  0  0  0  0  0  0
    1.5579    2.5371   -1.8830 C   0  0  0  0  0  0  0  0  0  0  0  0
    2.4279    1.7896   -1.1350 C   0  0  0  0  0  0  0  0  0  0  0  0
    3.7263    2.1711   -0.9962 N   0  0  0  0  0  0  0  0  0  0  0  0
    4.5894    1.4741   -0.2771 C   0  0  0  0  0  0  0  0  0  0  0  0
    4.2394    0.3146    0.3824 C   0  0  0  0  0  0  0  0  0  0  0  0
    2.9336   -0.1056    0.2665 C   0  0  0  0  0  0  0  0  0  0  0  0
    2.0403    0.6358   -0.4913 C   0  0  0  0  0  0  0  0  0  0  0  0
    0.7375    0.2344   -0.6126 N   0  0  0  0  0  0  0  0  0  0  0  0
    5.2309   -0.4099    1.1692 C   0  0  0  0  0  0  0  0  0  0  0  0
    4.9884   -1.1614    2.2986 C   0  0  0  0  0  0  0  0  0  0  0  0
    6.1874   -1.6360    2.6909 N   0  0  0  0  0  0  0  0  0  0  0  0
    7.1518   -1.2181    1.8656 N   0  0  0  0  0  0  0  0  0  0  0  0
    8.5539   -1.5668    2.0304 C   0  0  0  0  0  0  0  0  0  0  0  0
    6.5743   -0.4676    0.9322 C   0  0  0  0  0  0  0  0  0  0  0  0
   -4.0334   -3.4628    2.3241 H   0  0  0  0  0  0  0  0  0  0  0  0
   -3.9328   -2.9931    0.6157 H   0  0  0  0  0  0  0  0  0  0  0  0
   -2.5091   -2.7256    1.7428 H   0  0  0  0  0  0  0  0  0  0  0  0
   -4.9456    0.9545    2.4749 H   0  0  0  0  0  0  0  0  0  0  0  0
   -5.0460    2.8428    3.1913 H   0  0  0  0  0  0  0  0  0  0  0  0
   -6.3242    3.4493    2.0296 H   0  0  0  0  0  0  0  0  0  0  0  0
   -5.1514    4.5609    2.7734 H   0  0  0  0  0  0  0  0  0  0  0  0
   -2.3794   -1.4138    0.0026 H   0  0  0  0  0  0  0  0  0  0  0  0
   -1.1693    0.2423   -3.5589 H   0  0  0  0  0  0  0  0  0  0  0  0
   -2.7923    0.9364   -3.1005 H   0  0  0  0  0  0  0  0  0  0  0  0
   -4.7403   -0.8618   -2.6419 H   0  0  0  0  0  0  0  0  0  0  0  0
   -4.8240   -3.5516   -2.6897 H   0  0  0  0  0  0  0  0  0  0  0  0
   -2.4067   -4.3485   -2.8925 H   0  0  0  0  0  0  0  0  0  0  0  0
   -0.4622    2.6905   -2.5862 H   0  0  0  0  0  0  0  0  0  0  0  0
    1.8947    3.4441   -2.3793 H   0  0  0  0  0  0  0  0  0  0  0  0
    5.6100    1.8178   -0.1963 H   0  0  0  0  0  0  0  0  0  0  0  0
    2.5980   -1.0087    0.7609 H   0  0  0  0  0  0  0  0  0  0  0  0
    4.0230   -1.3463    2.7910 H   0  0  0  0  0  0  0  0  0  0  0  0
    8.7566   -2.3958    1.3145 H   0  0  0  0  0  0  0  0  0  0  0  0
    9.2227   -0.7225    1.8165 H   0  0  0  0  0  0  0  0  0  0  0  0
    8.7330   -1.9007    3.0601 H   0  0  0  0  0  0  0  0  0  0  0  0
    7.1520    0.0051    0.1201 H   0  0  0  0  0  0  0  0  0  0  0  0
  1  2  1  0
  2  3  1  0
  3  4  2  0
  4  5  1  0
  5  6  1  0
  6  7  1  0
  5  8  2  0
  8  9  1  0
  8 10  1  0
 10 11  2  0
 10 12  1  0
 12 13  1  0
 13 14  1  0
 14 15  1  0
 15 16  2  0
 16 17  1  0
 17 18  1  0
 12 19  1  0
 19 20  2  0
 20 21  1  0
 21 22  2  0
 22 23  1  0
 23 24  2  0
 24 25  1  0
 25 26  2  0
 26 27  1  0
 27 28  2  0
 25 29  1  0
 29 30  1  0
 30 31  2  0
 31 32  1  0
 32 33  1  0
 32 34  1  0
 11  3  1  0
 18 14  2  0
 28 19  1  0
 34 29  2  0
 27 22  1  0
  1 35  1  0
  1 36  1  0
  1 37  1  0
  4 38  1  0
  7 39  1  0
  7 40  1  0
  7 41  1  0
 11 42  1  0
 13 43  1  0
 13 44  1  0
 15 45  1  0
 16 46  1  0
 17 47  1  0
 20 48  1  0
 21 49  1  0
 24 50  1  0
 26 51  1  0
 30 52  1  0
 33 53  1  0
 33 54  1  0
 33 55  1  0
 34 56  1  0
M  END
$$$$
[H]Oc1c(F)c([H])c([H])c([H])c1-c1nc([H])c(N([H])[C@]([H])(c2c([H])c([H])c([H])c([H])c2[H])C([H])([H])O[H])c([H])c1-c1c([H])c([H])c2c(c(C([H])([H])[H])nn2[H])c1[H]
     RDKit          3D

 57 61  0  0  0  0  0  0  0  0999 V2000
   -3.5462   -2.3888    3.2595 C   0  0  0  0  0  0  0  0  0  0  0  0
   -4.0931   -2.2551    1.8817 C   0  0  0  0  0  0  0  0  0  0  0  0
   -5.1913   -2.7869    1.3273 N   0  0  0  0  0  0  0  0  0  0  0  0
   -5.3115   -2.4157    0.0684 N   0  0  0  0  0  0  0  0  0  0  0  0
   -4.2528   -1.6054   -0.2270 C   0  0  0  0  0  0  0  0  0  0  0  0
   -3.8614   -0.9392   -1.3615 C   0  0  0  0  0  0  0  0  0  0  0  0
   -2.7095   -0.1756   -1.3548 C   0  0  0  0  0  0  0  0  0  0  0  0
   -1.9131   -0.0406   -0.2492 C   0  0  0  0  0  0  0  0  0  0  0  0
   -2.3167   -0.7146    0.8833 C   0  0  0  0  0  0  0  0  0  0  0  0
   -3.4695   -1.4880    0.9004 C   0  0  0  0  0  0  0  0  0  0  0  0
   -0.7129    0.7766   -0.3170 C   0  0  0  0  0  0  0  0  0  0  0  0
    0.5476    0.1704   -0.1378 C   0  0  0  0  0  0  0  0  0  0  0  0
    1.6820    0.9417   -0.1994 C   0  0  0  0  0  0  0  0  0  0  0  0
    2.9562    0.3698   -0.0325 N   0  0  0  0  0  0  0  0  0  0  0  0
    3.2514   -1.0400    0.0513 C   0  0  1  0  0  0  0  0  0  0  0  0
    3.0097   -1.8286   -1.1768 C   0  0  0  0  0  0  0  0  0  0  0  0
    3.2823   -3.1926   -0.9183 O   0  0  0  0  0  0  0  0  0  0  0  0
    4.6697   -1.1967    0.4947 C   0  0  0  0  0  0  0  0  0  0  0  0
    5.6126   -1.8675   -0.2270 C   0  0  0  0  0  0  0  0  0  0  0  0
    6.9305   -2.0076    0.2294 C   0  0  0  0  0  0  0  0  0  0  0  0
    7.3174   -1.4679    1.4295 C   0  0  0  0  0  0  0  0  0  0  0  0
    6.3656   -0.7945    2.1496 C   0  0  0  0  0  0  0  0  0  0  0  0
    5.0786   -0.6561    1.7072 C   0  0  0  0  0  0  0  0  0  0  0  0
    1.5348    2.2966   -0.4377 C   0  0  0  0  0  0  0  0  0  0  0  0
    0.3323    2.8694   -0.6079 N   0  0  0  0  0  0  0  0  0  0  0  0
   -0.8224    2.1284   -0.5524 C   0  0  0  0  0  0  0  0  0  0  0  0
   -2.1107    2.7661   -0.7369 C   0  0  0  0  0  0  0  0  0  0  0  0
   -3.0818    2.7941    0.2269 C   0  0  0  0  0  0  0  0  0  0  0  0
   -4.3036    3.4342   -0.0131 C   0  0  0  0  0  0  0  0  0  0  0  0
   -4.5522    4.0479   -1.2229 C   0  0  0  0  0  0  0  0  0  0  0  0
   -3.5785    4.0183   -2.1852 C   0  0  0  0  0  0  0  0  0  0  0  0
   -3.8227    4.6263   -3.3853 F   0  0  0  0  0  0  0  0  0  0  0  0
   -2.3695    3.3859   -1.9500 C   0  0  0  0  0  0  0  0  0  0  0  0
   -1.4191    3.3847   -2.9554 O   0  0  0  0  0  0  0  0  0  0  0  0
   -3.3559   -1.3979    3.7229 H   0  0  0  0  0  0  0  0  0  0  0  0
   -4.2278   -2.9419    3.9187 H   0  0  0  0  0  0  0  0  0  0  0  0
   -2.5330   -2.8862    3.2228 H   0  0  0  0  0  0  0  0  0  0  0  0
   -6.0411   -2.6470   -0.6388 H   0  0  0  0  0  0  0  0  0  0  0  0
   -4.4695   -1.0288   -2.2437 H   0  0  0  0  0  0  0  0  0  0  0  0
   -2.4800    0.3095   -2.3157 H   0  0  0  0  0  0  0  0  0  0  0  0
   -1.7316   -0.6492    1.7875 H   0  0  0  0  0  0  0  0  0  0  0  0
    0.5455   -0.8885    0.0504 H   0  0  0  0  0  0  0  0  0  0  0  0
    3.7799    1.0382    0.0381 H   0  0  0  0  0  0  0  0  0  0  0  0
    2.5942   -1.5127    0.8578 H   0  0  0  0  0  0  0  0  0  0  0  0
    1.9918   -1.7410   -1.5817 H   0  0  0  0  0  0  0  0  0  0  0  0
    3.7392   -1.5687   -2.0048 H   0  0  0  0  0  0  0  0  0  0  0  0
    3.3220   -3.3711    0.0510 H   0  0  0  0  0  0  0  0  0  0  0  0
    5.4190   -2.3203   -1.1952 H   0  0  0  0  0  0  0  0  0  0  0  0
    7.6491   -2.5436   -0.3648 H   0  0  0  0  0  0  0  0  0  0  0  0
    8.3404   -1.5662    1.8027 H   0  0  0  0  0  0  0  0  0  0  0  0
    6.6521   -0.3657    3.0907 H   0  0  0  0  0  0  0  0  0  0  0  0
    4.3207   -0.1145    2.2910 H   0  0  0  0  0  0  0  0  0  0  0  0
    2.4571    2.8785   -0.4799 H   0  0  0  0  0  0  0  0  0  0  0  0
   -2.9014    2.3290    1.1677 H   0  0  0  0  0  0  0  0  0  0  0  0
   -5.0677    3.4571    0.7422 H   0  0  0  0  0  0  0  0  0  0  0  0
   -5.5214    4.5439   -1.3878 H   0  0  0  0  0  0  0  0  0  0  0  0
   -1.6139    3.8385   -3.8349 H   0  0  0  0  0  0  0  0  0  0  0  0
  1  2  1  0
  2  3  2  0
  3  4  1  0
  4  5  1  0
  5  6  2  0
  6  7  1  0
  7  8  2  0
  8  9  1  0
  9 10  2  0
  8 11  1  0
 11 12  2  0
 12 13  1  0
 13 14  1  0
 14 15  1  0
 15 16  1  0
 16 17  1  0
 15 18  1  0
 18 19  2  0
 19 20  1  0
 20 21  2  0
 21 22  1  0
 22 23  2  0
 13 24  2  0
 24 25  1  0
 25 26  2  0
 26 27  1  0
 27 28  2  0
 28 29  1  0
 29 30  2  0
 30 31  1  0
 31 32  1  0
 31 33  2  0
 33 34  1  0
 10  2  1  0
 26 11  1  0
 33 27  1  0
 10  5  1  0
 23 18  1  0
  1 35  1  0
  1 36  1  0
  1 37  1  0
  4 38  1  0
  6 39  1  0
  7 40  1  0
  9 41  1  0
 12 42  1  0
 14 43  1  0
 15 44  1  1
 16 45  1  0
 16 46  1  0
 17 47  1  0
 19 48  1  0
 20 49  1  0
 21 50  1  0
 22 51  1  0
 23 52  1  0
 24 53  1  0
 28 54  1  0
 29 55  1  0
 30 56  1  0
 34 57  1  0
M  END
$$$$
[H]c1nn(-c2c([H])c([H])c3c(nc(C([H])([H])[H])n3[H])c2[H])c(N([H])[H])c1C(=O)c1nc2c([H])c([H])c([H])c([H])c2s1
     RDKit          3D

 41 45  0  0  0  0  0  0  0  0999 V2000
   -8.1124    1.3544    0.0173 C   0  0  0  0  0  0  0  0  0  0  0  0
   -6.7467    0.7415   -0.1048 C   0  0  0  0  0  0  0  0  0  0  0  0
   -5.5603    1.3455    0.0659 N   0  0  0  0  0  0  0  0  0  0  0  0
   -4.5518    0.4835   -0.1240 C   0  0  0  0  0  0  0  0  0  0  0  0
   -3.1597    0.5974   -0.0694 C   0  0  0  0  0  0  0  0  0  0  0  0
   -2.3224   -0.4647   -0.3118 C   0  0  0  0  0  0  0  0  0  0  0  0
   -2.9286   -1.6747   -0.6176 C   0  0  0  0  0  0  0  0  0  0  0  0
   -4.2992   -1.8099   -0.6770 C   0  0  0  0  0  0  0  0  0  0  0  0
   -5.1152   -0.7233   -0.4287 C   0  0  0  0  0  0  0  0  0  0  0  0
   -6.4554   -0.5351   -0.4098 N   0  0  0  0  0  0  0  0  0  0  0  0
   -0.9061   -0.3848   -0.2705 N   0  0  0  0  0  0  0  0  0  0  0  0
   -0.0582   -0.9463   -1.1275 N   0  0  0  0  0  0  0  0  0  0  0  0
    1.2071   -0.6878   -0.8130 C   0  0  0  0  0  0  0  0  0  0  0  0
    1.1970    0.1051    0.3385 C   0  0  0  0  0  0  0  0  0  0  0  0
    2.3159    0.6492    1.0790 C   0  0  0  0  0  0  0  0  0  0  0  0
    2.1253    1.3494    2.1092 O   0  0  0  0  0  0  0  0  0  0  0  0
    3.7095    0.4285    0.6906 C   0  0  0  0  0  0  0  0  0  0  0  0
    4.2474    0.1817   -0.4784 N   0  0  0  0  0  0  0  0  0  0  0  0
    5.5379    0.0066   -0.5941 C   0  0  0  0  0  0  0  0  0  0  0  0
    6.2340   -0.2629   -1.7921 C   0  0  0  0  0  0  0  0  0  0  0  0
    7.5780   -0.4227   -1.7681 C   0  0  0  0  0  0  0  0  0  0  0  0
    8.3575   -0.3430   -0.6385 C   0  0  0  0  0  0  0  0  0  0  0  0
    7.6855   -0.0781    0.5464 C   0  0  0  0  0  0  0  0  0  0  0  0
    6.2891    0.0922    0.5485 C   0  0  0  0  0  0  0  0  0  0  0  0
    5.0860    0.4210    1.7215 S   0  0  0  0  0  0  0  0  0  0  0  0
   -0.1407    0.2559    0.6230 C   0  0  0  0  0  0  0  0  0  0  0  0
   -0.6810    1.0039    1.7305 N   0  0  0  0  0  0  0  0  0  0  0  0
   -8.8255    0.5011    0.2095 H   0  0  0  0  0  0  0  0  0  0  0  0
   -8.3948    1.7546   -0.9708 H   0  0  0  0  0  0  0  0  0  0  0  0
   -8.1718    2.0574    0.8485 H   0  0  0  0  0  0  0  0  0  0  0  0
   -2.7145    1.5573    0.1731 H   0  0  0  0  0  0  0  0  0  0  0  0
   -2.3134   -2.5510   -0.8183 H   0  0  0  0  0  0  0  0  0  0  0  0
   -4.7945   -2.7466   -0.9137 H   0  0  0  0  0  0  0  0  0  0  0  0
   -7.1337   -1.3023   -0.6107 H   0  0  0  0  0  0  0  0  0  0  0  0
    2.1199   -0.9934   -1.2998 H   0  0  0  0  0  0  0  0  0  0  0  0
    5.7165   -0.3468   -2.7453 H   0  0  0  0  0  0  0  0  0  0  0  0
    8.1084   -0.6327   -2.7059 H   0  0  0  0  0  0  0  0  0  0  0  0
    9.4190   -0.4724   -0.6544 H   0  0  0  0  0  0  0  0  0  0  0  0
    8.1708    0.0075    1.4925 H   0  0  0  0  0  0  0  0  0  0  0  0
   -0.5306    2.0342    1.7370 H   0  0  0  0  0  0  0  0  0  0  0  0
   -1.1881    0.4503    2.4492 H   0  0  0  0  0  0  0  0  0  0  0  0
  1  2  1  0
  2  3  2  0
  3  4  1  0
  4  5  2  0
  5  6  1  0
  6  7  2  0
  7  8  1  0
  8  9  2  0
  9 10  1  0
  6 11  1  0
 11 12  1  0
 12 13  2  0
 13 14  1  0
 14 15  1  0
 15 16  2  0
 15 17  1  0
 17 18  2  0
 18 19  1  0
 19 20  2  0
 20 21  1  0
 21 22  2  0
 22 23  1  0
 23 24  2  0
 24 25  1  0
 14 26  2  0
 26 27  1  0
 10  2  1  0
 26 11  1  0
  9  4  1  0
 25 17  1  0
 24 19  1  0
  1 28  1  0
  1 29  1  0
  1 30  1  0
  5 31  1  0
  7 32  1  0
  8 33  1  0
 10 34  1  0
 13 35  1  0
 20 36  1  0
 21 37  1  0
 22 38  1  0
 23 39  1  0
 27 40  1  0
 27 41  1  0
M  END
$$$$
[H]c1c(F)c(OC([H])([H])[H])c(F)c(-c2c([H])c([H])c3c(N([H])C(=O)c4c([H])c([H])c(N5C([H])([H])C([H])([H])N(C([H])([H])C([H])([H])OC([H])([H])[H])C([H])([H])C5([H])[H])c([H])c4[H])nn([H])c3c2[H])c1F
     RDKit          3D

 67 71  0  0  0  0  0  0  0  0999 V2000
    9.7195   -1.9277   -0.2965 C   0  0  0  0  0  0  0  0  0  0  0  0
    9.7814   -0.5789   -0.2717 O   0  0  0  0  0  0  0  0  0  0  0  0
    8.7073    0.2057   -0.4364 C   0  0  0  0  0  0  0  0  0  0  0  0
    7.5933    0.0406    0.5444 C   0  0  0  0  0  0  0  0  0  0  0  0
    6.9568   -1.2360    0.5363 N   0  0  0  0  0  0  0  0  0  0  0  0
    6.0460   -1.3109    1.6686 C   0  0  0  0  0  0  0  0  0  0  0  0
    4.6470   -0.9098    1.4028 C   0  0  0  0  0  0  0  0  0  0  0  0
    4.3854   -0.2342    0.1751 N   0  0  0  0  0  0  0  0  0  0  0  0
    5.2280   -0.3723   -0.9864 C   0  0  0  0  0  0  0  0  0  0  0  0
    6.2262   -1.4754   -0.7089 C   0  0  0  0  0  0  0  0  0  0  0  0
    3.2432    0.6180    0.0786 C   0  0  0  0  0  0  0  0  0  0  0  0
    3.0041    1.3233   -1.1087 C   0  0  0  0  0  0  0  0  0  0  0  0
    1.9053    2.1525   -1.1916 C   0  0  0  0  0  0  0  0  0  0  0  0
    1.0073    2.3252   -0.1333 C   0  0  0  0  0  0  0  0  0  0  0  0
    1.2428    1.6306    1.0333 C   0  0  0  0  0  0  0  0  0  0  0  0
    2.3403    0.8079    1.1034 C   0  0  0  0  0  0  0  0  0  0  0  0
   -0.1077    3.2267   -0.2046 C   0  0  0  0  0  0  0  0  0  0  0  0
    0.2007    4.4779   -0.3272 O   0  0  0  0  0  0  0  0  0  0  0  0
   -1.4677    2.9142   -0.1536 N   0  0  0  0  0  0  0  0  0  0  0  0
   -1.9767    1.5879   -0.0761 C   0  0  0  0  0  0  0  0  0  0  0  0
   -1.3510    0.4043   -0.1013 N   0  0  0  0  0  0  0  0  0  0  0  0
   -2.2184   -0.5684   -0.0282 N   0  0  0  0  0  0  0  0  0  0  0  0
   -3.4557   -0.0634    0.0491 C   0  0  0  0  0  0  0  0  0  0  0  0
   -4.7256   -0.6517    0.1553 C   0  0  0  0  0  0  0  0  0  0  0  0
   -5.8789    0.1007    0.2336 C   0  0  0  0  0  0  0  0  0  0  0  0
   -5.7392    1.4706    0.2023 C   0  0  0  0  0  0  0  0  0  0  0  0
   -4.4890    2.0667    0.0975 C   0  0  0  0  0  0  0  0  0  0  0  0
   -3.3510    1.3028    0.0214 C   0  0  0  0  0  0  0  0  0  0  0  0
   -7.1955   -0.5250    0.3603 C   0  0  0  0  0  0  0  0  0  0  0  0
   -7.5925   -0.9891    1.6101 C   0  0  0  0  0  0  0  0  0  0  0  0
   -6.7361   -0.8312    2.6433 F   0  0  0  0  0  0  0  0  0  0  0  0
   -8.8266   -1.5972    1.7967 C   0  0  0  0  0  0  0  0  0  0  0  0
   -9.7057   -1.7639    0.7490 C   0  0  0  0  0  0  0  0  0  0  0  0
  -10.9197   -2.3503    0.8786 F   0  0  0  0  0  0  0  0  0  0  0  0
   -9.3127   -1.2999   -0.5082 C   0  0  0  0  0  0  0  0  0  0  0  0
  -10.2143   -1.4768   -1.5600 O   0  0  0  0  0  0  0  0  0  0  0  0
  -11.1757   -0.5105   -1.8581 C   0  0  0  0  0  0  0  0  0  0  0  0
   -8.0820   -0.6974   -0.6758 C   0  0  0  0  0  0  0  0  0  0  0  0
   -7.7203   -0.2542   -1.8962 F   0  0  0  0  0  0  0  0  0  0  0  0
   10.7486   -2.3896   -0.1739 H   0  0  0  0  0  0  0  0  0  0  0  0
    9.1848   -2.3065    0.6272 H   0  0  0  0  0  0  0  0  0  0  0  0
    9.2048   -2.3609   -1.1652 H   0  0  0  0  0  0  0  0  0  0  0  0
    8.2771    0.0522   -1.4701 H   0  0  0  0  0  0  0  0  0  0  0  0
    8.9860    1.3151   -0.4459 H   0  0  0  0  0  0  0  0  0  0  0  0
    6.8362    0.8561    0.4217 H   0  0  0  0  0  0  0  0  0  0  0  0
    8.0081    0.1867    1.5854 H   0  0  0  0  0  0  0  0  0  0  0  0
    6.5067   -0.7691    2.5322 H   0  0  0  0  0  0  0  0  0  0  0  0
    6.0611   -2.3881    1.9829 H   0  0  0  0  0  0  0  0  0  0  0  0
    3.9421   -1.7651    1.5701 H   0  0  0  0  0  0  0  0  0  0  0  0
    4.3721   -0.1806    2.2316 H   0  0  0  0  0  0  0  0  0  0  0  0
    5.7178    0.5794   -1.2738 H   0  0  0  0  0  0  0  0  0  0  0  0
    4.6518   -0.7106   -1.8940 H   0  0  0  0  0  0  0  0  0  0  0  0
    6.9375   -1.4671   -1.5316 H   0  0  0  0  0  0  0  0  0  0  0  0
    5.6996   -2.4228   -0.6199 H   0  0  0  0  0  0  0  0  0  0  0  0
    3.6779    1.2043   -1.9310 H   0  0  0  0  0  0  0  0  0  0  0  0
    1.6811    2.7225   -2.1030 H   0  0  0  0  0  0  0  0  0  0  0  0
    0.5574    1.7394    1.8912 H   0  0  0  0  0  0  0  0  0  0  0  0
    2.4798    0.2727    2.0536 H   0  0  0  0  0  0  0  0  0  0  0  0
   -2.1771    3.7178   -0.2105 H   0  0  0  0  0  0  0  0  0  0  0  0
   -2.0536   -1.6166   -0.0247 H   0  0  0  0  0  0  0  0  0  0  0  0
   -4.7830   -1.7300    0.1734 H   0  0  0  0  0  0  0  0  0  0  0  0
   -6.6590    2.0667    0.2636 H   0  0  0  0  0  0  0  0  0  0  0  0
   -4.3833    3.1381    0.0732 H   0  0  0  0  0  0  0  0  0  0  0  0
   -9.1255   -1.9545    2.7677 H   0  0  0  0  0  0  0  0  0  0  0  0
  -11.5194   -0.6276   -2.9108 H   0  0  0  0  0  0  0  0  0  0  0  0
  -10.7516    0.5001   -1.6787 H   0  0  0  0  0  0  0  0  0  0  0  0
  -12.0706   -0.6929   -1.2268 H   0  0  0  0  0  0  0  0  0  0  0  0
  1  2  1  0
  2  3  1  0
  3  4  1  0
  4  5  1  0
  5  6  1  0
  6  7  1  0
  7  8  1  0
  8  9  1  0
  9 10  1  0
  8 11  1  0
 11 12  2  0
 12 13  1  0
 13 14  2  0
 14 15  1  0
 15 16  2  0
 14 17  1  0
 17 18  2  0
 17 19  1  0
 19 20  1  0
 20 21  2  0
 21 22  1  0
 22 23  1  0
 23 24  2  0
 24 25  1  0
 25 26  2  0
 26 27  1  0
 27 28  2  0
 25 29  1  0
 29 30  2  0
 30 31  1  0
 30 32  1  0
 32 33  2  0
 33 34  1  0
 33 35  1  0
 35 36  1  0
 36 37  1  0
 35 38  2  0
 38 39  1  0
 10  5  1  0
 16 11  1  0
 28 20  1  0
 38 29  1  0
 28 23  1  0
  1 40  1  0
  1 41  1  0
  1 42  1  0
  3 43  1  0
  3 44  1  0
  4 45  1  0
  4 46  1  0
  6 47  1  0
  6 48  1  0
  7 49  1  0
  7 50  1  0
  9 51  1  0
  9 52  1  0
 10 53  1  0
 10 54  1  0
 12 55  1  0
 13 56  1  0
 15 57  1  0
 16 58  1  0
 19 59  1  0
 22 60  1  0
 24 61  1  0
 26 62  1  0
 27 63  1  0
 32 64  1  0
 37 65  1  0
 37 66  1  0
 37 67  1  0
M  END
$$$$
[H]C([H])=C([H])C(=O)N1C([H])([H])C([H])([H])[C@]([H])(n2c([H])c(C#Cc3c([H])c(OC([H])([H])[H])c([H])c(OC([H])([H])[H])c3[H])c3c(N([H])[H])nc([H])nc32)C1([H])[H]
     RDKit          3D

 54 57  0  0  0  0  0  0  0  0999 V2000
   -7.8664   -3.2564   -1.3957 C   0  0  0  0  0  0  0  0  0  0  0  0
   -6.4706   -3.0906   -1.2501 O   0  0  0  0  0  0  0  0  0  0  0  0
   -5.9781   -1.8354   -0.9666 C   0  0  0  0  0  0  0  0  0  0  0  0
   -6.8145   -0.7694   -0.8279 C   0  0  0  0  0  0  0  0  0  0  0  0
   -6.2720    0.4566   -0.5461 C   0  0  0  0  0  0  0  0  0  0  0  0
   -7.1050    1.5447   -0.4028 O   0  0  0  0  0  0  0  0  0  0  0  0
   -6.5873    2.8381   -0.1099 C   0  0  0  0  0  0  0  0  0  0  0  0
   -4.9191    0.6274   -0.4029 C   0  0  0  0  0  0  0  0  0  0  0  0
   -4.0278   -0.4436   -0.5381 C   0  0  0  0  0  0  0  0  0  0  0  0
   -4.6007   -1.6652   -0.8216 C   0  0  0  0  0  0  0  0  0  0  0  0
   -2.6084   -0.2820   -0.3913 C   0  0  0  0  0  0  0  0  0  0  0  0
   -1.4149   -0.1493   -0.2577 C   0  0  0  0  0  0  0  0  0  0  0  0
    0.0016    0.0105   -0.0740 C   0  0  0  0  0  0  0  0  0  0  0  0
    1.0435   -0.3692   -0.8945 C   0  0  0  0  0  0  0  0  0  0  0  0
    2.2181   -0.0251   -0.3355 N   0  0  0  0  0  0  0  0  0  0  0  0
    3.5569   -0.2355   -0.8564 C   0  0  1  0  0  0  0  0  0  0  0  0
    4.2911    1.0566   -1.0799 C   0  0  0  0  0  0  0  0  0  0  0  0
    5.7427    0.7493   -0.7442 C   0  0  0  0  0  0  0  0  0  0  0  0
    5.8016   -0.5233   -0.1124 N   0  0  0  0  0  0  0  0  0  0  0  0
    4.4153   -1.0427    0.0553 C   0  0  0  0  0  0  0  0  0  0  0  0
    6.8943   -1.2623    0.3236 C   0  0  0  0  0  0  0  0  0  0  0  0
    6.6501   -2.4121    0.8721 O   0  0  0  0  0  0  0  0  0  0  0  0
    8.2672   -0.9005    0.2375 C   0  0  0  0  0  0  0  0  0  0  0  0
    8.8668    0.1493   -0.2373 C   0  0  0  0  0  0  0  0  0  0  0  0
    1.9839    0.5833    0.8542 C   0  0  0  0  0  0  0  0  0  0  0  0
    2.7650    1.1149    1.8080 N   0  0  0  0  0  0  0  0  0  0  0  0
    2.2291    1.6654    2.9127 C   0  0  0  0  0  0  0  0  0  0  0  0
    0.8953    1.7078    3.1104 N   0  0  0  0  0  0  0  0  0  0  0  0
    0.0977    1.1823    2.1699 C   0  0  0  0  0  0  0  0  0  0  0  0
   -1.3332    1.1852    2.3002 N   0  0  0  0  0  0  0  0  0  0  0  0
    0.6010    0.6052    1.0169 C   0  0  0  0  0  0  0  0  0  0  0  0
   -8.2153   -2.6909   -2.2853 H   0  0  0  0  0  0  0  0  0  0  0  0
   -8.3291   -2.9088   -0.4546 H   0  0  0  0  0  0  0  0  0  0  0  0
   -8.0375   -4.3344   -1.5925 H   0  0  0  0  0  0  0  0  0  0  0  0
   -7.8793   -0.9226   -0.9442 H   0  0  0  0  0  0  0  0  0  0  0  0
   -7.3405    3.6165   -0.2525 H   0  0  0  0  0  0  0  0  0  0  0  0
   -5.7523    3.0525   -0.8036 H   0  0  0  0  0  0  0  0  0  0  0  0
   -6.2909    2.8444    0.9563 H   0  0  0  0  0  0  0  0  0  0  0  0
   -4.4702    1.5921   -0.1793 H   0  0  0  0  0  0  0  0  0  0  0  0
   -3.9809   -2.5450   -0.9417 H   0  0  0  0  0  0  0  0  0  0  0  0
    0.9074   -0.8659   -1.8373 H   0  0  0  0  0  0  0  0  0  0  0  0
    3.4489   -0.7309   -1.8433 H   0  0  0  0  0  0  0  0  0  0  0  0
    3.9332    1.8429   -0.3881 H   0  0  0  0  0  0  0  0  0  0  0  0
    4.1722    1.4664   -2.1027 H   0  0  0  0  0  0  0  0  0  0  0  0
    6.2818    0.8137   -1.7249 H   0  0  0  0  0  0  0  0  0  0  0  0
    6.1704    1.5873   -0.1174 H   0  0  0  0  0  0  0  0  0  0  0  0
    4.4513   -2.0935   -0.3179 H   0  0  0  0  0  0  0  0  0  0  0  0
    4.1083   -0.9890    1.1090 H   0  0  0  0  0  0  0  0  0  0  0  0
    8.9884   -1.6627    0.6592 H   0  0  0  0  0  0  0  0  0  0  0  0
    9.9788    0.1830   -0.1799 H   0  0  0  0  0  0  0  0  0  0  0  0
    8.3377    0.9631   -0.6709 H   0  0  0  0  0  0  0  0  0  0  0  0
    2.8743    2.1004    3.6925 H   0  0  0  0  0  0  0  0  0  0  0  0
   -1.8146    1.9859    1.8095 H   0  0  0  0  0  0  0  0  0  0  0  0
   -1.8651    0.4815    2.8198 H   0  0  0  0  0  0  0  0  0  0  0  0
  1  2  1  0
  2  3  1  0
  3  4  2  0
  4  5  1  0
  5  6  1  0
  6  7  1  0
  5  8  2  0
  8  9  1  0
  9 10  2  0
  9 11  1  0
 11 12  3  0
 12 13  1  0
 13 14  2  0
 14 15  1  0
 15 16  1  0
 16 17  1  0
 17 18  1  0
 18 19  1  0
 19 20  1  0
 19 21  1  0
 21 22  2  0
 21 23  1  0
 23 24  2  3
 15 25  1  0
 25 26  2  0
 26 27  1  0
 27 28  2  0
 28 29  1  0
 29 30  1  0
 29 31  2  0
 10  3  1  0
 31 13  1  0
 20 16  1  0
 31 25  1  0
  1 32  1  0
  1 33  1  0
  1 34  1  0
  4 35  1  0
  7 36  1  0
  7 37  1  0
  7 38  1  0
  8 39  1  0
 10 40  1  0
 14 41  1  0
 16 42  1  6
 17 43  1  0
 17 44  1  0
 18 45  1  0
 18 46  1  0
 20 47  1  0
 20 48  1  0
 23 49  1  0
 24 50  1  0
 24 51  1  0
 27 52  1  0
 30 53  1  0
 30 54  1  0
M  END
$$$$
[H]c1nc2c([H])nc(N(c3c(F)c(OC([H])([H])[H])c([H])c(OC([H])([H])[H])c3F)C([H])([H])c3nc([H])c([H])n3S(=O)(=O)N(C([H])([H])[H])C([H])([H])[H])c([H])c2c([H])c1-c1c([H])nn(C([H])([H])[H])c1[H]
     RDKit          3D

 67 71  0  0  0  0  0  0  0  0999 V2000
   -3.9085   -4.6557   -3.5500 C   0  0  0  0  0  0  0  0  0  0  0  0
   -3.4823   -3.3451   -3.2815 O   0  0  0  0  0  0  0  0  0  0  0  0
   -2.7889   -3.0316   -2.1021 C   0  0  0  0  0  0  0  0  0  0  0  0
   -2.5296   -4.0300   -1.2054 C   0  0  0  0  0  0  0  0  0  0  0  0
   -1.8528   -3.7618   -0.0384 C   0  0  0  0  0  0  0  0  0  0  0  0
   -1.5703   -4.7484    0.8974 O   0  0  0  0  0  0  0  0  0  0  0  0
   -2.0027   -6.0660    0.6200 C   0  0  0  0  0  0  0  0  0  0  0  0
   -1.4422   -2.4439    0.1981 C   0  0  0  0  0  0  0  0  0  0  0  0
   -0.7917   -2.2153    1.3451 F   0  0  0  0  0  0  0  0  0  0  0  0
   -1.6927   -1.4407   -0.6845 C   0  0  0  0  0  0  0  0  0  0  0  0
   -1.2688   -0.0977   -0.4445 N   0  0  0  0  0  0  0  0  0  0  0  0
   -2.1464    0.8194    0.2793 C   0  0  0  0  0  0  0  0  0  0  0  0
   -1.5978    2.1730    0.4313 C   0  0  0  0  0  0  0  0  0  0  0  0
   -0.6765    2.8130   -0.2852 N   0  0  0  0  0  0  0  0  0  0  0  0
   -0.4712    4.0168    0.2164 C   0  0  0  0  0  0  0  0  0  0  0  0
   -1.2912    4.1642    1.3005 C   0  0  0  0  0  0  0  0  0  0  0  0
   -1.9939    3.0018    1.4260 N   0  0  0  0  0  0  0  0  0  0  0  0
   -3.1652    2.7874    2.6698 S   0  0  0  0  0  0  0  0  0  0  0  0
   -2.7825    1.6038    3.5329 O   0  0  0  0  0  0  0  0  0  0  0  0
   -3.1767    4.0292    3.5386 O   0  0  0  0  0  0  0  0  0  0  0  0
   -4.7479    2.5605    2.1031 N   0  0  0  0  0  0  0  0  0  0  0  0
   -5.2003    1.2255    1.9504 C   0  0  0  0  0  0  0  0  0  0  0  0
   -5.0585    3.3594    0.9345 C   0  0  0  0  0  0  0  0  0  0  0  0
    0.0102    0.2276   -0.9553 C   0  0  0  0  0  0  0  0  0  0  0  0
    1.1054    0.1811   -0.1554 C   0  0  0  0  0  0  0  0  0  0  0  0
    2.3480    0.4809   -0.7068 C   0  0  0  0  0  0  0  0  0  0  0  0
    3.4784    0.4344    0.1096 C   0  0  0  0  0  0  0  0  0  0  0  0
    4.6967    0.7278   -0.4313 C   0  0  0  0  0  0  0  0  0  0  0  0
    4.7536    1.0585   -1.7677 C   0  0  0  0  0  0  0  0  0  0  0  0
    3.6828    1.1096   -2.5700 N   0  0  0  0  0  0  0  0  0  0  0  0
    2.4635    0.8187   -2.0403 C   0  0  0  0  0  0  0  0  0  0  0  0
    1.3263    0.8541   -2.8160 C   0  0  0  0  0  0  0  0  0  0  0  0
    0.1515    0.5599   -2.2498 N   0  0  0  0  0  0  0  0  0  0  0  0
    5.8748    0.6793    0.4146 C   0  0  0  0  0  0  0  0  0  0  0  0
    6.0825   -0.1570    1.4854 C   0  0  0  0  0  0  0  0  0  0  0  0
    7.3200    0.1680    1.9545 N   0  0  0  0  0  0  0  0  0  0  0  0
    7.8409    1.1317    1.2311 N   0  0  0  0  0  0  0  0  0  0  0  0
    9.1412    1.7573    1.4074 C   0  0  0  0  0  0  0  0  0  0  0  0
    6.9808    1.4776    0.2683 C   0  0  0  0  0  0  0  0  0  0  0  0
   -2.3710   -1.7432   -1.8403 C   0  0  0  0  0  0  0  0  0  0  0  0
   -2.6437   -0.7774   -2.7483 F   0  0  0  0  0  0  0  0  0  0  0  0
   -4.4988   -4.6443   -4.4820 H   0  0  0  0  0  0  0  0  0  0  0  0
   -3.0488   -5.3559   -3.7060 H   0  0  0  0  0  0  0  0  0  0  0  0
   -4.5324   -5.0786   -2.7363 H   0  0  0  0  0  0  0  0  0  0  0  0
   -2.8551   -5.0687   -1.3959 H   0  0  0  0  0  0  0  0  0  0  0  0
   -3.0662   -6.1131    0.3401 H   0  0  0  0  0  0  0  0  0  0  0  0
   -1.7698   -6.6697    1.5224 H   0  0  0  0  0  0  0  0  0  0  0  0
   -1.3816   -6.4948   -0.1970 H   0  0  0  0  0  0  0  0  0  0  0  0
   -2.3401    0.3158    1.2465 H   0  0  0  0  0  0  0  0  0  0  0  0
   -3.1118    0.8334   -0.2804 H   0  0  0  0  0  0  0  0  0  0  0  0
    0.2470    4.7322   -0.2068 H   0  0  0  0  0  0  0  0  0  0  0  0
   -1.3347    5.0598    1.9113 H   0  0  0  0  0  0  0  0  0  0  0  0
   -6.2735    1.1864    2.2963 H   0  0  0  0  0  0  0  0  0  0  0  0
   -4.6529    0.5117    2.5926 H   0  0  0  0  0  0  0  0  0  0  0  0
   -5.2385    0.8734    0.8910 H   0  0  0  0  0  0  0  0  0  0  0  0
   -6.1387    3.2223    0.7230 H   0  0  0  0  0  0  0  0  0  0  0  0
   -4.9012    4.4210    1.2153 H   0  0  0  0  0  0  0  0  0  0  0  0
   -4.4183    3.0591    0.0734 H   0  0  0  0  0  0  0  0  0  0  0  0
    1.0944   -0.0696    0.8940 H   0  0  0  0  0  0  0  0  0  0  0  0
    3.3580    0.1654    1.1562 H   0  0  0  0  0  0  0  0  0  0  0  0
    5.7535    1.2858   -2.1546 H   0  0  0  0  0  0  0  0  0  0  0  0
    1.4238    1.1181   -3.8524 H   0  0  0  0  0  0  0  0  0  0  0  0
    5.4252   -0.9193    1.8930 H   0  0  0  0  0  0  0  0  0  0  0  0
    9.8818    0.9672    1.7124 H   0  0  0  0  0  0  0  0  0  0  0  0
    9.1249    2.5502    2.1654 H   0  0  0  0  0  0  0  0  0  0  0  0
    9.5215    2.1512    0.4336 H   0  0  0  0  0  0  0  0  0  0  0  0
    7.1294    2.2542   -0.4967 H   0  0  0  0  0  0  0  0  0  0  0  0
  1  2  1  0
  2  3  1  0
  3  4  2  0
  4  5  1  0
  5  6  1  0
  6  7  1  0
  5  8  2  0
  8  9  1  0
  8 10  1  0
 10 11  1  0
 11 12  1  0
 12 13  1  0
 13 14  2  0
 14 15  1  0
 15 16  2  0
 16 17  1  0
 17 18  1  0
 18 19  2  0
 18 20  2  0
 18 21  1  0
 21 22  1  0
 21 23  1  0
 11 24  1  0
 24 25  2  0
 25 26  1  0
 26 27  2  0
 27 28  1  0
 28 29  2  0
 29 30  1  0
 30 31  2  0
 31 32  1  0
 32 33  2  0
 28 34  1  0
 34 35  1  0
 35 36  2  0
 36 37  1  0
 37 38  1  0
 37 39  1  0
 10 40  2  0
 40 41  1  0
 40  3  1  0
 17 13  1  0
 33 24  1  0
 39 34  2  0
 31 26  1  0
  1 42  1  0
  1 43  1  0
  1 44  1  0
  4 45  1  0
  7 46  1  0
  7 47  1  0
  7 48  1  0
 12 49  1  0
 12 50  1  0
 15 51  1  0
 16 52  1  0
 22 53  1  0
 22 54  1  0
 22 55  1  0
 23 56  1  0
 23 57  1  0
 23 58  1  0
 25 59  1  0
 27 60  1  0
 29 61  1  0
 32 62  1  0
 35 63  1  0
 38 64  1  0
 38 65  1  0
 38 66  1  0
 39 67  1  0
M  END
$$$$
[H]c1nc(N([H])[H])c(-c2nn(-c3c([H])c(OC([H])([H])[H])c([H])c(OC([H])([H])[H])c3[H])c(=O)c([H])c2[H])nc1-c1c([H])nn(C2([H])C([H])([H])C([H])([H])N(C([H])([H])C([H])(F)F)C([H])([H])C2([H])[H])c1[H]
     RDKit          3D

 67 71  0  0  0  0  0  0  0  0999 V2000
    7.6569   -2.0417   -2.6315 C   0  0  0  0  0  0  0  0  0  0  0  0
    8.3669   -1.0512   -1.9513 O   0  0  0  0  0  0  0  0  0  0  0  0
    7.9170   -0.3036   -0.8884 C   0  0  0  0  0  0  0  0  0  0  0  0
    8.7803    0.6295   -0.3557 C   0  0  0  0  0  0  0  0  0  0  0  0
    8.3784    1.4089    0.7152 C   0  0  0  0  0  0  0  0  0  0  0  0
    9.2512    2.3493    1.2507 O   0  0  0  0  0  0  0  0  0  0  0  0
    8.8455    3.1470    2.3425 C   0  0  0  0  0  0  0  0  0  0  0  0
    7.1049    1.2246    1.2244 C   0  0  0  0  0  0  0  0  0  0  0  0
    6.2114    0.3056    0.7238 C   0  0  0  0  0  0  0  0  0  0  0  0
    6.6504   -0.4648   -0.3578 C   0  0  0  0  0  0  0  0  0  0  0  0
    4.9000    0.0912    1.2251 N   0  0  0  0  0  0  0  0  0  0  0  0
    3.8353    0.0697    0.4333 N   0  0  0  0  0  0  0  0  0  0  0  0
    2.6069   -0.1324    0.8714 C   0  0  0  0  0  0  0  0  0  0  0  0
    2.4161   -0.3318    2.2195 C   0  0  0  0  0  0  0  0  0  0  0  0
    3.5175   -0.3157    3.0847 C   0  0  0  0  0  0  0  0  0  0  0  0
    4.7614   -0.0985    2.5479 C   0  0  0  0  0  0  0  0  0  0  0  0
    5.7781   -0.0805    3.3258 O   0  0  0  0  0  0  0  0  0  0  0  0
    1.4625   -0.1520   -0.0235 C   0  0  0  0  0  0  0  0  0  0  0  0
    0.2047   -0.3619    0.4308 N   0  0  0  0  0  0  0  0  0  0  0  0
   -0.8568   -0.3854   -0.3822 C   0  0  0  0  0  0  0  0  0  0  0  0
   -0.6318   -0.1847   -1.7274 C   0  0  0  0  0  0  0  0  0  0  0  0
    0.6135    0.0282   -2.2163 N   0  0  0  0  0  0  0  0  0  0  0  0
    1.6622    0.0483   -1.3920 C   0  0  0  0  0  0  0  0  0  0  0  0
    2.9976    0.2660   -1.8312 N   0  0  0  0  0  0  0  0  0  0  0  0
   -2.2192   -0.6181    0.0980 C   0  0  0  0  0  0  0  0  0  0  0  0
   -2.6341   -0.8261    1.4017 C   0  0  0  0  0  0  0  0  0  0  0  0
   -3.9724   -1.0067    1.3826 N   0  0  0  0  0  0  0  0  0  0  0  0
   -4.4441   -0.9278    0.1470 N   0  0  0  0  0  0  0  0  0  0  0  0
   -3.3805   -0.6905   -0.6433 C   0  0  0  0  0  0  0  0  0  0  0  0
   -5.8286   -1.0767   -0.2537 C   0  0  0  0  0  0  0  0  0  0  0  0
   -6.1798   -0.1960   -1.4193 C   0  0  0  0  0  0  0  0  0  0  0  0
   -7.5823   -0.5434   -1.8516 C   0  0  0  0  0  0  0  0  0  0  0  0
   -8.5447   -0.4054   -0.7711 N   0  0  0  0  0  0  0  0  0  0  0  0
   -8.7383    0.9784   -0.5432 C   0  0  0  0  0  0  0  0  0  0  0  0
   -9.7591    1.3723    0.4613 C   0  0  0  0  0  0  0  0  0  0  0  0
   -9.4976    0.8992    1.7130 F   0  0  0  0  0  0  0  0  0  0  0  0
   -9.8586    2.7664    0.5187 F   0  0  0  0  0  0  0  0  0  0  0  0
   -8.1580   -1.2129    0.3359 C   0  0  0  0  0  0  0  0  0  0  0  0
   -6.7789   -0.8452    0.9037 C   0  0  0  0  0  0  0  0  0  0  0  0
    7.8829   -3.0764   -2.2926 H   0  0  0  0  0  0  0  0  0  0  0  0
    6.5647   -1.9115   -2.5730 H   0  0  0  0  0  0  0  0  0  0  0  0
    7.9800   -1.9984   -3.7102 H   0  0  0  0  0  0  0  0  0  0  0  0
    9.7818    0.7980   -0.7305 H   0  0  0  0  0  0  0  0  0  0  0  0
    8.0863    3.9026    2.0405 H   0  0  0  0  0  0  0  0  0  0  0  0
    8.3800    2.5052    3.1274 H   0  0  0  0  0  0  0  0  0  0  0  0
    9.7078    3.7135    2.7690 H   0  0  0  0  0  0  0  0  0  0  0  0
    6.7815    1.8267    2.0592 H   0  0  0  0  0  0  0  0  0  0  0  0
    5.9636   -1.1925   -0.7680 H   0  0  0  0  0  0  0  0  0  0  0  0
    1.4580   -0.5055    2.6826 H   0  0  0  0  0  0  0  0  0  0  0  0
    3.4049   -0.4695    4.1457 H   0  0  0  0  0  0  0  0  0  0  0  0
   -1.4936   -0.2019   -2.3939 H   0  0  0  0  0  0  0  0  0  0  0  0
    3.3147    1.2752   -1.8261 H   0  0  0  0  0  0  0  0  0  0  0  0
    3.6362   -0.4785   -2.1369 H   0  0  0  0  0  0  0  0  0  0  0  0
   -1.9657   -0.8358    2.2638 H   0  0  0  0  0  0  0  0  0  0  0  0
   -3.4069   -0.5682   -1.7183 H   0  0  0  0  0  0  0  0  0  0  0  0
   -6.0359   -2.1334   -0.5965 H   0  0  0  0  0  0  0  0  0  0  0  0
   -5.4786   -0.4855   -2.2425 H   0  0  0  0  0  0  0  0  0  0  0  0
   -6.1022    0.8757   -1.1981 H   0  0  0  0  0  0  0  0  0  0  0  0
   -7.6567   -1.5291   -2.3203 H   0  0  0  0  0  0  0  0  0  0  0  0
   -7.8756    0.2083   -2.6372 H   0  0  0  0  0  0  0  0  0  0  0  0
   -7.7975    1.5305   -0.3008 H   0  0  0  0  0  0  0  0  0  0  0  0
   -9.0417    1.4206   -1.5447 H   0  0  0  0  0  0  0  0  0  0  0  0
  -10.7684    1.0127    0.1425 H   0  0  0  0  0  0  0  0  0  0  0  0
   -7.9687   -2.2508   -0.1092 H   0  0  0  0  0  0  0  0  0  0  0  0
   -8.9175   -1.3601    1.0939 H   0  0  0  0  0  0  0  0  0  0  0  0
   -6.5592   -1.5705    1.6887 H   0  0  0  0  0  0  0  0  0  0  0  0
   -6.7280    0.1670    1.2993 H   0  0  0  0  0  0  0  0  0  0  0  0
  1  2  1  0
  2  3  1  0
  3  4  2  0
  4  5  1  0
  5  6  1  0
  6  7  1  0
  5  8  2  0
  8  9  1  0
  9 10  2  0
  9 11  1  0
 11 12  1  0
 12 13  2  0
 13 14  1  0
 14 15  2  0
 15 16  1  0
 16 17  2  0
 13 18  1  0
 18 19  2  0
 19 20  1  0
 20 21  2  0
 21 22  1  0
 22 23  2  0
 23 24  1  0
 20 25  1  0
 25 26  1  0
 26 27  2  0
 27 28  1  0
 28 29  1  0
 28 30  1  0
 30 31  1  0
 31 32  1  0
 32 33  1  0
 33 34  1  0
 34 35  1  0
 35 36  1  0
 35 37  1  0
 33 38  1  0
 38 39  1  0
 10  3  1  0
 16 11  1  0
 23 18  1  0
 29 25  2  0
 39 30  1  0
  1 40  1  0
  1 41  1  0
  1 42  1  0
  4 43  1  0
  7 44  1  0
  7 45  1  0
  7 46  1  0
  8 47  1  0
 10 48  1  0
 14 49  1  0
 15 50  1  0
 21 51  1  0
 24 52  1  0
 24 53  1  0
 26 54  1  0
 29 55  1  0
 30 56  1  0
 31 57  1  0
 31 58  1  0
 32 59  1  0
 32 60  1  0
 34 61  1  0
 34 62  1  0
 35 63  1  0
 38 64  1  0
 38 65  1  0
 39 66  1  0
 39 67  1  0
M  END
$$$$
