[H]OC1([H])C([H])([H])C2=C(C([H])([H])C([H])(c3c([H])c([H])c(C(F)(F)F)c([H])c3[H])N([H])C2=O)S(=O)(=O)C([H])([H])C1([H])[H]
     RDKit          3D

 41 43  0  0  0  0  0  0  0  0999 V2000
   -4.5040   -0.2230   -1.3988 O   0  0  0  0  0  0  0  0  0  0  0  0
   -4.4602   -0.0932   -0.0302 C   0  0  0  0  0  0  0  0  0  0  0  0
   -3.4876   -0.9979    0.6570 C   0  0  0  0  0  0  0  0  0  0  0  0
   -2.0763   -0.7606    0.3677 C   0  0  0  0  0  0  0  0  0  0  0  0
   -1.3160    0.2732    0.0794 C   0  0  0  0  0  0  0  0  0  0  0  0
    0.1079    0.2538   -0.1729 C   0  0  0  0  0  0  0  0  0  0  0  0
    0.6940   -1.1017   -0.5211 C   0  0  0  0  0  0  0  0  0  0  0  0
    0.1057   -2.0832    0.3070 N   0  0  0  0  0  0  0  0  0  0  0  0
   -1.3319   -2.0375    0.5040 C   0  0  0  0  0  0  0  0  0  0  0  0
   -1.9164   -3.0980    0.7884 O   0  0  0  0  0  0  0  0  0  0  0  0
    2.1679   -0.8843   -0.4182 C   0  0  0  0  0  0  0  0  0  0  0  0
    2.9902   -0.8136   -1.5186 C   0  0  0  0  0  0  0  0  0  0  0  0
    4.2941   -0.4217   -1.4316 C   0  0  0  0  0  0  0  0  0  0  0  0
    4.8432   -0.0732   -0.1988 C   0  0  0  0  0  0  0  0  0  0  0  0
    4.0358   -0.1381    0.9221 C   0  0  0  0  0  0  0  0  0  0  0  0
    2.7205   -0.5382    0.8129 C   0  0  0  0  0  0  0  0  0  0  0  0
    6.2602    0.4033   -0.1210 C   0  0  0  0  0  0  0  0  0  0  0  0
    7.1277   -0.3053   -0.9013 F   0  0  0  0  0  0  0  0  0  0  0  0
    6.6403    0.3856    1.2131 F   0  0  0  0  0  0  0  0  0  0  0  0
    6.2131    1.7497   -0.5002 F   0  0  0  0  0  0  0  0  0  0  0  0
   -1.8372    1.9561   -0.0002 S   0  0  0  0  0  0  0  0  0  0  0  0
   -0.8699    2.6441   -0.9512 O   0  0  0  0  0  0  0  0  0  0  0  0
   -1.6200    2.5377    1.3692 O   0  0  0  0  0  0  0  0  0  0  0  0
   -3.4858    2.1463   -0.5397 C   0  0  0  0  0  0  0  0  0  0  0  0
   -4.3598    1.3371    0.4178 C   0  0  0  0  0  0  0  0  0  0  0  0
   -3.6269   -0.2750   -1.8338 H   0  0  0  0  0  0  0  0  0  0  0  0
   -5.4606   -0.4197    0.3276 H   0  0  0  0  0  0  0  0  0  0  0  0
   -3.7503   -2.0192    0.2722 H   0  0  0  0  0  0  0  0  0  0  0  0
   -3.7792   -1.0244    1.7150 H   0  0  0  0  0  0  0  0  0  0  0  0
    0.6342    0.5567    0.7745 H   0  0  0  0  0  0  0  0  0  0  0  0
    0.3963    0.9832   -0.9605 H   0  0  0  0  0  0  0  0  0  0  0  0
    0.4306   -1.3107   -1.5803 H   0  0  0  0  0  0  0  0  0  0  0  0
    0.6432   -2.8527    0.7864 H   0  0  0  0  0  0  0  0  0  0  0  0
    2.5790   -1.0919   -2.4648 H   0  0  0  0  0  0  0  0  0  0  0  0
    4.9658   -0.3726   -2.2829 H   0  0  0  0  0  0  0  0  0  0  0  0
    4.4734    0.1391    1.8661 H   0  0  0  0  0  0  0  0  0  0  0  0
    2.0708   -0.5979    1.6964 H   0  0  0  0  0  0  0  0  0  0  0  0
   -3.7614    3.2220   -0.4333 H   0  0  0  0  0  0  0  0  0  0  0  0
   -3.5966    1.7582   -1.5787 H   0  0  0  0  0  0  0  0  0  0  0  0
   -5.3121    1.8558    0.5027 H   0  0  0  0  0  0  0  0  0  0  0  0
   -3.8418    1.3318    1.4402 H   0  0  0  0  0  0  0  0  0  0  0  0
  1  2  1  0
  2  3  1  0
  3  4  1  0
  4  5  2  0
  5  6  1  0
  6  7  1  0
  7  8  1  0
  8  9  1  0
  9 10  2  0
  7 11  1  0
 11 12  2  0
 12 13  1  0
 13 14  2  0
 14 15  1  0
 15 16  2  0
 14 17  1  0
 17 18  1  0
 17 19  1  0
 17 20  1  0
  5 21  1  0
 21 22  2  0
 21 23  2  0
 21 24  1  0
 24 25  1  0
 25  2  1  0
  9  4  1  0
 16 11  1  0
  1 26  1  0
  2 27  1  0
  3 28  1  0
  3 29  1  0
  6 30  1  0
  6 31  1  0
  7 32  1  0
  8 33  1  0
 12 34  1  0
 13 35  1  0
 15 36  1  0
 16 37  1  0
 24 38  1  0
 24 39  1  0
 25 40  1  0
 25 41  1  0
M  END
$$$$
[H]c1nc(C(=O)OC2([H])C([H])([H])C3([H])N([H])C([H])(C([H])([H])OC3([H])[H])C2([H])[H])c([H])n1[H]
     RDKit          3D

 32 34  0  0  0  0  0  0  0  0999 V2000
    1.8844   -0.5217    1.6956 O   0  0  0  0  0  0  0  0  0  0  0  0
    2.1405   -0.2453    0.4957 C   0  0  0  0  0  0  0  0  0  0  0  0
    1.0548    0.0640   -0.3152 O   0  0  0  0  0  0  0  0  0  0  0  0
   -0.2500    0.0627    0.1952 C   0  0  0  0  0  0  0  0  0  0  0  0
   -0.8759    1.4588    0.1746 C   0  0  0  0  0  0  0  0  0  0  0  0
   -2.3148    1.2850    0.6215 C   0  0  0  0  0  0  0  0  0  0  0  0
   -3.2172    1.3142   -0.5786 C   0  0  0  0  0  0  0  0  0  0  0  0
   -4.1671    0.3192   -0.5911 O   0  0  0  0  0  0  0  0  0  0  0  0
   -3.6721   -0.9544   -0.4902 C   0  0  0  0  0  0  0  0  0  0  0  0
   -2.4264   -1.0317    0.4005 C   0  0  0  0  0  0  0  0  0  0  0  0
   -1.1669   -0.9143   -0.4653 C   0  0  0  0  0  0  0  0  0  0  0  0
   -2.5313    0.0616    1.3273 N   0  0  0  0  0  0  0  0  0  0  0  0
    3.5010   -0.2474   -0.0232 C   0  0  0  0  0  0  0  0  0  0  0  0
    4.6146   -0.5458    0.7335 C   0  0  0  0  0  0  0  0  0  0  0  0
    5.7154   -0.4615   -0.0291 N   0  0  0  0  0  0  0  0  0  0  0  0
    5.2878   -0.1117   -1.2561 C   0  0  0  0  0  0  0  0  0  0  0  0
    3.9346    0.0195   -1.2543 N   0  0  0  0  0  0  0  0  0  0  0  0
   -0.2144   -0.2155    1.2893 H   0  0  0  0  0  0  0  0  0  0  0  0
   -0.8769    1.8958   -0.8247 H   0  0  0  0  0  0  0  0  0  0  0  0
   -0.2862    2.0587    0.8991 H   0  0  0  0  0  0  0  0  0  0  0  0
   -2.5218    2.1285    1.3376 H   0  0  0  0  0  0  0  0  0  0  0  0
   -3.7778    2.2905   -0.5280 H   0  0  0  0  0  0  0  0  0  0  0  0
   -2.6151    1.3793   -1.5070 H   0  0  0  0  0  0  0  0  0  0  0  0
   -3.5220   -1.4775   -1.4439 H   0  0  0  0  0  0  0  0  0  0  0  0
   -4.4467   -1.5608    0.0656 H   0  0  0  0  0  0  0  0  0  0  0  0
   -2.4204   -1.9705    0.9795 H   0  0  0  0  0  0  0  0  0  0  0  0
   -1.3987   -0.6899   -1.5083 H   0  0  0  0  0  0  0  0  0  0  0  0
   -0.6601   -1.9165   -0.4345 H   0  0  0  0  0  0  0  0  0  0  0  0
   -2.0300   -0.0516    2.2049 H   0  0  0  0  0  0  0  0  0  0  0  0
    4.6144   -0.8104    1.7871 H   0  0  0  0  0  0  0  0  0  0  0  0
    6.6702   -0.6408    0.3150 H   0  0  0  0  0  0  0  0  0  0  0  0
    5.9739    0.0295   -2.0842 H   0  0  0  0  0  0  0  0  0  0  0  0
  1  2  2  0
  2  3  1  0
  3  4  1  0
  4  5  1  0
  5  6  1  0
  6  7  1  0
  7  8  1  0
  8  9  1  0
  9 10  1  0
 10 11  1  0
 10 12  1  0
  2 13  1  0
 13 14  2  0
 14 15  1  0
 15 16  1  0
 16 17  2  0
 11  4  1  0
 17 13  1  0
 12  6  1  0
  4 18  1  0
  5 19  1  0
  5 20  1  0
  6 21  1  0
  7 22  1  0
  7 23  1  0
  9 24  1  0
  9 25  1  0
 10 26  1  0
 11 27  1  0
 11 28  1  0
 12 29  1  0
 14 30  1  0
 15 31  1  0
 16 32  1  0
M  END
$$$$
[H]OC([H])([H])[C@@]1([H])OC(N([H])c2c([H])nc(-c3c([H])c([H])nn3[H])c(C#N)c2[H])=NC([H])([H])OC1([H])[H]
     RDKit          3D

 37 39  0  0  0  0  0  0  0  0999 V2000
   -3.5670    1.1790    2.0548 C   0  0  0  0  0  0  0  0  0  0  0  0
   -2.4225    1.6204    1.3330 N   0  0  0  0  0  0  0  0  0  0  0  0
   -1.9710    1.3123    0.1625 C   0  0  0  0  0  0  0  0  0  0  0  0
   -0.7938    1.9178   -0.3019 N   0  0  0  0  0  0  0  0  0  0  0  0
    0.4946    1.3070   -0.2338 C   0  0  0  0  0  0  0  0  0  0  0  0
    0.6536    0.0460    0.3105 C   0  0  0  0  0  0  0  0  0  0  0  0
    1.8399   -0.5337    0.3810 N   0  0  0  0  0  0  0  0  0  0  0  0
    2.9981    0.0447   -0.0675 C   0  0  0  0  0  0  0  0  0  0  0  0
    4.2186   -0.7278    0.0848 C   0  0  0  0  0  0  0  0  0  0  0  0
    5.5266   -0.5075   -0.2264 C   0  0  0  0  0  0  0  0  0  0  0  0
    6.3126   -1.6166    0.1482 C   0  0  0  0  0  0  0  0  0  0  0  0
    5.4485   -2.4613    0.6700 N   0  0  0  0  0  0  0  0  0  0  0  0
    4.2288   -1.9878    0.6531 N   0  0  0  0  0  0  0  0  0  0  0  0
    2.8541    1.2758   -0.6007 C   0  0  0  0  0  0  0  0  0  0  0  0
    1.6216    1.9254   -0.6953 C   0  0  0  0  0  0  0  0  0  0  0  0
    3.9703    1.9959   -1.1063 C   0  0  0  0  0  0  0  0  0  0  0  0
    4.8472    2.6041   -1.5227 N   0  0  0  0  0  0  0  0  0  0  0  0
   -2.6103    0.3857   -0.6834 O   0  0  0  0  0  0  0  0  0  0  0  0
   -3.1804   -0.8742   -0.3822 C   0  0  2  0  0  0  0  0  0  0  0  0
   -4.4778   -1.0822   -1.1398 C   0  0  0  0  0  0  0  0  0  0  0  0
   -4.1659   -1.0101   -2.5163 O   0  0  0  0  0  0  0  0  0  0  0  0
   -3.4587   -0.9307    1.1118 C   0  0  0  0  0  0  0  0  0  0  0  0
   -4.2377    0.1086    1.5417 O   0  0  0  0  0  0  0  0  0  0  0  0
   -4.3226    2.0058    2.1983 H   0  0  0  0  0  0  0  0  0  0  0  0
   -3.2260    0.9504    3.1070 H   0  0  0  0  0  0  0  0  0  0  0  0
   -0.8477    2.8674   -0.7229 H   0  0  0  0  0  0  0  0  0  0  0  0
   -0.2164   -0.4611    0.6801 H   0  0  0  0  0  0  0  0  0  0  0  0
    5.9433    0.3640   -0.6880 H   0  0  0  0  0  0  0  0  0  0  0  0
    7.3790   -1.6501   -0.0091 H   0  0  0  0  0  0  0  0  0  0  0  0
    3.3607   -2.4734    1.0131 H   0  0  0  0  0  0  0  0  0  0  0  0
    1.5491    2.9235   -1.1347 H   0  0  0  0  0  0  0  0  0  0  0  0
   -2.4676   -1.6620   -0.6462 H   0  0  0  0  0  0  0  0  0  0  0  0
   -5.1865   -0.2816   -0.9305 H   0  0  0  0  0  0  0  0  0  0  0  0
   -4.8651   -2.1048   -0.9834 H   0  0  0  0  0  0  0  0  0  0  0  0
   -4.7594   -1.6060   -3.0371 H   0  0  0  0  0  0  0  0  0  0  0  0
   -2.4562   -0.9809    1.6270 H   0  0  0  0  0  0  0  0  0  0  0  0
   -4.0138   -1.8819    1.2809 H   0  0  0  0  0  0  0  0  0  0  0  0
  1  2  1  0
  2  3  2  0
  3  4  1  0
  4  5  1  0
  5  6  2  0
  6  7  1  0
  7  8  2  0
  8  9  1  0
  9 10  2  0
 10 11  1  0
 11 12  2  0
 12 13  1  0
  8 14  1  0
 14 15  2  0
 14 16  1  0
 16 17  3  0
  3 18  1  0
 18 19  1  0
 19 20  1  0
 20 21  1  0
 19 22  1  0
 22 23  1  0
 23  1  1  0
 15  5  1  0
 13  9  1  0
  1 24  1  0
  1 25  1  0
  4 26  1  0
  6 27  1  0
 10 28  1  0
 11 29  1  0
 13 30  1  0
 15 31  1  0
 19 32  1  6
 20 33  1  0
 20 34  1  0
 21 35  1  0
 22 36  1  0
 22 37  1  0
M  END
$$$$
[H]c1nc(C(=O)N([H])S(=O)(=O)C([H])([H])[H])c([H])nc1Oc1c([H])c([H])c(N([H])C(=O)[C@@]2([H])N(C(=O)N([H])c3c([H])c([H])c(Cl)c([H])c3[H])C([H])([H])C([H])([H])C2([H])[H])c([H])c1[H]
     RDKit          3D

 61 64  0  0  0  0  0  0  0  0999 V2000
   12.0973    0.3096    0.8380 C   0  0  0  0  0  0  0  0  0  0  0  0
   10.9965   -0.6181   -0.1999 S   0  0  0  0  0  0  0  0  0  0  0  0
   11.5587   -0.8432   -1.5735 O   0  0  0  0  0  0  0  0  0  0  0  0
   10.7698   -1.9720    0.4453 O   0  0  0  0  0  0  0  0  0  0  0  0
    9.4914    0.2194   -0.2985 N   0  0  0  0  0  0  0  0  0  0  0  0
    8.2866   -0.4486    0.0001 C   0  0  0  0  0  0  0  0  0  0  0  0
    8.2857   -1.6845    0.3457 O   0  0  0  0  0  0  0  0  0  0  0  0
    7.0045    0.2443   -0.0741 C   0  0  0  0  0  0  0  0  0  0  0  0
    6.8899    1.5692   -0.4045 C   0  0  0  0  0  0  0  0  0  0  0  0
    5.6708    2.1585   -0.4569 N   0  0  0  0  0  0  0  0  0  0  0  0
    4.5452    1.4905   -0.1945 C   0  0  0  0  0  0  0  0  0  0  0  0
    3.3204    2.1092   -0.2509 O   0  0  0  0  0  0  0  0  0  0  0  0
    2.1240    1.4829   -0.0001 C   0  0  0  0  0  0  0  0  0  0  0  0
    1.6335    1.3690    1.2770 C   0  0  0  0  0  0  0  0  0  0  0  0
    0.4405    0.7446    1.5242 C   0  0  0  0  0  0  0  0  0  0  0  0
   -0.3452    0.1899    0.5021 C   0  0  0  0  0  0  0  0  0  0  0  0
   -1.5580   -0.4629    0.8238 N   0  0  0  0  0  0  0  0  0  0  0  0
   -2.5903   -0.7418   -0.0737 C   0  0  0  0  0  0  0  0  0  0  0  0
   -2.5645   -0.4405   -1.2603 O   0  0  0  0  0  0  0  0  0  0  0  0
   -3.8109   -1.4497    0.4192 C   0  0  2  0  0  0  0  0  0  0  0  0
   -3.4686   -2.9288    0.6820 C   0  0  0  0  0  0  0  0  0  0  0  0
   -3.3572   -3.4394   -0.7414 C   0  0  0  0  0  0  0  0  0  0  0  0
   -4.4204   -2.6263   -1.4888 C   0  0  0  0  0  0  0  0  0  0  0  0
   -4.8242   -1.5934   -0.5805 N   0  0  0  0  0  0  0  0  0  0  0  0
   -6.0325   -0.8269   -0.6505 C   0  0  0  0  0  0  0  0  0  0  0  0
   -6.8316   -1.0696   -1.5837 O   0  0  0  0  0  0  0  0  0  0  0  0
   -6.3227    0.1725    0.2967 N   0  0  0  0  0  0  0  0  0  0  0  0
   -7.4677    0.9794    0.3133 C   0  0  0  0  0  0  0  0  0  0  0  0
   -8.2491    1.1973   -0.7821 C   0  0  0  0  0  0  0  0  0  0  0  0
   -9.3988    1.9975   -0.6855 C   0  0  0  0  0  0  0  0  0  0  0  0
   -9.7638    2.5758    0.4985 C   0  0  0  0  0  0  0  0  0  0  0  0
  -11.2182    3.5770    0.5947 Cl  0  0  0  0  0  0  0  0  0  0  0  0
   -8.9855    2.3718    1.6293 C   0  0  0  0  0  0  0  0  0  0  0  0
   -7.8841    1.5926    1.4933 C   0  0  0  0  0  0  0  0  0  0  0  0
    0.1650    0.3161   -0.7598 C   0  0  0  0  0  0  0  0  0  0  0  0
    1.3892    0.9561   -1.0192 C   0  0  0  0  0  0  0  0  0  0  0  0
    4.6583    0.1633    0.1360 C   0  0  0  0  0  0  0  0  0  0  0  0
    5.8557   -0.4491    0.1962 N   0  0  0  0  0  0  0  0  0  0  0  0
   12.7335   -0.4103    1.4158 H   0  0  0  0  0  0  0  0  0  0  0  0
   12.7664    0.9170    0.2003 H   0  0  0  0  0  0  0  0  0  0  0  0
   11.5576    0.9966    1.5266 H   0  0  0  0  0  0  0  0  0  0  0  0
    9.4867    1.2073   -0.5777 H   0  0  0  0  0  0  0  0  0  0  0  0
    7.7402    2.1705   -0.6275 H   0  0  0  0  0  0  0  0  0  0  0  0
    2.2077    1.7871    2.1136 H   0  0  0  0  0  0  0  0  0  0  0  0
    0.0474    0.6506    2.5373 H   0  0  0  0  0  0  0  0  0  0  0  0
   -1.6783   -0.7638    1.8424 H   0  0  0  0  0  0  0  0  0  0  0  0
   -4.1543   -1.0662    1.3922 H   0  0  0  0  0  0  0  0  0  0  0  0
   -2.4444   -3.0035    1.1534 H   0  0  0  0  0  0  0  0  0  0  0  0
   -4.2361   -3.4292    1.2696 H   0  0  0  0  0  0  0  0  0  0  0  0
   -2.3589   -3.2832   -1.1631 H   0  0  0  0  0  0  0  0  0  0  0  0
   -3.6979   -4.5033   -0.7753 H   0  0  0  0  0  0  0  0  0  0  0  0
   -3.9175   -2.2293   -2.3989 H   0  0  0  0  0  0  0  0  0  0  0  0
   -5.2746   -3.2587   -1.8121 H   0  0  0  0  0  0  0  0  0  0  0  0
   -5.5779    0.3232    1.0831 H   0  0  0  0  0  0  0  0  0  0  0  0
   -8.0374    0.8017   -1.7681 H   0  0  0  0  0  0  0  0  0  0  0  0
   -9.9981    2.1497   -1.5796 H   0  0  0  0  0  0  0  0  0  0  0  0
   -9.2279    2.8035    2.5813 H   0  0  0  0  0  0  0  0  0  0  0  0
   -7.2403    1.4078    2.3648 H   0  0  0  0  0  0  0  0  0  0  0  0
   -0.3267   -0.0702   -1.6128 H   0  0  0  0  0  0  0  0  0  0  0  0
    1.7769    1.0458   -2.0299 H   0  0  0  0  0  0  0  0  0  0  0  0
    3.7640   -0.4348    0.3602 H   0  0  0  0  0  0  0  0  0  0  0  0
  1  2  1  0
  2  3  2  0
  2  4  2  0
  2  5  1  0
  5  6  1  0
  6  7  2  0
  6  8  1  0
  8  9  2  0
  9 10  1  0
 10 11  2  0
 11 12  1  0
 12 13  1  0
 13 14  2  0
 14 15  1  0
 15 16  2  0
 16 17  1  0
 17 18  1  0
 18 19  2  0
 18 20  1  0
 20 21  1  0
 21 22  1  0
 22 23  1  0
 23 24  1  0
 24 25  1  0
 25 26  2  0
 25 27  1  0
 27 28  1  0
 28 29  2  0
 29 30  1  0
 30 31  2  0
 31 32  1  0
 31 33  1  0
 33 34  2  0
 16 35  1  0
 35 36  2  0
 11 37  1  0
 37 38  2  0
 38  8  1  0
 36 13  1  0
 24 20  1  0
 34 28  1  0
  1 39  1  0
  1 40  1  0
  1 41  1  0
  5 42  1  0
  9 43  1  0
 14 44  1  0
 15 45  1  0
 17 46  1  0
 20 47  1  1
 21 48  1  0
 21 49  1  0
 22 50  1  0
 22 51  1  0
 23 52  1  0
 23 53  1  0
 27 54  1  0
 29 55  1  0
 30 56  1  0
 33 57  1  0
 34 58  1  0
 35 59  1  0
 36 60  1  0
 37 61  1  0
M  END
$$$$
[H]OC(=O)c1c([H])c([H])c(C([H])([H])n2c(C(=O)N([H])C([H])([H])C([H])([H])N(C([H])([H])C([H])([H])[H])C([H])([H])C([H])([H])[H])c([H])c3c([H])c4c([H])c([H])c([H])c([H])c4c([H])c32)c([H])c1[H]
     RDKit          3D

 62 65  0  0  0  0  0  0  0  0999 V2000
    5.6636   -1.5882   -1.5747 C   0  0  0  0  0  0  0  0  0  0  0  0
    6.3069   -0.7367   -0.5364 C   0  0  0  0  0  0  0  0  0  0  0  0
    5.4637   -0.5805    0.6642 N   0  0  0  0  0  0  0  0  0  0  0  0
    6.1743    0.2667    1.6117 C   0  0  0  0  0  0  0  0  0  0  0  0
    7.3963   -0.5329    2.0718 C   0  0  0  0  0  0  0  0  0  0  0  0
    4.2033    0.0206    0.2900 C   0  0  0  0  0  0  0  0  0  0  0  0
    3.2718    0.0592    1.4617 C   0  0  0  0  0  0  0  0  0  0  0  0
    1.9769    0.6373    1.1396 N   0  0  0  0  0  0  0  0  0  0  0  0
    1.0611    0.1059    0.2017 C   0  0  0  0  0  0  0  0  0  0  0  0
    1.4281   -0.9648   -0.3743 O   0  0  0  0  0  0  0  0  0  0  0  0
   -0.2155    0.7627   -0.0701 C   0  0  0  0  0  0  0  0  0  0  0  0
   -0.4731    2.0321    0.4605 C   0  0  0  0  0  0  0  0  0  0  0  0
   -1.7168    2.4358    0.0282 C   0  0  0  0  0  0  0  0  0  0  0  0
   -2.4296    3.6059    0.2620 C   0  0  0  0  0  0  0  0  0  0  0  0
   -3.6690    3.7495   -0.3140 C   0  0  0  0  0  0  0  0  0  0  0  0
   -4.4250    4.9040   -0.1106 C   0  0  0  0  0  0  0  0  0  0  0  0
   -5.6563    4.9945   -0.7098 C   0  0  0  0  0  0  0  0  0  0  0  0
   -6.1596    3.9826   -1.5000 C   0  0  0  0  0  0  0  0  0  0  0  0
   -5.4027    2.8497   -1.6916 C   0  0  0  0  0  0  0  0  0  0  0  0
   -4.1503    2.7267   -1.0983 C   0  0  0  0  0  0  0  0  0  0  0  0
   -3.4291    1.5582   -1.3266 C   0  0  0  0  0  0  0  0  0  0  0  0
   -2.1833    1.4122   -0.7473 C   0  0  0  0  0  0  0  0  0  0  0  0
   -1.2650    0.3899   -0.8037 N   0  0  0  0  0  0  0  0  0  0  0  0
   -1.4523   -0.8544   -1.4826 C   0  0  0  0  0  0  0  0  0  0  0  0
   -2.2069   -1.8809   -0.7408 C   0  0  0  0  0  0  0  0  0  0  0  0
   -3.5335   -2.1535   -1.1011 C   0  0  0  0  0  0  0  0  0  0  0  0
   -4.3181   -3.0806   -0.4640 C   0  0  0  0  0  0  0  0  0  0  0  0
   -3.8139   -3.8099    0.5972 C   0  0  0  0  0  0  0  0  0  0  0  0
   -2.5140   -3.5651    0.9744 C   0  0  0  0  0  0  0  0  0  0  0  0
   -1.7230   -2.6109    0.3107 C   0  0  0  0  0  0  0  0  0  0  0  0
   -4.6442   -4.7999    1.2851 C   0  0  0  0  0  0  0  0  0  0  0  0
   -5.9498   -5.0760    0.9525 O   0  0  0  0  0  0  0  0  0  0  0  0
   -4.1182   -5.4308    2.2386 O   0  0  0  0  0  0  0  0  0  0  0  0
    5.0670   -2.4338   -1.1742 H   0  0  0  0  0  0  0  0  0  0  0  0
    5.0961   -0.9722   -2.3012 H   0  0  0  0  0  0  0  0  0  0  0  0
    6.4875   -2.0743   -2.1622 H   0  0  0  0  0  0  0  0  0  0  0  0
    6.5245    0.2513   -0.9340 H   0  0  0  0  0  0  0  0  0  0  0  0
    7.2416   -1.2278   -0.2150 H   0  0  0  0  0  0  0  0  0  0  0  0
    5.5509    0.4428    2.4977 H   0  0  0  0  0  0  0  0  0  0  0  0
    6.4935    1.2235    1.1994 H   0  0  0  0  0  0  0  0  0  0  0  0
    7.0694   -1.5910    2.1183 H   0  0  0  0  0  0  0  0  0  0  0  0
    8.2097   -0.3584    1.3438 H   0  0  0  0  0  0  0  0  0  0  0  0
    7.7139   -0.1331    3.0649 H   0  0  0  0  0  0  0  0  0  0  0  0
    3.7256   -0.4755   -0.5499 H   0  0  0  0  0  0  0  0  0  0  0  0
    4.4048    1.0776   -0.0851 H   0  0  0  0  0  0  0  0  0  0  0  0
    3.1323   -0.9999    1.8460 H   0  0  0  0  0  0  0  0  0  0  0  0
    3.6760    0.5996    2.3387 H   0  0  0  0  0  0  0  0  0  0  0  0
    1.6997    1.5262    1.6499 H   0  0  0  0  0  0  0  0  0  0  0  0
    0.1433    2.6424    1.0973 H   0  0  0  0  0  0  0  0  0  0  0  0
   -2.0204    4.4025    0.8911 H   0  0  0  0  0  0  0  0  0  0  0  0
   -3.9817    5.6622    0.5165 H   0  0  0  0  0  0  0  0  0  0  0  0
   -6.2243    5.9070   -0.5340 H   0  0  0  0  0  0  0  0  0  0  0  0
   -7.1530    4.0733   -1.9737 H   0  0  0  0  0  0  0  0  0  0  0  0
   -5.7840    2.0394   -2.3131 H   0  0  0  0  0  0  0  0  0  0  0  0
   -3.8401    0.7769   -1.9624 H   0  0  0  0  0  0  0  0  0  0  0  0
   -1.9790   -0.7083   -2.4675 H   0  0  0  0  0  0  0  0  0  0  0  0
   -0.4714   -1.2868   -1.7547 H   0  0  0  0  0  0  0  0  0  0  0  0
   -3.9550   -1.5966   -1.9341 H   0  0  0  0  0  0  0  0  0  0  0  0
   -5.3489   -3.2701   -0.7684 H   0  0  0  0  0  0  0  0  0  0  0  0
   -2.0874   -4.1135    1.7973 H   0  0  0  0  0  0  0  0  0  0  0  0
   -0.7047   -2.4504    0.6443 H   0  0  0  0  0  0  0  0  0  0  0  0
   -6.1825   -5.7613    0.2204 H   0  0  0  0  0  0  0  0  0  0  0  0
  1  2  1  0
  2  3  1  0
  3  4  1  0
  4  5  1  0
  3  6  1  0
  6  7  1  0
  7  8  1  0
  8  9  1  0
  9 10  2  0
  9 11  1  0
 11 12  2  0
 12 13  1  0
 13 14  2  0
 14 15  1  0
 15 16  2  0
 16 17  1  0
 17 18  2  0
 18 19  1  0
 19 20  2  0
 20 21  1  0
 21 22  2  0
 22 23  1  0
 23 24  1  0
 24 25  1  0
 25 26  2  0
 26 27  1  0
 27 28  2  0
 28 29  1  0
 29 30  2  0
 28 31  1  0
 31 32  1  0
 31 33  2  0
 23 11  1  0
 30 25  1  0
 22 13  1  0
 20 15  1  0
  1 34  1  0
  1 35  1  0
  1 36  1  0
  2 37  1  0
  2 38  1  0
  4 39  1  0
  4 40  1  0
  5 41  1  0
  5 42  1  0
  5 43  1  0
  6 44  1  0
  6 45  1  0
  7 46  1  0
  7 47  1  0
  8 48  1  0
 12 49  1  0
 14 50  1  0
 16 51  1  0
 17 52  1  0
 18 53  1  0
 19 54  1  0
 21 55  1  0
 24 56  1  0
 24 57  1  0
 26 58  1  0
 27 59  1  0
 29 60  1  0
 30 61  1  0
 32 62  1  0
M  END
$$$$
[H]c1nc(N([H])c2c([H])c([H])c(N3C([H])([H])C([H])([H])N([H])C([H])([H])C3([H])[H])c([H])c2[H])nc(N([H])c2c([H])c([H])c([H])c(S(=O)(=O)N([H])C3([H])C([H])([H])C3([H])[H])c2[H])c1C([H])([H])[H]
     RDKit          3D

 63 67  0  0  0  0  0  0  0  0999 V2000
   -1.6961   -2.7296    4.9108 C   0  0  0  0  0  0  0  0  0  0  0  0
   -1.0659   -2.1500    3.6985 C   0  0  0  0  0  0  0  0  0  0  0  0
    0.2236   -1.6701    3.6822 C   0  0  0  0  0  0  0  0  0  0  0  0
    0.7812   -1.1482    2.5781 N   0  0  0  0  0  0  0  0  0  0  0  0
    0.1248   -1.0589    1.4231 C   0  0  0  0  0  0  0  0  0  0  0  0
    0.6435   -0.5276    0.2055 N   0  0  0  0  0  0  0  0  0  0  0  0
    1.8929    0.0029   -0.0531 C   0  0  0  0  0  0  0  0  0  0  0  0
    2.7811    0.3915    0.8945 C   0  0  0  0  0  0  0  0  0  0  0  0
    4.0382    0.8947    0.5821 C   0  0  0  0  0  0  0  0  0  0  0  0
    4.4500    1.0261   -0.7232 C   0  0  0  0  0  0  0  0  0  0  0  0
    3.5365    0.6272   -1.6930 C   0  0  0  0  0  0  0  0  0  0  0  0
    2.2922    0.1286   -1.3916 C   0  0  0  0  0  0  0  0  0  0  0  0
    5.7241    1.5389   -1.0887 N   0  0  0  0  0  0  0  0  0  0  0  0
    6.7070    2.0517   -0.1671 C   0  0  0  0  0  0  0  0  0  0  0  0
    7.2800    3.3075   -0.7914 C   0  0  0  0  0  0  0  0  0  0  0  0
    8.0071    2.9682   -1.9686 N   0  0  0  0  0  0  0  0  0  0  0  0
    7.5386    1.8450   -2.7062 C   0  0  0  0  0  0  0  0  0  0  0  0
    6.0775    1.5500   -2.4953 C   0  0  0  0  0  0  0  0  0  0  0  0
   -1.1500   -1.5362    1.4505 N   0  0  0  0  0  0  0  0  0  0  0  0
   -1.7686   -2.0625    2.4905 C   0  0  0  0  0  0  0  0  0  0  0  0
   -3.0938   -2.5694    2.4445 N   0  0  0  0  0  0  0  0  0  0  0  0
   -3.9761   -2.5578    1.3484 C   0  0  0  0  0  0  0  0  0  0  0  0
   -4.9868   -3.4978    1.3503 C   0  0  0  0  0  0  0  0  0  0  0  0
   -5.9076   -3.5627    0.3454 C   0  0  0  0  0  0  0  0  0  0  0  0
   -5.8311   -2.6600   -0.7129 C   0  0  0  0  0  0  0  0  0  0  0  0
   -4.8340   -1.7088   -0.7438 C   0  0  0  0  0  0  0  0  0  0  0  0
   -3.9298   -1.6820    0.2908 C   0  0  0  0  0  0  0  0  0  0  0  0
   -4.7559   -0.5904   -2.0821 S   0  0  0  0  0  0  0  0  0  0  0  0
   -3.2985   -0.1973   -2.2229 O   0  0  0  0  0  0  0  0  0  0  0  0
   -5.1626   -1.1981   -3.3789 O   0  0  0  0  0  0  0  0  0  0  0  0
   -5.7228    0.8132   -1.8040 N   0  0  0  0  0  0  0  0  0  0  0  0
   -5.2780    1.5519   -0.6448 C   0  0  0  0  0  0  0  0  0  0  0  0
   -5.4402    3.0345   -0.5591 C   0  0  0  0  0  0  0  0  0  0  0  0
   -6.3833    2.1927    0.1944 C   0  0  0  0  0  0  0  0  0  0  0  0
   -2.1458   -3.7251    4.7209 H   0  0  0  0  0  0  0  0  0  0  0  0
   -0.9360   -2.8765    5.7073 H   0  0  0  0  0  0  0  0  0  0  0  0
   -2.4481   -2.0237    5.3715 H   0  0  0  0  0  0  0  0  0  0  0  0
    0.7889   -1.7252    4.6058 H   0  0  0  0  0  0  0  0  0  0  0  0
   -0.0385   -0.5349   -0.6396 H   0  0  0  0  0  0  0  0  0  0  0  0
    2.5569    0.3424    1.9320 H   0  0  0  0  0  0  0  0  0  0  0  0
    4.7035    1.1853    1.3751 H   0  0  0  0  0  0  0  0  0  0  0  0
    3.8676    0.7338   -2.7336 H   0  0  0  0  0  0  0  0  0  0  0  0
    1.6409   -0.1594   -2.2175 H   0  0  0  0  0  0  0  0  0  0  0  0
    6.3609    2.2023    0.8540 H   0  0  0  0  0  0  0  0  0  0  0  0
    7.5456    1.3052   -0.1482 H   0  0  0  0  0  0  0  0  0  0  0  0
    7.9863    3.8135   -0.0805 H   0  0  0  0  0  0  0  0  0  0  0  0
    6.4542    3.9913   -1.0508 H   0  0  0  0  0  0  0  0  0  0  0  0
    9.0170    3.1166   -1.9600 H   0  0  0  0  0  0  0  0  0  0  0  0
    8.1797    0.9729   -2.4968 H   0  0  0  0  0  0  0  0  0  0  0  0
    7.6673    2.0783   -3.7997 H   0  0  0  0  0  0  0  0  0  0  0  0
    5.4238    2.1978   -3.0894 H   0  0  0  0  0  0  0  0  0  0  0  0
    5.9149    0.4854   -2.8428 H   0  0  0  0  0  0  0  0  0  0  0  0
   -3.4752   -3.0096    3.3500 H   0  0  0  0  0  0  0  0  0  0  0  0
   -5.0742   -4.2242    2.1681 H   0  0  0  0  0  0  0  0  0  0  0  0
   -6.6953   -4.3260    0.3890 H   0  0  0  0  0  0  0  0  0  0  0  0
   -6.5723   -2.7316   -1.4971 H   0  0  0  0  0  0  0  0  0  0  0  0
   -3.1771   -0.9166    0.2353 H   0  0  0  0  0  0  0  0  0  0  0  0
   -6.7358    0.5955   -1.7882 H   0  0  0  0  0  0  0  0  0  0  0  0
   -4.4191    1.1097   -0.1240 H   0  0  0  0  0  0  0  0  0  0  0  0
   -5.8476    3.6077   -1.4083 H   0  0  0  0  0  0  0  0  0  0  0  0
   -4.6202    3.5739   -0.0295 H   0  0  0  0  0  0  0  0  0  0  0  0
   -6.3020    2.0254    1.2879 H   0  0  0  0  0  0  0  0  0  0  0  0
   -7.4373    2.0983   -0.1987 H   0  0  0  0  0  0  0  0  0  0  0  0
  1  2  1  0
  2  3  2  0
  3  4  1  0
  4  5  2  0
  5  6  1  0
  6  7  1  0
  7  8  2  0
  8  9  1  0
  9 10  2  0
 10 11  1  0
 11 12  2  0
 10 13  1  0
 13 14  1  0
 14 15  1  0
 15 16  1  0
 16 17  1  0
 17 18  1  0
  5 19  1  0
 19 20  2  0
 20 21  1  0
 21 22  1  0
 22 23  2  0
 23 24  1  0
 24 25  2  0
 25 26  1  0
 26 27  2  0
 26 28  1  0
 28 29  2  0
 28 30  2  0
 28 31  1  0
 31 32  1  0
 32 33  1  0
 33 34  1  0
 20  2  1  0
 27 22  1  0
 34 32  1  0
 12  7  1  0
 18 13  1  0
  1 35  1  0
  1 36  1  0
  1 37  1  0
  3 38  1  0
  6 39  1  0
  8 40  1  0
  9 41  1  0
 11 42  1  0
 12 43  1  0
 14 44  1  0
 14 45  1  0
 15 46  1  0
 15 47  1  0
 16 48  1  0
 17 49  1  0
 17 50  1  0
 18 51  1  0
 18 52  1  0
 21 53  1  0
 23 54  1  0
 24 55  1  0
 25 56  1  0
 27 57  1  0
 31 58  1  0
 32 59  1  0
 33 60  1  0
 33 61  1  0
 34 62  1  0
 34 63  1  0
M  END
$$$$
[H]Oc1c([H])c([H])c(-c2sc3c([H])c(O[H])c([H])c([H])c3c2C(=O)c2c([H])c([H])c([H])c(C(F)(F)F)c2[H])c([H])c1[H]
     RDKit          3D

 42 45  0  0  0  0  0  0  0  0999 V2000
   -4.9965   -4.1530    0.3912 O   0  0  0  0  0  0  0  0  0  0  0  0
   -4.2598   -2.9790    0.3241 C   0  0  0  0  0  0  0  0  0  0  0  0
   -4.8398   -1.7289    0.1756 C   0  0  0  0  0  0  0  0  0  0  0  0
   -4.0664   -0.5823    0.1155 C   0  0  0  0  0  0  0  0  0  0  0  0
   -2.6657   -0.6516    0.2102 C   0  0  0  0  0  0  0  0  0  0  0  0
   -2.1423   -1.9018    0.3598 C   0  0  0  0  0  0  0  0  0  0  0  0
   -2.8929   -3.0459    0.4169 C   0  0  0  0  0  0  0  0  0  0  0  0
   -1.8524    0.5588    0.2270 C   0  0  0  0  0  0  0  0  0  0  0  0
   -2.4546    2.0829    0.7858 S   0  0  0  0  0  0  0  0  0  0  0  0
   -1.1120    3.0395    0.4211 C   0  0  0  0  0  0  0  0  0  0  0  0
   -0.8466    4.4075    0.5844 C   0  0  0  0  0  0  0  0  0  0  0  0
    0.3464    4.9593    0.1932 C   0  0  0  0  0  0  0  0  0  0  0  0
    0.6863    6.3022    0.3212 O   0  0  0  0  0  0  0  0  0  0  0  0
    1.2327    4.0741   -0.3592 C   0  0  0  0  0  0  0  0  0  0  0  0
    0.9803    2.7640   -0.5148 C   0  0  0  0  0  0  0  0  0  0  0  0
   -0.2242    2.1683   -0.1248 C   0  0  0  0  0  0  0  0  0  0  0  0
   -0.5945    0.8661   -0.2334 C   0  0  0  0  0  0  0  0  0  0  0  0
    0.1783   -0.1850   -0.8695 C   0  0  0  0  0  0  0  0  0  0  0  0
   -0.3477   -0.5622   -2.0270 O   0  0  0  0  0  0  0  0  0  0  0  0
    1.3547   -0.9031   -0.5427 C   0  0  0  0  0  0  0  0  0  0  0  0
    1.4828   -2.2000   -1.0742 C   0  0  0  0  0  0  0  0  0  0  0  0
    2.5802   -2.9600   -0.8753 C   0  0  0  0  0  0  0  0  0  0  0  0
    3.6591   -2.5093   -0.1309 C   0  0  0  0  0  0  0  0  0  0  0  0
    3.5713   -1.2467    0.4008 C   0  0  0  0  0  0  0  0  0  0  0  0
    2.4341   -0.4838    0.1881 C   0  0  0  0  0  0  0  0  0  0  0  0
    4.7470   -0.6865    1.1703 C   0  0  0  0  0  0  0  0  0  0  0  0
    4.3462    0.4274    1.8771 F   0  0  0  0  0  0  0  0  0  0  0  0
    5.2408   -1.6062    2.0516 F   0  0  0  0  0  0  0  0  0  0  0  0
    5.7196   -0.3126    0.2099 F   0  0  0  0  0  0  0  0  0  0  0  0
   -4.5596   -5.0410    0.5095 H   0  0  0  0  0  0  0  0  0  0  0  0
   -5.9155   -1.7261    0.1019 H   0  0  0  0  0  0  0  0  0  0  0  0
   -4.5212    0.3675    0.0041 H   0  0  0  0  0  0  0  0  0  0  0  0
   -1.0933   -2.0415    0.4992 H   0  0  0  0  0  0  0  0  0  0  0  0
   -2.4388   -4.0464    0.5338 H   0  0  0  0  0  0  0  0  0  0  0  0
   -1.5633    5.0926    1.0315 H   0  0  0  0  0  0  0  0  0  0  0  0
    0.5577    7.0233   -0.3490 H   0  0  0  0  0  0  0  0  0  0  0  0
    2.1982    4.4991   -0.6770 H   0  0  0  0  0  0  0  0  0  0  0  0
    1.7708    2.1767   -0.9905 H   0  0  0  0  0  0  0  0  0  0  0  0
    0.6514   -2.6246   -1.6698 H   0  0  0  0  0  0  0  0  0  0  0  0
    2.6520   -3.9768   -1.2943 H   0  0  0  0  0  0  0  0  0  0  0  0
    4.5412   -3.1428    0.0132 H   0  0  0  0  0  0  0  0  0  0  0  0
    2.4561    0.4878    0.6736 H   0  0  0  0  0  0  0  0  0  0  0  0
  1  2  1  0
  2  3  2  0
  3  4  1  0
  4  5  2  0
  5  6  1  0
  6  7  2  0
  5  8  1  0
  8  9  1  0
  9 10  1  0
 10 11  2  0
 11 12  1  0
 12 13  1  0
 12 14  2  0
 14 15  1  0
 15 16  2  0
 16 17  1  0
 17 18  1  0
 18 19  2  0
 18 20  1  0
 20 21  2  0
 21 22  1  0
 22 23  2  0
 23 24  1  0
 24 25  2  0
 24 26  1  0
 26 27  1  0
 26 28  1  0
 26 29  1  0
  7  2  1  0
 17  8  2  0
 25 20  1  0
 16 10  1  0
  1 30  1  0
  3 31  1  0
  4 32  1  0
  6 33  1  0
  7 34  1  0
 11 35  1  0
 13 36  1  0
 14 37  1  0
 15 38  1  0
 21 39  1  0
 22 40  1  0
 23 41  1  0
 25 42  1  0
M  END
$$$$
[H]c1nc([H])c(-c2c([H])c3nc(N([H])C(=O)N([H])C([H])([H])C([H])([H])[H])sc3n(C([H])(C([H])([H])[H])C([H])([H])[H])c2=O)c([H])c1F
     RDKit          3D

 44 46  0  0  0  0  0  0  0  0999 V2000
    6.5896    1.0003   -1.0583 C   0  0  0  0  0  0  0  0  0  0  0  0
    6.6226    0.9606    0.4490 C   0  0  0  0  0  0  0  0  0  0  0  0
    5.6334    0.0154    0.9273 N   0  0  0  0  0  0  0  0  0  0  0  0
    4.2670    0.1926    0.6280 C   0  0  0  0  0  0  0  0  0  0  0  0
    3.9048    1.1689   -0.0530 O   0  0  0  0  0  0  0  0  0  0  0  0
    3.2943   -0.7562    1.1109 N   0  0  0  0  0  0  0  0  0  0  0  0
    1.9258   -0.5358    0.7834 C   0  0  0  0  0  0  0  0  0  0  0  0
    0.8757   -1.2389    1.0968 N   0  0  0  0  0  0  0  0  0  0  0  0
   -0.3085   -0.8781    0.7033 C   0  0  0  0  0  0  0  0  0  0  0  0
   -1.5228   -1.5365    0.9658 C   0  0  0  0  0  0  0  0  0  0  0  0
   -2.6953   -1.0137    0.4692 C   0  0  0  0  0  0  0  0  0  0  0  0
   -3.9881   -1.6756    0.7298 C   0  0  0  0  0  0  0  0  0  0  0  0
   -5.1012   -0.9995    1.1608 C   0  0  0  0  0  0  0  0  0  0  0  0
   -6.2804   -1.5900    1.3956 N   0  0  0  0  0  0  0  0  0  0  0  0
   -6.4263   -2.9048    1.2141 C   0  0  0  0  0  0  0  0  0  0  0  0
   -5.3440   -3.6397    0.7821 C   0  0  0  0  0  0  0  0  0  0  0  0
   -5.5338   -4.9872    0.6076 F   0  0  0  0  0  0  0  0  0  0  0  0
   -4.1398   -3.0374    0.5421 C   0  0  0  0  0  0  0  0  0  0  0  0
   -2.7494    0.1390   -0.2846 C   0  0  0  0  0  0  0  0  0  0  0  0
   -3.8049    0.6383   -0.7510 O   0  0  0  0  0  0  0  0  0  0  0  0
   -1.5763    0.7565   -0.5260 N   0  0  0  0  0  0  0  0  0  0  0  0
   -1.5338    1.9778   -1.3109 C   0  0  0  0  0  0  0  0  0  0  0  0
   -0.6771    1.8157   -2.5567 C   0  0  0  0  0  0  0  0  0  0  0  0
   -1.1123    3.1727   -0.5108 C   0  0  0  0  0  0  0  0  0  0  0  0
   -0.4173    0.2597   -0.0479 C   0  0  0  0  0  0  0  0  0  0  0  0
    1.2466    0.7377   -0.1327 S   0  0  0  0  0  0  0  0  0  0  0  0
    6.3542    2.0269   -1.3964 H   0  0  0  0  0  0  0  0  0  0  0  0
    7.5684    0.7400   -1.5188 H   0  0  0  0  0  0  0  0  0  0  0  0
    5.7717    0.3406   -1.4366 H   0  0  0  0  0  0  0  0  0  0  0  0
    6.3402    1.9522    0.8677 H   0  0  0  0  0  0  0  0  0  0  0  0
    7.6229    0.6697    0.8266 H   0  0  0  0  0  0  0  0  0  0  0  0
    5.9215   -0.8048    1.4972 H   0  0  0  0  0  0  0  0  0  0  0  0
    3.5966   -1.5616    1.6731 H   0  0  0  0  0  0  0  0  0  0  0  0
   -1.5598   -2.4489    1.5515 H   0  0  0  0  0  0  0  0  0  0  0  0
   -4.9777    0.0825    1.3136 H   0  0  0  0  0  0  0  0  0  0  0  0
   -7.3975   -3.4055    1.4050 H   0  0  0  0  0  0  0  0  0  0  0  0
   -3.2894   -3.6363    0.1990 H   0  0  0  0  0  0  0  0  0  0  0  0
   -2.5624    2.1804   -1.6751 H   0  0  0  0  0  0  0  0  0  0  0  0
    0.3837    2.0026   -2.3799 H   0  0  0  0  0  0  0  0  0  0  0  0
   -1.0675    2.5388   -3.3220 H   0  0  0  0  0  0  0  0  0  0  0  0
   -0.8527    0.7814   -2.9355 H   0  0  0  0  0  0  0  0  0  0  0  0
   -1.3996    4.0814   -1.1109 H   0  0  0  0  0  0  0  0  0  0  0  0
   -0.0196    3.2454   -0.3629 H   0  0  0  0  0  0  0  0  0  0  0  0
   -1.5815    3.1733    0.4707 H   0  0  0  0  0  0  0  0  0  0  0  0
  1  2  1  0
  2  3  1  0
  3  4  1  0
  4  5  2  0
  4  6  1  0
  6  7  1  0
  7  8  2  0
  8  9  1  0
  9 10  1  0
 10 11  2  0
 11 12  1  0
 12 13  2  0
 13 14  1  0
 14 15  2  0
 15 16  1  0
 16 17  1  0
 16 18  2  0
 11 19  1  0
 19 20  2  0
 19 21  1  0
 21 22  1  0
 22 23  1  0
 22 24  1  0
 21 25  1  0
 25 26  1  0
 26  7  1  0
 25  9  2  0
 18 12  1  0
  1 27  1  0
  1 28  1  0
  1 29  1  0
  2 30  1  0
  2 31  1  0
  3 32  1  0
  6 33  1  0
 10 34  1  0
 13 35  1  0
 15 36  1  0
 18 37  1  0
 22 38  1  0
 23 39  1  0
 23 40  1  0
 23 41  1  0
 24 42  1  0
 24 43  1  0
 24 44  1  0
M  END
$$$$
[H]c1nc(N(C([H])([H])[H])[C@@]2([H])C([H])([H])N(C(=O)C([H])([H])C(=O)N(C([H])([H])[H])C([H])([H])[H])C([H])([H])C([H])([H])[C@@]2([H])C([H])([H])[H])c2c([H])c([H])n([H])c2n1
     RDKit          3D

 52 54  0  0  0  0  0  0  0  0999 V2000
   -1.7122   -2.1486    1.8844 C   0  0  0  0  0  0  0  0  0  0  0  0
   -0.7108   -1.4556    0.9834 C   0  0  2  0  0  0  0  0  0  0  0  0
    0.3182   -0.8133    1.8262 C   0  0  0  0  0  0  0  0  0  0  0  0
    1.2609    0.0543    1.0776 C   0  0  0  0  0  0  0  0  0  0  0  0
    0.9880    0.1799   -0.3135 N   0  0  0  0  0  0  0  0  0  0  0  0
   -0.2770   -0.0961   -0.9475 C   0  0  0  0  0  0  0  0  0  0  0  0
   -1.3559   -0.6116   -0.0681 C   0  0  2  0  0  0  0  0  0  0  0  0
   -2.3153    0.3390    0.4088 N   0  0  0  0  0  0  0  0  0  0  0  0
   -1.9291    1.5116    1.2087 C   0  0  0  0  0  0  0  0  0  0  0  0
   -3.7085    0.2160    0.1766 C   0  0  0  0  0  0  0  0  0  0  0  0
   -4.5713    0.0018    1.2096 N   0  0  0  0  0  0  0  0  0  0  0  0
   -5.8877   -0.1350    1.0623 C   0  0  0  0  0  0  0  0  0  0  0  0
   -6.4330   -0.0639   -0.1605 N   0  0  0  0  0  0  0  0  0  0  0  0
   -5.6619    0.1447   -1.2348 C   0  0  0  0  0  0  0  0  0  0  0  0
   -5.9943    0.2538   -2.5264 N   0  0  0  0  0  0  0  0  0  0  0  0
   -4.8778    0.4660   -3.2323 C   0  0  0  0  0  0  0  0  0  0  0  0
   -3.7950    0.4914   -2.3468 C   0  0  0  0  0  0  0  0  0  0  0  0
   -4.2789    0.2878   -1.0711 C   0  0  0  0  0  0  0  0  0  0  0  0
    2.1039    0.6342   -1.1263 C   0  0  0  0  0  0  0  0  0  0  0  0
    1.8933    0.7481   -2.3527 O   0  0  0  0  0  0  0  0  0  0  0  0
    3.4221    0.9560   -0.5945 C   0  0  0  0  0  0  0  0  0  0  0  0
    4.4452   -0.0774   -0.8060 C   0  0  0  0  0  0  0  0  0  0  0  0
    4.1908   -1.1485   -1.4089 O   0  0  0  0  0  0  0  0  0  0  0  0
    5.7537    0.1268   -0.3235 N   0  0  0  0  0  0  0  0  0  0  0  0
    6.7926   -0.8545   -0.5100 C   0  0  0  0  0  0  0  0  0  0  0  0
    6.0717    1.3486    0.3793 C   0  0  0  0  0  0  0  0  0  0  0  0
   -1.9804   -1.5119    2.7646 H   0  0  0  0  0  0  0  0  0  0  0  0
   -1.1936   -3.0364    2.3079 H   0  0  0  0  0  0  0  0  0  0  0  0
   -2.5962   -2.5286    1.3455 H   0  0  0  0  0  0  0  0  0  0  0  0
   -0.1995   -2.2978    0.4246 H   0  0  0  0  0  0  0  0  0  0  0  0
   -0.0981   -0.3297    2.7433 H   0  0  0  0  0  0  0  0  0  0  0  0
    0.9413   -1.6613    2.2622 H   0  0  0  0  0  0  0  0  0  0  0  0
    2.3207   -0.2272    1.2483 H   0  0  0  0  0  0  0  0  0  0  0  0
    1.1812    1.0837    1.5462 H   0  0  0  0  0  0  0  0  0  0  0  0
   -0.0141   -0.8333   -1.7704 H   0  0  0  0  0  0  0  0  0  0  0  0
   -0.5472    0.8271   -1.5052 H   0  0  0  0  0  0  0  0  0  0  0  0
   -1.9414   -1.3441   -0.7102 H   0  0  0  0  0  0  0  0  0  0  0  0
   -2.7594    2.2817    1.2035 H   0  0  0  0  0  0  0  0  0  0  0  0
   -1.0882    2.0716    0.7258 H   0  0  0  0  0  0  0  0  0  0  0  0
   -1.7672    1.2917    2.2602 H   0  0  0  0  0  0  0  0  0  0  0  0
   -6.5490   -0.3035    1.9038 H   0  0  0  0  0  0  0  0  0  0  0  0
   -6.9388    0.1938   -2.9760 H   0  0  0  0  0  0  0  0  0  0  0  0
   -4.7592    0.6048   -4.3118 H   0  0  0  0  0  0  0  0  0  0  0  0
   -2.7682    0.6425   -2.5729 H   0  0  0  0  0  0  0  0  0  0  0  0
    3.4479    1.2696    0.4652 H   0  0  0  0  0  0  0  0  0  0  0  0
    3.7703    1.8682   -1.1691 H   0  0  0  0  0  0  0  0  0  0  0  0
    6.5355   -1.6069   -1.3100 H   0  0  0  0  0  0  0  0  0  0  0  0
    7.0078   -1.4231    0.4339 H   0  0  0  0  0  0  0  0  0  0  0  0
    7.7573   -0.3948   -0.8279 H   0  0  0  0  0  0  0  0  0  0  0  0
    5.9617    1.2365    1.4926 H   0  0  0  0  0  0  0  0  0  0  0  0
    7.1402    1.6213    0.1600 H   0  0  0  0  0  0  0  0  0  0  0  0
    5.4050    2.1509    0.0135 H   0  0  0  0  0  0  0  0  0  0  0  0
  1  2  1  0
  2  3  1  0
  3  4  1  0
  4  5  1  0
  5  6  1  0
  6  7  1  0
  7  8  1  0
  8  9  1  0
  8 10  1  0
 10 11  2  0
 11 12  1  0
 12 13  2  0
 13 14  1  0
 14 15  1  0
 15 16  1  0
 16 17  2  0
 17 18  1  0
  5 19  1  0
 19 20  2  0
 19 21  1  0
 21 22  1  0
 22 23  2  0
 22 24  1  0
 24 25  1  0
 24 26  1  0
  7  2  1  0
 18 10  1  0
 18 14  2  0
  1 27  1  0
  1 28  1  0
  1 29  1  0
  2 30  1  6
  3 31  1  0
  3 32  1  0
  4 33  1  0
  4 34  1  0
  6 35  1  0
  6 36  1  0
  7 37  1  6
  9 38  1  0
  9 39  1  0
  9 40  1  0
 12 41  1  0
 15 42  1  0
 16 43  1  0
 17 44  1  0
 21 45  1  0
 21 46  1  0
 25 47  1  0
 25 48  1  0
 25 49  1  0
 26 50  1  0
 26 51  1  0
 26 52  1  0
M  END
$$$$
[H]C(=C(C#N)C(=O)N([H])C([H])([H])C([H])([H])Oc1c(OC([H])([H])[H])c([H])c2nc([H])nc(N([H])c3c([H])c([H])c([H])c(Cl)c3[H])c2c1[H])C([H])(C([H])([H])[H])C([H])([H])[H]
     RDKit          3D

 57 59  0  0  0  0  0  0  0  0999 V2000
   -0.8779    5.0450   -1.5351 C   0  0  0  0  0  0  0  0  0  0  0  0
   -1.3525    3.8896   -1.3238 O   0  0  0  0  0  0  0  0  0  0  0  0
   -2.0757    2.8146   -1.2222 C   0  0  0  0  0  0  0  0  0  0  0  0
   -3.4055    2.8003   -1.6035 C   0  0  0  0  0  0  0  0  0  0  0  0
   -4.1912    1.7009   -1.5154 C   0  0  0  0  0  0  0  0  0  0  0  0
   -5.4990    1.7413   -1.8314 N   0  0  0  0  0  0  0  0  0  0  0  0
   -6.3428    0.6989   -1.6916 C   0  0  0  0  0  0  0  0  0  0  0  0
   -5.8192   -0.4237   -1.2094 N   0  0  0  0  0  0  0  0  0  0  0  0
   -4.5100   -0.5605   -0.8662 C   0  0  0  0  0  0  0  0  0  0  0  0
   -4.0276   -1.7876   -0.3188 N   0  0  0  0  0  0  0  0  0  0  0  0
   -4.9985   -2.7997   -0.0911 C   0  0  0  0  0  0  0  0  0  0  0  0
   -4.8126   -4.0777   -0.5486 C   0  0  0  0  0  0  0  0  0  0  0  0
   -5.6839   -5.0965   -0.3106 C   0  0  0  0  0  0  0  0  0  0  0  0
   -6.8325   -4.8327    0.4483 C   0  0  0  0  0  0  0  0  0  0  0  0
   -7.0744   -3.5799    0.9391 C   0  0  0  0  0  0  0  0  0  0  0  0
   -8.5165   -3.3144    1.9095 Cl  0  0  0  0  0  0  0  0  0  0  0  0
   -6.1555   -2.5833    0.6619 C   0  0  0  0  0  0  0  0  0  0  0  0
   -3.6800    0.5080   -1.0202 C   0  0  0  0  0  0  0  0  0  0  0  0
   -2.3507    0.4976   -0.6379 C   0  0  0  0  0  0  0  0  0  0  0  0
   -1.5248    1.6091   -0.7194 C   0  0  0  0  0  0  0  0  0  0  0  0
   -0.2272    1.6498   -0.3859 O   0  0  0  0  0  0  0  0  0  0  0  0
    0.7892    0.8094   -0.0605 C   0  0  0  0  0  0  0  0  0  0  0  0
    1.9456    1.6228    0.4981 C   0  0  0  0  0  0  0  0  0  0  0  0
    3.1022    1.0112    0.8196 N   0  0  0  0  0  0  0  0  0  0  0  0
    4.2259    0.3046    1.2086 C   0  0  0  0  0  0  0  0  0  0  0  0
    4.3619   -0.6867    1.8972 O   0  0  0  0  0  0  0  0  0  0  0  0
    5.5038    0.9169    0.6594 C   0  0  0  0  0  0  0  0  0  0  0  0
    6.6492    0.3969    0.8133 C   0  0  0  0  0  0  0  0  0  0  0  0
    7.1445   -0.7960    1.4625 C   0  0  0  0  0  0  0  0  0  0  0  0
    8.2770   -0.3613    2.4479 C   0  0  0  0  0  0  0  0  0  0  0  0
    7.8440   -1.6787    0.4085 C   0  0  0  0  0  0  0  0  0  0  0  0
    5.3109    2.1840   -0.0696 C   0  0  0  0  0  0  0  0  0  0  0  0
    5.1938    3.2051   -0.6107 N   0  0  0  0  0  0  0  0  0  0  0  0
    0.2331    5.1779   -1.3343 H   0  0  0  0  0  0  0  0  0  0  0  0
   -1.3953    5.8539   -0.9166 H   0  0  0  0  0  0  0  0  0  0  0  0
   -0.9832    5.4614   -2.6013 H   0  0  0  0  0  0  0  0  0  0  0  0
   -3.8671    3.7104   -2.0129 H   0  0  0  0  0  0  0  0  0  0  0  0
   -7.3829    0.8035   -1.9495 H   0  0  0  0  0  0  0  0  0  0  0  0
   -3.0280   -1.9740   -0.0695 H   0  0  0  0  0  0  0  0  0  0  0  0
   -3.9022   -4.3075   -1.1342 H   0  0  0  0  0  0  0  0  0  0  0  0
   -5.5403   -6.0916   -0.6826 H   0  0  0  0  0  0  0  0  0  0  0  0
   -7.5152   -5.6687    0.6514 H   0  0  0  0  0  0  0  0  0  0  0  0
   -6.2908   -1.5979    1.0384 H   0  0  0  0  0  0  0  0  0  0  0  0
   -1.9637   -0.4220   -0.2659 H   0  0  0  0  0  0  0  0  0  0  0  0
    0.4457    0.0322    0.6912 H   0  0  0  0  0  0  0  0  0  0  0  0
    1.1665    0.1597   -0.8975 H   0  0  0  0  0  0  0  0  0  0  0  0
    1.5249    2.1793    1.3989 H   0  0  0  0  0  0  0  0  0  0  0  0
    2.1087    2.4300   -0.2896 H   0  0  0  0  0  0  0  0  0  0  0  0
    2.3978    0.1789    1.7184 H   0  0  0  0  0  0  0  0  0  0  0  0
    7.4805    1.0429    0.3125 H   0  0  0  0  0  0  0  0  0  0  0  0
    6.4904   -1.3866    2.0644 H   0  0  0  0  0  0  0  0  0  0  0  0
    8.5615   -1.2395    3.0470 H   0  0  0  0  0  0  0  0  0  0  0  0
    9.1115    0.0583    1.8918 H   0  0  0  0  0  0  0  0  0  0  0  0
    7.7958    0.4453    3.0303 H   0  0  0  0  0  0  0  0  0  0  0  0
    8.0380   -1.1031   -0.5093 H   0  0  0  0  0  0  0  0  0  0  0  0
    8.8553   -1.9979    0.7868 H   0  0  0  0  0  0  0  0  0  0  0  0
    7.2690   -2.5721    0.1685 H   0  0  0  0  0  0  0  0  0  0  0  0
  1  2  1  0
  2  3  1  0
  3  4  2  0
  4  5  1  0
  5  6  2  0
  6  7  1  0
  7  8  2  0
  8  9  1  0
  9 10  1  0
 10 11  1  0
 11 12  2  0
 12 13  1  0
 13 14  2  0
 14 15  1  0
 15 16  1  0
 15 17  2  0
  9 18  2  0
 18 19  1  0
 19 20  2  0
 20 21  1  0
 21 22  1  0
 22 23  1  0
 23 24  1  0
 24 25  1  0
 25 26  2  0
 25 27  1  0
 27 28  2  3
 28 29  1  0
 29 30  1  0
 29 31  1  0
 27 32  1  0
 32 33  3  0
 20  3  1  0
 18  5  1  0
 17 11  1  0
  1 34  1  0
  1 35  1  0
  1 36  1  0
  4 37  1  0
  7 38  1  0
 10 39  1  0
 12 40  1  0
 13 41  1  0
 14 42  1  0
 17 43  1  0
 19 44  1  0
 22 45  1  0
 22 46  1  0
 23 47  1  0
 23 48  1  0
 24 49  1  0
 28 50  1  0
 29 51  1  0
 30 52  1  0
 30 53  1  0
 30 54  1  0
 31 55  1  0
 31 56  1  0
 31 57  1  0
M  END
$$$$
[H]OC(=O)[C@@]([H])(N([H])[H])[C@]([H])(OC([H])([H])c1c([H])c([H])c([H])c([H])c1[H])C(=O)N([H])c1c([H])c(F)c(C(F)(F)F)c([H])c1F
     RDKit          3D

 44 45  0  0  0  0  0  0  0  0999 V2000
    1.3638    0.9271    2.5718 N   0  0  0  0  0  0  0  0  0  0  0  0
    1.5479    1.2891    1.1913 C   0  0  1  0  0  0  0  0  0  0  0  0
    1.0440    0.1553    0.3360 C   0  0  2  0  0  0  0  0  0  0  0  0
    1.2104    0.4807   -0.9797 O   0  0  0  0  0  0  0  0  0  0  0  0
    2.0157   -0.3592   -1.7214 C   0  0  0  0  0  0  0  0  0  0  0  0
    3.4133   -0.4559   -1.2463 C   0  0  0  0  0  0  0  0  0  0  0  0
    4.3492    0.5433   -1.5217 C   0  0  0  0  0  0  0  0  0  0  0  0
    5.6404    0.4242   -1.0759 C   0  0  0  0  0  0  0  0  0  0  0  0
    6.0453   -0.6702   -0.3532 C   0  0  0  0  0  0  0  0  0  0  0  0
    5.1369   -1.6580   -0.0761 C   0  0  0  0  0  0  0  0  0  0  0  0
    3.8586   -1.5365   -0.5195 C   0  0  0  0  0  0  0  0  0  0  0  0
   -0.4021   -0.1238    0.6673 C   0  0  0  0  0  0  0  0  0  0  0  0
   -0.6001   -0.4255    1.8600 O   0  0  0  0  0  0  0  0  0  0  0  0
   -1.4038   -0.0462   -0.2829 N   0  0  0  0  0  0  0  0  0  0  0  0
   -2.8017   -0.2716   -0.1557 C   0  0  0  0  0  0  0  0  0  0  0  0
   -3.4029   -0.6288    1.0309 C   0  0  0  0  0  0  0  0  0  0  0  0
   -4.7752   -0.8462    1.1386 C   0  0  0  0  0  0  0  0  0  0  0  0
   -5.3288   -1.1976    2.3296 F   0  0  0  0  0  0  0  0  0  0  0  0
   -5.5482   -0.6993    0.0272 C   0  0  0  0  0  0  0  0  0  0  0  0
   -4.9696   -0.3436   -1.1667 C   0  0  0  0  0  0  0  0  0  0  0  0
   -3.6279   -0.1318   -1.2687 C   0  0  0  0  0  0  0  0  0  0  0  0
   -3.0795    0.2135   -2.4358 F   0  0  0  0  0  0  0  0  0  0  0  0
   -7.0325   -0.9125    0.0479 C   0  0  0  0  0  0  0  0  0  0  0  0
   -7.6046   -0.0209    0.9482 F   0  0  0  0  0  0  0  0  0  0  0  0
   -7.5897   -0.6336   -1.1801 F   0  0  0  0  0  0  0  0  0  0  0  0
   -7.2986   -2.1982    0.4622 F   0  0  0  0  0  0  0  0  0  0  0  0
    0.8054    2.5310    0.9105 C   0  0  0  0  0  0  0  0  0  0  0  0
    0.0805    3.1608    1.8978 O   0  0  0  0  0  0  0  0  0  0  0  0
    0.8309    3.0222   -0.2352 O   0  0  0  0  0  0  0  0  0  0  0  0
    1.7092   -0.0105    2.8091 H   0  0  0  0  0  0  0  0  0  0  0  0
    1.5886    1.6703    3.2414 H   0  0  0  0  0  0  0  0  0  0  0  0
    2.6059    1.4722    0.9277 H   0  0  0  0  0  0  0  0  0  0  0  0
    1.5936   -0.7569    0.5963 H   0  0  0  0  0  0  0  0  0  0  0  0
    1.5675   -1.3887   -1.6096 H   0  0  0  0  0  0  0  0  0  0  0  0
    1.9881   -0.1267   -2.8000 H   0  0  0  0  0  0  0  0  0  0  0  0
    4.0361    1.3911   -2.0814 H   0  0  0  0  0  0  0  0  0  0  0  0
    6.4043    1.1917   -1.2741 H   0  0  0  0  0  0  0  0  0  0  0  0
    7.0550   -0.8105    0.0214 H   0  0  0  0  0  0  0  0  0  0  0  0
    5.4211   -2.5348    0.4911 H   0  0  0  0  0  0  0  0  0  0  0  0
    3.1623   -2.3434   -0.2802 H   0  0  0  0  0  0  0  0  0  0  0  0
   -1.0818    0.2254   -1.2683 H   0  0  0  0  0  0  0  0  0  0  0  0
   -2.8398   -0.7597    1.9447 H   0  0  0  0  0  0  0  0  0  0  0  0
   -5.6398   -0.2374   -2.0383 H   0  0  0  0  0  0  0  0  0  0  0  0
    0.5525    3.4301    2.7564 H   0  0  0  0  0  0  0  0  0  0  0  0
  1  2  1  0
  2  3  1  0
  3  4  1  0
  4  5  1  0
  5  6  1  0
  6  7  2  0
  7  8  1  0
  8  9  2  0
  9 10  1  0
 10 11  2  0
  3 12  1  0
 12 13  2  0
 12 14  1  0
 14 15  1  0
 15 16  2  0
 16 17  1  0
 17 18  1  0
 17 19  2  0
 19 20  1  0
 20 21  2  0
 21 22  1  0
 19 23  1  0
 23 24  1  0
 23 25  1  0
 23 26  1  0
  2 27  1  0
 27 28  1  0
 27 29  2  0
 11  6  1  0
 21 15  1  0
  1 30  1  0
  1 31  1  0
  2 32  1  1
  3 33  1  1
  5 34  1  0
  5 35  1  0
  7 36  1  0
  8 37  1  0
  9 38  1  0
 10 39  1  0
 11 40  1  0
 14 41  1  0
 16 42  1  0
 20 43  1  0
 28 44  1  0
M  END
$$$$
[H]OC(=O)[C@]([H])(N([H])[H])[C@@]([H])(N([H])C([H])([H])[C@@]([H])(O[H])[C@@]([H])(N([H])C(=O)C([H])([H])C([H])([H])[H])C([H])([H])c1c([H])c([H])c([H])c([H])c1[H])[C@]([H])(C([H])([H])[H])C([H])([H])C([H])([H])C([H])([H])[H]
     RDKit          3D

 63 63  0  0  0  0  0  0  0  0999 V2000
    4.8298    1.0136   -3.1119 C   0  0  0  0  0  0  0  0  0  0  0  0
    4.4319   -0.4330   -3.1943 C   0  0  0  0  0  0  0  0  0  0  0  0
    4.1098   -1.0085   -1.8199 C   0  0  0  0  0  0  0  0  0  0  0  0
    2.9902   -0.2762   -1.1259 C   0  0  1  0  0  0  0  0  0  0  0  0
    1.7912   -0.4401   -2.0970 C   0  0  0  0  0  0  0  0  0  0  0  0
    2.6659   -0.8637    0.1968 C   0  0  2  0  0  0  0  0  0  0  0  0
    1.6925   -0.2089    0.9879 N   0  0  0  0  0  0  0  0  0  0  0  0
    0.3611   -0.0688    0.6283 C   0  0  0  0  0  0  0  0  0  0  0  0
   -0.4121    0.6325    1.7843 C   0  0  1  0  0  0  0  0  0  0  0  0
    0.1913    1.8751    1.9516 O   0  0  0  0  0  0  0  0  0  0  0  0
   -1.8137    0.8297    1.2572 C   0  0  2  0  0  0  0  0  0  0  0  0
   -2.5512    1.8064    2.1315 C   0  0  0  0  0  0  0  0  0  0  0  0
   -3.9387    2.0410    1.6674 C   0  0  0  0  0  0  0  0  0  0  0  0
   -4.9930    1.2558    2.1224 C   0  0  0  0  0  0  0  0  0  0  0  0
   -6.2852    1.4536    1.7072 C   0  0  0  0  0  0  0  0  0  0  0  0
   -6.5919    2.4483    0.8140 C   0  0  0  0  0  0  0  0  0  0  0  0
   -5.5694    3.2412    0.3465 C   0  0  0  0  0  0  0  0  0  0  0  0
   -4.2718    3.0318    0.7723 C   0  0  0  0  0  0  0  0  0  0  0  0
   -2.5130   -0.3972    1.0548 N   0  0  0  0  0  0  0  0  0  0  0  0
   -2.9251   -0.8917   -0.2028 C   0  0  0  0  0  0  0  0  0  0  0  0
   -2.6490   -0.1864   -1.2190 O   0  0  0  0  0  0  0  0  0  0  0  0
   -3.6413   -2.1494   -0.4130 C   0  0  0  0  0  0  0  0  0  0  0  0
   -3.9504   -2.4252   -1.8552 C   0  0  0  0  0  0  0  0  0  0  0  0
    3.7814   -1.3350    1.0628 C   0  0  1  0  0  0  0  0  0  0  0  0
    4.5767   -2.4019    0.5308 N   0  0  0  0  0  0  0  0  0  0  0  0
    4.6595   -0.2140    1.5185 C   0  0  0  0  0  0  0  0  0  0  0  0
    6.0380   -0.2786    1.4137 O   0  0  0  0  0  0  0  0  0  0  0  0
    4.0881    0.7961    2.0040 O   0  0  0  0  0  0  0  0  0  0  0  0
    5.7523    1.2307   -3.7023 H   0  0  0  0  0  0  0  0  0  0  0  0
    5.0771    1.3043   -2.0624 H   0  0  0  0  0  0  0  0  0  0  0  0
    4.0319    1.6710   -3.5329 H   0  0  0  0  0  0  0  0  0  0  0  0
    3.7306   -0.6800   -3.9842 H   0  0  0  0  0  0  0  0  0  0  0  0
    5.3858   -0.9890   -3.4886 H   0  0  0  0  0  0  0  0  0  0  0  0
    3.8361   -2.0580   -1.9339 H   0  0  0  0  0  0  0  0  0  0  0  0
    5.0704   -0.9122   -1.2407 H   0  0  0  0  0  0  0  0  0  0  0  0
    3.1629    0.8128   -1.0714 H   0  0  0  0  0  0  0  0  0  0  0  0
    1.0515   -1.1355   -1.6407 H   0  0  0  0  0  0  0  0  0  0  0  0
    1.3270    0.5117   -2.3366 H   0  0  0  0  0  0  0  0  0  0  0  0
    2.1072   -0.9106   -3.0451 H   0  0  0  0  0  0  0  0  0  0  0  0
    2.1202   -1.8783   -0.0755 H   0  0  0  0  0  0  0  0  0  0  0  0
    1.8636   -0.2696    2.0218 H   0  0  0  0  0  0  0  0  0  0  0  0
    0.2529    0.6209   -0.2609 H   0  0  0  0  0  0  0  0  0  0  0  0
   -0.2070   -0.9927    0.3504 H   0  0  0  0  0  0  0  0  0  0  0  0
   -0.3696    0.0194    2.6848 H   0  0  0  0  0  0  0  0  0  0  0  0
   -0.0712    2.3176    2.7862 H   0  0  0  0  0  0  0  0  0  0  0  0
   -1.6788    1.3165    0.2482 H   0  0  0  0  0  0  0  0  0  0  0  0
   -2.0009    2.7712    2.2092 H   0  0  0  0  0  0  0  0  0  0  0  0
   -2.5829    1.4137    3.1869 H   0  0  0  0  0  0  0  0  0  0  0  0
   -4.7157    0.4778    2.8285 H   0  0  0  0  0  0  0  0  0  0  0  0
   -7.0823    0.8321    2.0753 H   0  0  0  0  0  0  0  0  0  0  0  0
   -7.5917    2.6104    0.4849 H   0  0  0  0  0  0  0  0  0  0  0  0
   -5.8120    4.0239   -0.3566 H   0  0  0  0  0  0  0  0  0  0  0  0
   -3.4661    3.6703    0.3924 H   0  0  0  0  0  0  0  0  0  0  0  0
   -2.7417   -0.9818    1.8943 H   0  0  0  0  0  0  0  0  0  0  0  0
   -4.5886   -2.2256    0.1482 H   0  0  0  0  0  0  0  0  0  0  0  0
   -2.9806   -2.9901   -0.0636 H   0  0  0  0  0  0  0  0  0  0  0  0
   -2.9780   -2.6061   -2.3828 H   0  0  0  0  0  0  0  0  0  0  0  0
   -4.5045   -3.3866   -1.9191 H   0  0  0  0  0  0  0  0  0  0  0  0
   -4.5059   -1.6023   -2.3427 H   0  0  0  0  0  0  0  0  0  0  0  0
    3.3434   -1.7382    2.0263 H   0  0  0  0  0  0  0  0  0  0  0  0
    5.2415   -2.7961    1.2155 H   0  0  0  0  0  0  0  0  0  0  0  0
    3.9342   -3.1744    0.1823 H   0  0  0  0  0  0  0  0  0  0  0  0
    6.4873   -1.1237    1.7920 H   0  0  0  0  0  0  0  0  0  0  0  0
  1  2  1  0
  2  3  1  0
  3  4  1  0
  4  5  1  0
  4  6  1  0
  6  7  1  0
  7  8  1  0
  8  9  1  0
  9 10  1  0
  9 11  1  0
 11 12  1  0
 12 13  1  0
 13 14  2  0
 14 15  1  0
 15 16  2  0
 16 17  1  0
 17 18  2  0
 11 19  1  0
 19 20  1  0
 20 21  2  0
 20 22  1  0
 22 23  1  0
  6 24  1  0
 24 25  1  0
 24 26  1  0
 26 27  1  0
 26 28  2  0
 18 13  1  0
  1 29  1  0
  1 30  1  0
  1 31  1  0
  2 32  1  0
  2 33  1  0
  3 34  1  0
  3 35  1  0
  4 36  1  1
  5 37  1  0
  5 38  1  0
  5 39  1  0
  6 40  1  6
  7 41  1  0
  8 42  1  0
  8 43  1  0
  9 44  1  1
 10 45  1  0
 11 46  1  6
 12 47  1  0
 12 48  1  0
 14 49  1  0
 15 50  1  0
 16 51  1  0
 17 52  1  0
 18 53  1  0
 19 54  1  0
 22 55  1  0
 22 56  1  0
 23 57  1  0
 23 58  1  0
 23 59  1  0
 24 60  1  1
 25 61  1  0
 25 62  1  0
 27 63  1  0
M  END
$$$$
[H]c1c(C(C([H])([H])[H])(C([H])([H])[H])C([H])([H])[H])nc(N2C([H])([H])C([H])([H])C([H])([H])C2([H])[H])c(C([H])([H])N([H])C(=O)C([H])(c2c([H])c([H])c(N([H])S(=O)(=O)C([H])([H])[H])c(F)c2[H])C([H])([H])[H])c1[H]
     RDKit          3D

 66 68  0  0  0  0  0  0  0  0999 V2000
    3.0475    1.8661    2.4730 C   0  0  0  0  0  0  0  0  0  0  0  0
    2.5796    1.3713    1.1126 C   0  0  0  0  0  0  0  0  0  0  0  0
    1.3226    0.6166    1.2020 C   0  0  0  0  0  0  0  0  0  0  0  0
    1.1523   -0.4677    0.6502 O   0  0  0  0  0  0  0  0  0  0  0  0
    0.2577    1.1971    1.9825 N   0  0  0  0  0  0  0  0  0  0  0  0
   -0.9975    0.5194    2.1460 C   0  0  0  0  0  0  0  0  0  0  0  0
   -1.7901    0.5411    0.9191 C   0  0  0  0  0  0  0  0  0  0  0  0
   -1.3614    1.2444   -0.1766 C   0  0  0  0  0  0  0  0  0  0  0  0
   -2.1768    1.2817   -1.3115 C   0  0  0  0  0  0  0  0  0  0  0  0
   -3.3792    0.6147   -1.2959 C   0  0  0  0  0  0  0  0  0  0  0  0
   -3.7679   -0.0579   -0.2161 N   0  0  0  0  0  0  0  0  0  0  0  0
   -3.0111   -0.1322    0.9251 C   0  0  0  0  0  0  0  0  0  0  0  0
   -3.4502   -0.8759    2.0360 N   0  0  0  0  0  0  0  0  0  0  0  0
   -3.7419   -0.4960    3.4051 C   0  0  0  0  0  0  0  0  0  0  0  0
   -5.0068   -1.2814    3.6674 C   0  0  0  0  0  0  0  0  0  0  0  0
   -5.0906   -2.3655    2.6093 C   0  0  0  0  0  0  0  0  0  0  0  0
   -3.7003   -2.3055    1.9824 C   0  0  0  0  0  0  0  0  0  0  0  0
   -4.2405    0.6851   -2.4948 C   0  0  0  0  0  0  0  0  0  0  0  0
   -4.2308   -0.6459   -3.2678 C   0  0  0  0  0  0  0  0  0  0  0  0
   -5.6832    0.9411   -2.0758 C   0  0  0  0  0  0  0  0  0  0  0  0
   -3.8589    1.8021   -3.4307 C   0  0  0  0  0  0  0  0  0  0  0  0
    3.6838    0.5729    0.5223 C   0  0  0  0  0  0  0  0  0  0  0  0
    4.4908    1.1161   -0.4449 C   0  0  0  0  0  0  0  0  0  0  0  0
    5.5384    0.3685   -0.9723 C   0  0  0  0  0  0  0  0  0  0  0  0
    5.7798   -0.9024   -0.5382 C   0  0  0  0  0  0  0  0  0  0  0  0
    6.8395   -1.7018   -1.0243 N   0  0  0  0  0  0  0  0  0  0  0  0
    8.1241   -1.1304   -1.9720 S   0  0  0  0  0  0  0  0  0  0  0  0
    7.5751   -0.4819   -3.5105 C   0  0  0  0  0  0  0  0  0  0  0  0
    9.0886   -2.2777   -2.2742 O   0  0  0  0  0  0  0  0  0  0  0  0
    8.9673   -0.0994   -1.2557 O   0  0  0  0  0  0  0  0  0  0  0  0
    4.9558   -1.4582    0.4510 C   0  0  0  0  0  0  0  0  0  0  0  0
    5.1894   -2.7183    0.9014 F   0  0  0  0  0  0  0  0  0  0  0  0
    3.9212   -0.7262    0.9730 C   0  0  0  0  0  0  0  0  0  0  0  0
    4.1417    1.7249    2.5778 H   0  0  0  0  0  0  0  0  0  0  0  0
    2.7722    2.9074    2.6347 H   0  0  0  0  0  0  0  0  0  0  0  0
    2.5876    1.1968    3.2183 H   0  0  0  0  0  0  0  0  0  0  0  0
    2.4244    2.3021    0.4848 H   0  0  0  0  0  0  0  0  0  0  0  0
    0.3846    2.1185    2.4411 H   0  0  0  0  0  0  0  0  0  0  0  0
   -0.7673   -0.5619    2.3944 H   0  0  0  0  0  0  0  0  0  0  0  0
   -1.5515    0.8949    3.0361 H   0  0  0  0  0  0  0  0  0  0  0  0
   -0.4291    1.8031   -0.2401 H   0  0  0  0  0  0  0  0  0  0  0  0
   -1.8858    1.8358   -2.1976 H   0  0  0  0  0  0  0  0  0  0  0  0
   -3.8583    0.5696    3.5443 H   0  0  0  0  0  0  0  0  0  0  0  0
   -2.9748   -0.9059    4.1278 H   0  0  0  0  0  0  0  0  0  0  0  0
   -5.8859   -0.6282    3.6744 H   0  0  0  0  0  0  0  0  0  0  0  0
   -4.9689   -1.7476    4.6964 H   0  0  0  0  0  0  0  0  0  0  0  0
   -5.3180   -3.3372    3.0472 H   0  0  0  0  0  0  0  0  0  0  0  0
   -5.8606   -2.0368    1.8510 H   0  0  0  0  0  0  0  0  0  0  0  0
   -3.7140   -2.6981    0.9510 H   0  0  0  0  0  0  0  0  0  0  0  0
   -2.9838   -2.8290    2.6121 H   0  0  0  0  0  0  0  0  0  0  0  0
   -3.9421   -1.4139   -2.5242 H   0  0  0  0  0  0  0  0  0  0  0  0
   -3.4720   -0.5835   -4.0917 H   0  0  0  0  0  0  0  0  0  0  0  0
   -5.2234   -0.8182   -3.6812 H   0  0  0  0  0  0  0  0  0  0  0  0
   -5.6732    1.8336   -1.4343 H   0  0  0  0  0  0  0  0  0  0  0  0
   -6.0374    0.0547   -1.5450 H   0  0  0  0  0  0  0  0  0  0  0  0
   -6.2440    1.1173   -3.0230 H   0  0  0  0  0  0  0  0  0  0  0  0
   -3.0226    1.5171   -4.1133 H   0  0  0  0  0  0  0  0  0  0  0  0
   -3.6587    2.7079   -2.8323 H   0  0  0  0  0  0  0  0  0  0  0  0
   -4.7855    2.0386   -4.0251 H   0  0  0  0  0  0  0  0  0  0  0  0
    4.3548    2.1096   -0.8404 H   0  0  0  0  0  0  0  0  0  0  0  0
    6.1967    0.7960   -1.7352 H   0  0  0  0  0  0  0  0  0  0  0  0
    6.8151   -2.7480   -0.7702 H   0  0  0  0  0  0  0  0  0  0  0  0
    6.4709   -0.6786   -3.6443 H   0  0  0  0  0  0  0  0  0  0  0  0
    7.7643    0.6047   -3.6359 H   0  0  0  0  0  0  0  0  0  0  0  0
    8.0611   -0.9991   -4.3900 H   0  0  0  0  0  0  0  0  0  0  0  0
    3.2569   -1.0990    1.7352 H   0  0  0  0  0  0  0  0  0  0  0  0
  1  2  1  0
  2  3  1  0
  3  4  2  0
  3  5  1  0
  5  6  1  0
  6  7  1  0
  7  8  2  0
  8  9  1  0
  9 10  2  0
 10 11  1  0
 11 12  2  0
 12 13  1  0
 13 14  1  0
 14 15  1  0
 15 16  1  0
 16 17  1  0
 10 18  1  0
 18 19  1  0
 18 20  1  0
 18 21  1  0
  2 22  1  0
 22 23  2  0
 23 24  1  0
 24 25  2  0
 25 26  1  0
 26 27  1  0
 27 28  1  0
 27 29  2  0
 27 30  2  0
 25 31  1  0
 31 32  1  0
 31 33  2  0
 12  7  1  0
 17 13  1  0
 33 22  1  0
  1 34  1  0
  1 35  1  0
  1 36  1  0
  2 37  1  0
  5 38  1  0
  6 39  1  0
  6 40  1  0
  8 41  1  0
  9 42  1  0
 14 43  1  0
 14 44  1  0
 15 45  1  0
 15 46  1  0
 16 47  1  0
 16 48  1  0
 17 49  1  0
 17 50  1  0
 19 51  1  0
 19 52  1  0
 19 53  1  0
 20 54  1  0
 20 55  1  0
 20 56  1  0
 21 57  1  0
 21 58  1  0
 21 59  1  0
 23 60  1  0
 24 61  1  0
 26 62  1  0
 28 63  1  0
 28 64  1  0
 28 65  1  0
 33 66  1  0
M  END
$$$$
[H]c1c([H])c([H])c(N([H])C(=O)N2C([H])([H])C([H])([H])OC(=O)C2([H])C([H])([H])[H])c(Br)c1[H]
     RDKit          3D

 31 32  0  0  0  0  0  0  0  0999 V2000
   -3.1681   -0.8282    1.6380 C   0  0  0  0  0  0  0  0  0  0  0  0
   -2.4703    0.4449    1.2193 C   0  0  0  0  0  0  0  0  0  0  0  0
   -1.4420    0.2069    0.2548 N   0  0  0  0  0  0  0  0  0  0  0  0
   -1.7545   -0.0317   -1.1411 C   0  0  0  0  0  0  0  0  0  0  0  0
   -3.1936    0.1398   -1.4735 C   0  0  0  0  0  0  0  0  0  0  0  0
   -3.8392    1.1260   -0.7008 O   0  0  0  0  0  0  0  0  0  0  0  0
   -3.5183    1.3380    0.6424 C   0  0  0  0  0  0  0  0  0  0  0  0
   -4.0651    2.2230    1.3483 O   0  0  0  0  0  0  0  0  0  0  0  0
   -0.0524    0.2000    0.6592 C   0  0  0  0  0  0  0  0  0  0  0  0
    0.1426    0.4113    1.8617 O   0  0  0  0  0  0  0  0  0  0  0  0
    0.9530   -0.0382   -0.3060 N   0  0  0  0  0  0  0  0  0  0  0  0
    2.3453   -0.0777   -0.0769 C   0  0  0  0  0  0  0  0  0  0  0  0
    2.9660    0.1089    1.1272 C   0  0  0  0  0  0  0  0  0  0  0  0
    4.3516    0.0537    1.2698 C   0  0  0  0  0  0  0  0  0  0  0  0
    5.1508   -0.1957    0.1782 C   0  0  0  0  0  0  0  0  0  0  0  0
    4.5196   -0.3829   -1.0318 C   0  0  0  0  0  0  0  0  0  0  0  0
    3.1557   -0.3330   -1.1960 C   0  0  0  0  0  0  0  0  0  0  0  0
    2.3792   -0.6077   -2.9250 Br  0  0  0  0  0  0  0  0  0  0  0  0
   -3.4672   -0.7158    2.6988 H   0  0  0  0  0  0  0  0  0  0  0  0
   -4.0953   -1.0104    1.0540 H   0  0  0  0  0  0  0  0  0  0  0  0
   -2.4716   -1.7099    1.6005 H   0  0  0  0  0  0  0  0  0  0  0  0
   -2.0387    0.9262    2.1230 H   0  0  0  0  0  0  0  0  0  0  0  0
   -1.1851    0.7213   -1.7597 H   0  0  0  0  0  0  0  0  0  0  0  0
   -1.3497   -1.0248   -1.3910 H   0  0  0  0  0  0  0  0  0  0  0  0
   -3.7272   -0.8181   -1.3088 H   0  0  0  0  0  0  0  0  0  0  0  0
   -3.3334    0.3890   -2.5446 H   0  0  0  0  0  0  0  0  0  0  0  0
    0.5701   -0.1987   -1.2910 H   0  0  0  0  0  0  0  0  0  0  0  0
    2.4300    0.3069    2.0252 H   0  0  0  0  0  0  0  0  0  0  0  0
    4.8339    0.2023    2.2245 H   0  0  0  0  0  0  0  0  0  0  0  0
    6.2407   -0.2428    0.2708 H   0  0  0  0  0  0  0  0  0  0  0  0
    5.1332   -0.5826   -1.9144 H   0  0  0  0  0  0  0  0  0  0  0  0
  1  2  1  0
  2  3  1  0
  3  4  1  0
  4  5  1  0
  5  6  1  0
  6  7  1  0
  7  8  2  0
  3  9  1  0
  9 10  2  0
  9 11  1  0
 11 12  1  0
 12 13  2  0
 13 14  1  0
 14 15  2  0
 15 16  1  0
 16 17  2  0
 17 18  1  0
  7  2  1  0
 17 12  1  0
  1 19  1  0
  1 20  1  0
  1 21  1  0
  2 22  1  0
  4 23  1  0
  4 24  1  0
  5 25  1  0
  5 26  1  0
 11 27  1  0
 13 28  1  0
 14 29  1  0
 15 30  1  0
 16 31  1  0
M  END
$$$$
[H]C1=C2C([H])([H])C([H])([H])[C@@]3([H])[C@]4([H])C([H])([H])[C@@]([H])(OC([H])([H])C([H])([H])[H])[C@@]4(C([H])([H])[H])C([H])([H])C([H])([H])[C@]3([H])[C@@]2(C([H])([H])[H])C([H])([H])C([H])([H])C1=O
     RDKit          3D

 52 55  0  0  0  0  0  0  0  0999 V2000
    5.2731   -0.2236    0.9452 C   0  0  0  0  0  0  0  0  0  0  0  0
    4.4488    0.0528    2.1906 C   0  0  0  0  0  0  0  0  0  0  0  0
    3.0819    0.0428    1.9176 O   0  0  0  0  0  0  0  0  0  0  0  0
    2.7689    1.0086    0.9799 C   0  0  2  0  0  0  0  0  0  0  0  0
    1.5706    1.8352    1.5140 C   0  0  0  0  0  0  0  0  0  0  0  0
    0.7681    0.7220    1.0189 C   0  0  1  0  0  0  0  0  0  0  0  0
   -0.5532    0.8142    0.4007 C   0  0  2  0  0  0  0  0  0  0  0  0
   -1.6058    0.9403    1.4615 C   0  0  0  0  0  0  0  0  0  0  0  0
   -2.9933    0.6294    1.0492 C   0  0  0  0  0  0  0  0  0  0  0  0
   -3.1342   -0.3822   -0.0184 C   0  0  0  0  0  0  0  0  0  0  0  0
   -4.2103   -1.1521    0.0043 C   0  0  0  0  0  0  0  0  0  0  0  0
   -4.4243   -2.1863   -1.0272 C   0  0  0  0  0  0  0  0  0  0  0  0
   -5.1902   -3.1582   -0.8970 O   0  0  0  0  0  0  0  0  0  0  0  0
   -3.6264   -1.9768   -2.2871 C   0  0  0  0  0  0  0  0  0  0  0  0
   -2.2061   -1.7532   -1.8637 C   0  0  0  0  0  0  0  0  0  0  0  0
   -2.0682   -0.4778   -1.0483 C   0  0  1  0  0  0  0  0  0  0  0  0
   -2.1297    0.6832   -2.0171 C   0  0  0  0  0  0  0  0  0  0  0  0
   -0.7739   -0.5108   -0.3163 C   0  0  1  0  0  0  0  0  0  0  0  0
    0.3353   -0.9192   -1.2093 C   0  0  0  0  0  0  0  0  0  0  0  0
    1.7195   -0.7846   -0.5618 C   0  0  0  0  0  0  0  0  0  0  0  0
    1.8122    0.6038   -0.1003 C   0  0  2  0  0  0  0  0  0  0  0  0
    1.7495    1.6359   -1.1662 C   0  0  0  0  0  0  0  0  0  0  0  0
    5.5422   -1.3009    0.9297 H   0  0  0  0  0  0  0  0  0  0  0  0
    4.7209   -0.0147    0.0205 H   0  0  0  0  0  0  0  0  0  0  0  0
    6.2203    0.3846    0.9563 H   0  0  0  0  0  0  0  0  0  0  0  0
    4.7367    1.0260    2.6241 H   0  0  0  0  0  0  0  0  0  0  0  0
    4.6569   -0.7370    2.9593 H   0  0  0  0  0  0  0  0  0  0  0  0
    3.5921    1.6149    0.6017 H   0  0  0  0  0  0  0  0  0  0  0  0
    1.6299    1.9364    2.6377 H   0  0  0  0  0  0  0  0  0  0  0  0
    1.4834    2.8262    1.0735 H   0  0  0  0  0  0  0  0  0  0  0  0
    0.8614   -0.1757    1.6647 H   0  0  0  0  0  0  0  0  0  0  0  0
   -0.6775    1.6751   -0.2855 H   0  0  0  0  0  0  0  0  0  0  0  0
   -1.5958    1.9639    1.9382 H   0  0  0  0  0  0  0  0  0  0  0  0
   -1.3468    0.2528    2.3200 H   0  0  0  0  0  0  0  0  0  0  0  0
   -3.4378    1.5797    0.6271 H   0  0  0  0  0  0  0  0  0  0  0  0
   -3.6635    0.3998    1.9237 H   0  0  0  0  0  0  0  0  0  0  0  0
   -4.9885   -1.0820    0.7580 H   0  0  0  0  0  0  0  0  0  0  0  0
   -4.0925   -1.1037   -2.7820 H   0  0  0  0  0  0  0  0  0  0  0  0
   -3.7190   -2.8243   -2.9682 H   0  0  0  0  0  0  0  0  0  0  0  0
   -1.9479   -2.5859   -1.1497 H   0  0  0  0  0  0  0  0  0  0  0  0
   -1.4961   -1.6831   -2.6913 H   0  0  0  0  0  0  0  0  0  0  0  0
   -2.9409    0.5758   -2.7646 H   0  0  0  0  0  0  0  0  0  0  0  0
   -2.3546    1.6449   -1.4679 H   0  0  0  0  0  0  0  0  0  0  0  0
   -1.1892    0.7687   -2.5968 H   0  0  0  0  0  0  0  0  0  0  0  0
   -0.8729   -1.2959    0.4786 H   0  0  0  0  0  0  0  0  0  0  0  0
    0.4089   -0.4099   -2.1724 H   0  0  0  0  0  0  0  0  0  0  0  0
    0.2223   -2.0029   -1.4237 H   0  0  0  0  0  0  0  0  0  0  0  0
    2.4565   -1.1062   -1.3130 H   0  0  0  0  0  0  0  0  0  0  0  0
    1.7318   -1.4655    0.3181 H   0  0  0  0  0  0  0  0  0  0  0  0
    2.4878    1.3043   -1.9562 H   0  0  0  0  0  0  0  0  0  0  0  0
    2.1598    2.6359   -0.8406 H   0  0  0  0  0  0  0  0  0  0  0  0
    0.7997    1.7552   -1.6833 H   0  0  0  0  0  0  0  0  0  0  0  0
  1  2  1  0
  2  3  1  0
  3  4  1  0
  4  5  1  0
  5  6  1  0
  6  7  1  0
  7  8  1  0
  8  9  1  0
  9 10  1  0
 10 11  2  0
 11 12  1  0
 12 13  2  0
 12 14  1  0
 14 15  1  0
 15 16  1  0
 16 17  1  6
 16 18  1  0
 18 19  1  0
 19 20  1  0
 20 21  1  0
 21 22  1  6
 21  4  1  0
 21  6  1  0
 18  7  1  0
 16 10  1  0
  1 23  1  0
  1 24  1  0
  1 25  1  0
  2 26  1  0
  2 27  1  0
  4 28  1  6
  5 29  1  0
  5 30  1  0
  6 31  1  1
  7 32  1  6
  8 33  1  0
  8 34  1  0
  9 35  1  0
  9 36  1  0
 11 37  1  0
 14 38  1  0
 14 39  1  0
 15 40  1  0
 15 41  1  0
 17 42  1  0
 17 43  1  0
 17 44  1  0
 18 45  1  1
 19 46  1  0
 19 47  1  0
 20 48  1  0
 20 49  1  0
 22 50  1  0
 22 51  1  0
 22 52  1  0
M  END
$$$$
[H]c1nc(Oc2c([H])c([H])c(N([H])C(=S)N([H])C(=O)c3c([H])c([H])c([H])c([H])c3[H])c([H])c2[H])c2c([H])c(OC([H])([H])[H])c(OC([H])([H])[H])c([H])c2n1
     RDKit          3D

 53 56  0  0  0  0  0  0  0  0999 V2000
   -6.9796    3.1861    1.1809 C   0  0  0  0  0  0  0  0  0  0  0  0
   -6.0167    2.9455    0.1809 O   0  0  0  0  0  0  0  0  0  0  0  0
   -5.4807    1.6775   -0.0306 C   0  0  0  0  0  0  0  0  0  0  0  0
   -5.9037    0.6315    0.7598 C   0  0  0  0  0  0  0  0  0  0  0  0
   -5.3916   -0.6584    0.5821 C   0  0  0  0  0  0  0  0  0  0  0  0
   -5.7766   -1.6898    1.3258 N   0  0  0  0  0  0  0  0  0  0  0  0
   -5.2695   -2.9207    1.1359 C   0  0  0  0  0  0  0  0  0  0  0  0
   -4.3440   -3.1326    0.1689 N   0  0  0  0  0  0  0  0  0  0  0  0
   -3.9253   -2.1216   -0.6063 C   0  0  0  0  0  0  0  0  0  0  0  0
   -2.9839   -2.2658   -1.6113 O   0  0  0  0  0  0  0  0  0  0  0  0
   -1.6629   -1.9747   -1.3149 C   0  0  0  0  0  0  0  0  0  0  0  0
   -0.6998   -2.1139   -2.2882 C   0  0  0  0  0  0  0  0  0  0  0  0
    0.6438   -1.8161   -1.9826 C   0  0  0  0  0  0  0  0  0  0  0  0
    1.0320   -1.3918   -0.7548 C   0  0  0  0  0  0  0  0  0  0  0  0
    2.3425   -1.0320   -0.3608 N   0  0  0  0  0  0  0  0  0  0  0  0
    3.3472   -0.4429   -1.1261 C   0  0  0  0  0  0  0  0  0  0  0  0
    2.9978   -0.0091   -2.7057 S   0  0  0  0  0  0  0  0  0  0  0  0
    4.6529   -0.1142   -0.7155 N   0  0  0  0  0  0  0  0  0  0  0  0
    5.2747   -0.3295    0.5237 C   0  0  0  0  0  0  0  0  0  0  0  0
    4.6927   -0.8804    1.4687 O   0  0  0  0  0  0  0  0  0  0  0  0
    6.6639    0.0861    0.7825 C   0  0  0  0  0  0  0  0  0  0  0  0
    7.3474   -0.4089    1.8947 C   0  0  0  0  0  0  0  0  0  0  0  0
    8.6421   -0.0399    2.1718 C   0  0  0  0  0  0  0  0  0  0  0  0
    9.3223    0.8392    1.3579 C   0  0  0  0  0  0  0  0  0  0  0  0
    8.6686    1.3390    0.2571 C   0  0  0  0  0  0  0  0  0  0  0  0
    7.3571    0.9635   -0.0211 C   0  0  0  0  0  0  0  0  0  0  0  0
    0.0349   -1.2593    0.2161 C   0  0  0  0  0  0  0  0  0  0  0  0
   -1.2803   -1.5455   -0.0631 C   0  0  0  0  0  0  0  0  0  0  0  0
   -4.4498   -0.8603   -0.4063 C   0  0  0  0  0  0  0  0  0  0  0  0
   -4.0454    0.2020   -1.1811 C   0  0  0  0  0  0  0  0  0  0  0  0
   -4.5344    1.4794   -1.0254 C   0  0  0  0  0  0  0  0  0  0  0  0
   -4.1228    2.5531   -1.8121 O   0  0  0  0  0  0  0  0  0  0  0  0
   -3.1504    2.3156   -2.8258 C   0  0  0  0  0  0  0  0  0  0  0  0
   -6.7361    2.6713    2.1158 H   0  0  0  0  0  0  0  0  0  0  0  0
   -7.9829    2.8746    0.8215 H   0  0  0  0  0  0  0  0  0  0  0  0
   -6.9976    4.2961    1.3840 H   0  0  0  0  0  0  0  0  0  0  0  0
   -6.6363    0.7208    1.5490 H   0  0  0  0  0  0  0  0  0  0  0  0
   -5.5604   -3.7864    1.7240 H   0  0  0  0  0  0  0  0  0  0  0  0
   -0.9378   -2.4458   -3.2852 H   0  0  0  0  0  0  0  0  0  0  0  0
    1.3947   -1.9588   -2.7606 H   0  0  0  0  0  0  0  0  0  0  0  0
    2.6136   -1.2317    0.6609 H   0  0  0  0  0  0  0  0  0  0  0  0
    5.2644    0.3662   -1.4520 H   0  0  0  0  0  0  0  0  0  0  0  0
    6.7982   -1.1071    2.5348 H   0  0  0  0  0  0  0  0  0  0  0  0
    9.1516   -0.4378    3.0418 H   0  0  0  0  0  0  0  0  0  0  0  0
   10.3534    1.1214    1.5948 H   0  0  0  0  0  0  0  0  0  0  0  0
    9.2060    2.0281   -0.3788 H   0  0  0  0  0  0  0  0  0  0  0  0
    6.8729    1.3786   -0.8928 H   0  0  0  0  0  0  0  0  0  0  0  0
    0.3179   -0.9203    1.2160 H   0  0  0  0  0  0  0  0  0  0  0  0
   -2.0040   -1.4190    0.7451 H   0  0  0  0  0  0  0  0  0  0  0  0
   -3.3130    0.0394   -1.9478 H   0  0  0  0  0  0  0  0  0  0  0  0
   -2.9990    3.1830   -3.4695 H   0  0  0  0  0  0  0  0  0  0  0  0
   -3.5996    1.5198   -3.4766 H   0  0  0  0  0  0  0  0  0  0  0  0
   -2.2082    1.8963   -2.4291 H   0  0  0  0  0  0  0  0  0  0  0  0
  1  2  1  0
  2  3  1  0
  3  4  2  0
  4  5  1  0
  5  6  2  0
  6  7  1  0
  7  8  2  0
  8  9  1  0
  9 10  1  0
 10 11  1  0
 11 12  2  0
 12 13  1  0
 13 14  2  0
 14 15  1  0
 15 16  1  0
 16 17  2  0
 16 18  1  0
 18 19  1  0
 19 20  2  0
 19 21  1  0
 21 22  2  0
 22 23  1  0
 23 24  2  0
 24 25  1  0
 25 26  2  0
 14 27  1  0
 27 28  2  0
  9 29  2  0
 29 30  1  0
 30 31  2  0
 31 32  1  0
 32 33  1  0
 31  3  1  0
 29  5  1  0
 28 11  1  0
 26 21  1  0
  1 34  1  0
  1 35  1  0
  1 36  1  0
  4 37  1  0
  7 38  1  0
 12 39  1  0
 13 40  1  0
 15 41  1  0
 18 42  1  0
 22 43  1  0
 23 44  1  0
 24 45  1  0
 25 46  1  0
 26 47  1  0
 27 48  1  0
 28 49  1  0
 30 50  1  0
 33 51  1  0
 33 52  1  0
 33 53  1  0
M  END
$$$$
[H]OP(=O)(OC([H])([H])[C@@]1([H])O[C@@]([H])(C(=O)[C@]([H])(C(=O)[C@@]([H])(N([H])[H])C([H])([H])N([H])[H])N([H])C(=O)c2c([H])c([H])c(Br)c([H])c2[H])C([H])([H])N1[H])C([H])([H])c1snc(C([H])([H])[H])c1[H]
     RDKit          3D

 63 65  0  0  0  0  0  0  0  0999 V2000
    9.6805   -1.0547    1.2298 C   0  0  0  0  0  0  0  0  0  0  0  0
    8.4105   -0.7982    0.4261 C   0  0  0  0  0  0  0  0  0  0  0  0
    7.9657    0.4465    0.1428 C   0  0  0  0  0  0  0  0  0  0  0  0
    6.8140    0.5317   -0.5935 C   0  0  0  0  0  0  0  0  0  0  0  0
    6.1016    1.7685   -1.0789 C   0  0  0  0  0  0  0  0  0  0  0  0
    4.9477    2.3882    0.1288 P   0  0  0  0  0  0  0  0  0  0  0  0
    4.2877    3.8343   -0.4991 O   0  0  0  0  0  0  0  0  0  0  0  0
    5.7464    2.7385    1.3877 O   0  0  0  0  0  0  0  0  0  0  0  0
    3.6730    1.3701    0.4801 O   0  0  0  0  0  0  0  0  0  0  0  0
    3.0159    1.0176   -0.6702 C   0  0  0  0  0  0  0  0  0  0  0  0
    1.8660    0.0920   -0.4579 C   0  0  1  0  0  0  0  0  0  0  0  0
    0.7964    0.6435    0.2421 O   0  0  0  0  0  0  0  0  0  0  0  0
   -0.2155   -0.3061   -0.0165 C   0  0  2  0  0  0  0  0  0  0  0  0
   -0.1125   -0.4399   -1.5239 C   0  0  0  0  0  0  0  0  0  0  0  0
    1.2903   -0.2038   -1.7798 N   0  0  0  0  0  0  0  0  0  0  0  0
   -1.5220    0.2169    0.4101 C   0  0  0  0  0  0  0  0  0  0  0  0
   -1.6020    1.4164    0.7776 O   0  0  0  0  0  0  0  0  0  0  0  0
   -2.7915   -0.5238    0.4599 C   0  0  1  0  0  0  0  0  0  0  0  0
   -3.9113    0.3905    0.4059 N   0  0  0  0  0  0  0  0  0  0  0  0
   -4.8005    0.6214    1.4689 C   0  0  0  0  0  0  0  0  0  0  0  0
   -4.6228   -0.0068    2.5396 O   0  0  0  0  0  0  0  0  0  0  0  0
   -5.9065    1.5539    1.3744 C   0  0  0  0  0  0  0  0  0  0  0  0
   -6.7975    1.6798    2.4126 C   0  0  0  0  0  0  0  0  0  0  0  0
   -7.8788    2.5479    2.3977 C   0  0  0  0  0  0  0  0  0  0  0  0
   -8.0986    3.3447    1.2893 C   0  0  0  0  0  0  0  0  0  0  0  0
   -9.5779    4.5385    1.2576 Br  0  0  0  0  0  0  0  0  0  0  0  0
   -7.2122    3.2308    0.2371 C   0  0  0  0  0  0  0  0  0  0  0  0
   -6.1269    2.3551    0.2602 C   0  0  0  0  0  0  0  0  0  0  0  0
   -2.8309   -1.6490   -0.4249 C   0  0  0  0  0  0  0  0  0  0  0  0
   -3.2739   -1.3662   -1.5719 O   0  0  0  0  0  0  0  0  0  0  0  0
   -2.4738   -3.0450   -0.2935 C   0  0  1  0  0  0  0  0  0  0  0  0
   -2.5113   -3.4562    1.0907 N   0  0  0  0  0  0  0  0  0  0  0  0
   -3.1023   -4.0617   -1.1536 C   0  0  0  0  0  0  0  0  0  0  0  0
   -2.8713   -3.8755   -2.5839 N   0  0  0  0  0  0  0  0  0  0  0  0
    6.4148   -1.1072   -0.8475 S   0  0  0  0  0  0  0  0  0  0  0  0
    7.6908   -1.8214   -0.0331 N   0  0  0  0  0  0  0  0  0  0  0  0
    9.9971   -0.1384    1.7490 H   0  0  0  0  0  0  0  0  0  0  0  0
   10.4797   -1.4021    0.5565 H   0  0  0  0  0  0  0  0  0  0  0  0
    9.4626   -1.8901    1.9257 H   0  0  0  0  0  0  0  0  0  0  0  0
    8.4948    1.3718    0.4804 H   0  0  0  0  0  0  0  0  0  0  0  0
    6.8171    2.5508   -1.3545 H   0  0  0  0  0  0  0  0  0  0  0  0
    5.6149    1.4579   -2.0374 H   0  0  0  0  0  0  0  0  0  0  0  0
    3.9204    4.3868    0.2305 H   0  0  0  0  0  0  0  0  0  0  0  0
    2.6242    1.9104   -1.2078 H   0  0  0  0  0  0  0  0  0  0  0  0
    3.7296    0.5037   -1.3489 H   0  0  0  0  0  0  0  0  0  0  0  0
    2.1669   -0.8273    0.0768 H   0  0  0  0  0  0  0  0  0  0  0  0
    0.0088   -1.2700    0.4373 H   0  0  0  0  0  0  0  0  0  0  0  0
   -0.6752    0.3866   -2.0416 H   0  0  0  0  0  0  0  0  0  0  0  0
   -0.4370   -1.4180   -1.9091 H   0  0  0  0  0  0  0  0  0  0  0  0
    1.7060   -1.1179   -2.0717 H   0  0  0  0  0  0  0  0  0  0  0  0
   -2.8271   -0.9394    1.5217 H   0  0  0  0  0  0  0  0  0  0  0  0
   -4.0579    0.9025   -0.4787 H   0  0  0  0  0  0  0  0  0  0  0  0
   -6.6178    1.0550    3.2803 H   0  0  0  0  0  0  0  0  0  0  0  0
   -8.5641    2.6240    3.2369 H   0  0  0  0  0  0  0  0  0  0  0  0
   -7.4210    3.8724   -0.6177 H   0  0  0  0  0  0  0  0  0  0  0  0
   -5.4674    2.3019   -0.5741 H   0  0  0  0  0  0  0  0  0  0  0  0
   -1.3546   -3.1016   -0.5476 H   0  0  0  0  0  0  0  0  0  0  0  0
   -1.9995   -2.8357    1.7279 H   0  0  0  0  0  0  0  0  0  0  0  0
   -3.4495   -3.7489    1.4151 H   0  0  0  0  0  0  0  0  0  0  0  0
   -2.5884   -5.0462   -0.9188 H   0  0  0  0  0  0  0  0  0  0  0  0
   -4.1731   -4.2796   -0.9332 H   0  0  0  0  0  0  0  0  0  0  0  0
   -2.1227   -4.4930   -2.9370 H   0  0  0  0  0  0  0  0  0  0  0  0
   -3.7284   -3.8271   -3.1476 H   0  0  0  0  0  0  0  0  0  0  0  0
  1  2  1  0
  2  3  1  0
  3  4  2  0
  4  5  1  0
  5  6  1  0
  6  7  1  0
  6  8  2  0
  6  9  1  0
  9 10  1  0
 10 11  1  0
 11 12  1  0
 12 13  1  0
 13 14  1  0
 14 15  1  0
 13 16  1  0
 16 17  2  0
 16 18  1  0
 18 19  1  0
 19 20  1  0
 20 21  2  0
 20 22  1  0
 22 23  2  0
 23 24  1  0
 24 25  2  0
 25 26  1  0
 25 27  1  0
 27 28  2  0
 18 29  1  0
 29 30  2  0
 29 31  1  0
 31 32  1  0
 31 33  1  0
 33 34  1  0
  4 35  1  0
 35 36  1  0
 36  2  2  0
 15 11  1  0
 28 22  1  0
  1 37  1  0
  1 38  1  0
  1 39  1  0
  3 40  1  0
  5 41  1  0
  5 42  1  0
  7 43  1  0
 10 44  1  0
 10 45  1  0
 11 46  1  1
 13 47  1  1
 14 48  1  0
 14 49  1  0
 15 50  1  0
 18 51  1  1
 19 52  1  0
 23 53  1  0
 24 54  1  0
 27 55  1  0
 28 56  1  0
 31 57  1  6
 32 58  1  0
 32 59  1  0
 33 60  1  0
 33 61  1  0
 34 62  1  0
 34 63  1  0
M  END
$$$$
[H]c1c(C([H])([H])[H])c([H])c(S(=O)(=O)N2C([H])([H])C([H])([H])C([H])(C(=O)N([H])C3([H])C([H])([H])C([H])([H])C([H])([H])C([H])([H])C3([H])[H])C([H])([H])C2([H])[H])c([H])c1C([H])([H])[H]
     RDKit          3D

 56 58  0  0  0  0  0  0  0  0999 V2000
   -5.8077    2.9861   -0.6317 C   0  0  0  0  0  0  0  0  0  0  0  0
   -5.4599    1.5991   -0.2258 C   0  0  0  0  0  0  0  0  0  0  0  0
   -6.0663    0.5336   -0.8425 C   0  0  0  0  0  0  0  0  0  0  0  0
   -5.7866   -0.7748   -0.5111 C   0  0  0  0  0  0  0  0  0  0  0  0
   -6.4806   -1.8643   -1.2197 C   0  0  0  0  0  0  0  0  0  0  0  0
   -4.8653   -1.0177    0.4744 C   0  0  0  0  0  0  0  0  0  0  0  0
   -4.2346    0.0273    1.1174 C   0  0  0  0  0  0  0  0  0  0  0  0
   -4.5362    1.3443    0.7626 C   0  0  0  0  0  0  0  0  0  0  0  0
   -3.0747   -0.3438    2.3611 S   0  0  0  0  0  0  0  0  0  0  0  0
   -3.0684    0.8341    3.3179 O   0  0  0  0  0  0  0  0  0  0  0  0
   -3.5476   -1.5239    3.1187 O   0  0  0  0  0  0  0  0  0  0  0  0
   -1.4790   -0.5155    1.7621 N   0  0  0  0  0  0  0  0  0  0  0  0
   -0.9593    0.6480    1.1531 C   0  0  0  0  0  0  0  0  0  0  0  0
    0.2054    0.5141    0.2756 C   0  0  0  0  0  0  0  0  0  0  0  0
    0.7760   -0.8384    0.0767 C   0  0  0  0  0  0  0  0  0  0  0  0
    0.2983   -1.8941    1.0036 C   0  0  0  0  0  0  0  0  0  0  0  0
   -1.1941   -1.7554    1.1554 C   0  0  0  0  0  0  0  0  0  0  0  0
    2.2859   -0.8232    0.1597 C   0  0  0  0  0  0  0  0  0  0  0  0
    2.8932   -1.4905    1.0208 O   0  0  0  0  0  0  0  0  0  0  0  0
    3.0372   -0.0411   -0.7510 N   0  0  0  0  0  0  0  0  0  0  0  0
    4.4782   -0.0435   -0.6506 C   0  0  0  0  0  0  0  0  0  0  0  0
    4.9882    1.3638   -0.4414 C   0  0  0  0  0  0  0  0  0  0  0  0
    6.4874    1.3357   -0.2632 C   0  0  0  0  0  0  0  0  0  0  0  0
    7.0917    0.0254   -0.6888 C   0  0  0  0  0  0  0  0  0  0  0  0
    6.5233   -0.4820   -1.9921 C   0  0  0  0  0  0  0  0  0  0  0  0
    5.0161   -0.5016   -2.0058 C   0  0  0  0  0  0  0  0  0  0  0  0
   -5.3601    3.7325    0.0404 H   0  0  0  0  0  0  0  0  0  0  0  0
   -6.9026    3.1329   -0.5911 H   0  0  0  0  0  0  0  0  0  0  0  0
   -5.4308    3.1031   -1.6772 H   0  0  0  0  0  0  0  0  0  0  0  0
   -6.8022    0.7234   -1.6294 H   0  0  0  0  0  0  0  0  0  0  0  0
   -7.4864   -1.9898   -0.7789 H   0  0  0  0  0  0  0  0  0  0  0  0
   -5.9523   -2.8172   -1.1021 H   0  0  0  0  0  0  0  0  0  0  0  0
   -6.6088   -1.6656   -2.2992 H   0  0  0  0  0  0  0  0  0  0  0  0
   -4.6243   -2.0379    0.7571 H   0  0  0  0  0  0  0  0  0  0  0  0
   -4.0274    2.1443    1.2827 H   0  0  0  0  0  0  0  0  0  0  0  0
   -1.8082    1.1261    0.5754 H   0  0  0  0  0  0  0  0  0  0  0  0
   -0.7754    1.3997    1.9804 H   0  0  0  0  0  0  0  0  0  0  0  0
    0.0048    0.9594   -0.7451 H   0  0  0  0  0  0  0  0  0  0  0  0
    1.0397    1.1697    0.6704 H   0  0  0  0  0  0  0  0  0  0  0  0
    0.5741   -1.2064   -0.9738 H   0  0  0  0  0  0  0  0  0  0  0  0
    0.5190   -2.8970    0.5898 H   0  0  0  0  0  0  0  0  0  0  0  0
    0.8341   -1.8100    1.9697 H   0  0  0  0  0  0  0  0  0  0  0  0
   -1.6144   -2.5702    1.7514 H   0  0  0  0  0  0  0  0  0  0  0  0
   -1.6321   -1.8356    0.1392 H   0  0  0  0  0  0  0  0  0  0  0  0
    2.5208    0.5141   -1.4688 H   0  0  0  0  0  0  0  0  0  0  0  0
    4.8368   -0.6818    0.1636 H   0  0  0  0  0  0  0  0  0  0  0  0
    4.7289    1.9398   -1.3553 H   0  0  0  0  0  0  0  0  0  0  0  0
    4.4612    1.8149    0.4027 H   0  0  0  0  0  0  0  0  0  0  0  0
    6.9941    2.1943   -0.7519 H   0  0  0  0  0  0  0  0  0  0  0  0
    6.6846    1.4458    0.8310 H   0  0  0  0  0  0  0  0  0  0  0  0
    8.1799    0.2143   -0.8725 H   0  0  0  0  0  0  0  0  0  0  0  0
    7.0439   -0.7353    0.1117 H   0  0  0  0  0  0  0  0  0  0  0  0
    6.9566    0.0516   -2.8628 H   0  0  0  0  0  0  0  0  0  0  0  0
    6.8588   -1.5451   -2.0921 H   0  0  0  0  0  0  0  0  0  0  0  0
    4.5818   -1.4545   -2.3171 H   0  0  0  0  0  0  0  0  0  0  0  0
    4.6854    0.2786   -2.7367 H   0  0  0  0  0  0  0  0  0  0  0  0
  1  2  1  0
  2  3  2  0
  3  4  1  0
  4  5  1  0
  4  6  2  0
  6  7  1  0
  7  8  2  0
  7  9  1  0
  9 10  2  0
  9 11  2  0
  9 12  1  0
 12 13  1  0
 13 14  1  0
 14 15  1  0
 15 16  1  0
 16 17  1  0
 15 18  1  0
 18 19  2  0
 18 20  1  0
 20 21  1  0
 21 22  1  0
 22 23  1  0
 23 24  1  0
 24 25  1  0
 25 26  1  0
  8  2  1  0
 17 12  1  0
 26 21  1  0
  1 27  1  0
  1 28  1  0
  1 29  1  0
  3 30  1  0
  5 31  1  0
  5 32  1  0
  5 33  1  0
  6 34  1  0
  8 35  1  0
 13 36  1  0
 13 37  1  0
 14 38  1  0
 14 39  1  0
 15 40  1  0
 16 41  1  0
 16 42  1  0
 17 43  1  0
 17 44  1  0
 20 45  1  0
 21 46  1  0
 22 47  1  0
 22 48  1  0
 23 49  1  0
 23 50  1  0
 24 51  1  0
 24 52  1  0
 25 53  1  0
 25 54  1  0
 26 55  1  0
 26 56  1  0
M  END
$$$$
[H]OS(=O)(=O)c1c([H])c([H])c2c(c1[H])/C(=C(\[H])c1c([H])c3c([H])c(C(=O)N([H])[H])c([H])c([H])c3n1[H])C(=O)N2[H]
     RDKit          3D

 40 43  0  0  0  0  0  0  0  0999 V2000
   -6.8387    2.3884    0.1884 N   0  0  0  0  0  0  0  0  0  0  0  0
   -6.7141    1.0121   -0.0818 C   0  0  0  0  0  0  0  0  0  0  0  0
   -7.6917    0.2549   -0.2238 O   0  0  0  0  0  0  0  0  0  0  0  0
   -5.3653    0.4244   -0.2054 C   0  0  0  0  0  0  0  0  0  0  0  0
   -5.2433   -0.9328   -0.4732 C   0  0  0  0  0  0  0  0  0  0  0  0
   -4.0144   -1.5370   -0.5992 C   0  0  0  0  0  0  0  0  0  0  0  0
   -2.8922   -0.7150   -0.4440 C   0  0  0  0  0  0  0  0  0  0  0  0
   -1.6050   -1.0399   -0.5157 N   0  0  0  0  0  0  0  0  0  0  0  0
   -0.8620    0.0354   -0.3076 C   0  0  0  0  0  0  0  0  0  0  0  0
    0.5797    0.1619   -0.2700 C   0  0  0  0  0  0  0  0  0  0  0  0
    1.3119   -0.5191    0.5833 C   0  0  0  0  0  0  0  0  0  0  0  0
    0.9116   -1.4661    1.6047 C   0  0  0  0  0  0  0  0  0  0  0  0
   -0.2635   -1.8087    1.8977 O   0  0  0  0  0  0  0  0  0  0  0  0
    2.1197   -1.9298    2.2147 N   0  0  0  0  0  0  0  0  0  0  0  0
    3.2421   -1.3195    1.6260 C   0  0  0  0  0  0  0  0  0  0  0  0
    4.6143   -1.4044    1.8294 C   0  0  0  0  0  0  0  0  0  0  0  0
    5.4702   -0.6521    1.0621 C   0  0  0  0  0  0  0  0  0  0  0  0
    5.0402    0.2050    0.0762 C   0  0  0  0  0  0  0  0  0  0  0  0
    3.6838    0.2874   -0.1231 C   0  0  0  0  0  0  0  0  0  0  0  0
    2.8034   -0.4693    0.6470 C   0  0  0  0  0  0  0  0  0  0  0  0
    6.1787    1.1467   -0.8791 S   0  0  0  0  0  0  0  0  0  0  0  0
    6.6620    0.3289   -2.2511 O   0  0  0  0  0  0  0  0  0  0  0  0
    7.3695    1.4356    0.0134 O   0  0  0  0  0  0  0  0  0  0  0  0
    5.5659    2.4705   -1.2131 O   0  0  0  0  0  0  0  0  0  0  0  0
   -1.7222    1.0897   -0.0954 C   0  0  0  0  0  0  0  0  0  0  0  0
   -3.0019    0.6174   -0.1812 C   0  0  0  0  0  0  0  0  0  0  0  0
   -4.2580    1.2267   -0.0540 C   0  0  0  0  0  0  0  0  0  0  0  0
   -6.8959    3.0625   -0.5956 H   0  0  0  0  0  0  0  0  0  0  0  0
   -6.8747    2.7434    1.1564 H   0  0  0  0  0  0  0  0  0  0  0  0
   -6.1383   -1.5451   -0.5884 H   0  0  0  0  0  0  0  0  0  0  0  0
   -3.8945   -2.5927   -0.8076 H   0  0  0  0  0  0  0  0  0  0  0  0
   -1.2160   -2.0210   -0.7263 H   0  0  0  0  0  0  0  0  0  0  0  0
    1.1073    0.8362   -0.9587 H   0  0  0  0  0  0  0  0  0  0  0  0
    2.1354   -2.6218    2.9840 H   0  0  0  0  0  0  0  0  0  0  0  0
    4.9795   -2.0597    2.5861 H   0  0  0  0  0  0  0  0  0  0  0  0
    6.5462   -0.7179    1.2207 H   0  0  0  0  0  0  0  0  0  0  0  0
    3.3134    0.9519   -0.8905 H   0  0  0  0  0  0  0  0  0  0  0  0
    7.6362    0.2641   -2.2442 H   0  0  0  0  0  0  0  0  0  0  0  0
   -1.4678    2.1377    0.1093 H   0  0  0  0  0  0  0  0  0  0  0  0
   -4.3115    2.2712    0.1519 H   0  0  0  0  0  0  0  0  0  0  0  0
  1  2  1  0
  2  3  2  0
  2  4  1  0
  4  5  2  0
  5  6  1  0
  6  7  2  0
  7  8  1  0
  8  9  1  0
  9 10  1  0
 10 11  2  0
 11 12  1  0
 12 13  2  0
 12 14  1  0
 14 15  1  0
 15 16  2  0
 16 17  1  0
 17 18  2  0
 18 19  1  0
 19 20  2  0
 18 21  1  0
 21 22  1  0
 21 23  2  0
 21 24  2  0
  9 25  2  0
 25 26  1  0
 26 27  2  0
 27  4  1  0
 26  7  1  0
 20 11  1  0
 20 15  1  0
  1 28  1  0
  1 29  1  0
  5 30  1  0
  6 31  1  0
  8 32  1  0
 10 33  1  0
 14 34  1  0
 16 35  1  0
 17 36  1  0
 19 37  1  0
 22 38  1  0
 25 39  1  0
 27 40  1  0
M  END
$$$$
[H]c1c(F)c([H])c(N([H])c2c([H])c([H])c3c(c2OC([H])([H])C([H])([H])C([H])([H])C([H])([H])[H])c(C([H])([H])C([H])([H])N([H])C(=O)OC([H])(C([H])([H])[H])C([H])([H])[H])c([H])n3[H])c([H])c1N([H])C(=O)OC([H])([H])[H]
     RDKit          3D

 69 71  0  0  0  0  0  0  0  0999 V2000
   -1.1334   -5.9372    0.2119 C   0  0  0  0  0  0  0  0  0  0  0  0
   -0.6088   -4.9357   -0.8184 C   0  0  0  0  0  0  0  0  0  0  0  0
   -0.4378   -3.6080   -0.1754 C   0  0  0  0  0  0  0  0  0  0  0  0
    0.1432   -2.5343   -1.1348 C   0  0  0  0  0  0  0  0  0  0  0  0
    0.1806   -1.3614   -0.4919 O   0  0  0  0  0  0  0  0  0  0  0  0
    0.4733   -0.0880   -0.4245 C   0  0  0  0  0  0  0  0  0  0  0  0
    1.7915    0.2378    0.0388 C   0  0  0  0  0  0  0  0  0  0  0  0
    2.6297   -0.8208    0.3633 N   0  0  0  0  0  0  0  0  0  0  0  0
    3.9900   -0.9885    0.4951 C   0  0  0  0  0  0  0  0  0  0  0  0
    4.4958   -2.2586    0.8231 C   0  0  0  0  0  0  0  0  0  0  0  0
    5.8372   -2.5225    0.9685 C   0  0  0  0  0  0  0  0  0  0  0  0
    6.3063   -3.7621    1.2821 F   0  0  0  0  0  0  0  0  0  0  0  0
    6.7477   -1.5096    0.7935 C   0  0  0  0  0  0  0  0  0  0  0  0
    6.3188   -0.2514    0.4812 C   0  0  0  0  0  0  0  0  0  0  0  0
    7.2889    0.7562    0.3336 N   0  0  0  0  0  0  0  0  0  0  0  0
    7.1360    2.1278    0.6389 C   0  0  0  0  0  0  0  0  0  0  0  0
    6.0484    2.5810    1.0935 O   0  0  0  0  0  0  0  0  0  0  0  0
    8.1684    3.0035    0.4519 O   0  0  0  0  0  0  0  0  0  0  0  0
    8.1267    4.3993    0.7402 C   0  0  0  0  0  0  0  0  0  0  0  0
    4.9461   -0.0315    0.3382 C   0  0  0  0  0  0  0  0  0  0  0  0
    2.1003    1.5599    0.1231 C   0  0  0  0  0  0  0  0  0  0  0  0
    1.2023    2.5660   -0.2235 C   0  0  0  0  0  0  0  0  0  0  0  0
   -0.0389    2.2516   -0.6663 C   0  0  0  0  0  0  0  0  0  0  0  0
   -1.0669    3.0341   -1.1016 N   0  0  0  0  0  0  0  0  0  0  0  0
   -2.0832    2.2950   -1.4813 C   0  0  0  0  0  0  0  0  0  0  0  0
   -1.6963    0.9403   -1.2839 C   0  0  0  0  0  0  0  0  0  0  0  0
   -2.5808   -0.1786   -1.5937 C   0  0  0  0  0  0  0  0  0  0  0  0
   -3.3475   -0.6465   -0.3786 C   0  0  0  0  0  0  0  0  0  0  0  0
   -4.1647    0.3544    0.1331 N   0  0  0  0  0  0  0  0  0  0  0  0
   -4.9503    1.3254    0.6296 C   0  0  0  0  0  0  0  0  0  0  0  0
   -4.6945    2.3774    1.2170 O   0  0  0  0  0  0  0  0  0  0  0  0
   -6.3738    1.1659    0.4837 O   0  0  0  0  0  0  0  0  0  0  0  0
   -7.2897    2.1202    0.9491 C   0  0  0  0  0  0  0  0  0  0  0  0
   -8.3120    1.4189    1.8144 C   0  0  0  0  0  0  0  0  0  0  0  0
   -8.0631    2.7516   -0.2104 C   0  0  0  0  0  0  0  0  0  0  0  0
   -0.4163    0.9181   -0.7703 C   0  0  0  0  0  0  0  0  0  0  0  0
   -0.5118   -6.8671    0.1487 H   0  0  0  0  0  0  0  0  0  0  0  0
   -0.9751   -5.4958    1.2224 H   0  0  0  0  0  0  0  0  0  0  0  0
   -2.1950   -6.1351    0.0204 H   0  0  0  0  0  0  0  0  0  0  0  0
    0.2738   -5.3176   -1.3431 H   0  0  0  0  0  0  0  0  0  0  0  0
   -1.4282   -4.8397   -1.5825 H   0  0  0  0  0  0  0  0  0  0  0  0
   -1.3217   -3.2520    0.3474 H   0  0  0  0  0  0  0  0  0  0  0  0
    0.3724   -3.7669    0.6148 H   0  0  0  0  0  0  0  0  0  0  0  0
   -0.4588   -2.5929   -2.0660 H   0  0  0  0  0  0  0  0  0  0  0  0
    1.1630   -2.9581   -1.4143 H   0  0  0  0  0  0  0  0  0  0  0  0
    2.0673   -1.7445    0.6179 H   0  0  0  0  0  0  0  0  0  0  0  0
    3.8352   -3.1098    0.9853 H   0  0  0  0  0  0  0  0  0  0  0  0
    7.8198   -1.6789    0.8738 H   0  0  0  0  0  0  0  0  0  0  0  0
    8.2227    0.4276   -0.0534 H   0  0  0  0  0  0  0  0  0  0  0  0
    8.9741    4.8859    0.2248 H   0  0  0  0  0  0  0  0  0  0  0  0
    7.1638    4.8151    0.3506 H   0  0  0  0  0  0  0  0  0  0  0  0
    8.1499    4.5693    1.8466 H   0  0  0  0  0  0  0  0  0  0  0  0
    4.7047    0.9520    0.0498 H   0  0  0  0  0  0  0  0  0  0  0  0
    3.0193    1.9245    0.5017 H   0  0  0  0  0  0  0  0  0  0  0  0
    1.4798    3.6164   -0.1440 H   0  0  0  0  0  0  0  0  0  0  0  0
   -1.0561    4.0914   -1.1235 H   0  0  0  0  0  0  0  0  0  0  0  0
   -3.0463    2.6249   -1.8663 H   0  0  0  0  0  0  0  0  0  0  0  0
   -2.1040   -0.9937   -2.1261 H   0  0  0  0  0  0  0  0  0  0  0  0
   -3.4247    0.2221   -2.2858 H   0  0  0  0  0  0  0  0  0  0  0  0
   -3.9781   -1.5709   -0.6945 H   0  0  0  0  0  0  0  0  0  0  0  0
   -2.6810   -1.0873    0.3828 H   0  0  0  0  0  0  0  0  0  0  0  0
   -3.0397    1.0091    0.5608 H   0  0  0  0  0  0  0  0  0  0  0  0
   -6.8347    2.9835    1.4740 H   0  0  0  0  0  0  0  0  0  0  0  0
   -8.1897    0.3107    1.7924 H   0  0  0  0  0  0  0  0  0  0  0  0
   -8.3178    1.7782    2.8738 H   0  0  0  0  0  0  0  0  0  0  0  0
   -9.3639    1.6640    1.4369 H   0  0  0  0  0  0  0  0  0  0  0  0
   -7.5865    3.6732   -0.5872 H   0  0  0  0  0  0  0  0  0  0  0  0
   -9.0383    3.0966    0.2573 H   0  0  0  0  0  0  0  0  0  0  0  0
   -8.3675    2.0163   -0.9641 H   0  0  0  0  0  0  0  0  0  0  0  0
  1  2  1  0
  2  3  1  0
  3  4  1  0
  4  5  1  0
  5  6  1  0
  6  7  2  0
  7  8  1  0
  8  9  1  0
  9 10  2  0
 10 11  1  0
 11 12  1  0
 11 13  2  0
 13 14  1  0
 14 15  1  0
 15 16  1  0
 16 17  2  0
 16 18  1  0
 18 19  1  0
 14 20  2  0
  7 21  1  0
 21 22  2  0
 22 23  1  0
 23 24  1  0
 24 25  1  0
 25 26  2  0
 26 27  1  0
 27 28  1  0
 28 29  1  0
 29 30  1  0
 30 31  2  0
 30 32  1  0
 32 33  1  0
 33 34  1  0
 33 35  1  0
 26 36  1  0
 36  6  1  0
 20  9  1  0
 36 23  2  0
  1 37  1  0
  1 38  1  0
  1 39  1  0
  2 40  1  0
  2 41  1  0
  3 42  1  0
  3 43  1  0
  4 44  1  0
  4 45  1  0
  8 46  1  0
 10 47  1  0
 13 48  1  0
 15 49  1  0
 19 50  1  0
 19 51  1  0
 19 52  1  0
 20 53  1  0
 21 54  1  0
 22 55  1  0
 24 56  1  0
 25 57  1  0
 27 58  1  0
 27 59  1  0
 28 60  1  0
 28 61  1  0
 29 62  1  0
 33 63  1  0
 34 64  1  0
 34 65  1  0
 34 66  1  0
 35 67  1  0
 35 68  1  0
 35 69  1  0
M  END
$$$$
[H]c1nc2c(OC([H])([H])[H])c([H])c(-c3c(C([H])(C([H])([H])[H])C([H])([H])[H])c4c([H])c(C5([H])C([H])([H])C([H])([H])N(C(=O)N([H])C([H])([H])C([H])([H])N6C([H])([H])C([H])([H])C([H])([H])C6([H])[H])C([H])([H])C5([H])[H])c([H])c([H])c4n3[H])c([H])n2n1
     RDKit          3D

 78 83  0  0  0  0  0  0  0  0999 V2000
   -8.6455   -0.3513   -3.5355 C   0  0  0  0  0  0  0  0  0  0  0  0
   -9.1753   -0.9797   -2.3940 O   0  0  0  0  0  0  0  0  0  0  0  0
   -8.3914   -1.1675   -1.2737 C   0  0  0  0  0  0  0  0  0  0  0  0
   -7.0931   -0.7797   -1.2002 C   0  0  0  0  0  0  0  0  0  0  0  0
   -6.3408   -0.9980   -0.0191 C   0  0  0  0  0  0  0  0  0  0  0  0
   -7.0104   -1.6036    0.9794 C   0  0  0  0  0  0  0  0  0  0  0  0
   -8.3261   -1.9949    0.8993 N   0  0  0  0  0  0  0  0  0  0  0  0
   -9.1228   -2.5929    1.7649 N   0  0  0  0  0  0  0  0  0  0  0  0
  -10.3352   -2.7797    1.2431 C   0  0  0  0  0  0  0  0  0  0  0  0
  -10.2812   -2.2683   -0.0145 N   0  0  0  0  0  0  0  0  0  0  0  0
   -9.0244   -1.7892   -0.2013 C   0  0  0  0  0  0  0  0  0  0  0  0
   -4.9278   -0.6100   -0.0661 C   0  0  0  0  0  0  0  0  0  0  0  0
   -4.2249   -0.5444   -1.2354 N   0  0  0  0  0  0  0  0  0  0  0  0
   -3.0164   -0.0613   -1.0486 C   0  0  0  0  0  0  0  0  0  0  0  0
   -1.9364    0.1745   -1.9030 C   0  0  0  0  0  0  0  0  0  0  0  0
   -0.7650    0.6752   -1.3950 C   0  0  0  0  0  0  0  0  0  0  0  0
   -0.6258    0.9541   -0.0611 C   0  0  0  0  0  0  0  0  0  0  0  0
   -1.7274    0.7074    0.7734 C   0  0  0  0  0  0  0  0  0  0  0  0
   -2.9002    0.2128    0.3073 C   0  0  0  0  0  0  0  0  0  0  0  0
   -4.1218   -0.1371    0.9377 C   0  0  0  0  0  0  0  0  0  0  0  0
   -4.4069   -0.0719    2.3814 C   0  0  0  0  0  0  0  0  0  0  0  0
   -3.7236    1.1107    3.0867 C   0  0  0  0  0  0  0  0  0  0  0  0
   -3.9144   -1.3525    3.0740 C   0  0  0  0  0  0  0  0  0  0  0  0
    0.6379    1.5078    0.4900 C   0  0  0  0  0  0  0  0  0  0  0  0
    1.1357    2.6394   -0.3450 C   0  0  0  0  0  0  0  0  0  0  0  0
    2.5624    3.0132   -0.0446 C   0  0  0  0  0  0  0  0  0  0  0  0
    3.4121    1.8627    0.1457 N   0  0  0  0  0  0  0  0  0  0  0  0
    3.0012    0.9119    1.1333 C   0  0  0  0  0  0  0  0  0  0  0  0
    1.6440    0.3815    0.6321 C   0  0  0  0  0  0  0  0  0  0  0  0
    4.5696    1.6918   -0.6174 C   0  0  0  0  0  0  0  0  0  0  0  0
    4.8846    2.5371   -1.5368 O   0  0  0  0  0  0  0  0  0  0  0  0
    5.5057    0.6034   -0.4727 N   0  0  0  0  0  0  0  0  0  0  0  0
    6.6815    0.5474   -1.3481 C   0  0  0  0  0  0  0  0  0  0  0  0
    7.5050   -0.6463   -0.9899 C   0  0  0  0  0  0  0  0  0  0  0  0
    7.9680   -0.6167    0.3702 N   0  0  0  0  0  0  0  0  0  0  0  0
    8.7589   -1.8162    0.6547 C   0  0  0  0  0  0  0  0  0  0  0  0
   10.1777   -1.4373    0.2552 C   0  0  0  0  0  0  0  0  0  0  0  0
   10.1990    0.0693    0.1986 C   0  0  0  0  0  0  0  0  0  0  0  0
    8.8075    0.4927    0.6798 C   0  0  0  0  0  0  0  0  0  0  0  0
   -7.8349   -0.9846   -3.9337 H   0  0  0  0  0  0  0  0  0  0  0  0
   -9.4672   -0.2413   -4.2826 H   0  0  0  0  0  0  0  0  0  0  0  0
   -8.2750    0.6882   -3.3098 H   0  0  0  0  0  0  0  0  0  0  0  0
   -6.5879   -0.2889   -2.0285 H   0  0  0  0  0  0  0  0  0  0  0  0
   -6.5143   -1.8367    1.9063 H   0  0  0  0  0  0  0  0  0  0  0  0
  -11.2273   -3.2343    1.6707 H   0  0  0  0  0  0  0  0  0  0  0  0
   -4.6176   -0.8515   -2.1660 H   0  0  0  0  0  0  0  0  0  0  0  0
   -2.0555   -0.0447   -2.9432 H   0  0  0  0  0  0  0  0  0  0  0  0
    0.0899    0.8618   -2.0573 H   0  0  0  0  0  0  0  0  0  0  0  0
   -1.5676    0.9182    1.8123 H   0  0  0  0  0  0  0  0  0  0  0  0
   -5.4634    0.0151    2.5592 H   0  0  0  0  0  0  0  0  0  0  0  0
   -3.5723    1.8970    2.3274 H   0  0  0  0  0  0  0  0  0  0  0  0
   -2.8823    0.8384    3.7056 H   0  0  0  0  0  0  0  0  0  0  0  0
   -4.5054    1.5603    3.7957 H   0  0  0  0  0  0  0  0  0  0  0  0
   -3.4417   -2.0432    2.3472 H   0  0  0  0  0  0  0  0  0  0  0  0
   -3.2670   -1.0432    3.9032 H   0  0  0  0  0  0  0  0  0  0  0  0
   -4.7640   -1.8918    3.5267 H   0  0  0  0  0  0  0  0  0  0  0  0
    0.4874    1.8875    1.5376 H   0  0  0  0  0  0  0  0  0  0  0  0
    1.0562    2.4963   -1.4312 H   0  0  0  0  0  0  0  0  0  0  0  0
    0.5185    3.5511   -0.0785 H   0  0  0  0  0  0  0  0  0  0  0  0
    2.5925    3.5761    0.9345 H   0  0  0  0  0  0  0  0  0  0  0  0
    2.9668    3.6927   -0.8012 H   0  0  0  0  0  0  0  0  0  0  0  0
    3.6591    0.0485    1.2072 H   0  0  0  0  0  0  0  0  0  0  0  0
    2.8777    1.3889    2.1297 H   0  0  0  0  0  0  0  0  0  0  0  0
    1.8645   -0.1247   -0.3260 H   0  0  0  0  0  0  0  0  0  0  0  0
    1.2331   -0.3481    1.3589 H   0  0  0  0  0  0  0  0  0  0  0  0
    5.3990   -0.1567    0.2207 H   0  0  0  0  0  0  0  0  0  0  0  0
    7.2689    1.4601   -1.3616 H   0  0  0  0  0  0  0  0  0  0  0  0
    6.3121    0.4313   -2.4141 H   0  0  0  0  0  0  0  0  0  0  0  0
    8.3521   -0.8051   -1.7117 H   0  0  0  0  0  0  0  0  0  0  0  0
    6.8153   -1.5429   -1.1029 H   0  0  0  0  0  0  0  0  0  0  0  0
    8.7513   -2.1057    1.7080 H   0  0  0  0  0  0  0  0  0  0  0  0
    8.3911   -2.6303    0.0038 H   0  0  0  0  0  0  0  0  0  0  0  0
   10.4170   -1.7978   -0.7715 H   0  0  0  0  0  0  0  0  0  0  0  0
   10.9417   -1.8385    0.9322 H   0  0  0  0  0  0  0  0  0  0  0  0
   10.9322    0.4820    0.9203 H   0  0  0  0  0  0  0  0  0  0  0  0
   10.3608    0.4389   -0.8279 H   0  0  0  0  0  0  0  0  0  0  0  0
    8.8420    0.6891    1.7796 H   0  0  0  0  0  0  0  0  0  0  0  0
    8.5001    1.3942    0.1356 H   0  0  0  0  0  0  0  0  0  0  0  0
  1  2  1  0
  2  3  1  0
  3  4  2  0
  4  5  1  0
  5  6  2  0
  6  7  1  0
  7  8  1  0
  8  9  2  0
  9 10  1  0
 10 11  2  0
  5 12  1  0
 12 13  1  0
 13 14  1  0
 14 15  2  0
 15 16  1  0
 16 17  2  0
 17 18  1  0
 18 19  2  0
 19 20  1  0
 20 21  1  0
 21 22  1  0
 21 23  1  0
 17 24  1  0
 24 25  1  0
 25 26  1  0
 26 27  1  0
 27 28  1  0
 28 29  1  0
 27 30  1  0
 30 31  2  0
 30 32  1  0
 32 33  1  0
 33 34  1  0
 34 35  1  0
 35 36  1  0
 36 37  1  0
 37 38  1  0
 38 39  1  0
 11  3  1  0
 20 12  2  0
 29 24  1  0
 39 35  1  0
 11  7  1  0
 19 14  1  0
  1 40  1  0
  1 41  1  0
  1 42  1  0
  4 43  1  0
  6 44  1  0
  9 45  1  0
 13 46  1  0
 15 47  1  0
 16 48  1  0
 18 49  1  0
 21 50  1  0
 22 51  1  0
 22 52  1  0
 22 53  1  0
 23 54  1  0
 23 55  1  0
 23 56  1  0
 24 57  1  0
 25 58  1  0
 25 59  1  0
 26 60  1  0
 26 61  1  0
 28 62  1  0
 28 63  1  0
 29 64  1  0
 29 65  1  0
 32 66  1  0
 33 67  1  0
 33 68  1  0
 34 69  1  0
 34 70  1  0
 36 71  1  0
 36 72  1  0
 37 73  1  0
 37 74  1  0
 38 75  1  0
 38 76  1  0
 39 77  1  0
 39 78  1  0
M  END
$$$$
[H]c1nc(C(=O)N2C([H])([H])C([H])([H])N(C([H])([H])c3sc(C(=O)N([H])C([H])([H])c4c([H])c([H])c(Cl)c([H])c4Cl)c([H])c3[H])C([H])([H])C2([H])[H])sc1C([H])([H])[H]
     RDKit          3D

 54 57  0  0  0  0  0  0  0  0999 V2000
   10.3135   -1.3535   -0.7874 C   0  0  0  0  0  0  0  0  0  0  0  0
    8.8332   -1.1024   -0.8629 C   0  0  0  0  0  0  0  0  0  0  0  0
    8.2193    0.1152   -1.0108 C   0  0  0  0  0  0  0  0  0  0  0  0
    6.9325    0.1353   -1.0554 N   0  0  0  0  0  0  0  0  0  0  0  0
    6.2234   -0.9720   -0.9628 C   0  0  0  0  0  0  0  0  0  0  0  0
    7.4935   -2.1550   -0.7969 S   0  0  0  0  0  0  0  0  0  0  0  0
    4.7783   -1.2298   -0.9833 C   0  0  0  0  0  0  0  0  0  0  0  0
    4.4621   -2.4768   -0.8712 O   0  0  0  0  0  0  0  0  0  0  0  0
    3.7841   -0.2615   -1.1108 N   0  0  0  0  0  0  0  0  0  0  0  0
    3.9494    1.1281   -1.2315 C   0  0  0  0  0  0  0  0  0  0  0  0
    2.9789    1.9782   -0.4296 C   0  0  0  0  0  0  0  0  0  0  0  0
    1.7600    1.3625   -0.1064 N   0  0  0  0  0  0  0  0  0  0  0  0
    0.6661    2.1508    0.2796 C   0  0  0  0  0  0  0  0  0  0  0  0
   -0.5503    1.3555    0.5925 C   0  0  0  0  0  0  0  0  0  0  0  0
   -1.0023    0.8602    1.7814 C   0  0  0  0  0  0  0  0  0  0  0  0
   -2.1480    0.1650    1.7709 C   0  0  0  0  0  0  0  0  0  0  0  0
   -2.7850    0.0002    0.5685 C   0  0  0  0  0  0  0  0  0  0  0  0
   -1.7305    0.8424   -0.5141 S   0  0  0  0  0  0  0  0  0  0  0  0
   -4.0275   -0.7038    0.2772 C   0  0  0  0  0  0  0  0  0  0  0  0
   -4.4455   -0.7461   -0.8884 O   0  0  0  0  0  0  0  0  0  0  0  0
   -4.7333   -1.3249    1.3242 N   0  0  0  0  0  0  0  0  0  0  0  0
   -5.9556   -2.0218    1.1038 C   0  0  0  0  0  0  0  0  0  0  0  0
   -7.0504   -1.1377    0.7275 C   0  0  0  0  0  0  0  0  0  0  0  0
   -6.9168    0.2209    0.6950 C   0  0  0  0  0  0  0  0  0  0  0  0
   -8.0247    1.0098    0.3567 C   0  0  0  0  0  0  0  0  0  0  0  0
   -9.2106    0.3862    0.0697 C   0  0  0  0  0  0  0  0  0  0  0  0
  -10.5973    1.3734   -0.3540 Cl  0  0  0  0  0  0  0  0  0  0  0  0
   -9.3531   -0.9886    0.1016 C   0  0  0  0  0  0  0  0  0  0  0  0
   -8.2700   -1.7439    0.4310 C   0  0  0  0  0  0  0  0  0  0  0  0
   -8.4404   -3.4830    0.4740 Cl  0  0  0  0  0  0  0  0  0  0  0  0
    1.7055   -0.0353    0.0408 C   0  0  0  0  0  0  0  0  0  0  0  0
    2.3779   -0.7416   -1.1416 C   0  0  0  0  0  0  0  0  0  0  0  0
   10.7238   -1.3381   -1.8092 H   0  0  0  0  0  0  0  0  0  0  0  0
   10.4930   -2.3072   -0.2480 H   0  0  0  0  0  0  0  0  0  0  0  0
   10.7490   -0.5437   -0.1632 H   0  0  0  0  0  0  0  0  0  0  0  0
    8.8277    1.0467   -1.0882 H   0  0  0  0  0  0  0  0  0  0  0  0
    3.8258    1.4012   -2.3225 H   0  0  0  0  0  0  0  0  0  0  0  0
    4.9516    1.5012   -0.9705 H   0  0  0  0  0  0  0  0  0  0  0  0
    2.7782    2.8906   -1.0335 H   0  0  0  0  0  0  0  0  0  0  0  0
    3.4945    2.3766    0.4914 H   0  0  0  0  0  0  0  0  0  0  0  0
    0.3669    2.8640   -0.5355 H   0  0  0  0  0  0  0  0  0  0  0  0
    0.9704    2.7840    1.1528 H   0  0  0  0  0  0  0  0  0  0  0  0
   -0.4237    1.0384    2.7205 H   0  0  0  0  0  0  0  0  0  0  0  0
   -2.6131   -0.2861    2.6776 H   0  0  0  0  0  0  0  0  0  0  0  0
   -4.3498   -1.2789    2.3229 H   0  0  0  0  0  0  0  0  0  0  0  0
   -6.2449   -2.5796    2.0432 H   0  0  0  0  0  0  0  0  0  0  0  0
   -5.7707   -2.8017    0.3066 H   0  0  0  0  0  0  0  0  0  0  0  0
   -6.0158    0.7759    0.9293 H   0  0  0  0  0  0  0  0  0  0  0  0
   -7.9200    2.0754    0.3303 H   0  0  0  0  0  0  0  0  0  0  0  0
  -10.3075   -1.4196   -0.1326 H   0  0  0  0  0  0  0  0  0  0  0  0
    2.2733   -0.3563    0.9379 H   0  0  0  0  0  0  0  0  0  0  0  0
    0.6658   -0.3896    0.0368 H   0  0  0  0  0  0  0  0  0  0  0  0
    1.9750   -0.3980   -2.1093 H   0  0  0  0  0  0  0  0  0  0  0  0
    2.3142   -1.8203   -1.0239 H   0  0  0  0  0  0  0  0  0  0  0  0
  1  2  1  0
  2  3  2  0
  3  4  1  0
  4  5  2  0
  5  6  1  0
  5  7  1  0
  7  8  2  0
  7  9  1  0
  9 10  1  0
 10 11  1  0
 11 12  1  0
 12 13  1  0
 13 14  1  0
 14 15  2  0
 15 16  1  0
 16 17  2  0
 17 18  1  0
 17 19  1  0
 19 20  2  0
 19 21  1  0
 21 22  1  0
 22 23  1  0
 23 24  2  0
 24 25  1  0
 25 26  2  0
 26 27  1  0
 26 28  1  0
 28 29  2  0
 29 30  1  0
 12 31  1  0
 31 32  1  0
  6  2  1  0
 32  9  1  0
 18 14  1  0
 29 23  1  0
  1 33  1  0
  1 34  1  0
  1 35  1  0
  3 36  1  0
 10 37  1  0
 10 38  1  0
 11 39  1  0
 11 40  1  0
 13 41  1  0
 13 42  1  0
 15 43  1  0
 16 44  1  0
 21 45  1  0
 22 46  1  0
 22 47  1  0
 24 48  1  0
 25 49  1  0
 28 50  1  0
 31 51  1  0
 31 52  1  0
 32 53  1  0
 32 54  1  0
M  END
$$$$
[H]OC1(c2c([H])c([H])c(OC([H])([H])[H])c([H])c2[H])OC2(Oc3c([H])c([H])c([H])c([H])c3-n3c(-c4c([H])c([H])c([H])c([H])c4[H])nnc31)C([H])([H])C([H])([H])C([H])([H])C2([H])[H]
     RDKit          3D

 59 64  0  0  0  0  0  0  0  0999 V2000
    6.8328   -3.3535   -1.3543 C   0  0  0  0  0  0  0  0  0  0  0  0
    5.9539   -3.0742   -0.3087 O   0  0  0  0  0  0  0  0  0  0  0  0
    4.8031   -2.3296   -0.4127 C   0  0  0  0  0  0  0  0  0  0  0  0
    4.0345   -2.1455    0.7356 C   0  0  0  0  0  0  0  0  0  0  0  0
    2.8668   -1.4122    0.7170 C   0  0  0  0  0  0  0  0  0  0  0  0
    2.4176   -0.8301   -0.4566 C   0  0  0  0  0  0  0  0  0  0  0  0
    3.1586   -0.9979   -1.6015 C   0  0  0  0  0  0  0  0  0  0  0  0
    4.3423   -1.7448   -1.5686 C   0  0  0  0  0  0  0  0  0  0  0  0
    1.1703   -0.0368   -0.5164 C   0  0  0  0  0  0  0  0  0  0  0  0
    0.9921    0.4019   -1.7890 O   0  0  0  0  0  0  0  0  0  0  0  0
    1.2303    0.8977    0.4773 O   0  0  0  0  0  0  0  0  0  0  0  0
    0.8386    2.1422    0.4520 C   0  0  0  0  0  0  0  0  0  0  0  0
    1.4489    2.8722    1.7022 C   0  0  0  0  0  0  0  0  0  0  0  0
    1.0507    4.3003    1.3995 C   0  0  0  0  0  0  0  0  0  0  0  0
    0.9092    4.4116   -0.0836 C   0  0  0  0  0  0  0  0  0  0  0  0
    1.3899    3.0654   -0.5782 C   0  0  0  0  0  0  0  0  0  0  0  0
   -0.5635    2.4378    0.6421 O   0  0  0  0  0  0  0  0  0  0  0  0
   -1.6704    1.8412    0.0056 C   0  0  0  0  0  0  0  0  0  0  0  0
   -2.5736    2.7751   -0.3745 C   0  0  0  0  0  0  0  0  0  0  0  0
   -3.7308    2.4112   -1.0351 C   0  0  0  0  0  0  0  0  0  0  0  0
   -4.0097    1.0683   -1.3366 C   0  0  0  0  0  0  0  0  0  0  0  0
   -3.1127    0.0903   -0.9635 C   0  0  0  0  0  0  0  0  0  0  0  0
   -1.9902    0.5236   -0.3057 C   0  0  0  0  0  0  0  0  0  0  0  0
   -1.2928   -0.6834    0.0004 N   0  0  0  0  0  0  0  0  0  0  0  0
   -1.9845   -1.6975    0.4053 C   0  0  0  0  0  0  0  0  0  0  0  0
   -1.0488   -2.7370    0.4448 N   0  0  0  0  0  0  0  0  0  0  0  0
    0.1536   -2.2567    0.0698 N   0  0  0  0  0  0  0  0  0  0  0  0
    0.0503   -1.0098   -0.2029 C   0  0  0  0  0  0  0  0  0  0  0  0
   -3.3276   -1.8982    0.8752 C   0  0  0  0  0  0  0  0  0  0  0  0
   -4.1460   -1.0781    1.5991 C   0  0  0  0  0  0  0  0  0  0  0  0
   -5.4198   -1.3672    1.9911 C   0  0  0  0  0  0  0  0  0  0  0  0
   -5.9349   -2.5867    1.6338 C   0  0  0  0  0  0  0  0  0  0  0  0
   -5.1650   -3.4635    0.9051 C   0  0  0  0  0  0  0  0  0  0  0  0
   -3.9071   -3.1114    0.5485 C   0  0  0  0  0  0  0  0  0  0  0  0
    7.9084   -3.3305   -1.0141 H   0  0  0  0  0  0  0  0  0  0  0  0
    6.7830   -2.6439   -2.2026 H   0  0  0  0  0  0  0  0  0  0  0  0
    6.6849   -4.3765   -1.7590 H   0  0  0  0  0  0  0  0  0  0  0  0
    4.3566   -2.5874    1.6726 H   0  0  0  0  0  0  0  0  0  0  0  0
    2.3109   -1.3028    1.6399 H   0  0  0  0  0  0  0  0  0  0  0  0
    2.8931   -0.5845   -2.5648 H   0  0  0  0  0  0  0  0  0  0  0  0
    4.9161   -1.8706   -2.4717 H   0  0  0  0  0  0  0  0  0  0  0  0
    0.5264   -0.2604   -2.3305 H   0  0  0  0  0  0  0  0  0  0  0  0
    2.5317    2.7062    1.6853 H   0  0  0  0  0  0  0  0  0  0  0  0
    0.9255    2.5067    2.5835 H   0  0  0  0  0  0  0  0  0  0  0  0
    0.1322    4.5977    1.9509 H   0  0  0  0  0  0  0  0  0  0  0  0
    1.8627    4.9737    1.7304 H   0  0  0  0  0  0  0  0  0  0  0  0
   -0.1036    4.6815   -0.4241 H   0  0  0  0  0  0  0  0  0  0  0  0
    1.5913    5.2258   -0.4840 H   0  0  0  0  0  0  0  0  0  0  0  0
    2.5067    3.1396   -0.5475 H   0  0  0  0  0  0  0  0  0  0  0  0
    1.0217    2.8629   -1.6032 H   0  0  0  0  0  0  0  0  0  0  0  0
   -2.3509    3.8082   -0.1404 H   0  0  0  0  0  0  0  0  0  0  0  0
   -4.4576    3.1398   -1.3397 H   0  0  0  0  0  0  0  0  0  0  0  0
   -4.9153    0.7877   -1.8561 H   0  0  0  0  0  0  0  0  0  0  0  0
   -3.2203   -0.9082   -1.2352 H   0  0  0  0  0  0  0  0  0  0  0  0
   -3.7369   -0.0983    1.9285 H   0  0  0  0  0  0  0  0  0  0  0  0
   -6.0284   -0.6735    2.5674 H   0  0  0  0  0  0  0  0  0  0  0  0
   -6.9448   -2.9062    1.9024 H   0  0  0  0  0  0  0  0  0  0  0  0
   -5.6090   -4.4457    0.6303 H   0  0  0  0  0  0  0  0  0  0  0  0
   -3.3503   -3.8657   -0.0346 H   0  0  0  0  0  0  0  0  0  0  0  0
  1  2  1  0
  2  3  1  0
  3  4  2  0
  4  5  1  0
  5  6  2  0
  6  7  1  0
  7  8  2  0
  6  9  1  0
  9 10  1  0
  9 11  1  0
 11 12  1  0
 12 13  1  0
 13 14  1  0
 14 15  1  0
 15 16  1  0
 12 17  1  0
 17 18  1  0
 18 19  2  0
 19 20  1  0
 20 21  2  0
 21 22  1  0
 22 23  2  0
 23 24  1  0
 24 25  1  0
 25 26  2  0
 26 27  1  0
 27 28  2  0
 25 29  1  0
 29 30  2  0
 30 31  1  0
 31 32  2  0
 32 33  1  0
 33 34  2  0
  8  3  1  0
 28  9  1  0
 34 29  1  0
 16 12  1  0
 23 18  1  0
 28 24  1  0
  1 35  1  0
  1 36  1  0
  1 37  1  0
  4 38  1  0
  5 39  1  0
  7 40  1  0
  8 41  1  0
 10 42  1  0
 13 43  1  0
 13 44  1  0
 14 45  1  0
 14 46  1  0
 15 47  1  0
 15 48  1  0
 16 49  1  0
 16 50  1  0
 19 51  1  0
 20 52  1  0
 21 53  1  0
 22 54  1  0
 30 55  1  0
 31 56  1  0
 32 57  1  0
 33 58  1  0
 34 59  1  0
M  END
$$$$
[H]c1nc(N2C([H])([H])C([H])([H])N(c3c([H])c([H])c([H])c(Cl)c3Cl)C([H])([H])C2([H])[H])nc(-c2c([H])nc([H])c([H])c2[H])c1[H]
     RDKit          3D

 43 46  0  0  0  0  0  0  0  0999 V2000
    7.5817    1.4621   -0.8095 Cl  0  0  0  0  0  0  0  0  0  0  0  0
    6.2143    0.9282    0.1505 C   0  0  0  0  0  0  0  0  0  0  0  0
    6.4369    0.7052    1.4889 C   0  0  0  0  0  0  0  0  0  0  0  0
    5.3834    0.2869    2.2613 C   0  0  0  0  0  0  0  0  0  0  0  0
    4.1304    0.0998    1.6815 C   0  0  0  0  0  0  0  0  0  0  0  0
    3.8794    0.3160    0.3428 C   0  0  0  0  0  0  0  0  0  0  0  0
    2.5891    0.0840   -0.2416 N   0  0  0  0  0  0  0  0  0  0  0  0
    1.4265    0.3704    0.5697 C   0  0  0  0  0  0  0  0  0  0  0  0
    0.4181   -0.7707    0.5634 C   0  0  0  0  0  0  0  0  0  0  0  0
    0.1219   -0.9846   -0.8560 N   0  0  0  0  0  0  0  0  0  0  0  0
    1.2359   -1.3835   -1.6698 C   0  0  0  0  0  0  0  0  0  0  0  0
    2.4127   -0.4379   -1.5763 C   0  0  0  0  0  0  0  0  0  0  0  0
   -1.2003   -0.7872   -1.3014 C   0  0  0  0  0  0  0  0  0  0  0  0
   -1.5190   -0.9721   -2.5933 N   0  0  0  0  0  0  0  0  0  0  0  0
   -2.7705   -0.7935   -3.0574 C   0  0  0  0  0  0  0  0  0  0  0  0
   -3.7481   -0.4086   -2.1694 C   0  0  0  0  0  0  0  0  0  0  0  0
   -3.4531   -0.2119   -0.8434 C   0  0  0  0  0  0  0  0  0  0  0  0
   -2.1736   -0.4129   -0.4630 N   0  0  0  0  0  0  0  0  0  0  0  0
   -4.4693    0.1961    0.1203 C   0  0  0  0  0  0  0  0  0  0  0  0
   -5.7806    0.4151   -0.2057 C   0  0  0  0  0  0  0  0  0  0  0  0
   -6.6980    0.8065    0.7820 C   0  0  0  0  0  0  0  0  0  0  0  0
   -6.3007    0.9770    2.0895 C   0  0  0  0  0  0  0  0  0  0  0  0
   -5.0066    0.7543    2.3774 N   0  0  0  0  0  0  0  0  0  0  0  0
   -4.1028    0.3754    1.4385 C   0  0  0  0  0  0  0  0  0  0  0  0
    4.9535    0.7370   -0.4154 C   0  0  0  0  0  0  0  0  0  0  0  0
    4.8118    1.0822   -2.1028 Cl  0  0  0  0  0  0  0  0  0  0  0  0
    7.4350    0.8575    1.9328 H   0  0  0  0  0  0  0  0  0  0  0  0
    5.4938    0.0962    3.3127 H   0  0  0  0  0  0  0  0  0  0  0  0
    3.2932   -0.2413    2.2900 H   0  0  0  0  0  0  0  0  0  0  0  0
    1.6599    0.6048    1.6120 H   0  0  0  0  0  0  0  0  0  0  0  0
    0.9712    1.2876    0.1040 H   0  0  0  0  0  0  0  0  0  0  0  0
    0.8988   -1.6452    1.0185 H   0  0  0  0  0  0  0  0  0  0  0  0
   -0.4645   -0.4095    1.1077 H   0  0  0  0  0  0  0  0  0  0  0  0
    0.8857   -1.4674   -2.7213 H   0  0  0  0  0  0  0  0  0  0  0  0
    1.5560   -2.3916   -1.2770 H   0  0  0  0  0  0  0  0  0  0  0  0
    3.3200   -1.0432   -1.8650 H   0  0  0  0  0  0  0  0  0  0  0  0
    2.2186    0.3845   -2.2943 H   0  0  0  0  0  0  0  0  0  0  0  0
   -2.9955   -0.9546   -4.1249 H   0  0  0  0  0  0  0  0  0  0  0  0
   -4.7333   -0.2685   -2.5374 H   0  0  0  0  0  0  0  0  0  0  0  0
   -6.1179    0.2905   -1.2124 H   0  0  0  0  0  0  0  0  0  0  0  0
   -7.7383    0.9839    0.5427 H   0  0  0  0  0  0  0  0  0  0  0  0
   -6.9966    1.2813    2.8763 H   0  0  0  0  0  0  0  0  0  0  0  0
   -3.0592    0.2020    1.7022 H   0  0  0  0  0  0  0  0  0  0  0  0
  1  2  1  0
  2  3  2  0
  3  4  1  0
  4  5  2  0
  5  6  1  0
  6  7  1  0
  7  8  1  0
  8  9  1  0
  9 10  1  0
 10 11  1  0
 11 12  1  0
 10 13  1  0
 13 14  2  0
 14 15  1  0
 15 16  2  0
 16 17  1  0
 17 18  2  0
 17 19  1  0
 19 20  2  0
 20 21  1  0
 21 22  2  0
 22 23  1  0
 23 24  2  0
  6 25  2  0
 25 26  1  0
 25  2  1  0
 12  7  1  0
 18 13  1  0
 24 19  1  0
  3 27  1  0
  4 28  1  0
  5 29  1  0
  8 30  1  0
  8 31  1  0
  9 32  1  0
  9 33  1  0
 11 34  1  0
 11 35  1  0
 12 36  1  0
 12 37  1  0
 15 38  1  0
 16 39  1  0
 20 40  1  0
 21 41  1  0
 22 42  1  0
 24 43  1  0
M  END
$$$$
[H]c1c([H])c([H])c2c(c1[H])N(C([H])([H])[H])C([H])([H])C([H])([H])C2([H])C([H])([H])OC(=O)N1C([H])([H])C([H])([H])C([H])(N([H])C(=O)N([H])c2c([H])c(F)c([H])c(Br)c2[H])C([H])([H])C1([H])[H]
     RDKit          3D

 61 64  0  0  0  0  0  0  0  0999 V2000
   -6.0876    2.6617    1.6288 C   0  0  0  0  0  0  0  0  0  0  0  0
   -5.2822    1.5306    1.3013 N   0  0  0  0  0  0  0  0  0  0  0  0
   -3.8684    1.7035    1.0098 C   0  0  0  0  0  0  0  0  0  0  0  0
   -3.4758    0.8365   -0.1546 C   0  0  0  0  0  0  0  0  0  0  0  0
   -3.7276   -0.6105    0.1174 C   0  0  0  0  0  0  0  0  0  0  0  0
   -3.3384   -1.4476   -1.0914 C   0  0  0  0  0  0  0  0  0  0  0  0
   -1.9560   -1.1882   -1.2660 O   0  0  0  0  0  0  0  0  0  0  0  0
   -1.1096   -1.6328   -2.2102 C   0  0  0  0  0  0  0  0  0  0  0  0
   -1.5764   -2.4048   -3.0985 O   0  0  0  0  0  0  0  0  0  0  0  0
    0.2335   -1.2243   -2.1649 N   0  0  0  0  0  0  0  0  0  0  0  0
    1.2145   -1.6262   -3.1333 C   0  0  0  0  0  0  0  0  0  0  0  0
    2.6031   -1.5457   -2.4636 C   0  0  0  0  0  0  0  0  0  0  0  0
    2.9050   -0.0753   -2.1990 C   0  0  0  0  0  0  0  0  0  0  0  0
    1.6721    0.6496   -1.8135 C   0  0  0  0  0  0  0  0  0  0  0  0
    0.7134   -0.3208   -1.1129 C   0  0  0  0  0  0  0  0  0  0  0  0
    4.0186    0.0440   -1.3898 N   0  0  0  0  0  0  0  0  0  0  0  0
    4.1333    0.6897   -0.0783 C   0  0  0  0  0  0  0  0  0  0  0  0
    3.0200    1.1765    0.3791 O   0  0  0  0  0  0  0  0  0  0  0  0
    5.2601    0.7395    0.5376 N   0  0  0  0  0  0  0  0  0  0  0  0
    6.4871    0.7938    1.2084 C   0  0  0  0  0  0  0  0  0  0  0  0
    7.6035    0.3011    0.4539 C   0  0  0  0  0  0  0  0  0  0  0  0
    8.8698    0.2954    0.9479 C   0  0  0  0  0  0  0  0  0  0  0  0
    9.9071   -0.1602    0.2122 F   0  0  0  0  0  0  0  0  0  0  0  0
    9.1320    0.7695    2.2148 C   0  0  0  0  0  0  0  0  0  0  0  0
    8.1052    1.2497    2.9741 C   0  0  0  0  0  0  0  0  0  0  0  0
    8.3940    1.9688    4.7213 Br  0  0  0  0  0  0  0  0  0  0  0  0
    6.8005    1.2460    2.4408 C   0  0  0  0  0  0  0  0  0  0  0  0
   -5.0651   -0.8508    0.6334 C   0  0  0  0  0  0  0  0  0  0  0  0
   -5.6508   -2.1144    0.5807 C   0  0  0  0  0  0  0  0  0  0  0  0
   -6.8916   -2.3055    1.0966 C   0  0  0  0  0  0  0  0  0  0  0  0
   -7.5966   -1.2802    1.6767 C   0  0  0  0  0  0  0  0  0  0  0  0
   -7.0539   -0.0235    1.7466 C   0  0  0  0  0  0  0  0  0  0  0  0
   -5.7732    0.1770    1.2114 C   0  0  0  0  0  0  0  0  0  0  0  0
   -7.1623    2.5468    1.3571 H   0  0  0  0  0  0  0  0  0  0  0  0
   -5.7052    3.5264    0.9996 H   0  0  0  0  0  0  0  0  0  0  0  0
   -5.9138    2.9825    2.6684 H   0  0  0  0  0  0  0  0  0  0  0  0
   -3.7231    2.7848    0.6858 H   0  0  0  0  0  0  0  0  0  0  0  0
   -3.3090    1.4519    1.9154 H   0  0  0  0  0  0  0  0  0  0  0  0
   -4.0852    1.1183   -1.0416 H   0  0  0  0  0  0  0  0  0  0  0  0
   -2.4114    1.0545   -0.3955 H   0  0  0  0  0  0  0  0  0  0  0  0
   -3.0111   -0.8855    0.9424 H   0  0  0  0  0  0  0  0  0  0  0  0
   -3.4326   -2.5240   -0.9576 H   0  0  0  0  0  0  0  0  0  0  0  0
   -3.8930   -1.0386   -1.9615 H   0  0  0  0  0  0  0  0  0  0  0  0
    1.1150   -2.6042   -3.5744 H   0  0  0  0  0  0  0  0  0  0  0  0
    1.2853   -0.8200   -3.9290 H   0  0  0  0  0  0  0  0  0  0  0  0
    3.3154   -2.0478   -3.0900 H   0  0  0  0  0  0  0  0  0  0  0  0
    2.5173   -2.0943   -1.4781 H   0  0  0  0  0  0  0  0  0  0  0  0
    3.2272    0.3479   -3.2403 H   0  0  0  0  0  0  0  0  0  0  0  0
    1.7702    1.6064   -1.3364 H   0  0  0  0  0  0  0  0  0  0  0  0
    1.1298    0.9156   -2.8209 H   0  0  0  0  0  0  0  0  0  0  0  0
   -0.1542    0.2596   -0.7121 H   0  0  0  0  0  0  0  0  0  0  0  0
    1.2677   -0.8994   -0.3621 H   0  0  0  0  0  0  0  0  0  0  0  0
    4.9572   -0.3746   -1.7419 H   0  0  0  0  0  0  0  0  0  0  0  0
    4.6201    1.1981    1.6822 H   0  0  0  0  0  0  0  0  0  0  0  0
    7.3422   -0.0717   -0.5395 H   0  0  0  0  0  0  0  0  0  0  0  0
   10.1373    0.7660    2.6078 H   0  0  0  0  0  0  0  0  0  0  0  0
    6.0304    1.6466    3.1095 H   0  0  0  0  0  0  0  0  0  0  0  0
   -5.0573   -2.8731    0.1101 H   0  0  0  0  0  0  0  0  0  0  0  0
   -7.3130   -3.3254    1.0312 H   0  0  0  0  0  0  0  0  0  0  0  0
   -8.5885   -1.4700    2.0822 H   0  0  0  0  0  0  0  0  0  0  0  0
   -7.5752    0.8013    2.1944 H   0  0  0  0  0  0  0  0  0  0  0  0
  1  2  1  0
  2  3  1  0
  3  4  1  0
  4  5  1  0
  5  6  1  0
  6  7  1  0
  7  8  1  0
  8  9  2  0
  8 10  1  0
 10 11  1  0
 11 12  1  0
 12 13  1  0
 13 14  1  0
 14 15  1  0
 13 16  1  0
 16 17  1  0
 17 18  2  0
 17 19  1  0
 19 20  1  0
 20 21  2  0
 21 22  1  0
 22 23  1  0
 22 24  2  0
 24 25  1  0
 25 26  1  0
 25 27  2  0
  5 28  1  0
 28 29  2  0
 29 30  1  0
 30 31  2  0
 31 32  1  0
 32 33  2  0
 33  2  1  0
 15 10  1  0
 27 20  1  0
 33 28  1  0
  1 34  1  0
  1 35  1  0
  1 36  1  0
  3 37  1  0
  3 38  1  0
  4 39  1  0
  4 40  1  0
  5 41  1  0
  6 42  1  0
  6 43  1  0
 11 44  1  0
 11 45  1  0
 12 46  1  0
 12 47  1  0
 13 48  1  0
 14 49  1  0
 14 50  1  0
 15 51  1  0
 15 52  1  0
 16 53  1  0
 19 54  1  0
 21 55  1  0
 24 56  1  0
 27 57  1  0
 29 58  1  0
 30 59  1  0
 31 60  1  0
 32 61  1  0
M  END
$$$$
[H]C([H])=C([H])C([H])([H])[C@@]([H])(C(=O)N([H])[C@]([H])(C(=O)N(c1c([H])c([H])c([H])c([H])c1[H])N([H])C(=O)OC([H])([H])C([H])([H])[H])C([H])([H])C1([H])C([H])([H])C([H])([H])C([H])([H])C([H])([H])C1([H])[H])N([H])C(=O)OC(C([H])([H])[H])(C([H])([H])[H])C([H])([H])[H]
     RDKit          3D

 80 81  0  0  0  0  0  0  0  0999 V2000
   -4.7829   -4.5870    3.1722 C   0  0  0  0  0  0  0  0  0  0  0  0
   -3.5890   -3.8398    3.7129 C   0  0  0  0  0  0  0  0  0  0  0  0
   -3.5774   -2.4791    3.2958 O   0  0  0  0  0  0  0  0  0  0  0  0
   -3.5511   -2.1836    1.9168 C   0  0  0  0  0  0  0  0  0  0  0  0
   -3.5405   -3.1548    1.1431 O   0  0  0  0  0  0  0  0  0  0  0  0
   -3.5377   -0.8236    1.4974 N   0  0  0  0  0  0  0  0  0  0  0  0
   -3.5253   -0.5761    0.0997 N   0  0  0  0  0  0  0  0  0  0  0  0
   -2.3601   -0.2424   -0.6042 C   0  0  0  0  0  0  0  0  0  0  0  0
   -2.4265   -0.2379   -1.8835 O   0  0  0  0  0  0  0  0  0  0  0  0
   -1.0948    0.0932    0.0037 C   0  0  2  0  0  0  0  0  0  0  0  0
   -1.0668    1.4701    0.6356 C   0  0  0  0  0  0  0  0  0  0  0  0
   -1.3585    2.6200   -0.2363 C   0  0  0  0  0  0  0  0  0  0  0  0
   -1.2547    3.8714    0.6607 C   0  0  0  0  0  0  0  0  0  0  0  0
   -2.0394    4.9742    0.0288 C   0  0  0  0  0  0  0  0  0  0  0  0
   -1.7819    4.9682   -1.4621 C   0  0  0  0  0  0  0  0  0  0  0  0
   -0.4414    4.3358   -1.7952 C   0  0  0  0  0  0  0  0  0  0  0  0
   -0.4319    2.8639   -1.3918 C   0  0  0  0  0  0  0  0  0  0  0  0
    0.0124   -0.0282   -0.9376 N   0  0  0  0  0  0  0  0  0  0  0  0
    1.3175   -0.3422   -0.4918 C   0  0  0  0  0  0  0  0  0  0  0  0
    1.4741   -0.4889    0.7713 O   0  0  0  0  0  0  0  0  0  0  0  0
    2.4553   -0.4970   -1.4275 C   0  0  2  0  0  0  0  0  0  0  0  0
    2.6210   -1.9816   -1.7718 C   0  0  0  0  0  0  0  0  0  0  0  0
    3.7098   -2.2154   -2.7469 C   0  0  0  0  0  0  0  0  0  0  0  0
    3.4443   -2.7832   -3.9394 C   0  0  0  0  0  0  0  0  0  0  0  0
    3.6108    0.0892   -0.8322 N   0  0  0  0  0  0  0  0  0  0  0  0
    4.6287   -0.4539   -0.0604 C   0  0  0  0  0  0  0  0  0  0  0  0
    4.6890   -1.6462    0.2647 O   0  0  0  0  0  0  0  0  0  0  0  0
    5.6576    0.3509    0.3960 O   0  0  0  0  0  0  0  0  0  0  0  0
    6.7400    0.0328    1.1688 C   0  0  0  0  0  0  0  0  0  0  0  0
    6.4579   -0.5116    2.5346 C   0  0  0  0  0  0  0  0  0  0  0  0
    7.6230    1.2715    1.3480 C   0  0  0  0  0  0  0  0  0  0  0  0
    7.6009   -0.9796    0.4456 C   0  0  0  0  0  0  0  0  0  0  0  0
   -4.8011   -0.7437   -0.5354 C   0  0  0  0  0  0  0  0  0  0  0  0
   -4.9426   -1.5525   -1.6144 C   0  0  0  0  0  0  0  0  0  0  0  0
   -6.2099   -1.6791   -2.1737 C   0  0  0  0  0  0  0  0  0  0  0  0
   -7.2911   -0.9874   -1.6280 C   0  0  0  0  0  0  0  0  0  0  0  0
   -7.1051   -0.1741   -0.5287 C   0  0  0  0  0  0  0  0  0  0  0  0
   -5.8628   -0.0353    0.0372 C   0  0  0  0  0  0  0  0  0  0  0  0
   -5.5342   -3.8688    2.7740 H   0  0  0  0  0  0  0  0  0  0  0  0
   -4.4729   -5.3169    2.3927 H   0  0  0  0  0  0  0  0  0  0  0  0
   -5.2311   -5.1860    3.9858 H   0  0  0  0  0  0  0  0  0  0  0  0
   -2.6696   -4.3730    3.3733 H   0  0  0  0  0  0  0  0  0  0  0  0
   -3.6385   -3.8610    4.8219 H   0  0  0  0  0  0  0  0  0  0  0  0
   -3.5352   -0.0763    2.2001 H   0  0  0  0  0  0  0  0  0  0  0  0
   -0.8208   -0.5821    0.8787 H   0  0  0  0  0  0  0  0  0  0  0  0
   -0.0484    1.6035    1.0880 H   0  0  0  0  0  0  0  0  0  0  0  0
   -1.7559    1.5104    1.5110 H   0  0  0  0  0  0  0  0  0  0  0  0
   -2.4203    2.6305   -0.5810 H   0  0  0  0  0  0  0  0  0  0  0  0
   -0.1613    4.1480    0.7115 H   0  0  0  0  0  0  0  0  0  0  0  0
   -1.5505    3.6016    1.6819 H   0  0  0  0  0  0  0  0  0  0  0  0
   -3.1040    4.8006    0.2785 H   0  0  0  0  0  0  0  0  0  0  0  0
   -1.6858    5.9362    0.4889 H   0  0  0  0  0  0  0  0  0  0  0  0
   -2.6099    4.4481   -1.9497 H   0  0  0  0  0  0  0  0  0  0  0  0
   -1.7038    6.0351   -1.7815 H   0  0  0  0  0  0  0  0  0  0  0  0
    0.4008    4.8892   -1.3793 H   0  0  0  0  0  0  0  0  0  0  0  0
   -0.3302    4.3754   -2.8954 H   0  0  0  0  0  0  0  0  0  0  0  0
   -0.7294    2.3144   -2.3037 H   0  0  0  0  0  0  0  0  0  0  0  0
    0.6106    2.6296   -1.1558 H   0  0  0  0  0  0  0  0  0  0  0  0
   -0.1070    0.0930   -1.9759 H   0  0  0  0  0  0  0  0  0  0  0  0
    2.2350   -0.0120   -2.3838 H   0  0  0  0  0  0  0  0  0  0  0  0
    2.8017   -2.6085   -0.8858 H   0  0  0  0  0  0  0  0  0  0  0  0
    1.6761   -2.3696   -2.2237 H   0  0  0  0  0  0  0  0  0  0  0  0
    4.7255   -1.9399   -2.5356 H   0  0  0  0  0  0  0  0  0  0  0  0
    4.2396   -2.9478   -4.6413 H   0  0  0  0  0  0  0  0  0  0  0  0
    2.4093   -3.0571   -4.1587 H   0  0  0  0  0  0  0  0  0  0  0  0
    3.6752    1.1635   -1.0356 H   0  0  0  0  0  0  0  0  0  0  0  0
    7.4151   -0.9964    2.8873 H   0  0  0  0  0  0  0  0  0  0  0  0
    5.7157   -1.3345    2.5302 H   0  0  0  0  0  0  0  0  0  0  0  0
    6.2642    0.2638    3.3071 H   0  0  0  0  0  0  0  0  0  0  0  0
    8.3858    1.0114    2.1000 H   0  0  0  0  0  0  0  0  0  0  0  0
    6.9509    2.0950    1.6923 H   0  0  0  0  0  0  0  0  0  0  0  0
    8.0316    1.5532    0.3559 H   0  0  0  0  0  0  0  0  0  0  0  0
    7.5047   -0.8111   -0.6256 H   0  0  0  0  0  0  0  0  0  0  0  0
    8.6719   -0.9134    0.7404 H   0  0  0  0  0  0  0  0  0  0  0  0
    7.1980   -2.0087    0.6749 H   0  0  0  0  0  0  0  0  0  0  0  0
   -4.1128   -2.1079   -2.0616 H   0  0  0  0  0  0  0  0  0  0  0  0
   -6.3523   -2.3095   -3.0321 H   0  0  0  0  0  0  0  0  0  0  0  0
   -8.2542   -1.0901   -2.0573 H   0  0  0  0  0  0  0  0  0  0  0  0
   -7.9041    0.3681   -0.0862 H   0  0  0  0  0  0  0  0  0  0  0  0
   -5.6493    0.5829    0.8889 H   0  0  0  0  0  0  0  0  0  0  0  0
  1  2  1  0
  2  3  1  0
  3  4  1  0
  4  5  2  0
  4  6  1  0
  6  7  1  0
  7  8  1  0
  8  9  2  0
  8 10  1  0
 10 11  1  0
 11 12  1  0
 12 13  1  0
 13 14  1  0
 14 15  1  0
 15 16  1  0
 16 17  1  0
 10 18  1  0
 18 19  1  0
 19 20  2  0
 19 21  1  0
 21 22  1  0
 22 23  1  0
 23 24  2  3
 21 25  1  0
 25 26  1  0
 26 27  2  0
 26 28  1  0
 28 29  1  0
 29 30  1  0
 29 31  1  0
 29 32  1  0
  7 33  1  0
 33 34  2  0
 34 35  1  0
 35 36  2  0
 36 37  1  0
 37 38  2  0
 17 12  1  0
 38 33  1  0
  1 39  1  0
  1 40  1  0
  1 41  1  0
  2 42  1  0
  2 43  1  0
  6 44  1  0
 10 45  1  1
 11 46  1  0
 11 47  1  0
 12 48  1  0
 13 49  1  0
 13 50  1  0
 14 51  1  0
 14 52  1  0
 15 53  1  0
 15 54  1  0
 16 55  1  0
 16 56  1  0
 17 57  1  0
 17 58  1  0
 18 59  1  0
 21 60  1  6
 22 61  1  0
 22 62  1  0
 23 63  1  0
 24 64  1  0
 24 65  1  0
 25 66  1  0
 30 67  1  0
 30 68  1  0
 30 69  1  0
 31 70  1  0
 31 71  1  0
 31 72  1  0
 32 73  1  0
 32 74  1  0
 32 75  1  0
 34 76  1  0
 35 77  1  0
 36 78  1  0
 37 79  1  0
 38 80  1  0
M  END
$$$$
[H]c1c([H])c(OC([H])([H])[H])c([H])c(-c2c([H])c([H])c(S(=O)(=O)N([H])C([H])([H])C([H])([H])N(C(=O)C([H])([H])[H])C([H])([H])c3c([H])c([H])c(C#N)c([H])c3[H])c([H])c2[H])c1[H]
     RDKit          3D

 58 60  0  0  0  0  0  0  0  0999 V2000
    7.5949    2.0741   -1.7904 C   0  0  0  0  0  0  0  0  0  0  0  0
    7.9060    2.0101   -0.4060 O   0  0  0  0  0  0  0  0  0  0  0  0
    7.1105    1.2843    0.4690 C   0  0  0  0  0  0  0  0  0  0  0  0
    7.4471    1.2478    1.8050 C   0  0  0  0  0  0  0  0  0  0  0  0
    6.6355    0.5175    2.6477 C   0  0  0  0  0  0  0  0  0  0  0  0
    5.5276   -0.1492    2.1579 C   0  0  0  0  0  0  0  0  0  0  0  0
    5.1805   -0.1202    0.8235 C   0  0  0  0  0  0  0  0  0  0  0  0
    5.9899    0.6093   -0.0226 C   0  0  0  0  0  0  0  0  0  0  0  0
    3.9939   -0.8466    0.3574 C   0  0  0  0  0  0  0  0  0  0  0  0
    3.2698   -0.3795   -0.7077 C   0  0  0  0  0  0  0  0  0  0  0  0
    2.1421   -1.0698   -1.1513 C   0  0  0  0  0  0  0  0  0  0  0  0
    1.7344   -2.2309   -0.5305 C   0  0  0  0  0  0  0  0  0  0  0  0
    2.4562   -2.7087    0.5416 C   0  0  0  0  0  0  0  0  0  0  0  0
    3.5679   -2.0106    0.9639 C   0  0  0  0  0  0  0  0  0  0  0  0
    0.3212   -3.0359   -1.1391 S   0  0  0  0  0  0  0  0  0  0  0  0
    0.2159   -2.8146   -2.6160 O   0  0  0  0  0  0  0  0  0  0  0  0
    0.4795   -4.5080   -0.8672 O   0  0  0  0  0  0  0  0  0  0  0  0
   -1.1197   -2.5133   -0.4055 N   0  0  0  0  0  0  0  0  0  0  0  0
   -1.4270   -1.1302   -0.5914 C   0  0  0  0  0  0  0  0  0  0  0  0
   -2.7299   -0.8459    0.1225 C   0  0  0  0  0  0  0  0  0  0  0  0
   -3.1496    0.5284    0.0067 N   0  0  0  0  0  0  0  0  0  0  0  0
   -3.9871    0.9345   -1.0984 C   0  0  0  0  0  0  0  0  0  0  0  0
   -5.4396    0.8106   -0.7818 C   0  0  0  0  0  0  0  0  0  0  0  0
   -6.3329    1.1584   -1.7595 C   0  0  0  0  0  0  0  0  0  0  0  0
   -7.7140    1.0751   -1.5545 C   0  0  0  0  0  0  0  0  0  0  0  0
   -8.2043    0.6349   -0.3468 C   0  0  0  0  0  0  0  0  0  0  0  0
   -7.3027    0.2878    0.6290 C   0  0  0  0  0  0  0  0  0  0  0  0
   -5.9233    0.3736    0.4171 C   0  0  0  0  0  0  0  0  0  0  0  0
   -9.6146    0.5356   -0.0987 C   0  0  0  0  0  0  0  0  0  0  0  0
  -10.7610    0.4396    0.0922 N   0  0  0  0  0  0  0  0  0  0  0  0
   -2.7316    1.4528    0.9798 C   0  0  0  0  0  0  0  0  0  0  0  0
   -1.8812    1.0547    2.1147 C   0  0  0  0  0  0  0  0  0  0  0  0
   -3.0934    2.6466    0.8771 O   0  0  0  0  0  0  0  0  0  0  0  0
    7.6792    1.0522   -2.1910 H   0  0  0  0  0  0  0  0  0  0  0  0
    8.3180    2.7728   -2.2661 H   0  0  0  0  0  0  0  0  0  0  0  0
    6.5852    2.5055   -1.9315 H   0  0  0  0  0  0  0  0  0  0  0  0
    8.3261    1.7867    2.1437 H   0  0  0  0  0  0  0  0  0  0  0  0
    6.8965    0.4862    3.6973 H   0  0  0  0  0  0  0  0  0  0  0  0
    4.8957   -0.7212    2.8310 H   0  0  0  0  0  0  0  0  0  0  0  0
    5.7272    0.6387   -1.0694 H   0  0  0  0  0  0  0  0  0  0  0  0
    3.5703    0.5279   -1.2093 H   0  0  0  0  0  0  0  0  0  0  0  0
    1.6244   -0.6351   -1.9989 H   0  0  0  0  0  0  0  0  0  0  0  0
    2.1451   -3.6301    1.0455 H   0  0  0  0  0  0  0  0  0  0  0  0
    4.1652   -2.3572    1.8089 H   0  0  0  0  0  0  0  0  0  0  0  0
   -1.9065   -3.1619   -0.4777 H   0  0  0  0  0  0  0  0  0  0  0  0
   -0.6238   -0.4919   -0.2303 H   0  0  0  0  0  0  0  0  0  0  0  0
   -1.5383   -0.9650   -1.6967 H   0  0  0  0  0  0  0  0  0  0  0  0
   -2.6348   -1.0928    1.1794 H   0  0  0  0  0  0  0  0  0  0  0  0
   -3.5073   -1.4707   -0.3988 H   0  0  0  0  0  0  0  0  0  0  0  0
   -3.7660    0.3850   -2.0361 H   0  0  0  0  0  0  0  0  0  0  0  0
   -3.8358    2.0266   -1.3452 H   0  0  0  0  0  0  0  0  0  0  0  0
   -6.0200    1.5151   -2.7396 H   0  0  0  0  0  0  0  0  0  0  0  0
   -8.4225    1.3454   -2.3145 H   0  0  0  0  0  0  0  0  0  0  0  0
   -7.6699   -0.0577    1.5774 H   0  0  0  0  0  0  0  0  0  0  0  0
   -5.2311    0.0991    1.1881 H   0  0  0  0  0  0  0  0  0  0  0  0
   -1.7415    1.9184    2.7782 H   0  0  0  0  0  0  0  0  0  0  0  0
   -0.8569    0.7304    1.8101 H   0  0  0  0  0  0  0  0  0  0  0  0
   -2.3391    0.2128    2.7083 H   0  0  0  0  0  0  0  0  0  0  0  0
  1  2  1  0
  2  3  1  0
  3  4  2  0
  4  5  1  0
  5  6  2  0
  6  7  1  0
  7  8  2  0
  7  9  1  0
  9 10  2  0
 10 11  1  0
 11 12  2  0
 12 13  1  0
 13 14  2  0
 12 15  1  0
 15 16  2  0
 15 17  2  0
 15 18  1  0
 18 19  1  0
 19 20  1  0
 20 21  1  0
 21 22  1  0
 22 23  1  0
 23 24  2  0
 24 25  1  0
 25 26  2  0
 26 27  1  0
 27 28  2  0
 26 29  1  0
 29 30  3  0
 21 31  1  0
 31 32  1  0
 31 33  2  0
  8  3  1  0
 14  9  1  0
 28 23  1  0
  1 34  1  0
  1 35  1  0
  1 36  1  0
  4 37  1  0
  5 38  1  0
  6 39  1  0
  8 40  1  0
 10 41  1  0
 11 42  1  0
 13 43  1  0
 14 44  1  0
 18 45  1  0
 19 46  1  0
 19 47  1  0
 20 48  1  0
 20 49  1  0
 22 50  1  0
 22 51  1  0
 24 52  1  0
 25 53  1  0
 27 54  1  0
 28 55  1  0
 32 56  1  0
 32 57  1  0
 32 58  1  0
M  END
$$$$
[H]c1c([H])c([H])c(-c2nnc(SC([H])([H])C(=O)N3C([H])([H])C([H])([H])N(c4c([H])c([H])c([H])c([H])c4[H])C([H])([H])C3([H])[H])c3c([H])c([H])c([H])c([H])c23)c([H])c1[H]
     RDKit          3D

 56 60  0  0  0  0  0  0  0  0999 V2000
    1.7729   -3.5464    1.3335 O   0  0  0  0  0  0  0  0  0  0  0  0
    1.5269   -2.4310    0.7766 C   0  0  0  0  0  0  0  0  0  0  0  0
    0.1474   -2.2035    0.3149 C   0  0  0  0  0  0  0  0  0  0  0  0
   -0.7368   -1.3237    1.6585 S   0  0  0  0  0  0  0  0  0  0  0  0
   -2.4069   -1.0714    1.0882 C   0  0  0  0  0  0  0  0  0  0  0  0
   -3.3736   -1.9773    1.3126 N   0  0  0  0  0  0  0  0  0  0  0  0
   -4.6114   -1.7762    0.8819 N   0  0  0  0  0  0  0  0  0  0  0  0
   -4.9802   -0.6806    0.2070 C   0  0  0  0  0  0  0  0  0  0  0  0
   -6.3716   -0.5656   -0.2076 C   0  0  0  0  0  0  0  0  0  0  0  0
   -7.3623   -0.7315    0.7708 C   0  0  0  0  0  0  0  0  0  0  0  0
   -8.6928   -0.6831    0.4552 C   0  0  0  0  0  0  0  0  0  0  0  0
   -9.1145   -0.4672   -0.8492 C   0  0  0  0  0  0  0  0  0  0  0  0
   -8.1283   -0.3057   -1.8023 C   0  0  0  0  0  0  0  0  0  0  0  0
   -6.7885   -0.3538   -1.4896 C   0  0  0  0  0  0  0  0  0  0  0  0
   -4.0490    0.2851   -0.0565 C   0  0  0  0  0  0  0  0  0  0  0  0
   -4.3216    1.4450   -0.7204 C   0  0  0  0  0  0  0  0  0  0  0  0
   -3.3722    2.4160   -0.9676 C   0  0  0  0  0  0  0  0  0  0  0  0
   -2.0940    2.2123   -0.5275 C   0  0  0  0  0  0  0  0  0  0  0  0
   -1.8049    1.0440    0.1468 C   0  0  0  0  0  0  0  0  0  0  0  0
   -2.7415    0.0717    0.3984 C   0  0  0  0  0  0  0  0  0  0  0  0
    2.5350   -1.4608    0.6132 N   0  0  0  0  0  0  0  0  0  0  0  0
    2.2700   -0.1870   -0.0150 C   0  0  0  0  0  0  0  0  0  0  0  0
    3.5334    0.2927   -0.7000 C   0  0  0  0  0  0  0  0  0  0  0  0
    4.6972    0.2343    0.1816 N   0  0  0  0  0  0  0  0  0  0  0  0
    4.5157   -0.4210    1.4450 C   0  0  0  0  0  0  0  0  0  0  0  0
    3.8852   -1.7849    1.1133 C   0  0  0  0  0  0  0  0  0  0  0  0
    5.9244    0.7930   -0.2084 C   0  0  0  0  0  0  0  0  0  0  0  0
    7.0605    0.8510    0.5647 C   0  0  0  0  0  0  0  0  0  0  0  0
    8.2367    1.4095    0.1195 C   0  0  0  0  0  0  0  0  0  0  0  0
    8.3397    1.9470   -1.1405 C   0  0  0  0  0  0  0  0  0  0  0  0
    7.2162    1.9010   -1.9332 C   0  0  0  0  0  0  0  0  0  0  0  0
    6.0407    1.3453   -1.4943 C   0  0  0  0  0  0  0  0  0  0  0  0
   -0.3996   -3.1734    0.2121 H   0  0  0  0  0  0  0  0  0  0  0  0
    0.0505   -1.6359   -0.6168 H   0  0  0  0  0  0  0  0  0  0  0  0
   -7.0111   -0.9002    1.7937 H   0  0  0  0  0  0  0  0  0  0  0  0
   -9.4587   -0.8162    1.2390 H   0  0  0  0  0  0  0  0  0  0  0  0
  -10.1742   -0.4373   -1.0457 H   0  0  0  0  0  0  0  0  0  0  0  0
   -8.4597   -0.1363   -2.8250 H   0  0  0  0  0  0  0  0  0  0  0  0
   -6.0278   -0.2312   -2.2692 H   0  0  0  0  0  0  0  0  0  0  0  0
   -5.3083    1.6586   -1.0669 H   0  0  0  0  0  0  0  0  0  0  0  0
   -3.6279    3.3372   -1.5070 H   0  0  0  0  0  0  0  0  0  0  0  0
   -1.3138    2.9561   -0.7035 H   0  0  0  0  0  0  0  0  0  0  0  0
   -0.7675    0.9405    0.4721 H   0  0  0  0  0  0  0  0  0  0  0  0
    1.4989   -0.2865   -0.7750 H   0  0  0  0  0  0  0  0  0  0  0  0
    1.9840    0.5232    0.8037 H   0  0  0  0  0  0  0  0  0  0  0  0
    3.6819   -0.3449   -1.5860 H   0  0  0  0  0  0  0  0  0  0  0  0
    3.3439    1.3578   -0.9782 H   0  0  0  0  0  0  0  0  0  0  0  0
    3.6790    0.1395    1.9598 H   0  0  0  0  0  0  0  0  0  0  0  0
    5.3898   -0.5288    2.0747 H   0  0  0  0  0  0  0  0  0  0  0  0
    3.8589   -2.3468    2.0508 H   0  0  0  0  0  0  0  0  0  0  0  0
    4.4193   -2.2759    0.2912 H   0  0  0  0  0  0  0  0  0  0  0  0
    7.0337    0.4404    1.5745 H   0  0  0  0  0  0  0  0  0  0  0  0
    9.0905    1.4280    0.7624 H   0  0  0  0  0  0  0  0  0  0  0  0
    9.2780    2.3922   -1.4947 H   0  0  0  0  0  0  0  0  0  0  0  0
    7.3103    2.3342   -2.9413 H   0  0  0  0  0  0  0  0  0  0  0  0
    5.1784    1.3283   -2.1472 H   0  0  0  0  0  0  0  0  0  0  0  0
  1  2  2  0
  2  3  1  0
  3  4  1  0
  4  5  1  0
  5  6  2  0
  6  7  1  0
  7  8  2  0
  8  9  1  0
  9 10  2  0
 10 11  1  0
 11 12  2  0
 12 13  1  0
 13 14  2  0
  8 15  1  0
 15 16  2  0
 16 17  1  0
 17 18  2  0
 18 19  1  0
 19 20  2  0
  2 21  1  0
 21 22  1  0
 22 23  1  0
 23 24  1  0
 24 25  1  0
 25 26  1  0
 24 27  1  0
 27 28  2  0
 28 29  1  0
 29 30  2  0
 30 31  1  0
 31 32  2  0
 20  5  1  0
 26 21  1  0
 32 27  1  0
 14  9  1  0
 20 15  1  0
  3 33  1  0
  3 34  1  0
 10 35  1  0
 11 36  1  0
 12 37  1  0
 13 38  1  0
 14 39  1  0
 16 40  1  0
 17 41  1  0
 18 42  1  0
 19 43  1  0
 22 44  1  0
 22 45  1  0
 23 46  1  0
 23 47  1  0
 25 48  1  0
 25 49  1  0
 26 50  1  0
 26 51  1  0
 28 52  1  0
 29 53  1  0
 30 54  1  0
 31 55  1  0
 32 56  1  0
M  END
$$$$
[H]c1nc2c(c([H])c1-c1c([H])c([H])c(OC([H])([H])C([H])([H])N3C([H])([H])C([H])([H])N([H])C([H])([H])C3([H])[H])c([H])c1[H])c1c([H])c([H])c(C#N)c([H])c1n2[H]
     RDKit          3D

 53 57  0  0  0  0  0  0  0  0999 V2000
   10.9715    0.2209    1.9743 N   0  0  0  0  0  0  0  0  0  0  0  0
    9.8563    0.1186    1.6245 C   0  0  0  0  0  0  0  0  0  0  0  0
    8.4929   -0.0174    1.1968 C   0  0  0  0  0  0  0  0  0  0  0  0
    7.6762    1.1054    1.1005 C   0  0  0  0  0  0  0  0  0  0  0  0
    6.3748    0.9360    0.6868 C   0  0  0  0  0  0  0  0  0  0  0  0
    5.8483   -0.2928    0.3653 C   0  0  0  0  0  0  0  0  0  0  0  0
    6.6462   -1.3987    0.4582 C   0  0  0  0  0  0  0  0  0  0  0  0
    7.9642   -1.2540    0.8736 C   0  0  0  0  0  0  0  0  0  0  0  0
    5.9087   -2.4526    0.0965 N   0  0  0  0  0  0  0  0  0  0  0  0
    4.6486   -2.0989   -0.2354 C   0  0  0  0  0  0  0  0  0  0  0  0
    3.5518   -2.7586   -0.6529 N   0  0  0  0  0  0  0  0  0  0  0  0
    2.3913   -2.1313   -0.9187 C   0  0  0  0  0  0  0  0  0  0  0  0
    2.2832   -0.7662   -0.7698 C   0  0  0  0  0  0  0  0  0  0  0  0
    3.4130   -0.0926   -0.3405 C   0  0  0  0  0  0  0  0  0  0  0  0
    4.6086   -0.7142   -0.0634 C   0  0  0  0  0  0  0  0  0  0  0  0
    1.0294   -0.0665   -1.0550 C   0  0  0  0  0  0  0  0  0  0  0  0
    1.0154    1.2297   -1.5255 C   0  0  0  0  0  0  0  0  0  0  0  0
   -0.1460    1.9065   -1.7998 C   0  0  0  0  0  0  0  0  0  0  0  0
   -1.4042    1.2984   -1.6106 C   0  0  0  0  0  0  0  0  0  0  0  0
   -2.5437    1.9950   -1.8942 O   0  0  0  0  0  0  0  0  0  0  0  0
   -3.8716    1.7092   -1.7986 C   0  0  0  0  0  0  0  0  0  0  0  0
   -4.3034    1.4876   -0.3936 C   0  0  0  0  0  0  0  0  0  0  0  0
   -5.7193    1.1769   -0.2769 N   0  0  0  0  0  0  0  0  0  0  0  0
   -6.0069    0.9894    1.1210 C   0  0  0  0  0  0  0  0  0  0  0  0
   -5.9462   -0.4586    1.5364 C   0  0  0  0  0  0  0  0  0  0  0  0
   -6.9618   -1.2471    0.8886 N   0  0  0  0  0  0  0  0  0  0  0  0
   -7.2635   -0.7354   -0.4152 C   0  0  0  0  0  0  0  0  0  0  0  0
   -6.0603   -0.0315   -1.0034 C   0  0  0  0  0  0  0  0  0  0  0  0
   -1.3770    0.0091   -1.1432 C   0  0  0  0  0  0  0  0  0  0  0  0
   -0.1874   -0.6790   -0.8636 C   0  0  0  0  0  0  0  0  0  0  0  0
    8.1289    2.0506    1.3620 H   0  0  0  0  0  0  0  0  0  0  0  0
    5.7530    1.8144    0.6165 H   0  0  0  0  0  0  0  0  0  0  0  0
    8.5863   -2.1134    0.9465 H   0  0  0  0  0  0  0  0  0  0  0  0
    6.2270   -3.4580    0.0586 H   0  0  0  0  0  0  0  0  0  0  0  0
    1.5054   -2.6657   -1.2561 H   0  0  0  0  0  0  0  0  0  0  0  0
    3.3640    0.9638   -0.2148 H   0  0  0  0  0  0  0  0  0  0  0  0
    1.9904    1.7128   -1.6764 H   0  0  0  0  0  0  0  0  0  0  0  0
   -0.1655    2.9224   -2.1688 H   0  0  0  0  0  0  0  0  0  0  0  0
   -4.4535    2.6050   -2.1837 H   0  0  0  0  0  0  0  0  0  0  0  0
   -4.2007    0.8921   -2.4891 H   0  0  0  0  0  0  0  0  0  0  0  0
   -3.7617    0.7587    0.1818 H   0  0  0  0  0  0  0  0  0  0  0  0
   -4.1922    2.4761    0.1429 H   0  0  0  0  0  0  0  0  0  0  0  0
   -7.0044    1.3801    1.4090 H   0  0  0  0  0  0  0  0  0  0  0  0
   -5.2681    1.5586    1.7087 H   0  0  0  0  0  0  0  0  0  0  0  0
   -6.1923   -0.4756    2.6364 H   0  0  0  0  0  0  0  0  0  0  0  0
   -4.9494   -0.9051    1.4494 H   0  0  0  0  0  0  0  0  0  0  0  0
   -6.6437   -2.2246    0.8080 H   0  0  0  0  0  0  0  0  0  0  0  0
   -8.0926    0.0026   -0.4135 H   0  0  0  0  0  0  0  0  0  0  0  0
   -7.4856   -1.5913   -1.0890 H   0  0  0  0  0  0  0  0  0  0  0  0
   -6.3158    0.2933   -2.0405 H   0  0  0  0  0  0  0  0  0  0  0  0
   -5.2245   -0.7612   -0.9919 H   0  0  0  0  0  0  0  0  0  0  0  0
   -2.3072   -0.5297   -0.9923 H   0  0  0  0  0  0  0  0  0  0  0  0
   -0.1865   -1.6933   -0.4958 H   0  0  0  0  0  0  0  0  0  0  0  0
  1  2  3  0
  2  3  1  0
  3  4  2  0
  4  5  1  0
  5  6  2  0
  6  7  1  0
  7  8  2  0
  7  9  1  0
  9 10  1  0
 10 11  2  0
 11 12  1  0
 12 13  2  0
 13 14  1  0
 14 15  2  0
 13 16  1  0
 16 17  2  0
 17 18  1  0
 18 19  2  0
 19 20  1  0
 20 21  1  0
 21 22  1  0
 22 23  1  0
 23 24  1  0
 24 25  1  0
 25 26  1  0
 26 27  1  0
 27 28  1  0
 19 29  1  0
 29 30  2  0
  8  3  1  0
 15 10  1  0
 30 16  1  0
 15  6  1  0
 28 23  1  0
  4 31  1  0
  5 32  1  0
  8 33  1  0
  9 34  1  0
 12 35  1  0
 14 36  1  0
 17 37  1  0
 18 38  1  0
 21 39  1  0
 21 40  1  0
 22 41  1  0
 22 42  1  0
 24 43  1  0
 24 44  1  0
 25 45  1  0
 25 46  1  0
 26 47  1  0
 27 48  1  0
 27 49  1  0
 28 50  1  0
 28 51  1  0
 29 52  1  0
 30 53  1  0
M  END
$$$$
[H]c1nc(N([H])c2c([H])c([H])c(F)c(C(=O)N([H])C([H])([H])[H])c2[H])nc(N([H])c2c([H])c([H])c([H])c([H])c2S(=O)(=O)C([H])(C([H])([H])[H])C([H])([H])[H])c1Cl
     RDKit          3D

 53 55  0  0  0  0  0  0  0  0999 V2000
    8.5193    2.3414    0.9020 C   0  0  0  0  0  0  0  0  0  0  0  0
    7.8418    1.2360    0.1766 N   0  0  0  0  0  0  0  0  0  0  0  0
    6.5101    0.9677    0.5005 C   0  0  0  0  0  0  0  0  0  0  0  0
    5.9884    1.7139    1.4024 O   0  0  0  0  0  0  0  0  0  0  0  0
    5.6487   -0.0442   -0.0565 C   0  0  0  0  0  0  0  0  0  0  0  0
    4.2785    0.0325    0.2008 C   0  0  0  0  0  0  0  0  0  0  0  0
    3.3584   -0.8942   -0.3136 C   0  0  0  0  0  0  0  0  0  0  0  0
    1.9998   -0.7514    0.0204 N   0  0  0  0  0  0  0  0  0  0  0  0
    0.8916   -1.2253   -0.7060 C   0  0  0  0  0  0  0  0  0  0  0  0
    1.0267   -1.8825   -1.8626 N   0  0  0  0  0  0  0  0  0  0  0  0
   -0.0467   -2.3152   -2.5198 C   0  0  0  0  0  0  0  0  0  0  0  0
   -1.2868   -2.0938   -2.0230 C   0  0  0  0  0  0  0  0  0  0  0  0
   -2.6516   -2.6872   -2.9213 Cl  0  0  0  0  0  0  0  0  0  0  0  0
   -1.4738   -1.4040   -0.8055 C   0  0  0  0  0  0  0  0  0  0  0  0
   -2.7875   -1.1718   -0.3399 N   0  0  0  0  0  0  0  0  0  0  0  0
   -3.1964   -0.5450    0.8461 C   0  0  0  0  0  0  0  0  0  0  0  0
   -2.3067   -0.3811    1.9131 C   0  0  0  0  0  0  0  0  0  0  0  0
   -2.7176    0.1343    3.1254 C   0  0  0  0  0  0  0  0  0  0  0  0
   -4.0242    0.4919    3.2860 C   0  0  0  0  0  0  0  0  0  0  0  0
   -4.9021    0.3352    2.2444 C   0  0  0  0  0  0  0  0  0  0  0  0
   -4.5281   -0.1830    0.9931 C   0  0  0  0  0  0  0  0  0  0  0  0
   -5.6937   -0.2340   -0.2713 S   0  0  0  0  0  0  0  0  0  0  0  0
   -5.8826   -1.6113   -0.8810 O   0  0  0  0  0  0  0  0  0  0  0  0
   -7.0875    0.0256    0.3613 O   0  0  0  0  0  0  0  0  0  0  0  0
   -5.5324    0.9697   -1.5237 C   0  0  0  0  0  0  0  0  0  0  0  0
   -4.2436    1.0953   -2.2311 C   0  0  0  0  0  0  0  0  0  0  0  0
   -5.9190    2.3735   -0.9910 C   0  0  0  0  0  0  0  0  0  0  0  0
   -0.3546   -1.0125   -0.2240 N   0  0  0  0  0  0  0  0  0  0  0  0
    3.9092   -1.8780   -1.0854 C   0  0  0  0  0  0  0  0  0  0  0  0
    5.2568   -1.9730   -1.3524 C   0  0  0  0  0  0  0  0  0  0  0  0
    6.1452   -1.0498   -0.8360 C   0  0  0  0  0  0  0  0  0  0  0  0
    7.4744   -1.1949   -1.1167 F   0  0  0  0  0  0  0  0  0  0  0  0
    8.3039    3.2901    0.3912 H   0  0  0  0  0  0  0  0  0  0  0  0
    9.5974    2.1909    0.9525 H   0  0  0  0  0  0  0  0  0  0  0  0
    8.0678    2.3865    1.9111 H   0  0  0  0  0  0  0  0  0  0  0  0
    8.4500    0.7753   -0.5198 H   0  0  0  0  0  0  0  0  0  0  0  0
    3.8809    0.8243    0.8150 H   0  0  0  0  0  0  0  0  0  0  0  0
    1.8006   -0.2320    0.9188 H   0  0  0  0  0  0  0  0  0  0  0  0
    0.1200   -2.8525   -3.4704 H   0  0  0  0  0  0  0  0  0  0  0  0
   -3.5447   -1.5602   -0.9874 H   0  0  0  0  0  0  0  0  0  0  0  0
   -1.2663   -0.6499    1.8738 H   0  0  0  0  0  0  0  0  0  0  0  0
   -2.0184    0.2617    3.9583 H   0  0  0  0  0  0  0  0  0  0  0  0
   -4.3514    0.8941    4.2316 H   0  0  0  0  0  0  0  0  0  0  0  0
   -5.9498    0.6304    2.3977 H   0  0  0  0  0  0  0  0  0  0  0  0
   -6.3571    0.7777   -2.2807 H   0  0  0  0  0  0  0  0  0  0  0  0
   -3.4151    1.4822   -1.6042 H   0  0  0  0  0  0  0  0  0  0  0  0
   -4.3927    1.8374   -3.0849 H   0  0  0  0  0  0  0  0  0  0  0  0
   -3.9967    0.1626   -2.7507 H   0  0  0  0  0  0  0  0  0  0  0  0
   -5.2024    2.6890   -0.2120 H   0  0  0  0  0  0  0  0  0  0  0  0
   -6.9475    2.2849   -0.6263 H   0  0  0  0  0  0  0  0  0  0  0  0
   -5.9080    3.0268   -1.8871 H   0  0  0  0  0  0  0  0  0  0  0  0
    3.2530   -2.6454   -1.5023 H   0  0  0  0  0  0  0  0  0  0  0  0
    5.6629   -2.7589   -1.9648 H   0  0  0  0  0  0  0  0  0  0  0  0
  1  2  1  0
  2  3  1  0
  3  4  2  0
  3  5  1  0
  5  6  2  0
  6  7  1  0
  7  8  1  0
  8  9  1  0
  9 10  2  0
 10 11  1  0
 11 12  2  0
 12 13  1  0
 12 14  1  0
 14 15  1  0
 15 16  1  0
 16 17  2  0
 17 18  1  0
 18 19  2  0
 19 20  1  0
 20 21  2  0
 21 22  1  0
 22 23  2  0
 22 24  2  0
 22 25  1  0
 25 26  1  0
 25 27  1  0
 14 28  2  0
  7 29  2  0
 29 30  1  0
 30 31  2  0
 31 32  1  0
 31  5  1  0
 28  9  1  0
 21 16  1  0
  1 33  1  0
  1 34  1  0
  1 35  1  0
  2 36  1  0
  6 37  1  0
  8 38  1  0
 11 39  1  0
 15 40  1  0
 17 41  1  0
 18 42  1  0
 19 43  1  0
 20 44  1  0
 25 45  1  0
 26 46  1  0
 26 47  1  0
 26 48  1  0
 27 49  1  0
 27 50  1  0
 27 51  1  0
 29 52  1  0
 30 53  1  0
M  END
$$$$
[H]Oc1c([H])c([H])c2c([H])nc(N([H])c3c([H])c([H])c([H])c(OC([H])([H])[H])c3[H])nc2c1-c1c(Cl)c([H])c([H])c([H])c1Cl
     RDKit          3D

 43 46  0  0  0  0  0  0  0  0999 V2000
    7.2110   -1.7946    1.0255 C   0  0  0  0  0  0  0  0  0  0  0  0
    5.8015   -1.8854    1.1156 O   0  0  0  0  0  0  0  0  0  0  0  0
    4.9830   -1.0349    0.3750 C   0  0  0  0  0  0  0  0  0  0  0  0
    5.5566   -0.1063   -0.4445 C   0  0  0  0  0  0  0  0  0  0  0  0
    4.7513    0.7278   -1.1714 C   0  0  0  0  0  0  0  0  0  0  0  0
    3.3569    0.6287   -1.0746 C   0  0  0  0  0  0  0  0  0  0  0  0
    2.7456   -0.2840   -0.2677 C   0  0  0  0  0  0  0  0  0  0  0  0
    1.3572   -0.4186   -0.1053 N   0  0  0  0  0  0  0  0  0  0  0  0
    0.3384    0.5090   -0.3927 C   0  0  0  0  0  0  0  0  0  0  0  0
    0.5918    1.7244   -0.8788 N   0  0  0  0  0  0  0  0  0  0  0  0
   -0.3183    2.6634   -1.1780 C   0  0  0  0  0  0  0  0  0  0  0  0
   -1.6317    2.3667   -0.9731 C   0  0  0  0  0  0  0  0  0  0  0  0
   -2.6005    3.2932   -1.2635 C   0  0  0  0  0  0  0  0  0  0  0  0
   -3.9218    2.9703   -1.0479 C   0  0  0  0  0  0  0  0  0  0  0  0
   -4.2259    1.7165   -0.5436 C   0  0  0  0  0  0  0  0  0  0  0  0
   -5.5455    1.3548   -0.3131 O   0  0  0  0  0  0  0  0  0  0  0  0
   -3.2564    0.7833   -0.2506 C   0  0  0  0  0  0  0  0  0  0  0  0
   -3.6208   -0.5239    0.2785 C   0  0  0  0  0  0  0  0  0  0  0  0
   -3.7359   -0.7880    1.6293 C   0  0  0  0  0  0  0  0  0  0  0  0
   -3.4169    0.5520    2.7245 Cl  0  0  0  0  0  0  0  0  0  0  0  0
   -4.0843   -2.0446    2.0826 C   0  0  0  0  0  0  0  0  0  0  0  0
   -4.3131   -3.0261    1.1358 C   0  0  0  0  0  0  0  0  0  0  0  0
   -4.2025   -2.7789   -0.2155 C   0  0  0  0  0  0  0  0  0  0  0  0
   -3.8579   -1.5345   -0.6509 C   0  0  0  0  0  0  0  0  0  0  0  0
   -3.7081   -1.1870   -2.3800 Cl  0  0  0  0  0  0  0  0  0  0  0  0
   -1.9129    1.1062   -0.4677 C   0  0  0  0  0  0  0  0  0  0  0  0
   -0.9686    0.2009   -0.1838 N   0  0  0  0  0  0  0  0  0  0  0  0
    3.6234   -1.1156    0.4559 C   0  0  0  0  0  0  0  0  0  0  0  0
    7.6240   -2.4553    1.8423 H   0  0  0  0  0  0  0  0  0  0  0  0
    7.5835   -0.7651    1.1252 H   0  0  0  0  0  0  0  0  0  0  0  0
    7.5275   -2.2283    0.0381 H   0  0  0  0  0  0  0  0  0  0  0  0
    6.6574   -0.0141   -0.5327 H   0  0  0  0  0  0  0  0  0  0  0  0
    5.2149    1.4560   -1.8142 H   0  0  0  0  0  0  0  0  0  0  0  0
    2.7908    1.3045   -1.6860 H   0  0  0  0  0  0  0  0  0  0  0  0
    0.9986   -1.3549    0.2913 H   0  0  0  0  0  0  0  0  0  0  0  0
   -0.0324    3.6440   -1.5758 H   0  0  0  0  0  0  0  0  0  0  0  0
   -2.3561    4.2703   -1.6570 H   0  0  0  0  0  0  0  0  0  0  0  0
   -4.7129    3.6810   -1.2673 H   0  0  0  0  0  0  0  0  0  0  0  0
   -6.2729    2.0223   -0.5203 H   0  0  0  0  0  0  0  0  0  0  0  0
   -4.1663   -2.2204    3.1436 H   0  0  0  0  0  0  0  0  0  0  0  0
   -4.5858   -4.0110    1.4782 H   0  0  0  0  0  0  0  0  0  0  0  0
   -4.3851   -3.5603   -0.9571 H   0  0  0  0  0  0  0  0  0  0  0  0
    3.1193   -1.8436    1.0995 H   0  0  0  0  0  0  0  0  0  0  0  0
  1  2  1  0
  2  3  1  0
  3  4  2  0
  4  5  1  0
  5  6  2  0
  6  7  1  0
  7  8  1  0
  8  9  1  0
  9 10  2  0
 10 11  1  0
 11 12  2  0
 12 13  1  0
 13 14  2  0
 14 15  1  0
 15 16  1  0
 15 17  2  0
 17 18  1  0
 18 19  2  0
 19 20  1  0
 19 21  1  0
 21 22  2  0
 22 23  1  0
 23 24  2  0
 24 25  1  0
 17 26  1  0
 26 27  2  0
  7 28  2  0
 28  3  1  0
 27  9  1  0
 26 12  1  0
 24 18  1  0
  1 29  1  0
  1 30  1  0
  1 31  1  0
  4 32  1  0
  5 33  1  0
  6 34  1  0
  8 35  1  0
 11 36  1  0
 13 37  1  0
 14 38  1  0
 16 39  1  0
 21 40  1  0
 22 41  1  0
 23 42  1  0
 28 43  1  0
M  END
$$$$
[H]c1c([H])c(C([H])(C(=O)N([H])c2c([H])c([H])c(N3C([H])([H])C([H])([H])S(=O)(=O)C([H])([H])C3([H])[H])c([H])c2[H])C([H])([H])[H])c([H])c([H])c1C#N
     RDKit          3D

 48 50  0  0  0  0  0  0  0  0999 V2000
    3.6372    2.5509    1.8226 C   0  0  0  0  0  0  0  0  0  0  0  0
    3.5603    2.2556    0.3617 C   0  0  0  0  0  0  0  0  0  0  0  0
    2.1426    1.9863   -0.0323 C   0  0  0  0  0  0  0  0  0  0  0  0
    1.6325    2.8283   -0.8061 O   0  0  0  0  0  0  0  0  0  0  0  0
    1.4213    0.8883    0.4146 N   0  0  0  0  0  0  0  0  0  0  0  0
    0.0997    0.4909    0.1479 C   0  0  0  0  0  0  0  0  0  0  0  0
   -0.7789    1.2623   -0.5572 C   0  0  0  0  0  0  0  0  0  0  0  0
   -2.0888    0.8082   -0.8036 C   0  0  0  0  0  0  0  0  0  0  0  0
   -2.5455   -0.4043   -0.3602 C   0  0  0  0  0  0  0  0  0  0  0  0
   -1.6512   -1.1923    0.3593 C   0  0  0  0  0  0  0  0  0  0  0  0
   -0.3785   -0.7526    0.5992 C   0  0  0  0  0  0  0  0  0  0  0  0
   -3.8762   -0.8617   -0.5975 N   0  0  0  0  0  0  0  0  0  0  0  0
   -4.9475    0.0066   -1.0153 C   0  0  0  0  0  0  0  0  0  0  0  0
   -6.0262    0.1228    0.0458 C   0  0  0  0  0  0  0  0  0  0  0  0
   -6.4450   -1.4415    0.7536 S   0  0  0  0  0  0  0  0  0  0  0  0
   -7.4975   -2.1211   -0.0492 O   0  0  0  0  0  0  0  0  0  0  0  0
   -7.0207   -1.1712    2.1338 O   0  0  0  0  0  0  0  0  0  0  0  0
   -4.9686   -2.4225    0.8716 C   0  0  0  0  0  0  0  0  0  0  0  0
   -4.2254   -2.2661   -0.4341 C   0  0  0  0  0  0  0  0  0  0  0  0
    4.4842    1.1639   -0.0741 C   0  0  0  0  0  0  0  0  0  0  0  0
    4.7152    0.0267    0.6583 C   0  0  0  0  0  0  0  0  0  0  0  0
    5.5804   -0.9685    0.1972 C   0  0  0  0  0  0  0  0  0  0  0  0
    6.2362   -0.8509   -1.0075 C   0  0  0  0  0  0  0  0  0  0  0  0
    6.0142    0.2862   -1.7538 C   0  0  0  0  0  0  0  0  0  0  0  0
    5.1604    1.2650   -1.2960 C   0  0  0  0  0  0  0  0  0  0  0  0
    7.1303   -1.8934   -1.4703 C   0  0  0  0  0  0  0  0  0  0  0  0
    7.8293   -2.7323   -1.8508 N   0  0  0  0  0  0  0  0  0  0  0  0
    3.4565    3.6203    2.0624 H   0  0  0  0  0  0  0  0  0  0  0  0
    2.8566    1.9721    2.3978 H   0  0  0  0  0  0  0  0  0  0  0  0
    4.6231    2.3033    2.2712 H   0  0  0  0  0  0  0  0  0  0  0  0
    3.8799    3.1778   -0.1970 H   0  0  0  0  0  0  0  0  0  0  0  0
    1.9650    0.2350    1.0798 H   0  0  0  0  0  0  0  0  0  0  0  0
   -0.5468    2.2303   -0.9526 H   0  0  0  0  0  0  0  0  0  0  0  0
   -2.7367    1.4720   -1.3785 H   0  0  0  0  0  0  0  0  0  0  0  0
   -1.9863   -2.1613    0.7286 H   0  0  0  0  0  0  0  0  0  0  0  0
    0.2977   -1.3793    1.1583 H   0  0  0  0  0  0  0  0  0  0  0  0
   -4.6206    1.0358   -1.2204 H   0  0  0  0  0  0  0  0  0  0  0  0
   -5.4091   -0.3502   -1.9830 H   0  0  0  0  0  0  0  0  0  0  0  0
   -6.9247    0.5446   -0.4524 H   0  0  0  0  0  0  0  0  0  0  0  0
   -5.6196    0.8224    0.8251 H   0  0  0  0  0  0  0  0  0  0  0  0
   -5.2549   -3.4721    1.0462 H   0  0  0  0  0  0  0  0  0  0  0  0
   -4.3517   -1.9971    1.6884 H   0  0  0  0  0  0  0  0  0  0  0  0
   -3.3682   -2.9333   -0.5015 H   0  0  0  0  0  0  0  0  0  0  0  0
   -4.9246   -2.5765   -1.2601 H   0  0  0  0  0  0  0  0  0  0  0  0
    4.2184   -0.0935    1.6225 H   0  0  0  0  0  0  0  0  0  0  0  0
    5.7468   -1.8605    0.7954 H   0  0  0  0  0  0  0  0  0  0  0  0
    6.5301    0.3785   -2.7009 H   0  0  0  0  0  0  0  0  0  0  0  0
    4.9753    2.1682   -1.8743 H   0  0  0  0  0  0  0  0  0  0  0  0
  1  2  1  0
  2  3  1  0
  3  4  2  0
  3  5  1  0
  5  6  1  0
  6  7  2  0
  7  8  1  0
  8  9  2  0
  9 10  1  0
 10 11  2  0
  9 12  1  0
 12 13  1  0
 13 14  1  0
 14 15  1  0
 15 16  2  0
 15 17  2  0
 15 18  1  0
 18 19  1  0
  2 20  1  0
 20 21  2  0
 21 22  1  0
 22 23  2  0
 23 24  1  0
 24 25  2  0
 23 26  1  0
 26 27  3  0
 11  6  1  0
 19 12  1  0
 25 20  1  0
  1 28  1  0
  1 29  1  0
  1 30  1  0
  2 31  1  0
  5 32  1  0
  7 33  1  0
  8 34  1  0
 10 35  1  0
 11 36  1  0
 13 37  1  0
 13 38  1  0
 14 39  1  0
 14 40  1  0
 18 41  1  0
 18 42  1  0
 19 43  1  0
 19 44  1  0
 21 45  1  0
 22 46  1  0
 24 47  1  0
 25 48  1  0
M  END
$$$$
[H]C1=C(c2c([H])n([H])c3c([H])c([H])c(N([H])C(=O)N([H])[H])nc23)C([H])([H])C([H])([H])C([H])(/C([H])=C(\[H])c2c([H])c([H])c(F)c([H])c2[H])C1([H])[H]
     RDKit          3D

 49 52  0  0  0  0  0  0  0  0999 V2000
   -7.3316    2.1036   -1.9101 N   0  0  0  0  0  0  0  0  0  0  0  0
   -6.0095    2.5583   -1.9864 C   0  0  0  0  0  0  0  0  0  0  0  0
   -5.8404    3.6827   -2.6162 O   0  0  0  0  0  0  0  0  0  0  0  0
   -4.8962    1.9445   -1.4709 N   0  0  0  0  0  0  0  0  0  0  0  0
   -4.7996    0.7444   -0.7593 C   0  0  0  0  0  0  0  0  0  0  0  0
   -5.8479   -0.0596   -0.4410 C   0  0  0  0  0  0  0  0  0  0  0  0
   -5.6382   -1.2505    0.2815 C   0  0  0  0  0  0  0  0  0  0  0  0
   -4.3747   -1.6037    0.6668 C   0  0  0  0  0  0  0  0  0  0  0  0
   -3.8889   -2.6560    1.3480 N   0  0  0  0  0  0  0  0  0  0  0  0
   -2.5668   -2.4939    1.4420 C   0  0  0  0  0  0  0  0  0  0  0  0
   -2.1806   -1.3274    0.8186 C   0  0  0  0  0  0  0  0  0  0  0  0
   -0.8109   -0.8437    0.7322 C   0  0  0  0  0  0  0  0  0  0  0  0
   -0.4335    0.2699    0.1388 C   0  0  0  0  0  0  0  0  0  0  0  0
    1.0225    0.5913    0.1586 C   0  0  0  0  0  0  0  0  0  0  0  0
    1.7036   -0.6000   -0.4834 C   0  0  0  0  0  0  0  0  0  0  0  0
    1.4000   -1.8497    0.2983 C   0  0  0  0  0  0  0  0  0  0  0  0
    0.3165   -1.6334    1.3545 C   0  0  0  0  0  0  0  0  0  0  0  0
    3.1874   -0.4336   -0.5427 C   0  0  0  0  0  0  0  0  0  0  0  0
    3.8010    0.6092   -0.0626 C   0  0  0  0  0  0  0  0  0  0  0  0
    5.2429    0.7653   -0.1231 C   0  0  0  0  0  0  0  0  0  0  0  0
    5.8664    1.8936    0.4005 C   0  0  0  0  0  0  0  0  0  0  0  0
    7.2314    2.0503    0.3478 C   0  0  0  0  0  0  0  0  0  0  0  0
    8.0405    1.0933   -0.2275 C   0  0  0  0  0  0  0  0  0  0  0  0
    9.3936    1.2297   -0.2895 F   0  0  0  0  0  0  0  0  0  0  0  0
    7.4443   -0.0169   -0.7444 C   0  0  0  0  0  0  0  0  0  0  0  0
    6.0713   -0.1721   -0.6902 C   0  0  0  0  0  0  0  0  0  0  0  0
   -3.3446   -0.7606    0.3232 C   0  0  0  0  0  0  0  0  0  0  0  0
   -3.5794    0.3535   -0.3582 N   0  0  0  0  0  0  0  0  0  0  0  0
   -7.9400    2.4821   -1.1338 H   0  0  0  0  0  0  0  0  0  0  0  0
   -7.7609    1.4111   -2.5725 H   0  0  0  0  0  0  0  0  0  0  0  0
   -3.9593    2.4657   -1.6407 H   0  0  0  0  0  0  0  0  0  0  0  0
   -6.8629    0.1697   -0.7189 H   0  0  0  0  0  0  0  0  0  0  0  0
   -6.5026   -1.8669    0.5169 H   0  0  0  0  0  0  0  0  0  0  0  0
   -4.4757   -3.4537    1.7284 H   0  0  0  0  0  0  0  0  0  0  0  0
   -1.9468   -3.2384    1.9634 H   0  0  0  0  0  0  0  0  0  0  0  0
   -1.1329    0.9092   -0.3319 H   0  0  0  0  0  0  0  0  0  0  0  0
    1.2377    1.5201   -0.4179 H   0  0  0  0  0  0  0  0  0  0  0  0
    1.3566    0.6845    1.2063 H   0  0  0  0  0  0  0  0  0  0  0  0
    1.2784   -0.6592   -1.5236 H   0  0  0  0  0  0  0  0  0  0  0  0
    2.3321   -2.1811    0.7951 H   0  0  0  0  0  0  0  0  0  0  0  0
    1.0127   -2.6644   -0.3862 H   0  0  0  0  0  0  0  0  0  0  0  0
   -0.0334   -2.5878    1.7460 H   0  0  0  0  0  0  0  0  0  0  0  0
    0.7363   -0.9994    2.1593 H   0  0  0  0  0  0  0  0  0  0  0  0
    3.7197   -1.2260   -1.0054 H   0  0  0  0  0  0  0  0  0  0  0  0
    3.1640    1.3740    0.3961 H   0  0  0  0  0  0  0  0  0  0  0  0
    5.2186    2.6364    0.8489 H   0  0  0  0  0  0  0  0  0  0  0  0
    7.7046    2.9509    0.7681 H   0  0  0  0  0  0  0  0  0  0  0  0
    8.0069   -0.8242   -1.2179 H   0  0  0  0  0  0  0  0  0  0  0  0
    5.6685   -1.0911   -1.1269 H   0  0  0  0  0  0  0  0  0  0  0  0
  1  2  1  0
  2  3  2  0
  2  4  1  0
  4  5  1  0
  5  6  2  0
  6  7  1  0
  7  8  2  0
  8  9  1  0
  9 10  1  0
 10 11  2  0
 11 12  1  0
 12 13  2  0
 13 14  1  0
 14 15  1  0
 15 16  1  0
 16 17  1  0
 15 18  1  0
 18 19  2  0
 19 20  1  0
 20 21  2  0
 21 22  1  0
 22 23  2  0
 23 24  1  0
 23 25  1  0
 25 26  2  0
 11 27  1  0
 27 28  2  0
 28  5  1  0
 27  8  1  0
 17 12  1  0
 26 20  1  0
  1 29  1  0
  1 30  1  0
  4 31  1  0
  6 32  1  0
  7 33  1  0
  9 34  1  0
 10 35  1  0
 13 36  1  0
 14 37  1  0
 14 38  1  0
 15 39  1  0
 16 40  1  0
 16 41  1  0
 17 42  1  0
 17 43  1  0
 18 44  1  0
 19 45  1  0
 21 46  1  0
 22 47  1  0
 25 48  1  0
 26 49  1  0
M  END
$$$$
[H]N=C(N([H])[H])N([H])C([H])([H])C([H])([H])C([H])([H])[C@@]([H])(C(=O)c1nc2c([H])c([H])c([H])c([H])c2s1)N([H])C(=O)[C@@]([H])(N([H])C(=O)[C@@]([H])(N([H])C(=O)C([H])([H])[H])C([H])([H])C([H])([H])C([H])([H])C([H])([H])N([H])[H])C([H])([H])C([H])(C([H])([H])[H])C([H])([H])[H]
     RDKit          3D

 82 83  0  0  0  0  0  0  0  0999 V2000
    1.1865    4.8953   -3.5402 C   0  0  0  0  0  0  0  0  0  0  0  0
    1.7643    4.2078   -2.2872 C   0  0  0  0  0  0  0  0  0  0  0  0
    1.8532    5.2975   -1.2515 C   0  0  0  0  0  0  0  0  0  0  0  0
    0.8186    3.1052   -1.9588 C   0  0  0  0  0  0  0  0  0  0  0  0
    1.1763    2.2661   -0.7757 C   0  0  2  0  0  0  0  0  0  0  0  0
    2.4770    1.6154   -0.9618 N   0  0  0  0  0  0  0  0  0  0  0  0
    3.4489    1.5938    0.0359 C   0  0  0  0  0  0  0  0  0  0  0  0
    3.2447    2.1518    1.1276 O   0  0  0  0  0  0  0  0  0  0  0  0
    4.7731    0.8956   -0.1644 C   0  0  2  0  0  0  0  0  0  0  0  0
    4.7698    0.1862   -1.4606 C   0  0  0  0  0  0  0  0  0  0  0  0
    5.9293   -0.6361   -1.8616 C   0  0  0  0  0  0  0  0  0  0  0  0
    6.2464   -1.8778   -1.1229 C   0  0  0  0  0  0  0  0  0  0  0  0
    5.1843   -2.9312   -1.1975 C   0  0  0  0  0  0  0  0  0  0  0  0
    3.8931   -2.6121   -0.6913 N   0  0  0  0  0  0  0  0  0  0  0  0
    5.3120    0.2666    0.9627 N   0  0  0  0  0  0  0  0  0  0  0  0
    4.7004   -0.2604    2.1263 C   0  0  0  0  0  0  0  0  0  0  0  0
    5.5303   -0.8890    3.2160 C   0  0  0  0  0  0  0  0  0  0  0  0
    3.4723   -0.2527    2.3455 O   0  0  0  0  0  0  0  0  0  0  0  0
    0.1592    1.1551   -0.7447 C   0  0  0  0  0  0  0  0  0  0  0  0
    0.2848    0.1679   -1.5485 O   0  0  0  0  0  0  0  0  0  0  0  0
   -0.8940    1.2238    0.1586 N   0  0  0  0  0  0  0  0  0  0  0  0
   -1.9431    0.2014    0.2688 C   0  0  1  0  0  0  0  0  0  0  0  0
   -1.4886   -0.8246    1.3115 C   0  0  0  0  0  0  0  0  0  0  0  0
   -2.5463   -1.8852    1.4381 C   0  0  0  0  0  0  0  0  0  0  0  0
   -2.1400   -2.9397    2.4605 C   0  0  0  0  0  0  0  0  0  0  0  0
   -3.1602   -3.9480    2.5764 N   0  0  0  0  0  0  0  0  0  0  0  0
   -4.4403   -3.7529    3.1431 C   0  0  0  0  0  0  0  0  0  0  0  0
   -5.4305   -2.9845    2.5076 N   0  0  0  0  0  0  0  0  0  0  0  0
   -4.7044   -4.3086    4.2723 N   0  0  0  0  0  0  0  0  0  0  0  0
   -3.2283    0.7800    0.6265 C   0  0  0  0  0  0  0  0  0  0  0  0
   -3.2383    1.7518    1.4501 O   0  0  0  0  0  0  0  0  0  0  0  0
   -4.4788    0.2890    0.0785 C   0  0  0  0  0  0  0  0  0  0  0  0
   -5.6799    0.7454    0.4090 N   0  0  0  0  0  0  0  0  0  0  0  0
   -6.7473    0.2497   -0.1475 C   0  0  0  0  0  0  0  0  0  0  0  0
   -8.0781    0.6401    0.1197 C   0  0  0  0  0  0  0  0  0  0  0  0
   -9.0940    0.0204   -0.5415 C   0  0  0  0  0  0  0  0  0  0  0  0
   -8.9393   -0.9747   -1.4688 C   0  0  0  0  0  0  0  0  0  0  0  0
   -7.6481   -1.3655   -1.7400 C   0  0  0  0  0  0  0  0  0  0  0  0
   -6.5761   -0.7446   -1.0730 C   0  0  0  0  0  0  0  0  0  0  0  0
   -4.8719   -0.9034   -1.0809 S   0  0  0  0  0  0  0  0  0  0  0  0
    0.0836    4.9132   -3.4354 H   0  0  0  0  0  0  0  0  0  0  0  0
    1.5439    5.9185   -3.6635 H   0  0  0  0  0  0  0  0  0  0  0  0
    1.4087    4.2305   -4.4039 H   0  0  0  0  0  0  0  0  0  0  0  0
    2.7837    3.8837   -2.5662 H   0  0  0  0  0  0  0  0  0  0  0  0
    0.8334    5.6279   -0.9983 H   0  0  0  0  0  0  0  0  0  0  0  0
    2.3195    6.1759   -1.7925 H   0  0  0  0  0  0  0  0  0  0  0  0
    2.5093    5.0845   -0.4068 H   0  0  0  0  0  0  0  0  0  0  0  0
   -0.1795    3.5675   -1.7923 H   0  0  0  0  0  0  0  0  0  0  0  0
    0.7153    2.4640   -2.8556 H   0  0  0  0  0  0  0  0  0  0  0  0
    1.1704    2.7419    0.1949 H   0  0  0  0  0  0  0  0  0  0  0  0
    2.6229    1.1871   -1.8813 H   0  0  0  0  0  0  0  0  0  0  0  0
    5.4591    1.8623   -0.3759 H   0  0  0  0  0  0  0  0  0  0  0  0
    3.7870   -0.3502   -1.6435 H   0  0  0  0  0  0  0  0  0  0  0  0
    4.6925    0.9890   -2.3075 H   0  0  0  0  0  0  0  0  0  0  0  0
    5.8244   -0.9245   -2.9442 H   0  0  0  0  0  0  0  0  0  0  0  0
    6.8325    0.0398   -1.8343 H   0  0  0  0  0  0  0  0  0  0  0  0
    6.5977   -1.7582   -0.0824 H   0  0  0  0  0  0  0  0  0  0  0  0
    7.1704   -2.3484   -1.6263 H   0  0  0  0  0  0  0  0  0  0  0  0
    5.5446   -3.8281   -0.6304 H   0  0  0  0  0  0  0  0  0  0  0  0
    5.0586   -3.2124   -2.2774 H   0  0  0  0  0  0  0  0  0  0  0  0
    3.7612   -2.9055    0.3223 H   0  0  0  0  0  0  0  0  0  0  0  0
    3.1291   -3.0477   -1.2969 H   0  0  0  0  0  0  0  0  0  0  0  0
    6.3927    0.1904    0.9867 H   0  0  0  0  0  0  0  0  0  0  0  0
    6.5092   -0.3567    3.2889 H   0  0  0  0  0  0  0  0  0  0  0  0
    5.7567   -1.9479    2.9840 H   0  0  0  0  0  0  0  0  0  0  0  0
    5.0541   -0.8011    4.1915 H   0  0  0  0  0  0  0  0  0  0  0  0
   -0.9952    2.0209    0.8184 H   0  0  0  0  0  0  0  0  0  0  0  0
   -1.9717   -0.3507   -0.6737 H   0  0  0  0  0  0  0  0  0  0  0  0
   -0.6047   -1.3405    0.8397 H   0  0  0  0  0  0  0  0  0  0  0  0
   -1.2145   -0.3825    2.2667 H   0  0  0  0  0  0  0  0  0  0  0  0
   -3.5157   -1.4989    1.7459 H   0  0  0  0  0  0  0  0  0  0  0  0
   -2.6642   -2.4666    0.4836 H   0  0  0  0  0  0  0  0  0  0  0  0
   -1.2022   -3.4514    2.1081 H   0  0  0  0  0  0  0  0  0  0  0  0
   -1.9425   -2.4938    3.4500 H   0  0  0  0  0  0  0  0  0  0  0  0
   -2.9807   -4.9382    2.2172 H   0  0  0  0  0  0  0  0  0  0  0  0
   -5.8623   -3.3194    1.6119 H   0  0  0  0  0  0  0  0  0  0  0  0
   -5.7373   -2.0856    2.9190 H   0  0  0  0  0  0  0  0  0  0  0  0
   -4.0358   -4.9048    4.8149 H   0  0  0  0  0  0  0  0  0  0  0  0
   -8.3110    1.4148    0.8318 H   0  0  0  0  0  0  0  0  0  0  0  0
  -10.1237    0.3418   -0.3149 H   0  0  0  0  0  0  0  0  0  0  0  0
   -9.7514   -1.4268   -1.9591 H   0  0  0  0  0  0  0  0  0  0  0  0
   -7.3650   -2.1290   -2.4393 H   0  0  0  0  0  0  0  0  0  0  0  0
  1  2  1  0
  2  3  1  0
  2  4  1  0
  4  5  1  0
  5  6  1  0
  6  7  1  0
  7  8  2  0
  7  9  1  0
  9 10  1  0
 10 11  1  0
 11 12  1  0
 12 13  1  0
 13 14  1  0
  9 15  1  0
 15 16  1  0
 16 17  1  0
 16 18  2  0
  5 19  1  0
 19 20  2  0
 19 21  1  0
 21 22  1  0
 22 23  1  0
 23 24  1  0
 24 25  1  0
 25 26  1  0
 26 27  1  0
 27 28  1  0
 27 29  2  3
 22 30  1  0
 30 31  2  0
 30 32  1  0
 32 33  2  0
 33 34  1  0
 34 35  2  0
 35 36  1  0
 36 37  2  0
 37 38  1  0
 38 39  2  0
 39 40  1  0
 40 32  1  0
 39 34  1  0
  1 41  1  0
  1 42  1  0
  1 43  1  0
  2 44  1  0
  3 45  1  0
  3 46  1  0
  3 47  1  0
  4 48  1  0
  4 49  1  0
  5 50  1  1
  6 51  1  0
  9 52  1  6
 10 53  1  0
 10 54  1  0
 11 55  1  0
 11 56  1  0
 12 57  1  0
 12 58  1  0
 13 59  1  0
 13 60  1  0
 14 61  1  0
 14 62  1  0
 15 63  1  0
 17 64  1  0
 17 65  1  0
 17 66  1  0
 21 67  1  0
 22 68  1  6
 23 69  1  0
 23 70  1  0
 24 71  1  0
 24 72  1  0
 25 73  1  0
 25 74  1  0
 26 75  1  0
 28 76  1  0
 28 77  1  0
 29 78  1  0
 35 79  1  0
 36 80  1  0
 37 81  1  0
 38 82  1  0
M  END
$$$$
[H]c1noc(C(=O)N([H])c2c([H])c([H])nn2C([H])([H])c2c([H])c([H])c([H])c(C([H])([H])N3C([H])([H])C([H])([H])OC([H])([H])C3([H])[H])c2[H])c1[H]
     RDKit          3D

 48 51  0  0  0  0  0  0  0  0999 V2000
    5.0035    2.1475   -0.7530 O   0  0  0  0  0  0  0  0  0  0  0  0
    4.7793    1.0328   -0.2150 C   0  0  0  0  0  0  0  0  0  0  0  0
    3.5911    0.6833    0.4501 N   0  0  0  0  0  0  0  0  0  0  0  0
    2.4810    1.5460    0.6222 C   0  0  0  0  0  0  0  0  0  0  0  0
    2.3665    2.8532    0.2071 C   0  0  0  0  0  0  0  0  0  0  0  0
    1.1133    3.2968    0.6059 C   0  0  0  0  0  0  0  0  0  0  0  0
    0.5237    2.2906    1.2260 N   0  0  0  0  0  0  0  0  0  0  0  0
    1.3281    1.2353    1.2440 N   0  0  0  0  0  0  0  0  0  0  0  0
    1.0272   -0.0730    1.8137 C   0  0  0  0  0  0  0  0  0  0  0  0
    0.3053   -0.9487    0.8555 C   0  0  0  0  0  0  0  0  0  0  0  0
    0.9777   -1.8559    0.0755 C   0  0  0  0  0  0  0  0  0  0  0  0
    0.2612   -2.6606   -0.8180 C   0  0  0  0  0  0  0  0  0  0  0  0
   -1.1160   -2.5282   -0.9006 C   0  0  0  0  0  0  0  0  0  0  0  0
   -1.8058   -1.6223   -0.1243 C   0  0  0  0  0  0  0  0  0  0  0  0
   -3.2515   -1.5194   -0.2371 C   0  0  0  0  0  0  0  0  0  0  0  0
   -3.8664   -0.3919    0.3651 N   0  0  0  0  0  0  0  0  0  0  0  0
   -3.5020    0.8915   -0.1117 C   0  0  0  0  0  0  0  0  0  0  0  0
   -4.7846    1.5979   -0.5683 C   0  0  0  0  0  0  0  0  0  0  0  0
   -5.5180    0.8764   -1.4680 O   0  0  0  0  0  0  0  0  0  0  0  0
   -5.8835   -0.3318   -0.9449 C   0  0  0  0  0  0  0  0  0  0  0  0
   -5.3067   -0.5032    0.4228 C   0  0  0  0  0  0  0  0  0  0  0  0
   -1.0897   -0.8407    0.7467 C   0  0  0  0  0  0  0  0  0  0  0  0
    5.8976    0.0695   -0.3324 C   0  0  0  0  0  0  0  0  0  0  0  0
    7.1204    0.2330   -0.9359 C   0  0  0  0  0  0  0  0  0  0  0  0
    7.7734   -0.9684   -0.7547 C   0  0  0  0  0  0  0  0  0  0  0  0
    6.9657   -1.7763   -0.0827 N   0  0  0  0  0  0  0  0  0  0  0  0
    5.8633   -1.1407    0.1555 O   0  0  0  0  0  0  0  0  0  0  0  0
    3.5383   -0.2735    0.8494 H   0  0  0  0  0  0  0  0  0  0  0  0
    3.0953    3.4580   -0.3316 H   0  0  0  0  0  0  0  0  0  0  0  0
    0.7463    4.3157    0.4059 H   0  0  0  0  0  0  0  0  0  0  0  0
    1.9664   -0.5726    2.0872 H   0  0  0  0  0  0  0  0  0  0  0  0
    0.3408    0.0377    2.6928 H   0  0  0  0  0  0  0  0  0  0  0  0
    2.0593   -1.9760    0.1282 H   0  0  0  0  0  0  0  0  0  0  0  0
    0.8438   -3.3532   -1.4030 H   0  0  0  0  0  0  0  0  0  0  0  0
   -1.6045   -3.1811   -1.6110 H   0  0  0  0  0  0  0  0  0  0  0  0
   -3.7831   -2.4312    0.1693 H   0  0  0  0  0  0  0  0  0  0  0  0
   -3.5630   -1.5157   -1.3246 H   0  0  0  0  0  0  0  0  0  0  0  0
   -2.8284    0.9068   -0.9901 H   0  0  0  0  0  0  0  0  0  0  0  0
   -3.1158    1.5627    0.7121 H   0  0  0  0  0  0  0  0  0  0  0  0
   -5.3438    1.9818    0.3063 H   0  0  0  0  0  0  0  0  0  0  0  0
   -4.4093    2.5242   -1.0858 H   0  0  0  0  0  0  0  0  0  0  0  0
   -7.0038   -0.3609   -0.9315 H   0  0  0  0  0  0  0  0  0  0  0  0
   -5.5550   -1.1710   -1.6078 H   0  0  0  0  0  0  0  0  0  0  0  0
   -5.7747    0.1862    1.1461 H   0  0  0  0  0  0  0  0  0  0  0  0
   -5.5480   -1.5256    0.7874 H   0  0  0  0  0  0  0  0  0  0  0  0
   -1.5493   -0.1029    1.3991 H   0  0  0  0  0  0  0  0  0  0  0  0
    7.4634    1.1224   -1.4347 H   0  0  0  0  0  0  0  0  0  0  0  0
    8.7710   -1.2245   -1.0948 H   0  0  0  0  0  0  0  0  0  0  0  0
  1  2  2  0
  2  3  1  0
  3  4  1  0
  4  5  2  0
  5  6  1  0
  6  7  2  0
  7  8  1  0
  8  9  1  0
  9 10  1  0
 10 11  2  0
 11 12  1  0
 12 13  2  0
 13 14  1  0
 14 15  1  0
 15 16  1  0
 16 17  1  0
 17 18  1  0
 18 19  1  0
 19 20  1  0
 20 21  1  0
 14 22  2  0
  2 23  1  0
 23 24  2  0
 24 25  1  0
 25 26  2  0
 26 27  1  0
  8  4  1  0
 22 10  1  0
 27 23  1  0
 21 16  1  0
  3 28  1  0
  5 29  1  0
  6 30  1  0
  9 31  1  0
  9 32  1  0
 11 33  1  0
 12 34  1  0
 13 35  1  0
 15 36  1  0
 15 37  1  0
 17 38  1  0
 17 39  1  0
 18 40  1  0
 18 41  1  0
 20 42  1  0
 20 43  1  0
 21 44  1  0
 21 45  1  0
 22 46  1  0
 24 47  1  0
 25 48  1  0
M  END
$$$$
[H]OC([H])([H])[C@@]1(O[H])C([H])([H])[C@@]2([H])O[C@]1(C([H])([H])[H])n1c3c([H])c([H])c([H])c([H])c3c3c4c(c5c6c([H])c([H])c([H])c([H])c6n2c5c31)C(=O)N([H])C4([H])[H]
     RDKit          3D

 54 61  0  0  0  0  0  0  0  0999 V2000
    3.1800    0.8838    1.3878 C   0  0  0  0  0  0  0  0  0  0  0  0
    2.1176    0.2237    0.5774 C   0  0  2  0  0  0  0  0  0  0  0  0
    1.6968   -0.7870    1.4854 O   0  0  0  0  0  0  0  0  0  0  0  0
    1.2511   -1.8639    0.7986 C   0  0  2  0  0  0  0  0  0  0  0  0
    2.0328   -1.9517   -0.4419 C   0  0  0  0  0  0  0  0  0  0  0  0
    2.6347   -0.5714   -0.5849 C   0  0  1  0  0  0  0  0  0  0  0  0
    2.2138   -0.0799   -1.8115 O   0  0  0  0  0  0  0  0  0  0  0  0
    4.1191   -0.7109   -0.6110 C   0  0  0  0  0  0  0  0  0  0  0  0
    4.4589   -1.5975   -1.6334 O   0  0  0  0  0  0  0  0  0  0  0  0
   -0.2014   -1.7853    0.5955 N   0  0  0  0  0  0  0  0  0  0  0  0
   -1.1044   -2.7499    0.6347 C   0  0  0  0  0  0  0  0  0  0  0  0
   -0.9179   -4.0868    0.8734 C   0  0  0  0  0  0  0  0  0  0  0  0
   -2.0299   -4.9199    0.8648 C   0  0  0  0  0  0  0  0  0  0  0  0
   -3.2823   -4.4161    0.6235 C   0  0  0  0  0  0  0  0  0  0  0  0
   -3.4758   -3.0511    0.3794 C   0  0  0  0  0  0  0  0  0  0  0  0
   -2.3768   -2.2421    0.3902 C   0  0  0  0  0  0  0  0  0  0  0  0
   -2.2053   -0.8905    0.1945 C   0  0  0  0  0  0  0  0  0  0  0  0
   -3.0670    0.1511   -0.0975 C   0  0  0  0  0  0  0  0  0  0  0  0
   -4.5001    0.2660   -0.2996 C   0  0  0  0  0  0  0  0  0  0  0  0
   -5.3884   -0.5871   -0.2658 O   0  0  0  0  0  0  0  0  0  0  0  0
   -4.7851    1.6416   -0.5724 N   0  0  0  0  0  0  0  0  0  0  0  0
   -3.5735    2.4248   -0.5610 C   0  0  0  0  0  0  0  0  0  0  0  0
   -2.5314    1.4168   -0.2472 C   0  0  0  0  0  0  0  0  0  0  0  0
   -1.1701    1.6669   -0.1133 C   0  0  0  0  0  0  0  0  0  0  0  0
   -0.3770    2.7657   -0.2198 C   0  0  0  0  0  0  0  0  0  0  0  0
   -0.7006    4.0705   -0.5126 C   0  0  0  0  0  0  0  0  0  0  0  0
    0.3203    5.0230   -0.5829 C   0  0  0  0  0  0  0  0  0  0  0  0
    1.6233    4.6180   -0.3553 C   0  0  0  0  0  0  0  0  0  0  0  0
    1.9232    3.2989   -0.0625 C   0  0  0  0  0  0  0  0  0  0  0  0
    0.9354    2.3466    0.0129 C   0  0  0  0  0  0  0  0  0  0  0  0
    0.9590    1.0103    0.2643 N   0  0  0  0  0  0  0  0  0  0  0  0
   -0.3578    0.6223    0.1746 C   0  0  0  0  0  0  0  0  0  0  0  0
   -0.8544   -0.6533    0.3299 C   0  0  0  0  0  0  0  0  0  0  0  0
    4.0624    1.2462    0.8471 H   0  0  0  0  0  0  0  0  0  0  0  0
    3.5596    0.1949    2.1815 H   0  0  0  0  0  0  0  0  0  0  0  0
    2.7312    1.7230    1.9466 H   0  0  0  0  0  0  0  0  0  0  0  0
    1.4219   -2.7643    1.4120 H   0  0  0  0  0  0  0  0  0  0  0  0
    1.4720   -2.2700   -1.3403 H   0  0  0  0  0  0  0  0  0  0  0  0
    2.8377   -2.7359   -0.3258 H   0  0  0  0  0  0  0  0  0  0  0  0
    2.8799   -0.3390   -2.4928 H   0  0  0  0  0  0  0  0  0  0  0  0
    4.5238   -1.1579    0.3296 H   0  0  0  0  0  0  0  0  0  0  0  0
    4.6358    0.2581   -0.8438 H   0  0  0  0  0  0  0  0  0  0  0  0
    4.7979   -2.4633   -1.2908 H   0  0  0  0  0  0  0  0  0  0  0  0
    0.0592   -4.4684    1.0598 H   0  0  0  0  0  0  0  0  0  0  0  0
   -1.8569   -5.9719    1.0560 H   0  0  0  0  0  0  0  0  0  0  0  0
   -4.1224   -5.0759    0.6219 H   0  0  0  0  0  0  0  0  0  0  0  0
   -4.4721   -2.7398    0.2018 H   0  0  0  0  0  0  0  0  0  0  0  0
   -5.7336    2.0654   -0.7610 H   0  0  0  0  0  0  0  0  0  0  0  0
   -3.6366    3.2333    0.1993 H   0  0  0  0  0  0  0  0  0  0  0  0
   -3.3846    2.8954   -1.5673 H   0  0  0  0  0  0  0  0  0  0  0  0
   -1.7294    4.3700   -0.6881 H   0  0  0  0  0  0  0  0  0  0  0  0
    0.0587    6.0490   -0.8135 H   0  0  0  0  0  0  0  0  0  0  0  0
    2.3774    5.3965   -0.4223 H   0  0  0  0  0  0  0  0  0  0  0  0
    2.9510    3.0689    0.0761 H   0  0  0  0  0  0  0  0  0  0  0  0
  2  1  1  1
  2  3  1  0
  3  4  1  0
  4  5  1  0
  5  6  1  0
  6  7  1  6
  6  8  1  0
  8  9  1  0
  4 10  1  0
 10 11  1  0
 11 12  2  0
 12 13  1  0
 13 14  2  0
 14 15  1  0
 15 16  2  0
 16 17  1  0
 17 18  2  0
 18 19  1  0
 19 20  2  0
 19 21  1  0
 21 22  1  0
 22 23  1  0
 23 24  2  0
 24 25  1  0
 25 26  2  0
 26 27  1  0
 27 28  2  0
 28 29  1  0
 29 30  2  0
 30 31  1  0
 31 32  1  0
 32 33  2  0
  6  2  1  0
 33 10  1  0
 31  2  1  0
 16 11  1  0
 33 17  1  0
 23 18  1  0
 32 24  1  0
 30 25  1  0
  1 34  1  0
  1 35  1  0
  1 36  1  0
  4 37  1  1
  5 38  1  0
  5 39  1  0
  7 40  1  0
  8 41  1  0
  8 42  1  0
  9 43  1  0
 12 44  1  0
 13 45  1  0
 14 46  1  0
 15 47  1  0
 21 48  1  0
 22 49  1  0
 22 50  1  0
 26 51  1  0
 27 52  1  0
 28 53  1  0
 29 54  1  0
M  END
$$$$
[H]/C(=C(\[H])C([H])([H])n1c(C([H])([H])C2([H])N(C([H])([H])C(=O)OC([H])([H])[H])C([H])([H])C([H])([H])C([H])([H])C2([H])[H])nc2c([H])c(N3C([H])([H])C([H])([H])C([H])([H])C([H])([H])C3([H])[H])nc([H])c21)c1c([H])c([H])c(Br)c([H])c1F
     RDKit          3D

 73 77  0  0  0  0  0  0  0  0999 V2000
   -7.9852   -0.2916    2.4593 C   0  0  0  0  0  0  0  0  0  0  0  0
   -6.9525   -0.3692    1.5206 O   0  0  0  0  0  0  0  0  0  0  0  0
   -5.8875   -1.2340    1.7345 C   0  0  0  0  0  0  0  0  0  0  0  0
   -5.8984   -1.9183    2.7768 O   0  0  0  0  0  0  0  0  0  0  0  0
   -4.7614   -1.3340    0.7339 C   0  0  0  0  0  0  0  0  0  0  0  0
   -3.8795   -2.3653    1.1216 N   0  0  0  0  0  0  0  0  0  0  0  0
   -4.3877   -3.6900    1.0260 C   0  0  0  0  0  0  0  0  0  0  0  0
   -4.2219   -4.0895   -0.4376 C   0  0  0  0  0  0  0  0  0  0  0  0
   -2.7603   -4.2001   -0.6684 C   0  0  0  0  0  0  0  0  0  0  0  0
   -1.9149   -3.1015   -0.1594 C   0  0  0  0  0  0  0  0  0  0  0  0
   -2.4910   -2.2166    0.9051 C   0  0  0  0  0  0  0  0  0  0  0  0
   -2.1832   -0.7707    0.6119 C   0  0  0  0  0  0  0  0  0  0  0  0
   -0.7052   -0.5281    0.3911 C   0  0  0  0  0  0  0  0  0  0  0  0
    0.2942   -1.3986    0.4354 N   0  0  0  0  0  0  0  0  0  0  0  0
    1.4483   -0.7825    0.1856 C   0  0  0  0  0  0  0  0  0  0  0  0
    2.7799   -1.2242    0.1108 C   0  0  0  0  0  0  0  0  0  0  0  0
    3.7977   -0.3473   -0.1715 C   0  0  0  0  0  0  0  0  0  0  0  0
    3.4505    0.9379   -0.3690 N   0  0  0  0  0  0  0  0  0  0  0  0
    2.1908    1.3991   -0.3063 C   0  0  0  0  0  0  0  0  0  0  0  0
    1.1328    0.5449   -0.0235 C   0  0  0  0  0  0  0  0  0  0  0  0
   -0.1859    0.6764    0.1067 N   0  0  0  0  0  0  0  0  0  0  0  0
   -0.9403    1.9345   -0.0463 C   0  0  0  0  0  0  0  0  0  0  0  0
   -1.3427    2.1445   -1.4266 C   0  0  0  0  0  0  0  0  0  0  0  0
   -1.0759    3.2309   -2.0928 C   0  0  0  0  0  0  0  0  0  0  0  0
   -0.3964    4.4367   -1.7070 C   0  0  0  0  0  0  0  0  0  0  0  0
    0.4598    4.9786   -2.6922 C   0  0  0  0  0  0  0  0  0  0  0  0
    1.1149    6.1720   -2.5435 C   0  0  0  0  0  0  0  0  0  0  0  0
    0.9614    6.9062   -1.4044 C   0  0  0  0  0  0  0  0  0  0  0  0
    1.8938    8.5666   -1.2269 Br  0  0  0  0  0  0  0  0  0  0  0  0
    0.1470    6.4262   -0.4327 C   0  0  0  0  0  0  0  0  0  0  0  0
   -0.5259    5.1987   -0.5922 C   0  0  0  0  0  0  0  0  0  0  0  0
   -1.4113    4.8843    0.3993 F   0  0  0  0  0  0  0  0  0  0  0  0
    5.1179   -0.8214   -0.2401 N   0  0  0  0  0  0  0  0  0  0  0  0
    5.4051   -2.2097   -0.0044 C   0  0  0  0  0  0  0  0  0  0  0  0
    6.9148   -2.3278    0.1759 C   0  0  0  0  0  0  0  0  0  0  0  0
    7.3662   -1.2403    1.1547 C   0  0  0  0  0  0  0  0  0  0  0  0
    7.3242    0.0664    0.4333 C   0  0  0  0  0  0  0  0  0  0  0  0
    6.2013    0.0783   -0.5503 C   0  0  0  0  0  0  0  0  0  0  0  0
   -8.1586    0.7086    2.8769 H   0  0  0  0  0  0  0  0  0  0  0  0
   -7.8918   -1.0374    3.2777 H   0  0  0  0  0  0  0  0  0  0  0  0
   -8.9299   -0.5824    1.9124 H   0  0  0  0  0  0  0  0  0  0  0  0
   -4.3368   -0.3265    0.6984 H   0  0  0  0  0  0  0  0  0  0  0  0
   -5.2304   -1.4940   -0.2669 H   0  0  0  0  0  0  0  0  0  0  0  0
   -3.7167   -4.3642    1.5968 H   0  0  0  0  0  0  0  0  0  0  0  0
   -5.4036   -3.8085    1.3767 H   0  0  0  0  0  0  0  0  0  0  0  0
   -4.6963   -5.0724   -0.6320 H   0  0  0  0  0  0  0  0  0  0  0  0
   -4.6347   -3.3281   -1.1307 H   0  0  0  0  0  0  0  0  0  0  0  0
   -2.5949   -4.2800   -1.7838 H   0  0  0  0  0  0  0  0  0  0  0  0
   -2.4382   -5.2075   -0.2900 H   0  0  0  0  0  0  0  0  0  0  0  0
   -1.5578   -2.4533   -0.9927 H   0  0  0  0  0  0  0  0  0  0  0  0
   -0.9973   -3.5834    0.2654 H   0  0  0  0  0  0  0  0  0  0  0  0
   -1.9871   -2.4395    1.8995 H   0  0  0  0  0  0  0  0  0  0  0  0
   -2.4965   -0.1653    1.4544 H   0  0  0  0  0  0  0  0  0  0  0  0
   -2.7017   -0.5435   -0.3629 H   0  0  0  0  0  0  0  0  0  0  0  0
    2.9518   -2.2919    0.2879 H   0  0  0  0  0  0  0  0  0  0  0  0
    1.9308    2.4314   -0.4673 H   0  0  0  0  0  0  0  0  0  0  0  0
   -0.1355    2.6999    0.1959 H   0  0  0  0  0  0  0  0  0  0  0  0
   -1.7173    2.0105    0.7081 H   0  0  0  0  0  0  0  0  0  0  0  0
   -1.9109    1.3608   -1.9829 H   0  0  0  0  0  0  0  0  0  0  0  0
   -1.4561    3.2263   -3.1779 H   0  0  0  0  0  0  0  0  0  0  0  0
    0.6149    4.4455   -3.6013 H   0  0  0  0  0  0  0  0  0  0  0  0
    1.7761    6.5753   -3.3195 H   0  0  0  0  0  0  0  0  0  0  0  0
    0.0144    6.9903    0.4689 H   0  0  0  0  0  0  0  0  0  0  0  0
    4.8661   -2.6640    0.8336 H   0  0  0  0  0  0  0  0  0  0  0  0
    5.1577   -2.8430   -0.9072 H   0  0  0  0  0  0  0  0  0  0  0  0
    7.2134   -3.3098    0.5518 H   0  0  0  0  0  0  0  0  0  0  0  0
    7.3989   -2.0703   -0.7864 H   0  0  0  0  0  0  0  0  0  0  0  0
    6.7199   -1.2346    2.0475 H   0  0  0  0  0  0  0  0  0  0  0  0
    8.4055   -1.4733    1.4138 H   0  0  0  0  0  0  0  0  0  0  0  0
    7.2345    0.9467    1.1022 H   0  0  0  0  0  0  0  0  0  0  0  0
    8.2758    0.1515   -0.1703 H   0  0  0  0  0  0  0  0  0  0  0  0
    5.7964    1.1205   -0.6965 H   0  0  0  0  0  0  0  0  0  0  0  0
    6.5429   -0.2157   -1.5872 H   0  0  0  0  0  0  0  0  0  0  0  0
  1  2  1  0
  2  3  1  0
  3  4  2  0
  3  5  1  0
  5  6  1  0
  6  7  1  0
  7  8  1  0
  8  9  1  0
  9 10  1  0
 10 11  1  0
 11 12  1  0
 12 13  1  0
 13 14  2  0
 14 15  1  0
 15 16  2  0
 16 17  1  0
 17 18  2  0
 18 19  1  0
 19 20  2  0
 20 21  1  0
 21 22  1  0
 22 23  1  0
 23 24  2  0
 24 25  1  0
 25 26  2  0
 26 27  1  0
 27 28  2  0
 28 29  1  0
 28 30  1  0
 30 31  2  0
 31 32  1  0
 17 33  1  0
 33 34  1  0
 34 35  1  0
 35 36  1  0
 36 37  1  0
 37 38  1  0
 11  6  1  0
 21 13  1  0
 31 25  1  0
 38 33  1  0
 20 15  1  0
  1 39  1  0
  1 40  1  0
  1 41  1  0
  5 42  1  0
  5 43  1  0
  7 44  1  0
  7 45  1  0
  8 46  1  0
  8 47  1  0
  9 48  1  0
  9 49  1  0
 10 50  1  0
 10 51  1  0
 11 52  1  0
 12 53  1  0
 12 54  1  0
 16 55  1  0
 19 56  1  0
 22 57  1  0
 22 58  1  0
 23 59  1  0
 24 60  1  0
 26 61  1  0
 27 62  1  0
 30 63  1  0
 34 64  1  0
 34 65  1  0
 35 66  1  0
 35 67  1  0
 36 68  1  0
 36 69  1  0
 37 70  1  0
 37 71  1  0
 38 72  1  0
 38 73  1  0
M  END
$$$$
[H]OC(=O)c1oc(-c2c([H])c([H])c(C([H])([H])c3oc4c([H])c(O[H])c(O[H])c([H])c4c3[H])c([H])c2[H])c([H])c1[H]
     RDKit          3D

 40 43  0  0  0  0  0  0  0  0999 V2000
    6.5858    0.8171   -2.7977 O   0  0  0  0  0  0  0  0  0  0  0  0
    6.7065   -0.3218   -2.0245 C   0  0  0  0  0  0  0  0  0  0  0  0
    7.6973   -1.0729   -2.1749 O   0  0  0  0  0  0  0  0  0  0  0  0
    5.7039   -0.6447   -1.0537 C   0  0  0  0  0  0  0  0  0  0  0  0
    5.6809   -1.7413   -0.2083 C   0  0  0  0  0  0  0  0  0  0  0  0
    4.5491   -1.6382    0.5341 C   0  0  0  0  0  0  0  0  0  0  0  0
    3.9012   -0.4925    0.1379 C   0  0  0  0  0  0  0  0  0  0  0  0
    4.6173    0.0588   -0.7978 O   0  0  0  0  0  0  0  0  0  0  0  0
    2.6438    0.0341    0.6513 C   0  0  0  0  0  0  0  0  0  0  0  0
    1.9518   -0.6290    1.6539 C   0  0  0  0  0  0  0  0  0  0  0  0
    0.7600   -0.1338    2.1435 C   0  0  0  0  0  0  0  0  0  0  0  0
    0.2092    1.0335    1.6606 C   0  0  0  0  0  0  0  0  0  0  0  0
   -1.0831    1.5593    2.1999 C   0  0  0  0  0  0  0  0  0  0  0  0
   -2.2123    1.0146    1.4262 C   0  0  0  0  0  0  0  0  0  0  0  0
   -2.8867   -0.1607    1.7162 C   0  0  0  0  0  0  0  0  0  0  0  0
   -3.8527   -0.2552    0.7258 C   0  0  0  0  0  0  0  0  0  0  0  0
   -4.8322   -1.1752    0.4506 C   0  0  0  0  0  0  0  0  0  0  0  0
   -5.6670   -0.9979   -0.6345 C   0  0  0  0  0  0  0  0  0  0  0  0
   -6.6562   -1.9460   -0.8955 O   0  0  0  0  0  0  0  0  0  0  0  0
   -5.5616    0.0875   -1.4777 C   0  0  0  0  0  0  0  0  0  0  0  0
   -6.4273    0.2420   -2.5770 O   0  0  0  0  0  0  0  0  0  0  0  0
   -4.5782    1.0144   -1.2043 C   0  0  0  0  0  0  0  0  0  0  0  0
   -3.7333    0.8351   -0.1062 C   0  0  0  0  0  0  0  0  0  0  0  0
   -2.7408    1.5509    0.3640 O   0  0  0  0  0  0  0  0  0  0  0  0
    0.8911    1.6984    0.6639 C   0  0  0  0  0  0  0  0  0  0  0  0
    2.0838    1.2006    0.1756 C   0  0  0  0  0  0  0  0  0  0  0  0
    7.3230    1.5209   -2.7991 H   0  0  0  0  0  0  0  0  0  0  0  0
    6.4060   -2.5241   -0.1422 H   0  0  0  0  0  0  0  0  0  0  0  0
    4.2193   -2.3250    1.2923 H   0  0  0  0  0  0  0  0  0  0  0  0
    2.4097   -1.5445    2.0140 H   0  0  0  0  0  0  0  0  0  0  0  0
    0.2372   -0.6672    2.9256 H   0  0  0  0  0  0  0  0  0  0  0  0
   -1.1727    1.3057    3.2710 H   0  0  0  0  0  0  0  0  0  0  0  0
   -1.0614    2.6757    2.0937 H   0  0  0  0  0  0  0  0  0  0  0  0
   -2.7159   -0.8544    2.5200 H   0  0  0  0  0  0  0  0  0  0  0  0
   -4.9065   -2.0298    1.1241 H   0  0  0  0  0  0  0  0  0  0  0  0
   -6.7781   -2.7611   -0.3099 H   0  0  0  0  0  0  0  0  0  0  0  0
   -6.2994    1.0597   -3.1582 H   0  0  0  0  0  0  0  0  0  0  0  0
   -4.4764    1.8672   -1.8457 H   0  0  0  0  0  0  0  0  0  0  0  0
    0.4483    2.6211    0.2875 H   0  0  0  0  0  0  0  0  0  0  0  0
    2.6165    1.7187   -0.6020 H   0  0  0  0  0  0  0  0  0  0  0  0
  1  2  1  0
  2  3  2  0
  2  4  1  0
  4  5  2  0
  5  6  1  0
  6  7  2  0
  7  8  1  0
  7  9  1  0
  9 10  2  0
 10 11  1  0
 11 12  2  0
 12 13  1  0
 13 14  1  0
 14 15  2  0
 15 16  1  0
 16 17  2  0
 17 18  1  0
 18 19  1  0
 18 20  2  0
 20 21  1  0
 20 22  1  0
 22 23  2  0
 23 24  1  0
 12 25  1  0
 25 26  2  0
  8  4  1  0
 26  9  1  0
 24 14  1  0
 23 16  1  0
  1 27  1  0
  5 28  1  0
  6 29  1  0
 10 30  1  0
 11 31  1  0
 13 32  1  0
 13 33  1  0
 15 34  1  0
 17 35  1  0
 19 36  1  0
 21 37  1  0
 22 38  1  0
 25 39  1  0
 26 40  1  0
M  END
$$$$
[H]c1nn(C([H])(C([H])([H])[H])C([H])([H])[H])c([H])c1N(c1c([H])c(N([H])C([H])([H])C([H])([H])C2([H])C([H])([H])C([H])([H])C([H])([H])C([H])([H])C2([H])[H])c2c([H])c([H])n([H])c2c1[H])C([2H])([2H])C([H])([H])[2H]
     RDKit          3D

 64 67  0  0  0  0  0  0  0  0999 V2000
    0.9324   -0.3791   -3.9198 H   0  0  0  0  0  0  0  0  0  0  0  0
    1.8181   -0.8442   -3.4375 C   0  0  0  0  0  0  0  0  0  0  0  0
    1.3369   -1.3820   -2.0927 C   0  0  0  0  0  0  0  0  0  0  0  0
    0.2562   -1.3206   -1.9922 H   0  0  0  0  0  0  0  0  0  0  0  0
    1.6922   -2.4440   -2.0108 H   0  0  0  0  0  0  0  0  0  0  0  0
    2.0398   -0.6415   -1.0613 N   0  0  0  0  0  0  0  0  0  0  0  0
    3.4610   -0.7440   -0.9613 C   0  0  0  0  0  0  0  0  0  0  0  0
    4.2795   -1.4831   -1.8180 C   0  0  0  0  0  0  0  0  0  0  0  0
    5.5667   -1.3421   -1.3830 N   0  0  0  0  0  0  0  0  0  0  0  0
    5.6051   -0.5694   -0.3195 N   0  0  0  0  0  0  0  0  0  0  0  0
    4.3276   -0.1969   -0.0498 C   0  0  0  0  0  0  0  0  0  0  0  0
    6.8105   -0.1994    0.4139 C   0  0  0  0  0  0  0  0  0  0  0  0
    6.7212    1.2038    0.9684 C   0  0  0  0  0  0  0  0  0  0  0  0
    7.0575   -1.2149    1.5157 C   0  0  0  0  0  0  0  0  0  0  0  0
    1.2550    0.1333   -0.1871 C   0  0  0  0  0  0  0  0  0  0  0  0
    0.0505   -0.3994    0.2708 C   0  0  0  0  0  0  0  0  0  0  0  0
   -0.8108    0.2713    1.1136 C   0  0  0  0  0  0  0  0  0  0  0  0
   -2.0208   -0.3039    1.5849 N   0  0  0  0  0  0  0  0  0  0  0  0
   -2.5764   -1.5534    1.1455 C   0  0  0  0  0  0  0  0  0  0  0  0
   -3.1544   -1.6048   -0.2093 C   0  0  0  0  0  0  0  0  0  0  0  0
   -4.3117   -0.7418   -0.5277 C   0  0  0  0  0  0  0  0  0  0  0  0
   -4.1703    0.7224   -0.4202 C   0  0  0  0  0  0  0  0  0  0  0  0
   -5.5742    1.3363   -0.5326 C   0  0  0  0  0  0  0  0  0  0  0  0
   -6.4962    0.5012   -1.3634 C   0  0  0  0  0  0  0  0  0  0  0  0
   -6.7494   -0.8306   -0.6625 C   0  0  0  0  0  0  0  0  0  0  0  0
   -5.5757   -1.1781    0.2343 C   0  0  0  0  0  0  0  0  0  0  0  0
   -0.4808    1.5395    1.5393 C   0  0  0  0  0  0  0  0  0  0  0  0
   -1.1237    2.4564    2.3734 C   0  0  0  0  0  0  0  0  0  0  0  0
   -0.2970    3.5571    2.4204 C   0  0  0  0  0  0  0  0  0  0  0  0
    0.8008    3.3164    1.6464 N   0  0  0  0  0  0  0  0  0  0  0  0
    0.7040    2.0825    1.0982 C   0  0  0  0  0  0  0  0  0  0  0  0
    1.5638    1.4029    0.2507 C   0  0  0  0  0  0  0  0  0  0  0  0
    2.1710   -1.6364   -4.1107 H   0  0  0  0  0  0  0  0  0  0  0  0
    2.6006   -0.0742   -3.3383 H   0  0  0  0  0  0  0  0  0  0  0  0
    4.0226   -2.0703   -2.6627 H   0  0  0  0  0  0  0  0  0  0  0  0
    4.0723    0.4356    0.7813 H   0  0  0  0  0  0  0  0  0  0  0  0
    7.7025   -0.2186   -0.2473 H   0  0  0  0  0  0  0  0  0  0  0  0
    6.0380    1.2453    1.8326 H   0  0  0  0  0  0  0  0  0  0  0  0
    6.3378    1.8549    0.1491 H   0  0  0  0  0  0  0  0  0  0  0  0
    7.7602    1.5019    1.2313 H   0  0  0  0  0  0  0  0  0  0  0  0
    6.2343   -1.2302    2.2344 H   0  0  0  0  0  0  0  0  0  0  0  0
    7.1922   -2.2015    1.0028 H   0  0  0  0  0  0  0  0  0  0  0  0
    8.0422   -0.9635    1.9738 H   0  0  0  0  0  0  0  0  0  0  0  0
   -0.2016   -1.3951   -0.0438 H   0  0  0  0  0  0  0  0  0  0  0  0
   -2.5472    0.2500    2.3334 H   0  0  0  0  0  0  0  0  0  0  0  0
   -3.2499   -1.9991    1.9341 H   0  0  0  0  0  0  0  0  0  0  0  0
   -1.7017   -2.2760    1.1500 H   0  0  0  0  0  0  0  0  0  0  0  0
   -3.4934   -2.6817   -0.3683 H   0  0  0  0  0  0  0  0  0  0  0  0
   -2.3286   -1.5013   -0.9646 H   0  0  0  0  0  0  0  0  0  0  0  0
   -4.5667   -0.9575   -1.6162 H   0  0  0  0  0  0  0  0  0  0  0  0
   -3.7534    1.1441    0.4855 H   0  0  0  0  0  0  0  0  0  0  0  0
   -3.6338    1.0884   -1.3374 H   0  0  0  0  0  0  0  0  0  0  0  0
   -6.0379    1.3951    0.4926 H   0  0  0  0  0  0  0  0  0  0  0  0
   -5.5417    2.3589   -0.9494 H   0  0  0  0  0  0  0  0  0  0  0  0
   -7.4810    1.0363   -1.3618 H   0  0  0  0  0  0  0  0  0  0  0  0
   -6.1907    0.3917   -2.4060 H   0  0  0  0  0  0  0  0  0  0  0  0
   -7.6722   -0.8043   -0.0617 H   0  0  0  0  0  0  0  0  0  0  0  0
   -6.8866   -1.6183   -1.4527 H   0  0  0  0  0  0  0  0  0  0  0  0
   -5.5982   -2.2585    0.4145 H   0  0  0  0  0  0  0  0  0  0  0  0
   -5.6839   -0.5662    1.1588 H   0  0  0  0  0  0  0  0  0  0  0  0
   -2.0734    2.2839    2.8558 H   0  0  0  0  0  0  0  0  0  0  0  0
   -0.5309    4.4442    2.9955 H   0  0  0  0  0  0  0  0  0  0  0  0
    1.5909    3.9839    1.5025 H   0  0  0  0  0  0  0  0  0  0  0  0
    2.4710    1.8886   -0.0701 H   0  0  0  0  0  0  0  0  0  0  0  0
  1  2  1  0
  2  3  1  0
  3  4  1  0
  3  5  1  0
  3  6  1  0
  6  7  1  0
  7  8  1  0
  8  9  2  0
  9 10  1  0
 10 11  1  0
 10 12  1  0
 12 13  1  0
 12 14  1  0
  6 15  1  0
 15 16  2  0
 16 17  1  0
 17 18  1  0
 18 19  1  0
 19 20  1  0
 20 21  1  0
 21 22  1  0
 22 23  1  0
 23 24  1  0
 24 25  1  0
 25 26  1  0
 17 27  2  0
 27 28  1  0
 28 29  2  0
 29 30  1  0
 30 31  1  0
 31 32  2  0
 11  7  2  0
 32 15  1  0
 26 21  1  0
 31 27  1  0
  2 33  1  0
  2 34  1  0
  8 35  1  0
 11 36  1  0
 12 37  1  0
 13 38  1  0
 13 39  1  0
 13 40  1  0
 14 41  1  0
 14 42  1  0
 14 43  1  0
 16 44  1  0
 18 45  1  0
 19 46  1  0
 19 47  1  0
 20 48  1  0
 20 49  1  0
 21 50  1  0
 22 51  1  0
 22 52  1  0
 23 53  1  0
 23 54  1  0
 24 55  1  0
 24 56  1  0
 25 57  1  0
 25 58  1  0
 26 59  1  0
 26 60  1  0
 28 61  1  0
 29 62  1  0
 30 63  1  0
 32 64  1  0
M  ISO  3   1   2   4   2   5   2
M  END
$$$$
[H]c1c([H])c(Cl)c(C([H])([H])[H])c(N([H])S(=O)(=O)c2c([H])c([H])c3nc(N([H])c4c([H])c([H])c([H])c(C([H])([H])C(=O)OC([H])([H])[H])c4[H])n([H])c(=O)c3c2[H])c1[H]
     RDKit          3D

 56 59  0  0  0  0  0  0  0  0999 V2000
    6.2779    4.8664    1.2333 C   0  0  0  0  0  0  0  0  0  0  0  0
    5.7623    3.7912    2.0044 O   0  0  0  0  0  0  0  0  0  0  0  0
    5.7003    2.5281    1.4595 C   0  0  0  0  0  0  0  0  0  0  0  0
    6.1084    2.3670    0.2807 O   0  0  0  0  0  0  0  0  0  0  0  0
    5.1606    1.4026    2.2661 C   0  0  0  0  0  0  0  0  0  0  0  0
    5.2157    0.1768    1.4292 C   0  0  0  0  0  0  0  0  0  0  0  0
    6.3431   -0.6089    1.4643 C   0  0  0  0  0  0  0  0  0  0  0  0
    6.3608   -1.7364    0.6772 C   0  0  0  0  0  0  0  0  0  0  0  0
    5.2892   -2.0577   -0.1099 C   0  0  0  0  0  0  0  0  0  0  0  0
    4.1327   -1.2669   -0.1559 C   0  0  0  0  0  0  0  0  0  0  0  0
    3.1127   -1.6569   -1.0288 N   0  0  0  0  0  0  0  0  0  0  0  0
    1.7291   -1.7102   -0.7520 C   0  0  0  0  0  0  0  0  0  0  0  0
    0.8515   -2.0944   -1.7370 N   0  0  0  0  0  0  0  0  0  0  0  0
   -0.4635   -2.1920   -1.5146 C   0  0  0  0  0  0  0  0  0  0  0  0
   -1.3496   -2.5785   -2.5044 C   0  0  0  0  0  0  0  0  0  0  0  0
   -2.7038   -2.6798   -2.2788 C   0  0  0  0  0  0  0  0  0  0  0  0
   -3.1971   -2.3857   -1.0211 C   0  0  0  0  0  0  0  0  0  0  0  0
   -2.3381   -2.0056   -0.0420 C   0  0  0  0  0  0  0  0  0  0  0  0
   -0.9741   -1.9015   -0.2620 C   0  0  0  0  0  0  0  0  0  0  0  0
   -0.1072   -1.5171    0.7302 C   0  0  0  0  0  0  0  0  0  0  0  0
   -0.5734   -1.2548    1.8635 O   0  0  0  0  0  0  0  0  0  0  0  0
    1.2330   -1.4321    0.4538 N   0  0  0  0  0  0  0  0  0  0  0  0
   -4.9076   -2.5062   -0.6681 S   0  0  0  0  0  0  0  0  0  0  0  0
   -5.0964   -2.8017    0.8122 O   0  0  0  0  0  0  0  0  0  0  0  0
   -5.4136   -3.6866   -1.4819 O   0  0  0  0  0  0  0  0  0  0  0  0
   -5.7450   -1.0673   -1.1037 N   0  0  0  0  0  0  0  0  0  0  0  0
   -5.5230    0.2098   -0.5671 C   0  0  0  0  0  0  0  0  0  0  0  0
   -4.9702    0.4068    0.6805 C   0  0  0  0  0  0  0  0  0  0  0  0
   -4.7577    1.6540    1.2223 C   0  0  0  0  0  0  0  0  0  0  0  0
   -5.1101    2.7604    0.4925 C   0  0  0  0  0  0  0  0  0  0  0  0
   -5.6638    2.5687   -0.7561 C   0  0  0  0  0  0  0  0  0  0  0  0
   -6.1219    3.9737   -1.7070 Cl  0  0  0  0  0  0  0  0  0  0  0  0
   -5.8833    1.3284   -1.3132 C   0  0  0  0  0  0  0  0  0  0  0  0
   -6.4886    1.1783   -2.6756 C   0  0  0  0  0  0  0  0  0  0  0  0
    4.1263   -0.1594    0.6218 C   0  0  0  0  0  0  0  0  0  0  0  0
    6.4840    5.7487    1.8921 H   0  0  0  0  0  0  0  0  0  0  0  0
    7.2362    4.5506    0.7340 H   0  0  0  0  0  0  0  0  0  0  0  0
    5.5869    5.1606    0.4254 H   0  0  0  0  0  0  0  0  0  0  0  0
    5.7551    1.2415    3.1859 H   0  0  0  0  0  0  0  0  0  0  0  0
    4.1116    1.6088    2.5648 H   0  0  0  0  0  0  0  0  0  0  0  0
    7.2059   -0.3606    2.0914 H   0  0  0  0  0  0  0  0  0  0  0  0
    7.2623   -2.3606    0.7075 H   0  0  0  0  0  0  0  0  0  0  0  0
    5.3136   -2.9454   -0.7240 H   0  0  0  0  0  0  0  0  0  0  0  0
    3.3965   -1.9515   -2.0226 H   0  0  0  0  0  0  0  0  0  0  0  0
   -0.9439   -2.8073   -3.4926 H   0  0  0  0  0  0  0  0  0  0  0  0
   -3.4035   -2.9806   -3.0446 H   0  0  0  0  0  0  0  0  0  0  0  0
   -2.7357   -1.7769    0.9570 H   0  0  0  0  0  0  0  0  0  0  0  0
    1.8306   -1.1550    1.2611 H   0  0  0  0  0  0  0  0  0  0  0  0
   -6.5046   -1.1517   -1.8496 H   0  0  0  0  0  0  0  0  0  0  0  0
   -4.6745   -0.4292    1.3126 H   0  0  0  0  0  0  0  0  0  0  0  0
   -4.3248    1.8112    2.1989 H   0  0  0  0  0  0  0  0  0  0  0  0
   -4.9562    3.7612    0.8897 H   0  0  0  0  0  0  0  0  0  0  0  0
   -7.3468    0.5002   -2.6905 H   0  0  0  0  0  0  0  0  0  0  0  0
   -6.8704    2.1822   -2.9595 H   0  0  0  0  0  0  0  0  0  0  0  0
   -5.7049    0.9354   -3.4302 H   0  0  0  0  0  0  0  0  0  0  0  0
    3.2672    0.5055    0.6153 H   0  0  0  0  0  0  0  0  0  0  0  0
  1  2  1  0
  2  3  1  0
  3  4  2  0
  3  5  1  0
  5  6  1  0
  6  7  2  0
  7  8  1  0
  8  9  2  0
  9 10  1  0
 10 11  1  0
 11 12  1  0
 12 13  2  0
 13 14  1  0
 14 15  2  0
 15 16  1  0
 16 17  2  0
 17 18  1  0
 18 19  2  0
 19 20  1  0
 20 21  2  0
 20 22  1  0
 17 23  1  0
 23 24  2  0
 23 25  2  0
 23 26  1  0
 26 27  1  0
 27 28  2  0
 28 29  1  0
 29 30  2  0
 30 31  1  0
 31 32  1  0
 31 33  2  0
 33 34  1  0
 10 35  2  0
 35  6  1  0
 22 12  1  0
 33 27  1  0
 19 14  1  0
  1 36  1  0
  1 37  1  0
  1 38  1  0
  5 39  1  0
  5 40  1  0
  7 41  1  0
  8 42  1  0
  9 43  1  0
 11 44  1  0
 15 45  1  0
 16 46  1  0
 18 47  1  0
 22 48  1  0
 26 49  1  0
 28 50  1  0
 29 51  1  0
 30 52  1  0
 34 53  1  0
 34 54  1  0
 34 55  1  0
 35 56  1  0
M  END
$$$$
[H]c1c([H])c([H])c(N([H])c2nc3c([H])c([H])c([H])c([H])c3nc2N([H])N([H])C(=O)c2c(Cl)c([H])c([H])c([H])c2Cl)c([H])c1[H]
     RDKit          3D

 44 47  0  0  0  0  0  0  0  0999 V2000
    3.6229    2.5714    1.5218 Cl  0  0  0  0  0  0  0  0  0  0  0  0
    4.7105    1.3130    0.9162 C   0  0  0  0  0  0  0  0  0  0  0  0
    5.9860    1.1959    1.3936 C   0  0  0  0  0  0  0  0  0  0  0  0
    6.7988    0.1966    0.8926 C   0  0  0  0  0  0  0  0  0  0  0  0
    6.3273   -0.6517   -0.0624 C   0  0  0  0  0  0  0  0  0  0  0  0
    5.0162   -0.5318   -0.5553 C   0  0  0  0  0  0  0  0  0  0  0  0
    4.5528   -1.6653   -1.8414 Cl  0  0  0  0  0  0  0  0  0  0  0  0
    4.2075    0.4452   -0.0682 C   0  0  0  0  0  0  0  0  0  0  0  0
    2.8540    0.6351   -0.5550 C   0  0  0  0  0  0  0  0  0  0  0  0
    2.3991    1.8397   -0.3552 O   0  0  0  0  0  0  0  0  0  0  0  0
    2.0108   -0.2821   -1.1822 N   0  0  0  0  0  0  0  0  0  0  0  0
    0.7061    0.1552   -1.5732 N   0  0  0  0  0  0  0  0  0  0  0  0
   -0.4264   -0.6034   -1.1436 C   0  0  0  0  0  0  0  0  0  0  0  0
   -0.3481   -1.9254   -1.3823 N   0  0  0  0  0  0  0  0  0  0  0  0
   -1.3799   -2.7321   -0.9820 C   0  0  0  0  0  0  0  0  0  0  0  0
   -1.2938   -4.0888   -1.2307 C   0  0  0  0  0  0  0  0  0  0  0  0
   -2.3363   -4.8863   -0.8208 C   0  0  0  0  0  0  0  0  0  0  0  0
   -3.4342   -4.3280   -0.1790 C   0  0  0  0  0  0  0  0  0  0  0  0
   -3.4982   -2.9796    0.0566 C   0  0  0  0  0  0  0  0  0  0  0  0
   -2.4488   -2.1443   -0.3506 C   0  0  0  0  0  0  0  0  0  0  0  0
   -2.5215   -0.8234   -0.1144 N   0  0  0  0  0  0  0  0  0  0  0  0
   -1.5033   -0.0393   -0.5130 C   0  0  0  0  0  0  0  0  0  0  0  0
   -1.5356    1.3737   -0.3344 N   0  0  0  0  0  0  0  0  0  0  0  0
   -2.5317    2.1205    0.3198 C   0  0  0  0  0  0  0  0  0  0  0  0
   -2.8055    3.4417   -0.1003 C   0  0  0  0  0  0  0  0  0  0  0  0
   -3.7497    4.2037    0.5292 C   0  0  0  0  0  0  0  0  0  0  0  0
   -4.4789    3.7261    1.6017 C   0  0  0  0  0  0  0  0  0  0  0  0
   -4.2261    2.4391    2.0275 C   0  0  0  0  0  0  0  0  0  0  0  0
   -3.2550    1.6582    1.3780 C   0  0  0  0  0  0  0  0  0  0  0  0
    6.3750    1.8566    2.1448 H   0  0  0  0  0  0  0  0  0  0  0  0
    7.8085    0.1250    1.2891 H   0  0  0  0  0  0  0  0  0  0  0  0
    6.9614   -1.4366   -0.4579 H   0  0  0  0  0  0  0  0  0  0  0  0
    2.2359   -1.2584   -1.3679 H   0  0  0  0  0  0  0  0  0  0  0  0
    0.5677    0.9825   -2.1462 H   0  0  0  0  0  0  0  0  0  0  0  0
   -0.4028   -4.4722   -1.7432 H   0  0  0  0  0  0  0  0  0  0  0  0
   -2.2890   -5.9441   -1.0068 H   0  0  0  0  0  0  0  0  0  0  0  0
   -4.2253   -4.9977    0.1222 H   0  0  0  0  0  0  0  0  0  0  0  0
   -4.3572   -2.5228    0.5616 H   0  0  0  0  0  0  0  0  0  0  0  0
   -0.7281    1.9351   -0.7347 H   0  0  0  0  0  0  0  0  0  0  0  0
   -2.2452    3.8223   -0.9345 H   0  0  0  0  0  0  0  0  0  0  0  0
   -3.9810    5.2293    0.2215 H   0  0  0  0  0  0  0  0  0  0  0  0
   -5.2398    4.3219    2.1196 H   0  0  0  0  0  0  0  0  0  0  0  0
   -4.7928    2.0588    2.8619 H   0  0  0  0  0  0  0  0  0  0  0  0
   -3.1062    0.6665    1.7776 H   0  0  0  0  0  0  0  0  0  0  0  0
  1  2  1  0
  2  3  2  0
  3  4  1  0
  4  5  2  0
  5  6  1  0
  6  7  1  0
  6  8  2  0
  8  9  1  0
  9 10  2  0
  9 11  1  0
 11 12  1  0
 12 13  1  0
 13 14  2  0
 14 15  1  0
 15 16  2  0
 16 17  1  0
 17 18  2  0
 18 19  1  0
 19 20  2  0
 20 21  1  0
 21 22  2  0
 22 23  1  0
 23 24  1  0
 24 25  2  0
 25 26  1  0
 26 27  2  0
 27 28  1  0
 28 29  2  0
  8  2  1  0
 22 13  1  0
 29 24  1  0
 20 15  1  0
  3 30  1  0
  4 31  1  0
  5 32  1  0
 11 33  1  0
 12 34  1  0
 16 35  1  0
 17 36  1  0
 18 37  1  0
 19 38  1  0
 23 39  1  0
 25 40  1  0
 26 41  1  0
 27 42  1  0
 28 43  1  0
 29 44  1  0
M  END
$$$$
[H]c1nc(C([H])([H])N2C([H])([H])C([H])([H])C([H])(c3c([H])c([H])c4c(c3[H])c(C([H])(C([H])([H])[H])C([H])([H])[H])c(-c3c([H])c(C([H])([H])[H])c5nc(C([H])([H])[H])nn5c3[H])n4[H])C([H])([H])C2([H])[H])nc([H])c1[H]
     RDKit          3D

 69 74  0  0  0  0  0  0  0  0999 V2000
    0.9959   -2.5019   -0.0752 C   0  0  0  0  0  0  0  0  0  0  0  0
    2.0165   -1.6098    0.5437 C   0  0  0  0  0  0  0  0  0  0  0  0
    3.2729   -2.3194    0.7948 C   0  0  0  0  0  0  0  0  0  0  0  0
    1.9475   -0.1813    0.2885 C   0  0  0  0  0  0  0  0  0  0  0  0
    2.8604    0.8130    0.1779 C   0  0  0  0  0  0  0  0  0  0  0  0
    2.2077    2.0190    0.1937 N   0  0  0  0  0  0  0  0  0  0  0  0
    0.9123    1.8293    0.3031 C   0  0  0  0  0  0  0  0  0  0  0  0
   -0.1609    2.7304    0.3704 C   0  0  0  0  0  0  0  0  0  0  0  0
   -1.4484    2.2816    0.4997 C   0  0  0  0  0  0  0  0  0  0  0  0
   -1.7079    0.9369    0.5662 C   0  0  0  0  0  0  0  0  0  0  0  0
   -0.6135    0.0597    0.4964 C   0  0  0  0  0  0  0  0  0  0  0  0
    0.6825    0.4778    0.3654 C   0  0  0  0  0  0  0  0  0  0  0  0
   -3.0873    0.4470    0.7028 C   0  0  0  0  0  0  0  0  0  0  0  0
   -3.2316   -0.4766    1.8667 C   0  0  0  0  0  0  0  0  0  0  0  0
   -4.6796   -0.9178    1.9207 C   0  0  0  0  0  0  0  0  0  0  0  0
   -5.4283   -0.4114    0.7590 N   0  0  0  0  0  0  0  0  0  0  0  0
   -6.7912   -0.7948    0.9591 C   0  0  0  0  0  0  0  0  0  0  0  0
   -7.7257   -0.3764   -0.0862 C   0  0  0  0  0  0  0  0  0  0  0  0
   -8.3852    0.7885   -0.0381 N   0  0  0  0  0  0  0  0  0  0  0  0
   -9.2464    1.1773   -0.9984 C   0  0  0  0  0  0  0  0  0  0  0  0
   -9.4708    0.3566   -2.0841 C   0  0  0  0  0  0  0  0  0  0  0  0
   -8.7914   -0.8414   -2.1325 C   0  0  0  0  0  0  0  0  0  0  0  0
   -7.9448   -1.1741   -1.1425 N   0  0  0  0  0  0  0  0  0  0  0  0
   -4.8424   -0.9101   -0.4546 C   0  0  0  0  0  0  0  0  0  0  0  0
   -3.4361   -0.3406   -0.5560 C   0  0  0  0  0  0  0  0  0  0  0  0
    4.3021    0.7380    0.0815 C   0  0  0  0  0  0  0  0  0  0  0  0
    5.0523    1.6603    0.7782 C   0  0  0  0  0  0  0  0  0  0  0  0
    6.4055    1.7710    0.6414 C   0  0  0  0  0  0  0  0  0  0  0  0
    7.2252    2.7631    1.3922 C   0  0  0  0  0  0  0  0  0  0  0  0
    7.0210    0.8976   -0.2466 C   0  0  0  0  0  0  0  0  0  0  0  0
    8.3072    0.7503   -0.6002 N   0  0  0  0  0  0  0  0  0  0  0  0
    8.4055   -0.2498   -1.5150 C   0  0  0  0  0  0  0  0  0  0  0  0
    9.6567   -0.7090   -2.1446 C   0  0  0  0  0  0  0  0  0  0  0  0
    7.1496   -0.6899   -1.6921 N   0  0  0  0  0  0  0  0  0  0  0  0
    6.3134   -0.0095   -0.9365 N   0  0  0  0  0  0  0  0  0  0  0  0
    4.9611   -0.0816   -0.7669 C   0  0  0  0  0  0  0  0  0  0  0  0
    0.3218   -2.9192    0.6763 H   0  0  0  0  0  0  0  0  0  0  0  0
    1.5959   -3.4108   -0.4593 H   0  0  0  0  0  0  0  0  0  0  0  0
    0.4507   -2.0732   -0.9393 H   0  0  0  0  0  0  0  0  0  0  0  0
    1.5831   -1.6051    1.7019 H   0  0  0  0  0  0  0  0  0  0  0  0
    3.7644   -2.7781   -0.1021 H   0  0  0  0  0  0  0  0  0  0  0  0
    3.9864   -1.8601    1.5102 H   0  0  0  0  0  0  0  0  0  0  0  0
    2.9712   -3.2774    1.3678 H   0  0  0  0  0  0  0  0  0  0  0  0
    2.7101    2.9398    0.1284 H   0  0  0  0  0  0  0  0  0  0  0  0
    0.0650    3.7776    0.3210 H   0  0  0  0  0  0  0  0  0  0  0  0
   -2.2966    2.9621    0.5513 H   0  0  0  0  0  0  0  0  0  0  0  0
   -0.8677   -0.9693    0.5729 H   0  0  0  0  0  0  0  0  0  0  0  0
   -3.7693    1.3232    0.8177 H   0  0  0  0  0  0  0  0  0  0  0  0
   -2.9494    0.0686    2.8087 H   0  0  0  0  0  0  0  0  0  0  0  0
   -2.6068   -1.3697    1.7261 H   0  0  0  0  0  0  0  0  0  0  0  0
   -5.1706   -0.4704    2.8102 H   0  0  0  0  0  0  0  0  0  0  0  0
   -4.7565   -2.0268    1.9273 H   0  0  0  0  0  0  0  0  0  0  0  0
   -6.8256   -1.9083    1.0746 H   0  0  0  0  0  0  0  0  0  0  0  0
   -7.0848   -0.4027    1.9767 H   0  0  0  0  0  0  0  0  0  0  0  0
   -9.7864    2.1186   -0.9738 H   0  0  0  0  0  0  0  0  0  0  0  0
  -10.1724    0.6415   -2.8874 H   0  0  0  0  0  0  0  0  0  0  0  0
   -8.9689   -1.4956   -2.9925 H   0  0  0  0  0  0  0  0  0  0  0  0
   -5.4165   -0.5027   -1.3055 H   0  0  0  0  0  0  0  0  0  0  0  0
   -4.8251   -2.0097   -0.4005 H   0  0  0  0  0  0  0  0  0  0  0  0
   -3.3327    0.3661   -1.4030 H   0  0  0  0  0  0  0  0  0  0  0  0
   -2.6659   -1.1232   -0.6691 H   0  0  0  0  0  0  0  0  0  0  0  0
    4.5418    2.3161    1.4619 H   0  0  0  0  0  0  0  0  0  0  0  0
    7.4616    2.3156    2.3847 H   0  0  0  0  0  0  0  0  0  0  0  0
    8.1295    2.9567    0.7956 H   0  0  0  0  0  0  0  0  0  0  0  0
    6.6829    3.7250    1.5219 H   0  0  0  0  0  0  0  0  0  0  0  0
   10.4789    0.0195   -1.9102 H   0  0  0  0  0  0  0  0  0  0  0  0
    9.9552   -1.6638   -1.6819 H   0  0  0  0  0  0  0  0  0  0  0  0
    9.6199   -0.7373   -3.2529 H   0  0  0  0  0  0  0  0  0  0  0  0
    4.4725   -0.8289   -1.4092 H   0  0  0  0  0  0  0  0  0  0  0  0
  1  2  1  0
  2  3  1  0
  2  4  1  0
  4  5  2  0
  5  6  1  0
  6  7  1  0
  7  8  2  0
  8  9  1  0
  9 10  2  0
 10 11  1  0
 11 12  2  0
 10 13  1  0
 13 14  1  0
 14 15  1  0
 15 16  1  0
 16 17  1  0
 17 18  1  0
 18 19  2  0
 19 20  1  0
 20 21  2  0
 21 22  1  0
 22 23  2  0
 16 24  1  0
 24 25  1  0
  5 26  1  0
 26 27  1  0
 27 28  2  0
 28 29  1  0
 28 30  1  0
 30 31  2  0
 31 32  1  0
 32 33  1  0
 32 34  2  0
 34 35  1  0
 35 36  1  0
 12  4  1  0
 25 13  1  0
 36 26  2  0
 12  7  1  0
 23 18  1  0
 35 30  1  0
  1 37  1  0
  1 38  1  0
  1 39  1  0
  2 40  1  0
  3 41  1  0
  3 42  1  0
  3 43  1  0
  6 44  1  0
  8 45  1  0
  9 46  1  0
 11 47  1  0
 13 48  1  0
 14 49  1  0
 14 50  1  0
 15 51  1  0
 15 52  1  0
 17 53  1  0
 17 54  1  0
 20 55  1  0
 21 56  1  0
 22 57  1  0
 24 58  1  0
 24 59  1  0
 25 60  1  0
 25 61  1  0
 27 62  1  0
 29 63  1  0
 29 64  1  0
 29 65  1  0
 33 66  1  0
 33 67  1  0
 33 68  1  0
 36 69  1  0
M  END
$$$$
[H]OC([H])([H])[C@@]1(O[H])C([H])([H])[C@@]2([H])O[C@]1(N([H])C([H])([H])[H])n1c3c([H])c([H])c([H])c([H])c3c3c4c(c5c6c([H])c([H])c([H])c([H])c6n2c5c31)C(=O)N([H])C4([H])[H]
     RDKit          3D

 56 63  0  0  0  0  0  0  0  0999 V2000
   -2.7877   -3.5401   -0.2673 C   0  0  0  0  0  0  0  0  0  0  0  0
   -1.8661   -2.7053    0.2809 N   0  0  0  0  0  0  0  0  0  0  0  0
   -1.6609   -1.3143    0.0658 C   0  0  2  0  0  0  0  0  0  0  0  0
   -1.1052   -1.1290    1.4411 O   0  0  0  0  0  0  0  0  0  0  0  0
   -1.2830    0.1221    1.8498 C   0  0  2  0  0  0  0  0  0  0  0  0
   -2.1631    0.8323    0.8162 C   0  0  0  0  0  0  0  0  0  0  0  0
   -2.7933   -0.4159    0.2371 C   0  0  1  0  0  0  0  0  0  0  0  0
   -3.4448   -0.0011   -0.9118 O   0  0  0  0  0  0  0  0  0  0  0  0
   -3.8194   -0.8606    1.2101 C   0  0  0  0  0  0  0  0  0  0  0  0
   -3.3572   -1.3231    2.4248 O   0  0  0  0  0  0  0  0  0  0  0  0
    0.0276    0.7832    1.7090 N   0  0  0  0  0  0  0  0  0  0  0  0
    0.6177    1.6293    2.5528 C   0  0  0  0  0  0  0  0  0  0  0  0
    0.2270    2.0997    3.7941 C   0  0  0  0  0  0  0  0  0  0  0  0
    0.9885    2.9827    4.5163 C   0  0  0  0  0  0  0  0  0  0  0  0
    2.1906    3.3882    3.9310 C   0  0  0  0  0  0  0  0  0  0  0  0
    2.6020    2.9289    2.6870 C   0  0  0  0  0  0  0  0  0  0  0  0
    1.8239    2.0507    1.9909 C   0  0  0  0  0  0  0  0  0  0  0  0
    1.9229    1.4170    0.7765 C   0  0  0  0  0  0  0  0  0  0  0  0
    2.8282    1.4376   -0.2606 C   0  0  0  0  0  0  0  0  0  0  0  0
    4.0833    2.1282   -0.4177 C   0  0  0  0  0  0  0  0  0  0  0  0
    4.7237    2.9038    0.3072 O   0  0  0  0  0  0  0  0  0  0  0  0
    4.5857    1.7531   -1.7191 N   0  0  0  0  0  0  0  0  0  0  0  0
    3.6679    0.8655   -2.3727 C   0  0  0  0  0  0  0  0  0  0  0  0
    2.5724    0.6777   -1.4061 C   0  0  0  0  0  0  0  0  0  0  0  0
    1.4311   -0.0953   -1.5161 C   0  0  0  0  0  0  0  0  0  0  0  0
    0.9107   -0.8986   -2.4942 C   0  0  0  0  0  0  0  0  0  0  0  0
    1.4460   -1.1546   -3.7388 C   0  0  0  0  0  0  0  0  0  0  0  0
    0.7204   -1.9699   -4.5903 C   0  0  0  0  0  0  0  0  0  0  0  0
   -0.4796   -2.4721   -4.1538 C   0  0  0  0  0  0  0  0  0  0  0  0
   -0.9835   -2.1915   -2.8968 C   0  0  0  0  0  0  0  0  0  0  0  0
   -0.2923   -1.3892   -2.0208 C   0  0  0  0  0  0  0  0  0  0  0  0
   -0.5561   -0.9296   -0.7580 N   0  0  0  0  0  0  0  0  0  0  0  0
    0.5450   -0.1231   -0.5047 C   0  0  0  0  0  0  0  0  0  0  0  0
    0.7896    0.6266    0.6214 C   0  0  0  0  0  0  0  0  0  0  0  0
   -3.5198   -2.9602   -0.9106 H   0  0  0  0  0  0  0  0  0  0  0  0
   -3.3568   -4.2154    0.4211 H   0  0  0  0  0  0  0  0  0  0  0  0
   -2.3194   -4.2574   -0.9775 H   0  0  0  0  0  0  0  0  0  0  0  0
   -0.9193   -3.1297    0.5125 H   0  0  0  0  0  0  0  0  0  0  0  0
   -1.6007    0.3097    2.8646 H   0  0  0  0  0  0  0  0  0  0  0  0
   -1.5829    1.3920    0.0843 H   0  0  0  0  0  0  0  0  0  0  0  0
   -2.9124    1.4392    1.3601 H   0  0  0  0  0  0  0  0  0  0  0  0
   -2.8492    0.4864   -1.5360 H   0  0  0  0  0  0  0  0  0  0  0  0
   -4.4526    0.0471    1.4549 H   0  0  0  0  0  0  0  0  0  0  0  0
   -4.5766   -1.5718    0.7633 H   0  0  0  0  0  0  0  0  0  0  0  0
   -3.7816   -0.8877    3.2093 H   0  0  0  0  0  0  0  0  0  0  0  0
   -0.6993    1.7522    4.1842 H   0  0  0  0  0  0  0  0  0  0  0  0
    0.6912    3.3595    5.4937 H   0  0  0  0  0  0  0  0  0  0  0  0
    2.7843    4.0847    4.5081 H   0  0  0  0  0  0  0  0  0  0  0  0
    3.5306    3.3093    2.3519 H   0  0  0  0  0  0  0  0  0  0  0  0
    5.5028    2.0928   -2.1204 H   0  0  0  0  0  0  0  0  0  0  0  0
    3.3165    1.3475   -3.3113 H   0  0  0  0  0  0  0  0  0  0  0  0
    4.1609   -0.1068   -2.5347 H   0  0  0  0  0  0  0  0  0  0  0  0
    2.3985   -0.7344   -4.0379 H   0  0  0  0  0  0  0  0  0  0  0  0
    1.0934   -2.2056   -5.5802 H   0  0  0  0  0  0  0  0  0  0  0  0
   -1.0883   -3.1186   -4.7883 H   0  0  0  0  0  0  0  0  0  0  0  0
   -1.9314   -2.5462   -2.5945 H   0  0  0  0  0  0  0  0  0  0  0  0
  1  2  1  0
  3  2  1  6
  3  4  1  0
  4  5  1  0
  5  6  1  0
  6  7  1  0
  7  8  1  6
  7  9  1  0
  9 10  1  0
  5 11  1  0
 11 12  1  0
 12 13  2  0
 13 14  1  0
 14 15  2  0
 15 16  1  0
 16 17  2  0
 17 18  1  0
 18 19  2  0
 19 20  1  0
 20 21  2  0
 20 22  1  0
 22 23  1  0
 23 24  1  0
 24 25  2  0
 25 26  1  0
 26 27  2  0
 27 28  1  0
 28 29  2  0
 29 30  1  0
 30 31  2  0
 31 32  1  0
 32 33  1  0
 33 34  2  0
  7  3  1  0
 34 11  1  0
 32  3  1  0
 17 12  1  0
 34 18  1  0
 24 19  1  0
 33 25  1  0
 31 26  1  0
  1 35  1  0
  1 36  1  0
  1 37  1  0
  2 38  1  0
  5 39  1  1
  6 40  1  0
  6 41  1  0
  8 42  1  0
  9 43  1  0
  9 44  1  0
 10 45  1  0
 13 46  1  0
 14 47  1  0
 15 48  1  0
 16 49  1  0
 22 50  1  0
 23 51  1  0
 23 52  1  0
 27 53  1  0
 28 54  1  0
 29 55  1  0
 30 56  1  0
M  END
$$$$
[H]OC1=NC(=O)C(=C([H])c2c([H])c([H])c([H])c(OC([H])([H])C([H])([H])C([H])([H])C([H])([H])C3([H])OC([H])([H])C([H])([H])C([H])([H])C3([H])[H])c2[H])S1
     RDKit          3D

 48 50  0  0  0  0  0  0  0  0999 V2000
    9.8588    3.0829    0.1630 O   0  0  0  0  0  0  0  0  0  0  0  0
    8.6468    2.4029    0.3359 C   0  0  0  0  0  0  0  0  0  0  0  0
    7.9400    1.7731   -0.4773 N   0  0  0  0  0  0  0  0  0  0  0  0
    6.7605    1.1667   -0.0813 C   0  0  0  0  0  0  0  0  0  0  0  0
    6.0380    0.5253   -0.9277 O   0  0  0  0  0  0  0  0  0  0  0  0
    6.4243    1.3110    1.2952 C   0  0  0  0  0  0  0  0  0  0  0  0
    7.8073    2.3083    1.9168 S   0  0  0  0  0  0  0  0  0  0  0  0
    5.4674    0.8970    2.0274 C   0  0  0  0  0  0  0  0  0  0  0  0
    4.3020    0.0715    1.6959 C   0  0  0  0  0  0  0  0  0  0  0  0
    4.4683   -1.1377    1.0816 C   0  0  0  0  0  0  0  0  0  0  0  0
    3.3268   -1.8450    0.7744 C   0  0  0  0  0  0  0  0  0  0  0  0
    2.0678   -1.3423    1.0810 C   0  0  0  0  0  0  0  0  0  0  0  0
    1.8937   -0.1313    1.6966 C   0  0  0  0  0  0  0  0  0  0  0  0
    0.6851    0.3857    2.0056 O   0  0  0  0  0  0  0  0  0  0  0  0
   -0.5859   -0.0516    1.8080 C   0  0  0  0  0  0  0  0  0  0  0  0
   -1.0204   -0.1639    0.3814 C   0  0  0  0  0  0  0  0  0  0  0  0
   -2.4698   -0.6467    0.2928 C   0  0  0  0  0  0  0  0  0  0  0  0
   -2.8444   -0.7363   -1.1647 C   0  0  0  0  0  0  0  0  0  0  0  0
   -4.2861   -1.2046   -1.3219 C   0  0  0  0  0  0  0  0  0  0  0  0
   -5.1400   -0.1678   -0.6093 C   0  0  0  0  0  0  0  0  0  0  0  0
   -6.5992   -0.3049   -0.9642 C   0  0  0  0  0  0  0  0  0  0  0  0
   -6.7074   -0.2755   -2.4606 C   0  0  0  0  0  0  0  0  0  0  0  0
   -5.3529   -0.2690   -3.1552 C   0  0  0  0  0  0  0  0  0  0  0  0
   -4.5797   -1.3023   -2.6608 O   0  0  0  0  0  0  0  0  0  0  0  0
    3.0643    0.5900    2.0092 C   0  0  0  0  0  0  0  0  0  0  0  0
    9.8005    4.0884    0.0493 H   0  0  0  0  0  0  0  0  0  0  0  0
    5.4434    1.1677    3.1261 H   0  0  0  0  0  0  0  0  0  0  0  0
    5.4618   -1.5295    0.8633 H   0  0  0  0  0  0  0  0  0  0  0  0
    3.4605   -2.7990    0.2881 H   0  0  0  0  0  0  0  0  0  0  0  0
    1.2190   -1.9869    0.8211 H   0  0  0  0  0  0  0  0  0  0  0  0
   -0.7236   -1.0826    2.2807 H   0  0  0  0  0  0  0  0  0  0  0  0
   -1.3225    0.5815    2.3967 H   0  0  0  0  0  0  0  0  0  0  0  0
   -0.4341   -0.8585   -0.1919 H   0  0  0  0  0  0  0  0  0  0  0  0
   -1.0077    0.8808   -0.0357 H   0  0  0  0  0  0  0  0  0  0  0  0
   -2.5811   -1.6057    0.7974 H   0  0  0  0  0  0  0  0  0  0  0  0
   -3.0643    0.1521    0.8064 H   0  0  0  0  0  0  0  0  0  0  0  0
   -2.7718    0.2336   -1.6697 H   0  0  0  0  0  0  0  0  0  0  0  0
   -2.2205   -1.5122   -1.6360 H   0  0  0  0  0  0  0  0  0  0  0  0
   -4.4516   -2.1975   -0.8400 H   0  0  0  0  0  0  0  0  0  0  0  0
   -5.0139   -0.3230    0.4834 H   0  0  0  0  0  0  0  0  0  0  0  0
   -4.7668    0.8348   -0.8960 H   0  0  0  0  0  0  0  0  0  0  0  0
   -7.1365    0.5515   -0.5060 H   0  0  0  0  0  0  0  0  0  0  0  0
   -6.9707   -1.2773   -0.5312 H   0  0  0  0  0  0  0  0  0  0  0  0
   -7.2742   -1.1843   -2.7808 H   0  0  0  0  0  0  0  0  0  0  0  0
   -7.3231    0.5931   -2.7483 H   0  0  0  0  0  0  0  0  0  0  0  0
   -4.8704    0.7138   -3.0757 H   0  0  0  0  0  0  0  0  0  0  0  0
   -5.5378   -0.4990   -4.2335 H   0  0  0  0  0  0  0  0  0  0  0  0
    2.9203    1.5352    2.4905 H   0  0  0  0  0  0  0  0  0  0  0  0
  1  2  1  0
  2  3  2  0
  3  4  1  0
  4  5  2  0
  4  6  1  0
  6  7  1  0
  6  8  2  3
  8  9  1  0
  9 10  2  0
 10 11  1  0
 11 12  2  0
 12 13  1  0
 13 14  1  0
 14 15  1  0
 15 16  1  0
 16 17  1  0
 17 18  1  0
 18 19  1  0
 19 20  1  0
 20 21  1  0
 21 22  1  0
 22 23  1  0
 23 24  1  0
 13 25  2  0
  7  2  1  0
 25  9  1  0
 24 19  1  0
  1 26  1  0
  8 27  1  0
 10 28  1  0
 11 29  1  0
 12 30  1  0
 15 31  1  0
 15 32  1  0
 16 33  1  0
 16 34  1  0
 17 35  1  0
 17 36  1  0
 18 37  1  0
 18 38  1  0
 19 39  1  0
 20 40  1  0
 20 41  1  0
 21 42  1  0
 21 43  1  0
 22 44  1  0
 22 45  1  0
 23 46  1  0
 23 47  1  0
 25 48  1  0
M  END
$$$$
[H]c1nc(C([H])([H])Sc2sc(N([H])C(=O)C3([H])C([H])([H])C([H])([H])N([H])C([H])([H])C3([H])[H])nc2[H])oc1C(C([H])([H])[H])(C([H])([H])[H])C([H])([H])[H]
     RDKit          3D

 49 51  0  0  0  0  0  0  0  0999 V2000
    7.4814   -1.2375   -0.1376 C   0  0  0  0  0  0  0  0  0  0  0  0
    6.5010   -0.3324   -0.8679 C   0  0  0  0  0  0  0  0  0  0  0  0
    6.4931   -0.6926   -2.3641 C   0  0  0  0  0  0  0  0  0  0  0  0
    6.9670    1.0974   -0.7394 C   0  0  0  0  0  0  0  0  0  0  0  0
    5.1339   -0.5428   -0.3842 C   0  0  0  0  0  0  0  0  0  0  0  0
    4.8006   -1.5973    0.4821 C   0  0  0  0  0  0  0  0  0  0  0  0
    3.4897   -1.5547    0.7644 N   0  0  0  0  0  0  0  0  0  0  0  0
    3.0206   -0.4829    0.0857 C   0  0  0  0  0  0  0  0  0  0  0  0
    1.5746   -0.0709    0.1332 C   0  0  0  0  0  0  0  0  0  0  0  0
    1.3534    1.0474    1.5283 S   0  0  0  0  0  0  0  0  0  0  0  0
   -0.3739    1.4084    1.8134 C   0  0  0  0  0  0  0  0  0  0  0  0
   -0.8813    2.1446    2.8703 C   0  0  0  0  0  0  0  0  0  0  0  0
   -2.1395    2.2890    2.9467 N   0  0  0  0  0  0  0  0  0  0  0  0
   -2.9601    1.7304    2.0080 C   0  0  0  0  0  0  0  0  0  0  0  0
   -4.3735    1.8391    2.0460 N   0  0  0  0  0  0  0  0  0  0  0  0
   -5.3456    1.3619    1.2077 C   0  0  0  0  0  0  0  0  0  0  0  0
   -6.5955    1.6797    1.6145 O   0  0  0  0  0  0  0  0  0  0  0  0
   -5.2972    0.5887   -0.0219 C   0  0  0  0  0  0  0  0  0  0  0  0
   -4.9795   -0.8958    0.2095 C   0  0  0  0  0  0  0  0  0  0  0  0
   -4.8929   -1.5941   -1.1162 C   0  0  0  0  0  0  0  0  0  0  0  0
   -6.0747   -1.4630   -1.9381 N   0  0  0  0  0  0  0  0  0  0  0  0
   -6.6450   -0.1569   -1.9545 C   0  0  0  0  0  0  0  0  0  0  0  0
   -6.7385    0.5196   -0.6328 C   0  0  0  0  0  0  0  0  0  0  0  0
   -1.8086    0.9875    1.0077 S   0  0  0  0  0  0  0  0  0  0  0  0
    4.0047    0.0765   -0.5678 O   0  0  0  0  0  0  0  0  0  0  0  0
    7.2934   -1.1596    0.9780 H   0  0  0  0  0  0  0  0  0  0  0  0
    8.5182   -0.8931   -0.3683 H   0  0  0  0  0  0  0  0  0  0  0  0
    7.3551   -2.3063   -0.3965 H   0  0  0  0  0  0  0  0  0  0  0  0
    5.5126   -0.3766   -2.7609 H   0  0  0  0  0  0  0  0  0  0  0  0
    6.6252   -1.7896   -2.4470 H   0  0  0  0  0  0  0  0  0  0  0  0
    7.2621   -0.1339   -2.9096 H   0  0  0  0  0  0  0  0  0  0  0  0
    8.0882    1.1229   -0.8115 H   0  0  0  0  0  0  0  0  0  0  0  0
    6.4752    1.7104   -1.5347 H   0  0  0  0  0  0  0  0  0  0  0  0
    6.7122    1.4346    0.2876 H   0  0  0  0  0  0  0  0  0  0  0  0
    5.5137   -2.3143    0.8477 H   0  0  0  0  0  0  0  0  0  0  0  0
    0.9750   -0.9957    0.3635 H   0  0  0  0  0  0  0  0  0  0  0  0
    1.2478    0.3508   -0.8365 H   0  0  0  0  0  0  0  0  0  0  0  0
   -0.1766    2.5895    3.6131 H   0  0  0  0  0  0  0  0  0  0  0  0
   -4.7050    2.4091    2.9298 H   0  0  0  0  0  0  0  0  0  0  0  0
   -4.6730    1.0233   -0.8117 H   0  0  0  0  0  0  0  0  0  0  0  0
   -5.8238   -1.2785    0.8379 H   0  0  0  0  0  0  0  0  0  0  0  0
   -4.0361   -0.9937    0.7354 H   0  0  0  0  0  0  0  0  0  0  0  0
   -3.9793   -1.2837   -1.6339 H   0  0  0  0  0  0  0  0  0  0  0  0
   -4.7978   -2.6949   -0.8917 H   0  0  0  0  0  0  0  0  0  0  0  0
   -6.7230   -2.2544   -1.8658 H   0  0  0  0  0  0  0  0  0  0  0  0
   -6.2046    0.5398   -2.7058 H   0  0  0  0  0  0  0  0  0  0  0  0
   -7.7210   -0.3059   -2.2978 H   0  0  0  0  0  0  0  0  0  0  0  0
   -7.3252   -0.0743    0.1042 H   0  0  0  0  0  0  0  0  0  0  0  0
   -7.1278    1.5250   -0.7601 H   0  0  0  0  0  0  0  0  0  0  0  0
  1  2  1  0
  2  3  1  0
  2  4  1  0
  2  5  1  0
  5  6  2  0
  6  7  1  0
  7  8  2  0
  8  9  1  0
  9 10  1  0
 10 11  1  0
 11 12  2  0
 12 13  1  0
 13 14  2  0
 14 15  1  0
 15 16  1  0
 16 17  2  0
 16 18  1  0
 18 19  1  0
 19 20  1  0
 20 21  1  0
 21 22  1  0
 22 23  1  0
 14 24  1  0
  8 25  1  0
 25  5  1  0
 24 11  1  0
 23 18  1  0
  1 26  1  0
  1 27  1  0
  1 28  1  0
  3 29  1  0
  3 30  1  0
  3 31  1  0
  4 32  1  0
  4 33  1  0
  4 34  1  0
  6 35  1  0
  9 36  1  0
  9 37  1  0
 12 38  1  0
 15 39  1  0
 18 40  1  0
 19 41  1  0
 19 42  1  0
 20 43  1  0
 20 44  1  0
 21 45  1  0
 22 46  1  0
 22 47  1  0
 23 48  1  0
 23 49  1  0
M  END
$$$$
[H]c1nc(N2C([H])([H])C([H])([H])N(C3([H])N(C([H])([H])c4c([H])sc([H])c4[H])C(=O)N(C([H])([H])[H])C3([H])[H])C([H])([H])C2([H])[H])c([H])c(-c2c([H])c([H])nc(C(F)(F)F)c2[H])c1[H]
     RDKit          3D

 60 64  0  0  0  0  0  0  0  0999 V2000
   -4.1965    3.9047    0.1937 C   0  0  0  0  0  0  0  0  0  0  0  0
   -4.0942    2.4809    0.0194 N   0  0  0  0  0  0  0  0  0  0  0  0
   -3.4001    1.5003    0.8835 C   0  0  0  0  0  0  0  0  0  0  0  0
   -2.8694    0.5956   -0.2491 C   0  0  0  0  0  0  0  0  0  0  0  0
   -2.2116   -0.5786    0.2061 N   0  0  0  0  0  0  0  0  0  0  0  0
   -1.1313   -0.2003    1.1055 C   0  0  0  0  0  0  0  0  0  0  0  0
    0.1296   -1.0719    0.8922 C   0  0  0  0  0  0  0  0  0  0  0  0
    0.6589   -0.5124   -0.3487 N   0  0  0  0  0  0  0  0  0  0  0  0
   -0.3271   -0.4083   -1.4042 C   0  0  0  0  0  0  0  0  0  0  0  0
   -1.5621   -1.1711   -0.9802 C   0  0  0  0  0  0  0  0  0  0  0  0
    1.9830   -0.0634   -0.5601 C   0  0  0  0  0  0  0  0  0  0  0  0
    3.1244   -0.6577   -0.0770 C   0  0  0  0  0  0  0  0  0  0  0  0
    4.3613   -0.1428   -0.2581 C   0  0  0  0  0  0  0  0  0  0  0  0
    4.4859    1.0577   -0.9760 C   0  0  0  0  0  0  0  0  0  0  0  0
    3.3536    1.6594   -1.4627 C   0  0  0  0  0  0  0  0  0  0  0  0
    2.1886    1.1021   -1.2488 N   0  0  0  0  0  0  0  0  0  0  0  0
    5.6233   -0.7310    0.1840 C   0  0  0  0  0  0  0  0  0  0  0  0
    5.8634   -2.0807    0.2182 C   0  0  0  0  0  0  0  0  0  0  0  0
    7.0912   -2.5873    0.6712 C   0  0  0  0  0  0  0  0  0  0  0  0
    8.0388   -1.7110    1.0774 N   0  0  0  0  0  0  0  0  0  0  0  0
    7.8634   -0.3720    1.0685 C   0  0  0  0  0  0  0  0  0  0  0  0
    6.6620    0.1045    0.6223 C   0  0  0  0  0  0  0  0  0  0  0  0
    8.9334    0.5516    1.5303 C   0  0  0  0  0  0  0  0  0  0  0  0
   10.0762   -0.1019    1.8923 F   0  0  0  0  0  0  0  0  0  0  0  0
    8.4435    1.3478    2.5847 F   0  0  0  0  0  0  0  0  0  0  0  0
    9.1769    1.4316    0.5026 F   0  0  0  0  0  0  0  0  0  0  0  0
   -4.1881    0.3462   -0.8425 N   0  0  0  0  0  0  0  0  0  0  0  0
   -4.9638   -0.7758   -1.1731 C   0  0  0  0  0  0  0  0  0  0  0  0
   -5.9926   -1.1266   -0.0897 C   0  0  0  0  0  0  0  0  0  0  0  0
   -5.8290   -2.1707    0.7524 C   0  0  0  0  0  0  0  0  0  0  0  0
   -6.8108   -2.3888    1.6794 C   0  0  0  0  0  0  0  0  0  0  0  0
   -7.9238   -1.1439    1.3557 S   0  0  0  0  0  0  0  0  0  0  0  0
   -7.1235   -0.3777    0.0571 C   0  0  0  0  0  0  0  0  0  0  0  0
   -4.6587    1.7034   -1.0636 C   0  0  0  0  0  0  0  0  0  0  0  0
   -5.3952    2.1374   -1.9814 O   0  0  0  0  0  0  0  0  0  0  0  0
   -5.0102    4.1150    0.9219 H   0  0  0  0  0  0  0  0  0  0  0  0
   -4.3500    4.4059   -0.7711 H   0  0  0  0  0  0  0  0  0  0  0  0
   -3.2734    4.2963    0.6714 H   0  0  0  0  0  0  0  0  0  0  0  0
   -2.5907    2.0258    1.3834 H   0  0  0  0  0  0  0  0  0  0  0  0
   -4.1032    0.9477    1.4838 H   0  0  0  0  0  0  0  0  0  0  0  0
   -2.2987    1.1981   -0.9623 H   0  0  0  0  0  0  0  0  0  0  0  0
   -0.7887    0.8460    0.9401 H   0  0  0  0  0  0  0  0  0  0  0  0
   -1.4194   -0.4056    2.1587 H   0  0  0  0  0  0  0  0  0  0  0  0
    0.8031   -0.7767    1.7300 H   0  0  0  0  0  0  0  0  0  0  0  0
   -0.0883   -2.1319    0.8657 H   0  0  0  0  0  0  0  0  0  0  0  0
    0.0623   -0.8238   -2.3615 H   0  0  0  0  0  0  0  0  0  0  0  0
   -0.4875    0.6712   -1.5557 H   0  0  0  0  0  0  0  0  0  0  0  0
   -2.2294   -1.1184   -1.8729 H   0  0  0  0  0  0  0  0  0  0  0  0
   -1.2467   -2.2026   -0.7612 H   0  0  0  0  0  0  0  0  0  0  0  0
    3.0438   -1.6050    0.4816 H   0  0  0  0  0  0  0  0  0  0  0  0
    5.4851    1.4765   -1.1283 H   0  0  0  0  0  0  0  0  0  0  0  0
    3.4726    2.6067   -2.0237 H   0  0  0  0  0  0  0  0  0  0  0  0
    5.1215   -2.7949   -0.0955 H   0  0  0  0  0  0  0  0  0  0  0  0
    7.2457   -3.6447    0.6777 H   0  0  0  0  0  0  0  0  0  0  0  0
    6.4793    1.1614    0.6029 H   0  0  0  0  0  0  0  0  0  0  0  0
   -4.4092   -1.7050   -1.4318 H   0  0  0  0  0  0  0  0  0  0  0  0
   -5.5933   -0.5583   -2.0809 H   0  0  0  0  0  0  0  0  0  0  0  0
   -4.9500   -2.8620    0.7360 H   0  0  0  0  0  0  0  0  0  0  0  0
   -6.8401   -3.1870    2.4421 H   0  0  0  0  0  0  0  0  0  0  0  0
   -7.4145    0.5162   -0.5310 H   0  0  0  0  0  0  0  0  0  0  0  0
  1  2  1  0
  2  3  1  0
  3  4  1  0
  4  5  1  0
  5  6  1  0
  6  7  1  0
  7  8  1  0
  8  9  1  0
  9 10  1  0
  8 11  1  0
 11 12  2  0
 12 13  1  0
 13 14  2  0
 14 15  1  0
 15 16  2  0
 13 17  1  0
 17 18  2  0
 18 19  1  0
 19 20  2  0
 20 21  1  0
 21 22  2  0
 21 23  1  0
 23 24  1  0
 23 25  1  0
 23 26  1  0
  4 27  1  0
 27 28  1  0
 28 29  1  0
 29 30  1  0
 30 31  2  0
 31 32  1  0
 32 33  1  0
 27 34  1  0
 34 35  2  0
 34  2  1  0
 10  5  1  0
 16 11  1  0
 22 17  1  0
 33 29  2  0
  1 36  1  0
  1 37  1  0
  1 38  1  0
  3 39  1  0
  3 40  1  0
  4 41  1  0
  6 42  1  0
  6 43  1  0
  7 44  1  0
  7 45  1  0
  9 46  1  0
  9 47  1  0
 10 48  1  0
 10 49  1  0
 12 50  1  0
 14 51  1  0
 15 52  1  0
 18 53  1  0
 19 54  1  0
 22 55  1  0
 28 56  1  0
 28 57  1  0
 30 58  1  0
 31 59  1  0
 33 60  1  0
M  END
$$$$
[H]c1sc2c(c1[H])C([H])([H])[C@@]1(C([H])([H])[H])C([H])([H])N(C([H])([H])c3c([H])c([H])c([H])c([H])c3[H])C([H])(C2([H])[H])[C@]([H])(C([H])([H])[H])[C@@]1([H])C([H])([H])C([H])([H])[H]
     RDKit          3D

 53 56  0  0  0  0  0  0  0  0999 V2000
   -3.6000   -2.1525   -0.4267 C   0  0  0  0  0  0  0  0  0  0  0  0
   -2.1583   -2.4169   -0.5017 C   0  0  0  0  0  0  0  0  0  0  0  0
   -1.1820   -1.4746    0.0375 C   0  0  2  0  0  0  0  0  0  0  0  0
   -1.2554   -1.1458    1.5024 C   0  0  1  0  0  0  0  0  0  0  0  0
   -1.0562   -2.4405    2.2619 C   0  0  0  0  0  0  0  0  0  0  0  0
   -0.0779   -0.2154    1.8169 C   0  0  0  0  0  0  0  0  0  0  0  0
   -0.5571    1.1136    2.3594 C   0  0  0  0  0  0  0  0  0  0  0  0
   -1.1423    1.9809    1.3204 C   0  0  0  0  0  0  0  0  0  0  0  0
   -1.1405    3.6309    1.7224 S   0  0  0  0  0  0  0  0  0  0  0  0
   -1.8696    4.2634    0.3117 C   0  0  0  0  0  0  0  0  0  0  0  0
   -2.0954    3.1431   -0.4431 C   0  0  0  0  0  0  0  0  0  0  0  0
   -1.7146    1.9554    0.0867 C   0  0  0  0  0  0  0  0  0  0  0  0
   -2.0017    0.7676   -0.8114 C   0  0  0  0  0  0  0  0  0  0  0  0
   -0.9274   -0.2513   -0.8175 C   0  0  2  0  0  0  0  0  0  0  0  0
   -0.8208   -0.7891   -2.2571 C   0  0  0  0  0  0  0  0  0  0  0  0
    0.4439    0.3334   -0.5043 C   0  0  0  0  0  0  0  0  0  0  0  0
    0.8642   -0.1182    0.7667 N   0  0  0  0  0  0  0  0  0  0  0  0
    2.1642    0.2748    1.1833 C   0  0  0  0  0  0  0  0  0  0  0  0
    3.1080    0.3611    0.0477 C   0  0  0  0  0  0  0  0  0  0  0  0
    3.8654   -0.7160   -0.3761 C   0  0  0  0  0  0  0  0  0  0  0  0
    4.7430   -0.6272   -1.4351 C   0  0  0  0  0  0  0  0  0  0  0  0
    4.9000    0.5577   -2.1212 C   0  0  0  0  0  0  0  0  0  0  0  0
    4.1531    1.6399   -1.7119 C   0  0  0  0  0  0  0  0  0  0  0  0
    3.2766    1.5483   -0.6530 C   0  0  0  0  0  0  0  0  0  0  0  0
   -3.9500   -1.5755    0.4471 H   0  0  0  0  0  0  0  0  0  0  0  0
   -4.2300   -3.0921   -0.3945 H   0  0  0  0  0  0  0  0  0  0  0  0
   -3.9699   -1.6124   -1.3249 H   0  0  0  0  0  0  0  0  0  0  0  0
   -1.9030   -2.5760   -1.5937 H   0  0  0  0  0  0  0  0  0  0  0  0
   -2.0021   -3.4632   -0.0881 H   0  0  0  0  0  0  0  0  0  0  0  0
   -0.1677   -2.0159   -0.0340 H   0  0  0  0  0  0  0  0  0  0  0  0
   -2.1516   -0.6118    1.8045 H   0  0  0  0  0  0  0  0  0  0  0  0
   -1.7009   -3.2459    1.9280 H   0  0  0  0  0  0  0  0  0  0  0  0
   -1.0912   -2.2840    3.3672 H   0  0  0  0  0  0  0  0  0  0  0  0
    0.0008   -2.7638    2.0293 H   0  0  0  0  0  0  0  0  0  0  0  0
    0.4924   -0.6586    2.6931 H   0  0  0  0  0  0  0  0  0  0  0  0
   -1.3506    0.8972    3.1046 H   0  0  0  0  0  0  0  0  0  0  0  0
    0.2778    1.5818    2.8813 H   0  0  0  0  0  0  0  0  0  0  0  0
   -2.1115    5.3090    0.0451 H   0  0  0  0  0  0  0  0  0  0  0  0
   -2.5776    3.2767   -1.4445 H   0  0  0  0  0  0  0  0  0  0  0  0
   -2.1877    1.1412   -1.8648 H   0  0  0  0  0  0  0  0  0  0  0  0
   -2.9670    0.3954   -0.4819 H   0  0  0  0  0  0  0  0  0  0  0  0
   -1.8200   -0.8791   -2.7226 H   0  0  0  0  0  0  0  0  0  0  0  0
   -0.2803   -0.0172   -2.8807 H   0  0  0  0  0  0  0  0  0  0  0  0
   -0.2086   -1.6932   -2.3085 H   0  0  0  0  0  0  0  0  0  0  0  0
    0.4867    1.4251   -0.6858 H   0  0  0  0  0  0  0  0  0  0  0  0
    1.2219   -0.0664   -1.2303 H   0  0  0  0  0  0  0  0  0  0  0  0
    2.0946    1.2559    1.7252 H   0  0  0  0  0  0  0  0  0  0  0  0
    2.5396   -0.4549    1.9283 H   0  0  0  0  0  0  0  0  0  0  0  0
    3.7508   -1.6476    0.1530 H   0  0  0  0  0  0  0  0  0  0  0  0
    5.3429   -1.4635   -1.7779 H   0  0  0  0  0  0  0  0  0  0  0  0
    5.5880    0.6424   -2.9579 H   0  0  0  0  0  0  0  0  0  0  0  0
    4.2758    2.5806   -2.2543 H   0  0  0  0  0  0  0  0  0  0  0  0
    2.6791    2.3931   -0.3165 H   0  0  0  0  0  0  0  0  0  0  0  0
  1  2  1  0
  2  3  1  0
  3  4  1  0
  4  5  1  0
  4  6  1  0
  6  7  1  0
  7  8  1  0
  8  9  1  0
  9 10  1  0
 10 11  2  0
 11 12  1  0
 12 13  1  0
 13 14  1  0
 14 15  1  6
 14 16  1  0
 16 17  1  0
 17 18  1  0
 18 19  1  0
 19 20  2  0
 20 21  1  0
 21 22  2  0
 22 23  1  0
 23 24  2  0
 14  3  1  0
 24 19  1  0
 17  6  1  0
 12  8  2  0
  1 25  1  0
  1 26  1  0
  1 27  1  0
  2 28  1  0
  2 29  1  0
  3 30  1  1
  4 31  1  6
  5 32  1  0
  5 33  1  0
  5 34  1  0
  6 35  1  0
  7 36  1  0
  7 37  1  0
 10 38  1  0
 11 39  1  0
 13 40  1  0
 13 41  1  0
 15 42  1  0
 15 43  1  0
 15 44  1  0
 16 45  1  0
 16 46  1  0
 18 47  1  0
 18 48  1  0
 20 49  1  0
 21 50  1  0
 22 51  1  0
 23 52  1  0
 24 53  1  0
M  END
$$$$
[H]N=C(N([H])[H])N([H])C([H])([H])C([H])([H])C([H])([H])[C@@]([H])(C(=O)c1nc2c([H])c([H])c([H])c([H])c2s1)N([H])C(=O)[C@@]([H])(N([H])C(=O)[C@@]([H])(N([H])C(=O)C([H])([H])C([H])([H])C([H])([H])C([H])([H])C([H])([H])C([H])([H])C([H])([H])[H])C([H])([H])c1c([H])c([H])c([H])c([H])c1[H])C([H])([H])c1c([H])c([H])c(O[H])c([H])c1[H]
     RDKit          3D

101104  0  0  0  0  0  0  0  0999 V2000
    5.4047    6.4340    1.8084 C   0  0  0  0  0  0  0  0  0  0  0  0
    5.0702    5.0514    2.3079 C   0  0  0  0  0  0  0  0  0  0  0  0
    5.9804    3.9850    1.7231 C   0  0  0  0  0  0  0  0  0  0  0  0
    5.5687    2.6308    2.3057 C   0  0  0  0  0  0  0  0  0  0  0  0
    6.4442    1.5168    1.7648 C   0  0  0  0  0  0  0  0  0  0  0  0
    6.0945    0.1855    2.3226 C   0  0  0  0  0  0  0  0  0  0  0  0
    4.7357   -0.3409    2.1007 C   0  0  0  0  0  0  0  0  0  0  0  0
    4.3582   -0.5760    0.6781 C   0  0  0  0  0  0  0  0  0  0  0  0
    5.1388   -0.2030   -0.2289 O   0  0  0  0  0  0  0  0  0  0  0  0
    3.1419   -1.2127    0.3490 N   0  0  0  0  0  0  0  0  0  0  0  0
    2.7936   -1.4421   -1.0958 C   0  0  1  0  0  0  0  0  0  0  0  0
    3.0381   -2.8641   -1.3360 C   0  0  0  0  0  0  0  0  0  0  0  0
    2.8495   -3.4612   -2.6504 C   0  0  0  0  0  0  0  0  0  0  0  0
    3.7683   -3.1819   -3.6646 C   0  0  0  0  0  0  0  0  0  0  0  0
    3.6353   -3.8451   -4.8480 C   0  0  0  0  0  0  0  0  0  0  0  0
    2.6330   -4.7655   -5.0562 C   0  0  0  0  0  0  0  0  0  0  0  0
    1.7267   -5.0443   -4.0631 C   0  0  0  0  0  0  0  0  0  0  0  0
    1.8439   -4.3897   -2.8719 C   0  0  0  0  0  0  0  0  0  0  0  0
    1.5151   -0.8250   -1.3576 C   0  0  0  0  0  0  0  0  0  0  0  0
    1.4216    0.3633   -0.7529 O   0  0  0  0  0  0  0  0  0  0  0  0
    0.3907   -1.1945   -2.0816 N   0  0  0  0  0  0  0  0  0  0  0  0
   -0.7741   -0.2962   -2.1495 C   0  0  1  0  0  0  0  0  0  0  0  0
   -1.7182   -0.5817   -3.2211 C   0  0  0  0  0  0  0  0  0  0  0  0
   -1.1918   -0.5325   -4.5928 C   0  0  0  0  0  0  0  0  0  0  0  0
   -0.7061   -1.6934   -5.1653 C   0  0  0  0  0  0  0  0  0  0  0  0
   -0.1878   -1.7041   -6.4588 C   0  0  0  0  0  0  0  0  0  0  0  0
   -0.1308   -0.5681   -7.2358 C   0  0  0  0  0  0  0  0  0  0  0  0
    0.3774   -0.5442   -8.5248 O   0  0  0  0  0  0  0  0  0  0  0  0
   -0.6194    0.6042   -6.6661 C   0  0  0  0  0  0  0  0  0  0  0  0
   -1.1264    0.5977   -5.3878 C   0  0  0  0  0  0  0  0  0  0  0  0
   -1.4442   -0.4840   -0.8109 C   0  0  0  0  0  0  0  0  0  0  0  0
   -0.9435   -1.1897    0.0867 O   0  0  0  0  0  0  0  0  0  0  0  0
   -2.6817    0.1613   -0.5499 N   0  0  0  0  0  0  0  0  0  0  0  0
   -3.3365    0.0271    0.7484 C   0  0  1  0  0  0  0  0  0  0  0  0
   -3.9908    1.3050    1.1579 C   0  0  0  0  0  0  0  0  0  0  0  0
   -3.0041    2.4554    1.2493 C   0  0  0  0  0  0  0  0  0  0  0  0
   -3.7648    3.6952    1.6483 C   0  0  0  0  0  0  0  0  0  0  0  0
   -4.4198    3.6210    2.9152 N   0  0  0  0  0  0  0  0  0  0  0  0
   -3.6794    3.5773    4.1506 C   0  0  0  0  0  0  0  0  0  0  0  0
   -4.0441    2.7085    5.1975 N   0  0  0  0  0  0  0  0  0  0  0  0
   -2.6651    4.3591    4.2880 N   0  0  0  0  0  0  0  0  0  0  0  0
   -4.3387   -1.0800    0.6550 C   0  0  0  0  0  0  0  0  0  0  0  0
   -4.5872   -1.6131   -0.4430 O   0  0  0  0  0  0  0  0  0  0  0  0
   -5.0411   -1.5630    1.8400 C   0  0  0  0  0  0  0  0  0  0  0  0
   -5.9450   -2.5038    1.9470 N   0  0  0  0  0  0  0  0  0  0  0  0
   -6.4553   -2.8224    3.0990 C   0  0  0  0  0  0  0  0  0  0  0  0
   -7.4277   -3.8123    3.3405 C   0  0  0  0  0  0  0  0  0  0  0  0
   -7.8709   -4.0409    4.5977 C   0  0  0  0  0  0  0  0  0  0  0  0
   -7.4362   -3.3636    5.7065 C   0  0  0  0  0  0  0  0  0  0  0  0
   -6.4830   -2.3887    5.4878 C   0  0  0  0  0  0  0  0  0  0  0  0
   -6.0018   -2.1238    4.2042 C   0  0  0  0  0  0  0  0  0  0  0  0
   -4.8728   -1.0638    3.4882 S   0  0  0  0  0  0  0  0  0  0  0  0
    4.9070    7.1484    2.5275 H   0  0  0  0  0  0  0  0  0  0  0  0
    6.5262    6.5465    1.8850 H   0  0  0  0  0  0  0  0  0  0  0  0
    5.0238    6.6391    0.7979 H   0  0  0  0  0  0  0  0  0  0  0  0
    5.0731    4.9723    3.3948 H   0  0  0  0  0  0  0  0  0  0  0  0
    4.0375    4.8139    1.9506 H   0  0  0  0  0  0  0  0  0  0  0  0
    5.8203    3.8821    0.6132 H   0  0  0  0  0  0  0  0  0  0  0  0
    7.0341    4.2146    1.8818 H   0  0  0  0  0  0  0  0  0  0  0  0
    4.5114    2.4257    2.1142 H   0  0  0  0  0  0  0  0  0  0  0  0
    5.7239    2.7087    3.4032 H   0  0  0  0  0  0  0  0  0  0  0  0
    6.4587    1.5766    0.6777 H   0  0  0  0  0  0  0  0  0  0  0  0
    7.5099    1.7190    2.1064 H   0  0  0  0  0  0  0  0  0  0  0  0
    6.8096   -0.5520    1.8302 H   0  0  0  0  0  0  0  0  0  0  0  0
    6.3786    0.1514    3.4099 H   0  0  0  0  0  0  0  0  0  0  0  0
    4.6786   -1.3512    2.5842 H   0  0  0  0  0  0  0  0  0  0  0  0
    3.9323    0.2571    2.6194 H   0  0  0  0  0  0  0  0  0  0  0  0
    2.5013   -1.5146    1.1042 H   0  0  0  0  0  0  0  0  0  0  0  0
    3.5909   -0.7991   -1.6308 H   0  0  0  0  0  0  0  0  0  0  0  0
    2.3859   -3.4312   -0.5685 H   0  0  0  0  0  0  0  0  0  0  0  0
    4.0834   -3.1676   -0.9584 H   0  0  0  0  0  0  0  0  0  0  0  0
    4.5249   -2.4615   -3.4602 H   0  0  0  0  0  0  0  0  0  0  0  0
    4.3665   -3.6159   -5.6332 H   0  0  0  0  0  0  0  0  0  0  0  0
    2.5733   -5.2623   -6.0163 H   0  0  0  0  0  0  0  0  0  0  0  0
    0.9251   -5.7677   -4.2039 H   0  0  0  0  0  0  0  0  0  0  0  0
    1.1340   -4.5992   -2.0739 H   0  0  0  0  0  0  0  0  0  0  0  0
    0.2856   -2.0608   -2.5898 H   0  0  0  0  0  0  0  0  0  0  0  0
   -0.3742    0.7416   -2.0638 H   0  0  0  0  0  0  0  0  0  0  0  0
   -2.6172    0.0954   -3.1316 H   0  0  0  0  0  0  0  0  0  0  0  0
   -2.1490   -1.6059   -3.0741 H   0  0  0  0  0  0  0  0  0  0  0  0
   -0.7283   -2.6289   -4.6178 H   0  0  0  0  0  0  0  0  0  0  0  0
    0.1939   -2.6058   -6.9100 H   0  0  0  0  0  0  0  0  0  0  0  0
   -0.1306   -0.6972   -9.3697 H   0  0  0  0  0  0  0  0  0  0  0  0
   -0.5871    1.5173   -7.2591 H   0  0  0  0  0  0  0  0  0  0  0  0
   -1.5079    1.5050   -4.9359 H   0  0  0  0  0  0  0  0  0  0  0  0
   -3.1218    0.7284   -1.2691 H   0  0  0  0  0  0  0  0  0  0  0  0
   -2.5675   -0.2867    1.4724 H   0  0  0  0  0  0  0  0  0  0  0  0
   -4.8647    1.5693    0.5324 H   0  0  0  0  0  0  0  0  0  0  0  0
   -4.3897    1.1874    2.1855 H   0  0  0  0  0  0  0  0  0  0  0  0
   -2.2451    2.2556    2.0567 H   0  0  0  0  0  0  0  0  0  0  0  0
   -2.4223    2.6005    0.3255 H   0  0  0  0  0  0  0  0  0  0  0  0
   -4.5799    3.8818    0.8848 H   0  0  0  0  0  0  0  0  0  0  0  0
   -3.1142    4.6137    1.5402 H   0  0  0  0  0  0  0  0  0  0  0  0
   -5.4636    3.5951    3.0327 H   0  0  0  0  0  0  0  0  0  0  0  0
   -4.9500    2.2109    5.1941 H   0  0  0  0  0  0  0  0  0  0  0  0
   -3.4023    2.5521    5.9991 H   0  0  0  0  0  0  0  0  0  0  0  0
   -2.4238    4.9928    3.4939 H   0  0  0  0  0  0  0  0  0  0  0  0
   -7.8356   -4.4080    2.5133 H   0  0  0  0  0  0  0  0  0  0  0  0
   -8.6357   -4.8312    4.7232 H   0  0  0  0  0  0  0  0  0  0  0  0
   -7.8380   -3.6084    6.6718 H   0  0  0  0  0  0  0  0  0  0  0  0
   -6.0834   -1.8098    6.2853 H   0  0  0  0  0  0  0  0  0  0  0  0
  1  2  1  0
  2  3  1  0
  3  4  1  0
  4  5  1  0
  5  6  1  0
  6  7  1  0
  7  8  1  0
  8  9  2  0
  8 10  1  0
 10 11  1  0
 11 12  1  0
 12 13  1  0
 13 14  2  0
 14 15  1  0
 15 16  2  0
 16 17  1  0
 17 18  2  0
 11 19  1  0
 19 20  2  0
 19 21  1  0
 21 22  1  0
 22 23  1  0
 23 24  1  0
 24 25  2  0
 25 26  1  0
 26 27  2  0
 27 28  1  0
 27 29  1  0
 29 30  2  0
 22 31  1  0
 31 32  2  0
 31 33  1  0
 33 34  1  0
 34 35  1  0
 35 36  1  0
 36 37  1  0
 37 38  1  0
 38 39  1  0
 39 40  1  0
 39 41  2  3
 34 42  1  0
 42 43  2  0
 42 44  1  0
 44 45  2  0
 45 46  1  0
 46 47  2  0
 47 48  1  0
 48 49  2  0
 49 50  1  0
 50 51  2  0
 51 52  1  0
 18 13  1  0
 30 24  1  0
 52 44  1  0
 51 46  1  0
  1 53  1  0
  1 54  1  0
  1 55  1  0
  2 56  1  0
  2 57  1  0
  3 58  1  0
  3 59  1  0
  4 60  1  0
  4 61  1  0
  5 62  1  0
  5 63  1  0
  6 64  1  0
  6 65  1  0
  7 66  1  0
  7 67  1  0
 10 68  1  0
 11 69  1  6
 12 70  1  0
 12 71  1  0
 14 72  1  0
 15 73  1  0
 16 74  1  0
 17 75  1  0
 18 76  1  0
 21 77  1  0
 22 78  1  6
 23 79  1  0
 23 80  1  0
 25 81  1  0
 26 82  1  0
 28 83  1  0
 29 84  1  0
 30 85  1  0
 33 86  1  0
 34 87  1  1
 35 88  1  0
 35 89  1  0
 36 90  1  0
 36 91  1  0
 37 92  1  0
 37 93  1  0
 38 94  1  0
 40 95  1  0
 40 96  1  0
 41 97  1  0
 47 98  1  0
 48 99  1  0
 49100  1  0
 50101  1  0
M  END
$$$$
[H]Oc1c([H])c([H])c(N2c3c([H])c([H])c([H])c([H])c3C([H])([H])C(=O)C23C([H])([H])C([H])([H])C([H])(C([H])([H])C([H])([H])C([H])([H])[H])C3([H])[H])c([H])c1[H]
     RDKit          3D

 50 53  0  0  0  0  0  0  0  0999 V2000
    4.8990    1.7651    0.5561 C   0  0  0  0  0  0  0  0  0  0  0  0
    4.6589    1.1265   -0.7772 C   0  0  0  0  0  0  0  0  0  0  0  0
    3.2453    0.9033   -1.1429 C   0  0  0  0  0  0  0  0  0  0  0  0
    2.4701   -0.0250   -0.2910 C   0  0  0  0  0  0  0  0  0  0  0  0
    2.2982    0.2900    1.1419 C   0  0  0  0  0  0  0  0  0  0  0  0
    0.8853   -0.1993    1.5217 C   0  0  0  0  0  0  0  0  0  0  0  0
    0.2725   -0.7115    0.2457 C   0  0  0  0  0  0  0  0  0  0  0  0
    1.0798   -0.2065   -0.8981 C   0  0  0  0  0  0  0  0  0  0  0  0
   -1.1372   -0.4219    0.1148 N   0  0  0  0  0  0  0  0  0  0  0  0
   -2.0547   -1.4560    0.5516 C   0  0  0  0  0  0  0  0  0  0  0  0
   -3.2292   -1.1250    1.1948 C   0  0  0  0  0  0  0  0  0  0  0  0
   -4.0864   -2.1395    1.6096 C   0  0  0  0  0  0  0  0  0  0  0  0
   -3.7800   -3.4769    1.3873 C   0  0  0  0  0  0  0  0  0  0  0  0
   -2.5939   -3.8284    0.7370 C   0  0  0  0  0  0  0  0  0  0  0  0
   -1.7737   -2.8076    0.3423 C   0  0  0  0  0  0  0  0  0  0  0  0
   -0.4994   -3.0925   -0.3524 C   0  0  0  0  0  0  0  0  0  0  0  0
    0.5071   -2.2062    0.2734 C   0  0  0  0  0  0  0  0  0  0  0  0
    1.4819   -2.7118    0.7848 O   0  0  0  0  0  0  0  0  0  0  0  0
   -1.7210    0.7675   -0.3680 C   0  0  0  0  0  0  0  0  0  0  0  0
   -1.1108    1.9876   -0.1769 C   0  0  0  0  0  0  0  0  0  0  0  0
   -1.7005    3.1537   -0.6790 C   0  0  0  0  0  0  0  0  0  0  0  0
   -2.8911    3.1356   -1.3719 C   0  0  0  0  0  0  0  0  0  0  0  0
   -3.4778    4.2936   -1.8709 O   0  0  0  0  0  0  0  0  0  0  0  0
   -3.5134    1.9132   -1.5703 C   0  0  0  0  0  0  0  0  0  0  0  0
   -2.9306    0.7770   -1.0762 C   0  0  0  0  0  0  0  0  0  0  0  0
    4.8497    1.0597    1.3914 H   0  0  0  0  0  0  0  0  0  0  0  0
    4.2140    2.6323    0.7382 H   0  0  0  0  0  0  0  0  0  0  0  0
    5.9213    2.2420    0.5989 H   0  0  0  0  0  0  0  0  0  0  0  0
    5.2025    1.7505   -1.5495 H   0  0  0  0  0  0  0  0  0  0  0  0
    5.2355    0.1455   -0.8106 H   0  0  0  0  0  0  0  0  0  0  0  0
    3.1673    0.4860   -2.2012 H   0  0  0  0  0  0  0  0  0  0  0  0
    2.6720    1.8755   -1.2477 H   0  0  0  0  0  0  0  0  0  0  0  0
    2.9768   -1.0441   -0.4060 H   0  0  0  0  0  0  0  0  0  0  0  0
    3.0506   -0.3343    1.7170 H   0  0  0  0  0  0  0  0  0  0  0  0
    2.4266    1.3245    1.4547 H   0  0  0  0  0  0  0  0  0  0  0  0
    0.3103    0.5391    2.0703 H   0  0  0  0  0  0  0  0  0  0  0  0
    1.0424   -1.0407    2.2650 H   0  0  0  0  0  0  0  0  0  0  0  0
    0.7349    0.6865   -1.4067 H   0  0  0  0  0  0  0  0  0  0  0  0
    1.1904   -1.0204   -1.6820 H   0  0  0  0  0  0  0  0  0  0  0  0
   -3.4673   -0.0655    1.3678 H   0  0  0  0  0  0  0  0  0  0  0  0
   -5.0007   -1.8559    2.1115 H   0  0  0  0  0  0  0  0  0  0  0  0
   -4.4197   -4.2705    1.6953 H   0  0  0  0  0  0  0  0  0  0  0  0
   -2.3856   -4.8678    0.5802 H   0  0  0  0  0  0  0  0  0  0  0  0
   -0.2127   -4.1583   -0.2907 H   0  0  0  0  0  0  0  0  0  0  0  0
   -0.5675   -2.8447   -1.4423 H   0  0  0  0  0  0  0  0  0  0  0  0
   -0.1752    2.0346    0.3568 H   0  0  0  0  0  0  0  0  0  0  0  0
   -1.1855    4.0996   -0.5061 H   0  0  0  0  0  0  0  0  0  0  0  0
   -3.0051    5.1820   -1.7149 H   0  0  0  0  0  0  0  0  0  0  0  0
   -4.4477    1.8992   -2.1142 H   0  0  0  0  0  0  0  0  0  0  0  0
   -3.4254   -0.1600   -1.2467 H   0  0  0  0  0  0  0  0  0  0  0  0
  1  2  1  0
  2  3  1  0
  3  4  1  0
  4  5  1  0
  5  6  1  0
  6  7  1  0
  7  8  1  0
  7  9  1  0
  9 10  1  0
 10 11  2  0
 11 12  1  0
 12 13  2  0
 13 14  1  0
 14 15  2  0
 15 16  1  0
 16 17  1  0
 17 18  2  0
  9 19  1  0
 19 20  2  0
 20 21  1  0
 21 22  2  0
 22 23  1  0
 22 24  1  0
 24 25  2  0
  8  4  1  0
 15 10  1  0
 25 19  1  0
 17  7  1  0
  1 26  1  0
  1 27  1  0
  1 28  1  0
  2 29  1  0
  2 30  1  0
  3 31  1  0
  3 32  1  0
  4 33  1  0
  5 34  1  0
  5 35  1  0
  6 36  1  0
  6 37  1  0
  8 38  1  0
  8 39  1  0
 11 40  1  0
 12 41  1  0
 13 42  1  0
 14 43  1  0
 16 44  1  0
 16 45  1  0
 20 46  1  0
 21 47  1  0
 23 48  1  0
 24 49  1  0
 25 50  1  0
M  END
$$$$
[H]OC([H])([H])[C@@]1(O[H])C([H])([H])[C@@]2([H])O[C@]1(C([H])([H])[H])n1c3c([H])c([H])c([H])c([H])c3c3c4c(c5c6c([H])c([H])c([H])c([H])c6n2c5c31)C(=O)N([H])C4([H])[H]
     RDKit          3D

 54 61  0  0  0  0  0  0  0  0999 V2000
    3.1800    0.8838    1.3878 C   0  0  0  0  0  0  0  0  0  0  0  0
    2.1176    0.2237    0.5774 C   0  0  2  0  0  0  0  0  0  0  0  0
    1.6968   -0.7870    1.4854 O   0  0  0  0  0  0  0  0  0  0  0  0
    1.2511   -1.8639    0.7986 C   0  0  2  0  0  0  0  0  0  0  0  0
    2.0328   -1.9517   -0.4419 C   0  0  0  0  0  0  0  0  0  0  0  0
    2.6347   -0.5714   -0.5849 C   0  0  1  0  0  0  0  0  0  0  0  0
    2.2138   -0.0799   -1.8115 O   0  0  0  0  0  0  0  0  0  0  0  0
    4.1191   -0.7109   -0.6110 C   0  0  0  0  0  0  0  0  0  0  0  0
    4.4589   -1.5975   -1.6334 O   0  0  0  0  0  0  0  0  0  0  0  0
   -0.2014   -1.7853    0.5955 N   0  0  0  0  0  0  0  0  0  0  0  0
   -1.1044   -2.7499    0.6347 C   0  0  0  0  0  0  0  0  0  0  0  0
   -0.9179   -4.0868    0.8734 C   0  0  0  0  0  0  0  0  0  0  0  0
   -2.0299   -4.9199    0.8648 C   0  0  0  0  0  0  0  0  0  0  0  0
   -3.2823   -4.4161    0.6235 C   0  0  0  0  0  0  0  0  0  0  0  0
   -3.4758   -3.0511    0.3794 C   0  0  0  0  0  0  0  0  0  0  0  0
   -2.3768   -2.2421    0.3902 C   0  0  0  0  0  0  0  0  0  0  0  0
   -2.2053   -0.8905    0.1945 C   0  0  0  0  0  0  0  0  0  0  0  0
   -3.0670    0.1511   -0.0975 C   0  0  0  0  0  0  0  0  0  0  0  0
   -4.5001    0.2660   -0.2996 C   0  0  0  0  0  0  0  0  0  0  0  0
   -5.3884   -0.5871   -0.2658 O   0  0  0  0  0  0  0  0  0  0  0  0
   -4.7851    1.6416   -0.5724 N   0  0  0  0  0  0  0  0  0  0  0  0
   -3.5735    2.4248   -0.5610 C   0  0  0  0  0  0  0  0  0  0  0  0
   -2.5314    1.4168   -0.2472 C   0  0  0  0  0  0  0  0  0  0  0  0
   -1.1701    1.6669   -0.1133 C   0  0  0  0  0  0  0  0  0  0  0  0
   -0.3770    2.7657   -0.2198 C   0  0  0  0  0  0  0  0  0  0  0  0
   -0.7006    4.0705   -0.5126 C   0  0  0  0  0  0  0  0  0  0  0  0
    0.3203    5.0230   -0.5829 C   0  0  0  0  0  0  0  0  0  0  0  0
    1.6233    4.6180   -0.3553 C   0  0  0  0  0  0  0  0  0  0  0  0
    1.9232    3.2989   -0.0625 C   0  0  0  0  0  0  0  0  0  0  0  0
    0.9354    2.3466    0.0129 C   0  0  0  0  0  0  0  0  0  0  0  0
    0.9590    1.0103    0.2643 N   0  0  0  0  0  0  0  0  0  0  0  0
   -0.3578    0.6223    0.1746 C   0  0  0  0  0  0  0  0  0  0  0  0
   -0.8544   -0.6533    0.3299 C   0  0  0  0  0  0  0  0  0  0  0  0
    4.0624    1.2462    0.8471 H   0  0  0  0  0  0  0  0  0  0  0  0
    3.5596    0.1949    2.1815 H   0  0  0  0  0  0  0  0  0  0  0  0
    2.7312    1.7230    1.9466 H   0  0  0  0  0  0  0  0  0  0  0  0
    1.4219   -2.7643    1.4120 H   0  0  0  0  0  0  0  0  0  0  0  0
    1.4720   -2.2700   -1.3403 H   0  0  0  0  0  0  0  0  0  0  0  0
    2.8377   -2.7359   -0.3258 H   0  0  0  0  0  0  0  0  0  0  0  0
    2.8799   -0.3390   -2.4928 H   0  0  0  0  0  0  0  0  0  0  0  0
    4.5238   -1.1579    0.3296 H   0  0  0  0  0  0  0  0  0  0  0  0
    4.6358    0.2581   -0.8438 H   0  0  0  0  0  0  0  0  0  0  0  0
    4.7979   -2.4633   -1.2908 H   0  0  0  0  0  0  0  0  0  0  0  0
    0.0592   -4.4684    1.0598 H   0  0  0  0  0  0  0  0  0  0  0  0
   -1.8569   -5.9719    1.0560 H   0  0  0  0  0  0  0  0  0  0  0  0
   -4.1224   -5.0759    0.6219 H   0  0  0  0  0  0  0  0  0  0  0  0
   -4.4721   -2.7398    0.2018 H   0  0  0  0  0  0  0  0  0  0  0  0
   -5.7336    2.0654   -0.7610 H   0  0  0  0  0  0  0  0  0  0  0  0
   -3.6366    3.2333    0.1993 H   0  0  0  0  0  0  0  0  0  0  0  0
   -3.3846    2.8954   -1.5673 H   0  0  0  0  0  0  0  0  0  0  0  0
   -1.7294    4.3700   -0.6881 H   0  0  0  0  0  0  0  0  0  0  0  0
    0.0587    6.0490   -0.8135 H   0  0  0  0  0  0  0  0  0  0  0  0
    2.3774    5.3965   -0.4223 H   0  0  0  0  0  0  0  0  0  0  0  0
    2.9510    3.0689    0.0761 H   0  0  0  0  0  0  0  0  0  0  0  0
  2  1  1  1
  2  3  1  0
  3  4  1  0
  4  5  1  0
  5  6  1  0
  6  7  1  6
  6  8  1  0
  8  9  1  0
  4 10  1  0
 10 11  1  0
 11 12  2  0
 12 13  1  0
 13 14  2  0
 14 15  1  0
 15 16  2  0
 16 17  1  0
 17 18  2  0
 18 19  1  0
 19 20  2  0
 19 21  1  0
 21 22  1  0
 22 23  1  0
 23 24  2  0
 24 25  1  0
 25 26  2  0
 26 27  1  0
 27 28  2  0
 28 29  1  0
 29 30  2  0
 30 31  1  0
 31 32  1  0
 32 33  2  0
  6  2  1  0
 33 10  1  0
 31  2  1  0
 16 11  1  0
 33 17  1  0
 23 18  1  0
 32 24  1  0
 30 25  1  0
  1 34  1  0
  1 35  1  0
  1 36  1  0
  4 37  1  1
  5 38  1  0
  5 39  1  0
  7 40  1  0
  8 41  1  0
  8 42  1  0
  9 43  1  0
 12 44  1  0
 13 45  1  0
 14 46  1  0
 15 47  1  0
 21 48  1  0
 22 49  1  0
 22 50  1  0
 26 51  1  0
 27 52  1  0
 28 53  1  0
 29 54  1  0
M  END
$$$$
[H]c1c([H])c(C([H])([H])C([H])([H])C2([H])C([H])([H])C([H])([H])N(C([H])([H])C([H])([H])F)C([H])([H])C2([H])[H])c2c(OC([H])([H])[H])c([H])c(OC([H])([H])[H])nc2c1[H]
     RDKit          3D

 52 54  0  0  0  0  0  0  0  0999 V2000
    7.6986    0.6792   -0.4380 C   0  0  0  0  0  0  0  0  0  0  0  0
    6.5191    1.3137   -0.8879 O   0  0  0  0  0  0  0  0  0  0  0  0
    5.2935    0.7629   -0.5223 C   0  0  0  0  0  0  0  0  0  0  0  0
    4.1061    1.3555   -0.9445 C   0  0  0  0  0  0  0  0  0  0  0  0
    2.8805    0.8307   -0.5975 C   0  0  0  0  0  0  0  0  0  0  0  0
    1.7214    1.4247   -1.0205 O   0  0  0  0  0  0  0  0  0  0  0  0
    1.6736    2.5811   -1.8169 C   0  0  0  0  0  0  0  0  0  0  0  0
    2.8317   -0.2991    0.1800 C   0  0  0  0  0  0  0  0  0  0  0  0
    1.6391   -0.9059    0.5842 C   0  0  0  0  0  0  0  0  0  0  0  0
    0.3563   -0.2949    0.1449 C   0  0  0  0  0  0  0  0  0  0  0  0
   -0.7621   -1.1501    0.7588 C   0  0  0  0  0  0  0  0  0  0  0  0
   -2.1198   -0.6414    0.3739 C   0  0  0  0  0  0  0  0  0  0  0  0
   -2.4388    0.7510    0.7754 C   0  0  0  0  0  0  0  0  0  0  0  0
   -3.8124    1.1336    0.2736 C   0  0  0  0  0  0  0  0  0  0  0  0
   -4.5338    0.1052   -0.3424 N   0  0  0  0  0  0  0  0  0  0  0  0
   -5.6630   -0.4509    0.2756 C   0  0  0  0  0  0  0  0  0  0  0  0
   -6.8721    0.4892    0.3544 C   0  0  0  0  0  0  0  0  0  0  0  0
   -7.9263   -0.1440    0.9754 F   0  0  0  0  0  0  0  0  0  0  0  0
   -3.8775   -0.6392   -1.3616 C   0  0  0  0  0  0  0  0  0  0  0  0
   -2.3918   -0.8054   -1.0970 C   0  0  0  0  0  0  0  0  0  0  0  0
    1.6813   -2.0463    1.3719 C   0  0  0  0  0  0  0  0  0  0  0  0
    2.8600   -2.6295    1.7897 C   0  0  0  0  0  0  0  0  0  0  0  0
    4.0303   -2.0328    1.3915 C   0  0  0  0  0  0  0  0  0  0  0  0
    4.0239   -0.9018    0.6100 C   0  0  0  0  0  0  0  0  0  0  0  0
    5.1865   -0.3316    0.2306 N   0  0  0  0  0  0  0  0  0  0  0  0
    8.5896    1.3104   -0.6829 H   0  0  0  0  0  0  0  0  0  0  0  0
    7.8501   -0.3108   -0.8745 H   0  0  0  0  0  0  0  0  0  0  0  0
    7.7097    0.5674    0.6708 H   0  0  0  0  0  0  0  0  0  0  0  0
    4.1926    2.2337   -1.5537 H   0  0  0  0  0  0  0  0  0  0  0  0
    1.6501    2.3201   -2.8894 H   0  0  0  0  0  0  0  0  0  0  0  0
    0.6928    3.0810   -1.5632 H   0  0  0  0  0  0  0  0  0  0  0  0
    2.4703    3.3117   -1.6016 H   0  0  0  0  0  0  0  0  0  0  0  0
    0.1756    0.6926    0.6181 H   0  0  0  0  0  0  0  0  0  0  0  0
    0.1505   -0.3717   -0.9208 H   0  0  0  0  0  0  0  0  0  0  0  0
   -0.6524   -2.1648    0.3063 H   0  0  0  0  0  0  0  0  0  0  0  0
   -0.7215   -1.1956    1.8459 H   0  0  0  0  0  0  0  0  0  0  0  0
   -2.8931   -1.2976    0.8805 H   0  0  0  0  0  0  0  0  0  0  0  0
   -2.4924    0.8286    1.8938 H   0  0  0  0  0  0  0  0  0  0  0  0
   -1.6740    1.4715    0.4114 H   0  0  0  0  0  0  0  0  0  0  0  0
   -4.4121    1.6388    1.0521 H   0  0  0  0  0  0  0  0  0  0  0  0
   -3.6478    1.9362   -0.5095 H   0  0  0  0  0  0  0  0  0  0  0  0
   -5.4838   -0.8640    1.2977 H   0  0  0  0  0  0  0  0  0  0  0  0
   -6.0066   -1.3207   -0.3189 H   0  0  0  0  0  0  0  0  0  0  0  0
   -6.5855    1.3398    0.9734 H   0  0  0  0  0  0  0  0  0  0  0  0
   -7.2228    0.7543   -0.6622 H   0  0  0  0  0  0  0  0  0  0  0  0
   -4.0805   -0.1647   -2.3438 H   0  0  0  0  0  0  0  0  0  0  0  0
   -4.3204   -1.6539   -1.3960 H   0  0  0  0  0  0  0  0  0  0  0  0
   -1.8728    0.0066   -1.6402 H   0  0  0  0  0  0  0  0  0  0  0  0
   -2.0279   -1.8067   -1.4210 H   0  0  0  0  0  0  0  0  0  0  0  0
    0.7473   -2.4935    1.6654 H   0  0  0  0  0  0  0  0  0  0  0  0
    2.7991   -3.5060    2.3939 H   0  0  0  0  0  0  0  0  0  0  0  0
    4.9618   -2.4965    1.7230 H   0  0  0  0  0  0  0  0  0  0  0  0
  1  2  1  0
  2  3  1  0
  3  4  2  0
  4  5  1  0
  5  6  1  0
  6  7  1  0
  5  8  2  0
  8  9  1  0
  9 10  1  0
 10 11  1  0
 11 12  1  0
 12 13  1  0
 13 14  1  0
 14 15  1  0
 15 16  1  0
 16 17  1  0
 17 18  1  0
 15 19  1  0
 19 20  1  0
  9 21  2  0
 21 22  1  0
 22 23  2  0
 23 24  1  0
 24 25  2  0
 25  3  1  0
 24  8  1  0
 20 12  1  0
  1 26  1  0
  1 27  1  0
  1 28  1  0
  4 29  1  0
  7 30  1  0
  7 31  1  0
  7 32  1  0
 10 33  1  0
 10 34  1  0
 11 35  1  0
 11 36  1  0
 12 37  1  0
 13 38  1  0
 13 39  1  0
 14 40  1  0
 14 41  1  0
 16 42  1  0
 16 43  1  0
 17 44  1  0
 17 45  1  0
 19 46  1  0
 19 47  1  0
 20 48  1  0
 20 49  1  0
 21 50  1  0
 22 51  1  0
 23 52  1  0
M  END
$$$$
[H]c1c(N2C([H])([H])C3(C([H])([H])OC3([H])[H])C2([H])[H])nc(-c2c(C([H])([H])[H])nc(C([H])([H])[H])c([H])c2[H])nc1N1C([H])([H])C([H])([H])OC([H])([H])[C@@]1([H])C([H])([H])[H]
     RDKit          3D

 55 59  0  0  0  0  0  0  0  0999 V2000
    0.6828   -3.8322   -0.8680 C   0  0  0  0  0  0  0  0  0  0  0  0
   -0.7620   -3.9113   -0.5425 C   0  0  2  0  0  0  0  0  0  0  0  0
   -1.5639   -4.5879   -1.6482 C   0  0  0  0  0  0  0  0  0  0  0  0
   -2.8961   -4.5957   -1.3258 O   0  0  0  0  0  0  0  0  0  0  0  0
   -3.4252   -3.3028   -1.1490 C   0  0  0  0  0  0  0  0  0  0  0  0
   -2.7955   -2.8169    0.1633 C   0  0  0  0  0  0  0  0  0  0  0  0
   -1.3824   -2.6733   -0.1325 N   0  0  0  0  0  0  0  0  0  0  0  0
   -0.7330   -1.4230    0.0046 C   0  0  0  0  0  0  0  0  0  0  0  0
   -1.4690   -0.2359   -0.0660 C   0  0  0  0  0  0  0  0  0  0  0  0
   -0.8672    0.9983    0.0818 C   0  0  0  0  0  0  0  0  0  0  0  0
    0.4539    0.9989    0.2955 N   0  0  0  0  0  0  0  0  0  0  0  0
    1.2163   -0.0898    0.3743 C   0  0  0  0  0  0  0  0  0  0  0  0
    0.5830   -1.2701    0.2236 N   0  0  0  0  0  0  0  0  0  0  0  0
    2.6753   -0.0497    0.6114 C   0  0  0  0  0  0  0  0  0  0  0  0
    3.3657   -1.2427    0.7132 C   0  0  0  0  0  0  0  0  0  0  0  0
    4.7201   -1.2171    0.9282 C   0  0  0  0  0  0  0  0  0  0  0  0
    5.3940   -0.0232    1.0429 C   0  0  0  0  0  0  0  0  0  0  0  0
    6.8671    0.0117    1.2767 C   0  0  0  0  0  0  0  0  0  0  0  0
    4.6763    1.0983    0.9363 N   0  0  0  0  0  0  0  0  0  0  0  0
    3.3383    1.1407    0.7243 C   0  0  0  0  0  0  0  0  0  0  0  0
    2.6465    2.4731    0.6223 C   0  0  0  0  0  0  0  0  0  0  0  0
   -1.6202    2.1972    0.0090 N   0  0  0  0  0  0  0  0  0  0  0  0
   -1.3528    3.6198    0.1079 C   0  0  0  0  0  0  0  0  0  0  0  0
   -2.7601    3.8820   -0.1869 C   0  0  0  0  0  0  0  0  0  0  0  0
   -3.1445    4.7470   -1.3194 C   0  0  0  0  0  0  0  0  0  0  0  0
   -3.6996    5.6412   -0.3957 O   0  0  0  0  0  0  0  0  0  0  0  0
   -3.5476    4.7820    0.6947 C   0  0  0  0  0  0  0  0  0  0  0  0
   -3.0308    2.4505   -0.2059 C   0  0  0  0  0  0  0  0  0  0  0  0
    1.2507   -3.8556    0.0789 H   0  0  0  0  0  0  0  0  0  0  0  0
    0.9798   -3.0695   -1.5848 H   0  0  0  0  0  0  0  0  0  0  0  0
    0.9411   -4.8152   -1.3670 H   0  0  0  0  0  0  0  0  0  0  0  0
   -0.8620   -4.6054    0.3444 H   0  0  0  0  0  0  0  0  0  0  0  0
   -1.2209   -5.6422   -1.6668 H   0  0  0  0  0  0  0  0  0  0  0  0
   -1.3809   -4.1056   -2.6368 H   0  0  0  0  0  0  0  0  0  0  0  0
   -4.5092   -3.3516   -1.0859 H   0  0  0  0  0  0  0  0  0  0  0  0
   -3.0994   -2.6746   -1.9838 H   0  0  0  0  0  0  0  0  0  0  0  0
   -2.8767   -3.7132    0.8536 H   0  0  0  0  0  0  0  0  0  0  0  0
   -3.2786   -1.9468    0.5869 H   0  0  0  0  0  0  0  0  0  0  0  0
   -2.5289   -0.3221   -0.2479 H   0  0  0  0  0  0  0  0  0  0  0  0
    2.8452   -2.1646    0.6276 H   0  0  0  0  0  0  0  0  0  0  0  0
    5.2868   -2.1396    1.0120 H   0  0  0  0  0  0  0  0  0  0  0  0
    7.3224    0.4518    0.3669 H   0  0  0  0  0  0  0  0  0  0  0  0
    7.0835    0.6976    2.1121 H   0  0  0  0  0  0  0  0  0  0  0  0
    7.2229   -1.0200    1.4651 H   0  0  0  0  0  0  0  0  0  0  0  0
    2.2134    2.6576   -0.3660 H   0  0  0  0  0  0  0  0  0  0  0  0
    3.4528    3.2648    0.7823 H   0  0  0  0  0  0  0  0  0  0  0  0
    1.9411    2.6568    1.4432 H   0  0  0  0  0  0  0  0  0  0  0  0
   -0.9503    3.9672    1.0689 H   0  0  0  0  0  0  0  0  0  0  0  0
   -0.6450    3.8928   -0.7215 H   0  0  0  0  0  0  0  0  0  0  0  0
   -2.3427    5.1839   -1.9440 H   0  0  0  0  0  0  0  0  0  0  0  0
   -3.9551    4.3193   -1.9404 H   0  0  0  0  0  0  0  0  0  0  0  0
   -4.5320    4.3313    0.9402 H   0  0  0  0  0  0  0  0  0  0  0  0
   -2.9824    5.2019    1.5503 H   0  0  0  0  0  0  0  0  0  0  0  0
   -3.6441    1.9908    0.5884 H   0  0  0  0  0  0  0  0  0  0  0  0
   -3.3010    2.0414   -1.2237 H   0  0  0  0  0  0  0  0  0  0  0  0
  1  2  1  0
  2  3  1  0
  3  4  1  0
  4  5  1  0
  5  6  1  0
  6  7  1  0
  7  8  1  0
  8  9  2  0
  9 10  1  0
 10 11  2  0
 11 12  1  0
 12 13  2  0
 12 14  1  0
 14 15  2  0
 15 16  1  0
 16 17  2  0
 17 18  1  0
 17 19  1  0
 19 20  2  0
 20 21  1  0
 10 22  1  0
 22 23  1  0
 23 24  1  0
 24 25  1  0
 25 26  1  0
 26 27  1  0
 24 28  1  0
  7  2  1  0
 13  8  1  0
 20 14  1  0
 28 22  1  0
 27 24  1  0
  1 29  1  0
  1 30  1  0
  1 31  1  0
  2 32  1  1
  3 33  1  0
  3 34  1  0
  5 35  1  0
  5 36  1  0
  6 37  1  0
  6 38  1  0
  9 39  1  0
 15 40  1  0
 16 41  1  0
 18 42  1  0
 18 43  1  0
 18 44  1  0
 21 45  1  0
 21 46  1  0
 21 47  1  0
 23 48  1  0
 23 49  1  0
 25 50  1  0
 25 51  1  0
 27 52  1  0
 27 53  1  0
 28 54  1  0
 28 55  1  0
M  END
$$$$
[H]C1=C(C([H])([H])[H])C([H])([H])C([H])([H])C([H])(C([H])([H])[H])C12N=C(C([H])([H])C([H])([H])[H])c1c(OC([H])([H])C(=O)N([H])c3c([H])c([H])c(C(=O)N(C([H])([H])C([H])([H])F)C([H])([H])C([H])([H])C([H])([H])OC([H])([H])[H])c([H])c3[H])c([H])c([H])c([H])c12
     RDKit          3D

 80 83  0  0  0  0  0  0  0  0999 V2000
   -5.1791    2.2855   -2.7061 C   0  0  0  0  0  0  0  0  0  0  0  0
   -4.9164    0.8683   -2.2187 C   0  0  0  0  0  0  0  0  0  0  0  0
   -4.9440    0.7654   -0.7232 C   0  0  0  0  0  0  0  0  0  0  0  0
   -5.8576    0.1740   -0.0302 N   0  0  0  0  0  0  0  0  0  0  0  0
   -5.5882    0.2558    1.3734 C   0  0  0  0  0  0  0  0  0  0  0  0
   -6.7969    0.8499    2.0574 C   0  0  0  0  0  0  0  0  0  0  0  0
   -7.1829    2.1812    1.4536 C   0  0  0  0  0  0  0  0  0  0  0  0
   -7.9866   -0.0370    2.0979 C   0  0  0  0  0  0  0  0  0  0  0  0
   -7.7281   -1.5025    2.0385 C   0  0  0  0  0  0  0  0  0  0  0  0
   -6.3209   -1.9176    2.2377 C   0  0  0  0  0  0  0  0  0  0  0  0
   -6.0705   -3.2789    2.7896 C   0  0  0  0  0  0  0  0  0  0  0  0
   -5.3043   -1.1084    1.9335 C   0  0  0  0  0  0  0  0  0  0  0  0
   -4.3782    1.1027    1.4652 C   0  0  0  0  0  0  0  0  0  0  0  0
   -3.6210    1.6016    2.4927 C   0  0  0  0  0  0  0  0  0  0  0  0
   -2.4874    2.3509    2.2639 C   0  0  0  0  0  0  0  0  0  0  0  0
   -2.0931    2.6092    0.9790 C   0  0  0  0  0  0  0  0  0  0  0  0
   -2.8151    2.1311   -0.0986 C   0  0  0  0  0  0  0  0  0  0  0  0
   -2.4572    2.3644   -1.3863 O   0  0  0  0  0  0  0  0  0  0  0  0
   -1.4258    3.0140   -2.0046 C   0  0  0  0  0  0  0  0  0  0  0  0
   -0.0839    2.4591   -1.8109 C   0  0  0  0  0  0  0  0  0  0  0  0
    0.9118    3.0967   -2.3006 O   0  0  0  0  0  0  0  0  0  0  0  0
    0.1486    1.2689   -1.1164 N   0  0  0  0  0  0  0  0  0  0  0  0
    1.4351    0.7167   -0.9214 C   0  0  0  0  0  0  0  0  0  0  0  0
    2.3668    0.7224   -1.9025 C   0  0  0  0  0  0  0  0  0  0  0  0
    3.6473    0.2081   -1.7022 C   0  0  0  0  0  0  0  0  0  0  0  0
    3.9819   -0.3170   -0.4881 C   0  0  0  0  0  0  0  0  0  0  0  0
    3.0089   -0.3222    0.5372 C   0  0  0  0  0  0  0  0  0  0  0  0
    1.7717    0.1894    0.2959 C   0  0  0  0  0  0  0  0  0  0  0  0
    5.2448   -0.9152   -0.1564 C   0  0  0  0  0  0  0  0  0  0  0  0
    5.3784   -1.2114    1.1498 O   0  0  0  0  0  0  0  0  0  0  0  0
    6.3270   -1.2387   -0.9369 N   0  0  0  0  0  0  0  0  0  0  0  0
    6.5644   -1.0940   -2.3156 C   0  0  0  0  0  0  0  0  0  0  0  0
    5.9712   -2.3316   -3.0157 C   0  0  0  0  0  0  0  0  0  0  0  0
    6.1613   -2.2656   -4.3819 F   0  0  0  0  0  0  0  0  0  0  0  0
    7.5431   -1.8431   -0.1961 C   0  0  0  0  0  0  0  0  0  0  0  0
    8.4277   -0.7316    0.1678 C   0  0  0  0  0  0  0  0  0  0  0  0
    9.6394   -0.9890    0.9593 C   0  0  0  0  0  0  0  0  0  0  0  0
   10.5627   -1.8216    0.5013 O   0  0  0  0  0  0  0  0  0  0  0  0
   10.3564   -3.1441    0.5033 C   0  0  0  0  0  0  0  0  0  0  0  0
   -3.9733    1.3713    0.1770 C   0  0  0  0  0  0  0  0  0  0  0  0
   -4.4417    2.6615   -3.4139 H   0  0  0  0  0  0  0  0  0  0  0  0
   -5.2087    2.9450   -1.8191 H   0  0  0  0  0  0  0  0  0  0  0  0
   -6.2281    2.3596   -3.1232 H   0  0  0  0  0  0  0  0  0  0  0  0
   -5.6677    0.2308   -2.6916 H   0  0  0  0  0  0  0  0  0  0  0  0
   -3.9252    0.5714   -2.6088 H   0  0  0  0  0  0  0  0  0  0  0  0
   -6.4819    1.0424    3.1102 H   0  0  0  0  0  0  0  0  0  0  0  0
   -6.5105    2.4607    0.5918 H   0  0  0  0  0  0  0  0  0  0  0  0
   -7.1047    3.0204    2.1753 H   0  0  0  0  0  0  0  0  0  0  0  0
   -8.1950    2.0978    1.0247 H   0  0  0  0  0  0  0  0  0  0  0  0
   -8.6884    0.2148    2.9364 H   0  0  0  0  0  0  0  0  0  0  0  0
   -8.5873    0.2254    1.1666 H   0  0  0  0  0  0  0  0  0  0  0  0
   -8.3875   -1.9946    2.8329 H   0  0  0  0  0  0  0  0  0  0  0  0
   -8.1334   -1.9637    1.0817 H   0  0  0  0  0  0  0  0  0  0  0  0
   -6.9041   -3.6066    3.4185 H   0  0  0  0  0  0  0  0  0  0  0  0
   -5.1652   -3.1924    3.4700 H   0  0  0  0  0  0  0  0  0  0  0  0
   -5.8774   -4.0384    1.9945 H   0  0  0  0  0  0  0  0  0  0  0  0
   -4.3014   -1.4132    2.0750 H   0  0  0  0  0  0  0  0  0  0  0  0
   -3.9192    1.4099    3.5203 H   0  0  0  0  0  0  0  0  0  0  0  0
   -1.8951    2.7414    3.1050 H   0  0  0  0  0  0  0  0  0  0  0  0
   -1.2001    3.1942    0.8018 H   0  0  0  0  0  0  0  0  0  0  0  0
   -1.5802    2.9980   -3.1385 H   0  0  0  0  0  0  0  0  0  0  0  0
   -1.4183    4.1279   -1.7923 H   0  0  0  0  0  0  0  0  0  0  0  0
   -0.6375    0.6770   -0.7119 H   0  0  0  0  0  0  0  0  0  0  0  0
    2.1333    1.1294   -2.8737 H   0  0  0  0  0  0  0  0  0  0  0  0
    4.3278    0.2467   -2.5121 H   0  0  0  0  0  0  0  0  0  0  0  0
    3.1946   -0.7214    1.5206 H   0  0  0  0  0  0  0  0  0  0  0  0
    1.0345    0.1738    1.1145 H   0  0  0  0  0  0  0  0  0  0  0  0
    6.2925   -0.1595   -2.7746 H   0  0  0  0  0  0  0  0  0  0  0  0
    7.7006   -1.2519   -2.5437 H   0  0  0  0  0  0  0  0  0  0  0  0
    4.9013   -2.4340   -2.7890 H   0  0  0  0  0  0  0  0  0  0  0  0
    6.5327   -3.1960   -2.6170 H   0  0  0  0  0  0  0  0  0  0  0  0
    7.1008   -2.3595    0.6499 H   0  0  0  0  0  0  0  0  0  0  0  0
    7.9709   -2.5021   -0.9585 H   0  0  0  0  0  0  0  0  0  0  0  0
    7.7652    0.0222    0.7295 H   0  0  0  0  0  0  0  0  0  0  0  0
    8.6812   -0.1644   -0.7856 H   0  0  0  0  0  0  0  0  0  0  0  0
    9.3379   -1.2933    2.0480 H   0  0  0  0  0  0  0  0  0  0  0  0
   10.1592    0.0119    1.1749 H   0  0  0  0  0  0  0  0  0  0  0  0
   11.2460   -3.7243    0.0766 H   0  0  0  0  0  0  0  0  0  0  0  0
   10.3888   -3.4745    1.6010 H   0  0  0  0  0  0  0  0  0  0  0  0
    9.4532   -3.5894    0.1278 H   0  0  0  0  0  0  0  0  0  0  0  0
  1  2  1  0
  2  3  1  0
  3  4  2  0
  4  5  1  0
  5  6  1  0
  6  7  1  0
  6  8  1  0
  8  9  1  0
  9 10  1  0
 10 11  1  0
 10 12  2  0
  5 13  1  0
 13 14  2  0
 14 15  1  0
 15 16  2  0
 16 17  1  0
 17 18  1  0
 18 19  1  0
 19 20  1  0
 20 21  2  0
 20 22  1  0
 22 23  1  0
 23 24  2  0
 24 25  1  0
 25 26  2  0
 26 27  1  0
 27 28  2  0
 26 29  1  0
 29 30  2  0
 29 31  1  0
 31 32  1  0
 32 33  1  0
 33 34  1  0
 31 35  1  0
 35 36  1  0
 36 37  1  0
 37 38  1  0
 38 39  1  0
 17 40  2  0
 40  3  1  0
 12  5  1  0
 40 13  1  0
 28 23  1  0
  1 41  1  0
  1 42  1  0
  1 43  1  0
  2 44  1  0
  2 45  1  0
  6 46  1  0
  7 47  1  0
  7 48  1  0
  7 49  1  0
  8 50  1  0
  8 51  1  0
  9 52  1  0
  9 53  1  0
 11 54  1  0
 11 55  1  0
 11 56  1  0
 12 57  1  0
 14 58  1  0
 15 59  1  0
 16 60  1  0
 19 61  1  0
 19 62  1  0
 22 63  1  0
 24 64  1  0
 25 65  1  0
 27 66  1  0
 28 67  1  0
 32 68  1  0
 32 69  1  0
 33 70  1  0
 33 71  1  0
 35 72  1  0
 35 73  1  0
 36 74  1  0
 36 75  1  0
 37 76  1  0
 37 77  1  0
 39 78  1  0
 39 79  1  0
 39 80  1  0
M  END
$$$$
[H]c1c(C(=O)N2C([H])([H])C3([H])C([H])([H])N([H])C([H])([H])C([H])(C2([H])[H])C3([H])[H])oc(C([H])([H])[H])c1[H]
     RDKit          3D

 35 37  0  0  0  0  0  0  0  0999 V2000
    4.6483   -0.4523    1.6532 C   0  0  0  0  0  0  0  0  0  0  0  0
    3.8910   -0.3782    0.3816 C   0  0  0  0  0  0  0  0  0  0  0  0
    4.4582   -0.5037   -0.8881 C   0  0  0  0  0  0  0  0  0  0  0  0
    3.3762   -0.3674   -1.7428 C   0  0  0  0  0  0  0  0  0  0  0  0
    2.2312   -0.1715   -1.0053 C   0  0  0  0  0  0  0  0  0  0  0  0
    2.6211   -0.1911    0.2418 O   0  0  0  0  0  0  0  0  0  0  0  0
    0.8916    0.0143   -1.5308 C   0  0  0  0  0  0  0  0  0  0  0  0
    0.7593   -0.0012   -2.7963 O   0  0  0  0  0  0  0  0  0  0  0  0
   -0.2602    0.2098   -0.7178 N   0  0  0  0  0  0  0  0  0  0  0  0
   -1.5467    0.3913   -1.3543 C   0  0  0  0  0  0  0  0  0  0  0  0
   -2.5581   -0.5648   -0.8101 C   0  0  0  0  0  0  0  0  0  0  0  0
   -3.7961    0.2811   -0.4737 C   0  0  0  0  0  0  0  0  0  0  0  0
   -3.3686    1.3796    0.2872 N   0  0  0  0  0  0  0  0  0  0  0  0
   -2.4655    1.1948    1.3324 C   0  0  0  0  0  0  0  0  0  0  0  0
   -1.5981    0.0006    1.3196 C   0  0  0  0  0  0  0  0  0  0  0  0
   -2.1524   -1.1737    0.5257 C   0  0  0  0  0  0  0  0  0  0  0  0
   -0.2040    0.2364    0.7279 C   0  0  0  0  0  0  0  0  0  0  0  0
    3.9282   -0.6009    2.4866 H   0  0  0  0  0  0  0  0  0  0  0  0
    5.2605    0.4307    1.8516 H   0  0  0  0  0  0  0  0  0  0  0  0
    5.2935   -1.3752    1.6523 H   0  0  0  0  0  0  0  0  0  0  0  0
    5.4880   -0.6654   -1.0924 H   0  0  0  0  0  0  0  0  0  0  0  0
    3.4798   -0.4173   -2.8339 H   0  0  0  0  0  0  0  0  0  0  0  0
   -1.4622    0.1810   -2.4421 H   0  0  0  0  0  0  0  0  0  0  0  0
   -1.8357    1.4672   -1.2466 H   0  0  0  0  0  0  0  0  0  0  0  0
   -2.8241   -1.3872   -1.4949 H   0  0  0  0  0  0  0  0  0  0  0  0
   -4.4712   -0.4129    0.0854 H   0  0  0  0  0  0  0  0  0  0  0  0
   -4.2476    0.6066   -1.4254 H   0  0  0  0  0  0  0  0  0  0  0  0
   -3.5147    2.3151   -0.0855 H   0  0  0  0  0  0  0  0  0  0  0  0
   -1.7959    2.1017    1.3997 H   0  0  0  0  0  0  0  0  0  0  0  0
   -3.0327    1.2234    2.3101 H   0  0  0  0  0  0  0  0  0  0  0  0
   -1.4241   -0.3524    2.3591 H   0  0  0  0  0  0  0  0  0  0  0  0
   -1.3560   -1.9123    0.4165 H   0  0  0  0  0  0  0  0  0  0  0  0
   -3.0540   -1.5457    1.0537 H   0  0  0  0  0  0  0  0  0  0  0  0
    0.3696   -0.6958    1.0184 H   0  0  0  0  0  0  0  0  0  0  0  0
    0.2715    1.1359    1.1359 H   0  0  0  0  0  0  0  0  0  0  0  0
  1  2  1  0
  2  3  2  0
  3  4  1  0
  4  5  2  0
  5  6  1  0
  5  7  1  0
  7  8  2  0
  7  9  1  0
  9 10  1  0
 10 11  1  0
 11 12  1  0
 12 13  1  0
 13 14  1  0
 14 15  1  0
 15 16  1  0
 15 17  1  0
  6  2  1  0
 17  9  1  0
 16 11  1  0
  1 18  1  0
  1 19  1  0
  1 20  1  0
  3 21  1  0
  4 22  1  0
 10 23  1  0
 10 24  1  0
 11 25  1  0
 12 26  1  0
 12 27  1  0
 13 28  1  0
 14 29  1  0
 14 30  1  0
 15 31  1  0
 16 32  1  0
 16 33  1  0
 17 34  1  0
 17 35  1  0
M  END
$$$$
[H]c1nc2c(nnn2[H])c(N2C([H])([H])C3(OC([H])([H])C([H])([H])N(C(=O)N([H])c4c([H])c([H])c(Oc5c([H])c([H])c([H])c([H])c5[H])c(Cl)c4[H])C3([H])[H])C2([H])[H])c1[H]
     RDKit          3D

 57 62  0  0  0  0  0  0  0  0999 V2000
    6.0903   -2.2511   -1.4280 Cl  0  0  0  0  0  0  0  0  0  0  0  0
    4.8567   -1.0053   -1.1639 C   0  0  0  0  0  0  0  0  0  0  0  0
    3.5794   -1.3475   -0.8162 C   0  0  0  0  0  0  0  0  0  0  0  0
    2.5311   -0.4419   -0.6102 C   0  0  0  0  0  0  0  0  0  0  0  0
    1.2505   -0.9314   -0.2344 N   0  0  0  0  0  0  0  0  0  0  0  0
    0.0392   -0.2218   -0.2659 C   0  0  0  0  0  0  0  0  0  0  0  0
   -0.0598    0.9576   -0.6439 O   0  0  0  0  0  0  0  0  0  0  0  0
   -1.1720   -0.8793    0.1603 N   0  0  0  0  0  0  0  0  0  0  0  0
   -1.0980   -2.2429    0.6038 C   0  0  0  0  0  0  0  0  0  0  0  0
   -2.4133   -2.6109    1.2992 C   0  0  0  0  0  0  0  0  0  0  0  0
   -2.7059   -1.5129    2.1297 O   0  0  0  0  0  0  0  0  0  0  0  0
   -3.2616   -0.5426    1.3181 C   0  0  0  0  0  0  0  0  0  0  0  0
   -2.4330   -0.1692    0.1376 C   0  0  0  0  0  0  0  0  0  0  0  0
   -3.9899    0.5622    2.0061 C   0  0  0  0  0  0  0  0  0  0  0  0
   -5.0702    0.4056    1.0527 N   0  0  0  0  0  0  0  0  0  0  0  0
   -4.6599   -0.9749    0.8941 C   0  0  0  0  0  0  0  0  0  0  0  0
   -6.1035    1.1789    0.4751 C   0  0  0  0  0  0  0  0  0  0  0  0
   -6.2866    2.5098    0.8034 C   0  0  0  0  0  0  0  0  0  0  0  0
   -7.3203    3.2167    0.2027 C   0  0  0  0  0  0  0  0  0  0  0  0
   -8.1460    2.6406   -0.6885 N   0  0  0  0  0  0  0  0  0  0  0  0
   -7.9998    1.3404   -1.0363 C   0  0  0  0  0  0  0  0  0  0  0  0
   -8.6439    0.5166   -1.8665 N   0  0  0  0  0  0  0  0  0  0  0  0
   -8.0494   -0.6526   -1.7960 N   0  0  0  0  0  0  0  0  0  0  0  0
   -7.0444   -0.6329   -0.9570 N   0  0  0  0  0  0  0  0  0  0  0  0
   -6.9846    0.6320   -0.4514 C   0  0  0  0  0  0  0  0  0  0  0  0
    2.8462    0.8828   -0.7785 C   0  0  0  0  0  0  0  0  0  0  0  0
    4.1349    1.2773   -1.1324 C   0  0  0  0  0  0  0  0  0  0  0  0
    5.1388    0.3296   -1.3241 C   0  0  0  0  0  0  0  0  0  0  0  0
    6.3976    0.7376   -1.6728 O   0  0  0  0  0  0  0  0  0  0  0  0
    7.5185    0.5521   -0.8880 C   0  0  0  0  0  0  0  0  0  0  0  0
    7.4794    0.0847    0.4086 C   0  0  0  0  0  0  0  0  0  0  0  0
    8.6197   -0.0932    1.1732 C   0  0  0  0  0  0  0  0  0  0  0  0
    9.8629    0.1979    0.6522 C   0  0  0  0  0  0  0  0  0  0  0  0
    9.9326    0.6641   -0.6332 C   0  0  0  0  0  0  0  0  0  0  0  0
    8.7966    0.8376   -1.3848 C   0  0  0  0  0  0  0  0  0  0  0  0
    3.3645   -2.4155   -0.6908 H   0  0  0  0  0  0  0  0  0  0  0  0
    1.2356   -1.9433    0.1060 H   0  0  0  0  0  0  0  0  0  0  0  0
   -0.9589   -2.9186   -0.2426 H   0  0  0  0  0  0  0  0  0  0  0  0
   -0.3158   -2.3491    1.3885 H   0  0  0  0  0  0  0  0  0  0  0  0
   -3.2277   -2.7457    0.5673 H   0  0  0  0  0  0  0  0  0  0  0  0
   -2.2556   -3.5307    1.8755 H   0  0  0  0  0  0  0  0  0  0  0  0
   -2.9541   -0.4403   -0.8207 H   0  0  0  0  0  0  0  0  0  0  0  0
   -2.2409    0.9417    0.1676 H   0  0  0  0  0  0  0  0  0  0  0  0
   -3.4902    1.5341    2.0131 H   0  0  0  0  0  0  0  0  0  0  0  0
   -4.2658    0.2320    3.0500 H   0  0  0  0  0  0  0  0  0  0  0  0
   -4.7135   -1.3876   -0.1231 H   0  0  0  0  0  0  0  0  0  0  0  0
   -5.1843   -1.5971    1.6782 H   0  0  0  0  0  0  0  0  0  0  0  0
   -5.6275    2.9864    1.5206 H   0  0  0  0  0  0  0  0  0  0  0  0
   -7.4775    4.2418    0.4423 H   0  0  0  0  0  0  0  0  0  0  0  0
   -9.4749    0.7884   -2.4564 H   0  0  0  0  0  0  0  0  0  0  0  0
    2.0948    1.6731   -0.6287 H   0  0  0  0  0  0  0  0  0  0  0  0
    4.3149    2.3285   -1.2485 H   0  0  0  0  0  0  0  0  0  0  0  0
    6.5062   -0.1539    0.8657 H   0  0  0  0  0  0  0  0  0  0  0  0
    8.5547   -0.4602    2.1825 H   0  0  0  0  0  0  0  0  0  0  0  0
   10.7776    0.0765    1.2056 H   0  0  0  0  0  0  0  0  0  0  0  0
   10.8778    0.9174   -1.1179 H   0  0  0  0  0  0  0  0  0  0  0  0
    8.8279    1.2085   -2.4124 H   0  0  0  0  0  0  0  0  0  0  0  0
  1  2  1  0
  2  3  2  0
  3  4  1  0
  4  5  1  0
  5  6  1  0
  6  7  2  0
  6  8  1  0
  8  9  1  0
  9 10  1  0
 10 11  1  0
 11 12  1  0
 12 13  1  0
 12 14  1  0
 14 15  1  0
 15 16  1  0
 15 17  1  0
 17 18  2  0
 18 19  1  0
 19 20  2  0
 20 21  1  0
 21 22  1  0
 22 23  1  0
 23 24  2  0
 24 25  1  0
  4 26  2  0
 26 27  1  0
 27 28  2  0
 28 29  1  0
 29 30  1  0
 30 31  2  0
 31 32  1  0
 32 33  2  0
 33 34  1  0
 34 35  2  0
 28  2  1  0
 35 30  1  0
 13  8  1  0
 25 17  1  0
 16 12  1  0
 25 21  2  0
  3 36  1  0
  5 37  1  0
  9 38  1  0
  9 39  1  0
 10 40  1  0
 10 41  1  0
 13 42  1  0
 13 43  1  0
 14 44  1  0
 14 45  1  0
 16 46  1  0
 16 47  1  0
 18 48  1  0
 19 49  1  0
 22 50  1  0
 26 51  1  0
 27 52  1  0
 31 53  1  0
 32 54  1  0
 33 55  1  0
 34 56  1  0
 35 57  1  0
M  END
$$$$
[H]C1=C2c3c([H])c([H])c([H])c(C4([H])C([H])([H])C4([H])[H])c3C([H])([H])C([H])([H])N2C(=O)C([H])([H])N=C1n1c([H])nc(SC([H])([H])[H])c1[H]
     RDKit          3D

 46 50  0  0  0  0  0  0  0  0999 V2000
    8.2759   -0.0352   -0.7778 C   0  0  0  0  0  0  0  0  0  0  0  0
    6.9690    0.7048   -1.8338 S   0  0  0  0  0  0  0  0  0  0  0  0
    5.4570    0.9706   -0.9566 C   0  0  0  0  0  0  0  0  0  0  0  0
    4.4557    0.0265   -0.7120 C   0  0  0  0  0  0  0  0  0  0  0  0
    3.4419    0.6268   -0.0412 N   0  0  0  0  0  0  0  0  0  0  0  0
    3.7665    1.9013    0.1360 C   0  0  0  0  0  0  0  0  0  0  0  0
    5.0062    2.1167   -0.4265 N   0  0  0  0  0  0  0  0  0  0  0  0
    2.3091   -0.1064    0.3675 C   0  0  0  0  0  0  0  0  0  0  0  0
    2.5479   -1.2096    0.9857 N   0  0  0  0  0  0  0  0  0  0  0  0
    1.6956   -2.2280    1.5466 C   0  0  0  0  0  0  0  0  0  0  0  0
    0.5675   -2.5356    0.6625 C   0  0  0  0  0  0  0  0  0  0  0  0
    0.4398   -3.7195    0.3056 O   0  0  0  0  0  0  0  0  0  0  0  0
   -0.4372   -1.6346    0.1400 N   0  0  0  0  0  0  0  0  0  0  0  0
   -1.6740   -2.2767   -0.1235 C   0  0  0  0  0  0  0  0  0  0  0  0
   -2.6634   -1.3494   -0.7573 C   0  0  0  0  0  0  0  0  0  0  0  0
   -2.5527    0.0629   -0.4138 C   0  0  0  0  0  0  0  0  0  0  0  0
   -3.7134    0.8349   -0.3108 C   0  0  0  0  0  0  0  0  0  0  0  0
   -3.5850    2.1654   -0.1084 C   0  0  0  0  0  0  0  0  0  0  0  0
   -2.3182    2.7639   -0.0010 C   0  0  0  0  0  0  0  0  0  0  0  0
   -1.1584    1.9980   -0.0968 C   0  0  0  0  0  0  0  0  0  0  0  0
   -1.3161    0.6561   -0.2975 C   0  0  0  0  0  0  0  0  0  0  0  0
   -0.1653   -0.2147   -0.0185 C   0  0  0  0  0  0  0  0  0  0  0  0
    0.9672    0.4308    0.0709 C   0  0  0  0  0  0  0  0  0  0  0  0
   -4.9830    0.0859   -0.4942 C   0  0  0  0  0  0  0  0  0  0  0  0
   -5.9373   -0.2669    0.5876 C   0  0  0  0  0  0  0  0  0  0  0  0
   -6.1729    1.0450    0.0185 C   0  0  0  0  0  0  0  0  0  0  0  0
    8.2509    0.4874    0.1855 H   0  0  0  0  0  0  0  0  0  0  0  0
    9.2670    0.1040   -1.1979 H   0  0  0  0  0  0  0  0  0  0  0  0
    8.0430   -1.1345   -0.6467 H   0  0  0  0  0  0  0  0  0  0  0  0
    4.4985   -1.0054   -1.0119 H   0  0  0  0  0  0  0  0  0  0  0  0
    3.1498    2.6239    0.6244 H   0  0  0  0  0  0  0  0  0  0  0  0
    2.2965   -3.1268    1.7060 H   0  0  0  0  0  0  0  0  0  0  0  0
    1.3322   -1.8914    2.5730 H   0  0  0  0  0  0  0  0  0  0  0  0
   -1.5335   -3.1670   -0.7886 H   0  0  0  0  0  0  0  0  0  0  0  0
   -2.0694   -2.6384    0.8939 H   0  0  0  0  0  0  0  0  0  0  0  0
   -3.7059   -1.7231   -0.6747 H   0  0  0  0  0  0  0  0  0  0  0  0
   -2.4507   -1.4175   -1.8805 H   0  0  0  0  0  0  0  0  0  0  0  0
   -4.4659    2.8193   -0.0570 H   0  0  0  0  0  0  0  0  0  0  0  0
   -2.2554    3.8144    0.1527 H   0  0  0  0  0  0  0  0  0  0  0  0
   -0.2592    2.5366    0.0017 H   0  0  0  0  0  0  0  0  0  0  0  0
    0.9436    1.4758   -0.1213 H   0  0  0  0  0  0  0  0  0  0  0  0
   -5.2212   -0.2562   -1.5396 H   0  0  0  0  0  0  0  0  0  0  0  0
   -6.6639   -1.1004    0.3537 H   0  0  0  0  0  0  0  0  0  0  0  0
   -5.5410   -0.3891    1.6395 H   0  0  0  0  0  0  0  0  0  0  0  0
   -6.9505    1.2786   -0.7175 H   0  0  0  0  0  0  0  0  0  0  0  0
   -5.8876    1.8969    0.6333 H   0  0  0  0  0  0  0  0  0  0  0  0
  1  2  1  0
  2  3  1  0
  3  4  2  0
  4  5  1  0
  5  6  1  0
  6  7  2  0
  5  8  1  0
  8  9  2  0
  9 10  1  0
 10 11  1  0
 11 12  2  0
 11 13  1  0
 13 14  1  0
 14 15  1  0
 15 16  1  0
 16 17  2  0
 17 18  1  0
 18 19  2  0
 19 20  1  0
 20 21  2  0
 21 22  1  0
 22 23  2  0
 17 24  1  0
 24 25  1  0
 25 26  1  0
  7  3  1  0
 23  8  1  0
 26 24  1  0
 22 13  1  0
 21 16  1  0
  1 27  1  0
  1 28  1  0
  1 29  1  0
  4 30  1  0
  6 31  1  0
 10 32  1  0
 10 33  1  0
 14 34  1  0
 14 35  1  0
 15 36  1  0
 15 37  1  0
 18 38  1  0
 19 39  1  0
 20 40  1  0
 23 41  1  0
 24 42  1  0
 25 43  1  0
 25 44  1  0
 26 45  1  0
 26 46  1  0
M  END
$$$$
[H]O[C@]1([H])[C@]([H])(N(C(=O)/C([H])=C(\[H])c2c([H])c([H])c(OC([H])([H])C([H])([H])C([H])([H])C([H])([H])C([H])([H])C([H])([H])C([H])([H])C([H])([H])[H])c([H])c2[H])C([H])([H])[H])OC([H])([H])[C@@]([H])(O[H])[C@@]1([H])O[H]
     RDKit          3D

 65 66  0  0  0  0  0  0  0  0999 V2000
    7.0733    3.2709   -0.8138 C   0  0  0  0  0  0  0  0  0  0  0  0
    6.5536    1.8846   -1.1520 C   0  0  0  0  0  0  0  0  0  0  0  0
    5.2860    1.5980   -0.3671 C   0  0  0  0  0  0  0  0  0  0  0  0
    4.7536    0.2136   -0.6990 C   0  0  0  0  0  0  0  0  0  0  0  0
    5.7698   -0.8487   -0.3559 C   0  0  0  0  0  0  0  0  0  0  0  0
    6.1580   -0.9122    1.0638 C   0  0  0  0  0  0  0  0  0  0  0  0
    5.1307   -1.2925    2.0756 C   0  0  0  0  0  0  0  0  0  0  0  0
    4.6185   -2.6757    1.9420 C   0  0  0  0  0  0  0  0  0  0  0  0
    3.8956   -3.0695    0.8800 O   0  0  0  0  0  0  0  0  0  0  0  0
    2.6448   -2.7225    0.4775 C   0  0  0  0  0  0  0  0  0  0  0  0
    2.1581   -3.2803   -0.7036 C   0  0  0  0  0  0  0  0  0  0  0  0
    0.9060   -2.9486   -1.1218 C   0  0  0  0  0  0  0  0  0  0  0  0
    0.0732   -2.0735   -0.4292 C   0  0  0  0  0  0  0  0  0  0  0  0
   -1.2464   -1.7622   -0.9271 C   0  0  0  0  0  0  0  0  0  0  0  0
   -2.0466   -0.9532   -0.3090 C   0  0  0  0  0  0  0  0  0  0  0  0
   -3.3798   -0.6760   -0.8673 C   0  0  0  0  0  0  0  0  0  0  0  0
   -3.7197   -1.2369   -1.9466 O   0  0  0  0  0  0  0  0  0  0  0  0
   -4.2296    0.2122   -0.1679 N   0  0  0  0  0  0  0  0  0  0  0  0
   -3.7603    0.8134    1.0654 C   0  0  0  0  0  0  0  0  0  0  0  0
   -5.5239    0.4665   -0.7307 C   0  0  2  0  0  0  0  0  0  0  0  0
   -5.5361    1.7859   -1.1502 O   0  0  0  0  0  0  0  0  0  0  0  0
   -6.4667    2.5842   -0.5351 C   0  0  0  0  0  0  0  0  0  0  0  0
   -7.8572    2.0730   -0.8809 C   0  0  1  0  0  0  0  0  0  0  0  0
   -8.0840    2.3240   -2.2359 O   0  0  0  0  0  0  0  0  0  0  0  0
   -7.9490    0.6173   -0.5321 C   0  0  1  0  0  0  0  0  0  0  0  0
   -8.2945   -0.1471   -1.6558 O   0  0  0  0  0  0  0  0  0  0  0  0
   -6.6781    0.1030    0.1082 C   0  0  2  0  0  0  0  0  0  0  0  0
   -6.6593    0.4914    1.4201 O   0  0  0  0  0  0  0  0  0  0  0  0
    0.5779   -1.5427    0.7254 C   0  0  0  0  0  0  0  0  0  0  0  0
    1.8607   -1.8540    1.1965 C   0  0  0  0  0  0  0  0  0  0  0  0
    6.4627    4.0217   -1.3333 H   0  0  0  0  0  0  0  0  0  0  0  0
    8.1304    3.3512   -1.1079 H   0  0  0  0  0  0  0  0  0  0  0  0
    6.9358    3.4419    0.2822 H   0  0  0  0  0  0  0  0  0  0  0  0
    6.3697    1.8452   -2.2266 H   0  0  0  0  0  0  0  0  0  0  0  0
    7.3794    1.1900   -0.9039 H   0  0  0  0  0  0  0  0  0  0  0  0
    4.5255    2.3210   -0.7110 H   0  0  0  0  0  0  0  0  0  0  0  0
    5.4362    1.7519    0.7110 H   0  0  0  0  0  0  0  0  0  0  0  0
    3.8472    0.0875   -0.1174 H   0  0  0  0  0  0  0  0  0  0  0  0
    4.5960    0.1894   -1.7946 H   0  0  0  0  0  0  0  0  0  0  0  0
    6.6838   -0.7145   -0.9950 H   0  0  0  0  0  0  0  0  0  0  0  0
    5.3721   -1.8373   -0.6740 H   0  0  0  0  0  0  0  0  0  0  0  0
    6.6713    0.0579    1.3883 H   0  0  0  0  0  0  0  0  0  0  0  0
    7.0163   -1.6595    1.1234 H   0  0  0  0  0  0  0  0  0  0  0  0
    4.3236   -0.5100    2.0286 H   0  0  0  0  0  0  0  0  0  0  0  0
    5.5843   -1.1544    3.1012 H   0  0  0  0  0  0  0  0  0  0  0  0
    5.5219   -3.3735    2.0164 H   0  0  0  0  0  0  0  0  0  0  0  0
    4.0022   -2.8813    2.8818 H   0  0  0  0  0  0  0  0  0  0  0  0
    2.7849   -3.9512   -1.2431 H   0  0  0  0  0  0  0  0  0  0  0  0
    0.4922   -3.3670   -2.0431 H   0  0  0  0  0  0  0  0  0  0  0  0
   -1.5971   -2.2165   -1.8561 H   0  0  0  0  0  0  0  0  0  0  0  0
   -1.7807   -0.4668    0.6060 H   0  0  0  0  0  0  0  0  0  0  0  0
   -2.8068    1.3685    0.8326 H   0  0  0  0  0  0  0  0  0  0  0  0
   -4.4511    1.5834    1.4619 H   0  0  0  0  0  0  0  0  0  0  0  0
   -3.4733    0.0572    1.8204 H   0  0  0  0  0  0  0  0  0  0  0  0
   -5.6077   -0.1362   -1.6828 H   0  0  0  0  0  0  0  0  0  0  0  0
   -6.3305    2.7430    0.5430 H   0  0  0  0  0  0  0  0  0  0  0  0
   -6.3214    3.6153   -0.9854 H   0  0  0  0  0  0  0  0  0  0  0  0
   -8.6326    2.6789   -0.3283 H   0  0  0  0  0  0  0  0  0  0  0  0
   -8.3238    3.2823   -2.3211 H   0  0  0  0  0  0  0  0  0  0  0  0
   -8.7895    0.4895    0.1878 H   0  0  0  0  0  0  0  0  0  0  0  0
   -7.8991    0.2461   -2.4890 H   0  0  0  0  0  0  0  0  0  0  0  0
   -6.8055   -1.0261    0.1072 H   0  0  0  0  0  0  0  0  0  0  0  0
   -7.5333    0.7871    1.7724 H   0  0  0  0  0  0  0  0  0  0  0  0
    0.0083   -0.8583    1.3264 H   0  0  0  0  0  0  0  0  0  0  0  0
    2.1804   -1.3988    2.1243 H   0  0  0  0  0  0  0  0  0  0  0  0
  1  2  1  0
  2  3  1  0
  3  4  1  0
  4  5  1  0
  5  6  1  0
  6  7  1  0
  7  8  1  0
  8  9  1  0
  9 10  1  0
 10 11  2  0
 11 12  1  0
 12 13  2  0
 13 14  1  0
 14 15  2  0
 15 16  1  0
 16 17  2  0
 16 18  1  0
 18 19  1  0
 18 20  1  0
 20 21  1  0
 21 22  1  0
 22 23  1  0
 23 24  1  0
 23 25  1  0
 25 26  1  0
 25 27  1  0
 27 28  1  0
 13 29  1  0
 29 30  2  0
 30 10  1  0
 27 20  1  0
  1 31  1  0
  1 32  1  0
  1 33  1  0
  2 34  1  0
  2 35  1  0
  3 36  1  0
  3 37  1  0
  4 38  1  0
  4 39  1  0
  5 40  1  0
  5 41  1  0
  6 42  1  0
  6 43  1  0
  7 44  1  0
  7 45  1  0
  8 46  1  0
  8 47  1  0
 11 48  1  0
 12 49  1  0
 14 50  1  0
 15 51  1  0
 19 52  1  0
 19 53  1  0
 19 54  1  0
 20 55  1  6
 22 56  1  0
 22 57  1  0
 23 58  1  1
 24 59  1  0
 25 60  1  1
 26 61  1  0
 27 62  1  1
 28 63  1  0
 29 64  1  0
 30 65  1  0
M  END
$$$$
[H]OC(=O)c1c([H])c([H])c([H])c(N([H])[C@]2([H])C([H])([H])C([H])([H])N(c3c([H])c([H])c([H])c([H])c3[H])C([H])([H])[C@]2([H])C(C([H])([H])[H])(C([H])([H])[H])C([H])([H])[H])c1[H]
     RDKit          3D

 54 56  0  0  0  0  0  0  0  0999 V2000
    0.0901   -3.1690    0.7139 C   0  0  0  0  0  0  0  0  0  0  0  0
   -0.5245   -2.6077   -0.5155 C   0  0  0  0  0  0  0  0  0  0  0  0
    0.2960   -3.0939   -1.7002 C   0  0  0  0  0  0  0  0  0  0  0  0
   -1.8955   -3.2767   -0.6741 C   0  0  0  0  0  0  0  0  0  0  0  0
   -0.6660   -1.1201   -0.5533 C   0  0  1  0  0  0  0  0  0  0  0  0
   -1.5355   -0.5966    0.5880 C   0  0  0  0  0  0  0  0  0  0  0  0
   -1.9773    0.7029    0.1364 N   0  0  0  0  0  0  0  0  0  0  0  0
   -1.2278    1.4279   -0.8208 C   0  0  0  0  0  0  0  0  0  0  0  0
    0.1972    1.0905   -0.9873 C   0  0  0  0  0  0  0  0  0  0  0  0
    0.5860   -0.3460   -0.6869 C   0  0  1  0  0  0  0  0  0  0  0  0
    1.4182   -0.3198    0.4761 N   0  0  0  0  0  0  0  0  0  0  0  0
    2.6975    0.2877    0.5260 C   0  0  0  0  0  0  0  0  0  0  0  0
    3.4381    0.3578    1.7001 C   0  0  0  0  0  0  0  0  0  0  0  0
    4.6831    0.9323    1.7789 C   0  0  0  0  0  0  0  0  0  0  0  0
    5.2421    1.4705    0.6520 C   0  0  0  0  0  0  0  0  0  0  0  0
    4.5244    1.4161   -0.5422 C   0  0  0  0  0  0  0  0  0  0  0  0
    3.2759    0.8344   -0.5983 C   0  0  0  0  0  0  0  0  0  0  0  0
    5.1216    1.9894   -1.7399 C   0  0  0  0  0  0  0  0  0  0  0  0
    6.3832    2.5774   -1.6859 O   0  0  0  0  0  0  0  0  0  0  0  0
    4.4803    1.9468   -2.8298 O   0  0  0  0  0  0  0  0  0  0  0  0
   -3.1676    1.2580    0.6557 C   0  0  0  0  0  0  0  0  0  0  0  0
   -3.8561    0.6419    1.7092 C   0  0  0  0  0  0  0  0  0  0  0  0
   -5.0166    1.1776    2.2102 C   0  0  0  0  0  0  0  0  0  0  0  0
   -5.5640    2.3355    1.7138 C   0  0  0  0  0  0  0  0  0  0  0  0
   -4.9068    2.9514    0.6856 C   0  0  0  0  0  0  0  0  0  0  0  0
   -3.7469    2.4281    0.1747 C   0  0  0  0  0  0  0  0  0  0  0  0
   -0.1733   -4.2600    0.7592 H   0  0  0  0  0  0  0  0  0  0  0  0
    1.1969   -3.1313    0.7295 H   0  0  0  0  0  0  0  0  0  0  0  0
   -0.3228   -2.7372    1.6531 H   0  0  0  0  0  0  0  0  0  0  0  0
    0.0967   -2.4549   -2.6012 H   0  0  0  0  0  0  0  0  0  0  0  0
    1.3655   -3.0037   -1.4574 H   0  0  0  0  0  0  0  0  0  0  0  0
    0.0614   -4.1584   -1.8936 H   0  0  0  0  0  0  0  0  0  0  0  0
   -1.6520   -4.3445   -0.9487 H   0  0  0  0  0  0  0  0  0  0  0  0
   -2.4561   -3.3093    0.2588 H   0  0  0  0  0  0  0  0  0  0  0  0
   -2.4469   -2.8660   -1.5396 H   0  0  0  0  0  0  0  0  0  0  0  0
   -1.2787   -0.8989   -1.4810 H   0  0  0  0  0  0  0  0  0  0  0  0
   -2.3851   -1.3204    0.7054 H   0  0  0  0  0  0  0  0  0  0  0  0
   -1.0087   -0.5785    1.5419 H   0  0  0  0  0  0  0  0  0  0  0  0
   -1.8139    1.4049   -1.7839 H   0  0  0  0  0  0  0  0  0  0  0  0
   -1.2850    2.5185   -0.5214 H   0  0  0  0  0  0  0  0  0  0  0  0
    0.4678    1.2776   -2.0692 H   0  0  0  0  0  0  0  0  0  0  0  0
    0.8183    1.8115   -0.4203 H   0  0  0  0  0  0  0  0  0  0  0  0
    1.1958   -0.7784   -1.5168 H   0  0  0  0  0  0  0  0  0  0  0  0
    1.0722   -0.7715    1.3479 H   0  0  0  0  0  0  0  0  0  0  0  0
    3.0218   -0.0610    2.6144 H   0  0  0  0  0  0  0  0  0  0  0  0
    5.2163    0.9549    2.7399 H   0  0  0  0  0  0  0  0  0  0  0  0
    6.2210    1.9237    0.7080 H   0  0  0  0  0  0  0  0  0  0  0  0
    2.7862    0.8340   -1.5714 H   0  0  0  0  0  0  0  0  0  0  0  0
    6.9126    2.7445   -2.5266 H   0  0  0  0  0  0  0  0  0  0  0  0
   -3.4231   -0.2710    2.1009 H   0  0  0  0  0  0  0  0  0  0  0  0
   -5.5081    0.6606    3.0248 H   0  0  0  0  0  0  0  0  0  0  0  0
   -6.4875    2.7208    2.1458 H   0  0  0  0  0  0  0  0  0  0  0  0
   -5.3015    3.8557    0.2713 H   0  0  0  0  0  0  0  0  0  0  0  0
   -3.2387    2.9419   -0.6564 H   0  0  0  0  0  0  0  0  0  0  0  0
  1  2  1  0
  2  3  1  0
  2  4  1  0
  2  5  1  0
  5  6  1  0
  6  7  1  0
  7  8  1  0
  8  9  1  0
  9 10  1  0
 10 11  1  0
 11 12  1  0
 12 13  2  0
 13 14  1  0
 14 15  2  0
 15 16  1  0
 16 17  2  0
 16 18  1  0
 18 19  1  0
 18 20  2  0
  7 21  1  0
 21 22  2  0
 22 23  1  0
 23 24  2  0
 24 25  1  0
 25 26  2  0
 10  5  1  0
 17 12  1  0
 26 21  1  0
  1 27  1  0
  1 28  1  0
  1 29  1  0
  3 30  1  0
  3 31  1  0
  3 32  1  0
  4 33  1  0
  4 34  1  0
  4 35  1  0
  5 36  1  6
  6 37  1  0
  6 38  1  0
  8 39  1  0
  8 40  1  0
  9 41  1  0
  9 42  1  0
 10 43  1  6
 11 44  1  0
 13 45  1  0
 14 46  1  0
 15 47  1  0
 17 48  1  0
 19 49  1  0
 22 50  1  0
 23 51  1  0
 24 52  1  0
 25 53  1  0
 26 54  1  0
M  END
$$$$
[H]c1nc(N([H])c2c([H])c(C([H])([H])[H])c(F)c(C([H])([H])[H])c2[H])nc([C@]2([H])N3C([H])([H])C([H])([H])C([H])(C([H])([H])C3([H])[H])[C@]2([H])C([H])([H])[H])n1
     RDKit          3D

 49 52  0  0  0  0  0  0  0  0999 V2000
   -2.3793    0.3493   -1.5334 C   0  0  0  0  0  0  0  0  0  0  0  0
   -3.1039    0.7195   -0.2916 C   0  0  1  0  0  0  0  0  0  0  0  0
   -4.6293    0.5820   -0.4691 C   0  0  0  0  0  0  0  0  0  0  0  0
   -5.2104    0.6618    0.9252 C   0  0  0  0  0  0  0  0  0  0  0  0
   -4.9180   -0.6338    1.6760 C   0  0  0  0  0  0  0  0  0  0  0  0
   -3.6680   -1.1626    1.0915 N   0  0  0  0  0  0  0  0  0  0  0  0
   -4.0935   -1.7859   -0.1458 C   0  0  0  0  0  0  0  0  0  0  0  0
   -4.8925   -0.8358   -0.9734 C   0  0  0  0  0  0  0  0  0  0  0  0
   -2.7842   -0.0509    0.9386 C   0  0  1  0  0  0  0  0  0  0  0  0
   -1.3645   -0.3750    1.1334 C   0  0  0  0  0  0  0  0  0  0  0  0
   -0.9438   -1.1947    2.0957 N   0  0  0  0  0  0  0  0  0  0  0  0
    0.3913   -1.4429    2.2324 C   0  0  0  0  0  0  0  0  0  0  0  0
    1.2742   -0.8627    1.3999 N   0  0  0  0  0  0  0  0  0  0  0  0
    0.8783   -0.0404    0.4312 C   0  0  0  0  0  0  0  0  0  0  0  0
    1.7697    0.5851   -0.4583 N   0  0  0  0  0  0  0  0  0  0  0  0
    3.1659    0.5031   -0.5149 C   0  0  0  0  0  0  0  0  0  0  0  0
    3.7726    0.8564   -1.7291 C   0  0  0  0  0  0  0  0  0  0  0  0
    5.1191    0.8191   -1.8435 C   0  0  0  0  0  0  0  0  0  0  0  0
    5.7161    1.2073   -3.1657 C   0  0  0  0  0  0  0  0  0  0  0  0
    5.9002    0.4430   -0.7961 C   0  0  0  0  0  0  0  0  0  0  0  0
    7.2423    0.4198   -0.9547 F   0  0  0  0  0  0  0  0  0  0  0  0
    5.3212    0.0930    0.4042 C   0  0  0  0  0  0  0  0  0  0  0  0
    6.1908   -0.3162    1.5402 C   0  0  0  0  0  0  0  0  0  0  0  0
    3.9288    0.1196    0.5608 C   0  0  0  0  0  0  0  0  0  0  0  0
   -0.4506    0.1785    0.3301 N   0  0  0  0  0  0  0  0  0  0  0  0
   -3.0564    0.3736   -2.4448 H   0  0  0  0  0  0  0  0  0  0  0  0
   -1.9234   -0.6447   -1.5683 H   0  0  0  0  0  0  0  0  0  0  0  0
   -1.5661    1.0840   -1.7983 H   0  0  0  0  0  0  0  0  0  0  0  0
   -2.9188    1.8171   -0.1115 H   0  0  0  0  0  0  0  0  0  0  0  0
   -5.0265    1.3374   -1.1447 H   0  0  0  0  0  0  0  0  0  0  0  0
   -4.8336    1.5496    1.4671 H   0  0  0  0  0  0  0  0  0  0  0  0
   -6.3033    0.8143    0.8046 H   0  0  0  0  0  0  0  0  0  0  0  0
   -4.6615   -0.3836    2.7245 H   0  0  0  0  0  0  0  0  0  0  0  0
   -5.7389   -1.3628    1.5878 H   0  0  0  0  0  0  0  0  0  0  0  0
   -4.8171   -2.5988    0.1826 H   0  0  0  0  0  0  0  0  0  0  0  0
   -3.3054   -2.3392   -0.6738 H   0  0  0  0  0  0  0  0  0  0  0  0
   -4.6899   -0.9157   -2.0602 H   0  0  0  0  0  0  0  0  0  0  0  0
   -5.9828   -0.9920   -0.8525 H   0  0  0  0  0  0  0  0  0  0  0  0
   -3.0333    0.6517    1.8048 H   0  0  0  0  0  0  0  0  0  0  0  0
    0.7771   -2.0998    2.9974 H   0  0  0  0  0  0  0  0  0  0  0  0
    1.2974    1.2176   -1.1862 H   0  0  0  0  0  0  0  0  0  0  0  0
    3.1407    1.1595   -2.5770 H   0  0  0  0  0  0  0  0  0  0  0  0
    5.0409    1.9028   -3.6802 H   0  0  0  0  0  0  0  0  0  0  0  0
    6.6901    1.6787   -2.9361 H   0  0  0  0  0  0  0  0  0  0  0  0
    5.8694    0.2956   -3.7831 H   0  0  0  0  0  0  0  0  0  0  0  0
    5.8388    0.1628    2.4850 H   0  0  0  0  0  0  0  0  0  0  0  0
    6.1801   -1.4263    1.6422 H   0  0  0  0  0  0  0  0  0  0  0  0
    7.2199    0.0345    1.3747 H   0  0  0  0  0  0  0  0  0  0  0  0
    3.5701   -0.1527    1.5206 H   0  0  0  0  0  0  0  0  0  0  0  0
  1  2  1  0
  2  3  1  0
  3  4  1  0
  4  5  1  0
  5  6  1  0
  6  7  1  0
  7  8  1  0
  6  9  1  0
  9 10  1  0
 10 11  2  0
 11 12  1  0
 12 13  2  0
 13 14  1  0
 14 15  1  0
 15 16  1  0
 16 17  2  0
 17 18  1  0
 18 19  1  0
 18 20  2  0
 20 21  1  0
 20 22  1  0
 22 23  1  0
 22 24  2  0
 14 25  2  0
  9  2  1  0
 25 10  1  0
  8  3  1  0
 24 16  1  0
  1 26  1  0
  1 27  1  0
  1 28  1  0
  2 29  1  1
  3 30  1  0
  4 31  1  0
  4 32  1  0
  5 33  1  0
  5 34  1  0
  7 35  1  0
  7 36  1  0
  8 37  1  0
  8 38  1  0
  9 39  1  1
 12 40  1  0
 15 41  1  0
 17 42  1  0
 19 43  1  0
 19 44  1  0
 19 45  1  0
 23 46  1  0
 23 47  1  0
 23 48  1  0
 24 49  1  0
M  END
$$$$
[H]c1c(C2([H])C([H])([H])C2([H])[H])nn([H])c1C(=O)N([H])C1([H])C([H])([H])N(C([H])([H])C([H])([H])N2C([H])([H])C([H])([H])C([H])([H])C([H])([H])C2([H])[H])C1([H])[H]
     RDKit          3D

 50 53  0  0  0  0  0  0  0  0999 V2000
    2.3740    2.4543   -3.0016 O   0  0  0  0  0  0  0  0  0  0  0  0
    2.6726    1.7876   -1.9699 C   0  0  0  0  0  0  0  0  0  0  0  0
    1.6837    1.1686   -1.1683 N   0  0  0  0  0  0  0  0  0  0  0  0
    0.2680    1.2394   -1.4490 C   0  0  0  0  0  0  0  0  0  0  0  0
   -0.4656    1.7033   -0.1981 C   0  0  0  0  0  0  0  0  0  0  0  0
   -1.3032    0.5400   -0.3276 N   0  0  0  0  0  0  0  0  0  0  0  0
   -1.4302   -0.2653    0.8584 C   0  0  0  0  0  0  0  0  0  0  0  0
   -2.3181   -1.4411    0.6079 C   0  0  0  0  0  0  0  0  0  0  0  0
   -3.6545   -1.0737    0.2090 N   0  0  0  0  0  0  0  0  0  0  0  0
   -4.3963   -2.3161    0.0024 C   0  0  0  0  0  0  0  0  0  0  0  0
   -5.6949   -2.0615   -0.6949 C   0  0  0  0  0  0  0  0  0  0  0  0
   -6.2458   -0.7195   -0.2743 C   0  0  0  0  0  0  0  0  0  0  0  0
   -5.8019   -0.3879    1.1358 C   0  0  0  0  0  0  0  0  0  0  0  0
   -4.2986   -0.1947    1.1351 C   0  0  0  0  0  0  0  0  0  0  0  0
   -0.4649   -0.0812   -1.3452 C   0  0  0  0  0  0  0  0  0  0  0  0
    4.0833    1.6754   -1.6281 C   0  0  0  0  0  0  0  0  0  0  0  0
    4.6237    0.9917   -0.5420 C   0  0  0  0  0  0  0  0  0  0  0  0
    5.9958    1.1156   -0.5574 C   0  0  0  0  0  0  0  0  0  0  0  0
    6.2619    1.8640   -1.6406 N   0  0  0  0  0  0  0  0  0  0  0  0
    5.1452    2.1930   -2.2689 N   0  0  0  0  0  0  0  0  0  0  0  0
    6.9871    0.5545    0.4010 C   0  0  0  0  0  0  0  0  0  0  0  0
    6.4897    0.3473    1.8381 C   0  0  0  0  0  0  0  0  0  0  0  0
    6.6619   -0.8488    0.9641 C   0  0  0  0  0  0  0  0  0  0  0  0
    1.9860    0.6331   -0.3318 H   0  0  0  0  0  0  0  0  0  0  0  0
   -0.0002    1.8214   -2.3515 H   0  0  0  0  0  0  0  0  0  0  0  0
   -1.0178    2.6441   -0.3601 H   0  0  0  0  0  0  0  0  0  0  0  0
    0.1496    1.6874    0.7274 H   0  0  0  0  0  0  0  0  0  0  0  0
   -1.7892    0.3519    1.7159 H   0  0  0  0  0  0  0  0  0  0  0  0
   -0.4340   -0.6547    1.1551 H   0  0  0  0  0  0  0  0  0  0  0  0
   -2.3750   -2.0382    1.5606 H   0  0  0  0  0  0  0  0  0  0  0  0
   -1.8689   -2.0908   -0.1456 H   0  0  0  0  0  0  0  0  0  0  0  0
   -4.6344   -2.7884    0.9860 H   0  0  0  0  0  0  0  0  0  0  0  0
   -3.7488   -2.9881   -0.5802 H   0  0  0  0  0  0  0  0  0  0  0  0
   -6.3833   -2.8960   -0.4357 H   0  0  0  0  0  0  0  0  0  0  0  0
   -5.5266   -2.1215   -1.7956 H   0  0  0  0  0  0  0  0  0  0  0  0
   -5.9086    0.0624   -0.9797 H   0  0  0  0  0  0  0  0  0  0  0  0
   -7.3682   -0.7965   -0.2827 H   0  0  0  0  0  0  0  0  0  0  0  0
   -6.0965   -1.2285    1.7961 H   0  0  0  0  0  0  0  0  0  0  0  0
   -6.2945    0.5160    1.4987 H   0  0  0  0  0  0  0  0  0  0  0  0
   -3.9677   -0.3777    2.1904 H   0  0  0  0  0  0  0  0  0  0  0  0
   -4.0763    0.8606    0.8690 H   0  0  0  0  0  0  0  0  0  0  0  0
    0.1430   -0.9237   -0.9852 H   0  0  0  0  0  0  0  0  0  0  0  0
   -1.0884   -0.2677   -2.2442 H   0  0  0  0  0  0  0  0  0  0  0  0
    4.0629    0.4478    0.2002 H   0  0  0  0  0  0  0  0  0  0  0  0
    5.0892    2.7723   -3.1397 H   0  0  0  0  0  0  0  0  0  0  0  0
    8.0459    0.7504    0.2382 H   0  0  0  0  0  0  0  0  0  0  0  0
    7.2180    0.4411    2.6597 H   0  0  0  0  0  0  0  0  0  0  0  0
    5.4885    0.7418    2.0769 H   0  0  0  0  0  0  0  0  0  0  0  0
    7.5170   -1.5154    1.1412 H   0  0  0  0  0  0  0  0  0  0  0  0
    5.7055   -1.2881    0.5942 H   0  0  0  0  0  0  0  0  0  0  0  0
  1  2  2  0
  2  3  1  0
  3  4  1  0
  4  5  1  0
  5  6  1  0
  6  7  1  0
  7  8  1  0
  8  9  1  0
  9 10  1  0
 10 11  1  0
 11 12  1  0
 12 13  1  0
 13 14  1  0
  6 15  1  0
  2 16  1  0
 16 17  2  0
 17 18  1  0
 18 19  2  0
 19 20  1  0
 18 21  1  0
 21 22  1  0
 22 23  1  0
 15  4  1  0
 20 16  1  0
 23 21  1  0
 14  9  1  0
  3 24  1  0
  4 25  1  0
  5 26  1  0
  5 27  1  0
  7 28  1  0
  7 29  1  0
  8 30  1  0
  8 31  1  0
 10 32  1  0
 10 33  1  0
 11 34  1  0
 11 35  1  0
 12 36  1  0
 12 37  1  0
 13 38  1  0
 13 39  1  0
 14 40  1  0
 14 41  1  0
 15 42  1  0
 15 43  1  0
 17 44  1  0
 20 45  1  0
 21 46  1  0
 22 47  1  0
 22 48  1  0
 23 49  1  0
 23 50  1  0
M  END
$$$$
[H]c1c([H])c([H])c2c(c([H])c([H])n2S(=O)(=O)C2([H])C([H])([H])C2([H])[H])c1C1([H])C([H])([H])C1([H])C([H])([H])N1C([H])([H])C([H])([H])C([H])([H])C([H])([H])[C@]1([H])C([H])([H])[H]
     RDKit          3D

 54 58  0  0  0  0  0  0  0  0999 V2000
   -5.3766   -1.5253   -1.3181 C   0  0  0  0  0  0  0  0  0  0  0  0
   -4.5252   -0.3552   -0.8193 C   0  0  1  0  0  0  0  0  0  0  0  0
   -5.5303    0.8142   -0.6919 C   0  0  0  0  0  0  0  0  0  0  0  0
   -5.8041    1.1653    0.7387 C   0  0  0  0  0  0  0  0  0  0  0  0
   -6.0687   -0.1315    1.4941 C   0  0  0  0  0  0  0  0  0  0  0  0
   -4.8359   -0.9727    1.4835 C   0  0  0  0  0  0  0  0  0  0  0  0
   -3.9351   -0.5823    0.4138 N   0  0  0  0  0  0  0  0  0  0  0  0
   -2.6199   -0.9540    0.6425 C   0  0  0  0  0  0  0  0  0  0  0  0
   -1.5042    0.0166    0.3998 C   0  0  0  0  0  0  0  0  0  0  0  0
   -1.2587    0.5301   -0.9496 C   0  0  0  0  0  0  0  0  0  0  0  0
   -0.2749   -0.4386   -0.2093 C   0  0  0  0  0  0  0  0  0  0  0  0
    1.0497    0.1802   -0.0072 C   0  0  0  0  0  0  0  0  0  0  0  0
    1.1058    1.3551    0.7007 C   0  0  0  0  0  0  0  0  0  0  0  0
    2.2912    2.0080    0.9517 C   0  0  0  0  0  0  0  0  0  0  0  0
    3.4597    1.4564    0.4713 C   0  0  0  0  0  0  0  0  0  0  0  0
    3.4429    0.2783   -0.2435 C   0  0  0  0  0  0  0  0  0  0  0  0
    4.4105   -0.4613   -0.8158 N   0  0  0  0  0  0  0  0  0  0  0  0
    3.8045   -1.5437   -1.4035 C   0  0  0  0  0  0  0  0  0  0  0  0
    2.4431   -1.4908   -1.2017 C   0  0  0  0  0  0  0  0  0  0  0  0
    2.2184   -0.3584   -0.4802 C   0  0  0  0  0  0  0  0  0  0  0  0
    6.0778   -0.1075   -0.7769 S   0  0  0  0  0  0  0  0  0  0  0  0
    6.2792    1.2480   -1.4299 O   0  0  0  0  0  0  0  0  0  0  0  0
    6.8598   -1.0904   -1.6119 O   0  0  0  0  0  0  0  0  0  0  0  0
    6.7926   -0.0838    0.8217 C   0  0  0  0  0  0  0  0  0  0  0  0
    7.2328    1.1200    1.5224 C   0  0  0  0  0  0  0  0  0  0  0  0
    8.2986    0.3406    0.8065 C   0  0  0  0  0  0  0  0  0  0  0  0
   -6.3316   -1.1839   -1.7622 H   0  0  0  0  0  0  0  0  0  0  0  0
   -5.6408   -2.2049   -0.4865 H   0  0  0  0  0  0  0  0  0  0  0  0
   -4.8157   -2.0677   -2.0820 H   0  0  0  0  0  0  0  0  0  0  0  0
   -3.8040   -0.0551   -1.5916 H   0  0  0  0  0  0  0  0  0  0  0  0
   -5.0965    1.7148   -1.1729 H   0  0  0  0  0  0  0  0  0  0  0  0
   -6.4919    0.5785   -1.1770 H   0  0  0  0  0  0  0  0  0  0  0  0
   -6.7375    1.7587    0.7896 H   0  0  0  0  0  0  0  0  0  0  0  0
   -4.9420    1.6905    1.1917 H   0  0  0  0  0  0  0  0  0  0  0  0
   -6.9028   -0.6318    0.9522 H   0  0  0  0  0  0  0  0  0  0  0  0
   -6.4201    0.1288    2.5223 H   0  0  0  0  0  0  0  0  0  0  0  0
   -4.2828   -0.7541    2.4373 H   0  0  0  0  0  0  0  0  0  0  0  0
   -5.0503   -2.0474    1.4869 H   0  0  0  0  0  0  0  0  0  0  0  0
   -2.4897   -1.4513    1.6671 H   0  0  0  0  0  0  0  0  0  0  0  0
   -2.3826   -1.8550   -0.0388 H   0  0  0  0  0  0  0  0  0  0  0  0
   -1.4648    0.7886    1.2447 H   0  0  0  0  0  0  0  0  0  0  0  0
   -0.9385    1.5980   -1.0043 H   0  0  0  0  0  0  0  0  0  0  0  0
   -1.6216    0.1590   -1.9017 H   0  0  0  0  0  0  0  0  0  0  0  0
   -0.2281   -1.4401   -0.6686 H   0  0  0  0  0  0  0  0  0  0  0  0
    0.2043    1.8429    1.1072 H   0  0  0  0  0  0  0  0  0  0  0  0
    2.3018    2.9260    1.5099 H   0  0  0  0  0  0  0  0  0  0  0  0
    4.3945    2.0012    0.6811 H   0  0  0  0  0  0  0  0  0  0  0  0
    4.3633   -2.2937   -1.9327 H   0  0  0  0  0  0  0  0  0  0  0  0
    1.6975   -2.1963   -1.5406 H   0  0  0  0  0  0  0  0  0  0  0  0
    6.6755   -1.0737    1.3614 H   0  0  0  0  0  0  0  0  0  0  0  0
    7.3125    1.0942    2.6288 H   0  0  0  0  0  0  0  0  0  0  0  0
    6.9571    2.0940    1.0660 H   0  0  0  0  0  0  0  0  0  0  0  0
    8.6973    0.7431   -0.1331 H   0  0  0  0  0  0  0  0  0  0  0  0
    9.0048   -0.2807    1.3730 H   0  0  0  0  0  0  0  0  0  0  0  0
  1  2  1  0
  2  3  1  0
  3  4  1  0
  4  5  1  0
  5  6  1  0
  6  7  1  0
  7  8  1  0
  8  9  1  0
  9 10  1  0
 10 11  1  0
 11 12  1  0
 12 13  2  0
 13 14  1  0
 14 15  2  0
 15 16  1  0
 16 17  1  0
 17 18  1  0
 18 19  2  0
 19 20  1  0
 17 21  1  0
 21 22  2  0
 21 23  2  0
 21 24  1  0
 24 25  1  0
 25 26  1  0
  7  2  1  0
 11  9  1  0
 20 12  1  0
 26 24  1  0
 20 16  2  0
  1 27  1  0
  1 28  1  0
  1 29  1  0
  2 30  1  6
  3 31  1  0
  3 32  1  0
  4 33  1  0
  4 34  1  0
  5 35  1  0
  5 36  1  0
  6 37  1  0
  6 38  1  0
  8 39  1  0
  8 40  1  0
  9 41  1  0
 10 42  1  0
 10 43  1  0
 11 44  1  0
 13 45  1  0
 14 46  1  0
 15 47  1  0
 18 48  1  0
 19 49  1  0
 24 50  1  0
 25 51  1  0
 25 52  1  0
 26 53  1  0
 26 54  1  0
M  END
$$$$
[H]c1c([H])c(C(F)(F)F)c([H])c([H])c1N([H])C(=O)C1(C(=O)N([H])c2c([H])c([H])c(C(C([H])([H])[H])(C([H])([H])[H])C([H])([H])[H])c([H])c2[H])C([H])([H])C1([H])[H]
     RDKit          3D

 52 54  0  0  0  0  0  0  0  0999 V2000
   -6.7802   -0.5505   -0.0227 C   0  0  0  0  0  0  0  0  0  0  0  0
   -6.0361    0.7658   -0.1899 C   0  0  0  0  0  0  0  0  0  0  0  0
   -6.3659    1.3163   -1.5648 C   0  0  0  0  0  0  0  0  0  0  0  0
   -6.5042    1.6703    0.9283 C   0  0  0  0  0  0  0  0  0  0  0  0
   -4.5812    0.5615   -0.0434 C   0  0  0  0  0  0  0  0  0  0  0  0
   -3.6434    1.5542   -0.2915 C   0  0  0  0  0  0  0  0  0  0  0  0
   -2.2973    1.2976   -0.1863 C   0  0  0  0  0  0  0  0  0  0  0  0
   -1.8372    0.0345    0.1754 C   0  0  0  0  0  0  0  0  0  0  0  0
   -0.4209   -0.2238    0.2601 N   0  0  0  0  0  0  0  0  0  0  0  0
    0.0409   -1.5107   -0.0778 C   0  0  0  0  0  0  0  0  0  0  0  0
   -0.7453   -2.3940   -0.4635 O   0  0  0  0  0  0  0  0  0  0  0  0
    1.4771   -1.9525   -0.0194 C   0  0  0  0  0  0  0  0  0  0  0  0
    1.8041   -3.1399   -0.9031 C   0  0  0  0  0  0  0  0  0  0  0  0
    1.7166   -3.3083    0.5754 C   0  0  0  0  0  0  0  0  0  0  0  0
    2.5161   -0.9562    0.3166 C   0  0  0  0  0  0  0  0  0  0  0  0
    2.2793   -0.0560    1.1291 O   0  0  0  0  0  0  0  0  0  0  0  0
    3.7729   -1.0577   -0.3126 N   0  0  0  0  0  0  0  0  0  0  0  0
    4.8758   -0.1775   -0.1197 C   0  0  0  0  0  0  0  0  0  0  0  0
    6.1538   -0.6889   -0.2956 C   0  0  0  0  0  0  0  0  0  0  0  0
    7.2228    0.1355   -0.1686 C   0  0  0  0  0  0  0  0  0  0  0  0
    7.1038    1.4797    0.1296 C   0  0  0  0  0  0  0  0  0  0  0  0
    5.8572    1.9823    0.2979 C   0  0  0  0  0  0  0  0  0  0  0  0
    4.7467    1.1538    0.1733 C   0  0  0  0  0  0  0  0  0  0  0  0
    8.2995    2.3532    0.2512 C   0  0  0  0  0  0  0  0  0  0  0  0
    8.7855    2.5541   -1.0405 F   0  0  0  0  0  0  0  0  0  0  0  0
    9.2791    1.7095    0.9529 F   0  0  0  0  0  0  0  0  0  0  0  0
    8.0013    3.5488    0.8706 F   0  0  0  0  0  0  0  0  0  0  0  0
   -2.7613   -0.9138    0.4197 C   0  0  0  0  0  0  0  0  0  0  0  0
   -4.1199   -0.6794    0.3178 C   0  0  0  0  0  0  0  0  0  0  0  0
   -6.4371   -1.3299   -0.7058 H   0  0  0  0  0  0  0  0  0  0  0  0
   -6.6812   -0.8684    1.0445 H   0  0  0  0  0  0  0  0  0  0  0  0
   -7.8741   -0.4247   -0.1797 H   0  0  0  0  0  0  0  0  0  0  0  0
   -6.8497    0.5088   -2.1861 H   0  0  0  0  0  0  0  0  0  0  0  0
   -7.0116    2.1913   -1.4356 H   0  0  0  0  0  0  0  0  0  0  0  0
   -5.3938    1.5136   -2.0708 H   0  0  0  0  0  0  0  0  0  0  0  0
   -5.9332    1.3881    1.8349 H   0  0  0  0  0  0  0  0  0  0  0  0
   -6.3408    2.7361    0.6674 H   0  0  0  0  0  0  0  0  0  0  0  0
   -7.5772    1.4499    1.1806 H   0  0  0  0  0  0  0  0  0  0  0  0
   -4.0133    2.5468   -0.5889 H   0  0  0  0  0  0  0  0  0  0  0  0
   -1.5416    2.0755   -0.3699 H   0  0  0  0  0  0  0  0  0  0  0  0
    0.1437    0.5584    0.5559 H   0  0  0  0  0  0  0  0  0  0  0  0
    0.9506   -3.5974   -1.4743 H   0  0  0  0  0  0  0  0  0  0  0  0
    2.7772   -3.2669   -1.3598 H   0  0  0  0  0  0  0  0  0  0  0  0
    0.8069   -3.7774    1.0342 H   0  0  0  0  0  0  0  0  0  0  0  0
    2.6371   -3.5146    1.1232 H   0  0  0  0  0  0  0  0  0  0  0  0
    3.9220   -1.8432   -1.0102 H   0  0  0  0  0  0  0  0  0  0  0  0
    6.2644   -1.7553   -0.5355 H   0  0  0  0  0  0  0  0  0  0  0  0
    8.2376   -0.2169   -0.2983 H   0  0  0  0  0  0  0  0  0  0  0  0
    5.6691    3.0248    0.5272 H   0  0  0  0  0  0  0  0  0  0  0  0
    3.7528    1.5387    0.2768 H   0  0  0  0  0  0  0  0  0  0  0  0
   -2.5170   -1.9493    0.7407 H   0  0  0  0  0  0  0  0  0  0  0  0
   -4.8302   -1.4963    0.5470 H   0  0  0  0  0  0  0  0  0  0  0  0
  1  2  1  0
  2  3  1  0
  2  4  1  0
  2  5  1  0
  5  6  2  0
  6  7  1  0
  7  8  2  0
  8  9  1  0
  9 10  1  0
 10 11  2  0
 10 12  1  0
 12 13  1  0
 13 14  1  0
 12 15  1  0
 15 16  2  0
 15 17  1  0
 17 18  1  0
 18 19  2  0
 19 20  1  0
 20 21  2  0
 21 22  1  0
 22 23  2  0
 21 24  1  0
 24 25  1  0
 24 26  1  0
 24 27  1  0
  8 28  1  0
 28 29  2  0
 29  5  1  0
 14 12  1  0
 23 18  1  0
  1 30  1  0
  1 31  1  0
  1 32  1  0
  3 33  1  0
  3 34  1  0
  3 35  1  0
  4 36  1  0
  4 37  1  0
  4 38  1  0
  6 39  1  0
  7 40  1  0
  9 41  1  0
 13 42  1  0
 13 43  1  0
 14 44  1  0
 14 45  1  0
 17 46  1  0
 19 47  1  0
 20 48  1  0
 22 49  1  0
 23 50  1  0
 28 51  1  0
 29 52  1  0
M  END
$$$$
[H]c1nc(-c2c([H])c([H])c([H])c(C(=O)N([H])[H])c2[H])c([H])c([H])c1N([H])S(=O)(=O)c1c([H])c([H])c([H])c([H])c1-c1c([H])c([H])c([H])c(C#N)c1[H]
     RDKit          3D

 51 54  0  0  0  0  0  0  0  0999 V2000
    6.5444   -1.9668   -2.3471 N   0  0  0  0  0  0  0  0  0  0  0  0
    6.9188   -1.9578   -0.9644 C   0  0  0  0  0  0  0  0  0  0  0  0
    8.0733   -2.3287   -0.6089 O   0  0  0  0  0  0  0  0  0  0  0  0
    5.9574   -1.5185    0.0190 C   0  0  0  0  0  0  0  0  0  0  0  0
    6.3108   -1.5055    1.3704 C   0  0  0  0  0  0  0  0  0  0  0  0
    5.3728   -1.0819    2.2814 C   0  0  0  0  0  0  0  0  0  0  0  0
    4.0991   -0.6737    1.8783 C   0  0  0  0  0  0  0  0  0  0  0  0
    3.7320   -0.6776    0.5690 C   0  0  0  0  0  0  0  0  0  0  0  0
    4.6964   -1.1109   -0.3453 C   0  0  0  0  0  0  0  0  0  0  0  0
    2.4223   -0.2684    0.0506 C   0  0  0  0  0  0  0  0  0  0  0  0
    1.4561    0.1583    0.8935 C   0  0  0  0  0  0  0  0  0  0  0  0
    0.2100    0.5491    0.4150 C   0  0  0  0  0  0  0  0  0  0  0  0
   -0.0535    0.5071   -0.9091 C   0  0  0  0  0  0  0  0  0  0  0  0
   -1.2737    0.8757   -1.5291 N   0  0  0  0  0  0  0  0  0  0  0  0
   -2.2016    2.2576   -1.1959 S   0  0  0  0  0  0  0  0  0  0  0  0
   -1.3962    3.5351   -1.4483 O   0  0  0  0  0  0  0  0  0  0  0  0
   -3.3283    2.3588   -2.1741 O   0  0  0  0  0  0  0  0  0  0  0  0
   -2.7999    2.3247    0.4523 C   0  0  0  0  0  0  0  0  0  0  0  0
   -2.4466    3.3994    1.2778 C   0  0  0  0  0  0  0  0  0  0  0  0
   -2.8522    3.5231    2.5823 C   0  0  0  0  0  0  0  0  0  0  0  0
   -3.6531    2.5358    3.1148 C   0  0  0  0  0  0  0  0  0  0  0  0
   -4.0212    1.4687    2.3410 C   0  0  0  0  0  0  0  0  0  0  0  0
   -3.5960    1.3578    1.0033 C   0  0  0  0  0  0  0  0  0  0  0  0
   -4.0270    0.2199    0.2102 C   0  0  0  0  0  0  0  0  0  0  0  0
   -5.0528    0.3331   -0.6928 C   0  0  0  0  0  0  0  0  0  0  0  0
   -5.4654   -0.7452   -1.4653 C   0  0  0  0  0  0  0  0  0  0  0  0
   -4.8518   -1.9687   -1.3454 C   0  0  0  0  0  0  0  0  0  0  0  0
   -3.8216   -2.0972   -0.4432 C   0  0  0  0  0  0  0  0  0  0  0  0
   -3.4119   -1.0074    0.3306 C   0  0  0  0  0  0  0  0  0  0  0  0
   -3.1764   -3.3691   -0.3113 C   0  0  0  0  0  0  0  0  0  0  0  0
   -2.6586   -4.3997   -0.2243 N   0  0  0  0  0  0  0  0  0  0  0  0
    0.9827    0.0589   -1.7206 C   0  0  0  0  0  0  0  0  0  0  0  0
    2.1628   -0.3114   -1.2700 N   0  0  0  0  0  0  0  0  0  0  0  0
    7.0871   -1.4548   -3.0740 H   0  0  0  0  0  0  0  0  0  0  0  0
    5.7022   -2.4999   -2.6499 H   0  0  0  0  0  0  0  0  0  0  0  0
    7.2939   -1.8198    1.6894 H   0  0  0  0  0  0  0  0  0  0  0  0
    5.6033   -1.0561    3.3326 H   0  0  0  0  0  0  0  0  0  0  0  0
    3.3915   -0.3485    2.6198 H   0  0  0  0  0  0  0  0  0  0  0  0
    4.4308   -1.1240   -1.3942 H   0  0  0  0  0  0  0  0  0  0  0  0
    1.6227    0.2095    1.9727 H   0  0  0  0  0  0  0  0  0  0  0  0
   -0.5094    0.8747    1.1123 H   0  0  0  0  0  0  0  0  0  0  0  0
   -1.6268    0.2110   -2.2712 H   0  0  0  0  0  0  0  0  0  0  0  0
   -1.8266    4.1629    0.8642 H   0  0  0  0  0  0  0  0  0  0  0  0
   -2.5601    4.3748    3.2037 H   0  0  0  0  0  0  0  0  0  0  0  0
   -3.9897    2.6134    4.1568 H   0  0  0  0  0  0  0  0  0  0  0  0
   -4.6501    0.6629    2.7084 H   0  0  0  0  0  0  0  0  0  0  0  0
   -5.5735    1.2985   -0.8025 H   0  0  0  0  0  0  0  0  0  0  0  0
   -6.2735   -0.6663   -2.1810 H   0  0  0  0  0  0  0  0  0  0  0  0
   -5.1830   -2.8223   -1.9612 H   0  0  0  0  0  0  0  0  0  0  0  0
   -2.6005   -1.1001    1.0443 H   0  0  0  0  0  0  0  0  0  0  0  0
    0.8106    0.0092   -2.8046 H   0  0  0  0  0  0  0  0  0  0  0  0
  1  2  1  0
  2  3  2  0
  2  4  1  0
  4  5  2  0
  5  6  1  0
  6  7  2  0
  7  8  1  0
  8  9  2  0
  8 10  1  0
 10 11  2  0
 11 12  1  0
 12 13  2  0
 13 14  1  0
 14 15  1  0
 15 16  2  0
 15 17  2  0
 15 18  1  0
 18 19  2  0
 19 20  1  0
 20 21  2  0
 21 22  1  0
 22 23  2  0
 23 24  1  0
 24 25  2  0
 25 26  1  0
 26 27  2  0
 27 28  1  0
 28 29  2  0
 28 30  1  0
 30 31  3  0
 13 32  1  0
 32 33  2  0
  9  4  1  0
 33 10  1  0
 23 18  1  0
 29 24  1  0
  1 34  1  0
  1 35  1  0
  5 36  1  0
  6 37  1  0
  7 38  1  0
  9 39  1  0
 11 40  1  0
 12 41  1  0
 14 42  1  0
 19 43  1  0
 20 44  1  0
 21 45  1  0
 22 46  1  0
 25 47  1  0
 26 48  1  0
 27 49  1  0
 29 50  1  0
 32 51  1  0
M  END
$$$$
[H]/C(=N\OC([H])([H])[H])c1sc2c([H])nc([H])c(Oc3c([H])c([H])c(N([H])C(=O)/C([H])=C(\[H])c4c([H])c([H])c(OC([H])([H])[H])c(C(F)(F)F)c4[H])c([H])c3F)c2c1[H]
     RDKit          3D

 57 60  0  0  0  0  0  0  0  0999 V2000
   11.0298    3.7064    3.2014 C   0  0  0  0  0  0  0  0  0  0  0  0
    9.7106    4.2749    3.1881 O   0  0  0  0  0  0  0  0  0  0  0  0
    8.7528    3.4037    2.6354 N   0  0  0  0  0  0  0  0  0  0  0  0
    9.0512    2.5799    1.7368 C   0  0  0  0  0  0  0  0  0  0  0  0
    8.2126    1.6146    1.0522 C   0  0  0  0  0  0  0  0  0  0  0  0
    6.8632    1.3875    1.0707 C   0  0  0  0  0  0  0  0  0  0  0  0
    6.3729    0.3590    0.3393 C   0  0  0  0  0  0  0  0  0  0  0  0
    5.0387   -0.0400    0.2078 C   0  0  0  0  0  0  0  0  0  0  0  0
    3.9812    0.6639    0.8758 O   0  0  0  0  0  0  0  0  0  0  0  0
    2.6976    0.3080    0.4935 C   0  0  0  0  0  0  0  0  0  0  0  0
    1.8310   -0.3010    1.3404 C   0  0  0  0  0  0  0  0  0  0  0  0
    0.5751   -0.6850    0.9873 C   0  0  0  0  0  0  0  0  0  0  0  0
    0.1260   -0.4458   -0.3144 C   0  0  0  0  0  0  0  0  0  0  0  0
   -1.1237   -0.8101   -0.8049 N   0  0  0  0  0  0  0  0  0  0  0  0
   -2.2857   -1.1491   -1.2612 C   0  0  0  0  0  0  0  0  0  0  0  0
   -2.3991   -1.8313   -2.3951 O   0  0  0  0  0  0  0  0  0  0  0  0
   -3.6380   -0.8783   -0.6823 C   0  0  0  0  0  0  0  0  0  0  0  0
   -4.7019   -1.2891   -1.3125 C   0  0  0  0  0  0  0  0  0  0  0  0
   -6.0914   -1.1374   -0.9410 C   0  0  0  0  0  0  0  0  0  0  0  0
   -7.0965   -1.5587   -1.7455 C   0  0  0  0  0  0  0  0  0  0  0  0
   -8.4354   -1.4791   -1.5485 C   0  0  0  0  0  0  0  0  0  0  0  0
   -8.8435   -0.8629   -0.3175 C   0  0  0  0  0  0  0  0  0  0  0  0
  -10.2185   -0.7630   -0.0856 O   0  0  0  0  0  0  0  0  0  0  0  0
  -11.1079   -1.2660   -1.0655 C   0  0  0  0  0  0  0  0  0  0  0  0
   -7.8670   -0.4211    0.5307 C   0  0  0  0  0  0  0  0  0  0  0  0
   -6.4842   -0.5460    0.2443 C   0  0  0  0  0  0  0  0  0  0  0  0
   -8.3446    0.1992    1.8095 C   0  0  0  0  0  0  0  0  0  0  0  0
   -9.0788   -0.7870    2.4934 F   0  0  0  0  0  0  0  0  0  0  0  0
   -7.2688    0.5413    2.6150 F   0  0  0  0  0  0  0  0  0  0  0  0
   -9.1298    1.2948    1.6276 F   0  0  0  0  0  0  0  0  0  0  0  0
    1.0307    0.1939   -1.1768 C   0  0  0  0  0  0  0  0  0  0  0  0
    2.3043    0.5731   -0.7955 C   0  0  0  0  0  0  0  0  0  0  0  0
    3.0820    1.2002   -1.7318 F   0  0  0  0  0  0  0  0  0  0  0  0
    4.7283   -1.1205   -0.5884 C   0  0  0  0  0  0  0  0  0  0  0  0
    5.6354   -1.8473   -1.2818 N   0  0  0  0  0  0  0  0  0  0  0  0
    6.9126   -1.4793   -1.1751 C   0  0  0  0  0  0  0  0  0  0  0  0
    7.2763   -0.3836   -0.3690 C   0  0  0  0  0  0  0  0  0  0  0  0
    8.7664    0.3509   -0.0146 S   0  0  0  0  0  0  0  0  0  0  0  0
   10.9729    2.6112    3.4367 H   0  0  0  0  0  0  0  0  0  0  0  0
   11.7007    4.1778    3.9358 H   0  0  0  0  0  0  0  0  0  0  0  0
   11.5337    3.8169    2.2006 H   0  0  0  0  0  0  0  0  0  0  0  0
   10.1155    2.6154    1.4060 H   0  0  0  0  0  0  0  0  0  0  0  0
    6.2408    2.0698    1.7028 H   0  0  0  0  0  0  0  0  0  0  0  0
    2.1158   -0.5154    2.3967 H   0  0  0  0  0  0  0  0  0  0  0  0
   -0.1217   -1.1698    1.6345 H   0  0  0  0  0  0  0  0  0  0  0  0
   -0.4389   -1.7080   -1.6262 H   0  0  0  0  0  0  0  0  0  0  0  0
   -3.7757   -0.3451    0.2502 H   0  0  0  0  0  0  0  0  0  0  0  0
   -4.4818   -1.8160   -2.2743 H   0  0  0  0  0  0  0  0  0  0  0  0
   -6.7297   -2.0491   -2.7007 H   0  0  0  0  0  0  0  0  0  0  0  0
   -9.1567   -1.8306   -2.2274 H   0  0  0  0  0  0  0  0  0  0  0  0
  -11.1483   -2.3743   -1.0411 H   0  0  0  0  0  0  0  0  0  0  0  0
  -12.1525   -0.8999   -0.8942 H   0  0  0  0  0  0  0  0  0  0  0  0
  -10.8792   -0.9602   -2.1239 H   0  0  0  0  0  0  0  0  0  0  0  0
   -5.7765   -0.1775    0.9611 H   0  0  0  0  0  0  0  0  0  0  0  0
    0.7059    0.3935   -2.2011 H   0  0  0  0  0  0  0  0  0  0  0  0
    3.6744   -1.4375   -0.6319 H   0  0  0  0  0  0  0  0  0  0  0  0
    7.7375   -1.9708   -1.6758 H   0  0  0  0  0  0  0  0  0  0  0  0
  1  2  1  0
  2  3  1  0
  3  4  2  0
  4  5  1  0
  5  6  2  0
  6  7  1  0
  7  8  2  0
  8  9  1  0
  9 10  1  0
 10 11  2  0
 11 12  1  0
 12 13  2  0
 13 14  1  0
 14 15  1  0
 15 16  2  0
 15 17  1  0
 17 18  2  0
 18 19  1  0
 19 20  2  0
 20 21  1  0
 21 22  2  0
 22 23  1  0
 23 24  1  0
 22 25  1  0
 25 26  2  0
 25 27  1  0
 27 28  1  0
 27 29  1  0
 27 30  1  0
 13 31  1  0
 31 32  2  0
 32 33  1  0
  8 34  1  0
 34 35  2  0
 35 36  1  0
 36 37  2  0
 37 38  1  0
 38  5  1  0
 37  7  1  0
 32 10  1  0
 26 19  1  0
  1 39  1  0
  1 40  1  0
  1 41  1  0
  4 42  1  0
  6 43  1  0
 11 44  1  0
 12 45  1  0
 14 46  1  0
 17 47  1  0
 18 48  1  0
 20 49  1  0
 21 50  1  0
 24 51  1  0
 24 52  1  0
 24 53  1  0
 26 54  1  0
 31 55  1  0
 34 56  1  0
 36 57  1  0
M  END
$$$$
[H]c1nc([H])c(C([H])([H])C(=O)N2C([H])([H])C([H])([H])N(c3nc(C([H])([H])[H])c(C(=O)N([H])c4c(Cl)c([H])c([H])c([H])c4C([H])([H])[H])s3)C([H])([H])C2([H])[H])c([H])c1[H]
     RDKit          3D

 56 59  0  0  0  0  0  0  0  0999 V2000
   -2.9947    2.2536   -1.3109 C   0  0  0  0  0  0  0  0  0  0  0  0
   -2.1522    1.2507   -0.5493 C   0  0  0  0  0  0  0  0  0  0  0  0
   -0.8542    1.3052   -0.6129 N   0  0  0  0  0  0  0  0  0  0  0  0
   -0.1002    0.4663    0.0194 C   0  0  0  0  0  0  0  0  0  0  0  0
   -1.2767   -0.5294    0.8052 S   0  0  0  0  0  0  0  0  0  0  0  0
   -2.7067    0.2750    0.2112 C   0  0  0  0  0  0  0  0  0  0  0  0
   -4.0655   -0.1252    0.5486 C   0  0  0  0  0  0  0  0  0  0  0  0
   -4.2187   -1.1534    1.3336 O   0  0  0  0  0  0  0  0  0  0  0  0
   -5.2754    0.4465    0.1451 N   0  0  0  0  0  0  0  0  0  0  0  0
   -6.5477   -0.0475    0.5589 C   0  0  0  0  0  0  0  0  0  0  0  0
   -7.2188   -1.0200   -0.1419 C   0  0  0  0  0  0  0  0  0  0  0  0
   -6.6235   -1.6008   -1.3750 C   0  0  0  0  0  0  0  0  0  0  0  0
   -8.4653   -1.4572    0.3177 C   0  0  0  0  0  0  0  0  0  0  0  0
   -9.0257   -0.9276    1.4569 C   0  0  0  0  0  0  0  0  0  0  0  0
   -8.3564    0.0425    2.1546 C   0  0  0  0  0  0  0  0  0  0  0  0
   -7.1162    0.4730    1.6927 C   0  0  0  0  0  0  0  0  0  0  0  0
   -6.2503    1.7036    2.5747 Cl  0  0  0  0  0  0  0  0  0  0  0  0
    1.3286    0.3464    0.1215 N   0  0  0  0  0  0  0  0  0  0  0  0
    2.0818   -0.1708   -0.9681 C   0  0  0  0  0  0  0  0  0  0  0  0
    3.3710    0.5893   -1.2083 C   0  0  0  0  0  0  0  0  0  0  0  0
    3.9044    1.1582    0.0020 N   0  0  0  0  0  0  0  0  0  0  0  0
    3.0203    1.7734    0.9722 C   0  0  0  0  0  0  0  0  0  0  0  0
    1.9760    0.7416    1.3275 C   0  0  0  0  0  0  0  0  0  0  0  0
    5.2911    1.1429    0.2641 C   0  0  0  0  0  0  0  0  0  0  0  0
    5.6866    1.6243    1.3783 O   0  0  0  0  0  0  0  0  0  0  0  0
    6.3362    0.6155   -0.6453 C   0  0  0  0  0  0  0  0  0  0  0  0
    7.0283   -0.5738   -0.1251 C   0  0  0  0  0  0  0  0  0  0  0  0
    8.0751   -0.4896    0.7547 C   0  0  0  0  0  0  0  0  0  0  0  0
    8.6961   -1.6572    1.2084 C   0  0  0  0  0  0  0  0  0  0  0  0
    8.2594   -2.8734    0.7745 C   0  0  0  0  0  0  0  0  0  0  0  0
    7.2349   -2.9416   -0.0860 N   0  0  0  0  0  0  0  0  0  0  0  0
    6.6122   -1.8196   -0.5433 C   0  0  0  0  0  0  0  0  0  0  0  0
   -3.5697    2.8144   -0.5534 H   0  0  0  0  0  0  0  0  0  0  0  0
   -2.3469    3.0272   -1.8008 H   0  0  0  0  0  0  0  0  0  0  0  0
   -3.6621    1.7812   -2.0267 H   0  0  0  0  0  0  0  0  0  0  0  0
   -5.2937    1.2727   -0.4840 H   0  0  0  0  0  0  0  0  0  0  0  0
   -6.3937   -2.6800   -1.2333 H   0  0  0  0  0  0  0  0  0  0  0  0
   -7.4029   -1.5329   -2.1588 H   0  0  0  0  0  0  0  0  0  0  0  0
   -5.7509   -1.0453   -1.7181 H   0  0  0  0  0  0  0  0  0  0  0  0
   -8.9540   -2.2243   -0.2617 H   0  0  0  0  0  0  0  0  0  0  0  0
  -10.0077   -1.3056    1.7784 H   0  0  0  0  0  0  0  0  0  0  0  0
   -8.7902    0.4610    3.0483 H   0  0  0  0  0  0  0  0  0  0  0  0
    2.3039   -1.2411   -0.7523 H   0  0  0  0  0  0  0  0  0  0  0  0
    1.5241   -0.1674   -1.9275 H   0  0  0  0  0  0  0  0  0  0  0  0
    4.0721   -0.1441   -1.6422 H   0  0  0  0  0  0  0  0  0  0  0  0
    3.2548    1.4073   -1.9435 H   0  0  0  0  0  0  0  0  0  0  0  0
    3.5625    2.1542    1.8552 H   0  0  0  0  0  0  0  0  0  0  0  0
    2.4582    2.5937    0.4383 H   0  0  0  0  0  0  0  0  0  0  0  0
    1.2811    1.1004    2.1121 H   0  0  0  0  0  0  0  0  0  0  0  0
    2.5446   -0.1575    1.7101 H   0  0  0  0  0  0  0  0  0  0  0  0
    7.1159    1.4385   -0.7115 H   0  0  0  0  0  0  0  0  0  0  0  0
    5.9621    0.5264   -1.6767 H   0  0  0  0  0  0  0  0  0  0  0  0
    8.4073    0.4776    1.0883 H   0  0  0  0  0  0  0  0  0  0  0  0
    9.5325   -1.6039    1.9104 H   0  0  0  0  0  0  0  0  0  0  0  0
    8.7095   -3.8225    1.0940 H   0  0  0  0  0  0  0  0  0  0  0  0
    5.7893   -1.9510   -1.2389 H   0  0  0  0  0  0  0  0  0  0  0  0
  1  2  1  0
  2  3  1  0
  3  4  2  0
  4  5  1  0
  5  6  1  0
  6  7  1  0
  7  8  2  0
  7  9  1  0
  9 10  1  0
 10 11  2  0
 11 12  1  0
 11 13  1  0
 13 14  2  0
 14 15  1  0
 15 16  2  0
 16 17  1  0
  4 18  1  0
 18 19  1  0
 19 20  1  0
 20 21  1  0
 21 22  1  0
 22 23  1  0
 21 24  1  0
 24 25  2  0
 24 26  1  0
 26 27  1  0
 27 28  2  0
 28 29  1  0
 29 30  2  0
 30 31  1  0
 31 32  2  0
  6  2  2  0
 16 10  1  0
 23 18  1  0
 32 27  1  0
  1 33  1  0
  1 34  1  0
  1 35  1  0
  9 36  1  0
 12 37  1  0
 12 38  1  0
 12 39  1  0
 13 40  1  0
 14 41  1  0
 15 42  1  0
 19 43  1  0
 19 44  1  0
 20 45  1  0
 20 46  1  0
 22 47  1  0
 22 48  1  0
 23 49  1  0
 23 50  1  0
 26 51  1  0
 26 52  1  0
 28 53  1  0
 29 54  1  0
 30 55  1  0
 32 56  1  0
M  END
$$$$
[H]c1c([H])c(-c2nnc(N([H])C(=O)C3([H])C([H])([H])C3([H])[H])s2)c([H])c([H])c1OC([H])([H])c1c([H])c([H])c(C(F)(F)F)c([H])c1[H]
     RDKit          3D

 45 48  0  0  0  0  0  0  0  0999 V2000
   -9.6720    0.0808    2.0445 F   0  0  0  0  0  0  0  0  0  0  0  0
   -9.2421   -0.6413    0.9621 C   0  0  0  0  0  0  0  0  0  0  0  0
   -9.2227   -2.0265    1.2326 F   0  0  0  0  0  0  0  0  0  0  0  0
  -10.0811   -0.4244   -0.1230 F   0  0  0  0  0  0  0  0  0  0  0  0
   -7.8528   -0.1972    0.6498 C   0  0  0  0  0  0  0  0  0  0  0  0
   -6.8398   -0.6862    1.4215 C   0  0  0  0  0  0  0  0  0  0  0  0
   -5.5503   -0.2729    1.1414 C   0  0  0  0  0  0  0  0  0  0  0  0
   -5.2964    0.5999    0.1204 C   0  0  0  0  0  0  0  0  0  0  0  0
   -3.9172    1.0311   -0.1693 C   0  0  0  0  0  0  0  0  0  0  0  0
   -3.0349    0.0133    0.2613 O   0  0  0  0  0  0  0  0  0  0  0  0
   -1.6445    0.1449    0.0752 C   0  0  0  0  0  0  0  0  0  0  0  0
   -0.8417   -0.8932    0.5030 C   0  0  0  0  0  0  0  0  0  0  0  0
    0.5441   -0.7852    0.3216 C   0  0  0  0  0  0  0  0  0  0  0  0
    1.1358    0.2877   -0.2589 C   0  0  0  0  0  0  0  0  0  0  0  0
    0.3125    1.3440   -0.6932 C   0  0  0  0  0  0  0  0  0  0  0  0
   -1.0660    1.2272   -0.5030 C   0  0  0  0  0  0  0  0  0  0  0  0
    2.5624    0.4398   -0.5056 C   0  0  0  0  0  0  0  0  0  0  0  0
    3.2285    1.5046   -0.9482 N   0  0  0  0  0  0  0  0  0  0  0  0
    4.4609    1.4455   -1.0805 N   0  0  0  0  0  0  0  0  0  0  0  0
    5.1419    0.3202   -0.7830 C   0  0  0  0  0  0  0  0  0  0  0  0
    6.5637    0.1177   -0.8883 N   0  0  0  0  0  0  0  0  0  0  0  0
    7.0844   -1.1591   -0.6521 C   0  0  0  0  0  0  0  0  0  0  0  0
    6.3210   -2.1114   -0.3573 O   0  0  0  0  0  0  0  0  0  0  0  0
    8.5582   -1.3677   -0.7660 C   0  0  0  0  0  0  0  0  0  0  0  0
    9.3386   -0.8732    0.4341 C   0  0  0  0  0  0  0  0  0  0  0  0
    9.4623   -0.2563   -0.9996 C   0  0  0  0  0  0  0  0  0  0  0  0
    3.8474   -0.6631   -0.2875 S   0  0  0  0  0  0  0  0  0  0  0  0
   -6.3329    1.0936   -0.6648 C   0  0  0  0  0  0  0  0  0  0  0  0
   -7.6075    0.6948   -0.3941 C   0  0  0  0  0  0  0  0  0  0  0  0
   -7.0025   -1.3775    2.2455 H   0  0  0  0  0  0  0  0  0  0  0  0
   -4.7311   -0.6741    1.7555 H   0  0  0  0  0  0  0  0  0  0  0  0
   -3.7693    1.2865   -1.2467 H   0  0  0  0  0  0  0  0  0  0  0  0
   -3.6676    1.9388    0.4197 H   0  0  0  0  0  0  0  0  0  0  0  0
   -1.2823   -1.7616    0.9879 H   0  0  0  0  0  0  0  0  0  0  0  0
    1.1737   -1.6153    0.6692 H   0  0  0  0  0  0  0  0  0  0  0  0
    0.7801    2.1877   -1.1538 H   0  0  0  0  0  0  0  0  0  0  0  0
   -1.6942    2.0391   -0.8432 H   0  0  0  0  0  0  0  0  0  0  0  0
    7.1150    0.9368   -1.1321 H   0  0  0  0  0  0  0  0  0  0  0  0
    8.7817   -2.4469   -0.9417 H   0  0  0  0  0  0  0  0  0  0  0  0
    8.7793   -0.2697    1.1709 H   0  0  0  0  0  0  0  0  0  0  0  0
   10.2208   -1.4505    0.7786 H   0  0  0  0  0  0  0  0  0  0  0  0
   10.4330   -0.3857   -1.5072 H   0  0  0  0  0  0  0  0  0  0  0  0
    9.1165    0.8022   -1.0787 H   0  0  0  0  0  0  0  0  0  0  0  0
   -6.1375    1.7677   -1.4718 H   0  0  0  0  0  0  0  0  0  0  0  0
   -8.4753    1.0351   -0.9428 H   0  0  0  0  0  0  0  0  0  0  0  0
  1  2  1  0
  2  3  1  0
  2  4  1  0
  2  5  1  0
  5  6  2  0
  6  7  1  0
  7  8  2  0
  8  9  1  0
  9 10  1  0
 10 11  1  0
 11 12  2  0
 12 13  1  0
 13 14  2  0
 14 15  1  0
 15 16  2  0
 14 17  1  0
 17 18  2  0
 18 19  1  0
 19 20  2  0
 20 21  1  0
 21 22  1  0
 22 23  2  0
 22 24  1  0
 24 25  1  0
 25 26  1  0
 20 27  1  0
  8 28  1  0
 28 29  2  0
 29  5  1  0
 16 11  1  0
 27 17  1  0
 26 24  1  0
  6 30  1  0
  7 31  1  0
  9 32  1  0
  9 33  1  0
 12 34  1  0
 13 35  1  0
 15 36  1  0
 16 37  1  0
 21 38  1  0
 24 39  1  0
 25 40  1  0
 25 41  1  0
 26 42  1  0
 26 43  1  0
 28 44  1  0
 29 45  1  0
M  END
$$$$
[H]OC([H])([H])[C@]1([H])C([H])([H])[C@@]([H])(N([H])c2nc([H])c(Cl)c3sc(-c4c([H])c([H])nc([C@@]5([H])C([H])([H])[C@]([H])(O[H])C([H])([H])[C@](O[H])(C([H])([H])[H])C5([H])[H])c4[H])c([H])c23)C1([H])[H]
     RDKit          3D

 60 64  0  0  0  0  0  0  0  0999 V2000
   -7.4176    1.7069   -0.8041 C   0  0  0  0  0  0  0  0  0  0  0  0
   -6.6025    0.8331    0.1552 C   0  0  1  0  0  0  0  0  0  0  0  0
   -6.2506    1.6391    1.2159 O   0  0  0  0  0  0  0  0  0  0  0  0
   -7.4635   -0.3271    0.5814 C   0  0  0  0  0  0  0  0  0  0  0  0
   -6.6409   -1.5530    0.8815 C   0  0  1  0  0  0  0  0  0  0  0  0
   -6.6063   -2.4002   -0.2229 O   0  0  0  0  0  0  0  0  0  0  0  0
   -5.2732   -1.1632    1.3417 C   0  0  0  0  0  0  0  0  0  0  0  0
   -4.5181   -0.5762    0.1658 C   0  0  1  0  0  0  0  0  0  0  0  0
   -5.4391    0.3104   -0.6332 C   0  0  0  0  0  0  0  0  0  0  0  0
   -3.2901    0.1257    0.5916 C   0  0  0  0  0  0  0  0  0  0  0  0
   -2.0588   -0.3596    0.1425 C   0  0  0  0  0  0  0  0  0  0  0  0
   -0.8783    0.2308    0.4897 C   0  0  0  0  0  0  0  0  0  0  0  0
   -0.8799    1.3211    1.2931 C   0  0  0  0  0  0  0  0  0  0  0  0
   -2.1184    1.7888    1.7297 C   0  0  0  0  0  0  0  0  0  0  0  0
   -3.2711    1.1967    1.3791 N   0  0  0  0  0  0  0  0  0  0  0  0
    0.3608   -0.3746   -0.0483 C   0  0  0  0  0  0  0  0  0  0  0  0
    1.6515    0.0333    0.1562 C   0  0  0  0  0  0  0  0  0  0  0  0
    2.6298   -0.6731   -0.4370 C   0  0  0  0  0  0  0  0  0  0  0  0
    4.0219   -0.4534   -0.3785 C   0  0  0  0  0  0  0  0  0  0  0  0
    4.5647    0.6273    0.3586 N   0  0  0  0  0  0  0  0  0  0  0  0
    5.9359    0.9646    0.5226 C   0  0  2  0  0  0  0  0  0  0  0  0
    6.7612    1.1160   -0.7053 C   0  0  0  0  0  0  0  0  0  0  0  0
    7.7147    0.0721   -0.1934 C   0  0  1  0  0  0  0  0  0  0  0  0
    9.0503    0.6621    0.2545 C   0  0  0  0  0  0  0  0  0  0  0  0
    9.6854    1.3066   -0.7792 O   0  0  0  0  0  0  0  0  0  0  0  0
    6.8180   -0.1490    0.9968 C   0  0  0  0  0  0  0  0  0  0  0  0
    4.8393   -1.2587   -1.0325 N   0  0  0  0  0  0  0  0  0  0  0  0
    4.5321   -2.3090   -1.7833 C   0  0  0  0  0  0  0  0  0  0  0  0
    3.1554   -2.5695   -1.8730 C   0  0  0  0  0  0  0  0  0  0  0  0
    2.5290   -3.9050   -2.8105 Cl  0  0  0  0  0  0  0  0  0  0  0  0
    2.2464   -1.7435   -1.1970 C   0  0  0  0  0  0  0  0  0  0  0  0
    0.5476   -1.7328   -1.0629 S   0  0  0  0  0  0  0  0  0  0  0  0
   -6.6924    2.2712   -1.4292 H   0  0  0  0  0  0  0  0  0  0  0  0
   -7.9589    1.0198   -1.4699 H   0  0  0  0  0  0  0  0  0  0  0  0
   -8.0452    2.3862   -0.2228 H   0  0  0  0  0  0  0  0  0  0  0  0
   -7.0647    1.9703    1.6354 H   0  0  0  0  0  0  0  0  0  0  0  0
   -8.0050   -0.0391    1.5035 H   0  0  0  0  0  0  0  0  0  0  0  0
   -8.2101   -0.5034   -0.2154 H   0  0  0  0  0  0  0  0  0  0  0  0
   -7.1317   -2.1232    1.6994 H   0  0  0  0  0  0  0  0  0  0  0  0
   -5.9772   -3.1335   -0.0921 H   0  0  0  0  0  0  0  0  0  0  0  0
   -4.7243   -2.0875    1.6341 H   0  0  0  0  0  0  0  0  0  0  0  0
   -5.3386   -0.4471    2.1581 H   0  0  0  0  0  0  0  0  0  0  0  0
   -4.2537   -1.4342   -0.4845 H   0  0  0  0  0  0  0  0  0  0  0  0
   -5.8516   -0.2279   -1.5116 H   0  0  0  0  0  0  0  0  0  0  0  0
   -4.8380    1.1583   -1.0737 H   0  0  0  0  0  0  0  0  0  0  0  0
   -2.0563   -1.2234   -0.4940 H   0  0  0  0  0  0  0  0  0  0  0  0
    0.0501    1.8017    1.5780 H   0  0  0  0  0  0  0  0  0  0  0  0
   -2.0836    2.6742    2.3794 H   0  0  0  0  0  0  0  0  0  0  0  0
    1.8195    0.9265    0.8017 H   0  0  0  0  0  0  0  0  0  0  0  0
    3.8510    1.2458    0.8365 H   0  0  0  0  0  0  0  0  0  0  0  0
    6.0512    1.8949    1.1656 H   0  0  0  0  0  0  0  0  0  0  0  0
    6.3043    0.7672   -1.6593 H   0  0  0  0  0  0  0  0  0  0  0  0
    7.2594    2.1168   -0.8178 H   0  0  0  0  0  0  0  0  0  0  0  0
    7.8354   -0.8293   -0.8324 H   0  0  0  0  0  0  0  0  0  0  0  0
    9.6825   -0.1580    0.6348 H   0  0  0  0  0  0  0  0  0  0  0  0
    8.8883    1.3748    1.0845 H   0  0  0  0  0  0  0  0  0  0  0  0
    9.2999    2.2121   -0.8663 H   0  0  0  0  0  0  0  0  0  0  0  0
    7.3164    0.0761    1.9821 H   0  0  0  0  0  0  0  0  0  0  0  0
    6.3118   -1.1347    0.9934 H   0  0  0  0  0  0  0  0  0  0  0  0
    5.2260   -2.9413   -2.3007 H   0  0  0  0  0  0  0  0  0  0  0  0
  1  2  1  0
  2  3  1  1
  2  4  1  0
  4  5  1  0
  5  6  1  0
  5  7  1  0
  7  8  1  0
  8  9  1  0
  8 10  1  0
 10 11  2  0
 11 12  1  0
 12 13  2  0
 13 14  1  0
 14 15  2  0
 12 16  1  0
 16 17  2  0
 17 18  1  0
 18 19  2  0
 19 20  1  0
 20 21  1  0
 21 22  1  0
 22 23  1  0
 23 24  1  0
 24 25  1  0
 23 26  1  0
 19 27  1  0
 27 28  2  0
 28 29  1  0
 29 30  1  0
 29 31  2  0
 31 32  1  0
  9  2  1  0
 15 10  1  0
 32 16  1  0
 31 18  1  0
 26 21  1  0
  1 33  1  0
  1 34  1  0
  1 35  1  0
  3 36  1  0
  4 37  1  0
  4 38  1  0
  5 39  1  1
  6 40  1  0
  7 41  1  0
  7 42  1  0
  8 43  1  6
  9 44  1  0
  9 45  1  0
 11 46  1  0
 13 47  1  0
 14 48  1  0
 17 49  1  0
 20 50  1  0
 21 51  1  1
 22 52  1  0
 22 53  1  0
 23 54  1  6
 24 55  1  0
 24 56  1  0
 25 57  1  0
 26 58  1  0
 26 59  1  0
 28 60  1  0
M  END
$$$$
[H]c1nc(N([H])C([H])([H])c2c([H])c([H])c3c(c2[H])c([H])c(-c2c([H])n(C([H])(C([H])([H])[H])C([H])([H])[H])c4c([H])nc(N([H])[H])nc24)n3[H])nc([H])c1Br
     RDKit          3D

 52 56  0  0  0  0  0  0  0  0999 V2000
   -5.7936    2.1189    2.0054 C   0  0  0  0  0  0  0  0  0  0  0  0
   -5.2692    2.2066    0.5667 C   0  0  0  0  0  0  0  0  0  0  0  0
   -6.4286    2.2911   -0.3973 C   0  0  0  0  0  0  0  0  0  0  0  0
   -4.3725    1.1354    0.2671 N   0  0  0  0  0  0  0  0  0  0  0  0
   -3.0390    1.2491    0.1031 C   0  0  0  0  0  0  0  0  0  0  0  0
   -2.4853    0.0341   -0.1730 C   0  0  0  0  0  0  0  0  0  0  0  0
   -1.0822   -0.2667   -0.4149 C   0  0  0  0  0  0  0  0  0  0  0  0
   -0.0527    0.6491   -0.4050 C   0  0  0  0  0  0  0  0  0  0  0  0
    1.1187    0.0051   -0.6717 C   0  0  0  0  0  0  0  0  0  0  0  0
    2.4360    0.4363   -0.7812 C   0  0  0  0  0  0  0  0  0  0  0  0
    3.4231   -0.4857   -1.0684 C   0  0  0  0  0  0  0  0  0  0  0  0
    4.8283   -0.0426   -1.1880 C   0  0  0  0  0  0  0  0  0  0  0  0
    5.4821   -0.1120    0.0947 N   0  0  0  0  0  0  0  0  0  0  0  0
    6.8457    0.2654    0.2338 C   0  0  0  0  0  0  0  0  0  0  0  0
    7.4463    0.1995    1.4228 N   0  0  0  0  0  0  0  0  0  0  0  0
    8.7284    0.5439    1.6041 C   0  0  0  0  0  0  0  0  0  0  0  0
    9.4581    0.9827    0.5277 C   0  0  0  0  0  0  0  0  0  0  0  0
   11.2830    1.4776    0.7632 Br  0  0  0  0  0  0  0  0  0  0  0  0
    8.8294    1.0485   -0.7014 C   0  0  0  0  0  0  0  0  0  0  0  0
    7.5427    0.6929   -0.8348 N   0  0  0  0  0  0  0  0  0  0  0  0
    3.1112   -1.8238   -1.2462 C   0  0  0  0  0  0  0  0  0  0  0  0
    1.8013   -2.2477   -1.1366 C   0  0  0  0  0  0  0  0  0  0  0  0
    0.7947   -1.3414   -0.8493 C   0  0  0  0  0  0  0  0  0  0  0  0
   -0.5344   -1.4600   -0.6866 N   0  0  0  0  0  0  0  0  0  0  0  0
   -3.5389   -0.8587   -0.1757 C   0  0  0  0  0  0  0  0  0  0  0  0
   -3.6090   -2.1870   -0.3850 N   0  0  0  0  0  0  0  0  0  0  0  0
   -4.7864   -2.8349   -0.3303 C   0  0  0  0  0  0  0  0  0  0  0  0
   -4.7843   -4.2429   -0.5626 N   0  0  0  0  0  0  0  0  0  0  0  0
   -5.9104   -2.1457   -0.0627 N   0  0  0  0  0  0  0  0  0  0  0  0
   -5.9055   -0.8321    0.1531 C   0  0  0  0  0  0  0  0  0  0  0  0
   -4.6969   -0.1655    0.0972 C   0  0  0  0  0  0  0  0  0  0  0  0
   -6.0679    1.0997    2.2818 H   0  0  0  0  0  0  0  0  0  0  0  0
   -5.0615    2.5964    2.6770 H   0  0  0  0  0  0  0  0  0  0  0  0
   -6.7094    2.7613    2.0204 H   0  0  0  0  0  0  0  0  0  0  0  0
   -4.7219    3.1686    0.5172 H   0  0  0  0  0  0  0  0  0  0  0  0
   -6.4559    3.2723   -0.9142 H   0  0  0  0  0  0  0  0  0  0  0  0
   -7.3742    2.2175    0.1773 H   0  0  0  0  0  0  0  0  0  0  0  0
   -6.3637    1.5257   -1.1978 H   0  0  0  0  0  0  0  0  0  0  0  0
   -2.4439    2.1655    0.1726 H   0  0  0  0  0  0  0  0  0  0  0  0
   -0.1568    1.7285   -0.2128 H   0  0  0  0  0  0  0  0  0  0  0  0
    2.6158    1.4846   -0.6330 H   0  0  0  0  0  0  0  0  0  0  0  0
    5.3575   -0.7134   -1.8966 H   0  0  0  0  0  0  0  0  0  0  0  0
    4.8835    0.9785   -1.6285 H   0  0  0  0  0  0  0  0  0  0  0  0
    4.9763   -0.4371    0.9428 H   0  0  0  0  0  0  0  0  0  0  0  0
    9.1650    0.4713    2.5880 H   0  0  0  0  0  0  0  0  0  0  0  0
    9.4214    1.3972   -1.5390 H   0  0  0  0  0  0  0  0  0  0  0  0
    3.9146   -2.4908   -1.4663 H   0  0  0  0  0  0  0  0  0  0  0  0
    1.5779   -3.3106   -1.2812 H   0  0  0  0  0  0  0  0  0  0  0  0
   -1.0381   -2.3654   -0.7668 H   0  0  0  0  0  0  0  0  0  0  0  0
   -4.7020   -4.6696   -1.5114 H   0  0  0  0  0  0  0  0  0  0  0  0
   -4.8678   -4.9223    0.2365 H   0  0  0  0  0  0  0  0  0  0  0  0
   -6.7888   -0.2473    0.3706 H   0  0  0  0  0  0  0  0  0  0  0  0
  1  2  1  0
  2  3  1  0
  2  4  1  0
  4  5  1  0
  5  6  2  0
  6  7  1  0
  7  8  2  0
  8  9  1  0
  9 10  2  0
 10 11  1  0
 11 12  1  0
 12 13  1  0
 13 14  1  0
 14 15  2  0
 15 16  1  0
 16 17  2  0
 17 18  1  0
 17 19  1  0
 19 20  2  0
 11 21  2  0
 21 22  1  0
 22 23  2  0
 23 24  1  0
  6 25  1  0
 25 26  2  0
 26 27  1  0
 27 28  1  0
 27 29  2  0
 29 30  1  0
 30 31  2  0
 31  4  1  0
 24  7  1  0
 31 25  1  0
 23  9  1  0
 20 14  1  0
  1 32  1  0
  1 33  1  0
  1 34  1  0
  2 35  1  0
  3 36  1  0
  3 37  1  0
  3 38  1  0
  5 39  1  0
  8 40  1  0
 10 41  1  0
 12 42  1  0
 12 43  1  0
 13 44  1  0
 16 45  1  0
 19 46  1  0
 21 47  1  0
 22 48  1  0
 24 49  1  0
 28 50  1  0
 28 51  1  0
 30 52  1  0
M  END
$$$$
[H]c1nc(N([H])c2c([H])c(N([H])C(=O)c3c([H])c([H])c(C([H])([H])N4C([H])([H])C([H])([H])N(C([H])([H])[H])C([H])([H])C4([H])[H])c([H])c3[H])c([H])c([H])c2C([H])([H])[H])nc(-c2c([H])nc([H])c([H])c2[H])c1[H]
     RDKit          3D

 68 72  0  0  0  0  0  0  0  0999 V2000
   -8.7479    3.4266    0.9293 C   0  0  0  0  0  0  0  0  0  0  0  0
   -7.3650    2.9906    0.9461 N   0  0  0  0  0  0  0  0  0  0  0  0
   -6.6451    3.4513   -0.2269 C   0  0  0  0  0  0  0  0  0  0  0  0
   -6.5764    2.2780   -1.1806 C   0  0  0  0  0  0  0  0  0  0  0  0
   -5.6380    1.2558   -0.6870 N   0  0  0  0  0  0  0  0  0  0  0  0
   -4.2736    1.6578   -1.0098 C   0  0  0  0  0  0  0  0  0  0  0  0
   -3.2946    0.6359   -0.5726 C   0  0  0  0  0  0  0  0  0  0  0  0
   -2.0253    1.0618   -0.2539 C   0  0  0  0  0  0  0  0  0  0  0  0
   -1.0453    0.1713    0.1570 C   0  0  0  0  0  0  0  0  0  0  0  0
   -1.3755   -1.1564    0.2384 C   0  0  0  0  0  0  0  0  0  0  0  0
   -2.6567   -1.5624   -0.0864 C   0  0  0  0  0  0  0  0  0  0  0  0
   -3.6359   -0.6917   -0.4943 C   0  0  0  0  0  0  0  0  0  0  0  0
   -0.3686   -2.1375    0.6612 C   0  0  0  0  0  0  0  0  0  0  0  0
   -0.8262   -3.2557    0.9933 O   0  0  0  0  0  0  0  0  0  0  0  0
    0.9922   -1.8076    0.6770 N   0  0  0  0  0  0  0  0  0  0  0  0
    2.0504   -2.6623    1.0701 C   0  0  0  0  0  0  0  0  0  0  0  0
    1.8977   -3.8196    1.7948 C   0  0  0  0  0  0  0  0  0  0  0  0
    2.9989   -4.6090    2.1159 C   0  0  0  0  0  0  0  0  0  0  0  0
    4.2721   -4.2912    1.7405 C   0  0  0  0  0  0  0  0  0  0  0  0
    5.4062   -5.1875    2.1222 C   0  0  0  0  0  0  0  0  0  0  0  0
    4.4689   -3.1165    0.9995 C   0  0  0  0  0  0  0  0  0  0  0  0
    5.7802   -2.8139    0.6265 N   0  0  0  0  0  0  0  0  0  0  0  0
    6.3053   -1.7281   -0.1008 C   0  0  0  0  0  0  0  0  0  0  0  0
    7.6596   -1.6724   -0.3330 N   0  0  0  0  0  0  0  0  0  0  0  0
    8.2649   -0.7078   -0.9985 C   0  0  0  0  0  0  0  0  0  0  0  0
    7.5107    0.3436   -1.5163 C   0  0  0  0  0  0  0  0  0  0  0  0
    6.1516    0.3040   -1.2930 C   0  0  0  0  0  0  0  0  0  0  0  0
    5.6123   -0.7167   -0.6035 N   0  0  0  0  0  0  0  0  0  0  0  0
    5.2995    1.3880   -1.8159 C   0  0  0  0  0  0  0  0  0  0  0  0
    3.9372    1.3924   -1.6203 C   0  0  0  0  0  0  0  0  0  0  0  0
    3.1716    2.4275   -2.1260 C   0  0  0  0  0  0  0  0  0  0  0  0
    3.7421    3.4579   -2.8234 C   0  0  0  0  0  0  0  0  0  0  0  0
    5.0550    3.4524   -3.0112 N   0  0  0  0  0  0  0  0  0  0  0  0
    5.8318    2.4362   -2.5183 C   0  0  0  0  0  0  0  0  0  0  0  0
    3.3751   -2.3514    0.6918 C   0  0  0  0  0  0  0  0  0  0  0  0
   -5.8097    1.1620    0.7622 C   0  0  0  0  0  0  0  0  0  0  0  0
   -7.2387    1.5701    1.1168 C   0  0  0  0  0  0  0  0  0  0  0  0
   -9.1142    3.5221    1.9808 H   0  0  0  0  0  0  0  0  0  0  0  0
   -9.3769    2.7072    0.3676 H   0  0  0  0  0  0  0  0  0  0  0  0
   -8.7643    4.4440    0.4847 H   0  0  0  0  0  0  0  0  0  0  0  0
   -5.6344    3.7578    0.0558 H   0  0  0  0  0  0  0  0  0  0  0  0
   -7.1406    4.3081   -0.7102 H   0  0  0  0  0  0  0  0  0  0  0  0
   -6.1750    2.5841   -2.1694 H   0  0  0  0  0  0  0  0  0  0  0  0
   -7.5469    1.7926   -1.3113 H   0  0  0  0  0  0  0  0  0  0  0  0
   -4.0371    2.6053   -0.4506 H   0  0  0  0  0  0  0  0  0  0  0  0
   -4.1471    1.8144   -2.0969 H   0  0  0  0  0  0  0  0  0  0  0  0
   -1.7746    2.1248   -0.3233 H   0  0  0  0  0  0  0  0  0  0  0  0
   -0.0855    0.5909    0.3886 H   0  0  0  0  0  0  0  0  0  0  0  0
   -2.8828   -2.6144   -0.0116 H   0  0  0  0  0  0  0  0  0  0  0  0
   -4.6466   -1.0312   -0.7500 H   0  0  0  0  0  0  0  0  0  0  0  0
    1.2887   -0.8278    0.3716 H   0  0  0  0  0  0  0  0  0  0  0  0
    0.9348   -4.1347    2.1386 H   0  0  0  0  0  0  0  0  0  0  0  0
    2.8613   -5.5326    2.6959 H   0  0  0  0  0  0  0  0  0  0  0  0
    5.0687   -5.9213    2.8820 H   0  0  0  0  0  0  0  0  0  0  0  0
    6.2218   -4.6050    2.6395 H   0  0  0  0  0  0  0  0  0  0  0  0
    5.8132   -5.7440    1.2725 H   0  0  0  0  0  0  0  0  0  0  0  0
    6.5390   -3.5258    0.9416 H   0  0  0  0  0  0  0  0  0  0  0  0
    9.3489   -0.6840   -1.1721 H   0  0  0  0  0  0  0  0  0  0  0  0
    7.9899    1.1420   -2.0641 H   0  0  0  0  0  0  0  0  0  0  0  0
    3.4963    0.5760   -1.0694 H   0  0  0  0  0  0  0  0  0  0  0  0
    2.0921    2.3921   -1.9481 H   0  0  0  0  0  0  0  0  0  0  0  0
    3.1033    4.2511   -3.2035 H   0  0  0  0  0  0  0  0  0  0  0  0
    6.8769    2.5525   -2.7398 H   0  0  0  0  0  0  0  0  0  0  0  0
    3.4595   -1.4371    0.1220 H   0  0  0  0  0  0  0  0  0  0  0  0
   -5.0883    1.8684    1.2308 H   0  0  0  0  0  0  0  0  0  0  0  0
   -5.5964    0.1363    1.1045 H   0  0  0  0  0  0  0  0  0  0  0  0
   -7.3999    1.3363    2.1888 H   0  0  0  0  0  0  0  0  0  0  0  0
   -7.9447    0.9768    0.5168 H   0  0  0  0  0  0  0  0  0  0  0  0
  1  2  1  0
  2  3  1  0
  3  4  1  0
  4  5  1  0
  5  6  1  0
  6  7  1  0
  7  8  2  0
  8  9  1  0
  9 10  2  0
 10 11  1  0
 11 12  2  0
 10 13  1  0
 13 14  2  0
 13 15  1  0
 15 16  1  0
 16 17  2  0
 17 18  1  0
 18 19  2  0
 19 20  1  0
 19 21  1  0
 21 22  1  0
 22 23  1  0
 23 24  2  0
 24 25  1  0
 25 26  2  0
 26 27  1  0
 27 28  2  0
 27 29  1  0
 29 30  2  0
 30 31  1  0
 31 32  2  0
 32 33  1  0
 33 34  2  0
 21 35  2  0
  5 36  1  0
 36 37  1  0
 37  2  1  0
 12  7  1  0
 35 16  1  0
 28 23  1  0
 34 29  1  0
  1 38  1  0
  1 39  1  0
  1 40  1  0
  3 41  1  0
  3 42  1  0
  4 43  1  0
  4 44  1  0
  6 45  1  0
  6 46  1  0
  8 47  1  0
  9 48  1  0
 11 49  1  0
 12 50  1  0
 15 51  1  0
 17 52  1  0
 18 53  1  0
 20 54  1  0
 20 55  1  0
 20 56  1  0
 22 57  1  0
 25 58  1  0
 26 59  1  0
 30 60  1  0
 31 61  1  0
 32 62  1  0
 34 63  1  0
 35 64  1  0
 36 65  1  0
 36 66  1  0
 37 67  1  0
 37 68  1  0
M  END
$$$$
[H]O/N=C(/[H])n1nc(C(=O)OC([H])([H])C([H])([H])[H])c2c1C([H])([H])C([H])([H])C([H])([H])C2([H])[H]
     RDKit          3D

 32 33  0  0  0  0  0  0  0  0999 V2000
    5.1517    0.9961    0.1845 C   0  0  0  0  0  0  0  0  0  0  0  0
    4.1920   -0.1600    0.0643 C   0  0  0  0  0  0  0  0  0  0  0  0
    2.8746    0.3791    0.1017 O   0  0  0  0  0  0  0  0  0  0  0  0
    1.7910   -0.4730    0.0091 C   0  0  0  0  0  0  0  0  0  0  0  0
    2.0019   -1.6883   -0.1044 O   0  0  0  0  0  0  0  0  0  0  0  0
    0.4278    0.0940    0.0486 C   0  0  0  0  0  0  0  0  0  0  0  0
    0.0814    1.3781    0.1672 N   0  0  0  0  0  0  0  0  0  0  0  0
   -1.2186    1.4960    0.1647 N   0  0  0  0  0  0  0  0  0  0  0  0
   -2.0037    2.6994    0.2709 C   0  0  0  0  0  0  0  0  0  0  0  0
   -1.6343    3.7826   -0.2804 N   0  0  0  0  0  0  0  0  0  0  0  0
   -0.4500    3.7879   -0.9940 O   0  0  0  0  0  0  0  0  0  0  0  0
   -1.7591    0.2719    0.0424 C   0  0  0  0  0  0  0  0  0  0  0  0
   -3.2022   -0.1833   -0.0158 C   0  0  0  0  0  0  0  0  0  0  0  0
   -3.1949   -1.5372    0.7080 C   0  0  0  0  0  0  0  0  0  0  0  0
   -2.4193   -2.4626   -0.1685 C   0  0  0  0  0  0  0  0  0  0  0  0
   -0.9709   -2.1252   -0.1778 C   0  0  0  0  0  0  0  0  0  0  0  0
   -0.7368   -0.6430   -0.0339 C   0  0  0  0  0  0  0  0  0  0  0  0
    4.6651    1.7596    0.8350 H   0  0  0  0  0  0  0  0  0  0  0  0
    6.0642    0.5970    0.7000 H   0  0  0  0  0  0  0  0  0  0  0  0
    5.4127    1.4174   -0.8244 H   0  0  0  0  0  0  0  0  0  0  0  0
    4.3143   -0.8894    0.8864 H   0  0  0  0  0  0  0  0  0  0  0  0
    4.3934   -0.6832   -0.8935 H   0  0  0  0  0  0  0  0  0  0  0  0
   -2.9282    2.6737    0.8345 H   0  0  0  0  0  0  0  0  0  0  0  0
   -0.4649    3.3870   -1.9174 H   0  0  0  0  0  0  0  0  0  0  0  0
   -3.7905    0.5652    0.5132 H   0  0  0  0  0  0  0  0  0  0  0  0
   -3.4822   -0.3190   -1.0836 H   0  0  0  0  0  0  0  0  0  0  0  0
   -4.2150   -1.8453    0.9209 H   0  0  0  0  0  0  0  0  0  0  0  0
   -2.5878   -1.3548    1.6351 H   0  0  0  0  0  0  0  0  0  0  0  0
   -2.8027   -2.3159   -1.2196 H   0  0  0  0  0  0  0  0  0  0  0  0
   -2.5779   -3.5135    0.1435 H   0  0  0  0  0  0  0  0  0  0  0  0
   -0.4504   -2.6852    0.6286 H   0  0  0  0  0  0  0  0  0  0  0  0
   -0.4805   -2.4061   -1.1455 H   0  0  0  0  0  0  0  0  0  0  0  0
  1  2  1  0
  2  3  1  0
  3  4  1  0
  4  5  2  0
  4  6  1  0
  6  7  2  0
  7  8  1  0
  8  9  1  0
  9 10  2  0
 10 11  1  0
  8 12  1  0
 12 13  1  0
 13 14  1  0
 14 15  1  0
 15 16  1  0
 16 17  1  0
 17  6  1  0
 17 12  2  0
  1 18  1  0
  1 19  1  0
  1 20  1  0
  2 21  1  0
  2 22  1  0
  9 23  1  0
 11 24  1  0
 13 25  1  0
 13 26  1  0
 14 27  1  0
 14 28  1  0
 15 29  1  0
 15 30  1  0
 16 31  1  0
 16 32  1  0
M  END
$$$$
[H]c1nc(N([H])c2nc(OC([H])([H])C([H])([H])OC([H])([H])[H])nc3c2nc([H])n3C([H])(C([H])([H])[H])C([H])([H])C([H])([H])[H])sc1[H]
     RDKit          3D

 44 46  0  0  0  0  0  0  0  0999 V2000
    4.2432   -3.2150   -0.1748 C   0  0  0  0  0  0  0  0  0  0  0  0
    4.6820   -2.2082   -1.0123 O   0  0  0  0  0  0  0  0  0  0  0  0
    4.1887   -0.9894   -0.5983 C   0  0  0  0  0  0  0  0  0  0  0  0
    2.6951   -0.8708   -0.5914 C   0  0  0  0  0  0  0  0  0  0  0  0
    2.3445    0.4290   -0.1499 O   0  0  0  0  0  0  0  0  0  0  0  0
    0.9925    0.8162   -0.0469 C   0  0  0  0  0  0  0  0  0  0  0  0
    0.6624    2.0511    0.3725 N   0  0  0  0  0  0  0  0  0  0  0  0
   -0.6148    2.4715    0.4887 C   0  0  0  0  0  0  0  0  0  0  0  0
   -0.9626    3.7672    0.9288 N   0  0  0  0  0  0  0  0  0  0  0  0
    0.0393    4.7405    1.2882 C   0  0  0  0  0  0  0  0  0  0  0  0
    1.3588    4.6062    1.2719 N   0  0  0  0  0  0  0  0  0  0  0  0
    2.1124    5.5902    1.6293 C   0  0  0  0  0  0  0  0  0  0  0  0
    1.5022    6.7569    2.0188 C   0  0  0  0  0  0  0  0  0  0  0  0
   -0.1488    6.3460    1.8390 S   0  0  0  0  0  0  0  0  0  0  0  0
   -1.5935    1.5627    0.1521 C   0  0  0  0  0  0  0  0  0  0  0  0
   -2.9440    1.6171    0.1401 N   0  0  0  0  0  0  0  0  0  0  0  0
   -3.4561    0.4455   -0.2767 C   0  0  0  0  0  0  0  0  0  0  0  0
   -2.4364   -0.3645   -0.5335 N   0  0  0  0  0  0  0  0  0  0  0  0
   -2.5808   -1.7230   -1.0065 C   0  0  0  0  0  0  0  0  0  0  0  0
   -3.5582   -2.4129   -0.0670 C   0  0  0  0  0  0  0  0  0  0  0  0
   -3.7971   -3.8518   -0.4560 C   0  0  0  0  0  0  0  0  0  0  0  0
   -1.2854   -2.4872   -0.9938 C   0  0  0  0  0  0  0  0  0  0  0  0
   -1.2906    0.2889   -0.2814 C   0  0  0  0  0  0  0  0  0  0  0  0
    0.0020   -0.0382   -0.3650 N   0  0  0  0  0  0  0  0  0  0  0  0
    4.6162   -2.9458    0.8569 H   0  0  0  0  0  0  0  0  0  0  0  0
    3.1690   -3.3656   -0.1200 H   0  0  0  0  0  0  0  0  0  0  0  0
    4.7645   -4.1516   -0.4996 H   0  0  0  0  0  0  0  0  0  0  0  0
    4.6588   -0.2132   -1.2632 H   0  0  0  0  0  0  0  0  0  0  0  0
    4.5913   -0.7780    0.4317 H   0  0  0  0  0  0  0  0  0  0  0  0
    2.1705   -1.6562   -0.0567 H   0  0  0  0  0  0  0  0  0  0  0  0
    2.3533   -0.9278   -1.6643 H   0  0  0  0  0  0  0  0  0  0  0  0
   -1.9637    4.0229    0.9943 H   0  0  0  0  0  0  0  0  0  0  0  0
    3.2227    5.5265    1.6327 H   0  0  0  0  0  0  0  0  0  0  0  0
    1.9886    7.6917    2.3531 H   0  0  0  0  0  0  0  0  0  0  0  0
   -4.5269    0.2872   -0.3559 H   0  0  0  0  0  0  0  0  0  0  0  0
   -2.9738   -1.7563   -2.0454 H   0  0  0  0  0  0  0  0  0  0  0  0
   -3.1388   -2.4174    0.9531 H   0  0  0  0  0  0  0  0  0  0  0  0
   -4.5358   -1.8833   -0.1339 H   0  0  0  0  0  0  0  0  0  0  0  0
   -4.6700   -4.2051    0.1296 H   0  0  0  0  0  0  0  0  0  0  0  0
   -2.9447   -4.5007   -0.1748 H   0  0  0  0  0  0  0  0  0  0  0  0
   -3.9939   -3.9339   -1.5523 H   0  0  0  0  0  0  0  0  0  0  0  0
   -0.8157   -2.4691    0.0124 H   0  0  0  0  0  0  0  0  0  0  0  0
   -0.5983   -2.1168   -1.7929 H   0  0  0  0  0  0  0  0  0  0  0  0
   -1.5281   -3.5355   -1.2808 H   0  0  0  0  0  0  0  0  0  0  0  0
  1  2  1  0
  2  3  1  0
  3  4  1  0
  4  5  1  0
  5  6  1  0
  6  7  2  0
  7  8  1  0
  8  9  1  0
  9 10  1  0
 10 11  2  0
 11 12  1  0
 12 13  2  0
 13 14  1  0
  8 15  2  0
 15 16  1  0
 16 17  2  0
 17 18  1  0
 18 19  1  0
 19 20  1  0
 20 21  1  0
 19 22  1  0
 18 23  1  0
 23 24  2  0
 24  6  1  0
 14 10  1  0
 23 15  1  0
  1 25  1  0
  1 26  1  0
  1 27  1  0
  3 28  1  0
  3 29  1  0
  4 30  1  0
  4 31  1  0
  9 32  1  0
 12 33  1  0
 13 34  1  0
 17 35  1  0
 19 36  1  0
 20 37  1  0
 20 38  1  0
 21 39  1  0
 21 40  1  0
 21 41  1  0
 22 42  1  0
 22 43  1  0
 22 44  1  0
M  END
$$$$
[H]Oc1c([H])c([H])c2c(c1[H])C(=O)C([H])(C([H])([H])N([H])C([H])([H])C([H])([H])C([H])([H])Oc1c([H])c([H])c([H])c3c([H])c([H])c([H])c([H])c13)C([H])([H])C2([H])[H]
     RDKit          3D

 53 56  0  0  0  0  0  0  0  0999 V2000
    6.8061    3.1406   -1.5454 O   0  0  0  0  0  0  0  0  0  0  0  0
    5.8267    2.4828   -0.7887 C   0  0  0  0  0  0  0  0  0  0  0  0
    5.1613    3.1288    0.2310 C   0  0  0  0  0  0  0  0  0  0  0  0
    4.1978    2.4770    0.9732 C   0  0  0  0  0  0  0  0  0  0  0  0
    3.8527    1.1623    0.7389 C   0  0  0  0  0  0  0  0  0  0  0  0
    2.8140    0.4443    1.5339 C   0  0  0  0  0  0  0  0  0  0  0  0
    3.2479   -0.9838    1.7568 C   0  0  0  0  0  0  0  0  0  0  0  0
    3.5858   -1.7241    0.5170 C   0  0  0  0  0  0  0  0  0  0  0  0
    2.4475   -2.5682   -0.0132 C   0  0  0  0  0  0  0  0  0  0  0  0
    1.2889   -1.7875   -0.3314 N   0  0  0  0  0  0  0  0  0  0  0  0
    0.2174   -2.6179   -0.8352 C   0  0  0  0  0  0  0  0  0  0  0  0
   -1.0117   -1.7626   -1.1701 C   0  0  0  0  0  0  0  0  0  0  0  0
   -1.4735   -1.0615    0.0762 C   0  0  0  0  0  0  0  0  0  0  0  0
   -2.5717   -0.2509   -0.0420 O   0  0  0  0  0  0  0  0  0  0  0  0
   -3.8588   -0.4534   -0.3764 C   0  0  0  0  0  0  0  0  0  0  0  0
   -4.4511   -1.6450   -0.7029 C   0  0  0  0  0  0  0  0  0  0  0  0
   -5.7903   -1.7092   -1.0265 C   0  0  0  0  0  0  0  0  0  0  0  0
   -6.5969   -0.5955   -1.0393 C   0  0  0  0  0  0  0  0  0  0  0  0
   -6.0151    0.6249   -0.7102 C   0  0  0  0  0  0  0  0  0  0  0  0
   -6.8177    1.7619   -0.7181 C   0  0  0  0  0  0  0  0  0  0  0  0
   -6.2716    2.9857   -0.3968 C   0  0  0  0  0  0  0  0  0  0  0  0
   -4.9359    3.0649   -0.0719 C   0  0  0  0  0  0  0  0  0  0  0  0
   -4.1672    1.9182   -0.0735 C   0  0  0  0  0  0  0  0  0  0  0  0
   -4.6902    0.6830   -0.3912 C   0  0  0  0  0  0  0  0  0  0  0  0
    4.1734   -0.8762   -0.5532 C   0  0  0  0  0  0  0  0  0  0  0  0
    4.3863   -1.3268   -1.7079 O   0  0  0  0  0  0  0  0  0  0  0  0
    4.5196    0.5123   -0.2843 C   0  0  0  0  0  0  0  0  0  0  0  0
    5.4909    1.1693   -1.0326 C   0  0  0  0  0  0  0  0  0  0  0  0
    7.7871    3.1301   -1.2703 H   0  0  0  0  0  0  0  0  0  0  0  0
    5.4149    4.1702    0.4380 H   0  0  0  0  0  0  0  0  0  0  0  0
    3.6662    2.9932    1.7879 H   0  0  0  0  0  0  0  0  0  0  0  0
    2.7149    0.9089    2.5445 H   0  0  0  0  0  0  0  0  0  0  0  0
    1.8152    0.5248    1.0619 H   0  0  0  0  0  0  0  0  0  0  0  0
    2.4455   -1.5299    2.2876 H   0  0  0  0  0  0  0  0  0  0  0  0
    4.1418   -0.9438    2.4124 H   0  0  0  0  0  0  0  0  0  0  0  0
    4.3988   -2.4662    0.7784 H   0  0  0  0  0  0  0  0  0  0  0  0
    2.8195   -3.0054   -0.9828 H   0  0  0  0  0  0  0  0  0  0  0  0
    2.2350   -3.4080    0.6524 H   0  0  0  0  0  0  0  0  0  0  0  0
    1.5182   -1.0086   -0.9513 H   0  0  0  0  0  0  0  0  0  0  0  0
    0.5477   -3.0502   -1.8044 H   0  0  0  0  0  0  0  0  0  0  0  0
   -0.1194   -3.3607   -0.1122 H   0  0  0  0  0  0  0  0  0  0  0  0
   -0.6686   -0.9890   -1.9151 H   0  0  0  0  0  0  0  0  0  0  0  0
   -1.7736   -2.3524   -1.6934 H   0  0  0  0  0  0  0  0  0  0  0  0
   -0.6080   -0.4000    0.3945 H   0  0  0  0  0  0  0  0  0  0  0  0
   -1.5464   -1.7894    0.9410 H   0  0  0  0  0  0  0  0  0  0  0  0
   -3.8570   -2.5418   -0.6946 H   0  0  0  0  0  0  0  0  0  0  0  0
   -6.2566   -2.6702   -1.2876 H   0  0  0  0  0  0  0  0  0  0  0  0
   -7.6430   -0.6093   -1.2863 H   0  0  0  0  0  0  0  0  0  0  0  0
   -7.8652    1.6691   -0.9777 H   0  0  0  0  0  0  0  0  0  0  0  0
   -6.8922    3.8747   -0.4013 H   0  0  0  0  0  0  0  0  0  0  0  0
   -4.5142    4.0389    0.1808 H   0  0  0  0  0  0  0  0  0  0  0  0
   -3.1241    1.9838    0.1809 H   0  0  0  0  0  0  0  0  0  0  0  0
    5.9989    0.6379   -1.8287 H   0  0  0  0  0  0  0  0  0  0  0  0
  1  2  1  0
  2  3  2  0
  3  4  1  0
  4  5  2  0
  5  6  1  0
  6  7  1  0
  7  8  1  0
  8  9  1  0
  9 10  1  0
 10 11  1  0
 11 12  1  0
 12 13  1  0
 13 14  1  0
 14 15  1  0
 15 16  2  0
 16 17  1  0
 17 18  2  0
 18 19  1  0
 19 20  2  0
 20 21  1  0
 21 22  2  0
 22 23  1  0
 23 24  2  0
  8 25  1  0
 25 26  2  0
 25 27  1  0
 27 28  2  0
 28  2  1  0
 27  5  1  0
 24 15  1  0
 24 19  1  0
  1 29  1  0
  3 30  1  0
  4 31  1  0
  6 32  1  0
  6 33  1  0
  7 34  1  0
  7 35  1  0
  8 36  1  0
  9 37  1  0
  9 38  1  0
 10 39  1  0
 11 40  1  0
 11 41  1  0
 12 42  1  0
 12 43  1  0
 13 44  1  0
 13 45  1  0
 16 46  1  0
 17 47  1  0
 18 48  1  0
 20 49  1  0
 21 50  1  0
 22 51  1  0
 23 52  1  0
 28 53  1  0
M  END
$$$$
[H]OC(=O)c1c([H])c(C([H])([H])[H])c2c(c(C(=O)OC([H])([H])c3c([H])c([H])c([H])c([H])c3N([H])[H])nn2[H])c1[H]
     RDKit          3D

 39 41  0  0  0  0  0  0  0  0999 V2000
   -5.2135   -2.3713    0.6138 C   0  0  0  0  0  0  0  0  0  0  0  0
   -4.1197   -1.4005    0.3335 C   0  0  0  0  0  0  0  0  0  0  0  0
   -4.3983   -0.3382   -0.4673 C   0  0  0  0  0  0  0  0  0  0  0  0
   -3.3882    0.5577   -0.7257 C   0  0  0  0  0  0  0  0  0  0  0  0
   -2.1280    0.3998   -0.1984 C   0  0  0  0  0  0  0  0  0  0  0  0
   -1.8336   -0.6741    0.6155 C   0  0  0  0  0  0  0  0  0  0  0  0
   -0.7056   -1.0966    1.2748 C   0  0  0  0  0  0  0  0  0  0  0  0
   -1.0546   -2.2282    1.9114 N   0  0  0  0  0  0  0  0  0  0  0  0
   -2.3218   -2.5101    1.6747 N   0  0  0  0  0  0  0  0  0  0  0  0
   -2.8731   -1.5788    0.8697 C   0  0  0  0  0  0  0  0  0  0  0  0
    0.5932   -0.4609    1.2868 C   0  0  0  0  0  0  0  0  0  0  0  0
    1.5726   -0.9518    1.9415 O   0  0  0  0  0  0  0  0  0  0  0  0
    0.8527    0.7035    0.5991 O   0  0  0  0  0  0  0  0  0  0  0  0
    2.0612    1.3603    0.5485 C   0  0  0  0  0  0  0  0  0  0  0  0
    3.1962    0.7055   -0.0707 C   0  0  0  0  0  0  0  0  0  0  0  0
    3.1311   -0.4933   -0.6901 C   0  0  0  0  0  0  0  0  0  0  0  0
    4.2321   -1.0869   -1.3071 C   0  0  0  0  0  0  0  0  0  0  0  0
    5.4415   -0.4473   -1.2993 C   0  0  0  0  0  0  0  0  0  0  0  0
    5.5344    0.7768   -0.6751 C   0  0  0  0  0  0  0  0  0  0  0  0
    4.4256    1.3541   -0.0642 C   0  0  0  0  0  0  0  0  0  0  0  0
    4.5396    2.6181    0.5756 N   0  0  0  0  0  0  0  0  0  0  0  0
   -3.6744    1.7090   -1.5884 C   0  0  0  0  0  0  0  0  0  0  0  0
   -2.6664    2.6223   -1.8593 O   0  0  0  0  0  0  0  0  0  0  0  0
   -4.8155    1.8790   -2.0835 O   0  0  0  0  0  0  0  0  0  0  0  0
   -5.6707   -2.6717   -0.3332 H   0  0  0  0  0  0  0  0  0  0  0  0
   -4.8780   -3.2153    1.2496 H   0  0  0  0  0  0  0  0  0  0  0  0
   -5.9949   -1.8262    1.2040 H   0  0  0  0  0  0  0  0  0  0  0  0
   -5.3724   -0.1520   -0.9177 H   0  0  0  0  0  0  0  0  0  0  0  0
   -1.3267    1.1185   -0.4086 H   0  0  0  0  0  0  0  0  0  0  0  0
   -2.8593   -3.3250    2.0374 H   0  0  0  0  0  0  0  0  0  0  0  0
    2.2858    1.6721    1.6234 H   0  0  0  0  0  0  0  0  0  0  0  0
    1.8450    2.3744    0.0722 H   0  0  0  0  0  0  0  0  0  0  0  0
    2.2175   -1.0428   -0.7554 H   0  0  0  0  0  0  0  0  0  0  0  0
    4.1660   -2.0459   -1.7978 H   0  0  0  0  0  0  0  0  0  0  0  0
    6.3359   -0.8795   -1.7739 H   0  0  0  0  0  0  0  0  0  0  0  0
    6.4942    1.2703   -0.6769 H   0  0  0  0  0  0  0  0  0  0  0  0
    4.1874    2.7881    1.5461 H   0  0  0  0  0  0  0  0  0  0  0  0
    5.0046    3.3878    0.0135 H   0  0  0  0  0  0  0  0  0  0  0  0
   -2.8218    3.4993   -2.3243 H   0  0  0  0  0  0  0  0  0  0  0  0
  1  2  1  0
  2  3  2  0
  3  4  1  0
  4  5  2  0
  5  6  1  0
  6  7  1  0
  7  8  2  0
  8  9  1  0
  9 10  1  0
  7 11  1  0
 11 12  2  0
 11 13  1  0
 13 14  1  0
 14 15  1  0
 15 16  2  0
 16 17  1  0
 17 18  2  0
 18 19  1  0
 19 20  2  0
 20 21  1  0
  4 22  1  0
 22 23  1  0
 22 24  2  0
 10  2  1  0
 20 15  1  0
 10  6  2  0
  1 25  1  0
  1 26  1  0
  1 27  1  0
  3 28  1  0
  5 29  1  0
  9 30  1  0
 14 31  1  0
 14 32  1  0
 16 33  1  0
 17 34  1  0
 18 35  1  0
 19 36  1  0
 21 37  1  0
 21 38  1  0
 23 39  1  0
M  END
$$$$
[H]c1c(-c2c([H])c([H])c([H])c([H])c2[H])nc(N2C([H])([H])C([H])([H])[C@]3([H])C([H])([H])C([H])([H])[C@]3([H])C2([H])[H])c([H])c1[H]
     RDKit          3D

 40 43  0  0  0  0  0  0  0  0999 V2000
   -4.9913    1.1546    0.4494 C   0  0  0  0  0  0  0  0  0  0  0  0
   -4.6927   -0.0740   -0.3830 C   0  0  0  0  0  0  0  0  0  0  0  0
   -3.5754    0.7435   -1.0478 C   0  0  2  0  0  0  0  0  0  0  0  0
   -2.4093   -0.1148   -1.3276 C   0  0  0  0  0  0  0  0  0  0  0  0
   -1.2173    0.1578   -0.6117 N   0  0  0  0  0  0  0  0  0  0  0  0
   -1.1920    1.0759    0.4897 C   0  0  0  0  0  0  0  0  0  0  0  0
   -2.5638    1.0894    1.1803 C   0  0  0  0  0  0  0  0  0  0  0  0
   -3.5427    1.5822    0.1717 C   0  0  2  0  0  0  0  0  0  0  0  0
   -0.0083   -0.4962   -0.9903 C   0  0  0  0  0  0  0  0  0  0  0  0
    1.1528   -0.2597   -0.3717 N   0  0  0  0  0  0  0  0  0  0  0  0
    2.3319   -0.8367   -0.6703 C   0  0  0  0  0  0  0  0  0  0  0  0
    2.3237   -1.7434   -1.7013 C   0  0  0  0  0  0  0  0  0  0  0  0
    1.1556   -2.0519   -2.4037 C   0  0  0  0  0  0  0  0  0  0  0  0
    0.0095   -1.4178   -2.0303 C   0  0  0  0  0  0  0  0  0  0  0  0
    3.5477   -0.5148    0.0615 C   0  0  0  0  0  0  0  0  0  0  0  0
    4.7743   -1.0655   -0.1933 C   0  0  0  0  0  0  0  0  0  0  0  0
    5.9051   -0.7108    0.5500 C   0  0  0  0  0  0  0  0  0  0  0  0
    5.8251    0.2069    1.5669 C   0  0  0  0  0  0  0  0  0  0  0  0
    4.5946    0.7700    1.8346 C   0  0  0  0  0  0  0  0  0  0  0  0
    3.4827    0.4174    1.0994 C   0  0  0  0  0  0  0  0  0  0  0  0
   -5.7448    1.7733   -0.0460 H   0  0  0  0  0  0  0  0  0  0  0  0
   -5.2027    0.9465    1.5087 H   0  0  0  0  0  0  0  0  0  0  0  0
   -5.4925   -0.3778   -1.0707 H   0  0  0  0  0  0  0  0  0  0  0  0
   -4.3025   -0.8816    0.2666 H   0  0  0  0  0  0  0  0  0  0  0  0
   -4.0386    1.2465   -1.9483 H   0  0  0  0  0  0  0  0  0  0  0  0
   -2.6415   -1.2096   -1.1899 H   0  0  0  0  0  0  0  0  0  0  0  0
   -2.1952   -0.0340   -2.4353 H   0  0  0  0  0  0  0  0  0  0  0  0
   -0.9794    2.0856    0.1113 H   0  0  0  0  0  0  0  0  0  0  0  0
   -0.4670    0.8045    1.2742 H   0  0  0  0  0  0  0  0  0  0  0  0
   -2.4573    1.7454    2.0476 H   0  0  0  0  0  0  0  0  0  0  0  0
   -2.8150    0.0510    1.4444 H   0  0  0  0  0  0  0  0  0  0  0  0
   -3.5512    2.6875   -0.0010 H   0  0  0  0  0  0  0  0  0  0  0  0
    3.2343   -2.2435   -1.9939 H   0  0  0  0  0  0  0  0  0  0  0  0
    1.1699   -2.7770   -3.2218 H   0  0  0  0  0  0  0  0  0  0  0  0
   -0.9357   -1.6231   -2.5471 H   0  0  0  0  0  0  0  0  0  0  0  0
    4.8853   -1.7981   -0.9909 H   0  0  0  0  0  0  0  0  0  0  0  0
    6.8597   -1.1559    0.3330 H   0  0  0  0  0  0  0  0  0  0  0  0
    6.6953    0.4918    2.1525 H   0  0  0  0  0  0  0  0  0  0  0  0
    4.5472    1.4966    2.6446 H   0  0  0  0  0  0  0  0  0  0  0  0
    2.5216    0.8598    1.3114 H   0  0  0  0  0  0  0  0  0  0  0  0
  1  2  1  0
  2  3  1  0
  3  4  1  0
  4  5  1  0
  5  6  1  0
  6  7  1  0
  7  8  1  0
  5  9  1  0
  9 10  2  0
 10 11  1  0
 11 12  2  0
 12 13  1  0
 13 14  2  0
 11 15  1  0
 15 16  2  0
 16 17  1  0
 17 18  2  0
 18 19  1  0
 19 20  2  0
  8  1  1  0
 14  9  1  0
 20 15  1  0
  8  3  1  0
  1 21  1  0
  1 22  1  0
  2 23  1  0
  2 24  1  0
  3 25  1  6
  4 26  1  0
  4 27  1  0
  6 28  1  0
  6 29  1  0
  7 30  1  0
  7 31  1  0
  8 32  1  6
 12 33  1  0
 13 34  1  0
 14 35  1  0
 16 36  1  0
 17 37  1  0
 18 38  1  0
 19 39  1  0
 20 40  1  0
M  END
$$$$
[H]OC(=O)c1c([H])c([H])c2nc(C([H])([H])[H])n(C([H])([H])c3c([H])c([H])c(-n4c([H])c([H])c(OC([H])([H])[H])c4[H])c([H])c3[H])c(=O)c2c1[H]
     RDKit          3D

 48 51  0  0  0  0  0  0  0  0999 V2000
    8.0545   -2.5359    1.8720 C   0  0  0  0  0  0  0  0  0  0  0  0
    6.9682   -2.7686    1.0260 O   0  0  0  0  0  0  0  0  0  0  0  0
    5.9734   -1.8065    0.8881 C   0  0  0  0  0  0  0  0  0  0  0  0
    5.9302   -0.5843    1.5218 C   0  0  0  0  0  0  0  0  0  0  0  0
    4.7825    0.0315    1.0950 C   0  0  0  0  0  0  0  0  0  0  0  0
    4.1108   -0.7473    0.2277 N   0  0  0  0  0  0  0  0  0  0  0  0
    4.8395   -1.8708    0.1018 C   0  0  0  0  0  0  0  0  0  0  0  0
    2.8832   -0.4037   -0.3998 C   0  0  0  0  0  0  0  0  0  0  0  0
    2.6646    0.7990   -1.0264 C   0  0  0  0  0  0  0  0  0  0  0  0
    1.4679    1.1206   -1.6319 C   0  0  0  0  0  0  0  0  0  0  0  0
    0.3871    0.2284   -1.6441 C   0  0  0  0  0  0  0  0  0  0  0  0
   -0.8569    0.6623   -2.3012 C   0  0  0  0  0  0  0  0  0  0  0  0
   -1.9542    0.9338   -1.4378 N   0  0  0  0  0  0  0  0  0  0  0  0
   -2.0951    2.1552   -0.8933 C   0  0  0  0  0  0  0  0  0  0  0  0
   -1.1880    3.2960   -1.1073 C   0  0  0  0  0  0  0  0  0  0  0  0
   -3.1607    2.4210   -0.0741 N   0  0  0  0  0  0  0  0  0  0  0  0
   -4.0970    1.5202    0.2277 C   0  0  0  0  0  0  0  0  0  0  0  0
   -5.1730    1.7983    1.0590 C   0  0  0  0  0  0  0  0  0  0  0  0
   -6.1165    0.8322    1.3414 C   0  0  0  0  0  0  0  0  0  0  0  0
   -6.0280   -0.4442    0.8104 C   0  0  0  0  0  0  0  0  0  0  0  0
   -4.9433   -0.6800   -0.0112 C   0  0  0  0  0  0  0  0  0  0  0  0
   -3.9889    0.2766   -0.3045 C   0  0  0  0  0  0  0  0  0  0  0  0
   -2.9118    0.0253   -1.1263 C   0  0  0  0  0  0  0  0  0  0  0  0
   -2.8118   -1.1192   -1.6227 O   0  0  0  0  0  0  0  0  0  0  0  0
   -7.0258   -1.4601    1.1112 C   0  0  0  0  0  0  0  0  0  0  0  0
   -8.0873   -1.1552    1.9426 O   0  0  0  0  0  0  0  0  0  0  0  0
   -6.9604   -2.6174    0.6398 O   0  0  0  0  0  0  0  0  0  0  0  0
    0.6028   -0.9725   -1.0204 C   0  0  0  0  0  0  0  0  0  0  0  0
    1.8280   -1.2821   -0.4097 C   0  0  0  0  0  0  0  0  0  0  0  0
    8.3328   -1.4635    1.7888 H   0  0  0  0  0  0  0  0  0  0  0  0
    7.8009   -2.6965    2.9459 H   0  0  0  0  0  0  0  0  0  0  0  0
    8.9469   -3.1293    1.6563 H   0  0  0  0  0  0  0  0  0  0  0  0
    6.6666   -0.1773    2.2305 H   0  0  0  0  0  0  0  0  0  0  0  0
    4.4340    1.0177    1.3985 H   0  0  0  0  0  0  0  0  0  0  0  0
    4.5580   -2.7028   -0.5357 H   0  0  0  0  0  0  0  0  0  0  0  0
    3.5093    1.5021   -1.0186 H   0  0  0  0  0  0  0  0  0  0  0  0
    1.3744    2.0779   -2.1239 H   0  0  0  0  0  0  0  0  0  0  0  0
   -1.1103   -0.1860   -3.0140 H   0  0  0  0  0  0  0  0  0  0  0  0
   -0.6616    1.5083   -3.0280 H   0  0  0  0  0  0  0  0  0  0  0  0
   -1.7568    4.2438   -1.0217 H   0  0  0  0  0  0  0  0  0  0  0  0
   -0.4321    3.3049   -0.2853 H   0  0  0  0  0  0  0  0  0  0  0  0
   -0.7227    3.3210   -2.1104 H   0  0  0  0  0  0  0  0  0  0  0  0
   -5.2249    2.8049    1.4656 H   0  0  0  0  0  0  0  0  0  0  0  0
   -6.9437    1.0711    1.9897 H   0  0  0  0  0  0  0  0  0  0  0  0
   -4.8297   -1.6622   -0.4505 H   0  0  0  0  0  0  0  0  0  0  0  0
   -8.7998   -0.5464    1.6050 H   0  0  0  0  0  0  0  0  0  0  0  0
   -0.1924   -1.6976   -1.0067 H   0  0  0  0  0  0  0  0  0  0  0  0
    1.9572   -2.2429    0.0730 H   0  0  0  0  0  0  0  0  0  0  0  0
  1  2  1  0
  2  3  1  0
  3  4  1  0
  4  5  2  0
  5  6  1  0
  6  7  1  0
  6  8  1  0
  8  9  2  0
  9 10  1  0
 10 11  2  0
 11 12  1  0
 12 13  1  0
 13 14  1  0
 14 15  1  0
 14 16  2  0
 16 17  1  0
 17 18  2  0
 18 19  1  0
 19 20  2  0
 20 21  1  0
 21 22  2  0
 22 23  1  0
 23 24  2  0
 20 25  1  0
 25 26  1  0
 25 27  2  0
 11 28  1  0
 28 29  2  0
  7  3  2  0
 29  8  1  0
 23 13  1  0
 22 17  1  0
  1 30  1  0
  1 31  1  0
  1 32  1  0
  4 33  1  0
  5 34  1  0
  7 35  1  0
  9 36  1  0
 10 37  1  0
 12 38  1  0
 12 39  1  0
 15 40  1  0
 15 41  1  0
 15 42  1  0
 18 43  1  0
 19 44  1  0
 21 45  1  0
 26 46  1  0
 28 47  1  0
 29 48  1  0
M  END
$$$$
[H]OC(=O)C([H])([H])C([H])([H])n1nc([H])c(-c2c([H])c(-c3c([H])nn(C([H])([H])C([H])(C([H])([H])[H])C([H])([H])[H])c3[H])c([H])c3c2-c2c([H])c([H])c([H])c([H])c2C3(O[H])C(F)(F)F)c1[H]
     RDKit          3D

 62 66  0  0  0  0  0  0  0  0999 V2000
    4.4139    3.1732   -0.6171 C   0  0  0  0  0  0  0  0  0  0  0  0
    5.7728    2.5545   -0.2787 C   0  0  0  0  0  0  0  0  0  0  0  0
    6.0583    2.6704    1.1831 C   0  0  0  0  0  0  0  0  0  0  0  0
    5.7714    1.1192   -0.7580 C   0  0  0  0  0  0  0  0  0  0  0  0
    4.7325    0.3293   -0.1290 N   0  0  0  0  0  0  0  0  0  0  0  0
    3.4691    0.1911   -0.6269 C   0  0  0  0  0  0  0  0  0  0  0  0
    2.7502   -0.6237    0.2159 C   0  0  0  0  0  0  0  0  0  0  0  0
    3.6140   -0.9694    1.2298 C   0  0  0  0  0  0  0  0  0  0  0  0
    4.8225   -0.3758    1.0002 N   0  0  0  0  0  0  0  0  0  0  0  0
    1.3494   -1.0580    0.0951 C   0  0  0  0  0  0  0  0  0  0  0  0
    0.9679   -2.2816    0.5778 C   0  0  0  0  0  0  0  0  0  0  0  0
   -0.3150   -2.7108    0.4798 C   0  0  0  0  0  0  0  0  0  0  0  0
   -1.2910   -1.9394   -0.1085 C   0  0  0  0  0  0  0  0  0  0  0  0
   -2.5781   -2.6862   -0.1112 C   0  0  0  0  0  0  0  0  0  0  0  0
   -3.8380   -2.4089   -0.5946 C   0  0  0  0  0  0  0  0  0  0  0  0
   -4.8831   -3.3087   -0.4994 C   0  0  0  0  0  0  0  0  0  0  0  0
   -4.6167   -4.5165    0.1063 C   0  0  0  0  0  0  0  0  0  0  0  0
   -3.3665   -4.8093    0.5928 C   0  0  0  0  0  0  0  0  0  0  0  0
   -2.3257   -3.8975    0.4919 C   0  0  0  0  0  0  0  0  0  0  0  0
   -0.9147   -3.9991    0.9516 C   0  0  0  0  0  0  0  0  0  0  0  0
   -0.2283   -5.0298    0.3460 O   0  0  0  0  0  0  0  0  0  0  0  0
   -0.8258   -4.0257    2.4499 C   0  0  0  0  0  0  0  0  0  0  0  0
    0.4633   -3.9511    2.8683 F   0  0  0  0  0  0  0  0  0  0  0  0
   -1.3697   -5.2021    2.9487 F   0  0  0  0  0  0  0  0  0  0  0  0
   -1.5576   -2.9359    2.9309 F   0  0  0  0  0  0  0  0  0  0  0  0
   -0.9446   -0.7129   -0.5971 C   0  0  0  0  0  0  0  0  0  0  0  0
    0.3936   -0.2763   -0.4907 C   0  0  0  0  0  0  0  0  0  0  0  0
   -1.9058    0.2091   -1.1589 C   0  0  0  0  0  0  0  0  0  0  0  0
   -2.1744    0.5687   -2.4524 C   0  0  0  0  0  0  0  0  0  0  0  0
   -3.1047    1.5207   -2.4138 N   0  0  0  0  0  0  0  0  0  0  0  0
   -3.4582    1.8019   -1.1542 N   0  0  0  0  0  0  0  0  0  0  0  0
   -4.4730    2.7669   -0.8050 C   0  0  0  0  0  0  0  0  0  0  0  0
   -4.0095    4.1652   -0.6859 C   0  0  0  0  0  0  0  0  0  0  0  0
   -3.0084    4.4883    0.3127 C   0  0  0  0  0  0  0  0  0  0  0  0
   -2.5369    5.8115    0.3927 O   0  0  0  0  0  0  0  0  0  0  0  0
   -2.5198    3.6956    1.1169 O   0  0  0  0  0  0  0  0  0  0  0  0
   -2.7357    1.0086   -0.3682 C   0  0  0  0  0  0  0  0  0  0  0  0
    4.1276    2.8115   -1.6260 H   0  0  0  0  0  0  0  0  0  0  0  0
    3.6490    2.8664    0.0989 H   0  0  0  0  0  0  0  0  0  0  0  0
    4.5346    4.2758   -0.7149 H   0  0  0  0  0  0  0  0  0  0  0  0
    6.5320    3.1229   -0.8499 H   0  0  0  0  0  0  0  0  0  0  0  0
    6.4388    1.7136    1.5881 H   0  0  0  0  0  0  0  0  0  0  0  0
    5.1564    3.0159    1.7681 H   0  0  0  0  0  0  0  0  0  0  0  0
    6.8221    3.4502    1.3438 H   0  0  0  0  0  0  0  0  0  0  0  0
    6.7737    0.6716   -0.5034 H   0  0  0  0  0  0  0  0  0  0  0  0
    5.7113    1.0863   -1.8614 H   0  0  0  0  0  0  0  0  0  0  0  0
    3.1087    0.6445   -1.5235 H   0  0  0  0  0  0  0  0  0  0  0  0
    3.4247   -1.5935    2.0780 H   0  0  0  0  0  0  0  0  0  0  0  0
    1.7491   -2.9174    1.0512 H   0  0  0  0  0  0  0  0  0  0  0  0
   -4.0515   -1.4956   -1.0775 H   0  0  0  0  0  0  0  0  0  0  0  0
   -5.8793   -3.0624   -0.8925 H   0  0  0  0  0  0  0  0  0  0  0  0
   -5.4222   -5.2336    0.1899 H   0  0  0  0  0  0  0  0  0  0  0  0
   -3.1787   -5.7739    1.0692 H   0  0  0  0  0  0  0  0  0  0  0  0
    0.6156   -4.7072   -0.0568 H   0  0  0  0  0  0  0  0  0  0  0  0
    0.6434    0.7000   -0.8885 H   0  0  0  0  0  0  0  0  0  0  0  0
   -1.6848    0.1234   -3.3269 H   0  0  0  0  0  0  0  0  0  0  0  0
   -5.3347    2.6592   -1.5321 H   0  0  0  0  0  0  0  0  0  0  0  0
   -4.9409    2.4438    0.1729 H   0  0  0  0  0  0  0  0  0  0  0  0
   -3.5523    4.4602   -1.6913 H   0  0  0  0  0  0  0  0  0  0  0  0
   -4.9095    4.8476   -0.6071 H   0  0  0  0  0  0  0  0  0  0  0  0
   -3.1604    6.5844    0.6211 H   0  0  0  0  0  0  0  0  0  0  0  0
   -2.7704    0.9511    0.7296 H   0  0  0  0  0  0  0  0  0  0  0  0
  1  2  1  0
  2  3  1  0
  2  4  1  0
  4  5  1  0
  5  6  1  0
  6  7  2  0
  7  8  1  0
  8  9  2  0
  7 10  1  0
 10 11  2  0
 11 12  1  0
 12 13  2  0
 13 14  1  0
 14 15  2  0
 15 16  1  0
 16 17  2  0
 17 18  1  0
 18 19  2  0
 19 20  1  0
 20 21  1  0
 20 22  1  0
 22 23  1  0
 22 24  1  0
 22 25  1  0
 13 26  1  0
 26 27  2  0
 26 28  1  0
 28 29  1  0
 29 30  2  0
 30 31  1  0
 31 32  1  0
 32 33  1  0
 33 34  1  0
 34 35  1  0
 34 36  2  0
 31 37  1  0
  9  5  1  0
 27 10  1  0
 37 28  2  0
 20 12  1  0
 19 14  1  0
  1 38  1  0
  1 39  1  0
  1 40  1  0
  2 41  1  0
  3 42  1  0
  3 43  1  0
  3 44  1  0
  4 45  1  0
  4 46  1  0
  6 47  1  0
  8 48  1  0
 11 49  1  0
 15 50  1  0
 16 51  1  0
 17 52  1  0
 18 53  1  0
 21 54  1  0
 27 55  1  0
 29 56  1  0
 32 57  1  0
 32 58  1  0
 33 59  1  0
 33 60  1  0
 35 61  1  0
 37 62  1  0
M  END
$$$$
[H]c1c([H])c(C([H])([H])c2nnc(SC([H])([H])c3c(Cl)c([H])c(N4C([H])([H])C([H])([H])N([H])C([H])([H])C4([H])[H])c([H])c3Cl)n2C2([H])C([H])([H])C2([H])[H])c([H])c([H])c1Cl
     RDKit          3D

 56 60  0  0  0  0  0  0  0  0999 V2000
    1.8776    0.5858   -3.6461 Cl  0  0  0  0  0  0  0  0  0  0  0  0
    2.6211    0.2295   -2.0816 C   0  0  0  0  0  0  0  0  0  0  0  0
    3.9495    0.4704   -1.8556 C   0  0  0  0  0  0  0  0  0  0  0  0
    4.5026    0.2489   -0.6210 C   0  0  0  0  0  0  0  0  0  0  0  0
    3.7079   -0.2045    0.3670 C   0  0  0  0  0  0  0  0  0  0  0  0
    2.3421   -0.4490    0.1448 C   0  0  0  0  0  0  0  0  0  0  0  0
    1.3863   -1.1002    1.4442 Cl  0  0  0  0  0  0  0  0  0  0  0  0
    1.7449   -0.2464   -1.0847 C   0  0  0  0  0  0  0  0  0  0  0  0
    0.4291   -0.7512   -1.5139 C   0  0  0  0  0  0  0  0  0  0  0  0
   -1.0665   -0.0597   -1.4422 S   0  0  0  0  0  0  0  0  0  0  0  0
   -2.1248    0.5071   -0.2826 C   0  0  0  0  0  0  0  0  0  0  0  0
   -2.2788    1.8227    0.1049 N   0  0  0  0  0  0  0  0  0  0  0  0
   -3.2375    1.8656    0.9645 N   0  0  0  0  0  0  0  0  0  0  0  0
   -3.7575    0.6676    1.1915 C   0  0  0  0  0  0  0  0  0  0  0  0
   -4.8756    0.3639    2.1320 C   0  0  0  0  0  0  0  0  0  0  0  0
   -6.2200    0.4242    1.5445 C   0  0  0  0  0  0  0  0  0  0  0  0
   -7.3168    0.5727    2.3797 C   0  0  0  0  0  0  0  0  0  0  0  0
   -8.5978    0.6691    1.9144 C   0  0  0  0  0  0  0  0  0  0  0  0
   -8.8895    0.6247    0.5521 C   0  0  0  0  0  0  0  0  0  0  0  0
  -10.5187    0.8196   -0.0008 Cl  0  0  0  0  0  0  0  0  0  0  0  0
   -7.8123    0.4755   -0.2969 C   0  0  0  0  0  0  0  0  0  0  0  0
   -6.5076    0.3765    0.1773 C   0  0  0  0  0  0  0  0  0  0  0  0
   -3.0790   -0.1993    0.4269 N   0  0  0  0  0  0  0  0  0  0  0  0
   -3.1367   -1.6190    0.3311 C   0  0  0  0  0  0  0  0  0  0  0  0
   -2.9734   -2.1539   -1.0989 C   0  0  0  0  0  0  0  0  0  0  0  0
   -4.1335   -2.5031   -0.2333 C   0  0  0  0  0  0  0  0  0  0  0  0
    5.8902    0.4181   -0.4776 N   0  0  0  0  0  0  0  0  0  0  0  0
    6.8407   -0.5151   -1.0961 C   0  0  0  0  0  0  0  0  0  0  0  0
    7.9437   -0.9534   -0.2023 C   0  0  0  0  0  0  0  0  0  0  0  0
    8.4597    0.1285    0.6164 N   0  0  0  0  0  0  0  0  0  0  0  0
    7.9929    1.4311    0.2014 C   0  0  0  0  0  0  0  0  0  0  0  0
    6.4730    1.5239    0.2152 C   0  0  0  0  0  0  0  0  0  0  0  0
    4.5849    0.8629   -2.6665 H   0  0  0  0  0  0  0  0  0  0  0  0
    4.1102   -0.4201    1.3617 H   0  0  0  0  0  0  0  0  0  0  0  0
    0.4205   -1.7756   -0.7712 H   0  0  0  0  0  0  0  0  0  0  0  0
    0.6430   -1.3379   -2.5060 H   0  0  0  0  0  0  0  0  0  0  0  0
   -4.8960    1.1596    2.9559 H   0  0  0  0  0  0  0  0  0  0  0  0
   -4.7180   -0.5975    2.6351 H   0  0  0  0  0  0  0  0  0  0  0  0
   -7.1005    0.5856    3.4549 H   0  0  0  0  0  0  0  0  0  0  0  0
   -9.4672    0.7588    2.5861 H   0  0  0  0  0  0  0  0  0  0  0  0
   -8.0228    0.4506   -1.3802 H   0  0  0  0  0  0  0  0  0  0  0  0
   -5.7076    0.2641   -0.5167 H   0  0  0  0  0  0  0  0  0  0  0  0
   -2.4489   -2.0958    1.1050 H   0  0  0  0  0  0  0  0  0  0  0  0
   -3.1742   -1.5127   -1.9704 H   0  0  0  0  0  0  0  0  0  0  0  0
   -2.1195   -2.8289   -1.2014 H   0  0  0  0  0  0  0  0  0  0  0  0
   -5.1009   -2.2969   -0.6617 H   0  0  0  0  0  0  0  0  0  0  0  0
   -4.1272   -3.5789    0.1761 H   0  0  0  0  0  0  0  0  0  0  0  0
    6.3031   -1.4051   -1.4890 H   0  0  0  0  0  0  0  0  0  0  0  0
    7.2790    0.0186   -1.9721 H   0  0  0  0  0  0  0  0  0  0  0  0
    7.6219   -1.7811    0.4638 H   0  0  0  0  0  0  0  0  0  0  0  0
    8.8059   -1.2589   -0.8734 H   0  0  0  0  0  0  0  0  0  0  0  0
    8.3360   -0.0531    1.6144 H   0  0  0  0  0  0  0  0  0  0  0  0
    8.3672    1.6512   -0.8233 H   0  0  0  0  0  0  0  0  0  0  0  0
    8.4332    2.1646    0.8663 H   0  0  0  0  0  0  0  0  0  0  0  0
    6.0753    1.6399    1.2215 H   0  0  0  0  0  0  0  0  0  0  0  0
    6.2671    2.4628   -0.3833 H   0  0  0  0  0  0  0  0  0  0  0  0
  1  2  1  0
  2  3  2  0
  3  4  1  0
  4  5  2  0
  5  6  1  0
  6  7  1  0
  6  8  2  0
  8  9  1  0
  9 10  1  0
 10 11  1  0
 11 12  2  0
 12 13  1  0
 13 14  2  0
 14 15  1  0
 15 16  1  0
 16 17  2  0
 17 18  1  0
 18 19  2  0
 19 20  1  0
 19 21  1  0
 21 22  2  0
 14 23  1  0
 23 24  1  0
 24 25  1  0
 25 26  1  0
  4 27  1  0
 27 28  1  0
 28 29  1  0
 29 30  1  0
 30 31  1  0
 31 32  1  0
  8  2  1  0
 23 11  1  0
 26 24  1  0
 32 27  1  0
 22 16  1  0
  3 33  1  0
  5 34  1  0
  9 35  1  0
  9 36  1  0
 15 37  1  0
 15 38  1  0
 17 39  1  0
 18 40  1  0
 21 41  1  0
 22 42  1  0
 24 43  1  0
 25 44  1  0
 25 45  1  0
 26 46  1  0
 26 47  1  0
 28 48  1  0
 28 49  1  0
 29 50  1  0
 29 51  1  0
 30 52  1  0
 31 53  1  0
 31 54  1  0
 32 55  1  0
 32 56  1  0
M  END
$$$$
[H]c1c(-n2c([H])nc(C([H])([H])[H])c2[H])c([H])c2c(=O)c3c([H])c([H])c(S(=O)(=O)N([H])[C@]4([H])C([H])([H])N(S(=O)(=O)C([H])([H])[H])C([H])([H])C4([H])[H])c([H])c3sc2c1[H]
     RDKit          3D

 56 60  0  0  0  0  0  0  0  0999 V2000
   -9.8991    2.0284   -1.3334 C   0  0  0  0  0  0  0  0  0  0  0  0
   -8.7788    1.1484   -0.9454 C   0  0  0  0  0  0  0  0  0  0  0  0
   -7.6379    1.5090   -0.2775 C   0  0  0  0  0  0  0  0  0  0  0  0
   -6.8432    0.4416   -0.0984 N   0  0  0  0  0  0  0  0  0  0  0  0
   -7.4903   -0.5889   -0.6564 C   0  0  0  0  0  0  0  0  0  0  0  0
   -8.6786   -0.1667   -1.1789 N   0  0  0  0  0  0  0  0  0  0  0  0
   -5.5757    0.4174    0.5514 C   0  0  0  0  0  0  0  0  0  0  0  0
   -5.3626    1.1393    1.7251 C   0  0  0  0  0  0  0  0  0  0  0  0
   -4.1186    1.0803    2.3112 C   0  0  0  0  0  0  0  0  0  0  0  0
   -3.0870    0.3417    1.7858 C   0  0  0  0  0  0  0  0  0  0  0  0
   -1.5209    0.2218    2.4564 S   0  0  0  0  0  0  0  0  0  0  0  0
   -0.4595   -0.7739    1.5700 C   0  0  0  0  0  0  0  0  0  0  0  0
    0.8562   -1.0132    1.9301 C   0  0  0  0  0  0  0  0  0  0  0  0
    1.6852   -1.8261    1.1860 C   0  0  0  0  0  0  0  0  0  0  0  0
    1.1394   -2.3904    0.0635 C   0  0  0  0  0  0  0  0  0  0  0  0
   -0.1650   -2.1620   -0.3064 C   0  0  0  0  0  0  0  0  0  0  0  0
   -1.0155   -1.3354    0.4462 C   0  0  0  0  0  0  0  0  0  0  0  0
   -2.3025   -1.1455    0.0291 C   0  0  0  0  0  0  0  0  0  0  0  0
   -2.6368   -1.7569   -1.0481 O   0  0  0  0  0  0  0  0  0  0  0  0
   -3.2693   -0.3788    0.6308 C   0  0  0  0  0  0  0  0  0  0  0  0
   -4.5302   -0.3169    0.0399 C   0  0  0  0  0  0  0  0  0  0  0  0
    3.3129   -2.0609    1.7210 S   0  0  0  0  0  0  0  0  0  0  0  0
    3.4164   -1.9410    3.2338 O   0  0  0  0  0  0  0  0  0  0  0  0
    3.7400   -3.4584    1.3757 O   0  0  0  0  0  0  0  0  0  0  0  0
    4.4044   -0.8904    1.0677 N   0  0  0  0  0  0  0  0  0  0  0  0
    4.4609   -0.9570   -0.3698 C   0  0  1  0  0  0  0  0  0  0  0  0
    4.0319    0.3658   -0.9718 C   0  0  0  0  0  0  0  0  0  0  0  0
    5.3331    1.1692   -0.8469 C   0  0  0  0  0  0  0  0  0  0  0  0
    6.3825    0.2336   -1.1092 N   0  0  0  0  0  0  0  0  0  0  0  0
    5.8804   -1.0844   -0.8750 C   0  0  0  0  0  0  0  0  0  0  0  0
    7.7886    0.5656   -0.1350 S   0  0  0  0  0  0  0  0  0  0  0  0
    8.3838    2.1870   -0.5548 C   0  0  0  0  0  0  0  0  0  0  0  0
    7.4745    0.4847    1.3232 O   0  0  0  0  0  0  0  0  0  0  0  0
    8.8769   -0.4193   -0.4385 O   0  0  0  0  0  0  0  0  0  0  0  0
  -10.8869    1.6572   -0.9974 H   0  0  0  0  0  0  0  0  0  0  0  0
   -9.8850    2.2812   -2.4247 H   0  0  0  0  0  0  0  0  0  0  0  0
   -9.7733    3.0258   -0.8190 H   0  0  0  0  0  0  0  0  0  0  0  0
   -7.3492    2.5015    0.0870 H   0  0  0  0  0  0  0  0  0  0  0  0
   -7.1257   -1.5979   -0.6868 H   0  0  0  0  0  0  0  0  0  0  0  0
   -6.1529    1.7169    2.1449 H   0  0  0  0  0  0  0  0  0  0  0  0
   -3.8851    1.6209    3.2301 H   0  0  0  0  0  0  0  0  0  0  0  0
    1.1933   -0.5125    2.8465 H   0  0  0  0  0  0  0  0  0  0  0  0
    1.7942   -3.0375   -0.5314 H   0  0  0  0  0  0  0  0  0  0  0  0
   -0.5106   -2.6483   -1.2062 H   0  0  0  0  0  0  0  0  0  0  0  0
   -4.7401   -0.8727   -0.8885 H   0  0  0  0  0  0  0  0  0  0  0  0
    4.0533    0.0398    1.3515 H   0  0  0  0  0  0  0  0  0  0  0  0
    3.7979   -1.7418   -0.7872 H   0  0  0  0  0  0  0  0  0  0  0  0
    3.7812    0.2384   -2.0347 H   0  0  0  0  0  0  0  0  0  0  0  0
    3.2119    0.8448   -0.4145 H   0  0  0  0  0  0  0  0  0  0  0  0
    5.3600    1.5029    0.2285 H   0  0  0  0  0  0  0  0  0  0  0  0
    5.3308    2.0532   -1.4850 H   0  0  0  0  0  0  0  0  0  0  0  0
    6.5302   -1.6180   -0.1507 H   0  0  0  0  0  0  0  0  0  0  0  0
    5.8257   -1.6111   -1.8532 H   0  0  0  0  0  0  0  0  0  0  0  0
    8.1597    2.3519   -1.6199 H   0  0  0  0  0  0  0  0  0  0  0  0
    9.4996    2.1817   -0.4420 H   0  0  0  0  0  0  0  0  0  0  0  0
    7.9753    2.9559    0.1127 H   0  0  0  0  0  0  0  0  0  0  0  0
  1  2  1  0
  2  3  2  0
  3  4  1  0
  4  5  1  0
  5  6  2  0
  4  7  1  0
  7  8  2  0
  8  9  1  0
  9 10  2  0
 10 11  1  0
 11 12  1  0
 12 13  2  0
 13 14  1  0
 14 15  2  0
 15 16  1  0
 16 17  2  0
 17 18  1  0
 18 19  2  0
 18 20  1  0
 20 21  2  0
 14 22  1  0
 22 23  2  0
 22 24  2  0
 22 25  1  0
 25 26  1  0
 26 27  1  0
 27 28  1  0
 28 29  1  0
 29 30  1  0
 29 31  1  0
 31 32  1  0
 31 33  2  0
 31 34  2  0
  6  2  1  0
 21  7  1  0
 30 26  1  0
 20 10  1  0
 17 12  1  0
  1 35  1  0
  1 36  1  0
  1 37  1  0
  3 38  1  0
  5 39  1  0
  8 40  1  0
  9 41  1  0
 13 42  1  0
 15 43  1  0
 16 44  1  0
 21 45  1  0
 25 46  1  0
 26 47  1  6
 27 48  1  0
 27 49  1  0
 28 50  1  0
 28 51  1  0
 30 52  1  0
 30 53  1  0
 32 54  1  0
 32 55  1  0
 32 56  1  0
M  END
$$$$
[H]OC(C([H])([H])[H])(C([H])([H])[H])C([H])([H])SC([H])(c1c([H])c([H])c([H])c([H])c1[H])C1([H])C([H])([H])C2([H])C([H])=C(C([H])([H])[H])C([H])(C2([H])[H])C1([H])[H]
     RDKit          3D

 50 52  0  0  0  0  0  0  0  0999 V2000
   -4.9911   -0.6744    0.3386 C   0  0  0  0  0  0  0  0  0  0  0  0
   -3.6682   -1.0374   -0.2684 C   0  0  0  0  0  0  0  0  0  0  0  0
   -3.2388   -0.7987   -1.4956 C   0  0  0  0  0  0  0  0  0  0  0  0
   -1.8444   -1.3433   -1.6721 C   0  0  0  0  0  0  0  0  0  0  0  0
   -1.9112   -2.4883   -0.6597 C   0  0  0  0  0  0  0  0  0  0  0  0
   -2.5916   -1.7414    0.4649 C   0  0  0  0  0  0  0  0  0  0  0  0
   -1.6773   -0.6798    1.0465 C   0  0  0  0  0  0  0  0  0  0  0  0
   -0.4069   -0.5491    0.2233 C   0  0  0  0  0  0  0  0  0  0  0  0
   -0.8107   -0.3709   -1.1948 C   0  0  0  0  0  0  0  0  0  0  0  0
    0.4564    0.5288    0.8028 C   0  0  0  0  0  0  0  0  0  0  0  0
    1.9912    0.7291   -0.1435 S   0  0  0  0  0  0  0  0  0  0  0  0
    3.0055   -0.7589    0.0250 C   0  0  0  0  0  0  0  0  0  0  0  0
    4.2908   -0.6128   -0.7593 C   0  0  0  0  0  0  0  0  0  0  0  0
    3.9888   -0.3995   -2.2178 C   0  0  0  0  0  0  0  0  0  0  0  0
    5.0681   -1.9087   -0.6346 C   0  0  0  0  0  0  0  0  0  0  0  0
    5.0864    0.4133   -0.2984 O   0  0  0  0  0  0  0  0  0  0  0  0
   -0.2194    1.8253    1.0258 C   0  0  0  0  0  0  0  0  0  0  0  0
   -0.7343    2.1744    2.2558 C   0  0  0  0  0  0  0  0  0  0  0  0
   -1.3561    3.3677    2.5328 C   0  0  0  0  0  0  0  0  0  0  0  0
   -1.4642    4.2692    1.4943 C   0  0  0  0  0  0  0  0  0  0  0  0
   -0.9662    3.9715    0.2426 C   0  0  0  0  0  0  0  0  0  0  0  0
   -0.3393    2.7421    0.0055 C   0  0  0  0  0  0  0  0  0  0  0  0
   -5.3579    0.2243   -0.2106 H   0  0  0  0  0  0  0  0  0  0  0  0
   -5.7203   -1.4938    0.2504 H   0  0  0  0  0  0  0  0  0  0  0  0
   -4.8505   -0.4060    1.4055 H   0  0  0  0  0  0  0  0  0  0  0  0
   -3.8423   -0.2806   -2.2346 H   0  0  0  0  0  0  0  0  0  0  0  0
   -1.6644   -1.7105   -2.6842 H   0  0  0  0  0  0  0  0  0  0  0  0
   -2.5984   -3.2811   -1.0331 H   0  0  0  0  0  0  0  0  0  0  0  0
   -0.9572   -2.9363   -0.4223 H   0  0  0  0  0  0  0  0  0  0  0  0
   -2.9808   -2.4240    1.2450 H   0  0  0  0  0  0  0  0  0  0  0  0
   -2.1675    0.3353    0.9920 H   0  0  0  0  0  0  0  0  0  0  0  0
   -1.4585   -0.8428    2.1210 H   0  0  0  0  0  0  0  0  0  0  0  0
    0.1878   -1.4963    0.3448 H   0  0  0  0  0  0  0  0  0  0  0  0
   -1.2085    0.6398   -1.4218 H   0  0  0  0  0  0  0  0  0  0  0  0
    0.0910   -0.5120   -1.8548 H   0  0  0  0  0  0  0  0  0  0  0  0
    0.7873    0.1979    1.8437 H   0  0  0  0  0  0  0  0  0  0  0  0
    3.2526   -0.8875    1.0959 H   0  0  0  0  0  0  0  0  0  0  0  0
    2.4760   -1.6418   -0.4058 H   0  0  0  0  0  0  0  0  0  0  0  0
    3.6631   -1.3400   -2.6616 H   0  0  0  0  0  0  0  0  0  0  0  0
    3.3044    0.4571   -2.3966 H   0  0  0  0  0  0  0  0  0  0  0  0
    4.9504   -0.1120   -2.7199 H   0  0  0  0  0  0  0  0  0  0  0  0
    4.4332   -2.7496   -0.2808 H   0  0  0  0  0  0  0  0  0  0  0  0
    5.4830   -2.2141   -1.6148 H   0  0  0  0  0  0  0  0  0  0  0  0
    5.9243   -1.8192    0.0637 H   0  0  0  0  0  0  0  0  0  0  0  0
    5.9417    0.0729    0.0926 H   0  0  0  0  0  0  0  0  0  0  0  0
   -0.6367    1.4514    3.0509 H   0  0  0  0  0  0  0  0  0  0  0  0
   -1.7595    3.6409    3.4973 H   0  0  0  0  0  0  0  0  0  0  0  0
   -1.9449    5.2096    1.6850 H   0  0  0  0  0  0  0  0  0  0  0  0
   -1.0597    4.6921   -0.5655 H   0  0  0  0  0  0  0  0  0  0  0  0
    0.0450    2.5683   -1.0026 H   0  0  0  0  0  0  0  0  0  0  0  0
  1  2  1  0
  2  3  2  0
  3  4  1  0
  4  5  1  0
  5  6  1  0
  6  7  1  0
  7  8  1  0
  8  9  1  0
  8 10  1  0
 10 11  1  0
 11 12  1  0
 12 13  1  0
 13 14  1  0
 13 15  1  0
 13 16  1  0
 10 17  1  0
 17 18  2  0
 18 19  1  0
 19 20  2  0
 20 21  1  0
 21 22  2  0
  6  2  1  0
 22 17  1  0
  9  4  1  0
  1 23  1  0
  1 24  1  0
  1 25  1  0
  3 26  1  0
  4 27  1  0
  5 28  1  0
  5 29  1  0
  6 30  1  0
  7 31  1  0
  7 32  1  0
  8 33  1  0
  9 34  1  0
  9 35  1  0
 10 36  1  0
 12 37  1  0
 12 38  1  0
 14 39  1  0
 14 40  1  0
 14 41  1  0
 15 42  1  0
 15 43  1  0
 15 44  1  0
 16 45  1  0
 18 46  1  0
 19 47  1  0
 20 48  1  0
 21 49  1  0
 22 50  1  0
M  END
$$$$
[H]N([H])C(=O)C([H])(N([H])C(=O)[C@@]([H])(N([H])[H])C([H])([H])C([H])(C([H])([H])[H])C([H])([H])[H])C([H])([H])C([H])([H])C([H])([H])N([H])[H]
     RDKit          3D

 41 40  0  0  0  0  0  0  0  0999 V2000
   -5.0660   -0.0508    0.4476 C   0  0  0  0  0  0  0  0  0  0  0  0
   -3.6132    0.2677    0.9363 C   0  0  0  0  0  0  0  0  0  0  0  0
   -2.9207   -1.0931    0.9301 C   0  0  0  0  0  0  0  0  0  0  0  0
   -3.0414    1.1917   -0.0862 C   0  0  0  0  0  0  0  0  0  0  0  0
   -1.6938    1.7444    0.1183 C   0  0  2  0  0  0  0  0  0  0  0  0
   -1.3445    2.6183   -1.0372 N   0  0  0  0  0  0  0  0  0  0  0  0
   -0.5546    0.8744    0.3321 C   0  0  0  0  0  0  0  0  0  0  0  0
   -0.3029    0.3984    1.4589 O   0  0  0  0  0  0  0  0  0  0  0  0
    0.3051    0.5402   -0.7341 N   0  0  0  0  0  0  0  0  0  0  0  0
    1.4805   -0.3432   -0.5665 C   0  0  0  0  0  0  0  0  0  0  0  0
    2.7212    0.4039   -0.8841 C   0  0  0  0  0  0  0  0  0  0  0  0
    4.0132   -0.3287   -0.7330 C   0  0  0  0  0  0  0  0  0  0  0  0
    4.2255   -0.8155    0.6932 C   0  0  0  0  0  0  0  0  0  0  0  0
    4.2356    0.3704    1.5423 N   0  0  0  0  0  0  0  0  0  0  0  0
    1.2995   -1.5363   -1.4067 C   0  0  0  0  0  0  0  0  0  0  0  0
    0.2641   -1.6186   -2.1787 O   0  0  0  0  0  0  0  0  0  0  0  0
    2.1402   -2.6662   -1.4914 N   0  0  0  0  0  0  0  0  0  0  0  0
   -5.3297   -1.0453    0.8593 H   0  0  0  0  0  0  0  0  0  0  0  0
   -5.7289    0.7380    0.8228 H   0  0  0  0  0  0  0  0  0  0  0  0
   -5.0314   -0.0773   -0.6445 H   0  0  0  0  0  0  0  0  0  0  0  0
   -3.7136    0.6601    1.9444 H   0  0  0  0  0  0  0  0  0  0  0  0
   -2.2063   -1.1795    0.0979 H   0  0  0  0  0  0  0  0  0  0  0  0
   -3.6835   -1.9191    0.7580 H   0  0  0  0  0  0  0  0  0  0  0  0
   -2.4778   -1.2937    1.9143 H   0  0  0  0  0  0  0  0  0  0  0  0
   -3.7488    2.0833   -0.2136 H   0  0  0  0  0  0  0  0  0  0  0  0
   -3.0915    0.7100   -1.1042 H   0  0  0  0  0  0  0  0  0  0  0  0
   -1.7326    2.4940    0.9737 H   0  0  0  0  0  0  0  0  0  0  0  0
   -1.5734    2.0818   -1.8986 H   0  0  0  0  0  0  0  0  0  0  0  0
   -1.9269    3.4762   -0.9533 H   0  0  0  0  0  0  0  0  0  0  0  0
    0.1063    0.9270   -1.6713 H   0  0  0  0  0  0  0  0  0  0  0  0
    1.4907   -0.6364    0.4951 H   0  0  0  0  0  0  0  0  0  0  0  0
    2.7966    1.3802   -0.3470 H   0  0  0  0  0  0  0  0  0  0  0  0
    2.6809    0.7187   -1.9747 H   0  0  0  0  0  0  0  0  0  0  0  0
    4.8709    0.3515   -1.0223 H   0  0  0  0  0  0  0  0  0  0  0  0
    4.0795   -1.1815   -1.4160 H   0  0  0  0  0  0  0  0  0  0  0  0
    3.4186   -1.5055    0.9646 H   0  0  0  0  0  0  0  0  0  0  0  0
    5.2091   -1.3218    0.7693 H   0  0  0  0  0  0  0  0  0  0  0  0
    3.4056    0.3759    2.1890 H   0  0  0  0  0  0  0  0  0  0  0  0
    5.1388    0.4182    2.0662 H   0  0  0  0  0  0  0  0  0  0  0  0
    2.6908   -2.9297   -2.3230 H   0  0  0  0  0  0  0  0  0  0  0  0
    2.2088   -3.2819   -0.6451 H   0  0  0  0  0  0  0  0  0  0  0  0
  1  2  1  0
  2  3  1  0
  2  4  1  0
  4  5  1  0
  5  6  1  0
  5  7  1  0
  7  8  2  0
  7  9  1  0
  9 10  1  0
 10 11  1  0
 11 12  1  0
 12 13  1  0
 13 14  1  0
 10 15  1  0
 15 16  2  0
 15 17  1  0
  1 18  1  0
  1 19  1  0
  1 20  1  0
  2 21  1  0
  3 22  1  0
  3 23  1  0
  3 24  1  0
  4 25  1  0
  4 26  1  0
  5 27  1  1
  6 28  1  0
  6 29  1  0
  9 30  1  0
 10 31  1  0
 11 32  1  0
 11 33  1  0
 12 34  1  0
 12 35  1  0
 13 36  1  0
 13 37  1  0
 14 38  1  0
 14 39  1  0
 17 40  1  0
 17 41  1  0
M  END
$$$$
[H]Oc1c(Cl)c([H])c(C([H])([H])OC([H])([H])[C@@]2([H])C(=O)N([H])[C@@]([H])(C([H])([H])C3([H])C([H])([H])C([H])([H])C([H])([H])C([H])([H])C3([H])[H])C(=O)N([H])[C@]([H])(C([H])(C([H])([H])[H])C([H])([H])[H])OC([H])([H])[C@@]([H])(C([H])([H])O[H])C(=O)N2[H])c([H])c1C([H])([H])c1c([H])c([H])c(-c2c([H])c([H])nn2[H])c([H])c1[H]
     RDKit          3D

 98102  0  0  0  0  0  0  0  0999 V2000
   -7.4562    3.2358    0.3921 C   0  0  0  0  0  0  0  0  0  0  0  0
   -6.9558    2.4359   -0.7945 C   0  0  0  0  0  0  0  0  0  0  0  0
   -7.2036    3.0882   -2.1120 C   0  0  0  0  0  0  0  0  0  0  0  0
   -5.4787    2.0613   -0.5801 C   0  0  1  0  0  0  0  0  0  0  0  0
   -5.0410    1.3051   -1.7188 N   0  0  0  0  0  0  0  0  0  0  0  0
   -4.6851   -0.0399   -1.8025 C   0  0  0  0  0  0  0  0  0  0  0  0
   -5.1939   -0.7154   -2.7672 O   0  0  0  0  0  0  0  0  0  0  0  0
   -3.7791   -0.7997   -0.9070 C   0  0  2  0  0  0  0  0  0  0  0  0
   -4.5910   -1.8913   -0.2992 C   0  0  0  0  0  0  0  0  0  0  0  0
   -3.9159   -2.8156    0.6357 C   0  0  0  0  0  0  0  0  0  0  0  0
   -2.7544   -3.5659    0.0469 C   0  0  0  0  0  0  0  0  0  0  0  0
   -2.2813   -4.5735    1.0676 C   0  0  0  0  0  0  0  0  0  0  0  0
   -3.2334   -4.6916    2.2429 C   0  0  0  0  0  0  0  0  0  0  0  0
   -3.4581   -3.4043    2.9659 C   0  0  0  0  0  0  0  0  0  0  0  0
   -3.4978   -2.2416    1.9601 C   0  0  0  0  0  0  0  0  0  0  0  0
   -3.0849   -0.0093    0.0405 N   0  0  0  0  0  0  0  0  0  0  0  0
   -1.7645    0.5333   -0.0952 C   0  0  0  0  0  0  0  0  0  0  0  0
   -1.0913    0.6156    0.9741 O   0  0  0  0  0  0  0  0  0  0  0  0
   -1.1387    0.9891   -1.3204 C   0  0  2  0  0  0  0  0  0  0  0  0
    0.2145    0.2478   -1.4237 C   0  0  0  0  0  0  0  0  0  0  0  0
    0.0837   -1.1037   -1.3010 O   0  0  0  0  0  0  0  0  0  0  0  0
    1.3206   -1.7116   -1.3931 C   0  0  0  0  0  0  0  0  0  0  0  0
    2.2953   -1.2900   -0.3776 C   0  0  0  0  0  0  0  0  0  0  0  0
    2.2301   -1.8175    0.8920 C   0  0  0  0  0  0  0  0  0  0  0  0
    3.0916   -1.4831    1.8994 C   0  0  0  0  0  0  0  0  0  0  0  0
    2.9887   -2.1727    3.5070 Cl  0  0  0  0  0  0  0  0  0  0  0  0
    4.0903   -0.5615    1.6375 C   0  0  0  0  0  0  0  0  0  0  0  0
    4.9618   -0.2298    2.6778 O   0  0  0  0  0  0  0  0  0  0  0  0
    4.2110    0.0036    0.3907 C   0  0  0  0  0  0  0  0  0  0  0  0
    5.2669    0.9858    0.1214 C   0  0  0  0  0  0  0  0  0  0  0  0
    6.6254    0.4210   -0.0234 C   0  0  0  0  0  0  0  0  0  0  0  0
    7.5475    0.5668    0.9933 C   0  0  0  0  0  0  0  0  0  0  0  0
    8.8367    0.0355    0.8928 C   0  0  0  0  0  0  0  0  0  0  0  0
    9.2340   -0.6491   -0.2167 C   0  0  0  0  0  0  0  0  0  0  0  0
    8.3249   -0.8033   -1.2414 C   0  0  0  0  0  0  0  0  0  0  0  0
    7.0431   -0.2702   -1.1322 C   0  0  0  0  0  0  0  0  0  0  0  0
   10.5872   -1.1960   -0.3121 C   0  0  0  0  0  0  0  0  0  0  0  0
   11.5678   -1.0298    0.6730 C   0  0  0  0  0  0  0  0  0  0  0  0
   12.6822   -1.6746    0.2109 C   0  0  0  0  0  0  0  0  0  0  0  0
   12.4078   -2.2020   -0.9785 N   0  0  0  0  0  0  0  0  0  0  0  0
   11.1564   -1.9113   -1.2817 N   0  0  0  0  0  0  0  0  0  0  0  0
    3.2975   -0.3768   -0.6095 C   0  0  0  0  0  0  0  0  0  0  0  0
   -0.9166    2.4113   -1.4523 N   0  0  0  0  0  0  0  0  0  0  0  0
   -1.2780    3.4889   -0.6714 C   0  0  0  0  0  0  0  0  0  0  0  0
   -0.3269    4.1706   -0.1172 O   0  0  0  0  0  0  0  0  0  0  0  0
   -2.6150    4.0401   -0.3327 C   0  0  2  0  0  0  0  0  0  0  0  0
   -2.8860    3.9632    1.1628 C   0  0  0  0  0  0  0  0  0  0  0  0
   -4.1179    4.4724    1.4986 O   0  0  0  0  0  0  0  0  0  0  0  0
   -3.7381    3.5097   -1.1644 C   0  0  0  0  0  0  0  0  0  0  0  0
   -4.8081    3.2318   -0.3776 O   0  0  0  0  0  0  0  0  0  0  0  0
   -7.5128    4.3134    0.1173 H   0  0  0  0  0  0  0  0  0  0  0  0
   -6.7433    3.0684    1.2294 H   0  0  0  0  0  0  0  0  0  0  0  0
   -8.4547    2.8676    0.7131 H   0  0  0  0  0  0  0  0  0  0  0  0
   -7.5066    1.4654   -0.7845 H   0  0  0  0  0  0  0  0  0  0  0  0
   -6.3821    3.7558   -2.3978 H   0  0  0  0  0  0  0  0  0  0  0  0
   -8.1556    3.6848   -1.9992 H   0  0  0  0  0  0  0  0  0  0  0  0
   -7.4320    2.3488   -2.9271 H   0  0  0  0  0  0  0  0  0  0  0  0
   -5.4980    1.5031    0.3728 H   0  0  0  0  0  0  0  0  0  0  0  0
   -4.9978    1.8883   -2.6131 H   0  0  0  0  0  0  0  0  0  0  0  0
   -3.0173   -1.2893   -1.5586 H   0  0  0  0  0  0  0  0  0  0  0  0
   -5.4739   -1.4644    0.2729 H   0  0  0  0  0  0  0  0  0  0  0  0
   -5.1071   -2.4630   -1.1264 H   0  0  0  0  0  0  0  0  0  0  0  0
   -4.6754   -3.6164    0.8887 H   0  0  0  0  0  0  0  0  0  0  0  0
   -3.1302   -4.1331   -0.8286 H   0  0  0  0  0  0  0  0  0  0  0  0
   -1.8966   -2.9211   -0.2077 H   0  0  0  0  0  0  0  0  0  0  0  0
   -1.2967   -4.2646    1.5239 H   0  0  0  0  0  0  0  0  0  0  0  0
   -2.2007   -5.6074    0.6393 H   0  0  0  0  0  0  0  0  0  0  0  0
   -2.6937   -5.3654    2.9757 H   0  0  0  0  0  0  0  0  0  0  0  0
   -4.1520   -5.2481    1.9933 H   0  0  0  0  0  0  0  0  0  0  0  0
   -2.6680   -3.1996    3.7249 H   0  0  0  0  0  0  0  0  0  0  0  0
   -4.4226   -3.4804    3.5219 H   0  0  0  0  0  0  0  0  0  0  0  0
   -4.3056   -1.5747    2.3336 H   0  0  0  0  0  0  0  0  0  0  0  0
   -2.5346   -1.7084    1.9475 H   0  0  0  0  0  0  0  0  0  0  0  0
   -3.5886    0.2146    0.9511 H   0  0  0  0  0  0  0  0  0  0  0  0
   -1.6923    0.6589   -2.2421 H   0  0  0  0  0  0  0  0  0  0  0  0
    0.8656    0.7195   -0.6735 H   0  0  0  0  0  0  0  0  0  0  0  0
    0.6080    0.4961   -2.4271 H   0  0  0  0  0  0  0  0  0  0  0  0
    1.7794   -1.5547   -2.4131 H   0  0  0  0  0  0  0  0  0  0  0  0
    1.1320   -2.8247   -1.3492 H   0  0  0  0  0  0  0  0  0  0  0  0
    1.4463   -2.5469    1.1144 H   0  0  0  0  0  0  0  0  0  0  0  0
    4.8836   -0.6353    3.5880 H   0  0  0  0  0  0  0  0  0  0  0  0
    5.3146    1.7272    0.9723 H   0  0  0  0  0  0  0  0  0  0  0  0
    5.0117    1.6435   -0.7591 H   0  0  0  0  0  0  0  0  0  0  0  0
    7.3582    1.0933    1.9183 H   0  0  0  0  0  0  0  0  0  0  0  0
    9.5537    0.1616    1.7056 H   0  0  0  0  0  0  0  0  0  0  0  0
    8.5857   -1.3349   -2.1390 H   0  0  0  0  0  0  0  0  0  0  0  0
    6.3351   -0.3965   -1.9442 H   0  0  0  0  0  0  0  0  0  0  0  0
   11.4708   -0.4952    1.6204 H   0  0  0  0  0  0  0  0  0  0  0  0
   13.6503   -1.7577    0.7158 H   0  0  0  0  0  0  0  0  0  0  0  0
   10.6592   -2.2010   -2.1669 H   0  0  0  0  0  0  0  0  0  0  0  0
    3.4041    0.0687   -1.5711 H   0  0  0  0  0  0  0  0  0  0  0  0
   -0.3495    2.6374   -2.3351 H   0  0  0  0  0  0  0  0  0  0  0  0
   -2.6302    5.1641   -0.5239 H   0  0  0  0  0  0  0  0  0  0  0  0
   -2.6682    2.9866    1.5991 H   0  0  0  0  0  0  0  0  0  0  0  0
   -2.1204    4.6624    1.6160 H   0  0  0  0  0  0  0  0  0  0  0  0
   -4.0966    5.4629    1.4405 H   0  0  0  0  0  0  0  0  0  0  0  0
   -4.0835    4.2445   -1.9539 H   0  0  0  0  0  0  0  0  0  0  0  0
   -3.3451    2.6639   -1.7586 H   0  0  0  0  0  0  0  0  0  0  0  0
  1  2  1  0
  2  3  1  0
  2  4  1  0
  4  5  1  0
  5  6  1  0
  6  7  2  0
  6  8  1  0
  8  9  1  0
  9 10  1  0
 10 11  1  0
 11 12  1  0
 12 13  1  0
 13 14  1  0
 14 15  1  0
  8 16  1  0
 16 17  1  0
 17 18  2  0
 17 19  1  0
 19 20  1  0
 20 21  1  0
 21 22  1  0
 22 23  1  0
 23 24  2  0
 24 25  1  0
 25 26  1  0
 25 27  2  0
 27 28  1  0
 27 29  1  0
 29 30  1  0
 30 31  1  0
 31 32  2  0
 32 33  1  0
 33 34  2  0
 34 35  1  0
 35 36  2  0
 34 37  1  0
 37 38  2  0
 38 39  1  0
 39 40  2  0
 40 41  1  0
 29 42  2  0
 19 43  1  0
 43 44  1  0
 44 45  2  0
 44 46  1  0
 46 47  1  0
 47 48  1  0
 46 49  1  0
 49 50  1  0
 50  4  1  0
 15 10  1  0
 42 23  1  0
 36 31  1  0
 41 37  1  0
  1 51  1  0
  1 52  1  0
  1 53  1  0
  2 54  1  0
  3 55  1  0
  3 56  1  0
  3 57  1  0
  4 58  1  1
  5 59  1  0
  8 60  1  6
  9 61  1  0
  9 62  1  0
 10 63  1  0
 11 64  1  0
 11 65  1  0
 12 66  1  0
 12 67  1  0
 13 68  1  0
 13 69  1  0
 14 70  1  0
 14 71  1  0
 15 72  1  0
 15 73  1  0
 16 74  1  0
 19 75  1  6
 20 76  1  0
 20 77  1  0
 22 78  1  0
 22 79  1  0
 24 80  1  0
 28 81  1  0
 30 82  1  0
 30 83  1  0
 32 84  1  0
 33 85  1  0
 35 86  1  0
 36 87  1  0
 38 88  1  0
 39 89  1  0
 41 90  1  0
 42 91  1  0
 43 92  1  0
 46 93  1  6
 47 94  1  0
 47 95  1  0
 48 96  1  0
 49 97  1  0
 49 98  1  0
M  END
$$$$
[H]c1c([H])c(-c2nc3c([H])c(F)c(F)c([H])c3n2C([H])([H])[H])c(OC([H])([H])[H])c([H])c1C(=O)N([H])c1c([H])c(C([H])([H])[H])c([H])c(C([H])([H])[H])c1[H]
     RDKit          3D

 52 55  0  0  0  0  0  0  0  0999 V2000
   -1.2758   -0.0278   -2.9278 C   0  0  0  0  0  0  0  0  0  0  0  0
   -2.0857   -0.0104   -1.7673 O   0  0  0  0  0  0  0  0  0  0  0  0
   -1.4485   -0.0778   -0.5433 C   0  0  0  0  0  0  0  0  0  0  0  0
   -0.0851   -0.1597   -0.4088 C   0  0  0  0  0  0  0  0  0  0  0  0
    0.5459   -0.2266    0.8083 C   0  0  0  0  0  0  0  0  0  0  0  0
   -0.2281   -0.2099    1.9256 C   0  0  0  0  0  0  0  0  0  0  0  0
   -1.6029   -0.1279    1.8274 C   0  0  0  0  0  0  0  0  0  0  0  0
   -2.2356   -0.0620    0.6255 C   0  0  0  0  0  0  0  0  0  0  0  0
   -3.6969   -0.0102    0.4616 C   0  0  0  0  0  0  0  0  0  0  0  0
   -4.2949    0.3040   -0.7385 N   0  0  0  0  0  0  0  0  0  0  0  0
   -5.6213    0.2575   -0.6346 C   0  0  0  0  0  0  0  0  0  0  0  0
   -6.6840    0.4784   -1.5078 C   0  0  0  0  0  0  0  0  0  0  0  0
   -8.0012    0.3566   -1.1211 C   0  0  0  0  0  0  0  0  0  0  0  0
   -9.0147    0.5826   -2.0110 F   0  0  0  0  0  0  0  0  0  0  0  0
   -8.2812    0.0020    0.1813 C   0  0  0  0  0  0  0  0  0  0  0  0
   -9.5758   -0.1158    0.5541 F   0  0  0  0  0  0  0  0  0  0  0  0
   -7.2308   -0.2173    1.0479 C   0  0  0  0  0  0  0  0  0  0  0  0
   -5.9150   -0.0946    0.6582 C   0  0  0  0  0  0  0  0  0  0  0  0
   -4.7062   -0.2495    1.2941 N   0  0  0  0  0  0  0  0  0  0  0  0
   -4.6528   -0.6452    2.6670 C   0  0  0  0  0  0  0  0  0  0  0  0
    2.0100   -0.3046    0.9661 C   0  0  0  0  0  0  0  0  0  0  0  0
    2.4273   -0.7559    2.0336 O   0  0  0  0  0  0  0  0  0  0  0  0
    2.8386    0.1235   -0.0685 N   0  0  0  0  0  0  0  0  0  0  0  0
    4.2446    0.1334   -0.1246 C   0  0  0  0  0  0  0  0  0  0  0  0
    5.0549   -0.2930    0.8822 C   0  0  0  0  0  0  0  0  0  0  0  0
    6.4523   -0.2533    0.7534 C   0  0  0  0  0  0  0  0  0  0  0  0
    7.3245   -0.7217    1.8595 C   0  0  0  0  0  0  0  0  0  0  0  0
    7.0466    0.2175   -0.3930 C   0  0  0  0  0  0  0  0  0  0  0  0
    6.2459    0.6471   -1.4075 C   0  0  0  0  0  0  0  0  0  0  0  0
    6.8813    1.1574   -2.6502 C   0  0  0  0  0  0  0  0  0  0  0  0
    4.8936    0.6032   -1.2701 C   0  0  0  0  0  0  0  0  0  0  0  0
   -1.9391    0.2539   -3.7833 H   0  0  0  0  0  0  0  0  0  0  0  0
   -0.4622    0.7274   -2.8938 H   0  0  0  0  0  0  0  0  0  0  0  0
   -0.8440   -1.0350   -3.1295 H   0  0  0  0  0  0  0  0  0  0  0  0
    0.4990   -0.1759   -1.3323 H   0  0  0  0  0  0  0  0  0  0  0  0
    0.2411   -0.2619    2.9142 H   0  0  0  0  0  0  0  0  0  0  0  0
   -2.1451   -0.0975    2.7593 H   0  0  0  0  0  0  0  0  0  0  0  0
   -6.4428    0.7568   -2.5294 H   0  0  0  0  0  0  0  0  0  0  0  0
   -7.4341   -0.4995    2.0856 H   0  0  0  0  0  0  0  0  0  0  0  0
   -4.3590    0.1855    3.3366 H   0  0  0  0  0  0  0  0  0  0  0  0
   -5.6726   -1.0263    2.9747 H   0  0  0  0  0  0  0  0  0  0  0  0
   -3.9373   -1.5013    2.8380 H   0  0  0  0  0  0  0  0  0  0  0  0
    2.3091    0.4997   -0.9316 H   0  0  0  0  0  0  0  0  0  0  0  0
    4.6987   -0.6797    1.8213 H   0  0  0  0  0  0  0  0  0  0  0  0
    6.8539   -1.5610    2.3892 H   0  0  0  0  0  0  0  0  0  0  0  0
    8.3221   -0.9934    1.4599 H   0  0  0  0  0  0  0  0  0  0  0  0
    7.5019    0.1549    2.5458 H   0  0  0  0  0  0  0  0  0  0  0  0
    8.1267    0.2485   -0.4933 H   0  0  0  0  0  0  0  0  0  0  0  0
    7.8531    0.6400   -2.7800 H   0  0  0  0  0  0  0  0  0  0  0  0
    6.9701    2.2559   -2.5977 H   0  0  0  0  0  0  0  0  0  0  0  0
    6.2705    0.8647   -3.5499 H   0  0  0  0  0  0  0  0  0  0  0  0
    4.2612    0.9442   -2.0755 H   0  0  0  0  0  0  0  0  0  0  0  0
  1  2  1  0
  2  3  1  0
  3  4  2  0
  4  5  1  0
  5  6  2  0
  6  7  1  0
  7  8  2  0
  8  9  1  0
  9 10  2  0
 10 11  1  0
 11 12  2  0
 12 13  1  0
 13 14  1  0
 13 15  2  0
 15 16  1  0
 15 17  1  0
 17 18  2  0
 18 19  1  0
 19 20  1  0
  5 21  1  0
 21 22  2  0
 21 23  1  0
 23 24  1  0
 24 25  2  0
 25 26  1  0
 26 27  1  0
 26 28  2  0
 28 29  1  0
 29 30  1  0
 29 31  2  0
  8  3  1  0
 19  9  1  0
 31 24  1  0
 18 11  1  0
  1 32  1  0
  1 33  1  0
  1 34  1  0
  4 35  1  0
  6 36  1  0
  7 37  1  0
 12 38  1  0
 17 39  1  0
 20 40  1  0
 20 41  1  0
 20 42  1  0
 23 43  1  0
 25 44  1  0
 27 45  1  0
 27 46  1  0
 27 47  1  0
 28 48  1  0
 30 49  1  0
 30 50  1  0
 30 51  1  0
 31 52  1  0
M  END
$$$$
[H]OC(=O)c1c([H])c([H])c(-c2c([H])c([H])c3c(C(=O)N([H])C([H])([H])c4c([H])c([H])c([H])c([H])c4F)c([H])n(C([H])(C([H])([H])[H])C([H])([H])[H])c3c2[H])c([H])c1[H]
     RDKit          3D

 55 58  0  0  0  0  0  0  0  0999 V2000
   -1.4851   -4.0404    0.5947 C   0  0  0  0  0  0  0  0  0  0  0  0
   -0.8805   -3.7959   -0.7529 C   0  0  0  0  0  0  0  0  0  0  0  0
   -1.8628   -3.6773   -1.8773 C   0  0  0  0  0  0  0  0  0  0  0  0
   -0.0432   -2.5945   -0.6534 N   0  0  0  0  0  0  0  0  0  0  0  0
    1.2797   -2.5703   -0.8520 C   0  0  0  0  0  0  0  0  0  0  0  0
    1.7226   -1.2423   -0.6780 C   0  0  0  0  0  0  0  0  0  0  0  0
    3.1084   -0.8017   -0.7530 C   0  0  0  0  0  0  0  0  0  0  0  0
    3.6052   -0.4610   -1.8298 O   0  0  0  0  0  0  0  0  0  0  0  0
    3.9107   -0.7762    0.4534 N   0  0  0  0  0  0  0  0  0  0  0  0
    5.2929   -0.3497    0.4225 C   0  0  0  0  0  0  0  0  0  0  0  0
    5.5168    1.0687    0.1963 C   0  0  0  0  0  0  0  0  0  0  0  0
    4.5046    1.9703    0.0914 C   0  0  0  0  0  0  0  0  0  0  0  0
    4.7084    3.3331   -0.0854 C   0  0  0  0  0  0  0  0  0  0  0  0
    6.0027    3.8079   -0.1592 C   0  0  0  0  0  0  0  0  0  0  0  0
    7.0443    2.9153   -0.0553 C   0  0  0  0  0  0  0  0  0  0  0  0
    6.8093    1.5624    0.1199 C   0  0  0  0  0  0  0  0  0  0  0  0
    7.9070    0.7766    0.2036 F   0  0  0  0  0  0  0  0  0  0  0  0
    0.5690   -0.5439   -0.3744 C   0  0  0  0  0  0  0  0  0  0  0  0
    0.3624    0.8111   -0.1351 C   0  0  0  0  0  0  0  0  0  0  0  0
   -0.9043    1.2903    0.1065 C   0  0  0  0  0  0  0  0  0  0  0  0
   -1.9838    0.4527    0.1198 C   0  0  0  0  0  0  0  0  0  0  0  0
   -1.7738   -0.8957   -0.1171 C   0  0  0  0  0  0  0  0  0  0  0  0
   -0.5131   -1.3918   -0.3632 C   0  0  0  0  0  0  0  0  0  0  0  0
   -3.3192    0.9891    0.3059 C   0  0  0  0  0  0  0  0  0  0  0  0
   -3.7204    2.2318   -0.1547 C   0  0  0  0  0  0  0  0  0  0  0  0
   -4.9994    2.7088    0.0164 C   0  0  0  0  0  0  0  0  0  0  0  0
   -5.9268    1.9184    0.6756 C   0  0  0  0  0  0  0  0  0  0  0  0
   -5.5203    0.6714    1.1377 C   0  0  0  0  0  0  0  0  0  0  0  0
   -4.2463    0.2001    0.9650 C   0  0  0  0  0  0  0  0  0  0  0  0
   -7.3080    2.3754    0.8731 C   0  0  0  0  0  0  0  0  0  0  0  0
   -8.2463    1.5872    1.5031 O   0  0  0  0  0  0  0  0  0  0  0  0
   -7.6022    3.5217    0.4397 O   0  0  0  0  0  0  0  0  0  0  0  0
   -1.0327   -4.9252    1.0996 H   0  0  0  0  0  0  0  0  0  0  0  0
   -2.5737   -4.3140    0.4937 H   0  0  0  0  0  0  0  0  0  0  0  0
   -1.3540   -3.2062    1.3119 H   0  0  0  0  0  0  0  0  0  0  0  0
   -0.2230   -4.6792   -0.9921 H   0  0  0  0  0  0  0  0  0  0  0  0
   -1.4510   -4.1066   -2.8253 H   0  0  0  0  0  0  0  0  0  0  0  0
   -2.7788   -4.2706   -1.6337 H   0  0  0  0  0  0  0  0  0  0  0  0
   -2.1746   -2.6641   -2.1287 H   0  0  0  0  0  0  0  0  0  0  0  0
    1.9643   -3.3618   -1.1030 H   0  0  0  0  0  0  0  0  0  0  0  0
    3.5110   -1.0691    1.3735 H   0  0  0  0  0  0  0  0  0  0  0  0
    5.7783   -0.7297    1.3607 H   0  0  0  0  0  0  0  0  0  0  0  0
    5.8495   -0.9673   -0.3772 H   0  0  0  0  0  0  0  0  0  0  0  0
    3.4891    1.6434    0.1507 H   0  0  0  0  0  0  0  0  0  0  0  0
    3.8628    4.0044   -0.1623 H   0  0  0  0  0  0  0  0  0  0  0  0
    6.1348    4.8794   -0.2964 H   0  0  0  0  0  0  0  0  0  0  0  0
    8.0365    3.3111   -0.1181 H   0  0  0  0  0  0  0  0  0  0  0  0
    1.2155    1.4704   -0.1516 H   0  0  0  0  0  0  0  0  0  0  0  0
   -0.9954    2.3743    0.2856 H   0  0  0  0  0  0  0  0  0  0  0  0
   -2.6720   -1.5374   -0.0913 H   0  0  0  0  0  0  0  0  0  0  0  0
   -2.9710    2.8307   -0.6652 H   0  0  0  0  0  0  0  0  0  0  0  0
   -5.3208    3.6763   -0.3433 H   0  0  0  0  0  0  0  0  0  0  0  0
   -6.2869    0.0881    1.6536 H   0  0  0  0  0  0  0  0  0  0  0  0
   -3.9473   -0.7744    1.3303 H   0  0  0  0  0  0  0  0  0  0  0  0
   -8.0693    1.2760    2.4451 H   0  0  0  0  0  0  0  0  0  0  0  0
  1  2  1  0
  2  3  1  0
  2  4  1  0
  4  5  1  0
  5  6  2  0
  6  7  1  0
  7  8  2  0
  7  9  1  0
  9 10  1  0
 10 11  1  0
 11 12  2  0
 12 13  1  0
 13 14  2  0
 14 15  1  0
 15 16  2  0
 16 17  1  0
  6 18  1  0
 18 19  2  0
 19 20  1  0
 20 21  2  0
 21 22  1  0
 22 23  2  0
 21 24  1  0
 24 25  2  0
 25 26  1  0
 26 27  2  0
 27 28  1  0
 28 29  2  0
 27 30  1  0
 30 31  1  0
 30 32  2  0
 23  4  1  0
 29 24  1  0
 16 11  1  0
 23 18  1  0
  1 33  1  0
  1 34  1  0
  1 35  1  0
  2 36  1  0
  3 37  1  0
  3 38  1  0
  3 39  1  0
  5 40  1  0
  9 41  1  0
 10 42  1  0
 10 43  1  0
 12 44  1  0
 13 45  1  0
 14 46  1  0
 15 47  1  0
 19 48  1  0
 20 49  1  0
 22 50  1  0
 25 51  1  0
 26 52  1  0
 28 53  1  0
 29 54  1  0
 31 55  1  0
M  END
$$$$
[H]c1nc(N(C([H])([H])[H])C([H])([H])[H])c([H])c(C2(C([H])([H])N([H])C(=O)c3c([H])n(C4([H])C([H])([H])C([H])([H])N(S(=O)(=O)C([H])([H])[H])C([H])([H])C4([H])[H])c4c([H])c(Cl)c([H])c([H])c34)C([H])([H])C2([H])[H])c1[H]
     RDKit          3D

 68 72  0  0  0  0  0  0  0  0999 V2000
   -8.1782    0.4523    2.2510 C   0  0  0  0  0  0  0  0  0  0  0  0
   -8.6190    0.5948    0.8596 N   0  0  0  0  0  0  0  0  0  0  0  0
   -9.9907    0.8213    0.5093 C   0  0  0  0  0  0  0  0  0  0  0  0
   -7.6372    0.5110   -0.1736 C   0  0  0  0  0  0  0  0  0  0  0  0
   -6.2994    0.3933    0.1567 C   0  0  0  0  0  0  0  0  0  0  0  0
   -5.3567    0.2901   -0.8549 C   0  0  0  0  0  0  0  0  0  0  0  0
   -5.7471    0.3043   -2.1642 C   0  0  0  0  0  0  0  0  0  0  0  0
   -7.0863    0.4228   -2.4571 C   0  0  0  0  0  0  0  0  0  0  0  0
   -7.9919    0.5224   -1.4466 N   0  0  0  0  0  0  0  0  0  0  0  0
   -3.9318    0.1730   -0.4565 C   0  0  0  0  0  0  0  0  0  0  0  0
   -2.8774   -0.1143   -1.4919 C   0  0  0  0  0  0  0  0  0  0  0  0
   -1.5638   -0.1893   -0.9061 N   0  0  0  0  0  0  0  0  0  0  0  0
   -0.3897   -0.4448   -1.6534 C   0  0  0  0  0  0  0  0  0  0  0  0
   -0.4527   -0.6015   -2.8999 O   0  0  0  0  0  0  0  0  0  0  0  0
    0.9399   -0.5358   -1.0486 C   0  0  0  0  0  0  0  0  0  0  0  0
    2.1334   -0.0866   -1.5883 C   0  0  0  0  0  0  0  0  0  0  0  0
    3.1569   -0.2573   -0.7388 N   0  0  0  0  0  0  0  0  0  0  0  0
    4.5278    0.1084   -0.9603 C   0  0  0  0  0  0  0  0  0  0  0  0
    5.0189    1.2238   -0.1014 C   0  0  0  0  0  0  0  0  0  0  0  0
    6.4186    1.6341   -0.4461 C   0  0  0  0  0  0  0  0  0  0  0  0
    7.2957    0.5865   -0.8216 N   0  0  0  0  0  0  0  0  0  0  0  0
    6.7578   -0.3997   -1.7039 C   0  0  0  0  0  0  0  0  0  0  0  0
    5.5255   -0.9914   -0.9958 C   0  0  0  0  0  0  0  0  0  0  0  0
    8.3342    0.0149    0.3811 S   0  0  0  0  0  0  0  0  0  0  0  0
    9.4253    1.3189    0.9284 C   0  0  0  0  0  0  0  0  0  0  0  0
    7.6070   -0.5739    1.5749 O   0  0  0  0  0  0  0  0  0  0  0  0
    9.2078   -1.0602   -0.2175 O   0  0  0  0  0  0  0  0  0  0  0  0
    2.6535   -0.8266    0.3766 C   0  0  0  0  0  0  0  0  0  0  0  0
    3.2969   -1.2143    1.5383 C   0  0  0  0  0  0  0  0  0  0  0  0
    2.5431   -1.7936    2.5299 C   0  0  0  0  0  0  0  0  0  0  0  0
    3.3025   -2.3048    4.0198 Cl  0  0  0  0  0  0  0  0  0  0  0  0
    1.1942   -1.9790    2.3659 C   0  0  0  0  0  0  0  0  0  0  0  0
    0.5500   -1.5940    1.2141 C   0  0  0  0  0  0  0  0  0  0  0  0
    1.2741   -1.0058    0.1961 C   0  0  0  0  0  0  0  0  0  0  0  0
   -3.6889   -0.4353    0.9150 C   0  0  0  0  0  0  0  0  0  0  0  0
   -3.5779    1.0121    0.7356 C   0  0  0  0  0  0  0  0  0  0  0  0
   -7.4174    1.2060    2.4933 H   0  0  0  0  0  0  0  0  0  0  0  0
   -9.0287    0.6078    2.9189 H   0  0  0  0  0  0  0  0  0  0  0  0
   -7.7843   -0.5844    2.4329 H   0  0  0  0  0  0  0  0  0  0  0  0
  -10.2478    0.3699   -0.4555 H   0  0  0  0  0  0  0  0  0  0  0  0
  -10.6387    0.4317    1.3281 H   0  0  0  0  0  0  0  0  0  0  0  0
  -10.1573    1.9254    0.4683 H   0  0  0  0  0  0  0  0  0  0  0  0
   -6.0458    0.4000    1.2102 H   0  0  0  0  0  0  0  0  0  0  0  0
   -4.9905    0.2260   -2.9588 H   0  0  0  0  0  0  0  0  0  0  0  0
   -7.3930    0.4332   -3.4760 H   0  0  0  0  0  0  0  0  0  0  0  0
   -3.1130   -1.0952   -1.9672 H   0  0  0  0  0  0  0  0  0  0  0  0
   -2.8412    0.6240   -2.3107 H   0  0  0  0  0  0  0  0  0  0  0  0
   -1.4993   -0.0102    0.1125 H   0  0  0  0  0  0  0  0  0  0  0  0
    2.1952    0.3473   -2.5908 H   0  0  0  0  0  0  0  0  0  0  0  0
    4.5554    0.5415   -2.0208 H   0  0  0  0  0  0  0  0  0  0  0  0
    4.8623    1.1184    0.9847 H   0  0  0  0  0  0  0  0  0  0  0  0
    4.3622    2.1124   -0.3724 H   0  0  0  0  0  0  0  0  0  0  0  0
    6.8286    2.1515    0.4461 H   0  0  0  0  0  0  0  0  0  0  0  0
    6.3987    2.3970   -1.2579 H   0  0  0  0  0  0  0  0  0  0  0  0
    6.4212    0.0103   -2.6594 H   0  0  0  0  0  0  0  0  0  0  0  0
    7.5172   -1.1983   -1.8136 H   0  0  0  0  0  0  0  0  0  0  0  0
    5.9306   -1.3408   -0.0347 H   0  0  0  0  0  0  0  0  0  0  0  0
    5.1755   -1.8837   -1.5590 H   0  0  0  0  0  0  0  0  0  0  0  0
   10.3385    0.8634    1.4104 H   0  0  0  0  0  0  0  0  0  0  0  0
    8.9252    1.9048    1.7429 H   0  0  0  0  0  0  0  0  0  0  0  0
    9.7705    1.9146    0.0884 H   0  0  0  0  0  0  0  0  0  0  0  0
    4.3612   -1.0626    1.6506 H   0  0  0  0  0  0  0  0  0  0  0  0
    0.5555   -2.4310    3.1339 H   0  0  0  0  0  0  0  0  0  0  0  0
   -0.5075   -1.7563    1.0698 H   0  0  0  0  0  0  0  0  0  0  0  0
   -4.5501   -0.8299    1.5048 H   0  0  0  0  0  0  0  0  0  0  0  0
   -2.7865   -1.0768    1.0738 H   0  0  0  0  0  0  0  0  0  0  0  0
   -2.5842    1.4768    0.7944 H   0  0  0  0  0  0  0  0  0  0  0  0
   -4.3872    1.6462    1.1872 H   0  0  0  0  0  0  0  0  0  0  0  0
  1  2  1  0
  2  3  1  0
  2  4  1  0
  4  5  2  0
  5  6  1  0
  6  7  2  0
  7  8  1  0
  8  9  2  0
  6 10  1  0
 10 11  1  0
 11 12  1  0
 12 13  1  0
 13 14  2  0
 13 15  1  0
 15 16  2  0
 16 17  1  0
 17 18  1  0
 18 19  1  0
 19 20  1  0
 20 21  1  0
 21 22  1  0
 22 23  1  0
 21 24  1  0
 24 25  1  0
 24 26  2  0
 24 27  2  0
 17 28  1  0
 28 29  2  0
 29 30  1  0
 30 31  1  0
 30 32  2  0
 32 33  1  0
 33 34  2  0
 10 35  1  0
 35 36  1  0
  9  4  1  0
 36 10  1  0
 34 15  1  0
 23 18  1  0
 34 28  1  0
  1 37  1  0
  1 38  1  0
  1 39  1  0
  3 40  1  0
  3 41  1  0
  3 42  1  0
  5 43  1  0
  7 44  1  0
  8 45  1  0
 11 46  1  0
 11 47  1  0
 12 48  1  0
 16 49  1  0
 18 50  1  0
 19 51  1  0
 19 52  1  0
 20 53  1  0
 20 54  1  0
 22 55  1  0
 22 56  1  0
 23 57  1  0
 23 58  1  0
 25 59  1  0
 25 60  1  0
 25 61  1  0
 29 62  1  0
 32 63  1  0
 33 64  1  0
 35 65  1  0
 35 66  1  0
 36 67  1  0
 36 68  1  0
M  END
$$$$
[H]OC(=O)C([H])([H])[C@]([H])(OC([H])([H])C([H])([H])C([H])([H])[H])C(=O)N([H])c1c([H])c([H])c([N+](=O)[O-])c(C(F)(F)F)c1[H]
     RDKit          3D

 40 40  0  0  0  0  0  0  0  0999 V2000
    5.2492   -0.4645   -1.0292 C   0  0  0  0  0  0  0  0  0  0  0  0
    4.1251   -1.4185   -1.3037 C   0  0  0  0  0  0  0  0  0  0  0  0
    3.0192   -0.7511   -2.0495 C   0  0  0  0  0  0  0  0  0  0  0  0
    2.4722    0.2972   -1.3394 O   0  0  0  0  0  0  0  0  0  0  0  0
    1.8719   -0.0229   -0.1534 C   0  0  1  0  0  0  0  0  0  0  0  0
    2.3935    0.6910    1.0460 C   0  0  0  0  0  0  0  0  0  0  0  0
    2.2740    2.1647    1.0014 C   0  0  0  0  0  0  0  0  0  0  0  0
    3.3935    2.9348    1.2377 O   0  0  0  0  0  0  0  0  0  0  0  0
    1.1858    2.7354    0.7527 O   0  0  0  0  0  0  0  0  0  0  0  0
    0.3589    0.1098   -0.2901 C   0  0  0  0  0  0  0  0  0  0  0  0
   -0.0938    0.5170   -1.3840 O   0  0  0  0  0  0  0  0  0  0  0  0
   -0.4505   -0.2170    0.7744 N   0  0  0  0  0  0  0  0  0  0  0  0
   -1.8574   -0.1526    0.7685 C   0  0  0  0  0  0  0  0  0  0  0  0
   -2.5224   -0.0233    2.0080 C   0  0  0  0  0  0  0  0  0  0  0  0
   -3.8772    0.0257    2.0858 C   0  0  0  0  0  0  0  0  0  0  0  0
   -4.7063   -0.0498    0.9464 C   0  0  0  0  0  0  0  0  0  0  0  0
   -4.0698   -0.1774   -0.2554 C   0  0  0  0  0  0  0  0  0  0  0  0
   -2.6583   -0.2268   -0.3242 C   0  0  0  0  0  0  0  0  0  0  0  0
   -4.8419   -0.2814   -1.5139 C   0  0  0  0  0  0  0  0  0  0  0  0
   -5.6677    0.8055   -1.6761 F   0  0  0  0  0  0  0  0  0  0  0  0
   -3.9202   -0.2291   -2.5882 F   0  0  0  0  0  0  0  0  0  0  0  0
   -5.5161   -1.4536   -1.6293 F   0  0  0  0  0  0  0  0  0  0  0  0
   -6.1030    0.0451    1.1292 N   0  0  0  0  0  0  0  0  0  0  0  0
   -6.5206    0.8687    2.1760 O   0  0  0  0  0  0  0  0  0  0  0  0
   -6.9761   -0.5229    0.4925 O   0  0  0  0  0  0  0  0  0  0  0  0
    6.1110   -0.6218   -1.7085 H   0  0  0  0  0  0  0  0  0  0  0  0
    5.5974   -0.7056    0.0254 H   0  0  0  0  0  0  0  0  0  0  0  0
    4.9702    0.5935   -1.0388 H   0  0  0  0  0  0  0  0  0  0  0  0
    3.7386   -1.9081   -0.3906 H   0  0  0  0  0  0  0  0  0  0  0  0
    4.5673   -2.2636   -1.9248 H   0  0  0  0  0  0  0  0  0  0  0  0
    3.4141   -0.3962   -3.0309 H   0  0  0  0  0  0  0  0  0  0  0  0
    2.2366   -1.5024   -2.3332 H   0  0  0  0  0  0  0  0  0  0  0  0
    1.9868   -1.1260    0.0168 H   0  0  0  0  0  0  0  0  0  0  0  0
    1.8039    0.2960    1.9389 H   0  0  0  0  0  0  0  0  0  0  0  0
    3.4319    0.3846    1.3047 H   0  0  0  0  0  0  0  0  0  0  0  0
    4.0658    2.7834    1.9637 H   0  0  0  0  0  0  0  0  0  0  0  0
    0.0189   -0.5572    1.6828 H   0  0  0  0  0  0  0  0  0  0  0  0
   -1.8865    0.0395    2.8843 H   0  0  0  0  0  0  0  0  0  0  0  0
   -4.3896    0.1232    3.0396 H   0  0  0  0  0  0  0  0  0  0  0  0
   -2.2283   -0.3433   -1.3116 H   0  0  0  0  0  0  0  0  0  0  0  0
  1  2  1  0
  2  3  1  0
  3  4  1  0
  4  5  1  0
  5  6  1  0
  6  7  1  0
  7  8  1  0
  7  9  2  0
  5 10  1  0
 10 11  2  0
 10 12  1  0
 12 13  1  0
 13 14  2  0
 14 15  1  0
 15 16  2  0
 16 17  1  0
 17 18  2  0
 17 19  1  0
 19 20  1  0
 19 21  1  0
 19 22  1  0
 16 23  1  0
 23 24  1  0
 23 25  2  0
 18 13  1  0
  1 26  1  0
  1 27  1  0
  1 28  1  0
  2 29  1  0
  2 30  1  0
  3 31  1  0
  3 32  1  0
  5 33  1  1
  6 34  1  0
  6 35  1  0
  8 36  1  0
 12 37  1  0
 14 38  1  0
 15 39  1  0
 18 40  1  0
M  CHG  2  23   1  24  -1
M  END
$$$$
[H]c1nc([H])c2c(c1[H])c(=O)n(C1([H])C([H])([H])C([H])([H])C([H])([H])C([H])([H])C1([H])[H])c(=O)n2C([H])([H])C([H])(C([H])([H])[H])C([H])([H])[H]
     RDKit          3D

 45 47  0  0  0  0  0  0  0  0999 V2000
   -4.9062   -1.2483   -0.6108 C   0  0  0  0  0  0  0  0  0  0  0  0
   -3.6311   -0.8135    0.0522 C   0  0  0  0  0  0  0  0  0  0  0  0
   -2.9574   -1.9859    0.6466 C   0  0  0  0  0  0  0  0  0  0  0  0
   -2.8188   -0.0307   -0.9552 C   0  0  0  0  0  0  0  0  0  0  0  0
   -1.5770    0.4581   -0.4955 N   0  0  0  0  0  0  0  0  0  0  0  0
   -1.4948    1.6639    0.0901 C   0  0  0  0  0  0  0  0  0  0  0  0
   -2.5833    2.4794    0.2849 C   0  0  0  0  0  0  0  0  0  0  0  0
   -2.4630    3.6768    0.8746 N   0  0  0  0  0  0  0  0  0  0  0  0
   -1.2338    4.0999    1.2927 C   0  0  0  0  0  0  0  0  0  0  0  0
   -0.1372    3.2988    1.1064 C   0  0  0  0  0  0  0  0  0  0  0  0
   -0.2135    2.0576    0.5037 C   0  0  0  0  0  0  0  0  0  0  0  0
    0.8923    1.2550    0.3198 C   0  0  0  0  0  0  0  0  0  0  0  0
    1.9845    1.7176    0.7325 O   0  0  0  0  0  0  0  0  0  0  0  0
    0.7618    0.0545   -0.2717 N   0  0  0  0  0  0  0  0  0  0  0  0
    1.9418   -0.7767   -0.4559 C   0  0  0  0  0  0  0  0  0  0  0  0
    2.4317   -1.1865    0.8752 C   0  0  0  0  0  0  0  0  0  0  0  0
    3.8974   -1.1806    1.0954 C   0  0  0  0  0  0  0  0  0  0  0  0
    4.6915   -1.4009   -0.1783 C   0  0  0  0  0  0  0  0  0  0  0  0
    4.3368   -0.2092   -1.0436 C   0  0  0  0  0  0  0  0  0  0  0  0
    2.9001   -0.1389   -1.3871 C   0  0  0  0  0  0  0  0  0  0  0  0
   -0.4663   -0.3214   -0.6676 C   0  0  0  0  0  0  0  0  0  0  0  0
   -0.5404   -1.4534   -1.2173 O   0  0  0  0  0  0  0  0  0  0  0  0
   -4.6669   -1.4772   -1.6740 H   0  0  0  0  0  0  0  0  0  0  0  0
   -5.3035   -2.1895   -0.1646 H   0  0  0  0  0  0  0  0  0  0  0  0
   -5.7242   -0.5013   -0.5289 H   0  0  0  0  0  0  0  0  0  0  0  0
   -3.9352   -0.1317    0.8973 H   0  0  0  0  0  0  0  0  0  0  0  0
   -2.8067   -2.8313   -0.0567 H   0  0  0  0  0  0  0  0  0  0  0  0
   -2.0462   -1.7404    1.2379 H   0  0  0  0  0  0  0  0  0  0  0  0
   -3.6738   -2.3983    1.4195 H   0  0  0  0  0  0  0  0  0  0  0  0
   -3.5320    0.6612   -1.3949 H   0  0  0  0  0  0  0  0  0  0  0  0
   -2.6097   -0.7755   -1.7849 H   0  0  0  0  0  0  0  0  0  0  0  0
   -3.5437    2.1439   -0.0419 H   0  0  0  0  0  0  0  0  0  0  0  0
   -1.2134    5.0663    1.7550 H   0  0  0  0  0  0  0  0  0  0  0  0
    0.8313    3.6332    1.4363 H   0  0  0  0  0  0  0  0  0  0  0  0
    1.5628   -1.7103   -0.9725 H   0  0  0  0  0  0  0  0  0  0  0  0
    1.9769   -0.5480    1.6929 H   0  0  0  0  0  0  0  0  0  0  0  0
    2.0692   -2.2235    1.1559 H   0  0  0  0  0  0  0  0  0  0  0  0
    4.2869   -0.2409    1.5432 H   0  0  0  0  0  0  0  0  0  0  0  0
    4.2188   -1.9934    1.7962 H   0  0  0  0  0  0  0  0  0  0  0  0
    5.7751   -1.2913    0.0788 H   0  0  0  0  0  0  0  0  0  0  0  0
    4.4729   -2.3582   -0.6613 H   0  0  0  0  0  0  0  0  0  0  0  0
    5.0031   -0.2223   -1.9211 H   0  0  0  0  0  0  0  0  0  0  0  0
    4.6093    0.6962   -0.4469 H   0  0  0  0  0  0  0  0  0  0  0  0
    2.6374    0.9540   -1.5136 H   0  0  0  0  0  0  0  0  0  0  0  0
    2.7962   -0.5374   -2.4427 H   0  0  0  0  0  0  0  0  0  0  0  0
  1  2  1  0
  2  3  1  0
  2  4  1  0
  4  5  1  0
  5  6  1  0
  6  7  2  0
  7  8  1  0
  8  9  2  0
  9 10  1  0
 10 11  2  0
 11 12  1  0
 12 13  2  0
 12 14  1  0
 14 15  1  0
 15 16  1  0
 16 17  1  0
 17 18  1  0
 18 19  1  0
 19 20  1  0
 14 21  1  0
 21 22  2  0
 21  5  1  0
 11  6  1  0
 20 15  1  0
  1 23  1  0
  1 24  1  0
  1 25  1  0
  2 26  1  0
  3 27  1  0
  3 28  1  0
  3 29  1  0
  4 30  1  0
  4 31  1  0
  7 32  1  0
  9 33  1  0
 10 34  1  0
 15 35  1  0
 16 36  1  0
 16 37  1  0
 17 38  1  0
 17 39  1  0
 18 40  1  0
 18 41  1  0
 19 42  1  0
 19 43  1  0
 20 44  1  0
 20 45  1  0
M  END
$$$$
[H]OC(=O)C([H])(Oc1c([H])c([H])c(F)c(C([H])=C(C(=O)C(F)(F)C([H])(N([H])C([H])(C(=O)O[H])C([H])(C([H])([H])[H])C([H])([H])[H])C2([H])C([H])([H])C([H])([H])C([H])([H])C([H])([H])C2([H])[H])C([H])([H])[H])c1[H])C(C([H])([H])[H])(C([H])([H])[H])C([H])([H])[H]
     RDKit          3D

 79 80  0  0  0  0  0  0  0  0999 V2000
    0.0856    2.3064    0.3413 C   0  0  0  0  0  0  0  0  0  0  0  0
    0.1263    0.8378    0.3033 C   0  0  0  0  0  0  0  0  0  0  0  0
    1.2082    0.2085    0.7082 C   0  0  0  0  0  0  0  0  0  0  0  0
    2.4266    0.7978    1.2175 C   0  0  0  0  0  0  0  0  0  0  0  0
    3.6461    0.5686    0.5541 C   0  0  0  0  0  0  0  0  0  0  0  0
    4.8493    1.0553    0.9898 C   0  0  0  0  0  0  0  0  0  0  0  0
    6.0556    0.8355    0.3431 O   0  0  0  0  0  0  0  0  0  0  0  0
    6.2531    0.0979   -0.8221 C   0  0  0  0  0  0  0  0  0  0  0  0
    7.3758   -0.9254   -0.6641 C   0  0  0  0  0  0  0  0  0  0  0  0
    7.0287   -1.8912    0.4658 C   0  0  0  0  0  0  0  0  0  0  0  0
    7.4662   -1.7428   -1.9334 C   0  0  0  0  0  0  0  0  0  0  0  0
    8.7011   -0.2678   -0.4512 C   0  0  0  0  0  0  0  0  0  0  0  0
    6.7372    1.0824   -1.8600 C   0  0  0  0  0  0  0  0  0  0  0  0
    6.9986    0.6485   -3.1342 O   0  0  0  0  0  0  0  0  0  0  0  0
    6.9043    2.2838   -1.5823 O   0  0  0  0  0  0  0  0  0  0  0  0
    4.8297    1.8189    2.1629 C   0  0  0  0  0  0  0  0  0  0  0  0
    3.6497    2.0484    2.8182 C   0  0  0  0  0  0  0  0  0  0  0  0
    2.4252    1.5472    2.3672 C   0  0  0  0  0  0  0  0  0  0  0  0
    1.3178    1.8041    3.1137 F   0  0  0  0  0  0  0  0  0  0  0  0
   -1.0255    0.0414   -0.1753 C   0  0  0  0  0  0  0  0  0  0  0  0
   -0.8635   -1.1929   -0.1442 O   0  0  0  0  0  0  0  0  0  0  0  0
   -2.2580    0.6365   -0.6585 C   0  0  0  0  0  0  0  0  0  0  0  0
   -1.8993    1.3251   -1.8219 F   0  0  0  0  0  0  0  0  0  0  0  0
   -2.6164    1.6852    0.2265 F   0  0  0  0  0  0  0  0  0  0  0  0
   -3.4500   -0.1895   -0.8226 C   0  0  0  0  0  0  0  0  0  0  0  0
   -4.0547   -0.7835    0.2644 N   0  0  0  0  0  0  0  0  0  0  0  0
   -3.6372   -1.7437    1.1444 C   0  0  0  0  0  0  0  0  0  0  0  0
   -4.7718   -1.8142    2.2365 C   0  0  0  0  0  0  0  0  0  0  0  0
   -4.4570   -2.8131    3.2861 C   0  0  0  0  0  0  0  0  0  0  0  0
   -4.9461   -0.4289    2.8173 C   0  0  0  0  0  0  0  0  0  0  0  0
   -3.6908   -3.1484    0.5701 C   0  0  0  0  0  0  0  0  0  0  0  0
   -3.2575   -4.1971    1.3425 O   0  0  0  0  0  0  0  0  0  0  0  0
   -4.1163   -3.3776   -0.5855 O   0  0  0  0  0  0  0  0  0  0  0  0
   -4.5483    0.4404   -1.6596 C   0  0  0  0  0  0  0  0  0  0  0  0
   -5.0641    1.7418   -1.0927 C   0  0  0  0  0  0  0  0  0  0  0  0
   -6.3897    2.0098   -1.8194 C   0  0  0  0  0  0  0  0  0  0  0  0
   -6.2247    2.0145   -3.3081 C   0  0  0  0  0  0  0  0  0  0  0  0
   -5.6095    0.6993   -3.8091 C   0  0  0  0  0  0  0  0  0  0  0  0
   -4.2392    0.6402   -3.0977 C   0  0  0  0  0  0  0  0  0  0  0  0
   -0.5708    2.6443    1.1562 H   0  0  0  0  0  0  0  0  0  0  0  0
    1.1207    2.7337    0.3794 H   0  0  0  0  0  0  0  0  0  0  0  0
   -0.3471    2.7579   -0.5845 H   0  0  0  0  0  0  0  0  0  0  0  0
    1.1678   -0.8935    0.6468 H   0  0  0  0  0  0  0  0  0  0  0  0
    3.6035   -0.0336   -0.3551 H   0  0  0  0  0  0  0  0  0  0  0  0
    5.3759   -0.4154   -1.2271 H   0  0  0  0  0  0  0  0  0  0  0  0
    7.2597   -1.3722    1.4238 H   0  0  0  0  0  0  0  0  0  0  0  0
    5.9874   -2.2141    0.3923 H   0  0  0  0  0  0  0  0  0  0  0  0
    7.6608   -2.7959    0.4286 H   0  0  0  0  0  0  0  0  0  0  0  0
    6.4597   -1.7715   -2.3899 H   0  0  0  0  0  0  0  0  0  0  0  0
    8.2608   -1.3794   -2.6213 H   0  0  0  0  0  0  0  0  0  0  0  0
    7.7439   -2.7922   -1.6190 H   0  0  0  0  0  0  0  0  0  0  0  0
    9.5485   -0.8812   -0.8764 H   0  0  0  0  0  0  0  0  0  0  0  0
    8.8899   -0.1285    0.6234 H   0  0  0  0  0  0  0  0  0  0  0  0
    8.7354    0.6888   -1.0242 H   0  0  0  0  0  0  0  0  0  0  0  0
    7.9035    0.8228   -3.5840 H   0  0  0  0  0  0  0  0  0  0  0  0
    5.7580    2.2111    2.5230 H   0  0  0  0  0  0  0  0  0  0  0  0
    3.6246    2.6465    3.7401 H   0  0  0  0  0  0  0  0  0  0  0  0
   -3.1072   -1.0663   -1.5107 H   0  0  0  0  0  0  0  0  0  0  0  0
   -4.8326   -0.1939    0.6312 H   0  0  0  0  0  0  0  0  0  0  0  0
   -2.7490   -1.5841    1.7662 H   0  0  0  0  0  0  0  0  0  0  0  0
   -5.6712   -2.0989    1.6691 H   0  0  0  0  0  0  0  0  0  0  0  0
   -3.3799   -3.0173    3.4543 H   0  0  0  0  0  0  0  0  0  0  0  0
   -4.9433   -2.5138    4.2646 H   0  0  0  0  0  0  0  0  0  0  0  0
   -4.9381   -3.7820    3.0474 H   0  0  0  0  0  0  0  0  0  0  0  0
   -5.8679    0.0066    2.3970 H   0  0  0  0  0  0  0  0  0  0  0  0
   -4.0577    0.2050    2.6157 H   0  0  0  0  0  0  0  0  0  0  0  0
   -5.1210   -0.5508    3.9160 H   0  0  0  0  0  0  0  0  0  0  0  0
   -3.6453   -5.1248    1.1810 H   0  0  0  0  0  0  0  0  0  0  0  0
   -5.4005   -0.2790   -1.6071 H   0  0  0  0  0  0  0  0  0  0  0  0
   -4.3736    2.5886   -1.2837 H   0  0  0  0  0  0  0  0  0  0  0  0
   -5.3349    1.6624   -0.0209 H   0  0  0  0  0  0  0  0  0  0  0  0
   -7.0793    1.1777   -1.5683 H   0  0  0  0  0  0  0  0  0  0  0  0
   -6.8281    2.9602   -1.5160 H   0  0  0  0  0  0  0  0  0  0  0  0
   -7.1951    2.2003   -3.7624 H   0  0  0  0  0  0  0  0  0  0  0  0
   -5.4597    2.7952   -3.5528 H   0  0  0  0  0  0  0  0  0  0  0  0
   -5.4916    0.7633   -4.8969 H   0  0  0  0  0  0  0  0  0  0  0  0
   -6.2081   -0.1320   -3.4420 H   0  0  0  0  0  0  0  0  0  0  0  0
   -3.6416   -0.1685   -3.5370 H   0  0  0  0  0  0  0  0  0  0  0  0
   -3.8220    1.6649   -3.3380 H   0  0  0  0  0  0  0  0  0  0  0  0
  1  2  1  0
  2  3  2  3
  3  4  1  0
  4  5  2  0
  5  6  1  0
  6  7  1  0
  7  8  1  0
  8  9  1  0
  9 10  1  0
  9 11  1  0
  9 12  1  0
  8 13  1  0
 13 14  1  0
 13 15  2  0
  6 16  2  0
 16 17  1  0
 17 18  2  0
 18 19  1  0
  2 20  1  0
 20 21  2  0
 20 22  1  0
 22 23  1  0
 22 24  1  0
 22 25  1  0
 25 26  1  0
 26 27  1  0
 27 28  1  0
 28 29  1  0
 28 30  1  0
 27 31  1  0
 31 32  1  0
 31 33  2  0
 25 34  1  0
 34 35  1  0
 35 36  1  0
 36 37  1  0
 37 38  1  0
 38 39  1  0
 18  4  1  0
 39 34  1  0
  1 40  1  0
  1 41  1  0
  1 42  1  0
  3 43  1  0
  5 44  1  0
  8 45  1  0
 10 46  1  0
 10 47  1  0
 10 48  1  0
 11 49  1  0
 11 50  1  0
 11 51  1  0
 12 52  1  0
 12 53  1  0
 12 54  1  0
 14 55  1  0
 16 56  1  0
 17 57  1  0
 25 58  1  0
 26 59  1  0
 27 60  1  0
 28 61  1  0
 29 62  1  0
 29 63  1  0
 29 64  1  0
 30 65  1  0
 30 66  1  0
 30 67  1  0
 32 68  1  0
 34 69  1  0
 35 70  1  0
 35 71  1  0
 36 72  1  0
 36 73  1  0
 37 74  1  0
 37 75  1  0
 38 76  1  0
 38 77  1  0
 39 78  1  0
 39 79  1  0
M  END
$$$$
[H]Oc1c([H])c([H])c([H])c(C(=O)N([H])C([H])(C(=O)OC([H])([H])C(=O)OC([H])([H])C([H])([H])[H])C([H])([H])C([H])([H])C([H])([H])C([H])([H])N([H])C(=O)c2c([H])c([H])c([H])c(N(C([H])([H])[H])C([H])([H])[H])c2[H])c1[H]
     RDKit          3D

 69 70  0  0  0  0  0  0  0  0999 V2000
   -7.5516    4.6297    0.8145 C   0  0  0  0  0  0  0  0  0  0  0  0
   -7.6880    3.6795   -0.3363 C   0  0  0  0  0  0  0  0  0  0  0  0
   -6.4820    3.3861   -0.9706 O   0  0  0  0  0  0  0  0  0  0  0  0
   -5.4341    2.7919   -0.2603 C   0  0  0  0  0  0  0  0  0  0  0  0
   -5.6564    2.5508    0.9531 O   0  0  0  0  0  0  0  0  0  0  0  0
   -4.1407    2.4752   -0.9312 C   0  0  0  0  0  0  0  0  0  0  0  0
   -3.2337    1.8620   -0.0699 O   0  0  0  0  0  0  0  0  0  0  0  0
   -3.4626    0.6446    0.5410 C   0  0  0  0  0  0  0  0  0  0  0  0
   -4.5030   -0.0001    0.3632 O   0  0  0  0  0  0  0  0  0  0  0  0
   -2.3769    0.0930    1.4655 C   0  0  0  0  0  0  0  0  0  0  0  0
   -1.1575    0.9073    1.3054 C   0  0  0  0  0  0  0  0  0  0  0  0
    0.0479    0.5872    2.0982 C   0  0  0  0  0  0  0  0  0  0  0  0
    0.7223   -0.6983    1.8807 C   0  0  0  0  0  0  0  0  0  0  0  0
    1.3155   -1.0764    0.5948 C   0  0  0  0  0  0  0  0  0  0  0  0
    2.4239   -0.3850    0.0505 N   0  0  0  0  0  0  0  0  0  0  0  0
    2.6444    0.9004   -0.4197 C   0  0  0  0  0  0  0  0  0  0  0  0
    1.7849    1.8021   -0.4723 O   0  0  0  0  0  0  0  0  0  0  0  0
    3.9744    1.3053   -0.9134 C   0  0  0  0  0  0  0  0  0  0  0  0
    4.0981    2.2911   -1.8521 C   0  0  0  0  0  0  0  0  0  0  0  0
    5.3327    2.6981   -2.3258 C   0  0  0  0  0  0  0  0  0  0  0  0
    6.4584    2.0642   -1.8101 C   0  0  0  0  0  0  0  0  0  0  0  0
    6.3746    1.0671   -0.8633 C   0  0  0  0  0  0  0  0  0  0  0  0
    5.0900    0.6979   -0.4214 C   0  0  0  0  0  0  0  0  0  0  0  0
    7.5029    0.3994   -0.3128 N   0  0  0  0  0  0  0  0  0  0  0  0
    8.0944    0.9672    0.9038 C   0  0  0  0  0  0  0  0  0  0  0  0
    8.0353   -0.7892   -0.9352 C   0  0  0  0  0  0  0  0  0  0  0  0
   -2.3060   -1.3221    1.3503 N   0  0  0  0  0  0  0  0  0  0  0  0
   -2.4113   -2.0455    0.1554 C   0  0  0  0  0  0  0  0  0  0  0  0
   -2.5763   -1.4588   -0.9435 O   0  0  0  0  0  0  0  0  0  0  0  0
   -2.3383   -3.4966    0.1012 C   0  0  0  0  0  0  0  0  0  0  0  0
   -1.9247   -4.2281    1.1701 C   0  0  0  0  0  0  0  0  0  0  0  0
   -1.8642   -5.6232    1.0964 C   0  0  0  0  0  0  0  0  0  0  0  0
   -2.2212   -6.2920   -0.0587 C   0  0  0  0  0  0  0  0  0  0  0  0
   -2.6411   -5.5577   -1.1455 C   0  0  0  0  0  0  0  0  0  0  0  0
   -2.9953   -6.2399   -2.2948 O   0  0  0  0  0  0  0  0  0  0  0  0
   -2.6967   -4.1870   -1.0620 C   0  0  0  0  0  0  0  0  0  0  0  0
   -8.4806    5.2322    0.8805 H   0  0  0  0  0  0  0  0  0  0  0  0
   -7.4761    4.0724    1.7920 H   0  0  0  0  0  0  0  0  0  0  0  0
   -6.7203    5.3592    0.6921 H   0  0  0  0  0  0  0  0  0  0  0  0
   -8.3359    4.1869   -1.1092 H   0  0  0  0  0  0  0  0  0  0  0  0
   -8.2595    2.7897    0.0029 H   0  0  0  0  0  0  0  0  0  0  0  0
   -3.6997    3.4428   -1.2691 H   0  0  0  0  0  0  0  0  0  0  0  0
   -4.3797    1.8562   -1.8255 H   0  0  0  0  0  0  0  0  0  0  0  0
   -2.8494    0.3587    2.4850 H   0  0  0  0  0  0  0  0  0  0  0  0
   -0.8306    0.9423    0.2157 H   0  0  0  0  0  0  0  0  0  0  0  0
   -1.4191    1.9850    1.5380 H   0  0  0  0  0  0  0  0  0  0  0  0
   -0.2165    0.6471    3.2318 H   0  0  0  0  0  0  0  0  0  0  0  0
    0.7858    1.4246    2.0261 H   0  0  0  0  0  0  0  0  0  0  0  0
    0.0756   -1.5424    2.2427 H   0  0  0  0  0  0  0  0  0  0  0  0
    1.6060   -0.7933    2.6382 H   0  0  0  0  0  0  0  0  0  0  0  0
    0.5147   -1.0491   -0.2377 H   0  0  0  0  0  0  0  0  0  0  0  0
    1.5383   -2.2001    0.5936 H   0  0  0  0  0  0  0  0  0  0  0  0
    3.3343   -1.0226   -0.0231 H   0  0  0  0  0  0  0  0  0  0  0  0
    3.2072    2.7636   -2.2330 H   0  0  0  0  0  0  0  0  0  0  0  0
    5.4588    3.4714   -3.0644 H   0  0  0  0  0  0  0  0  0  0  0  0
    7.4272    2.3747   -2.1737 H   0  0  0  0  0  0  0  0  0  0  0  0
    5.0376   -0.0804    0.3262 H   0  0  0  0  0  0  0  0  0  0  0  0
    7.2508    1.3260    1.5429 H   0  0  0  0  0  0  0  0  0  0  0  0
    8.7472    1.8050    0.5998 H   0  0  0  0  0  0  0  0  0  0  0  0
    8.6345    0.1756    1.4597 H   0  0  0  0  0  0  0  0  0  0  0  0
    9.0384   -1.0140   -0.4812 H   0  0  0  0  0  0  0  0  0  0  0  0
    7.4077   -1.6875   -0.7203 H   0  0  0  0  0  0  0  0  0  0  0  0
    8.2155   -0.6419   -2.0210 H   0  0  0  0  0  0  0  0  0  0  0  0
   -2.1842   -1.8478    2.2753 H   0  0  0  0  0  0  0  0  0  0  0  0
   -1.6338   -3.7609    2.0911 H   0  0  0  0  0  0  0  0  0  0  0  0
   -1.5364   -6.1786    1.9470 H   0  0  0  0  0  0  0  0  0  0  0  0
   -2.1502   -7.3707   -0.0464 H   0  0  0  0  0  0  0  0  0  0  0  0
   -3.3170   -5.8048   -3.1498 H   0  0  0  0  0  0  0  0  0  0  0  0
   -3.0289   -3.6195   -1.9229 H   0  0  0  0  0  0  0  0  0  0  0  0
  1  2  1  0
  2  3  1  0
  3  4  1  0
  4  5  2  0
  4  6  1  0
  6  7  1  0
  7  8  1  0
  8  9  2  0
  8 10  1  0
 10 11  1  0
 11 12  1  0
 12 13  1  0
 13 14  1  0
 14 15  1  0
 15 16  1  0
 16 17  2  0
 16 18  1  0
 18 19  2  0
 19 20  1  0
 20 21  2  0
 21 22  1  0
 22 23  2  0
 22 24  1  0
 24 25  1  0
 24 26  1  0
 10 27  1  0
 27 28  1  0
 28 29  2  0
 28 30  1  0
 30 31  2  0
 31 32  1  0
 32 33  2  0
 33 34  1  0
 34 35  1  0
 34 36  2  0
 23 18  1  0
 36 30  1  0
  1 37  1  0
  1 38  1  0
  1 39  1  0
  2 40  1  0
  2 41  1  0
  6 42  1  0
  6 43  1  0
 10 44  1  0
 11 45  1  0
 11 46  1  0
 12 47  1  0
 12 48  1  0
 13 49  1  0
 13 50  1  0
 14 51  1  0
 14 52  1  0
 15 53  1  0
 19 54  1  0
 20 55  1  0
 21 56  1  0
 23 57  1  0
 25 58  1  0
 25 59  1  0
 25 60  1  0
 26 61  1  0
 26 62  1  0
 26 63  1  0
 27 64  1  0
 31 65  1  0
 32 66  1  0
 33 67  1  0
 35 68  1  0
 36 69  1  0
M  END
$$$$
[H]c1nc([H])c2c([H])c([H])c([H])c(N([H])C(=O)N([H])C([H])([H])c3c([H])c([H])c(C(C([H])([H])[H])(C([H])([H])[H])C([H])([H])[H])c([H])c3[H])c2c1[H]
     RDKit          3D

 48 50  0  0  0  0  0  0  0  0999 V2000
   -5.5514   -0.3529    1.7838 C   0  0  0  0  0  0  0  0  0  0  0  0
   -5.2145   -0.7367    0.3706 C   0  0  0  0  0  0  0  0  0  0  0  0
   -6.3349   -0.3353   -0.5980 C   0  0  0  0  0  0  0  0  0  0  0  0
   -5.1651   -2.2461    0.3195 C   0  0  0  0  0  0  0  0  0  0  0  0
   -3.9382   -0.1008   -0.0433 C   0  0  0  0  0  0  0  0  0  0  0  0
   -2.8609   -0.7869   -0.5234 C   0  0  0  0  0  0  0  0  0  0  0  0
   -1.6963   -0.1158   -0.9037 C   0  0  0  0  0  0  0  0  0  0  0  0
   -1.5591    1.2406   -0.8225 C   0  0  0  0  0  0  0  0  0  0  0  0
   -0.4142    2.0581   -1.1970 C   0  0  0  0  0  0  0  0  0  0  0  0
    0.7865    1.9574   -0.4701 N   0  0  0  0  0  0  0  0  0  0  0  0
    1.7809    0.9678   -0.8311 C   0  0  0  0  0  0  0  0  0  0  0  0
    1.5410    0.2335   -1.8012 O   0  0  0  0  0  0  0  0  0  0  0  0
    2.9805    0.8766   -0.0723 N   0  0  0  0  0  0  0  0  0  0  0  0
    3.9895   -0.0679   -0.3327 C   0  0  0  0  0  0  0  0  0  0  0  0
    3.8196   -1.2148   -1.0535 C   0  0  0  0  0  0  0  0  0  0  0  0
    4.8526   -2.1533   -1.2299 C   0  0  0  0  0  0  0  0  0  0  0  0
    6.0823   -1.9520   -0.6786 C   0  0  0  0  0  0  0  0  0  0  0  0
    6.2967   -0.8081    0.0577 C   0  0  0  0  0  0  0  0  0  0  0  0
    7.5647   -0.6281    0.5954 C   0  0  0  0  0  0  0  0  0  0  0  0
    7.7799    0.4923    1.3013 N   0  0  0  0  0  0  0  0  0  0  0  0
    6.8211    1.3977    1.4825 C   0  0  0  0  0  0  0  0  0  0  0  0
    5.5272    1.2394    0.9487 C   0  0  0  0  0  0  0  0  0  0  0  0
    5.2715    0.1192    0.2293 C   0  0  0  0  0  0  0  0  0  0  0  0
   -2.6894    1.9159   -0.3222 C   0  0  0  0  0  0  0  0  0  0  0  0
   -3.8333    1.2535    0.0503 C   0  0  0  0  0  0  0  0  0  0  0  0
   -4.6584   -0.5009    2.4086 H   0  0  0  0  0  0  0  0  0  0  0  0
   -5.9184    0.6788    1.8955 H   0  0  0  0  0  0  0  0  0  0  0  0
   -6.3606   -1.0082    2.2058 H   0  0  0  0  0  0  0  0  0  0  0  0
   -6.2742   -1.0281   -1.4638 H   0  0  0  0  0  0  0  0  0  0  0  0
   -6.1884    0.6976   -0.9623 H   0  0  0  0  0  0  0  0  0  0  0  0
   -7.2835   -0.4961   -0.0480 H   0  0  0  0  0  0  0  0  0  0  0  0
   -4.7149   -2.7065    1.2132 H   0  0  0  0  0  0  0  0  0  0  0  0
   -4.7613   -2.6166   -0.6339 H   0  0  0  0  0  0  0  0  0  0  0  0
   -6.2506   -2.5703    0.3459 H   0  0  0  0  0  0  0  0  0  0  0  0
   -2.8914   -1.8652   -0.6145 H   0  0  0  0  0  0  0  0  0  0  0  0
   -0.8983   -0.7159   -1.2720 H   0  0  0  0  0  0  0  0  0  0  0  0
   -0.2664    1.9123   -2.3104 H   0  0  0  0  0  0  0  0  0  0  0  0
   -0.7247    3.1483   -1.1554 H   0  0  0  0  0  0  0  0  0  0  0  0
    1.0554    2.5589    0.3590 H   0  0  0  0  0  0  0  0  0  0  0  0
    3.0762    1.5667    0.7476 H   0  0  0  0  0  0  0  0  0  0  0  0
    2.8579   -1.4390   -1.4964 H   0  0  0  0  0  0  0  0  0  0  0  0
    4.6243   -3.0300   -1.8166 H   0  0  0  0  0  0  0  0  0  0  0  0
    6.9077   -2.6697   -0.8011 H   0  0  0  0  0  0  0  0  0  0  0  0
    8.2998   -1.3769    0.4273 H   0  0  0  0  0  0  0  0  0  0  0  0
    7.0324    2.2929    2.0584 H   0  0  0  0  0  0  0  0  0  0  0  0
    4.8115    2.0175    1.1333 H   0  0  0  0  0  0  0  0  0  0  0  0
   -2.6561    3.0141   -0.2263 H   0  0  0  0  0  0  0  0  0  0  0  0
   -4.6547    1.8828    0.4273 H   0  0  0  0  0  0  0  0  0  0  0  0
  1  2  1  0
  2  3  1  0
  2  4  1  0
  2  5  1  0
  5  6  2  0
  6  7  1  0
  7  8  2  0
  8  9  1  0
  9 10  1  0
 10 11  1  0
 11 12  2  0
 11 13  1  0
 13 14  1  0
 14 15  2  0
 15 16  1  0
 16 17  2  0
 17 18  1  0
 18 19  2  0
 19 20  1  0
 20 21  2  0
 21 22  1  0
 22 23  2  0
  8 24  1  0
 24 25  2  0
 25  5  1  0
 23 14  1  0
 23 18  1  0
  1 26  1  0
  1 27  1  0
  1 28  1  0
  3 29  1  0
  3 30  1  0
  3 31  1  0
  4 32  1  0
  4 33  1  0
  4 34  1  0
  6 35  1  0
  7 36  1  0
  9 37  1  0
  9 38  1  0
 10 39  1  0
 13 40  1  0
 15 41  1  0
 16 42  1  0
 17 43  1  0
 19 44  1  0
 21 45  1  0
 22 46  1  0
 24 47  1  0
 25 48  1  0
M  END
$$$$
[H]OC(=O)OC([H])([H])[H]
     RDKit          3D

  9  8  0  0  0  0  0  0  0  0999 V2000
   -1.3810    0.0425   -0.2438 C   0  0  0  0  0  0  0  0  0  0  0  0
   -0.0217   -0.0100   -0.6356 O   0  0  0  0  0  0  0  0  0  0  0  0
    0.9638   -0.1990    0.3155 C   0  0  0  0  0  0  0  0  0  0  0  0
    2.2687   -0.2448   -0.0997 O   0  0  0  0  0  0  0  0  0  0  0  0
    0.6108   -0.3203    1.5233 O   0  0  0  0  0  0  0  0  0  0  0  0
   -1.8424   -0.9228   -0.5922 H   0  0  0  0  0  0  0  0  0  0  0  0
   -1.8403    0.8779   -0.8073 H   0  0  0  0  0  0  0  0  0  0  0  0
   -1.4956    0.1598    0.8650 H   0  0  0  0  0  0  0  0  0  0  0  0
    2.7377    0.6168   -0.3252 H   0  0  0  0  0  0  0  0  0  0  0  0
  1  2  1  0
  2  3  1  0
  3  4  1  0
  3  5  2  0
  1  6  1  0
  1  7  1  0
  1  8  1  0
  4  9  1  0
M  END
$$$$
[H]ON([H])C(=O)c1c([H])nc2c(c(C([H])([H])[H])nn2C([H])([H])[H])c1N(C([H])([H])[H])S(=O)(=O)c1c([H])c([H])c(OC([H])([H])[H])c([H])c1[H]
     RDKit          3D

 47 49  0  0  0  0  0  0  0  0999 V2000
    5.2428   -3.8829   -2.1133 C   0  0  0  0  0  0  0  0  0  0  0  0
    4.6561   -3.9086   -0.8638 O   0  0  0  0  0  0  0  0  0  0  0  0
    3.7868   -2.9246   -0.4489 C   0  0  0  0  0  0  0  0  0  0  0  0
    3.1926   -3.0267    0.7634 C   0  0  0  0  0  0  0  0  0  0  0  0
    2.3141   -2.1257    1.3001 C   0  0  0  0  0  0  0  0  0  0  0  0
    1.9740   -0.9620    0.5404 C   0  0  0  0  0  0  0  0  0  0  0  0
    2.5737   -0.8814   -0.6548 C   0  0  0  0  0  0  0  0  0  0  0  0
    3.4749   -1.7890   -1.2327 C   0  0  0  0  0  0  0  0  0  0  0  0
    0.8707    0.1108    1.3039 S   0  0  0  0  0  0  0  0  0  0  0  0
    1.6602    0.7327    2.4605 O   0  0  0  0  0  0  0  0  0  0  0  0
   -0.1817   -0.7337    2.0771 O   0  0  0  0  0  0  0  0  0  0  0  0
   -0.0086    1.2470    0.4231 N   0  0  0  0  0  0  0  0  0  0  0  0
    0.6943    2.2955   -0.3482 C   0  0  0  0  0  0  0  0  0  0  0  0
   -1.4437    1.3225    0.4770 C   0  0  0  0  0  0  0  0  0  0  0  0
   -2.0540    2.0416    1.4910 C   0  0  0  0  0  0  0  0  0  0  0  0
   -3.4648    2.0532    1.6007 C   0  0  0  0  0  0  0  0  0  0  0  0
   -4.2046    1.3757    0.7294 N   0  0  0  0  0  0  0  0  0  0  0  0
   -3.6669    0.6659   -0.2660 C   0  0  0  0  0  0  0  0  0  0  0  0
   -4.2401   -0.0842   -1.2290 N   0  0  0  0  0  0  0  0  0  0  0  0
   -5.6875   -0.2846   -1.3653 C   0  0  0  0  0  0  0  0  0  0  0  0
   -3.2900   -0.5694   -1.9442 N   0  0  0  0  0  0  0  0  0  0  0  0
   -2.0690   -0.1605   -1.4807 C   0  0  0  0  0  0  0  0  0  0  0  0
   -0.7981   -0.5818   -2.1007 C   0  0  0  0  0  0  0  0  0  0  0  0
   -2.2657    0.6312   -0.4048 C   0  0  0  0  0  0  0  0  0  0  0  0
   -1.3086    2.8383    2.4473 C   0  0  0  0  0  0  0  0  0  0  0  0
   -1.9549    2.8153    3.6592 O   0  0  0  0  0  0  0  0  0  0  0  0
   -0.2321    3.5157    2.3682 N   0  0  0  0  0  0  0  0  0  0  0  0
   -0.1693    4.0399    3.9578 O   0  0  0  0  0  0  0  0  0  0  0  0
    5.6885   -2.9280   -2.3798 H   0  0  0  0  0  0  0  0  0  0  0  0
    6.0060   -4.6911   -2.1615 H   0  0  0  0  0  0  0  0  0  0  0  0
    4.4068   -4.1381   -2.8467 H   0  0  0  0  0  0  0  0  0  0  0  0
    3.4397   -3.9239    1.3735 H   0  0  0  0  0  0  0  0  0  0  0  0
    1.8307   -2.2070    2.2612 H   0  0  0  0  0  0  0  0  0  0  0  0
    2.3240    0.0184   -1.2609 H   0  0  0  0  0  0  0  0  0  0  0  0
    3.9085   -1.6726   -2.1746 H   0  0  0  0  0  0  0  0  0  0  0  0
    1.0670    1.9259   -1.3115 H   0  0  0  0  0  0  0  0  0  0  0  0
    1.6332    2.6020    0.2050 H   0  0  0  0  0  0  0  0  0  0  0  0
    0.0276    3.1620   -0.5476 H   0  0  0  0  0  0  0  0  0  0  0  0
   -3.9222    2.6100    2.3784 H   0  0  0  0  0  0  0  0  0  0  0  0
   -6.1374   -0.4125   -0.3312 H   0  0  0  0  0  0  0  0  0  0  0  0
   -5.9033   -1.1378   -1.9978 H   0  0  0  0  0  0  0  0  0  0  0  0
   -6.1292    0.6332   -1.8009 H   0  0  0  0  0  0  0  0  0  0  0  0
   -0.0095    0.1318   -2.1749 H   0  0  0  0  0  0  0  0  0  0  0  0
   -0.9927   -1.1055   -3.0802 H   0  0  0  0  0  0  0  0  0  0  0  0
   -0.4220   -1.4144   -1.4228 H   0  0  0  0  0  0  0  0  0  0  0  0
    0.6319    4.0606    2.3083 H   0  0  0  0  0  0  0  0  0  0  0  0
   -0.8481    4.7168    3.8177 H   0  0  0  0  0  0  0  0  0  0  0  0
  1  2  1  0
  2  3  1  0
  3  4  2  0
  4  5  1  0
  5  6  2  0
  6  7  1  0
  7  8  2  0
  6  9  1  0
  9 10  2  0
  9 11  2  0
  9 12  1  0
 12 13  1  0
 12 14  1  0
 14 15  2  0
 15 16  1  0
 16 17  2  0
 17 18  1  0
 18 19  1  0
 19 20  1  0
 19 21  1  0
 21 22  2  0
 22 23  1  0
 22 24  1  0
 15 25  1  0
 25 26  2  0
 25 27  1  0
 27 28  1  0
  8  3  1  0
 24 14  1  0
 24 18  2  0
  1 29  1  0
  1 30  1  0
  1 31  1  0
  4 32  1  0
  5 33  1  0
  7 34  1  0
  8 35  1  0
 13 36  1  0
 13 37  1  0
 13 38  1  0
 16 39  1  0
 20 40  1  0
 20 41  1  0
 20 42  1  0
 23 43  1  0
 23 44  1  0
 23 45  1  0
 27 46  1  0
 28 47  1  0
M  END
$$$$
