[H]c1nc(N([H])[H])c(-c2nn(-c3c(Cl)c(OC([H])([H])[H])c([H])c(OC([H])([H])[H])c3Cl)c(=O)c([H])c2[H])nc1-c1c([H])nn(C2([H])C([H])([H])C([H])([H])N([H])C([H])([H])C2([H])[H])c1[H]
     RDKit          3D

 61 65  0  0  0  0  0  0  0  0999 V2000
    8.3414    2.8868    0.5940 C   0  0  0  0  0  0  0  0  0  0  0  0
    7.0256    2.5280    0.8403 O   0  0  0  0  0  0  0  0  0  0  0  0
    6.4571    1.2832    0.8238 C   0  0  0  0  0  0  0  0  0  0  0  0
    7.2225    0.1800    0.5388 C   0  0  0  0  0  0  0  0  0  0  0  0
    6.6715   -1.0974    0.5158 C   0  0  0  0  0  0  0  0  0  0  0  0
    7.4579   -2.1972    0.2268 O   0  0  0  0  0  0  0  0  0  0  0  0
    8.8268   -1.9974   -0.0430 C   0  0  0  0  0  0  0  0  0  0  0  0
    5.3378   -1.2356    0.7853 C   0  0  0  0  0  0  0  0  0  0  0  0
    4.6390   -2.8400    0.7582 Cl  0  0  0  0  0  0  0  0  0  0  0  0
    4.5369   -0.1556    1.0751 C   0  0  0  0  0  0  0  0  0  0  0  0
    5.1211    1.1075    1.0897 C   0  0  0  0  0  0  0  0  0  0  0  0
    4.1231    2.4907    1.4534 Cl  0  0  0  0  0  0  0  0  0  0  0  0
    3.1434   -0.3169    1.3493 N   0  0  0  0  0  0  0  0  0  0  0  0
    2.3053   -0.1731    0.3204 N   0  0  0  0  0  0  0  0  0  0  0  0
    0.9786   -0.3110    0.4851 C   0  0  0  0  0  0  0  0  0  0  0  0
    0.5002   -0.6040    1.7393 C   0  0  0  0  0  0  0  0  0  0  0  0
    1.3550   -0.7565    2.8189 C   0  0  0  0  0  0  0  0  0  0  0  0
    2.7056   -0.6025    2.5833 C   0  0  0  0  0  0  0  0  0  0  0  0
    3.5211   -0.7306    3.5275 O   0  0  0  0  0  0  0  0  0  0  0  0
    0.0837   -0.1527   -0.6418 C   0  0  0  0  0  0  0  0  0  0  0  0
   -1.2676   -0.2855   -0.5149 N   0  0  0  0  0  0  0  0  0  0  0  0
   -2.0889   -0.1407   -1.5507 C   0  0  0  0  0  0  0  0  0  0  0  0
   -1.5548    0.1502   -2.7754 C   0  0  0  0  0  0  0  0  0  0  0  0
   -0.2206    0.2952   -2.9681 N   0  0  0  0  0  0  0  0  0  0  0  0
    0.5719    0.1390   -1.8884 C   0  0  0  0  0  0  0  0  0  0  0  0
    1.9579    0.2860   -2.0644 N   0  0  0  0  0  0  0  0  0  0  0  0
   -3.5207   -0.2913   -1.3852 C   0  0  0  0  0  0  0  0  0  0  0  0
   -4.4694   -0.1614   -2.3971 C   0  0  0  0  0  0  0  0  0  0  0  0
   -5.6776   -0.3743   -1.8450 N   0  0  0  0  0  0  0  0  0  0  0  0
   -5.5400   -0.6309   -0.5411 N   0  0  0  0  0  0  0  0  0  0  0  0
   -4.2398   -0.5850   -0.2440 C   0  0  0  0  0  0  0  0  0  0  0  0
   -6.6023   -0.9148    0.4120 C   0  0  0  0  0  0  0  0  0  0  0  0
   -7.9104   -0.8138   -0.3003 C   0  0  0  0  0  0  0  0  0  0  0  0
   -8.9066    0.0912    0.3871 C   0  0  0  0  0  0  0  0  0  0  0  0
   -8.3682    1.3702    0.7265 N   0  0  0  0  0  0  0  0  0  0  0  0
   -7.0125    1.3594    1.1736 C   0  0  0  0  0  0  0  0  0  0  0  0
   -6.5240    0.0054    1.6104 C   0  0  0  0  0  0  0  0  0  0  0  0
    8.3839    3.9007    0.1222 H   0  0  0  0  0  0  0  0  0  0  0  0
    8.8518    2.1286   -0.0302 H   0  0  0  0  0  0  0  0  0  0  0  0
    8.8463    3.0247    1.5905 H   0  0  0  0  0  0  0  0  0  0  0  0
    8.2672    0.2316    0.3225 H   0  0  0  0  0  0  0  0  0  0  0  0
    9.3623   -1.5575    0.8432 H   0  0  0  0  0  0  0  0  0  0  0  0
    8.9142   -1.3233   -0.9122 H   0  0  0  0  0  0  0  0  0  0  0  0
    9.3096   -2.9872   -0.2520 H   0  0  0  0  0  0  0  0  0  0  0  0
   -0.5620   -0.7126    1.8638 H   0  0  0  0  0  0  0  0  0  0  0  0
    0.9376   -0.9828    3.7708 H   0  0  0  0  0  0  0  0  0  0  0  0
   -2.1917    0.2742   -3.6345 H   0  0  0  0  0  0  0  0  0  0  0  0
    2.3537    1.2505   -2.0129 H   0  0  0  0  0  0  0  0  0  0  0  0
    2.5407   -0.5458   -2.2369 H   0  0  0  0  0  0  0  0  0  0  0  0
   -4.2170    0.0716   -3.4311 H   0  0  0  0  0  0  0  0  0  0  0  0
   -3.7717   -0.7440    0.7175 H   0  0  0  0  0  0  0  0  0  0  0  0
   -6.3966   -1.9488    0.8022 H   0  0  0  0  0  0  0  0  0  0  0  0
   -7.7808   -0.5492   -1.3815 H   0  0  0  0  0  0  0  0  0  0  0  0
   -8.3754   -1.8273   -0.3023 H   0  0  0  0  0  0  0  0  0  0  0  0
   -9.3428   -0.4432    1.2333 H   0  0  0  0  0  0  0  0  0  0  0  0
   -9.7285    0.2703   -0.3640 H   0  0  0  0  0  0  0  0  0  0  0  0
   -8.5096    2.1157    0.0211 H   0  0  0  0  0  0  0  0  0  0  0  0
   -6.9374    2.0349    2.0525 H   0  0  0  0  0  0  0  0  0  0  0  0
   -6.3439    1.7827    0.3832 H   0  0  0  0  0  0  0  0  0  0  0  0
   -7.1271   -0.3657    2.4380 H   0  0  0  0  0  0  0  0  0  0  0  0
   -5.4627    0.0971    1.8926 H   0  0  0  0  0  0  0  0  0  0  0  0
  1  2  1  0
  2  3  1  0
  3  4  2  0
  4  5  1  0
  5  6  1  0
  6  7  1  0
  5  8  2  0
  8  9  1  0
  8 10  1  0
 10 11  2  0
 11 12  1  0
 10 13  1  0
 13 14  1  0
 14 15  2  0
 15 16  1  0
 16 17  2  0
 17 18  1  0
 18 19  2  0
 15 20  1  0
 20 21  2  0
 21 22  1  0
 22 23  2  0
 23 24  1  0
 24 25  2  0
 25 26  1  0
 22 27  1  0
 27 28  1  0
 28 29  2  0
 29 30  1  0
 30 31  1  0
 30 32  1  0
 32 33  1  0
 33 34  1  0
 34 35  1  0
 35 36  1  0
 36 37  1  0
 11  3  1  0
 18 13  1  0
 25 20  1  0
 31 27  2  0
 37 32  1  0
  1 38  1  0
  1 39  1  0
  1 40  1  0
  4 41  1  0
  7 42  1  0
  7 43  1  0
  7 44  1  0
 16 45  1  0
 17 46  1  0
 23 47  1  0
 26 48  1  0
 26 49  1  0
 28 50  1  0
 31 51  1  0
 32 52  1  0
 33 53  1  0
 33 54  1  0
 34 55  1  0
 34 56  1  0
 35 57  1  0
 36 58  1  0
 36 59  1  0
 37 60  1  0
 37 61  1  0
M  END
$$$$
[H]c1nc(N([H])[H])c(-c2nn(-c3c(Cl)c(OC([H])([H])[H])c([H])c(OC([H])([H])[H])c3Cl)c(=O)c([H])c2[H])nc1-c1c([H])nn(C([H])([H])[H])c1[H]
     RDKit          3D

 49 52  0  0  0  0  0  0  0  0999 V2000
   -6.7444   -3.0827   -0.9126 C   0  0  0  0  0  0  0  0  0  0  0  0
   -5.7261   -2.4133   -0.2349 O   0  0  0  0  0  0  0  0  0  0  0  0
   -4.3766   -2.6401   -0.4237 C   0  0  0  0  0  0  0  0  0  0  0  0
   -3.9324   -3.5963   -1.3463 C   0  0  0  0  0  0  0  0  0  0  0  0
   -2.5564   -3.7695   -1.4821 C   0  0  0  0  0  0  0  0  0  0  0  0
   -2.0476   -4.7140   -2.3916 O   0  0  0  0  0  0  0  0  0  0  0  0
   -2.9046   -5.5065   -3.1858 C   0  0  0  0  0  0  0  0  0  0  0  0
   -1.6733   -3.0245   -0.7338 C   0  0  0  0  0  0  0  0  0  0  0  0
    0.0707   -3.2370   -0.8992 Cl  0  0  0  0  0  0  0  0  0  0  0  0
   -2.1022   -2.0741    0.1834 C   0  0  0  0  0  0  0  0  0  0  0  0
   -3.4641   -1.9130    0.3078 C   0  0  0  0  0  0  0  0  0  0  0  0
   -4.0587   -0.7308    1.4474 Cl  0  0  0  0  0  0  0  0  0  0  0  0
   -1.1535   -1.3258    0.9365 N   0  0  0  0  0  0  0  0  0  0  0  0
   -0.3669   -0.4115    0.3642 N   0  0  0  0  0  0  0  0  0  0  0  0
    0.5322    0.3135    1.0141 C   0  0  0  0  0  0  0  0  0  0  0  0
    0.6625    0.1071    2.3768 C   0  0  0  0  0  0  0  0  0  0  0  0
   -0.1261   -0.8307    3.0372 C   0  0  0  0  0  0  0  0  0  0  0  0
   -1.0290   -1.5290    2.2635 C   0  0  0  0  0  0  0  0  0  0  0  0
   -1.7731   -2.3917    2.7962 O   0  0  0  0  0  0  0  0  0  0  0  0
    1.3690    1.3008    0.3447 C   0  0  0  0  0  0  0  0  0  0  0  0
    2.2782    2.0335    1.0034 N   0  0  0  0  0  0  0  0  0  0  0  0
    3.0449    2.9454    0.3606 C   0  0  0  0  0  0  0  0  0  0  0  0
    2.9192    3.1545   -0.9961 C   0  0  0  0  0  0  0  0  0  0  0  0
    2.0082    2.4206   -1.6573 N   0  0  0  0  0  0  0  0  0  0  0  0
    1.2351    1.5021   -1.0128 C   0  0  0  0  0  0  0  0  0  0  0  0
    0.2738    0.7246   -1.6983 N   0  0  0  0  0  0  0  0  0  0  0  0
    4.0184    3.7158    1.1242 C   0  0  0  0  0  0  0  0  0  0  0  0
    4.2713    3.6329    2.4776 C   0  0  0  0  0  0  0  0  0  0  0  0
    5.2492    4.5240    2.7660 N   0  0  0  0  0  0  0  0  0  0  0  0
    5.6283    5.1651    1.6709 N   0  0  0  0  0  0  0  0  0  0  0  0
    6.6531    6.2032    1.5482 C   0  0  0  0  0  0  0  0  0  0  0  0
    4.8821    4.6807    0.6527 C   0  0  0  0  0  0  0  0  0  0  0  0
   -6.8946   -2.7417   -1.9504 H   0  0  0  0  0  0  0  0  0  0  0  0
   -7.7150   -2.8622   -0.3845 H   0  0  0  0  0  0  0  0  0  0  0  0
   -6.5858   -4.1770   -0.9111 H   0  0  0  0  0  0  0  0  0  0  0  0
   -4.6391   -4.1732   -1.9262 H   0  0  0  0  0  0  0  0  0  0  0  0
   -2.3498   -5.9183   -4.0459 H   0  0  0  0  0  0  0  0  0  0  0  0
   -3.7482   -4.8984   -3.6113 H   0  0  0  0  0  0  0  0  0  0  0  0
   -3.3198   -6.3702   -2.6244 H   0  0  0  0  0  0  0  0  0  0  0  0
    1.3739    0.6658    2.9519 H   0  0  0  0  0  0  0  0  0  0  0  0
   -0.0251   -0.9922    4.0997 H   0  0  0  0  0  0  0  0  0  0  0  0
    3.5369    3.8906   -1.5201 H   0  0  0  0  0  0  0  0  0  0  0  0
   -0.6979    1.0716   -1.7587 H   0  0  0  0  0  0  0  0  0  0  0  0
    0.5360   -0.1618   -2.1247 H   0  0  0  0  0  0  0  0  0  0  0  0
    3.7807    2.9786    3.1792 H   0  0  0  0  0  0  0  0  0  0  0  0
    7.5489    5.8202    1.0162 H   0  0  0  0  0  0  0  0  0  0  0  0
    6.9384    6.5819    2.5315 H   0  0  0  0  0  0  0  0  0  0  0  0
    6.2444    7.0462    0.9295 H   0  0  0  0  0  0  0  0  0  0  0  0
    4.9551    5.0067   -0.3852 H   0  0  0  0  0  0  0  0  0  0  0  0
  1  2  1  0
  2  3  1  0
  3  4  2  0
  4  5  1  0
  5  6  1  0
  6  7  1  0
  5  8  2  0
  8  9  1  0
  8 10  1  0
 10 11  2  0
 11 12  1  0
 10 13  1  0
 13 14  1  0
 14 15  2  0
 15 16  1  0
 16 17  2  0
 17 18  1  0
 18 19  2  0
 15 20  1  0
 20 21  2  0
 21 22  1  0
 22 23  2  0
 23 24  1  0
 24 25  2  0
 25 26  1  0
 22 27  1  0
 27 28  1  0
 28 29  2  0
 29 30  1  0
 30 31  1  0
 30 32  1  0
 11  3  1  0
 18 13  1  0
 25 20  1  0
 32 27  2  0
  1 33  1  0
  1 34  1  0
  1 35  1  0
  4 36  1  0
  7 37  1  0
  7 38  1  0
  7 39  1  0
 16 40  1  0
 17 41  1  0
 23 42  1  0
 26 43  1  0
 26 44  1  0
 28 45  1  0
 31 46  1  0
 31 47  1  0
 31 48  1  0
 32 49  1  0
M  END
$$$$
[H]c1nc(N([H])[H])c(-c2nn(-c3c([H])c(OC([H])([H])[H])c([H])c(OC([H])([H])[H])c3[H])c(=O)c([H])c2[H])nc1-c1c([H])nn(C2([H])C([H])([H])C([H])([H])N([H])C([H])([H])C2([H])[H])c1[H]
     RDKit          3D

 61 65  0  0  0  0  0  0  0  0999 V2000
   -9.1376   -2.4054   -0.2303 C   0  0  0  0  0  0  0  0  0  0  0  0
   -7.8136   -2.2756    0.1882 O   0  0  0  0  0  0  0  0  0  0  0  0
   -7.0943   -1.0911    0.1438 C   0  0  0  0  0  0  0  0  0  0  0  0
   -7.6217    0.0998   -0.3260 C   0  0  0  0  0  0  0  0  0  0  0  0
   -6.8838    1.2649   -0.3594 C   0  0  0  0  0  0  0  0  0  0  0  0
   -7.4418    2.4423   -0.8363 O   0  0  0  0  0  0  0  0  0  0  0  0
   -8.7481    2.5569   -1.3082 C   0  0  0  0  0  0  0  0  0  0  0  0
   -5.5916    1.2171    0.0915 C   0  0  0  0  0  0  0  0  0  0  0  0
   -5.0066    0.0544    0.5739 C   0  0  0  0  0  0  0  0  0  0  0  0
   -5.7854   -1.0838    0.5869 C   0  0  0  0  0  0  0  0  0  0  0  0
   -3.6660   -0.0044    1.0440 N   0  0  0  0  0  0  0  0  0  0  0  0
   -2.6141    0.0674    0.2259 N   0  0  0  0  0  0  0  0  0  0  0  0
   -1.3669    0.0109    0.6812 C   0  0  0  0  0  0  0  0  0  0  0  0
   -1.1728   -0.1249    2.0309 C   0  0  0  0  0  0  0  0  0  0  0  0
   -2.2205   -0.2039    2.9210 C   0  0  0  0  0  0  0  0  0  0  0  0
   -3.4965   -0.1379    2.3731 C   0  0  0  0  0  0  0  0  0  0  0  0
   -4.4922   -0.2050    3.1390 O   0  0  0  0  0  0  0  0  0  0  0  0
   -0.2103    0.0885   -0.2047 C   0  0  0  0  0  0  0  0  0  0  0  0
    1.0446    0.0264    0.3061 N   0  0  0  0  0  0  0  0  0  0  0  0
    2.1191    0.0965   -0.4971 C   0  0  0  0  0  0  0  0  0  0  0  0
    1.8874    0.2327   -1.8465 C   0  0  0  0  0  0  0  0  0  0  0  0
    0.6434    0.2950   -2.3613 N   0  0  0  0  0  0  0  0  0  0  0  0
   -0.4310    0.2243   -1.5517 C   0  0  0  0  0  0  0  0  0  0  0  0
   -1.7686    0.2882   -2.0729 N   0  0  0  0  0  0  0  0  0  0  0  0
    3.4626    0.0289    0.0609 C   0  0  0  0  0  0  0  0  0  0  0  0
    3.8450   -0.1054    1.3780 C   0  0  0  0  0  0  0  0  0  0  0  0
    5.1698   -0.1199    1.4043 N   0  0  0  0  0  0  0  0  0  0  0  0
    5.6915   -0.0055    0.2062 N   0  0  0  0  0  0  0  0  0  0  0  0
    4.6499    0.0889   -0.6492 C   0  0  0  0  0  0  0  0  0  0  0  0
    7.1006    0.0180   -0.1578 C   0  0  0  0  0  0  0  0  0  0  0  0
    7.6829   -1.3279    0.1640 C   0  0  0  0  0  0  0  0  0  0  0  0
    9.1615   -1.3804   -0.1368 C   0  0  0  0  0  0  0  0  0  0  0  0
    9.8049   -0.0959    0.1004 N   0  0  0  0  0  0  0  0  0  0  0  0
    9.1069    0.6504    1.1334 C   0  0  0  0  0  0  0  0  0  0  0  0
    7.7912    1.1440    0.5705 C   0  0  0  0  0  0  0  0  0  0  0  0
   -9.2925   -1.7669   -1.1311 H   0  0  0  0  0  0  0  0  0  0  0  0
   -9.3792   -3.4757   -0.4652 H   0  0  0  0  0  0  0  0  0  0  0  0
   -9.8091   -2.0956    0.5953 H   0  0  0  0  0  0  0  0  0  0  0  0
   -8.6424    0.1103   -0.6754 H   0  0  0  0  0  0  0  0  0  0  0  0
   -9.4388    2.6256   -0.4375 H   0  0  0  0  0  0  0  0  0  0  0  0
   -9.0656    1.7314   -1.9623 H   0  0  0  0  0  0  0  0  0  0  0  0
   -8.8292    3.5427   -1.8405 H   0  0  0  0  0  0  0  0  0  0  0  0
   -4.9945    2.0956    0.0801 H   0  0  0  0  0  0  0  0  0  0  0  0
   -5.3499   -1.9998    0.9583 H   0  0  0  0  0  0  0  0  0  0  0  0
   -0.1720   -0.1767    2.4612 H   0  0  0  0  0  0  0  0  0  0  0  0
   -2.1111   -0.3096    3.9759 H   0  0  0  0  0  0  0  0  0  0  0  0
    2.7354    0.2912   -2.5127 H   0  0  0  0  0  0  0  0  0  0  0  0
   -2.2850   -0.5783   -2.3228 H   0  0  0  0  0  0  0  0  0  0  0  0
   -2.2625    1.1971   -2.2170 H   0  0  0  0  0  0  0  0  0  0  0  0
    3.1640   -0.1802    2.1917 H   0  0  0  0  0  0  0  0  0  0  0  0
    4.7105    0.1966   -1.7382 H   0  0  0  0  0  0  0  0  0  0  0  0
    7.1951    0.2012   -1.2451 H   0  0  0  0  0  0  0  0  0  0  0  0
    7.5457   -1.5150    1.2393 H   0  0  0  0  0  0  0  0  0  0  0  0
    7.1733   -2.0752   -0.4679 H   0  0  0  0  0  0  0  0  0  0  0  0
    9.2790   -1.6948   -1.1955 H   0  0  0  0  0  0  0  0  0  0  0  0
    9.6209   -2.1448    0.4929 H   0  0  0  0  0  0  0  0  0  0  0  0
    9.7673    0.5124   -0.7635 H   0  0  0  0  0  0  0  0  0  0  0  0
    8.9183    0.0549    2.0348 H   0  0  0  0  0  0  0  0  0  0  0  0
    9.7301    1.5574    1.3324 H   0  0  0  0  0  0  0  0  0  0  0  0
    8.0324    1.9916   -0.1139 H   0  0  0  0  0  0  0  0  0  0  0  0
    7.1622    1.5762    1.3741 H   0  0  0  0  0  0  0  0  0  0  0  0
  1  2  1  0
  2  3  1  0
  3  4  2  0
  4  5  1  0
  5  6  1  0
  6  7  1  0
  5  8  2  0
  8  9  1  0
  9 10  2  0
  9 11  1  0
 11 12  1  0
 12 13  2  0
 13 14  1  0
 14 15  2  0
 15 16  1  0
 16 17  2  0
 13 18  1  0
 18 19  2  0
 19 20  1  0
 20 21  2  0
 21 22  1  0
 22 23  2  0
 23 24  1  0
 20 25  1  0
 25 26  1  0
 26 27  2  0
 27 28  1  0
 28 29  1  0
 28 30  1  0
 30 31  1  0
 31 32  1  0
 32 33  1  0
 33 34  1  0
 34 35  1  0
 10  3  1  0
 16 11  1  0
 23 18  1  0
 29 25  2  0
 35 30  1  0
  1 36  1  0
  1 37  1  0
  1 38  1  0
  4 39  1  0
  7 40  1  0
  7 41  1  0
  7 42  1  0
  8 43  1  0
 10 44  1  0
 14 45  1  0
 15 46  1  0
 21 47  1  0
 24 48  1  0
 24 49  1  0
 26 50  1  0
 29 51  1  0
 30 52  1  0
 31 53  1  0
 31 54  1  0
 32 55  1  0
 32 56  1  0
 33 57  1  0
 34 58  1  0
 34 59  1  0
 35 60  1  0
 35 61  1  0
M  END
$$$$
[H]c1nc(N([H])[H])c2c(-c3sc4c(OC([H])([H])[H])c([H])c(C([H])([H])[H])c([H])c4c3[H])c(C([H])([H])OC([H])([H])C([H])([H])[H])c(C([H])([H])N3C([H])([H])C([H])([H])N([H])C([H])([H])C3([H])[H])n2n1
     RDKit          3D

 63 67  0  0  0  0  0  0  0  0999 V2000
   -0.8435   -4.0353    0.8681 C   0  0  0  0  0  0  0  0  0  0  0  0
   -1.2660   -3.4361    2.1929 C   0  0  0  0  0  0  0  0  0  0  0  0
   -1.6398   -2.2043    2.2733 O   0  0  0  0  0  0  0  0  0  0  0  0
   -1.1328   -1.0557    1.8146 C   0  0  0  0  0  0  0  0  0  0  0  0
   -1.1909   -0.9661    0.3171 C   0  0  0  0  0  0  0  0  0  0  0  0
   -2.4346   -0.8424   -0.3288 C   0  0  0  0  0  0  0  0  0  0  0  0
   -3.7334   -0.7973    0.3883 C   0  0  0  0  0  0  0  0  0  0  0  0
   -4.2459    0.5462    0.4984 N   0  0  0  0  0  0  0  0  0  0  0  0
   -4.0918    1.4609   -0.5279 C   0  0  0  0  0  0  0  0  0  0  0  0
   -5.1215    2.6149   -0.3137 C   0  0  0  0  0  0  0  0  0  0  0  0
   -5.0867    3.1433    1.0053 N   0  0  0  0  0  0  0  0  0  0  0  0
   -4.0966    2.5575    1.8472 C   0  0  0  0  0  0  0  0  0  0  0  0
   -4.1627    1.0470    1.8351 C   0  0  0  0  0  0  0  0  0  0  0  0
   -2.1569   -0.7723   -1.6445 N   0  0  0  0  0  0  0  0  0  0  0  0
   -2.9572   -0.7254   -2.7256 N   0  0  0  0  0  0  0  0  0  0  0  0
   -2.5092   -0.7145   -3.9927 C   0  0  0  0  0  0  0  0  0  0  0  0
   -1.2140   -0.7463   -4.1994 N   0  0  0  0  0  0  0  0  0  0  0  0
   -0.3895   -0.8037   -3.1400 C   0  0  0  0  0  0  0  0  0  0  0  0
    0.9951   -0.6474   -3.4196 N   0  0  0  0  0  0  0  0  0  0  0  0
   -0.8067   -0.8303   -1.8288 C   0  0  0  0  0  0  0  0  0  0  0  0
   -0.2101   -0.9460   -0.5769 C   0  0  0  0  0  0  0  0  0  0  0  0
    1.2287   -0.6255   -0.4256 C   0  0  0  0  0  0  0  0  0  0  0  0
    2.4033   -1.2373   -0.6574 C   0  0  0  0  0  0  0  0  0  0  0  0
    3.5207   -0.5342   -0.3723 C   0  0  0  0  0  0  0  0  0  0  0  0
    4.8432   -0.9777   -0.5341 C   0  0  0  0  0  0  0  0  0  0  0  0
    5.9163   -0.1520   -0.1923 C   0  0  0  0  0  0  0  0  0  0  0  0
    7.3078   -0.6204   -0.3331 C   0  0  0  0  0  0  0  0  0  0  0  0
    5.7290    1.1037    0.2932 C   0  0  0  0  0  0  0  0  0  0  0  0
    4.4411    1.5765    0.4581 C   0  0  0  0  0  0  0  0  0  0  0  0
    4.1280    2.8297    0.9233 O   0  0  0  0  0  0  0  0  0  0  0  0
    5.0028    3.8432    1.2893 C   0  0  0  0  0  0  0  0  0  0  0  0
    3.3686    0.7356    0.1214 C   0  0  0  0  0  0  0  0  0  0  0  0
    1.6955    0.9435    0.2050 S   0  0  0  0  0  0  0  0  0  0  0  0
   -1.5408   -3.8235    0.0736 H   0  0  0  0  0  0  0  0  0  0  0  0
   -0.8392   -5.1573    1.0409 H   0  0  0  0  0  0  0  0  0  0  0  0
    0.2290   -3.8137    0.6557 H   0  0  0  0  0  0  0  0  0  0  0  0
   -0.6482   -3.8544    3.0275 H   0  0  0  0  0  0  0  0  0  0  0  0
   -2.2690   -4.0761    2.3866 H   0  0  0  0  0  0  0  0  0  0  0  0
   -1.2844   -0.1501    2.3278 H   0  0  0  0  0  0  0  0  0  0  0  0
    0.0406   -1.2359    2.0009 H   0  0  0  0  0  0  0  0  0  0  0  0
   -3.7540   -1.2564    1.3677 H   0  0  0  0  0  0  0  0  0  0  0  0
   -4.4722   -1.3497   -0.2467 H   0  0  0  0  0  0  0  0  0  0  0  0
   -4.3629    1.1041   -1.5119 H   0  0  0  0  0  0  0  0  0  0  0  0
   -3.1093    2.0345   -0.4970 H   0  0  0  0  0  0  0  0  0  0  0  0
   -6.0941    2.1066   -0.4544 H   0  0  0  0  0  0  0  0  0  0  0  0
   -4.9979    3.3514   -1.1272 H   0  0  0  0  0  0  0  0  0  0  0  0
   -4.9167    4.1586    0.9407 H   0  0  0  0  0  0  0  0  0  0  0  0
   -4.2735    2.9382    2.8738 H   0  0  0  0  0  0  0  0  0  0  0  0
   -3.0704    2.9036    1.5943 H   0  0  0  0  0  0  0  0  0  0  0  0
   -5.1485    0.7627    2.3243 H   0  0  0  0  0  0  0  0  0  0  0  0
   -3.3976    0.6660    2.4763 H   0  0  0  0  0  0  0  0  0  0  0  0
   -3.1729   -0.6983   -4.8438 H   0  0  0  0  0  0  0  0  0  0  0  0
    1.5556   -1.4591   -3.6897 H   0  0  0  0  0  0  0  0  0  0  0  0
    1.4395    0.3188   -3.3177 H   0  0  0  0  0  0  0  0  0  0  0  0
    2.3861   -2.2686   -1.0892 H   0  0  0  0  0  0  0  0  0  0  0  0
    5.1161   -1.9264   -0.9455 H   0  0  0  0  0  0  0  0  0  0  0  0
    7.7965   -0.7431    0.6560 H   0  0  0  0  0  0  0  0  0  0  0  0
    7.9425    0.0729   -0.8985 H   0  0  0  0  0  0  0  0  0  0  0  0
    7.2901   -1.5834   -0.9216 H   0  0  0  0  0  0  0  0  0  0  0  0
    6.5316    1.7567    0.5749 H   0  0  0  0  0  0  0  0  0  0  0  0
    5.4725    4.2427    0.3311 H   0  0  0  0  0  0  0  0  0  0  0  0
    5.7754    3.5230    2.0343 H   0  0  0  0  0  0  0  0  0  0  0  0
    4.4861    4.7246    1.7394 H   0  0  0  0  0  0  0  0  0  0  0  0
  1  2  1  0
  2  3  1  0
  3  4  1  0
  4  5  1  0
  5  6  2  0
  6  7  1  0
  7  8  1  0
  8  9  1  0
  9 10  1  0
 10 11  1  0
 11 12  1  0
 12 13  1  0
  6 14  1  0
 14 15  1  0
 15 16  2  0
 16 17  1  0
 17 18  2  0
 18 19  1  0
 18 20  1  0
 20 21  2  0
 21 22  1  0
 22 23  2  0
 23 24  1  0
 24 25  2  0
 25 26  1  0
 26 27  1  0
 26 28  2  0
 28 29  1  0
 29 30  1  0
 30 31  1  0
 29 32  2  0
 32 33  1  0
 21  5  1  0
 33 22  1  0
 13  8  1  0
 20 14  1  0
 32 24  1  0
  1 34  1  0
  1 35  1  0
  1 36  1  0
  2 37  1  0
  2 38  1  0
  4 39  1  0
  4 40  1  0
  7 41  1  0
  7 42  1  0
  9 43  1  0
  9 44  1  0
 10 45  1  0
 10 46  1  0
 11 47  1  0
 12 48  1  0
 12 49  1  0
 13 50  1  0
 13 51  1  0
 16 52  1  0
 19 53  1  0
 19 54  1  0
 23 55  1  0
 25 56  1  0
 27 57  1  0
 27 58  1  0
 27 59  1  0
 28 60  1  0
 31 61  1  0
 31 62  1  0
 31 63  1  0
M  END
$$$$
[H]c1nc(N([H])C(=O)c2c([H])c([H])c(C3([H])C([H])([H])C([H])([H])N(C([H])(C([H])([H])[H])C([H])([H])[H])C([H])([H])C3([H])[H])c([H])c2[H])c([H])c(Oc2c(OC([H])([H])C([H])([H])OC([H])([H])[H])c([H])c3c(c2[H])c([H])c([H])n3C(=O)N([H])C([H])([H])[H])c1[H]
     RDKit          3D

 82 86  0  0  0  0  0  0  0  0999 V2000
   10.3086   -0.9665   -3.7486 C   0  0  0  0  0  0  0  0  0  0  0  0
    9.0600   -0.8145   -2.9479 N   0  0  0  0  0  0  0  0  0  0  0  0
    7.8731   -0.4616   -3.5714 C   0  0  0  0  0  0  0  0  0  0  0  0
    7.9479   -0.2809   -4.8679 O   0  0  0  0  0  0  0  0  0  0  0  0
    6.5963   -0.2704   -3.0038 N   0  0  0  0  0  0  0  0  0  0  0  0
    5.4902    0.0905   -3.7641 C   0  0  0  0  0  0  0  0  0  0  0  0
    4.3882    0.2059   -2.9740 C   0  0  0  0  0  0  0  0  0  0  0  0
    4.7809   -0.0831   -1.6841 C   0  0  0  0  0  0  0  0  0  0  0  0
    4.0777   -0.1185   -0.4935 C   0  0  0  0  0  0  0  0  0  0  0  0
    4.6643   -0.4342    0.6938 C   0  0  0  0  0  0  0  0  0  0  0  0
    4.0672   -0.4954    1.8876 O   0  0  0  0  0  0  0  0  0  0  0  0
    2.9765   -0.3983    2.5651 C   0  0  0  0  0  0  0  0  0  0  0  0
    3.0957   -0.3686    3.9823 C   0  0  0  0  0  0  0  0  0  0  0  0
    2.0148   -0.2698    4.7919 C   0  0  0  0  0  0  0  0  0  0  0  0
    0.7898   -0.1967    4.2683 N   0  0  0  0  0  0  0  0  0  0  0  0
    0.5661   -0.2179    2.9042 C   0  0  0  0  0  0  0  0  0  0  0  0
   -0.7714   -0.1355    2.4863 N   0  0  0  0  0  0  0  0  0  0  0  0
   -1.1878   -0.1494    1.1413 C   0  0  0  0  0  0  0  0  0  0  0  0
   -0.4720   -0.2339    0.1203 O   0  0  0  0  0  0  0  0  0  0  0  0
   -2.6470   -0.0569    0.8153 C   0  0  0  0  0  0  0  0  0  0  0  0
   -3.5495    0.4875    1.6965 C   0  0  0  0  0  0  0  0  0  0  0  0
   -4.9161    0.5625    1.3975 C   0  0  0  0  0  0  0  0  0  0  0  0
   -5.3953    0.0868    0.1981 C   0  0  0  0  0  0  0  0  0  0  0  0
   -4.4786   -0.4566   -0.6770 C   0  0  0  0  0  0  0  0  0  0  0  0
   -3.1326   -0.5317   -0.3851 C   0  0  0  0  0  0  0  0  0  0  0  0
   -6.8242    0.1424   -0.1672 C   0  0  0  0  0  0  0  0  0  0  0  0
   -7.3015    1.5751   -0.3726 C   0  0  0  0  0  0  0  0  0  0  0  0
   -8.5852    1.4922   -1.2151 C   0  0  0  0  0  0  0  0  0  0  0  0
   -9.3631    0.4423   -0.6822 N   0  0  0  0  0  0  0  0  0  0  0  0
   -9.1433    0.0658    0.6625 C   0  0  0  0  0  0  0  0  0  0  0  0
   -7.7327   -0.4814    0.8693 C   0  0  0  0  0  0  0  0  0  0  0  0
  -10.6122    0.1741   -1.2704 C   0  0  0  0  0  0  0  0  0  0  0  0
  -10.3577   -0.2558   -2.7237 C   0  0  0  0  0  0  0  0  0  0  0  0
  -11.5371    1.3719   -1.3644 C   0  0  0  0  0  0  0  0  0  0  0  0
    1.6740   -0.3187    2.0997 C   0  0  0  0  0  0  0  0  0  0  0  0
    6.0704   -0.7335    0.6529 C   0  0  0  0  0  0  0  0  0  0  0  0
    6.6285   -1.0334    1.8130 O   0  0  0  0  0  0  0  0  0  0  0  0
    7.7502   -1.3364    2.4374 C   0  0  0  0  0  0  0  0  0  0  0  0
    8.7933   -0.2686    2.4790 C   0  0  0  0  0  0  0  0  0  0  0  0
    9.2819    0.1975    1.2980 O   0  0  0  0  0  0  0  0  0  0  0  0
   10.2433    1.1833    1.4756 C   0  0  0  0  0  0  0  0  0  0  0  0
    6.7310   -0.6871   -0.5562 C   0  0  0  0  0  0  0  0  0  0  0  0
    6.1228   -0.3645   -1.7539 C   0  0  0  0  0  0  0  0  0  0  0  0
   10.0942   -0.8118   -4.8142 H   0  0  0  0  0  0  0  0  0  0  0  0
   10.6798   -1.9750   -3.5042 H   0  0  0  0  0  0  0  0  0  0  0  0
   10.9915   -0.1871   -3.3872 H   0  0  0  0  0  0  0  0  0  0  0  0
    9.2124   -0.9937   -1.9620 H   0  0  0  0  0  0  0  0  0  0  0  0
    5.5189    0.2526   -4.8323 H   0  0  0  0  0  0  0  0  0  0  0  0
    3.3645    0.4728   -3.2511 H   0  0  0  0  0  0  0  0  0  0  0  0
    3.0107    0.1298   -0.5280 H   0  0  0  0  0  0  0  0  0  0  0  0
    4.0713   -0.4263    4.4390 H   0  0  0  0  0  0  0  0  0  0  0  0
    2.0907   -0.2455    5.8860 H   0  0  0  0  0  0  0  0  0  0  0  0
   -1.5411   -0.0565    3.2447 H   0  0  0  0  0  0  0  0  0  0  0  0
   -3.2012    0.8718    2.6436 H   0  0  0  0  0  0  0  0  0  0  0  0
   -5.6188    0.9897    2.0906 H   0  0  0  0  0  0  0  0  0  0  0  0
   -4.8124   -0.8470   -1.6410 H   0  0  0  0  0  0  0  0  0  0  0  0
   -2.4172   -0.9581   -1.0734 H   0  0  0  0  0  0  0  0  0  0  0  0
   -7.0350   -0.3654   -1.1310 H   0  0  0  0  0  0  0  0  0  0  0  0
   -7.5948    1.9691    0.6239 H   0  0  0  0  0  0  0  0  0  0  0  0
   -6.5492    2.2063   -0.8458 H   0  0  0  0  0  0  0  0  0  0  0  0
   -9.1178    2.4648   -1.2142 H   0  0  0  0  0  0  0  0  0  0  0  0
   -8.2240    1.2162   -2.2460 H   0  0  0  0  0  0  0  0  0  0  0  0
   -9.2223    0.9562    1.3491 H   0  0  0  0  0  0  0  0  0  0  0  0
   -9.9091   -0.6746    0.9616 H   0  0  0  0  0  0  0  0  0  0  0  0
   -7.3653   -0.2562    1.8920 H   0  0  0  0  0  0  0  0  0  0  0  0
   -7.7905   -1.5707    0.6537 H   0  0  0  0  0  0  0  0  0  0  0  0
  -11.1867   -0.6329   -0.7888 H   0  0  0  0  0  0  0  0  0  0  0  0
  -10.0529    0.5904   -3.3425 H   0  0  0  0  0  0  0  0  0  0  0  0
  -11.1709   -0.8570   -3.1273 H   0  0  0  0  0  0  0  0  0  0  0  0
   -9.4644   -0.9433   -2.6516 H   0  0  0  0  0  0  0  0  0  0  0  0
  -11.2808    2.0471   -2.2054 H   0  0  0  0  0  0  0  0  0  0  0  0
  -12.5555    0.9607   -1.5998 H   0  0  0  0  0  0  0  0  0  0  0  0
  -11.5434    1.8644   -0.3864 H   0  0  0  0  0  0  0  0  0  0  0  0
    1.5494   -0.3504    1.0525 H   0  0  0  0  0  0  0  0  0  0  0  0
    7.5060   -1.6508    3.5225 H   0  0  0  0  0  0  0  0  0  0  0  0
    8.2313   -2.3227    2.0629 H   0  0  0  0  0  0  0  0  0  0  0  0
    9.6684   -0.6267    3.1041 H   0  0  0  0  0  0  0  0  0  0  0  0
    8.3256    0.6240    2.9999 H   0  0  0  0  0  0  0  0  0  0  0  0
    9.8517    2.0650    2.0215 H   0  0  0  0  0  0  0  0  0  0  0  0
   10.5460    1.5523    0.4523 H   0  0  0  0  0  0  0  0  0  0  0  0
   11.1822    0.7988    1.9349 H   0  0  0  0  0  0  0  0  0  0  0  0
    7.7733   -0.9381   -0.6176 H   0  0  0  0  0  0  0  0  0  0  0  0
  1  2  1  0
  2  3  1  0
  3  4  2  0
  3  5  1  0
  5  6  1  0
  6  7  2  0
  7  8  1  0
  8  9  2  0
  9 10  1  0
 10 11  1  0
 11 12  1  0
 12 13  2  0
 13 14  1  0
 14 15  2  0
 15 16  1  0
 16 17  1  0
 17 18  1  0
 18 19  2  0
 18 20  1  0
 20 21  2  0
 21 22  1  0
 22 23  2  0
 23 24  1  0
 24 25  2  0
 23 26  1  0
 26 27  1  0
 27 28  1  0
 28 29  1  0
 29 30  1  0
 30 31  1  0
 29 32  1  0
 32 33  1  0
 32 34  1  0
 16 35  2  0
 10 36  2  0
 36 37  1  0
 37 38  1  0
 38 39  1  0
 39 40  1  0
 40 41  1  0
 36 42  1  0
 42 43  2  0
 43  5  1  0
 43  8  1  0
 35 12  1  0
 25 20  1  0
 31 26  1  0
  1 44  1  0
  1 45  1  0
  1 46  1  0
  2 47  1  0
  6 48  1  0
  7 49  1  0
  9 50  1  0
 13 51  1  0
 14 52  1  0
 17 53  1  0
 21 54  1  0
 22 55  1  0
 24 56  1  0
 25 57  1  0
 26 58  1  0
 27 59  1  0
 27 60  1  0
 28 61  1  0
 28 62  1  0
 30 63  1  0
 30 64  1  0
 31 65  1  0
 31 66  1  0
 32 67  1  0
 33 68  1  0
 33 69  1  0
 33 70  1  0
 34 71  1  0
 34 72  1  0
 34 73  1  0
 35 74  1  0
 38 75  1  0
 38 76  1  0
 39 77  1  0
 39 78  1  0
 41 79  1  0
 41 80  1  0
 41 81  1  0
 42 82  1  0
M  END
$$$$
[H]c1nc2c(C(=O)N([H])c3nc([H])c(C([H])([H])N4C([H])([H])C([H])([H])N(C([H])([H])[H])C([H])([H])C4([H])[H])c([H])c3[H])c([H])c([H])c(-c3c(Cl)c(OC([H])([H])[H])c([H])c(OC([H])([H])[H])c3Cl)c2nc1[H]
     RDKit          3D

 67 71  0  0  0  0  0  0  0  0999 V2000
    6.6373   -4.0765    1.1084 C   0  0  0  0  0  0  0  0  0  0  0  0
    5.5098   -3.2450    1.0992 O   0  0  0  0  0  0  0  0  0  0  0  0
    5.5856   -1.9201    0.7988 C   0  0  0  0  0  0  0  0  0  0  0  0
    6.7854   -1.2312    0.5044 C   0  0  0  0  0  0  0  0  0  0  0  0
    6.8365    0.0912    0.2176 C   0  0  0  0  0  0  0  0  0  0  0  0
    8.0092    0.7546   -0.0657 O   0  0  0  0  0  0  0  0  0  0  0  0
    9.2682    0.1306   -0.1043 C   0  0  0  0  0  0  0  0  0  0  0  0
    5.6383    0.8206    0.2118 C   0  0  0  0  0  0  0  0  0  0  0  0
    5.7117    2.5132   -0.1627 Cl  0  0  0  0  0  0  0  0  0  0  0  0
    4.4500    0.1525    0.4981 C   0  0  0  0  0  0  0  0  0  0  0  0
    4.3932   -1.1686    0.7845 C   0  0  0  0  0  0  0  0  0  0  0  0
    2.8689   -2.0191    1.1320 Cl  0  0  0  0  0  0  0  0  0  0  0  0
    3.2499    0.9717    0.4933 C   0  0  0  0  0  0  0  0  0  0  0  0
    2.8169    1.5418    1.6943 C   0  0  0  0  0  0  0  0  0  0  0  0
    1.7054    2.3496    1.5854 C   0  0  0  0  0  0  0  0  0  0  0  0
    1.0491    2.5943    0.4065 C   0  0  0  0  0  0  0  0  0  0  0  0
   -0.0090    3.6113    0.2599 C   0  0  0  0  0  0  0  0  0  0  0  0
    0.0564    4.5143    1.1951 O   0  0  0  0  0  0  0  0  0  0  0  0
   -0.9794    3.7909   -0.6682 N   0  0  0  0  0  0  0  0  0  0  0  0
   -1.7473    2.2977   -0.4405 C   0  0  0  0  0  0  0  0  0  0  0  0
   -1.6019    1.6887    0.6858 C   0  0  0  0  0  0  0  0  0  0  0  0
   -2.2937    0.4165    0.8537 C   0  0  0  0  0  0  0  0  0  0  0  0
   -3.0237    0.0291   -0.2244 C   0  0  0  0  0  0  0  0  0  0  0  0
   -3.8364   -1.2179   -0.1230 C   0  0  0  0  0  0  0  0  0  0  0  0
   -4.8204   -1.0665    0.9499 N   0  0  0  0  0  0  0  0  0  0  0  0
   -5.5928    0.1529    0.7693 C   0  0  0  0  0  0  0  0  0  0  0  0
   -6.6335   -0.0670   -0.2919 C   0  0  0  0  0  0  0  0  0  0  0  0
   -7.7309   -0.7672    0.3727 N   0  0  0  0  0  0  0  0  0  0  0  0
   -8.6968   -1.1533   -0.5979 C   0  0  0  0  0  0  0  0  0  0  0  0
   -7.1631   -1.8403    1.1219 C   0  0  0  0  0  0  0  0  0  0  0  0
   -5.7501   -2.1785    0.7766 C   0  0  0  0  0  0  0  0  0  0  0  0
   -3.1451    0.7221   -1.4161 C   0  0  0  0  0  0  0  0  0  0  0  0
   -2.4431    1.9230   -1.4738 N   0  0  0  0  0  0  0  0  0  0  0  0
    1.5167    1.9909   -0.7866 C   0  0  0  0  0  0  0  0  0  0  0  0
    0.9760    2.2197   -1.9669 N   0  0  0  0  0  0  0  0  0  0  0  0
    1.4717    1.6868   -3.1317 C   0  0  0  0  0  0  0  0  0  0  0  0
    2.5876    0.8770   -3.0176 C   0  0  0  0  0  0  0  0  0  0  0  0
    3.1347    0.6366   -1.8759 N   0  0  0  0  0  0  0  0  0  0  0  0
    2.6290    1.1830   -0.6872 C   0  0  0  0  0  0  0  0  0  0  0  0
    6.4466   -4.8708    1.9150 H   0  0  0  0  0  0  0  0  0  0  0  0
    6.6720   -4.6650    0.1465 H   0  0  0  0  0  0  0  0  0  0  0  0
    7.5881   -3.5909    1.2964 H   0  0  0  0  0  0  0  0  0  0  0  0
    7.7203   -1.8134    0.5082 H   0  0  0  0  0  0  0  0  0  0  0  0
    9.7906    0.1847    0.8786 H   0  0  0  0  0  0  0  0  0  0  0  0
    9.2927   -0.9119   -0.4102 H   0  0  0  0  0  0  0  0  0  0  0  0
    9.9418    0.7405   -0.7926 H   0  0  0  0  0  0  0  0  0  0  0  0
    3.3004    1.3687    2.6473 H   0  0  0  0  0  0  0  0  0  0  0  0
    1.2624    2.8607    2.4619 H   0  0  0  0  0  0  0  0  0  0  0  0
   -1.6675    3.9086   -1.3338 H   0  0  0  0  0  0  0  0  0  0  0  0
   -1.0851    2.0389    1.5583 H   0  0  0  0  0  0  0  0  0  0  0  0
   -2.1608   -0.0607    1.7771 H   0  0  0  0  0  0  0  0  0  0  0  0
   -4.3497   -1.4842   -1.0598 H   0  0  0  0  0  0  0  0  0  0  0  0
   -3.1278   -2.0213    0.1311 H   0  0  0  0  0  0  0  0  0  0  0  0
   -6.1146    0.3226    1.7605 H   0  0  0  0  0  0  0  0  0  0  0  0
   -4.9422    1.0277    0.5924 H   0  0  0  0  0  0  0  0  0  0  0  0
   -6.9732    0.8880   -0.7377 H   0  0  0  0  0  0  0  0  0  0  0  0
   -6.2690   -0.7617   -1.0832 H   0  0  0  0  0  0  0  0  0  0  0  0
   -8.2551   -1.7278   -1.4310 H   0  0  0  0  0  0  0  0  0  0  0  0
   -9.5502   -1.6841   -0.1114 H   0  0  0  0  0  0  0  0  0  0  0  0
   -9.1148   -0.2059   -1.0534 H   0  0  0  0  0  0  0  0  0  0  0  0
   -7.2802   -1.6682    2.2161 H   0  0  0  0  0  0  0  0  0  0  0  0
   -7.7712   -2.7667    0.9252 H   0  0  0  0  0  0  0  0  0  0  0  0
   -5.6368   -2.6773   -0.2164 H   0  0  0  0  0  0  0  0  0  0  0  0
   -5.4188   -2.9371    1.5416 H   0  0  0  0  0  0  0  0  0  0  0  0
   -3.7067    0.4398   -2.2710 H   0  0  0  0  0  0  0  0  0  0  0  0
    0.9859    1.9284   -4.0620 H   0  0  0  0  0  0  0  0  0  0  0  0
    3.0025    0.4293   -3.9474 H   0  0  0  0  0  0  0  0  0  0  0  0
  1  2  1  0
  2  3  1  0
  3  4  2  0
  4  5  1  0
  5  6  1  0
  6  7  1  0
  5  8  2  0
  8  9  1  0
  8 10  1  0
 10 11  2  0
 11 12  1  0
 10 13  1  0
 13 14  2  0
 14 15  1  0
 15 16  2  0
 16 17  1  0
 17 18  2  0
 17 19  1  0
 19 20  1  0
 20 21  2  0
 21 22  1  0
 22 23  2  0
 23 24  1  0
 24 25  1  0
 25 26  1  0
 26 27  1  0
 27 28  1  0
 28 29  1  0
 28 30  1  0
 30 31  1  0
 23 32  1  0
 32 33  2  0
 16 34  1  0
 34 35  2  0
 35 36  1  0
 36 37  2  0
 37 38  1  0
 38 39  2  0
 11  3  1  0
 39 13  1  0
 33 20  1  0
 39 34  1  0
 31 25  1  0
  1 40  1  0
  1 41  1  0
  1 42  1  0
  4 43  1  0
  7 44  1  0
  7 45  1  0
  7 46  1  0
 14 47  1  0
 15 48  1  0
 19 49  1  0
 21 50  1  0
 22 51  1  0
 24 52  1  0
 24 53  1  0
 26 54  1  0
 26 55  1  0
 27 56  1  0
 27 57  1  0
 29 58  1  0
 29 59  1  0
 29 60  1  0
 30 61  1  0
 30 62  1  0
 31 63  1  0
 31 64  1  0
 32 65  1  0
 36 66  1  0
 37 67  1  0
M  END
$$$$
[H]c1nc(N([H])[H])c2c(-c3sc4c(OC([H])([H])[H])c([H])c(C([H])([H])[H])c([H])c4c3[H])c(C([H])([H])N3C([H])([H])C(=O)N([H])C([H])([H])C3([H])[H])c(C([H])([H])N3C([H])([H])C([H])([H])N([H])C([H])([H])C3([H])[H])n2n1
     RDKit          3D

 69 74  0  0  0  0  0  0  0  0999 V2000
    7.8632   -0.7108    2.4040 C   0  0  0  0  0  0  0  0  0  0  0  0
    6.4808   -0.6765    2.1132 O   0  0  0  0  0  0  0  0  0  0  0  0
    5.9929   -0.4938    0.8386 C   0  0  0  0  0  0  0  0  0  0  0  0
    6.7975   -0.3270   -0.2675 C   0  0  0  0  0  0  0  0  0  0  0  0
    6.1866   -0.1524   -1.4869 C   0  0  0  0  0  0  0  0  0  0  0  0
    7.0439    0.0359   -2.7167 C   0  0  0  0  0  0  0  0  0  0  0  0
    4.8270   -0.1475   -1.5826 C   0  0  0  0  0  0  0  0  0  0  0  0
    3.9631   -0.3136   -0.4832 C   0  0  0  0  0  0  0  0  0  0  0  0
    2.6185   -0.3262   -0.4762 C   0  0  0  0  0  0  0  0  0  0  0  0
    1.9727   -0.5075    0.7241 C   0  0  0  0  0  0  0  0  0  0  0  0
    3.2955   -0.6532    1.7876 S   0  0  0  0  0  0  0  0  0  0  0  0
    4.5953   -0.4847    0.7150 C   0  0  0  0  0  0  0  0  0  0  0  0
    0.5086   -0.6106    0.9378 C   0  0  0  0  0  0  0  0  0  0  0  0
   -0.4767    0.0966    0.2453 C   0  0  0  0  0  0  0  0  0  0  0  0
   -0.1615    0.9929   -0.8743 C   0  0  0  0  0  0  0  0  0  0  0  0
   -1.3476    1.7648   -1.2760 N   0  0  0  0  0  0  0  0  0  0  0  0
   -1.1013    2.2468   -2.6673 C   0  0  0  0  0  0  0  0  0  0  0  0
   -2.1379    3.1949   -3.1409 C   0  0  0  0  0  0  0  0  0  0  0  0
   -3.0356    3.6107   -2.0928 N   0  0  0  0  0  0  0  0  0  0  0  0
   -2.4527    3.8701   -0.8034 C   0  0  0  0  0  0  0  0  0  0  0  0
   -2.9037    4.7467   -0.0263 O   0  0  0  0  0  0  0  0  0  0  0  0
   -1.2899    3.0351   -0.4576 C   0  0  0  0  0  0  0  0  0  0  0  0
   -1.6996   -0.3173    0.7412 C   0  0  0  0  0  0  0  0  0  0  0  0
   -3.0314    0.1727    0.3507 C   0  0  0  0  0  0  0  0  0  0  0  0
   -4.1353   -0.6038    0.9723 N   0  0  0  0  0  0  0  0  0  0  0  0
   -5.3234    0.2484    0.6893 C   0  0  0  0  0  0  0  0  0  0  0  0
   -6.5916   -0.5816    0.7685 C   0  0  0  0  0  0  0  0  0  0  0  0
   -6.6558   -1.3336   -0.4827 N   0  0  0  0  0  0  0  0  0  0  0  0
   -5.3102   -1.5138   -1.0150 C   0  0  0  0  0  0  0  0  0  0  0  0
   -4.3172   -1.7784    0.0878 C   0  0  0  0  0  0  0  0  0  0  0  0
   -1.4900   -1.2477    1.7071 N   0  0  0  0  0  0  0  0  0  0  0  0
   -2.3621   -1.8957    2.4266 N   0  0  0  0  0  0  0  0  0  0  0  0
   -2.0161   -2.7938    3.3393 C   0  0  0  0  0  0  0  0  0  0  0  0
   -0.7275   -3.0292    3.5116 N   0  0  0  0  0  0  0  0  0  0  0  0
    0.2067   -2.3629    2.7693 C   0  0  0  0  0  0  0  0  0  0  0  0
    1.5192   -2.7522    3.0147 N   0  0  0  0  0  0  0  0  0  0  0  0
   -0.1436   -1.4277    1.8228 C   0  0  0  0  0  0  0  0  0  0  0  0
    8.3950    0.1333    1.8963 H   0  0  0  0  0  0  0  0  0  0  0  0
    7.9840   -0.6594    3.5045 H   0  0  0  0  0  0  0  0  0  0  0  0
    8.2347   -1.7017    2.0658 H   0  0  0  0  0  0  0  0  0  0  0  0
    7.8683   -0.3414   -0.1271 H   0  0  0  0  0  0  0  0  0  0  0  0
    7.7559    0.8755   -2.5885 H   0  0  0  0  0  0  0  0  0  0  0  0
    7.6410   -0.8777   -2.9236 H   0  0  0  0  0  0  0  0  0  0  0  0
    6.4313    0.2406   -3.5992 H   0  0  0  0  0  0  0  0  0  0  0  0
    4.4261   -0.0012   -2.5988 H   0  0  0  0  0  0  0  0  0  0  0  0
    2.0416   -0.2149   -1.4247 H   0  0  0  0  0  0  0  0  0  0  0  0
    0.0052    0.3710   -1.8312 H   0  0  0  0  0  0  0  0  0  0  0  0
    0.6437    1.6931   -0.6995 H   0  0  0  0  0  0  0  0  0  0  0  0
   -0.1192    2.7566   -2.6092 H   0  0  0  0  0  0  0  0  0  0  0  0
   -1.0275    1.3437   -3.2884 H   0  0  0  0  0  0  0  0  0  0  0  0
   -2.7361    2.6708   -3.9318 H   0  0  0  0  0  0  0  0  0  0  0  0
   -1.6707    4.0621   -3.6618 H   0  0  0  0  0  0  0  0  0  0  0  0
   -4.0611    3.7424   -2.1809 H   0  0  0  0  0  0  0  0  0  0  0  0
   -1.2947    2.7440    0.5884 H   0  0  0  0  0  0  0  0  0  0  0  0
   -0.3320    3.4958   -0.7142 H   0  0  0  0  0  0  0  0  0  0  0  0
   -3.2136    1.2226    0.7145 H   0  0  0  0  0  0  0  0  0  0  0  0
   -3.1902    0.0984   -0.7201 H   0  0  0  0  0  0  0  0  0  0  0  0
   -5.3337    1.0614    1.4272 H   0  0  0  0  0  0  0  0  0  0  0  0
   -5.2553    0.7136   -0.3038 H   0  0  0  0  0  0  0  0  0  0  0  0
   -6.5299   -1.2667    1.6250 H   0  0  0  0  0  0  0  0  0  0  0  0
   -7.4449    0.1117    0.8070 H   0  0  0  0  0  0  0  0  0  0  0  0
   -7.1658   -2.2350   -0.3767 H   0  0  0  0  0  0  0  0  0  0  0  0
   -5.3440   -2.4557   -1.6261 H   0  0  0  0  0  0  0  0  0  0  0  0
   -5.0085   -0.7243   -1.7043 H   0  0  0  0  0  0  0  0  0  0  0  0
   -3.3645   -2.0393   -0.4076 H   0  0  0  0  0  0  0  0  0  0  0  0
   -4.7221   -2.6299    0.6698 H   0  0  0  0  0  0  0  0  0  0  0  0
   -2.8039   -3.3065    3.9154 H   0  0  0  0  0  0  0  0  0  0  0  0
    1.9815   -3.3720    2.2871 H   0  0  0  0  0  0  0  0  0  0  0  0
    2.0487   -2.4845    3.8814 H   0  0  0  0  0  0  0  0  0  0  0  0
  1  2  1  0
  2  3  1  0
  3  4  2  0
  4  5  1  0
  5  6  1  0
  5  7  2  0
  7  8  1  0
  8  9  1  0
  9 10  2  0
 10 11  1  0
 11 12  1  0
 10 13  1  0
 13 14  1  0
 14 15  1  0
 15 16  1  0
 16 17  1  0
 17 18  1  0
 18 19  1  0
 19 20  1  0
 20 21  2  0
 20 22  1  0
 14 23  2  0
 23 24  1  0
 24 25  1  0
 25 26  1  0
 26 27  1  0
 27 28  1  0
 28 29  1  0
 29 30  1  0
 23 31  1  0
 31 32  1  0
 32 33  2  0
 33 34  1  0
 34 35  2  0
 35 36  1  0
 35 37  1  0
 12  3  1  0
 37 13  2  0
 12  8  2  0
 22 16  1  0
 30 25  1  0
 37 31  1  0
  1 38  1  0
  1 39  1  0
  1 40  1  0
  4 41  1  0
  6 42  1  0
  6 43  1  0
  6 44  1  0
  7 45  1  0
  9 46  1  0
 15 47  1  0
 15 48  1  0
 17 49  1  0
 17 50  1  0
 18 51  1  0
 18 52  1  0
 19 53  1  0
 22 54  1  0
 22 55  1  0
 24 56  1  0
 24 57  1  0
 26 58  1  0
 26 59  1  0
 27 60  1  0
 27 61  1  0
 28 62  1  0
 29 63  1  0
 29 64  1  0
 30 65  1  0
 30 66  1  0
 33 67  1  0
 36 68  1  0
 36 69  1  0
M  END
$$$$
[H]Oc1c([H])c([H])c(Cl)c([H])c1-c1nc([H])c(N([H])[C@]([H])(c2c([H])c([H])c([H])c([H])c2[H])C([H])([H])O[H])c([H])c1-c1c([H])c([H])c2c(c(C([H])([H])[H])nn2[H])c1[H]
     RDKit          3D

 57 61  0  0  0  0  0  0  0  0999 V2000
   -4.7550   -3.4348   -1.4385 C   0  0  0  0  0  0  0  0  0  0  0  0
   -4.9488   -2.6836   -0.1707 C   0  0  0  0  0  0  0  0  0  0  0  0
   -5.9784   -2.6710    0.6925 N   0  0  0  0  0  0  0  0  0  0  0  0
   -5.7415   -1.8586    1.7051 N   0  0  0  0  0  0  0  0  0  0  0  0
   -4.5195   -1.2790    1.5641 C   0  0  0  0  0  0  0  0  0  0  0  0
   -3.8092   -0.3745    2.3257 C   0  0  0  0  0  0  0  0  0  0  0  0
   -2.5566    0.0459    1.9227 C   0  0  0  0  0  0  0  0  0  0  0  0
   -2.0473   -0.4594    0.7525 C   0  0  0  0  0  0  0  0  0  0  0  0
   -2.7766   -1.3713   -0.0038 C   0  0  0  0  0  0  0  0  0  0  0  0
   -4.0231   -1.7970    0.3873 C   0  0  0  0  0  0  0  0  0  0  0  0
   -0.7316   -0.0456    0.2804 C   0  0  0  0  0  0  0  0  0  0  0  0
    0.2825   -0.9695    0.1368 C   0  0  0  0  0  0  0  0  0  0  0  0
    1.5628   -0.6395   -0.3212 C   0  0  0  0  0  0  0  0  0  0  0  0
    2.5657   -1.6363   -0.4382 N   0  0  0  0  0  0  0  0  0  0  0  0
    3.8267   -1.5584   -1.0796 C   0  0  1  0  0  0  0  0  0  0  0  0
    3.7489   -1.2797   -2.5663 C   0  0  0  0  0  0  0  0  0  0  0  0
    3.0175   -2.3199   -3.1966 O   0  0  0  0  0  0  0  0  0  0  0  0
    4.7510   -0.6681   -0.3578 C   0  0  0  0  0  0  0  0  0  0  0  0
    5.6216    0.1625   -1.0177 C   0  0  0  0  0  0  0  0  0  0  0  0
    6.4929    0.9995   -0.3077 C   0  0  0  0  0  0  0  0  0  0  0  0
    6.4821    0.9945    1.0769 C   0  0  0  0  0  0  0  0  0  0  0  0
    5.6033    0.1558    1.7478 C   0  0  0  0  0  0  0  0  0  0  0  0
    4.7592   -0.6549    1.0167 C   0  0  0  0  0  0  0  0  0  0  0  0
    1.7276    0.6900   -0.6178 C   0  0  0  0  0  0  0  0  0  0  0  0
    0.7195    1.5938   -0.4726 N   0  0  0  0  0  0  0  0  0  0  0  0
   -0.5101    1.2785   -0.0331 C   0  0  0  0  0  0  0  0  0  0  0  0
   -1.5327    2.3169    0.0886 C   0  0  0  0  0  0  0  0  0  0  0  0
   -2.6513    2.2178   -0.7012 C   0  0  0  0  0  0  0  0  0  0  0  0
   -3.6736    3.1569   -0.6510 C   0  0  0  0  0  0  0  0  0  0  0  0
   -5.0979    3.0244   -1.6577 Cl  0  0  0  0  0  0  0  0  0  0  0  0
   -3.5333    4.2079    0.2266 C   0  0  0  0  0  0  0  0  0  0  0  0
   -2.4188    4.3371    1.0361 C   0  0  0  0  0  0  0  0  0  0  0  0
   -1.4323    3.3812    0.9505 C   0  0  0  0  0  0  0  0  0  0  0  0
   -0.3096    3.4953    1.7538 O   0  0  0  0  0  0  0  0  0  0  0  0
   -5.4108   -4.3507   -1.3923 H   0  0  0  0  0  0  0  0  0  0  0  0
   -3.6941   -3.7210   -1.5994 H   0  0  0  0  0  0  0  0  0  0  0  0
   -5.1148   -2.8656   -2.3280 H   0  0  0  0  0  0  0  0  0  0  0  0
   -6.3677   -1.6469    2.5330 H   0  0  0  0  0  0  0  0  0  0  0  0
   -4.2390    0.0145    3.2565 H   0  0  0  0  0  0  0  0  0  0  0  0
   -1.9870    0.7663    2.5392 H   0  0  0  0  0  0  0  0  0  0  0  0
   -2.3876   -1.7811   -0.9325 H   0  0  0  0  0  0  0  0  0  0  0  0
    0.1300   -2.0136    0.3757 H   0  0  0  0  0  0  0  0  0  0  0  0
    2.3180   -2.5780    0.0379 H   0  0  0  0  0  0  0  0  0  0  0  0
    4.2945   -2.5843   -1.0136 H   0  0  0  0  0  0  0  0  0  0  0  0
    4.7517   -1.3163   -3.0305 H   0  0  0  0  0  0  0  0  0  0  0  0
    3.1801   -0.3720   -2.7815 H   0  0  0  0  0  0  0  0  0  0  0  0
    3.5984   -3.0695   -3.4153 H   0  0  0  0  0  0  0  0  0  0  0  0
    5.6705    0.2066   -2.0923 H   0  0  0  0  0  0  0  0  0  0  0  0
    7.1891    1.6635   -0.8007 H   0  0  0  0  0  0  0  0  0  0  0  0
    7.1663    1.6517    1.6335 H   0  0  0  0  0  0  0  0  0  0  0  0
    5.6263    0.1825    2.8277 H   0  0  0  0  0  0  0  0  0  0  0  0
    4.0874   -1.2960    1.5666 H   0  0  0  0  0  0  0  0  0  0  0  0
    2.7006    1.0245   -0.9740 H   0  0  0  0  0  0  0  0  0  0  0  0
   -2.8171    1.4070   -1.4222 H   0  0  0  0  0  0  0  0  0  0  0  0
   -4.3552    4.9375    0.2502 H   0  0  0  0  0  0  0  0  0  0  0  0
   -2.3298    5.1703    1.7171 H   0  0  0  0  0  0  0  0  0  0  0  0
   -0.1242    4.2136    2.4122 H   0  0  0  0  0  0  0  0  0  0  0  0
  1  2  1  0
  2  3  2  0
  3  4  1  0
  4  5  1  0
  5  6  2  0
  6  7  1  0
  7  8  2  0
  8  9  1  0
  9 10  2  0
  8 11  1  0
 11 12  2  0
 12 13  1  0
 13 14  1  0
 14 15  1  0
 15 16  1  0
 16 17  1  0
 15 18  1  0
 18 19  2  0
 19 20  1  0
 20 21  2  0
 21 22  1  0
 22 23  2  0
 13 24  2  0
 24 25  1  0
 25 26  2  0
 26 27  1  0
 27 28  2  0
 28 29  1  0
 29 30  1  0
 29 31  2  0
 31 32  1  0
 32 33  2  0
 33 34  1  0
 10  2  1  0
 26 11  1  0
 33 27  1  0
 10  5  1  0
 23 18  1  0
  1 35  1  0
  1 36  1  0
  1 37  1  0
  4 38  1  0
  6 39  1  0
  7 40  1  0
  9 41  1  0
 12 42  1  0
 14 43  1  0
 15 44  1  6
 16 45  1  0
 16 46  1  0
 17 47  1  0
 19 48  1  0
 20 49  1  0
 21 50  1  0
 22 51  1  0
 23 52  1  0
 24 53  1  0
 28 54  1  0
 31 55  1  0
 32 56  1  0
 34 57  1  0
M  END
$$$$
[H]Oc1c([H])c([H])c(F)c([H])c1-c1nc([H])c(N([H])[C@]([H])(c2c([H])c([H])c([H])c([H])c2[H])C([H])([H])O[H])c([H])c1-c1c([H])c([H])c2c(c(C([H])([H])[H])nn2[H])c1[H]
     RDKit          3D

 57 61  0  0  0  0  0  0  0  0999 V2000
   -2.4146   -2.8376    3.8564 C   0  0  0  0  0  0  0  0  0  0  0  0
   -3.3597   -2.5087    2.7708 C   0  0  0  0  0  0  0  0  0  0  0  0
   -4.6019   -2.9395    2.5113 N   0  0  0  0  0  0  0  0  0  0  0  0
   -5.0982   -2.3765    1.4123 N   0  0  0  0  0  0  0  0  0  0  0  0
   -4.1821   -1.5317    0.8897 C   0  0  0  0  0  0  0  0  0  0  0  0
   -4.1810   -0.7068   -0.2290 C   0  0  0  0  0  0  0  0  0  0  0  0
   -3.0801    0.0640   -0.5280 C   0  0  0  0  0  0  0  0  0  0  0  0
   -1.9880   -0.0024    0.3039 C   0  0  0  0  0  0  0  0  0  0  0  0
   -2.0091   -0.8438    1.4315 C   0  0  0  0  0  0  0  0  0  0  0  0
   -3.0956   -1.6079    1.7301 C   0  0  0  0  0  0  0  0  0  0  0  0
   -0.8039    0.7930    0.0253 C   0  0  0  0  0  0  0  0  0  0  0  0
    0.4110    0.2043   -0.2654 C   0  0  0  0  0  0  0  0  0  0  0  0
    1.5408    0.9951   -0.5243 C   0  0  0  0  0  0  0  0  0  0  0  0
    2.7795    0.4011   -0.8237 N   0  0  0  0  0  0  0  0  0  0  0  0
    3.0269   -0.9891   -1.0723 C   0  0  1  0  0  0  0  0  0  0  0  0
    2.3936   -1.5147   -2.3387 C   0  0  0  0  0  0  0  0  0  0  0  0
    2.7056   -2.8856   -2.4610 O   0  0  0  0  0  0  0  0  0  0  0  0
    4.4996   -1.2308   -1.1835 C   0  0  0  0  0  0  0  0  0  0  0  0
    5.3010   -0.3772   -1.9100 C   0  0  0  0  0  0  0  0  0  0  0  0
    6.6499   -0.6015   -2.0082 C   0  0  0  0  0  0  0  0  0  0  0  0
    7.2349   -1.6829   -1.3847 C   0  0  0  0  0  0  0  0  0  0  0  0
    6.4267   -2.5551   -0.6445 C   0  0  0  0  0  0  0  0  0  0  0  0
    5.0844   -2.3091   -0.5622 C   0  0  0  0  0  0  0  0  0  0  0  0
    1.4070    2.3665   -0.4808 C   0  0  0  0  0  0  0  0  0  0  0  0
    0.2361    2.9246   -0.2007 N   0  0  0  0  0  0  0  0  0  0  0  0
   -0.8623    2.1537    0.0511 C   0  0  0  0  0  0  0  0  0  0  0  0
   -2.0768    2.8607    0.3593 C   0  0  0  0  0  0  0  0  0  0  0  0
   -2.6448    2.7563    1.6024 C   0  0  0  0  0  0  0  0  0  0  0  0
   -3.8205    3.4601    1.8934 C   0  0  0  0  0  0  0  0  0  0  0  0
   -4.3899    3.3651    3.1177 F   0  0  0  0  0  0  0  0  0  0  0  0
   -4.4156    4.2567    0.9493 C   0  0  0  0  0  0  0  0  0  0  0  0
   -3.8378    4.3535   -0.2921 C   0  0  0  0  0  0  0  0  0  0  0  0
   -2.6722    3.6550   -0.5804 C   0  0  0  0  0  0  0  0  0  0  0  0
   -2.1254    3.7824   -1.8503 O   0  0  0  0  0  0  0  0  0  0  0  0
   -2.5169   -3.9359    4.0759 H   0  0  0  0  0  0  0  0  0  0  0  0
   -1.3547   -2.7132    3.5074 H   0  0  0  0  0  0  0  0  0  0  0  0
   -2.5141   -2.2209    4.7496 H   0  0  0  0  0  0  0  0  0  0  0  0
   -6.0459   -2.5249    0.9702 H   0  0  0  0  0  0  0  0  0  0  0  0
   -5.0502   -0.6745   -0.8622 H   0  0  0  0  0  0  0  0  0  0  0  0
   -3.0696    0.7133   -1.4210 H   0  0  0  0  0  0  0  0  0  0  0  0
   -1.1108   -0.8659    2.0709 H   0  0  0  0  0  0  0  0  0  0  0  0
    0.4369   -0.8694   -0.2729 H   0  0  0  0  0  0  0  0  0  0  0  0
    3.6124    1.0638   -0.8650 H   0  0  0  0  0  0  0  0  0  0  0  0
    2.6667   -1.6151   -0.2139 H   0  0  0  0  0  0  0  0  0  0  0  0
    1.3080   -1.4015   -2.3954 H   0  0  0  0  0  0  0  0  0  0  0  0
    2.8411   -1.0223   -3.2442 H   0  0  0  0  0  0  0  0  0  0  0  0
    1.8705   -3.3971   -2.7151 H   0  0  0  0  0  0  0  0  0  0  0  0
    4.8153    0.4774   -2.3979 H   0  0  0  0  0  0  0  0  0  0  0  0
    7.2703    0.0954   -2.5946 H   0  0  0  0  0  0  0  0  0  0  0  0
    8.2832   -1.8541   -1.4637 H   0  0  0  0  0  0  0  0  0  0  0  0
    6.8840   -3.4146   -0.1473 H   0  0  0  0  0  0  0  0  0  0  0  0
    4.4889   -3.0146    0.0256 H   0  0  0  0  0  0  0  0  0  0  0  0
    2.2542    3.0407   -0.6746 H   0  0  0  0  0  0  0  0  0  0  0  0
   -2.1959    2.1398    2.3640 H   0  0  0  0  0  0  0  0  0  0  0  0
   -5.3403    4.7989    1.2035 H   0  0  0  0  0  0  0  0  0  0  0  0
   -4.2671    4.9691   -1.0722 H   0  0  0  0  0  0  0  0  0  0  0  0
   -1.3036    3.3347   -2.1919 H   0  0  0  0  0  0  0  0  0  0  0  0
  1  2  1  0
  2  3  2  0
  3  4  1  0
  4  5  1  0
  5  6  2  0
  6  7  1  0
  7  8  2  0
  8  9  1  0
  9 10  2  0
  8 11  1  0
 11 12  2  0
 12 13  1  0
 13 14  1  0
 14 15  1  0
 15 16  1  0
 16 17  1  0
 15 18  1  0
 18 19  2  0
 19 20  1  0
 20 21  2  0
 21 22  1  0
 22 23  2  0
 13 24  2  0
 24 25  1  0
 25 26  2  0
 26 27  1  0
 27 28  2  0
 28 29  1  0
 29 30  1  0
 29 31  2  0
 31 32  1  0
 32 33  2  0
 33 34  1  0
 10  2  1  0
 26 11  1  0
 33 27  1  0
 10  5  1  0
 23 18  1  0
  1 35  1  0
  1 36  1  0
  1 37  1  0
  4 38  1  0
  6 39  1  0
  7 40  1  0
  9 41  1  0
 12 42  1  0
 14 43  1  0
 15 44  1  1
 16 45  1  0
 16 46  1  0
 17 47  1  0
 19 48  1  0
 20 49  1  0
 21 50  1  0
 22 51  1  0
 23 52  1  0
 24 53  1  0
 28 54  1  0
 31 55  1  0
 32 56  1  0
 34 57  1  0
M  END
$$$$
[H]c1nc(N([H])[H])c2c(-c3sc4c(OC([H])([H])[H])c([H])c(C([H])([H])[H])c([H])c4c3[H])c(C([H])([H])N3C([H])([H])C(=O)N([H])C([H])([H])C3([H])[H])c([H])n2n1
     RDKit          3D

 52 56  0  0  0  0  0  0  0  0999 V2000
   -3.9769    3.7618   -1.9022 C   0  0  0  0  0  0  0  0  0  0  0  0
   -3.2105    2.7762   -1.2887 O   0  0  0  0  0  0  0  0  0  0  0  0
   -3.4582    1.4337   -1.3069 C   0  0  0  0  0  0  0  0  0  0  0  0
   -4.5422    0.8684   -1.9622 C   0  0  0  0  0  0  0  0  0  0  0  0
   -4.6396   -0.5071   -1.8774 C   0  0  0  0  0  0  0  0  0  0  0  0
   -5.8023   -1.1178   -2.5806 C   0  0  0  0  0  0  0  0  0  0  0  0
   -3.7581   -1.2909   -1.2096 C   0  0  0  0  0  0  0  0  0  0  0  0
   -2.6523   -0.7245   -0.5400 C   0  0  0  0  0  0  0  0  0  0  0  0
   -1.7055   -1.3879    0.1577 C   0  0  0  0  0  0  0  0  0  0  0  0
   -0.7034   -0.6736    0.7466 C   0  0  0  0  0  0  0  0  0  0  0  0
   -1.1498    0.9539    0.2724 S   0  0  0  0  0  0  0  0  0  0  0  0
   -2.5471    0.6249   -0.6167 C   0  0  0  0  0  0  0  0  0  0  0  0
    0.5108   -1.0424    1.4547 C   0  0  0  0  0  0  0  0  0  0  0  0
    1.7381   -0.3920    1.2567 C   0  0  0  0  0  0  0  0  0  0  0  0
    1.9321    0.7141    0.3016 C   0  0  0  0  0  0  0  0  0  0  0  0
    3.3063    1.1922    0.2373 N   0  0  0  0  0  0  0  0  0  0  0  0
    4.2335    0.2215   -0.2331 C   0  0  0  0  0  0  0  0  0  0  0  0
    4.8092    0.5500   -1.5942 C   0  0  0  0  0  0  0  0  0  0  0  0
    5.4951    1.8316   -1.4762 N   0  0  0  0  0  0  0  0  0  0  0  0
    4.8261    2.7892   -0.6283 C   0  0  0  0  0  0  0  0  0  0  0  0
    5.4339    3.7722   -0.1835 O   0  0  0  0  0  0  0  0  0  0  0  0
    3.3900    2.4870   -0.3541 C   0  0  0  0  0  0  0  0  0  0  0  0
    2.6747   -0.9260    2.0903 C   0  0  0  0  0  0  0  0  0  0  0  0
    2.0590   -1.8887    2.8022 N   0  0  0  0  0  0  0  0  0  0  0  0
    2.5570   -2.6632    3.7500 N   0  0  0  0  0  0  0  0  0  0  0  0
    1.7761   -3.5520    4.3772 C   0  0  0  0  0  0  0  0  0  0  0  0
    0.4933   -3.6596    4.0506 N   0  0  0  0  0  0  0  0  0  0  0  0
   -0.0468   -2.8868    3.0893 C   0  0  0  0  0  0  0  0  0  0  0  0
   -1.4265   -2.9859    2.8380 N   0  0  0  0  0  0  0  0  0  0  0  0
    0.7316   -1.9688    2.4244 C   0  0  0  0  0  0  0  0  0  0  0  0
   -3.7705    3.8834   -2.9846 H   0  0  0  0  0  0  0  0  0  0  0  0
   -5.0666    3.4979   -1.8290 H   0  0  0  0  0  0  0  0  0  0  0  0
   -3.8965    4.7498   -1.3604 H   0  0  0  0  0  0  0  0  0  0  0  0
   -5.2418    1.4925   -2.4925 H   0  0  0  0  0  0  0  0  0  0  0  0
   -6.7128   -1.1234   -1.9494 H   0  0  0  0  0  0  0  0  0  0  0  0
   -5.5541   -2.1897   -2.8099 H   0  0  0  0  0  0  0  0  0  0  0  0
   -6.0220   -0.5655   -3.5169 H   0  0  0  0  0  0  0  0  0  0  0  0
   -3.9466   -2.3565   -1.2182 H   0  0  0  0  0  0  0  0  0  0  0  0
   -1.6660   -2.5085    0.2302 H   0  0  0  0  0  0  0  0  0  0  0  0
    1.5746    0.5023   -0.7162 H   0  0  0  0  0  0  0  0  0  0  0  0
    1.3492    1.6118    0.6904 H   0  0  0  0  0  0  0  0  0  0  0  0
    3.7743   -0.7797   -0.3346 H   0  0  0  0  0  0  0  0  0  0  0  0
    5.1246    0.2139    0.4598 H   0  0  0  0  0  0  0  0  0  0  0  0
    3.9685    0.6467   -2.2966 H   0  0  0  0  0  0  0  0  0  0  0  0
    5.5061   -0.2646   -1.8521 H   0  0  0  0  0  0  0  0  0  0  0  0
    6.3882    2.0570   -1.9522 H   0  0  0  0  0  0  0  0  0  0  0  0
    2.9371    3.2221    0.3389 H   0  0  0  0  0  0  0  0  0  0  0  0
    2.8267    2.5048   -1.3201 H   0  0  0  0  0  0  0  0  0  0  0  0
    3.7151   -0.6495    2.1885 H   0  0  0  0  0  0  0  0  0  0  0  0
    2.2290   -4.1766    5.1572 H   0  0  0  0  0  0  0  0  0  0  0  0
   -2.0786   -2.2688    3.1582 H   0  0  0  0  0  0  0  0  0  0  0  0
   -1.7855   -3.8091    2.3143 H   0  0  0  0  0  0  0  0  0  0  0  0
  1  2  1  0
  2  3  1  0
  3  4  2  0
  4  5  1  0
  5  6  1  0
  5  7  2  0
  7  8  1  0
  8  9  1  0
  9 10  2  0
 10 11  1  0
 11 12  1  0
 10 13  1  0
 13 14  1  0
 14 15  1  0
 15 16  1  0
 16 17  1  0
 17 18  1  0
 18 19  1  0
 19 20  1  0
 20 21  2  0
 20 22  1  0
 14 23  2  0
 23 24  1  0
 24 25  1  0
 25 26  2  0
 26 27  1  0
 27 28  2  0
 28 29  1  0
 28 30  1  0
 12  3  1  0
 30 13  2  0
 12  8  2  0
 22 16  1  0
 30 24  1  0
  1 31  1  0
  1 32  1  0
  1 33  1  0
  4 34  1  0
  6 35  1  0
  6 36  1  0
  6 37  1  0
  7 38  1  0
  9 39  1  0
 15 40  1  0
 15 41  1  0
 17 42  1  0
 17 43  1  0
 18 44  1  0
 18 45  1  0
 19 46  1  0
 22 47  1  0
 22 48  1  0
 23 49  1  0
 26 50  1  0
 29 51  1  0
 29 52  1  0
M  END
$$$$
[H]c1nc(N([H])[H])c2c(-c3sc4c(OC([H])([H])[H])c([H])c(C([H])([H])[H])c([H])c4c3[H])c(C([H])([H])OC([H])([H])C([H])([H])[H])c(C(=O)N3C([H])([H])C([H])([H])OC([H])([H])C3([H])[H])n2n1
     RDKit          3D

 61 65  0  0  0  0  0  0  0  0999 V2000
   -1.5338   -3.8007   -4.2556 C   0  0  0  0  0  0  0  0  0  0  0  0
   -2.3255   -3.2793   -2.9885 C   0  0  0  0  0  0  0  0  0  0  0  0
   -1.7996   -2.2720   -2.5015 O   0  0  0  0  0  0  0  0  0  0  0  0
   -1.2470   -1.2037   -2.0128 C   0  0  0  0  0  0  0  0  0  0  0  0
   -1.1675   -1.1367   -0.5183 C   0  0  0  0  0  0  0  0  0  0  0  0
   -0.1309   -1.1597    0.2797 C   0  0  0  0  0  0  0  0  0  0  0  0
    1.2952   -0.7985   -0.0229 C   0  0  0  0  0  0  0  0  0  0  0  0
    1.7250    0.4940    0.4459 C   0  0  0  0  0  0  0  0  0  0  0  0
    2.9470    0.8719    0.2546 C   0  0  0  0  0  0  0  0  0  0  0  0
    3.5936    2.0698    0.7283 C   0  0  0  0  0  0  0  0  0  0  0  0
    4.9326    2.2744    0.5392 C   0  0  0  0  0  0  0  0  0  0  0  0
    5.4823    3.5471    1.1971 C   0  0  0  0  0  0  0  0  0  0  0  0
    5.7762    1.4217   -0.0841 C   0  0  0  0  0  0  0  0  0  0  0  0
    5.1386    0.2304   -0.5629 C   0  0  0  0  0  0  0  0  0  0  0  0
    5.8402   -0.7273   -1.2280 O   0  0  0  0  0  0  0  0  0  0  0  0
    7.2388   -0.6083   -1.3733 C   0  0  0  0  0  0  0  0  0  0  0  0
    3.7788   -0.0149   -0.3863 C   0  0  0  0  0  0  0  0  0  0  0  0
    2.6996   -1.3312   -0.6757 S   0  0  0  0  0  0  0  0  0  0  0  0
   -0.5568   -1.1111    1.6641 C   0  0  0  0  0  0  0  0  0  0  0  0
    0.2011   -1.2558    2.8337 C   0  0  0  0  0  0  0  0  0  0  0  0
    1.5850   -1.3914    2.7663 N   0  0  0  0  0  0  0  0  0  0  0  0
   -0.5064   -1.3399    3.9642 N   0  0  0  0  0  0  0  0  0  0  0  0
   -1.8196   -1.2970    3.9441 C   0  0  0  0  0  0  0  0  0  0  0  0
   -2.5538   -1.1472    2.7840 N   0  0  0  0  0  0  0  0  0  0  0  0
   -1.8985   -1.0334    1.6225 N   0  0  0  0  0  0  0  0  0  0  0  0
   -2.3158   -1.0080    0.3609 C   0  0  0  0  0  0  0  0  0  0  0  0
   -3.5151   -0.5554   -0.2729 C   0  0  0  0  0  0  0  0  0  0  0  0
   -3.9335   -0.9322   -1.4086 O   0  0  0  0  0  0  0  0  0  0  0  0
   -4.3577    0.4644    0.2963 N   0  0  0  0  0  0  0  0  0  0  0  0
   -4.6112    1.0850    1.5153 C   0  0  0  0  0  0  0  0  0  0  0  0
   -5.7140    2.1290    1.3219 C   0  0  0  0  0  0  0  0  0  0  0  0
   -5.1443    3.2704    0.7029 O   0  0  0  0  0  0  0  0  0  0  0  0
   -4.3442    2.7899   -0.3328 C   0  0  0  0  0  0  0  0  0  0  0  0
   -4.7389    1.4745   -0.8682 C   0  0  0  0  0  0  0  0  0  0  0  0
   -1.4563   -2.9586   -4.9777 H   0  0  0  0  0  0  0  0  0  0  0  0
   -0.5205   -4.0211   -3.8748 H   0  0  0  0  0  0  0  0  0  0  0  0
   -1.9801   -4.7000   -4.6728 H   0  0  0  0  0  0  0  0  0  0  0  0
   -3.3941   -3.3680   -3.2931 H   0  0  0  0  0  0  0  0  0  0  0  0
   -2.2487   -4.2476   -2.3288 H   0  0  0  0  0  0  0  0  0  0  0  0
   -0.2986   -0.8811   -2.5152 H   0  0  0  0  0  0  0  0  0  0  0  0
   -1.9741   -0.3016   -2.2375 H   0  0  0  0  0  0  0  0  0  0  0  0
    0.9122    1.1181    0.9598 H   0  0  0  0  0  0  0  0  0  0  0  0
    3.0059    2.8229    1.2457 H   0  0  0  0  0  0  0  0  0  0  0  0
    5.4042    3.3459    2.3221 H   0  0  0  0  0  0  0  0  0  0  0  0
    6.4939    3.7353    0.8805 H   0  0  0  0  0  0  0  0  0  0  0  0
    4.8033    4.3897    0.9996 H   0  0  0  0  0  0  0  0  0  0  0  0
    6.7831    1.5913   -0.2134 H   0  0  0  0  0  0  0  0  0  0  0  0
    7.5490   -1.4965   -1.9355 H   0  0  0  0  0  0  0  0  0  0  0  0
    7.6009    0.3635   -1.6503 H   0  0  0  0  0  0  0  0  0  0  0  0
    7.7845   -0.7771   -0.3610 H   0  0  0  0  0  0  0  0  0  0  0  0
    2.2650   -0.7219    3.1854 H   0  0  0  0  0  0  0  0  0  0  0  0
    2.0412   -2.2155    2.3146 H   0  0  0  0  0  0  0  0  0  0  0  0
   -2.2885   -1.3802    4.9433 H   0  0  0  0  0  0  0  0  0  0  0  0
   -5.0389    0.3904    2.2977 H   0  0  0  0  0  0  0  0  0  0  0  0
   -3.7671    1.6106    1.9744 H   0  0  0  0  0  0  0  0  0  0  0  0
   -6.0597    2.4819    2.3126 H   0  0  0  0  0  0  0  0  0  0  0  0
   -6.5525    1.7895    0.7436 H   0  0  0  0  0  0  0  0  0  0  0  0
   -3.3093    2.6794    0.1214 H   0  0  0  0  0  0  0  0  0  0  0  0
   -4.2621    3.5792   -1.1188 H   0  0  0  0  0  0  0  0  0  0  0  0
   -3.8676    1.2276   -1.6012 H   0  0  0  0  0  0  0  0  0  0  0  0
   -5.6453    1.2253   -1.2494 H   0  0  0  0  0  0  0  0  0  0  0  0
  1  2  1  0
  2  3  1  0
  3  4  1  0
  4  5  1  0
  5  6  1  0
  6  7  1  0
  7  8  2  0
  8  9  1  0
  9 10  2  0
 10 11  1  0
 11 12  1  0
 11 13  2  0
 13 14  1  0
 14 15  1  0
 15 16  1  0
 14 17  2  0
 17 18  1  0
  6 19  2  0
 19 20  1  0
 20 21  1  0
 20 22  2  0
 22 23  1  0
 23 24  2  0
 24 25  1  0
 25 26  1  0
 26 27  1  0
 27 28  2  0
 27 29  1  0
 29 30  1  0
 30 31  1  0
 31 32  1  0
 32 33  1  0
 33 34  1  0
 26  5  2  0
 34 29  1  0
 18  7  1  0
 25 19  1  0
 17  9  1  0
  1 35  1  0
  1 36  1  0
  1 37  1  0
  2 38  1  0
  2 39  1  0
  4 40  1  0
  4 41  1  0
  8 42  1  0
 10 43  1  0
 12 44  1  0
 12 45  1  0
 12 46  1  0
 13 47  1  0
 16 48  1  0
 16 49  1  0
 16 50  1  0
 21 51  1  0
 21 52  1  0
 23 53  1  0
 30 54  1  0
 30 55  1  0
 31 56  1  0
 31 57  1  0
 33 58  1  0
 33 59  1  0
 34 60  1  0
 34 61  1  0
M  END
$$$$
[H]c1nc(N([H])C(=O)c2c([H])c([H])c(C3([H])C([H])([H])C([H])([H])N(C([H])(C([H])([H])[H])C([H])([H])[H])C([H])([H])C3([H])[H])c([H])c2[H])c([H])c(Oc2c(OC([H])([H])[H])c([H])c3c(c2[H])c([H])c([H])n3C(=O)N([H])C([H])([H])[H])c1[H]
     RDKit          3D

 75 79  0  0  0  0  0  0  0  0999 V2000
   12.3420   -1.6616   -0.6990 C   0  0  0  0  0  0  0  0  0  0  0  0
   11.0401   -0.9362   -0.5579 N   0  0  0  0  0  0  0  0  0  0  0  0
   11.0533    0.2764    0.0965 C   0  0  0  0  0  0  0  0  0  0  0  0
   12.2367    0.6428    0.5200 O   0  0  0  0  0  0  0  0  0  0  0  0
   10.0081    1.1697    0.3769 N   0  0  0  0  0  0  0  0  0  0  0  0
   10.1891    2.3639    1.0526 C   0  0  0  0  0  0  0  0  0  0  0  0
    8.9902    3.0021    1.1598 C   0  0  0  0  0  0  0  0  0  0  0  0
    8.0411    2.2142    0.5513 C   0  0  0  0  0  0  0  0  0  0  0  0
    6.6879    2.3768    0.3707 C   0  0  0  0  0  0  0  0  0  0  0  0
    5.9325    1.4302   -0.2870 C   0  0  0  0  0  0  0  0  0  0  0  0
    4.5843    1.6220   -0.4550 O   0  0  0  0  0  0  0  0  0  0  0  0
    3.6664    0.7600    0.1162 C   0  0  0  0  0  0  0  0  0  0  0  0
    4.0199   -0.2194    1.0200 C   0  0  0  0  0  0  0  0  0  0  0  0
    3.0632   -1.0684    1.5723 C   0  0  0  0  0  0  0  0  0  0  0  0
    1.7788   -0.9189    1.2088 N   0  0  0  0  0  0  0  0  0  0  0  0
    1.4009    0.0310    0.3253 C   0  0  0  0  0  0  0  0  0  0  0  0
    0.0426    0.1890   -0.0504 N   0  0  0  0  0  0  0  0  0  0  0  0
   -0.9267   -0.6688    0.5472 C   0  0  0  0  0  0  0  0  0  0  0  0
   -0.6067   -1.5351    1.3856 O   0  0  0  0  0  0  0  0  0  0  0  0
   -2.3570   -0.5559    0.1890 C   0  0  0  0  0  0  0  0  0  0  0  0
   -2.7788    0.1208   -0.9348 C   0  0  0  0  0  0  0  0  0  0  0  0
   -4.1328    0.2007   -1.2109 C   0  0  0  0  0  0  0  0  0  0  0  0
   -5.1018   -0.3651   -0.4171 C   0  0  0  0  0  0  0  0  0  0  0  0
   -4.6456   -1.0388    0.7053 C   0  0  0  0  0  0  0  0  0  0  0  0
   -3.3103   -1.1384    1.0109 C   0  0  0  0  0  0  0  0  0  0  0  0
   -6.5148   -0.2302   -0.7985 C   0  0  0  0  0  0  0  0  0  0  0  0
   -7.2465    0.7776    0.0689 C   0  0  0  0  0  0  0  0  0  0  0  0
   -8.1890    0.1177    1.0458 C   0  0  0  0  0  0  0  0  0  0  0  0
   -9.2506   -0.5261    0.3378 N   0  0  0  0  0  0  0  0  0  0  0  0
   -8.7525   -1.2128   -0.8531 C   0  0  0  0  0  0  0  0  0  0  0  0
   -7.2729   -1.5180   -0.7413 C   0  0  0  0  0  0  0  0  0  0  0  0
  -10.2698    0.3917   -0.1220 C   0  0  0  0  0  0  0  0  0  0  0  0
  -11.4261   -0.3845   -0.7075 C   0  0  0  0  0  0  0  0  0  0  0  0
  -10.7430    1.3572    0.9090 C   0  0  0  0  0  0  0  0  0  0  0  0
    2.3210    0.8854   -0.2377 C   0  0  0  0  0  0  0  0  0  0  0  0
    6.5866    0.3153   -0.7558 C   0  0  0  0  0  0  0  0  0  0  0  0
    5.8477   -0.6466   -1.4200 O   0  0  0  0  0  0  0  0  0  0  0  0
    6.4380   -1.8280   -1.9372 C   0  0  0  0  0  0  0  0  0  0  0  0
    7.9409    0.1364   -0.5836 C   0  0  0  0  0  0  0  0  0  0  0  0
    8.7089    1.0739    0.0712 C   0  0  0  0  0  0  0  0  0  0  0  0
   12.3360   -2.4201    0.0945 H   0  0  0  0  0  0  0  0  0  0  0  0
   13.1788   -0.9547   -0.5316 H   0  0  0  0  0  0  0  0  0  0  0  0
   12.4475   -2.0475   -1.7202 H   0  0  0  0  0  0  0  0  0  0  0  0
   10.2571   -1.4370   -0.9773 H   0  0  0  0  0  0  0  0  0  0  0  0
   11.1188    2.7352    1.4334 H   0  0  0  0  0  0  0  0  0  0  0  0
    8.7709    3.9673    1.6354 H   0  0  0  0  0  0  0  0  0  0  0  0
    6.2185    3.2692    0.7552 H   0  0  0  0  0  0  0  0  0  0  0  0
    5.0637   -0.3453    1.3269 H   0  0  0  0  0  0  0  0  0  0  0  0
    3.3912   -1.8225    2.2814 H   0  0  0  0  0  0  0  0  0  0  0  0
   -0.2219    0.9157   -0.7517 H   0  0  0  0  0  0  0  0  0  0  0  0
   -2.0332    0.5762   -1.5816 H   0  0  0  0  0  0  0  0  0  0  0  0
   -4.4139    0.7518   -2.1239 H   0  0  0  0  0  0  0  0  0  0  0  0
   -5.3952   -1.4900    1.3392 H   0  0  0  0  0  0  0  0  0  0  0  0
   -2.9818   -1.6759    1.9022 H   0  0  0  0  0  0  0  0  0  0  0  0
   -6.5654    0.1698   -1.8351 H   0  0  0  0  0  0  0  0  0  0  0  0
   -7.8695    1.4404   -0.5630 H   0  0  0  0  0  0  0  0  0  0  0  0
   -6.5219    1.4600    0.5834 H   0  0  0  0  0  0  0  0  0  0  0  0
   -7.6359   -0.6646    1.6411 H   0  0  0  0  0  0  0  0  0  0  0  0
   -8.5562    0.8962    1.7498 H   0  0  0  0  0  0  0  0  0  0  0  0
   -8.9864   -0.6603   -1.7804 H   0  0  0  0  0  0  0  0  0  0  0  0
   -9.2729   -2.2156   -0.8505 H   0  0  0  0  0  0  0  0  0  0  0  0
   -7.0016   -2.1259   -1.6230 H   0  0  0  0  0  0  0  0  0  0  0  0
   -7.1444   -2.0564    0.2191 H   0  0  0  0  0  0  0  0  0  0  0  0
   -9.8174    0.9659   -0.9589 H   0  0  0  0  0  0  0  0  0  0  0  0
  -12.0470   -0.8652    0.0870 H   0  0  0  0  0  0  0  0  0  0  0  0
  -12.0948    0.3153   -1.2389 H   0  0  0  0  0  0  0  0  0  0  0  0
  -11.0347   -1.1171   -1.4299 H   0  0  0  0  0  0  0  0  0  0  0  0
  -11.0442    0.8201    1.8187 H   0  0  0  0  0  0  0  0  0  0  0  0
  -10.0163    2.1747    1.0915 H   0  0  0  0  0  0  0  0  0  0  0  0
  -11.6667    1.8481    0.4998 H   0  0  0  0  0  0  0  0  0  0  0  0
    2.0198    1.6455   -0.9441 H   0  0  0  0  0  0  0  0  0  0  0  0
    6.9737   -2.3129   -1.0731 H   0  0  0  0  0  0  0  0  0  0  0  0
    7.1509   -1.4982   -2.7198 H   0  0  0  0  0  0  0  0  0  0  0  0
    5.6430   -2.4875   -2.3345 H   0  0  0  0  0  0  0  0  0  0  0  0
    8.3566   -0.7568   -0.9798 H   0  0  0  0  0  0  0  0  0  0  0  0
  1  2  1  0
  2  3  1  0
  3  4  2  0
  3  5  1  0
  5  6  1  0
  6  7  2  0
  7  8  1  0
  8  9  2  0
  9 10  1  0
 10 11  1  0
 11 12  1  0
 12 13  2  0
 13 14  1  0
 14 15  2  0
 15 16  1  0
 16 17  1  0
 17 18  1  0
 18 19  2  0
 18 20  1  0
 20 21  2  0
 21 22  1  0
 22 23  2  0
 23 24  1  0
 24 25  2  0
 23 26  1  0
 26 27  1  0
 27 28  1  0
 28 29  1  0
 29 30  1  0
 30 31  1  0
 29 32  1  0
 32 33  1  0
 32 34  1  0
 16 35  2  0
 10 36  2  0
 36 37  1  0
 37 38  1  0
 36 39  1  0
 39 40  2  0
 40  5  1  0
 40  8  1  0
 35 12  1  0
 25 20  1  0
 31 26  1  0
  1 41  1  0
  1 42  1  0
  1 43  1  0
  2 44  1  0
  6 45  1  0
  7 46  1  0
  9 47  1  0
 13 48  1  0
 14 49  1  0
 17 50  1  0
 21 51  1  0
 22 52  1  0
 24 53  1  0
 25 54  1  0
 26 55  1  0
 27 56  1  0
 27 57  1  0
 28 58  1  0
 28 59  1  0
 30 60  1  0
 30 61  1  0
 31 62  1  0
 31 63  1  0
 32 64  1  0
 33 65  1  0
 33 66  1  0
 33 67  1  0
 34 68  1  0
 34 69  1  0
 34 70  1  0
 35 71  1  0
 38 72  1  0
 38 73  1  0
 38 74  1  0
 39 75  1  0
M  END
$$$$
[H]c1nc(N([H])[H])c(-c2nn(-c3c(Cl)c(OC([H])([H])[H])c([H])c(OC([H])([H])[H])c3Cl)c(=O)c([H])c2[H])nc1-c1c([H])nn(C([H])(C([H])([H])[H])C([H])([H])[H])c1[H]
     RDKit          3D

 55 58  0  0  0  0  0  0  0  0999 V2000
   -6.3174   -0.5011   -2.5434 C   0  0  0  0  0  0  0  0  0  0  0  0
   -5.4939   -0.8787   -1.4836 O   0  0  0  0  0  0  0  0  0  0  0  0
   -4.2481   -1.4726   -1.6060 C   0  0  0  0  0  0  0  0  0  0  0  0
   -3.6755   -1.7616   -2.8338 C   0  0  0  0  0  0  0  0  0  0  0  0
   -2.4349   -2.3526   -2.9068 C   0  0  0  0  0  0  0  0  0  0  0  0
   -1.8160   -2.6639   -4.1032 O   0  0  0  0  0  0  0  0  0  0  0  0
   -2.3178   -2.4442   -5.3826 C   0  0  0  0  0  0  0  0  0  0  0  0
   -1.8016   -2.6373   -1.6980 C   0  0  0  0  0  0  0  0  0  0  0  0
   -0.2186   -3.3895   -1.7952 Cl  0  0  0  0  0  0  0  0  0  0  0  0
   -2.3614   -2.3544   -0.4720 C   0  0  0  0  0  0  0  0  0  0  0  0
   -3.6076   -1.7606   -0.4013 C   0  0  0  0  0  0  0  0  0  0  0  0
   -4.3502   -1.3816    1.1375 Cl  0  0  0  0  0  0  0  0  0  0  0  0
   -1.6731   -2.6664    0.7372 N   0  0  0  0  0  0  0  0  0  0  0  0
   -0.7250   -1.9032    1.1910 N   0  0  0  0  0  0  0  0  0  0  0  0
   -0.0127   -2.1369    2.3423 C   0  0  0  0  0  0  0  0  0  0  0  0
   -0.3578   -3.2552    3.0215 C   0  0  0  0  0  0  0  0  0  0  0  0
   -1.3755   -4.1215    2.5823 C   0  0  0  0  0  0  0  0  0  0  0  0
   -2.0143   -3.7828    1.4198 C   0  0  0  0  0  0  0  0  0  0  0  0
   -2.9197   -4.5020    0.9773 O   0  0  0  0  0  0  0  0  0  0  0  0
    1.0187   -1.1532    2.6902 C   0  0  0  0  0  0  0  0  0  0  0  0
    1.1780   -0.0848    1.8317 N   0  0  0  0  0  0  0  0  0  0  0  0
    2.0753    0.8727    2.0354 C   0  0  0  0  0  0  0  0  0  0  0  0
    2.8587    0.7565    3.1608 C   0  0  0  0  0  0  0  0  0  0  0  0
    2.7293   -0.2663    4.0122 N   0  0  0  0  0  0  0  0  0  0  0  0
    1.7915   -1.2593    3.7919 C   0  0  0  0  0  0  0  0  0  0  0  0
    1.7516   -2.2917    4.7600 N   0  0  0  0  0  0  0  0  0  0  0  0
    2.1958    1.9781    1.0945 C   0  0  0  0  0  0  0  0  0  0  0  0
    1.4760    2.2007   -0.0623 C   0  0  0  0  0  0  0  0  0  0  0  0
    1.9360    3.3575   -0.6017 N   0  0  0  0  0  0  0  0  0  0  0  0
    2.8962    3.8716    0.1424 N   0  0  0  0  0  0  0  0  0  0  0  0
    3.0688    3.0435    1.1823 C   0  0  0  0  0  0  0  0  0  0  0  0
    3.6434    5.1128   -0.1003 C   0  0  0  0  0  0  0  0  0  0  0  0
    4.2836    5.0672   -1.4548 C   0  0  0  0  0  0  0  0  0  0  0  0
    4.7373    5.2624    0.9331 C   0  0  0  0  0  0  0  0  0  0  0  0
   -5.6924   -0.1893   -3.3949 H   0  0  0  0  0  0  0  0  0  0  0  0
   -7.0191   -1.3120   -2.8416 H   0  0  0  0  0  0  0  0  0  0  0  0
   -6.9533    0.3680   -2.2554 H   0  0  0  0  0  0  0  0  0  0  0  0
   -4.2001   -1.5239   -3.7569 H   0  0  0  0  0  0  0  0  0  0  0  0
   -3.4237   -2.5202   -5.3491 H   0  0  0  0  0  0  0  0  0  0  0  0
   -2.0708   -1.4482   -5.8009 H   0  0  0  0  0  0  0  0  0  0  0  0
   -2.0000   -3.2646   -6.0889 H   0  0  0  0  0  0  0  0  0  0  0  0
    0.1394   -3.5097    3.9183 H   0  0  0  0  0  0  0  0  0  0  0  0
   -1.6165   -4.9877    3.1437 H   0  0  0  0  0  0  0  0  0  0  0  0
    3.5920    1.5507    3.3151 H   0  0  0  0  0  0  0  0  0  0  0  0
    1.1285   -2.1774    5.5807 H   0  0  0  0  0  0  0  0  0  0  0  0
    2.3258   -3.1518    4.6862 H   0  0  0  0  0  0  0  0  0  0  0  0
    0.6959    1.5463   -0.4340 H   0  0  0  0  0  0  0  0  0  0  0  0
    3.7963    3.2041    1.9703 H   0  0  0  0  0  0  0  0  0  0  0  0
    2.8908    5.9197    0.0142 H   0  0  0  0  0  0  0  0  0  0  0  0
    5.1483    5.7620   -1.4681 H   0  0  0  0  0  0  0  0  0  0  0  0
    4.7199    4.0451   -1.6033 H   0  0  0  0  0  0  0  0  0  0  0  0
    3.5545    5.3114   -2.2425 H   0  0  0  0  0  0  0  0  0  0  0  0
    4.3164    5.3037    1.9593 H   0  0  0  0  0  0  0  0  0  0  0  0
    5.3160    6.1731    0.6762 H   0  0  0  0  0  0  0  0  0  0  0  0
    5.4326    4.3992    0.8370 H   0  0  0  0  0  0  0  0  0  0  0  0
  1  2  1  0
  2  3  1  0
  3  4  2  0
  4  5  1  0
  5  6  1  0
  6  7  1  0
  5  8  2  0
  8  9  1  0
  8 10  1  0
 10 11  2  0
 11 12  1  0
 10 13  1  0
 13 14  1  0
 14 15  2  0
 15 16  1  0
 16 17  2  0
 17 18  1  0
 18 19  2  0
 15 20  1  0
 20 21  2  0
 21 22  1  0
 22 23  2  0
 23 24  1  0
 24 25  2  0
 25 26  1  0
 22 27  1  0
 27 28  1  0
 28 29  2  0
 29 30  1  0
 30 31  1  0
 30 32  1  0
 32 33  1  0
 32 34  1  0
 11  3  1  0
 18 13  1  0
 25 20  1  0
 31 27  2  0
  1 35  1  0
  1 36  1  0
  1 37  1  0
  4 38  1  0
  7 39  1  0
  7 40  1  0
  7 41  1  0
 16 42  1  0
 17 43  1  0
 23 44  1  0
 26 45  1  0
 26 46  1  0
 28 47  1  0
 31 48  1  0
 32 49  1  0
 33 50  1  0
 33 51  1  0
 33 52  1  0
 34 53  1  0
 34 54  1  0
 34 55  1  0
M  END
$$$$
[H]OC([H])([H])C([H])([H])N1C([H])([H])C([H])([H])C([H])(c2c([H])c([H])c(C(=O)N([H])c3nc([H])c([H])c(Oc4c(OC([H])([H])C([H])([H])OC([H])([H])[H])c([H])c5c(c4[H])c([H])c([H])n5C(=O)N([H])C([H])([H])[H])c3[H])c([H])c2[H])C([H])([H])C1([H])[H]
     RDKit          3D

 80 84  0  0  0  0  0  0  0  0999 V2000
  -10.2653    3.4229   -1.8715 C   0  0  0  0  0  0  0  0  0  0  0  0
   -9.3478    3.3520   -0.7649 N   0  0  0  0  0  0  0  0  0  0  0  0
   -8.5264    2.2198   -0.5748 C   0  0  0  0  0  0  0  0  0  0  0  0
   -8.6364    1.2924   -1.4084 O   0  0  0  0  0  0  0  0  0  0  0  0
   -7.6339    2.1945    0.5346 N   0  0  0  0  0  0  0  0  0  0  0  0
   -7.4906    3.1862    1.4580 C   0  0  0  0  0  0  0  0  0  0  0  0
   -6.5357    2.7670    2.3518 C   0  0  0  0  0  0  0  0  0  0  0  0
   -6.0996    1.5164    1.9676 C   0  0  0  0  0  0  0  0  0  0  0  0
   -5.1725    0.6355    2.4812 C   0  0  0  0  0  0  0  0  0  0  0  0
   -4.9396   -0.5967    1.8528 C   0  0  0  0  0  0  0  0  0  0  0  0
   -4.0158   -1.4134    2.4108 O   0  0  0  0  0  0  0  0  0  0  0  0
   -2.8578   -1.9349    1.9261 C   0  0  0  0  0  0  0  0  0  0  0  0
   -2.8010   -3.2494    1.5307 C   0  0  0  0  0  0  0  0  0  0  0  0
   -1.6097   -3.7544    1.0388 C   0  0  0  0  0  0  0  0  0  0  0  0
   -0.5301   -2.9875    0.9466 N   0  0  0  0  0  0  0  0  0  0  0  0
   -0.5308   -1.6851    1.3228 C   0  0  0  0  0  0  0  0  0  0  0  0
    0.6632   -0.8990    1.2066 N   0  0  0  0  0  0  0  0  0  0  0  0
    1.8581   -1.4439    0.7111 C   0  0  0  0  0  0  0  0  0  0  0  0
    1.9032   -2.6552    0.3535 O   0  0  0  0  0  0  0  0  0  0  0  0
    3.0706   -0.6573    0.5902 C   0  0  0  0  0  0  0  0  0  0  0  0
    3.0866    0.6979    0.8120 C   0  0  0  0  0  0  0  0  0  0  0  0
    4.2662    1.4120    0.6905 C   0  0  0  0  0  0  0  0  0  0  0  0
    5.4759    0.8334    0.3483 C   0  0  0  0  0  0  0  0  0  0  0  0
    5.4439   -0.5289    0.1285 C   0  0  0  0  0  0  0  0  0  0  0  0
    4.2790   -1.2452    0.2466 C   0  0  0  0  0  0  0  0  0  0  0  0
    6.7233    1.6284    0.2254 C   0  0  0  0  0  0  0  0  0  0  0  0
    7.3168    1.5583   -1.1661 C   0  0  0  0  0  0  0  0  0  0  0  0
    8.7307    2.0980   -1.0889 C   0  0  0  0  0  0  0  0  0  0  0  0
    9.6085    1.2250   -0.3214 N   0  0  0  0  0  0  0  0  0  0  0  0
   10.4950    0.4836   -1.1489 C   0  0  0  0  0  0  0  0  0  0  0  0
   11.4376   -0.3811   -0.3943 C   0  0  0  0  0  0  0  0  0  0  0  0
   10.8650   -1.3541    0.3925 O   0  0  0  0  0  0  0  0  0  0  0  0
    8.9159    0.5020    0.6905 C   0  0  0  0  0  0  0  0  0  0  0  0
    7.7532    1.2810    1.2793 C   0  0  0  0  0  0  0  0  0  0  0  0
   -1.7012   -1.1749    1.8098 C   0  0  0  0  0  0  0  0  0  0  0  0
   -5.6324   -0.9517    0.7099 C   0  0  0  0  0  0  0  0  0  0  0  0
   -5.3319   -2.1628    0.1745 O   0  0  0  0  0  0  0  0  0  0  0  0
   -5.8083   -2.7717   -0.9637 C   0  0  0  0  0  0  0  0  0  0  0  0
   -5.5027   -2.1374   -2.2724 C   0  0  0  0  0  0  0  0  0  0  0  0
   -6.0282   -2.8260   -3.3596 O   0  0  0  0  0  0  0  0  0  0  0  0
   -7.3908   -2.9466   -3.3463 C   0  0  0  0  0  0  0  0  0  0  0  0
   -6.5679   -0.0584    0.1970 C   0  0  0  0  0  0  0  0  0  0  0  0
   -6.7973    1.1666    0.8234 C   0  0  0  0  0  0  0  0  0  0  0  0
  -10.4430    2.3830   -2.2551 H   0  0  0  0  0  0  0  0  0  0  0  0
  -11.2278    3.9070   -1.6022 H   0  0  0  0  0  0  0  0  0  0  0  0
   -9.8107    4.0300   -2.6838 H   0  0  0  0  0  0  0  0  0  0  0  0
   -9.2992    4.1438   -0.1101 H   0  0  0  0  0  0  0  0  0  0  0  0
   -8.0497    4.1207    1.4502 H   0  0  0  0  0  0  0  0  0  0  0  0
   -6.1833    3.3337    3.2216 H   0  0  0  0  0  0  0  0  0  0  0  0
   -4.6319    0.9027    3.3655 H   0  0  0  0  0  0  0  0  0  0  0  0
   -3.6616   -3.9361    1.5965 H   0  0  0  0  0  0  0  0  0  0  0  0
   -1.5569   -4.8047    0.7201 H   0  0  0  0  0  0  0  0  0  0  0  0
    0.6055    0.0861    1.5036 H   0  0  0  0  0  0  0  0  0  0  0  0
    2.1768    1.2368    1.0852 H   0  0  0  0  0  0  0  0  0  0  0  0
    4.2425    2.4745    0.8717 H   0  0  0  0  0  0  0  0  0  0  0  0
    6.3308   -1.0680   -0.1419 H   0  0  0  0  0  0  0  0  0  0  0  0
    4.2483   -2.3293    0.0728 H   0  0  0  0  0  0  0  0  0  0  0  0
    6.4535    2.6912    0.4104 H   0  0  0  0  0  0  0  0  0  0  0  0
    6.7740    2.2011   -1.8840 H   0  0  0  0  0  0  0  0  0  0  0  0
    7.3522    0.5293   -1.5318 H   0  0  0  0  0  0  0  0  0  0  0  0
    9.1298    2.1163   -2.1261 H   0  0  0  0  0  0  0  0  0  0  0  0
    8.7712    3.1083   -0.6748 H   0  0  0  0  0  0  0  0  0  0  0  0
   11.0293    1.1124   -1.8971 H   0  0  0  0  0  0  0  0  0  0  0  0
    9.8547   -0.1992   -1.7734 H   0  0  0  0  0  0  0  0  0  0  0  0
   12.0749    0.2806    0.2450 H   0  0  0  0  0  0  0  0  0  0  0  0
   12.0888   -0.9227   -1.1427 H   0  0  0  0  0  0  0  0  0  0  0  0
   10.7349   -2.2013   -0.1049 H   0  0  0  0  0  0  0  0  0  0  0  0
    9.6216    0.3589    1.5585 H   0  0  0  0  0  0  0  0  0  0  0  0
    8.6004   -0.5085    0.3809 H   0  0  0  0  0  0  0  0  0  0  0  0
    8.1187    2.1589    1.8370 H   0  0  0  0  0  0  0  0  0  0  0  0
    7.2558    0.6117    2.0110 H   0  0  0  0  0  0  0  0  0  0  0  0
   -1.7501   -0.1427    2.1219 H   0  0  0  0  0  0  0  0  0  0  0  0
   -6.9147   -2.9175   -0.8122 H   0  0  0  0  0  0  0  0  0  0  0  0
   -5.3860   -3.8161   -1.0009 H   0  0  0  0  0  0  0  0  0  0  0  0
   -4.3705   -2.1087   -2.3875 H   0  0  0  0  0  0  0  0  0  0  0  0
   -5.8422   -1.1177   -2.3313 H   0  0  0  0  0  0  0  0  0  0  0  0
   -7.7035   -3.5137   -4.2731 H   0  0  0  0  0  0  0  0  0  0  0  0
   -7.8605   -1.9522   -3.4352 H   0  0  0  0  0  0  0  0  0  0  0  0
   -7.7963   -3.5594   -2.5154 H   0  0  0  0  0  0  0  0  0  0  0  0
   -7.1151   -0.3463   -0.6688 H   0  0  0  0  0  0  0  0  0  0  0  0
  1  2  1  0
  2  3  1  0
  3  4  2  0
  3  5  1  0
  5  6  1  0
  6  7  2  0
  7  8  1  0
  8  9  2  0
  9 10  1  0
 10 11  1  0
 11 12  1  0
 12 13  2  0
 13 14  1  0
 14 15  2  0
 15 16  1  0
 16 17  1  0
 17 18  1  0
 18 19  2  0
 18 20  1  0
 20 21  2  0
 21 22  1  0
 22 23  2  0
 23 24  1  0
 24 25  2  0
 23 26  1  0
 26 27  1  0
 27 28  1  0
 28 29  1  0
 29 30  1  0
 30 31  1  0
 31 32  1  0
 29 33  1  0
 33 34  1  0
 16 35  2  0
 10 36  2  0
 36 37  1  0
 37 38  1  0
 38 39  1  0
 39 40  1  0
 40 41  1  0
 36 42  1  0
 42 43  2  0
 43  5  1  0
 43  8  1  0
 35 12  1  0
 25 20  1  0
 34 26  1  0
  1 44  1  0
  1 45  1  0
  1 46  1  0
  2 47  1  0
  6 48  1  0
  7 49  1  0
  9 50  1  0
 13 51  1  0
 14 52  1  0
 17 53  1  0
 21 54  1  0
 22 55  1  0
 24 56  1  0
 25 57  1  0
 26 58  1  0
 27 59  1  0
 27 60  1  0
 28 61  1  0
 28 62  1  0
 30 63  1  0
 30 64  1  0
 31 65  1  0
 31 66  1  0
 32 67  1  0
 33 68  1  0
 33 69  1  0
 34 70  1  0
 34 71  1  0
 35 72  1  0
 38 73  1  0
 38 74  1  0
 39 75  1  0
 39 76  1  0
 41 77  1  0
 41 78  1  0
 41 79  1  0
 42 80  1  0
M  END
$$$$
[H]OC(C([H])([H])[H])(C([H])([H])[H])C([H])([H])n1nc([H])c(-c2nc(-c3nn(-c4c(Cl)c(OC([H])([H])[H])c([H])c(OC([H])([H])[H])c4Cl)c(=O)c([H])c3[H])c(N([H])[H])nc2[H])c1[H]
     RDKit          3D

 59 62  0  0  0  0  0  0  0  0999 V2000
   -5.9667    1.7268    2.9826 C   0  0  0  0  0  0  0  0  0  0  0  0
   -5.2728    0.6638    2.3715 O   0  0  0  0  0  0  0  0  0  0  0  0
   -4.8724    0.6737    1.0518 C   0  0  0  0  0  0  0  0  0  0  0  0
   -5.1164    1.7411    0.1907 C   0  0  0  0  0  0  0  0  0  0  0  0
   -4.6998    1.7140   -1.1242 C   0  0  0  0  0  0  0  0  0  0  0  0
   -4.9592    2.8053   -1.9719 O   0  0  0  0  0  0  0  0  0  0  0  0
   -5.6395    3.9430   -1.5200 C   0  0  0  0  0  0  0  0  0  0  0  0
   -4.0359    0.5995   -1.5581 C   0  0  0  0  0  0  0  0  0  0  0  0
   -3.4952    0.5433   -3.2319 Cl  0  0  0  0  0  0  0  0  0  0  0  0
   -3.7642   -0.4885   -0.7555 C   0  0  0  0  0  0  0  0  0  0  0  0
   -4.1991   -0.4180    0.5520 C   0  0  0  0  0  0  0  0  0  0  0  0
   -3.8726   -1.7864    1.6115 Cl  0  0  0  0  0  0  0  0  0  0  0  0
   -3.0616   -1.6452   -1.2501 N   0  0  0  0  0  0  0  0  0  0  0  0
   -1.7773   -1.7971   -1.0392 N   0  0  0  0  0  0  0  0  0  0  0  0
   -1.0527   -2.8835   -1.4886 C   0  0  0  0  0  0  0  0  0  0  0  0
   -1.7642   -3.8065   -2.1775 C   0  0  0  0  0  0  0  0  0  0  0  0
   -3.1525   -3.6806   -2.4273 C   0  0  0  0  0  0  0  0  0  0  0  0
   -3.7660   -2.5621   -1.9339 C   0  0  0  0  0  0  0  0  0  0  0  0
   -5.0174   -2.3524   -2.1044 O   0  0  0  0  0  0  0  0  0  0  0  0
    0.3703   -2.9185   -1.1792 C   0  0  0  0  0  0  0  0  0  0  0  0
    0.8655   -1.8450   -0.4548 N   0  0  0  0  0  0  0  0  0  0  0  0
    2.1477   -1.7639   -0.1123 C   0  0  0  0  0  0  0  0  0  0  0  0
    2.9982   -2.7844   -0.4954 C   0  0  0  0  0  0  0  0  0  0  0  0
    2.5619   -3.8325   -1.1917 N   0  0  0  0  0  0  0  0  0  0  0  0
    1.2253   -3.9045   -1.5417 C   0  0  0  0  0  0  0  0  0  0  0  0
    0.8307   -5.0477   -2.2824 N   0  0  0  0  0  0  0  0  0  0  0  0
    2.6738   -0.6388    0.6487 C   0  0  0  0  0  0  0  0  0  0  0  0
    1.9924    0.4582    1.1148 C   0  0  0  0  0  0  0  0  0  0  0  0
    2.8822    1.2270    1.7572 N   0  0  0  0  0  0  0  0  0  0  0  0
    4.0826    0.6925    1.7306 N   0  0  0  0  0  0  0  0  0  0  0  0
    5.2881    1.2270    2.3127 C   0  0  0  0  0  0  0  0  0  0  0  0
    6.0512    2.1160    1.3676 C   0  0  0  0  0  0  0  0  0  0  0  0
    6.4821    1.4148    0.1183 C   0  0  0  0  0  0  0  0  0  0  0  0
    5.2813    3.3755    1.0153 C   0  0  0  0  0  0  0  0  0  0  0  0
    7.2051    2.5365    2.0432 O   0  0  0  0  0  0  0  0  0  0  0  0
    3.9709   -0.4669    1.0459 C   0  0  0  0  0  0  0  0  0  0  0  0
   -7.0387    1.6964    2.6897 H   0  0  0  0  0  0  0  0  0  0  0  0
   -5.5558    2.7144    2.6440 H   0  0  0  0  0  0  0  0  0  0  0  0
   -5.8899    1.6828    4.0796 H   0  0  0  0  0  0  0  0  0  0  0  0
   -5.6469    2.6002    0.5857 H   0  0  0  0  0  0  0  0  0  0  0  0
   -5.2811    4.2797   -0.5093 H   0  0  0  0  0  0  0  0  0  0  0  0
   -6.7372    3.7853   -1.4081 H   0  0  0  0  0  0  0  0  0  0  0  0
   -5.4945    4.8011   -2.1980 H   0  0  0  0  0  0  0  0  0  0  0  0
   -1.3136   -4.6797   -2.5692 H   0  0  0  0  0  0  0  0  0  0  0  0
   -3.6780   -4.4259   -2.9723 H   0  0  0  0  0  0  0  0  0  0  0  0
    4.0524   -2.6824   -0.1937 H   0  0  0  0  0  0  0  0  0  0  0  0
    0.5033   -5.9388   -1.8220 H   0  0  0  0  0  0  0  0  0  0  0  0
    0.8538   -5.0748   -3.3378 H   0  0  0  0  0  0  0  0  0  0  0  0
    0.9171    0.6472    0.9739 H   0  0  0  0  0  0  0  0  0  0  0  0
    5.9554    0.3969    2.5962 H   0  0  0  0  0  0  0  0  0  0  0  0
    4.9813    1.8509    3.1773 H   0  0  0  0  0  0  0  0  0  0  0  0
    5.7323    1.4957   -0.6954 H   0  0  0  0  0  0  0  0  0  0  0  0
    6.7082    0.3554    0.3777 H   0  0  0  0  0  0  0  0  0  0  0  0
    7.4432    1.8663   -0.2147 H   0  0  0  0  0  0  0  0  0  0  0  0
    4.2545    3.1377    0.6529 H   0  0  0  0  0  0  0  0  0  0  0  0
    5.8087    3.8446    0.1430 H   0  0  0  0  0  0  0  0  0  0  0  0
    5.2940    4.1192    1.8177 H   0  0  0  0  0  0  0  0  0  0  0  0
    7.8851    1.8353    2.0393 H   0  0  0  0  0  0  0  0  0  0  0  0
    4.8226   -1.1429    0.8583 H   0  0  0  0  0  0  0  0  0  0  0  0
  1  2  1  0
  2  3  1  0
  3  4  2  0
  4  5  1  0
  5  6  1  0
  6  7  1  0
  5  8  2  0
  8  9  1  0
  8 10  1  0
 10 11  2  0
 11 12  1  0
 10 13  1  0
 13 14  1  0
 14 15  2  0
 15 16  1  0
 16 17  2  0
 17 18  1  0
 18 19  2  0
 15 20  1  0
 20 21  2  0
 21 22  1  0
 22 23  2  0
 23 24  1  0
 24 25  2  0
 25 26  1  0
 22 27  1  0
 27 28  1  0
 28 29  2  0
 29 30  1  0
 30 31  1  0
 31 32  1  0
 32 33  1  0
 32 34  1  0
 32 35  1  0
 30 36  1  0
 11  3  1  0
 18 13  1  0
 25 20  1  0
 36 27  2  0
  1 37  1  0
  1 38  1  0
  1 39  1  0
  4 40  1  0
  7 41  1  0
  7 42  1  0
  7 43  1  0
 16 44  1  0
 17 45  1  0
 23 46  1  0
 26 47  1  0
 26 48  1  0
 28 49  1  0
 31 50  1  0
 31 51  1  0
 33 52  1  0
 33 53  1  0
 33 54  1  0
 34 55  1  0
 34 56  1  0
 34 57  1  0
 35 58  1  0
 36 59  1  0
M  END
$$$$
[H]c1nc(N([H])[H])c2c(-c3sc4c(OC([H])([H])[H])c([H])c(C([H])([H])[H])c([H])c4c3[H])c(C([H])([H])N([H])C(=O)C([H])([H])[H])c(C([H])([H])N3C([H])([H])C([H])([H])N([H])C([H])([H])C3([H])[H])n2n1
     RDKit          3D

 63 67  0  0  0  0  0  0  0  0999 V2000
   -7.4976   -2.2077   -1.4378 C   0  0  0  0  0  0  0  0  0  0  0  0
   -6.1255   -1.9601   -1.2082 O   0  0  0  0  0  0  0  0  0  0  0  0
   -5.7489   -0.7870   -0.6024 C   0  0  0  0  0  0  0  0  0  0  0  0
   -6.6899    0.1345   -0.2243 C   0  0  0  0  0  0  0  0  0  0  0  0
   -6.1914    1.2731    0.3741 C   0  0  0  0  0  0  0  0  0  0  0  0
   -7.2276    2.2873    0.7899 C   0  0  0  0  0  0  0  0  0  0  0  0
   -4.8542    1.5120    0.5971 C   0  0  0  0  0  0  0  0  0  0  0  0
   -3.8963    0.5600    0.2054 C   0  0  0  0  0  0  0  0  0  0  0  0
   -2.5609    0.6498    0.3557 C   0  0  0  0  0  0  0  0  0  0  0  0
   -1.7988   -0.3917   -0.0973 C   0  0  0  0  0  0  0  0  0  0  0  0
   -2.9731   -1.4591   -0.7130 S   0  0  0  0  0  0  0  0  0  0  0  0
   -4.3980   -0.5552   -0.3818 C   0  0  0  0  0  0  0  0  0  0  0  0
   -0.3459   -0.6177   -0.0170 C   0  0  0  0  0  0  0  0  0  0  0  0
    0.6482    0.3187   -0.4183 C   0  0  0  0  0  0  0  0  0  0  0  0
    0.2784    1.5287   -1.1303 C   0  0  0  0  0  0  0  0  0  0  0  0
    1.2114    2.5010   -1.5151 N   0  0  0  0  0  0  0  0  0  0  0  0
    1.8344    3.4219   -0.6478 C   0  0  0  0  0  0  0  0  0  0  0  0
    2.8137    4.4145   -1.1506 C   0  0  0  0  0  0  0  0  0  0  0  0
    1.5610    3.4094    0.5789 O   0  0  0  0  0  0  0  0  0  0  0  0
    1.8604   -0.2547   -0.1024 C   0  0  0  0  0  0  0  0  0  0  0  0
    3.2030    0.2990   -0.3797 C   0  0  0  0  0  0  0  0  0  0  0  0
    4.2525   -0.5998    0.1645 N   0  0  0  0  0  0  0  0  0  0  0  0
    5.5197   -0.2390   -0.5551 C   0  0  0  0  0  0  0  0  0  0  0  0
    6.5336   -1.2339   -0.1030 C   0  0  0  0  0  0  0  0  0  0  0  0
    6.3440   -1.7543    1.2123 N   0  0  0  0  0  0  0  0  0  0  0  0
    5.7025   -0.8494    2.1419 C   0  0  0  0  0  0  0  0  0  0  0  0
    4.5559   -0.1165    1.5486 C   0  0  0  0  0  0  0  0  0  0  0  0
    1.6577   -1.4663    0.4555 N   0  0  0  0  0  0  0  0  0  0  0  0
    2.5177   -2.3929    0.9109 N   0  0  0  0  0  0  0  0  0  0  0  0
    2.1521   -3.5552    1.4351 C   0  0  0  0  0  0  0  0  0  0  0  0
    0.8440   -3.8109    1.5115 N   0  0  0  0  0  0  0  0  0  0  0  0
   -0.0504   -2.8809    1.0520 C   0  0  0  0  0  0  0  0  0  0  0  0
   -1.3918   -3.2411    1.2297 N   0  0  0  0  0  0  0  0  0  0  0  0
    0.3512   -1.6740    0.5041 C   0  0  0  0  0  0  0  0  0  0  0  0
   -7.8708   -1.4504   -2.1555 H   0  0  0  0  0  0  0  0  0  0  0  0
   -8.0798   -2.1316   -0.4786 H   0  0  0  0  0  0  0  0  0  0  0  0
   -7.6002   -3.2442   -1.7775 H   0  0  0  0  0  0  0  0  0  0  0  0
   -7.7586   -0.0134   -0.3817 H   0  0  0  0  0  0  0  0  0  0  0  0
   -8.1219    1.7440    1.1628 H   0  0  0  0  0  0  0  0  0  0  0  0
   -7.5528    2.8893   -0.0682 H   0  0  0  0  0  0  0  0  0  0  0  0
   -6.8353    2.8703    1.6311 H   0  0  0  0  0  0  0  0  0  0  0  0
   -4.5707    2.4450    1.0771 H   0  0  0  0  0  0  0  0  0  0  0  0
   -2.0416    1.4976    0.8568 H   0  0  0  0  0  0  0  0  0  0  0  0
   -0.3957    1.2125   -1.9934 H   0  0  0  0  0  0  0  0  0  0  0  0
   -0.4514    2.0827   -0.4462 H   0  0  0  0  0  0  0  0  0  0  0  0
    1.4661    2.5402   -2.5572 H   0  0  0  0  0  0  0  0  0  0  0  0
    2.9704    5.2188   -0.3875 H   0  0  0  0  0  0  0  0  0  0  0  0
    2.4621    4.9434   -2.0635 H   0  0  0  0  0  0  0  0  0  0  0  0
    3.7798    3.8966   -1.3382 H   0  0  0  0  0  0  0  0  0  0  0  0
    3.3617    0.3945   -1.4605 H   0  0  0  0  0  0  0  0  0  0  0  0
    3.4215    1.2413    0.1772 H   0  0  0  0  0  0  0  0  0  0  0  0
    5.7724    0.8099   -0.3571 H   0  0  0  0  0  0  0  0  0  0  0  0
    5.2780   -0.4014   -1.6226 H   0  0  0  0  0  0  0  0  0  0  0  0
    6.4774   -2.1177   -0.8025 H   0  0  0  0  0  0  0  0  0  0  0  0
    7.5841   -0.8403   -0.2349 H   0  0  0  0  0  0  0  0  0  0  0  0
    7.2458   -2.0629    1.6041 H   0  0  0  0  0  0  0  0  0  0  0  0
    6.4345   -0.1699    2.6460 H   0  0  0  0  0  0  0  0  0  0  0  0
    5.2997   -1.4945    2.9734 H   0  0  0  0  0  0  0  0  0  0  0  0
    4.9264    0.9389    1.3438 H   0  0  0  0  0  0  0  0  0  0  0  0
    3.6604   -0.0122    2.1113 H   0  0  0  0  0  0  0  0  0  0  0  0
    2.8595   -4.2948    1.7984 H   0  0  0  0  0  0  0  0  0  0  0  0
   -1.8240   -3.9979    0.6775 H   0  0  0  0  0  0  0  0  0  0  0  0
   -1.9882   -2.7563    1.9436 H   0  0  0  0  0  0  0  0  0  0  0  0
  1  2  1  0
  2  3  1  0
  3  4  2  0
  4  5  1  0
  5  6  1  0
  5  7  2  0
  7  8  1  0
  8  9  1  0
  9 10  2  0
 10 11  1  0
 11 12  1  0
 10 13  1  0
 13 14  1  0
 14 15  1  0
 15 16  1  0
 16 17  1  0
 17 18  1  0
 17 19  2  0
 14 20  2  0
 20 21  1  0
 21 22  1  0
 22 23  1  0
 23 24  1  0
 24 25  1  0
 25 26  1  0
 26 27  1  0
 20 28  1  0
 28 29  1  0
 29 30  2  0
 30 31  1  0
 31 32  2  0
 32 33  1  0
 32 34  1  0
 12  3  1  0
 34 13  2  0
 12  8  2  0
 27 22  1  0
 34 28  1  0
  1 35  1  0
  1 36  1  0
  1 37  1  0
  4 38  1  0
  6 39  1  0
  6 40  1  0
  6 41  1  0
  7 42  1  0
  9 43  1  0
 15 44  1  0
 15 45  1  0
 16 46  1  0
 18 47  1  0
 18 48  1  0
 18 49  1  0
 21 50  1  0
 21 51  1  0
 23 52  1  0
 23 53  1  0
 24 54  1  0
 24 55  1  0
 25 56  1  0
 26 57  1  0
 26 58  1  0
 27 59  1  0
 27 60  1  0
 30 61  1  0
 33 62  1  0
 33 63  1  0
M  END
$$$$
[H]c1nc(N([H])[H])c(-c2nn(-c3c([H])c(OC([H])([H])[H])c([H])c(OC([H])([H])[H])c3[H])c(=O)c([H])c2[H])nc1-c1c([H])nn(C2([H])C([H])([H])C([H])([H])N(C([H])([H])[H])C([H])([H])C2([H])[H])c1[H]
     RDKit          3D

 64 68  0  0  0  0  0  0  0  0999 V2000
  -10.0129   -1.0619   -0.9267 C   0  0  0  0  0  0  0  0  0  0  0  0
   -8.7417   -1.0327   -1.5035 O   0  0  0  0  0  0  0  0  0  0  0  0
   -7.7216   -0.2237   -1.0014 C   0  0  0  0  0  0  0  0  0  0  0  0
   -7.9031    0.5831    0.0903 C   0  0  0  0  0  0  0  0  0  0  0  0
   -6.8288    1.3610    0.5360 C   0  0  0  0  0  0  0  0  0  0  0  0
   -7.0976    2.1335    1.6381 O   0  0  0  0  0  0  0  0  0  0  0  0
   -6.1144    2.9724    2.2008 C   0  0  0  0  0  0  0  0  0  0  0  0
   -5.6214    1.3027   -0.1246 C   0  0  0  0  0  0  0  0  0  0  0  0
   -5.4204    0.4999   -1.2207 C   0  0  0  0  0  0  0  0  0  0  0  0
   -6.4959   -0.2682   -1.6542 C   0  0  0  0  0  0  0  0  0  0  0  0
   -4.1857    0.4053   -1.9425 N   0  0  0  0  0  0  0  0  0  0  0  0
   -3.0579    0.1118   -1.4067 N   0  0  0  0  0  0  0  0  0  0  0  0
   -1.8783   -0.0280   -2.0964 C   0  0  0  0  0  0  0  0  0  0  0  0
   -1.9633    0.1782   -3.4836 C   0  0  0  0  0  0  0  0  0  0  0  0
   -3.1391    0.4895   -4.0758 C   0  0  0  0  0  0  0  0  0  0  0  0
   -4.2618    0.6028   -3.2920 C   0  0  0  0  0  0  0  0  0  0  0  0
   -5.3471    0.8886   -3.8470 O   0  0  0  0  0  0  0  0  0  0  0  0
   -0.6367   -0.0999   -1.4596 C   0  0  0  0  0  0  0  0  0  0  0  0
    0.4386   -0.1621   -0.9083 N   0  0  0  0  0  0  0  0  0  0  0  0
    1.5926   -0.5383   -0.5523 C   0  0  0  0  0  0  0  0  0  0  0  0
    1.9019   -1.7512   -1.2952 C   0  0  0  0  0  0  0  0  0  0  0  0
    0.8690   -2.0314   -2.0778 N   0  0  0  0  0  0  0  0  0  0  0  0
   -0.2518   -1.5489   -2.3337 C   0  0  0  0  0  0  0  0  0  0  0  0
   -1.2707   -2.0183   -3.1028 N   0  0  0  0  0  0  0  0  0  0  0  0
    2.5109    0.0430    0.3584 C   0  0  0  0  0  0  0  0  0  0  0  0
    2.3915    1.1528    1.1463 C   0  0  0  0  0  0  0  0  0  0  0  0
    3.5086    1.3286    1.8182 N   0  0  0  0  0  0  0  0  0  0  0  0
    4.3933    0.3599    1.5169 N   0  0  0  0  0  0  0  0  0  0  0  0
    3.7962   -0.4305    0.6255 C   0  0  0  0  0  0  0  0  0  0  0  0
    5.7288    0.2229    2.0721 C   0  0  0  0  0  0  0  0  0  0  0  0
    6.0743   -1.2174    2.2843 C   0  0  0  0  0  0  0  0  0  0  0  0
    7.5088   -1.4601    2.6155 C   0  0  0  0  0  0  0  0  0  0  0  0
    8.4322   -0.5711    2.0583 N   0  0  0  0  0  0  0  0  0  0  0  0
    9.7141   -0.4468    2.6295 C   0  0  0  0  0  0  0  0  0  0  0  0
    8.0400    0.3256    1.0553 C   0  0  0  0  0  0  0  0  0  0  0  0
    6.6850    0.9161    1.1609 C   0  0  0  0  0  0  0  0  0  0  0  0
  -10.0492   -1.3286    0.1330 H   0  0  0  0  0  0  0  0  0  0  0  0
  -10.7296   -1.6826   -1.5392 H   0  0  0  0  0  0  0  0  0  0  0  0
  -10.4181   -0.0045   -0.9916 H   0  0  0  0  0  0  0  0  0  0  0  0
   -8.8477    0.6069    0.5927 H   0  0  0  0  0  0  0  0  0  0  0  0
   -6.0385    3.9365    1.6044 H   0  0  0  0  0  0  0  0  0  0  0  0
   -5.1466    2.4521    2.2138 H   0  0  0  0  0  0  0  0  0  0  0  0
   -6.3682    3.3043    3.2343 H   0  0  0  0  0  0  0  0  0  0  0  0
   -4.7984    1.9116    0.2297 H   0  0  0  0  0  0  0  0  0  0  0  0
   -6.3621   -0.9117   -2.5315 H   0  0  0  0  0  0  0  0  0  0  0  0
   -1.0597    0.1346   -4.0677 H   0  0  0  0  0  0  0  0  0  0  0  0
   -3.1855    0.6469   -5.1493 H   0  0  0  0  0  0  0  0  0  0  0  0
    2.7741   -2.2357   -1.1738 H   0  0  0  0  0  0  0  0  0  0  0  0
   -2.2270   -2.2845   -2.6781 H   0  0  0  0  0  0  0  0  0  0  0  0
   -1.2437   -2.1909   -4.1487 H   0  0  0  0  0  0  0  0  0  0  0  0
    1.4743    1.7753    1.1913 H   0  0  0  0  0  0  0  0  0  0  0  0
    4.2246   -1.3060    0.1578 H   0  0  0  0  0  0  0  0  0  0  0  0
    5.7083    0.6967    3.0879 H   0  0  0  0  0  0  0  0  0  0  0  0
    5.7687   -1.7850    1.3823 H   0  0  0  0  0  0  0  0  0  0  0  0
    5.4088   -1.6046    3.1119 H   0  0  0  0  0  0  0  0  0  0  0  0
    7.6037   -1.4713    3.7234 H   0  0  0  0  0  0  0  0  0  0  0  0
    7.7697   -2.5162    2.3142 H   0  0  0  0  0  0  0  0  0  0  0  0
    9.9225    0.6599    2.7417 H   0  0  0  0  0  0  0  0  0  0  0  0
    9.8546   -0.9142    3.6018 H   0  0  0  0  0  0  0  0  0  0  0  0
   10.4831   -0.7930    1.8762 H   0  0  0  0  0  0  0  0  0  0  0  0
    8.1076   -0.2032    0.0640 H   0  0  0  0  0  0  0  0  0  0  0  0
    8.7981    1.1596    1.0194 H   0  0  0  0  0  0  0  0  0  0  0  0
    6.7343    1.9860    1.5239 H   0  0  0  0  0  0  0  0  0  0  0  0
    6.2066    0.9745    0.1391 H   0  0  0  0  0  0  0  0  0  0  0  0
  1  2  1  0
  2  3  1  0
  3  4  2  0
  4  5  1  0
  5  6  1  0
  6  7  1  0
  5  8  2  0
  8  9  1  0
  9 10  2  0
  9 11  1  0
 11 12  1  0
 12 13  2  0
 13 14  1  0
 14 15  2  0
 15 16  1  0
 16 17  2  0
 13 18  1  0
 18 19  2  0
 19 20  1  0
 20 21  2  0
 21 22  1  0
 22 23  2  0
 23 24  1  0
 20 25  1  0
 25 26  1  0
 26 27  2  0
 27 28  1  0
 28 29  1  0
 28 30  1  0
 30 31  1  0
 31 32  1  0
 32 33  1  0
 33 34  1  0
 33 35  1  0
 35 36  1  0
 10  3  1  0
 16 11  1  0
 23 18  1  0
 29 25  2  0
 36 30  1  0
  1 37  1  0
  1 38  1  0
  1 39  1  0
  4 40  1  0
  7 41  1  0
  7 42  1  0
  7 43  1  0
  8 44  1  0
 10 45  1  0
 14 46  1  0
 15 47  1  0
 21 48  1  0
 24 49  1  0
 24 50  1  0
 26 51  1  0
 29 52  1  0
 30 53  1  0
 31 54  1  0
 31 55  1  0
 32 56  1  0
 32 57  1  0
 34 58  1  0
 34 59  1  0
 34 60  1  0
 35 61  1  0
 35 62  1  0
 36 63  1  0
 36 64  1  0
M  END
$$$$
[H]OC([H])([H])C(n1nc([H])c(-c2nc(-c3nn(-c4c(Cl)c(OC([H])([H])[H])c([H])c(OC([H])([H])[H])c4Cl)c(=O)c([H])c3[H])c(N([H])[H])nc2[H])c1[H])(C([H])([H])[H])C([H])([H])[H]
     RDKit          3D

 59 62  0  0  0  0  0  0  0  0999 V2000
    7.2648    2.8020    2.2096 C   0  0  0  0  0  0  0  0  0  0  0  0
    6.3194    1.7896    2.1695 O   0  0  0  0  0  0  0  0  0  0  0  0
    5.7610    1.3090    1.0160 C   0  0  0  0  0  0  0  0  0  0  0  0
    6.0681    1.7828   -0.2714 C   0  0  0  0  0  0  0  0  0  0  0  0
    5.4689    1.2432   -1.3853 C   0  0  0  0  0  0  0  0  0  0  0  0
    5.7350    1.6643   -2.6730 O   0  0  0  0  0  0  0  0  0  0  0  0
    6.6105    2.6599   -3.0871 C   0  0  0  0  0  0  0  0  0  0  0  0
    4.5404    0.2045   -1.1869 C   0  0  0  0  0  0  0  0  0  0  0  0
    3.7744   -0.4451   -2.6204 Cl  0  0  0  0  0  0  0  0  0  0  0  0
    4.2224   -0.2742    0.0377 C   0  0  0  0  0  0  0  0  0  0  0  0
    4.8210    0.2684    1.1444 C   0  0  0  0  0  0  0  0  0  0  0  0
    4.4399   -0.2362    2.8024 Cl  0  0  0  0  0  0  0  0  0  0  0  0
    3.3276   -1.3846    0.2785 N   0  0  0  0  0  0  0  0  0  0  0  0
    2.0719   -1.3055    0.0796 N   0  0  0  0  0  0  0  0  0  0  0  0
    1.1443   -2.3396    0.3477 C   0  0  0  0  0  0  0  0  0  0  0  0
    1.7940   -3.4685    0.8712 C   0  0  0  0  0  0  0  0  0  0  0  0
    3.1416   -3.5378    1.0741 C   0  0  0  0  0  0  0  0  0  0  0  0
    3.9444   -2.4873    0.7785 C   0  0  0  0  0  0  0  0  0  0  0  0
    5.1888   -2.4893    0.9329 O   0  0  0  0  0  0  0  0  0  0  0  0
   -0.1666   -2.0364    0.2812 C   0  0  0  0  0  0  0  0  0  0  0  0
   -1.3448   -1.5993    0.1915 N   0  0  0  0  0  0  0  0  0  0  0  0
   -2.5723   -1.6116   -0.1147 C   0  0  0  0  0  0  0  0  0  0  0  0
   -2.9094   -2.8444   -0.7660 C   0  0  0  0  0  0  0  0  0  0  0  0
   -1.8176   -3.5858   -0.8453 N   0  0  0  0  0  0  0  0  0  0  0  0
   -0.6287   -3.4796   -0.5071 C   0  0  0  0  0  0  0  0  0  0  0  0
    0.4383   -4.2746   -0.8450 N   0  0  0  0  0  0  0  0  0  0  0  0
   -3.5418   -0.5726    0.1407 C   0  0  0  0  0  0  0  0  0  0  0  0
   -3.3267    0.5464    0.9196 C   0  0  0  0  0  0  0  0  0  0  0  0
   -4.4175    1.3268    0.8911 N   0  0  0  0  0  0  0  0  0  0  0  0
   -5.3332    0.7351    0.1071 N   0  0  0  0  0  0  0  0  0  0  0  0
   -4.8056   -0.4112   -0.3452 C   0  0  0  0  0  0  0  0  0  0  0  0
   -6.6163    1.3507   -0.1358 C   0  0  0  0  0  0  0  0  0  0  0  0
   -7.6397    0.4205   -0.6716 C   0  0  0  0  0  0  0  0  0  0  0  0
   -6.4487    2.4983   -1.1403 C   0  0  0  0  0  0  0  0  0  0  0  0
   -7.0800    1.9633    1.1714 C   0  0  0  0  0  0  0  0  0  0  0  0
   -7.1669    0.9382    2.1034 O   0  0  0  0  0  0  0  0  0  0  0  0
    6.7978    3.8108    2.4127 H   0  0  0  0  0  0  0  0  0  0  0  0
    7.9757    2.6830    3.0795 H   0  0  0  0  0  0  0  0  0  0  0  0
    7.8390    2.9441    1.2763 H   0  0  0  0  0  0  0  0  0  0  0  0
    6.7878    2.5952   -0.3684 H   0  0  0  0  0  0  0  0  0  0  0  0
    6.2825    3.1581   -4.0301 H   0  0  0  0  0  0  0  0  0  0  0  0
    6.6837    3.5091   -2.3494 H   0  0  0  0  0  0  0  0  0  0  0  0
    7.6607    2.2780   -3.2727 H   0  0  0  0  0  0  0  0  0  0  0  0
    1.1648   -4.3024    1.2437 H   0  0  0  0  0  0  0  0  0  0  0  0
    3.6142   -4.4423    1.4778 H   0  0  0  0  0  0  0  0  0  0  0  0
   -3.8591   -3.0307   -1.0882 H   0  0  0  0  0  0  0  0  0  0  0  0
    0.5480   -5.2958   -0.5703 H   0  0  0  0  0  0  0  0  0  0  0  0
    1.2484   -3.9302   -1.4578 H   0  0  0  0  0  0  0  0  0  0  0  0
   -2.4501    0.8365    1.5017 H   0  0  0  0  0  0  0  0  0  0  0  0
   -5.3058   -1.0939   -1.0116 H   0  0  0  0  0  0  0  0  0  0  0  0
   -7.3760   -0.6370   -0.5125 H   0  0  0  0  0  0  0  0  0  0  0  0
   -7.8427    0.5740   -1.7561 H   0  0  0  0  0  0  0  0  0  0  0  0
   -8.5874    0.5646   -0.0986 H   0  0  0  0  0  0  0  0  0  0  0  0
   -6.3251    3.4253   -0.5303 H   0  0  0  0  0  0  0  0  0  0  0  0
   -5.5567    2.3199   -1.7866 H   0  0  0  0  0  0  0  0  0  0  0  0
   -7.3409    2.5438   -1.7754 H   0  0  0  0  0  0  0  0  0  0  0  0
   -6.3624    2.7143    1.5244 H   0  0  0  0  0  0  0  0  0  0  0  0
   -8.0979    2.4428    1.0437 H   0  0  0  0  0  0  0  0  0  0  0  0
   -7.7593    1.2133    2.8841 H   0  0  0  0  0  0  0  0  0  0  0  0
  1  2  1  0
  2  3  1  0
  3  4  2  0
  4  5  1  0
  5  6  1  0
  6  7  1  0
  5  8  2  0
  8  9  1  0
  8 10  1  0
 10 11  2  0
 11 12  1  0
 10 13  1  0
 13 14  1  0
 14 15  2  0
 15 16  1  0
 16 17  2  0
 17 18  1  0
 18 19  2  0
 15 20  1  0
 20 21  2  0
 21 22  1  0
 22 23  2  0
 23 24  1  0
 24 25  2  0
 25 26  1  0
 22 27  1  0
 27 28  1  0
 28 29  2  0
 29 30  1  0
 30 31  1  0
 30 32  1  0
 32 33  1  0
 32 34  1  0
 32 35  1  0
 35 36  1  0
 11  3  1  0
 18 13  1  0
 25 20  1  0
 31 27  2  0
  1 37  1  0
  1 38  1  0
  1 39  1  0
  4 40  1  0
  7 41  1  0
  7 42  1  0
  7 43  1  0
 16 44  1  0
 17 45  1  0
 23 46  1  0
 26 47  1  0
 26 48  1  0
 28 49  1  0
 31 50  1  0
 33 51  1  0
 33 52  1  0
 33 53  1  0
 34 54  1  0
 34 55  1  0
 34 56  1  0
 35 57  1  0
 35 58  1  0
 36 59  1  0
M  END
$$$$
[H]c1nc(N([H])[H])c2c(-c3sc4c(OC([H])([H])[H])c([H])c(C([H])([H])[H])c([H])c4c3[H])c(C([H])([H])OC([H])([H])C([H])([H])[H])c(C(=O)N3C([H])([H])C(F)(F)C3([H])[H])n2n1
     RDKit          3D

 57 61  0  0  0  0  0  0  0  0999 V2000
   -1.0338   -3.0363    3.1221 C   0  0  0  0  0  0  0  0  0  0  0  0
   -1.6426   -1.7010    3.4896 C   0  0  0  0  0  0  0  0  0  0  0  0
   -2.0956   -1.0177    2.3594 O   0  0  0  0  0  0  0  0  0  0  0  0
   -1.1289   -0.7432    1.4695 C   0  0  0  0  0  0  0  0  0  0  0  0
   -1.4526   -0.0709    0.2066 C   0  0  0  0  0  0  0  0  0  0  0  0
   -0.4288    0.2623   -0.7154 C   0  0  0  0  0  0  0  0  0  0  0  0
    1.0120    0.0816   -0.4393 C   0  0  0  0  0  0  0  0  0  0  0  0
    1.7563    0.6166    0.5811 C   0  0  0  0  0  0  0  0  0  0  0  0
    3.0807    0.3654    0.5980 C   0  0  0  0  0  0  0  0  0  0  0  0
    4.0118    0.8169    1.5574 C   0  0  0  0  0  0  0  0  0  0  0  0
    5.3239    0.4818    1.4555 C   0  0  0  0  0  0  0  0  0  0  0  0
    6.3464    0.9675    2.4573 C   0  0  0  0  0  0  0  0  0  0  0  0
    5.8383   -0.2941    0.4454 C   0  0  0  0  0  0  0  0  0  0  0  0
    4.9529   -0.7705   -0.5428 C   0  0  0  0  0  0  0  0  0  0  0  0
    5.2512   -1.4936   -1.5543 O   0  0  0  0  0  0  0  0  0  0  0  0
    6.1176   -2.1607   -2.2952 C   0  0  0  0  0  0  0  0  0  0  0  0
    3.5837   -0.3986   -0.3988 C   0  0  0  0  0  0  0  0  0  0  0  0
    2.2011   -0.7521   -1.3398 S   0  0  0  0  0  0  0  0  0  0  0  0
   -0.9866    0.8217   -1.8122 C   0  0  0  0  0  0  0  0  0  0  0  0
   -0.4406    1.3064   -2.9844 C   0  0  0  0  0  0  0  0  0  0  0  0
    0.9537    1.3390   -3.2608 N   0  0  0  0  0  0  0  0  0  0  0  0
   -1.2944    1.8069   -3.9265 N   0  0  0  0  0  0  0  0  0  0  0  0
   -2.6095    1.8057   -3.6692 C   0  0  0  0  0  0  0  0  0  0  0  0
   -3.0788    1.3244   -2.5109 N   0  0  0  0  0  0  0  0  0  0  0  0
   -2.3150    0.8354   -1.5792 N   0  0  0  0  0  0  0  0  0  0  0  0
   -2.6422    0.2989   -0.3607 C   0  0  0  0  0  0  0  0  0  0  0  0
   -4.0074    0.0542    0.0912 C   0  0  0  0  0  0  0  0  0  0  0  0
   -4.1574   -0.8239    1.0326 O   0  0  0  0  0  0  0  0  0  0  0  0
   -5.2171    0.6287   -0.3303 N   0  0  0  0  0  0  0  0  0  0  0  0
   -5.7746    1.6170   -1.1947 C   0  0  0  0  0  0  0  0  0  0  0  0
   -7.0319    1.6888   -0.3038 C   0  0  0  0  0  0  0  0  0  0  0  0
   -6.8862    2.6449    0.6521 F   0  0  0  0  0  0  0  0  0  0  0  0
   -8.1853    1.7996   -1.0664 F   0  0  0  0  0  0  0  0  0  0  0  0
   -6.6162    0.2929    0.0292 C   0  0  0  0  0  0  0  0  0  0  0  0
    0.0113   -2.9322    2.8035 H   0  0  0  0  0  0  0  0  0  0  0  0
   -1.6527   -3.5790    2.3616 H   0  0  0  0  0  0  0  0  0  0  0  0
   -1.0553   -3.6549    4.0503 H   0  0  0  0  0  0  0  0  0  0  0  0
   -0.8814   -1.1390    4.0547 H   0  0  0  0  0  0  0  0  0  0  0  0
   -2.5152   -1.9191    4.1345 H   0  0  0  0  0  0  0  0  0  0  0  0
   -0.5989   -1.7200    1.1891 H   0  0  0  0  0  0  0  0  0  0  0  0
   -0.3439   -0.1473    2.0376 H   0  0  0  0  0  0  0  0  0  0  0  0
    1.2272    1.2583    1.3245 H   0  0  0  0  0  0  0  0  0  0  0  0
    3.7264    1.4376    2.3962 H   0  0  0  0  0  0  0  0  0  0  0  0
    5.8928    1.3271    3.3759 H   0  0  0  0  0  0  0  0  0  0  0  0
    6.9434    1.7036    1.9219 H   0  0  0  0  0  0  0  0  0  0  0  0
    6.9747    0.0882    2.6818 H   0  0  0  0  0  0  0  0  0  0  0  0
    6.8713   -0.5644    0.3375 H   0  0  0  0  0  0  0  0  0  0  0  0
    7.1859   -1.7694   -2.2935 H   0  0  0  0  0  0  0  0  0  0  0  0
    6.2261   -3.2400   -1.9900 H   0  0  0  0  0  0  0  0  0  0  0  0
    5.8819   -2.2083   -3.4070 H   0  0  0  0  0  0  0  0  0  0  0  0
    1.6265    1.9867   -2.7919 H   0  0  0  0  0  0  0  0  0  0  0  0
    1.3918    0.6943   -3.9798 H   0  0  0  0  0  0  0  0  0  0  0  0
   -3.2450    2.2081   -4.4382 H   0  0  0  0  0  0  0  0  0  0  0  0
   -6.0888    1.3173   -2.1995 H   0  0  0  0  0  0  0  0  0  0  0  0
   -5.2671    2.6295   -1.2080 H   0  0  0  0  0  0  0  0  0  0  0  0
   -7.0318   -0.4340   -0.7065 H   0  0  0  0  0  0  0  0  0  0  0  0
   -6.6829    0.0629    1.0829 H   0  0  0  0  0  0  0  0  0  0  0  0
  1  2  1  0
  2  3  1  0
  3  4  1  0
  4  5  1  0
  5  6  1  0
  6  7  1  0
  7  8  2  0
  8  9  1  0
  9 10  2  0
 10 11  1  0
 11 12  1  0
 11 13  2  0
 13 14  1  0
 14 15  1  0
 15 16  1  0
 14 17  2  0
 17 18  1  0
  6 19  2  0
 19 20  1  0
 20 21  1  0
 20 22  2  0
 22 23  1  0
 23 24  2  0
 24 25  1  0
 25 26  1  0
 26 27  1  0
 27 28  2  0
 27 29  1  0
 29 30  1  0
 30 31  1  0
 31 32  1  0
 31 33  1  0
 31 34  1  0
 26  5  2  0
 34 29  1  0
 18  7  1  0
 25 19  1  0
 17  9  1  0
  1 35  1  0
  1 36  1  0
  1 37  1  0
  2 38  1  0
  2 39  1  0
  4 40  1  0
  4 41  1  0
  8 42  1  0
 10 43  1  0
 12 44  1  0
 12 45  1  0
 12 46  1  0
 13 47  1  0
 16 48  1  0
 16 49  1  0
 16 50  1  0
 21 51  1  0
 21 52  1  0
 23 53  1  0
 30 54  1  0
 30 55  1  0
 34 56  1  0
 34 57  1  0
M  END
$$$$
[H]c1nc(N([H])C(=O)c2c([H])c([H])c(C3([H])C([H])([H])C([H])([H])N(C([H])(C([H])([H])[H])C([H])([H])[H])C([H])([H])C3([H])[H])c([H])c2[H])c([H])c(Oc2c(OC([H])([H])C([H])([H])C([H])([H])OC([H])([H])[H])c([H])c3c(c2[H])c([H])c([H])n3C(=O)N([H])C([H])([H])[H])c1[H]
     RDKit          3D

 85 89  0  0  0  0  0  0  0  0999 V2000
   -9.3927    5.3603    0.4827 C   0  0  0  0  0  0  0  0  0  0  0  0
   -8.1647    4.9228   -0.1759 N   0  0  0  0  0  0  0  0  0  0  0  0
   -7.7421    3.5667   -0.0062 C   0  0  0  0  0  0  0  0  0  0  0  0
   -8.4550    2.7865    0.7176 O   0  0  0  0  0  0  0  0  0  0  0  0
   -6.5616    3.0820   -0.6200 N   0  0  0  0  0  0  0  0  0  0  0  0
   -5.7752    3.8491   -1.3881 C   0  0  0  0  0  0  0  0  0  0  0  0
   -4.7068    3.1362   -1.8637 C   0  0  0  0  0  0  0  0  0  0  0  0
   -4.8469    1.8595   -1.3591 C   0  0  0  0  0  0  0  0  0  0  0  0
   -4.1375    0.6992   -1.4539 C   0  0  0  0  0  0  0  0  0  0  0  0
   -4.5364   -0.4417   -0.8216 C   0  0  0  0  0  0  0  0  0  0  0  0
   -3.8520   -1.6327   -0.8890 O   0  0  0  0  0  0  0  0  0  0  0  0
   -2.7186   -1.7868   -1.6226 C   0  0  0  0  0  0  0  0  0  0  0  0
   -2.8453   -2.2912   -2.9063 C   0  0  0  0  0  0  0  0  0  0  0  0
   -1.6994   -2.4498   -3.6442 C   0  0  0  0  0  0  0  0  0  0  0  0
   -0.5151   -2.1421   -3.1741 N   0  0  0  0  0  0  0  0  0  0  0  0
   -0.3218   -1.6486   -1.9413 C   0  0  0  0  0  0  0  0  0  0  0  0
    0.9881   -1.3466   -1.5152 N   0  0  0  0  0  0  0  0  0  0  0  0
    1.4361   -0.8092   -0.3049 C   0  0  0  0  0  0  0  0  0  0  0  0
    0.6975   -0.4885    0.6247 O   0  0  0  0  0  0  0  0  0  0  0  0
    2.8873   -0.5992   -0.0923 C   0  0  0  0  0  0  0  0  0  0  0  0
    3.6620   -0.1733   -1.1234 C   0  0  0  0  0  0  0  0  0  0  0  0
    5.0250    0.0091   -0.9232 C   0  0  0  0  0  0  0  0  0  0  0  0
    5.6458   -0.2195    0.2798 C   0  0  0  0  0  0  0  0  0  0  0  0
    4.8280   -0.6561    1.3194 C   0  0  0  0  0  0  0  0  0  0  0  0
    3.4704   -0.8415    1.1298 C   0  0  0  0  0  0  0  0  0  0  0  0
    7.0738    0.0068    0.4169 C   0  0  0  0  0  0  0  0  0  0  0  0
    7.8839   -1.2990    0.3111 C   0  0  0  0  0  0  0  0  0  0  0  0
    9.3557   -0.9527    0.2098 C   0  0  0  0  0  0  0  0  0  0  0  0
    9.5010    0.4401    0.4424 N   0  0  0  0  0  0  0  0  0  0  0  0
    8.9936    0.9036    1.6804 C   0  0  0  0  0  0  0  0  0  0  0  0
    7.4789    0.7488    1.6687 C   0  0  0  0  0  0  0  0  0  0  0  0
   10.6024    1.1023   -0.1329 C   0  0  0  0  0  0  0  0  0  0  0  0
   10.4609    0.9894   -1.6566 C   0  0  0  0  0  0  0  0  0  0  0  0
   10.5133    2.5818    0.1765 C   0  0  0  0  0  0  0  0  0  0  0  0
   -1.4309   -1.4696   -1.1585 C   0  0  0  0  0  0  0  0  0  0  0  0
   -5.7153   -0.4767   -0.0305 C   0  0  0  0  0  0  0  0  0  0  0  0
   -6.0821   -1.5614    0.5576 O   0  0  0  0  0  0  0  0  0  0  0  0
   -6.4498   -2.6322    1.1419 C   0  0  0  0  0  0  0  0  0  0  0  0
   -7.8481   -3.1123    0.7174 C   0  0  0  0  0  0  0  0  0  0  0  0
   -8.1750   -4.3833    1.4386 C   0  0  0  0  0  0  0  0  0  0  0  0
   -8.1367   -4.1943    2.8002 O   0  0  0  0  0  0  0  0  0  0  0  0
   -9.0266   -3.2518    3.2280 C   0  0  0  0  0  0  0  0  0  0  0  0
   -6.4320    0.7380    0.0520 C   0  0  0  0  0  0  0  0  0  0  0  0
   -6.0132    1.8514   -0.5842 C   0  0  0  0  0  0  0  0  0  0  0  0
  -10.1097    4.5113    0.5930 H   0  0  0  0  0  0  0  0  0  0  0  0
   -9.8275    6.1860   -0.1167 H   0  0  0  0  0  0  0  0  0  0  0  0
   -9.1460    5.7274    1.4913 H   0  0  0  0  0  0  0  0  0  0  0  0
   -7.6246    5.5796   -0.7432 H   0  0  0  0  0  0  0  0  0  0  0  0
   -5.9394    4.9103   -1.6260 H   0  0  0  0  0  0  0  0  0  0  0  0
   -3.8972    3.4468   -2.4990 H   0  0  0  0  0  0  0  0  0  0  0  0
   -3.2332    0.7312   -2.0584 H   0  0  0  0  0  0  0  0  0  0  0  0
   -3.8371   -2.5534   -3.3076 H   0  0  0  0  0  0  0  0  0  0  0  0
   -1.8499   -2.8605   -4.6629 H   0  0  0  0  0  0  0  0  0  0  0  0
    1.7610   -1.5834   -2.2511 H   0  0  0  0  0  0  0  0  0  0  0  0
    3.1981    0.0155   -2.0830 H   0  0  0  0  0  0  0  0  0  0  0  0
    5.5849    0.3501   -1.7960 H   0  0  0  0  0  0  0  0  0  0  0  0
    5.3227   -0.8374    2.2620 H   0  0  0  0  0  0  0  0  0  0  0  0
    2.8627   -1.1815    1.9480 H   0  0  0  0  0  0  0  0  0  0  0  0
    7.4482    0.6092   -0.4495 H   0  0  0  0  0  0  0  0  0  0  0  0
    7.6446   -1.9804    1.1239 H   0  0  0  0  0  0  0  0  0  0  0  0
    7.5891   -1.7522   -0.6614 H   0  0  0  0  0  0  0  0  0  0  0  0
    9.7954   -1.2234   -0.7558 H   0  0  0  0  0  0  0  0  0  0  0  0
    9.8773   -1.5800    0.9799 H   0  0  0  0  0  0  0  0  0  0  0  0
    9.3648    0.2826    2.5451 H   0  0  0  0  0  0  0  0  0  0  0  0
    9.3045    1.9276    1.8784 H   0  0  0  0  0  0  0  0  0  0  0  0
    7.0575    1.7771    1.5911 H   0  0  0  0  0  0  0  0  0  0  0  0
    7.0918    0.2860    2.5937 H   0  0  0  0  0  0  0  0  0  0  0  0
   11.5963    0.7458    0.2035 H   0  0  0  0  0  0  0  0  0  0  0  0
   11.2434    0.3192   -2.0924 H   0  0  0  0  0  0  0  0  0  0  0  0
    9.4866    0.5102   -1.9386 H   0  0  0  0  0  0  0  0  0  0  0  0
   10.4794    1.9636   -2.1559 H   0  0  0  0  0  0  0  0  0  0  0  0
   11.1219    3.0978   -0.6089 H   0  0  0  0  0  0  0  0  0  0  0  0
   11.0128    2.8441    1.1371 H   0  0  0  0  0  0  0  0  0  0  0  0
    9.4759    2.9640    0.1199 H   0  0  0  0  0  0  0  0  0  0  0  0
   -1.3756   -1.0779   -0.1535 H   0  0  0  0  0  0  0  0  0  0  0  0
   -6.4543   -2.5312    2.2794 H   0  0  0  0  0  0  0  0  0  0  0  0
   -5.7606   -3.5451    1.0127 H   0  0  0  0  0  0  0  0  0  0  0  0
   -7.7541   -3.3535   -0.3664 H   0  0  0  0  0  0  0  0  0  0  0  0
   -8.6247   -2.3586    0.9091 H   0  0  0  0  0  0  0  0  0  0  0  0
   -7.4418   -5.1539    1.1070 H   0  0  0  0  0  0  0  0  0  0  0  0
   -9.1924   -4.7611    1.1539 H   0  0  0  0  0  0  0  0  0  0  0  0
  -10.0971   -3.4785    2.9768 H   0  0  0  0  0  0  0  0  0  0  0  0
   -8.8204   -2.2284    2.8916 H   0  0  0  0  0  0  0  0  0  0  0  0
   -8.9138   -3.2056    4.3503 H   0  0  0  0  0  0  0  0  0  0  0  0
   -7.3425    0.6870    0.6730 H   0  0  0  0  0  0  0  0  0  0  0  0
  1  2  1  0
  2  3  1  0
  3  4  2  0
  3  5  1  0
  5  6  1  0
  6  7  2  0
  7  8  1  0
  8  9  2  0
  9 10  1  0
 10 11  1  0
 11 12  1  0
 12 13  2  0
 13 14  1  0
 14 15  2  0
 15 16  1  0
 16 17  1  0
 17 18  1  0
 18 19  2  0
 18 20  1  0
 20 21  2  0
 21 22  1  0
 22 23  2  0
 23 24  1  0
 24 25  2  0
 23 26  1  0
 26 27  1  0
 27 28  1  0
 28 29  1  0
 29 30  1  0
 30 31  1  0
 29 32  1  0
 32 33  1  0
 32 34  1  0
 16 35  2  0
 10 36  2  0
 36 37  1  0
 37 38  1  0
 38 39  1  0
 39 40  1  0
 40 41  1  0
 41 42  1  0
 36 43  1  0
 43 44  2  0
 44  5  1  0
 44  8  1  0
 35 12  1  0
 25 20  1  0
 31 26  1  0
  1 45  1  0
  1 46  1  0
  1 47  1  0
  2 48  1  0
  6 49  1  0
  7 50  1  0
  9 51  1  0
 13 52  1  0
 14 53  1  0
 17 54  1  0
 21 55  1  0
 22 56  1  0
 24 57  1  0
 25 58  1  0
 26 59  1  0
 27 60  1  0
 27 61  1  0
 28 62  1  0
 28 63  1  0
 30 64  1  0
 30 65  1  0
 31 66  1  0
 31 67  1  0
 32 68  1  0
 33 69  1  0
 33 70  1  0
 33 71  1  0
 34 72  1  0
 34 73  1  0
 34 74  1  0
 35 75  1  0
 38 76  1  0
 38 77  1  0
 39 78  1  0
 39 79  1  0
 40 80  1  0
 40 81  1  0
 42 82  1  0
 42 83  1  0
 42 84  1  0
 43 85  1  0
M  END
$$$$
