[H]c1c([H])c([H])c(C([H])([H])[C@@]([H])(C(=O)N([H])[C@]([H])(C(=O)N([H])[C@]([H])(C(=O)N([H])[C@]([H])(C(=O)N([H])[C@]([H])(C([H])([H])[H])C([H])(C([H])([H])[H])C([H])([H])[H])C([H])([H])[H])C([H])([H])c2c([H])c([H])c([H])c([H])c2[H])C([H])([H])[H])N([H])C(=O)[C@@]([H])(N([H])C(=O)[C@@]([H])(N([H])C(=O)[C@@]([H])(N([H])C(=O)[C@@]([H])(N([H])C(=O)[C@@]([H])(N([H])C(=O)[C@@]([H])(N([H])C(=O)C([H])(C([H])([H])[H])C([H])([H])[H])C([H])([H])[H])C([H])([H])[H])C([H])([H])[H])C([H])([H])[H])C([H])([H])[H])C([H])([H])[H])c([H])c1[H]


 84 85  0  0  0  0  0  0  0  0999 V2000
   14.0657   24.2432    0.1153 N   0  0  0  0  0  0  0  0  0  0  0  0
   14.3794   22.8933    0.0691 C   0  0  0  0  0  0  0  0  0  0  0  0
   14.0412   22.2998   -1.0510 O   0  0  0  0  0  0  0  0  0  0  0  0
   14.2687   24.8537    0.9044 H   0  0  0  0  0  0  0  0  0  0  0  0
   15.0387   22.0257    1.1143 C   0  0  0  0  0  0  0  0  0  0  0  0
   16.4117   21.6417    0.8364 C   0  0  0  0  0  0  0  0  0  0  0  0
   14.1093   20.8536    1.1221 N   0  0  0  0  0  0  0  0  0  0  0  0
   12.8374   21.0108    1.6930 C   0  0  0  0  0  0  0  0  0  0  0  0
   12.5747   22.1844    2.2158 O   0  0  0  0  0  0  0  0  0  0  0  0
   14.4635   19.9903    0.6957 H   0  0  0  0  0  0  0  0  0  0  0  0
   11.7803   20.0195    1.7395 C   0  0  0  0  0  0  0  0  0  0  0  0
   10.9145   20.0523    0.4717 C   0  0  0  0  0  0  0  0  0  0  0  0
   10.9680   20.2371    2.9287 N   0  0  0  0  0  0  0  0  0  0  0  0
   11.1259   19.6226    4.1757 C   0  0  0  0  0  0  0  0  0  0  0  0
   12.0538   18.7771    4.2835 O   0  0  0  0  0  0  0  0  0  0  0  0
   10.1633   20.9453    2.8338 H   0  0  0  0  0  0  0  0  0  0  0  0
   10.2396   19.9427    5.3557 C   0  0  0  0  0  0  0  0  0  0  0  0
   10.5983   21.1666    6.0807 C   0  0  0  0  0  0  0  0  0  0  0  0
    9.9286   18.7836    6.1462 N   0  0  0  0  0  0  0  0  0  0  0  0
    8.7407   18.4391    6.7557 C   0  0  0  0  0  0  0  0  0  0  0  0
    7.6838   19.1368    6.6429 O   0  0  0  0  0  0  0  0  0  0  0  0
   10.7670   18.1070    6.2679 H   0  0  0  0  0  0  0  0  0  0  0  0
    8.5512   17.1965    7.6345 C   0  0  0  0  0  0  0  0  0  0  0  0
    8.2614   16.0711    6.7226 C   0  0  0  0  0  0  0  0  0  0  0  0
    7.3408   17.5152    8.4004 N   0  0  0  0  0  0  0  0  0  0  0  0
    7.3321   17.6784    9.7751 C   0  0  0  0  0  0  0  0  0  0  0  0
    8.4048   17.5008   10.4372 O   0  0  0  0  0  0  0  0  0  0  0  0
    6.4270   17.6342    7.8503 H   0  0  0  0  0  0  0  0  0  0  0  0
    6.1138   18.0634   10.5066 C   0  0  0  0  0  0  0  0  0  0  0  0
    6.3789   19.4191   11.1980 C   0  0  0  0  0  0  0  0  0  0  0  0
    5.7523   17.1471   11.5817 N   0  0  0  0  0  0  0  0  0  0  0  0
    5.5740   15.7829   11.4256 C   0  0  0  0  0  0  0  0  0  0  0  0
    5.7544   15.2932   10.2535 O   0  0  0  0  0  0  0  0  0  0  0  0
    5.6161   17.5785   12.5328 H   0  0  0  0  0  0  0  0  0  0  0  0
    5.1846   14.8311   12.5118 C   0  0  0  0  0  0  0  0  0  0  0  0
    6.3250   14.3589   13.3548 C   0  0  0  0  0  0  0  0  0  0  0  0
    4.3192   13.7795   12.0458 N   0  0  0  0  0  0  0  0  0  0  0  0
    3.2946   13.1747   12.8093 C   0  0  0  0  0  0  0  0  0  0  0  0
    3.1098   13.5569   13.9787 O   0  0  0  0  0  0  0  0  0  0  0  0
    4.4247   13.4030   11.0524 H   0  0  0  0  0  0  0  0  0  0  0  0
    2.4434   12.1115   12.2550 C   0  0  0  0  0  0  0  0  0  0  0  0
    1.2669   11.9283   13.1553 C   0  0  0  0  0  0  0  0  0  0  0  0
    1.9978   12.4353   10.8249 C   0  0  0  0  0  0  0  0  0  0  0  0
   13.3790   24.7867   -1.0677 C   0  0  0  0  0  0  0  0  0  0  0  0
   11.3807   23.9525    0.0819 N   0  0  0  0  0  0  0  0  0  0  0  0
   11.9553   24.5679   -1.0420 C   0  0  0  0  0  0  0  0  0  0  0  0
   11.2853   24.9369   -2.0440 O   0  0  0  0  0  0  0  0  0  0  0  0
   12.0305   23.6591    0.8711 H   0  0  0  0  0  0  0  0  0  0  0  0
    9.9531   23.6836    0.2060 C   0  0  0  0  0  0  0  0  0  0  0  0
    9.5389   22.3725   -0.3054 C   0  0  0  0  0  0  0  0  0  0  0  0
    8.7759   23.2698    2.4828 N   0  0  0  0  0  0  0  0  0  0  0  0
    9.6909   23.9235    1.6729 C   0  0  0  0  0  0  0  0  0  0  0  0
   10.4642   24.8414    2.1192 O   0  0  0  0  0  0  0  0  0  0  0  0
    9.2605   23.9940    3.5633 H   0  0  0  0  0  0  0  0  0  0  0  0
    7.9084   22.6753    3.3512 C   0  0  0  0  0  0  0  0  0  0  0  0
    6.1742   21.3961    2.0121 N   0  0  0  0  0  0  0  0  0  0  0  0
    7.2317   21.4197    2.8524 C   0  0  0  0  0  0  0  0  0  0  0  0
    7.7847   20.3584    3.3069 O   0  0  0  0  0  0  0  0  0  0  0  0
    5.9341   22.4152    1.6048 H   0  0  0  0  0  0  0  0  0  0  0  0
    5.3466   20.4223    1.4379 C   0  0  0  0  0  0  0  0  0  0  0  0
    4.4545   19.8032    2.4836 C   0  0  0  0  0  0  0  0  0  0  0  0
    3.7850   19.6031   -0.2935 N   0  0  0  0  0  0  0  0  0  0  0  0
    4.6124   20.6486    0.2008 C   0  0  0  0  0  0  0  0  0  0  0  0
    4.6597   21.6976   -0.4621 O   0  0  0  0  0  0  0  0  0  0  0  0
    3.7017   18.7059    0.1844 H   0  0  0  0  0  0  0  0  0  0  0  0
    3.0704   19.8058   -1.5294 C   0  0  0  0  0  0  0  0  0  0  0  0
    1.5546   19.5104   -1.2968 C   0  0  0  0  0  0  0  0  0  0  0  0
    2.4354   18.2029   -3.3080 C   0  0  0  0  0  0  0  0  0  0  0  0
    3.5741   18.9401   -2.6346 C   0  0  0  0  0  0  0  0  0  0  0  0
    4.3852   19.7552   -3.6331 C   0  0  0  0  0  0  0  0  0  0  0  0
    7.1247   23.6605    4.1170 C   0  0  0  0  0  0  0  0  0  0  0  0
    7.4349   25.0731    4.1093 C   0  0  0  0  0  0  0  0  0  0  0  0
    8.5630   25.6417    4.6119 C   0  0  0  0  0  0  0  0  0  0  0  0
    8.8015   27.0041    4.5907 C   0  0  0  0  0  0  0  0  0  0  0  0
    7.8458   27.8262    4.0325 C   0  0  0  0  0  0  0  0  0  0  0  0
    6.6987   27.2679    3.5191 C   0  0  0  0  0  0  0  0  0  0  0  0
    6.4660   25.9348    3.5381 C   0  0  0  0  0  0  0  0  0  0  0  0
   14.1766   24.3304   -2.2792 C   0  0  0  0  0  0  0  0  0  0  0  0
   14.8103   25.3467   -3.0790 C   0  0  0  0  0  0  0  0  0  0  0  0
   14.2656   25.8657   -4.2131 C   0  0  0  0  0  0  0  0  0  0  0  0
   14.8500   26.8291   -4.9668 C   0  0  0  0  0  0  0  0  0  0  0  0
   16.0894   27.3739   -4.6149 C   0  0  0  0  0  0  0  0  0  0  0  0
   16.6648   26.8741   -3.4775 C   0  0  0  0  0  0  0  0  0  0  0  0
   16.0496   25.8954   -2.7329 C   0  0  0  0  0  0  0  0  0  0  0  0
 68 69  1  0  0  0
 69 70  1  0  0  0
 69 66  1  0  0  0
 66 62  1  0  0  0
 62 63  1  0  0  0
 63 64  2  0  0  0
 63 60  1  0  0  0
 60 61  1  0  0  0
 60 56  1  0  0  0
 56 57  1  0  0  0
 57 58  2  0  0  0
 57 55  1  0  0  0
 55 71  1  0  0  0
 71 72  1  0  0  0
 72 73  2  0  0  0
 73 74  1  0  0  0
 74 75  2  0  0  0
 75 76  1  0  0  0
 76 77  2  0  0  0
 55 51  1  0  0  0
 51 52  1  0  0  0
 52 53  2  0  0  0
 52 49  1  0  0  0
 49 50  1  0  0  0
 49 45  1  0  0  0
 45 46  1  0  0  0
 46 47  2  0  0  0
 46 44  1  0  0  0
 44 78  1  0  0  0
 78 79  1  0  0  0
 79 80  2  0  0  0
 80 81  1  0  0  0
 81 82  2  0  0  0
 82 83  1  0  0  0
 83 84  2  0  0  0
 44  1  1  0  0  0
  1  2  1  0  0  0
  2  3  2  0  0  0
  2  5  1  0  0  0
  5  6  1  0  0  0
  5  7  1  0  0  0
  7  8  1  0  0  0
  8  9  2  0  0  0
  8 11  1  0  0  0
 11 12  1  0  0  0
 11 13  1  0  0  0
 13 14  1  0  0  0
 14 15  2  0  0  0
 14 17  1  0  0  0
 17 18  1  0  0  0
 17 19  1  0  0  0
 19 20  1  0  0  0
 20 21  2  0  0  0
 20 23  1  0  0  0
 23 24  1  0  0  0
 23 25  1  0  0  0
 25 26  1  0  0  0
 26 27  2  0  0  0
 26 29  1  0  0  0
 29 30  1  0  0  0
 29 31  1  0  0  0
 31 32  1  0  0  0
 32 33  2  0  0  0
 32 35  1  0  0  0
 35 36  1  0  0  0
 35 37  1  0  0  0
 37 38  1  0  0  0
 38 39  2  0  0  0
 38 41  1  0  0  0
 41 42  1  0  0  0
 41 43  1  0  0  0
 66 67  1  0  0  0
 77 72  1  0  0  0
 84 79  1  0  0  0
 62 65  1  0  0  0
 56 59  1  0  0  0
 51 54  1  0  0  0
 45 48  1  0  0  0
  1  4  1  0  0  0
  7 10  1  0  0  0
 13 16  1  0  0  0
 19 22  1  0  0  0
 25 28  1  0  0  0
 31 34  1  0  0  0
 37 40  1  0  0  0
M  END
> <minimizedAffinity>
-8.70275

> <CNNscore>
0.4610944390

> <CNNaffinity>
8.0204124451

> <CNN_VS>
3.6981675625

> <CNNaffinity_variance>
0.1510789096

$$$$
[H]c1c([H])c([H])c(C([H])([H])[C@@]([H])(C(=O)N([H])[C@]([H])(C(=O)N([H])[C@]([H])(C(=O)N([H])[C@]([H])(C(=O)N([H])[C@]([H])(C([H])([H])[H])C([H])(C([H])([H])[H])C([H])([H])[H])C([H])([H])[H])C([H])([H])c2c([H])c([H])c([H])c([H])c2[H])C([H])([H])[H])N([H])C(=O)[C@@]([H])(N([H])C(=O)[C@@]([H])(N([H])C(=O)[C@@]([H])(N([H])C(=O)[C@@]([H])(N([H])C(=O)[C@@]([H])(N([H])C(=O)[C@@]([H])(N([H])C(=O)C([H])(C([H])([H])[H])C([H])([H])[H])C([H])([H])[H])C([H])([H])[H])C([H])([H])[H])C([H])([H])[H])C([H])([H])[H])C([H])([H])[H])c([H])c1[H]


 84 85  0  0  0  0  0  0  0  0999 V2000
    6.9643   18.0207    5.6416 N   0  0  0  0  0  0  0  0  0  0  0  0
    5.8190   18.4262    6.3099 C   0  0  0  0  0  0  0  0  0  0  0  0
    6.0466   19.1725    7.3646 O   0  0  0  0  0  0  0  0  0  0  0  0
    6.9661   17.4480    4.7998 H   0  0  0  0  0  0  0  0  0  0  0  0
    4.3716   18.1271    6.0007 C   0  0  0  0  0  0  0  0  0  0  0  0
    3.6805   17.2979    6.9727 C   0  0  0  0  0  0  0  0  0  0  0  0
    4.5098   17.4536    4.6722 N   0  0  0  0  0  0  0  0  0  0  0  0
    3.3585   17.2673    3.8925 C   0  0  0  0  0  0  0  0  0  0  0  0
    2.2275   17.6740    4.4173 O   0  0  0  0  0  0  0  0  0  0  0  0
    5.4581   17.1683    4.4041 H   0  0  0  0  0  0  0  0  0  0  0  0
    3.2970   16.6971    2.5608 C   0  0  0  0  0  0  0  0  0  0  0  0
    4.6935   16.3428    2.0295 C   0  0  0  0  0  0  0  0  0  0  0  0
    2.6231   17.6299    1.6681 N   0  0  0  0  0  0  0  0  0  0  0  0
    2.9505   18.9737    1.4573 C   0  0  0  0  0  0  0  0  0  0  0  0
    3.9165   19.4380    2.1199 O   0  0  0  0  0  0  0  0  0  0  0  0
    1.7862   17.2406    1.1147 H   0  0  0  0  0  0  0  0  0  0  0  0
    2.1981   19.8489    0.4834 C   0  0  0  0  0  0  0  0  0  0  0  0
    0.9536   19.2675   -0.0318 C   0  0  0  0  0  0  0  0  0  0  0  0
    3.0627   20.4887   -0.4696 N   0  0  0  0  0  0  0  0  0  0  0  0
    3.9368   19.9192   -1.3712 C   0  0  0  0  0  0  0  0  0  0  0  0
    4.0568   18.6610   -1.5098 O   0  0  0  0  0  0  0  0  0  0  0  0
    3.0014   21.5710   -0.4488 H   0  0  0  0  0  0  0  0  0  0  0  0
    4.8609   20.7181   -2.2985 C   0  0  0  0  0  0  0  0  0  0  0  0
    4.8759   20.0112   -3.5955 C   0  0  0  0  0  0  0  0  0  0  0  0
    6.1742   20.5739   -1.6601 N   0  0  0  0  0  0  0  0  0  0  0  0
    6.4774   21.1030   -0.4173 C   0  0  0  0  0  0  0  0  0  0  0  0
    5.6066   21.7948    0.2022 O   0  0  0  0  0  0  0  0  0  0  0  0
    6.9225   20.0189   -2.1928 H   0  0  0  0  0  0  0  0  0  0  0  0
    7.7839   20.8842    0.2254 C   0  0  0  0  0  0  0  0  0  0  0  0
    7.8369   21.7450    1.5070 C   0  0  0  0  0  0  0  0  0  0  0  0
    8.9208   21.3188   -0.5776 N   0  0  0  0  0  0  0  0  0  0  0  0
   10.1937   20.7804   -0.4945 C   0  0  0  0  0  0  0  0  0  0  0  0
   10.3775   19.8226    0.3392 O   0  0  0  0  0  0  0  0  0  0  0  0
    8.7369   22.1031   -1.2560 H   0  0  0  0  0  0  0  0  0  0  0  0
   11.3757   21.2258   -1.2956 C   0  0  0  0  0  0  0  0  0  0  0  0
   12.6664   20.5861   -0.8966 C   0  0  0  0  0  0  0  0  0  0  0  0
   11.4444   22.6567   -1.4369 N   0  0  0  0  0  0  0  0  0  0  0  0
   11.8563   23.5525   -0.4239 C   0  0  0  0  0  0  0  0  0  0  0  0
   12.1834   23.0966    0.6865 O   0  0  0  0  0  0  0  0  0  0  0  0
   11.1758   23.1145   -2.3632 H   0  0  0  0  0  0  0  0  0  0  0  0
   11.9106   25.0042   -0.6518 C   0  0  0  0  0  0  0  0  0  0  0  0
   12.7428   25.6220    0.4224 C   0  0  0  0  0  0  0  0  0  0  0  0
   12.4682   25.3355   -2.0402 C   0  0  0  0  0  0  0  0  0  0  0  0
    8.2420   18.4533    6.2304 C   0  0  0  0  0  0  0  0  0  0  0  0
   10.3474   19.5764    5.6681 N   0  0  0  0  0  0  0  0  0  0  0  0
    9.0061   19.3038    5.3540 C   0  0  0  0  0  0  0  0  0  0  0  0
    8.4263   19.7747    4.3385 O   0  0  0  0  0  0  0  0  0  0  0  0
   10.7438   19.1481    6.5572 H   0  0  0  0  0  0  0  0  0  0  0  0
   11.2054   20.4253    4.8501 C   0  0  0  0  0  0  0  0  0  0  0  0
   11.5768   19.8408    3.5568 C   0  0  0  0  0  0  0  0  0  0  0  0
    9.7940   22.3753    5.8230 N   0  0  0  0  0  0  0  0  0  0  0  0
   10.4329   21.7202    4.7823 C   0  0  0  0  0  0  0  0  0  0  0  0
   10.4462   22.1847    3.5890 O   0  0  0  0  0  0  0  0  0  0  0  0
    9.4863   23.4058    4.9454 H   0  0  0  0  0  0  0  0  0  0  0  0
    9.1453   23.0881    6.7879 C   0  0  0  0  0  0  0  0  0  0  0  0
    9.5007   23.2085    9.2972 N   0  0  0  0  0  0  0  0  0  0  0  0
    9.1954   22.5088    8.1827 C   0  0  0  0  0  0  0  0  0  0  0  0
    8.8986   21.2637    8.2007 O   0  0  0  0  0  0  0  0  0  0  0  0
    9.5770   24.3114    9.0972 H   0  0  0  0  0  0  0  0  0  0  0  0
    9.6605   22.9374   10.6624 C   0  0  0  0  0  0  0  0  0  0  0  0
   10.3657   24.0791   11.3492 C   0  0  0  0  0  0  0  0  0  0  0  0
    7.4319   21.8850   10.8463 N   0  0  0  0  0  0  0  0  0  0  0  0
    8.5783   22.4251   11.4913 C   0  0  0  0  0  0  0  0  0  0  0  0
    8.5827   22.4290   12.7331 O   0  0  0  0  0  0  0  0  0  0  0  0
    7.3444   21.8572    9.8305 H   0  0  0  0  0  0  0  0  0  0  0  0
    6.3435   21.3954   11.6553 C   0  0  0  0  0  0  0  0  0  0  0  0
    6.1036   19.8870   11.3292 C   0  0  0  0  0  0  0  0  0  0  0  0
    5.0326   23.3973   12.2952 C   0  0  0  0  0  0  0  0  0  0  0  0
    5.0768   22.1514   11.4354 C   0  0  0  0  0  0  0  0  0  0  0  0
    4.8920   22.4794    9.9597 C   0  0  0  0  0  0  0  0  0  0  0  0
    7.8858   23.6733    6.2957 C   0  0  0  0  0  0  0  0  0  0  0  0
    7.8522   24.6833    5.2609 C   0  0  0  0  0  0  0  0  0  0  0  0
    7.7351   24.4501    3.9265 C   0  0  0  0  0  0  0  0  0  0  0  0
    7.7233   25.4565    2.9776 C   0  0  0  0  0  0  0  0  0  0  0  0
    7.8372   26.7615    3.4076 C   0  0  0  0  0  0  0  0  0  0  0  0
    7.9563   27.0156    4.7538 C   0  0  0  0  0  0  0  0  0  0  0  0
    7.9661   26.0312    5.6826 C   0  0  0  0  0  0  0  0  0  0  0  0
    8.8956   17.2083    6.8094 C   0  0  0  0  0  0  0  0  0  0  0  0
    8.4464   16.7623    8.1030 C   0  0  0  0  0  0  0  0  0  0  0  0
    7.7197   15.6290    8.3019 C   0  0  0  0  0  0  0  0  0  0  0  0
    7.3008   15.1963    9.5164 C   0  0  0  0  0  0  0  0  0  0  0  0
    7.6012   15.9068   10.6833 C   0  0  0  0  0  0  0  0  0  0  0  0
    8.3328   17.0523   10.5183 C   0  0  0  0  0  0  0  0  0  0  0  0
    8.7431   17.4683    9.2736 C   0  0  0  0  0  0  0  0  0  0  0  0
 68 69  1  0  0  0
 69 70  1  0  0  0
 69 66  1  0  0  0
 66 62  1  0  0  0
 62 63  1  0  0  0
 63 64  2  0  0  0
 63 60  1  0  0  0
 60 61  1  0  0  0
 60 56  1  0  0  0
 56 57  1  0  0  0
 57 58  2  0  0  0
 57 55  1  0  0  0
 55 71  1  0  0  0
 71 72  1  0  0  0
 72 73  2  0  0  0
 73 74  1  0  0  0
 74 75  2  0  0  0
 75 76  1  0  0  0
 76 77  2  0  0  0
 55 51  1  0  0  0
 51 52  1  0  0  0
 52 53  2  0  0  0
 52 49  1  0  0  0
 49 50  1  0  0  0
 49 45  1  0  0  0
 45 46  1  0  0  0
 46 47  2  0  0  0
 46 44  1  0  0  0
 44 78  1  0  0  0
 78 79  1  0  0  0
 79 80  2  0  0  0
 80 81  1  0  0  0
 81 82  2  0  0  0
 82 83  1  0  0  0
 83 84  2  0  0  0
 44  1  1  0  0  0
  1  2  1  0  0  0
  2  3  2  0  0  0
  2  5  1  0  0  0
  5  6  1  0  0  0
  5  7  1  0  0  0
  7  8  1  0  0  0
  8  9  2  0  0  0
  8 11  1  0  0  0
 11 12  1  0  0  0
 11 13  1  0  0  0
 13 14  1  0  0  0
 14 15  2  0  0  0
 14 17  1  0  0  0
 17 18  1  0  0  0
 17 19  1  0  0  0
 19 20  1  0  0  0
 20 21  2  0  0  0
 20 23  1  0  0  0
 23 24  1  0  0  0
 23 25  1  0  0  0
 25 26  1  0  0  0
 26 27  2  0  0  0
 26 29  1  0  0  0
 29 30  1  0  0  0
 29 31  1  0  0  0
 31 32  1  0  0  0
 32 33  2  0  0  0
 32 35  1  0  0  0
 35 36  1  0  0  0
 35 37  1  0  0  0
 37 38  1  0  0  0
 38 39  2  0  0  0
 38 41  1  0  0  0
 41 42  1  0  0  0
 41 43  1  0  0  0
 66 67  1  0  0  0
 77 72  1  0  0  0
 84 79  1  0  0  0
 62 65  1  0  0  0
 56 59  1  0  0  0
 51 54  1  0  0  0
 45 48  1  0  0  0
  1  4  1  0  0  0
  7 10  1  0  0  0
 13 16  1  0  0  0
 19 22  1  0  0  0
 25 28  1  0  0  0
 31 34  1  0  0  0
 37 40  1  0  0  0
M  END
> <minimizedAffinity>
-8.12425

> <CNNscore>
0.1577242613

> <CNNaffinity>
7.3305177689

> <CNN_VS>
1.1562005281

> <CNNaffinity_variance>
3.9275944233

$$$$
[H]c1c([H])c([H])c(C([H])([H])[C@@]([H])(C(=O)N([H])[C@]([H])(C(=O)N([H])[C@]([H])(C(=O)N([H])[C@]([H])(C(=O)N([H])[C@]([H])(C([H])([H])[H])C([H])(C([H])([H])[H])C([H])([H])[H])C([H])([H])[H])C([H])([H])c2c([H])c([H])c([H])c([H])c2[H])C([H])([H])[H])N([H])C(=O)[C@@]([H])(N([H])C(=O)[C@@]([H])(N([H])C(=O)[C@@]([H])(N([H])C(=O)[C@@]([H])(N([H])C(=O)[C@@]([H])(N([H])C(=O)[C@@]([H])(N([H])C(=O)C([H])(C([H])([H])[H])C([H])([H])[H])C([H])([H])[H])C([H])([H])[H])C([H])([H])[H])C([H])([H])[H])C([H])([H])[H])C([H])([H])[H])c([H])c1[H]


 84 85  0  0  0  0  0  0  0  0999 V2000
    4.8064   16.5617    4.0977 N   0  0  0  0  0  0  0  0  0  0  0  0
    5.1832   17.0554    2.8580 C   0  0  0  0  0  0  0  0  0  0  0  0
    5.9182   18.1407    2.9112 O   0  0  0  0  0  0  0  0  0  0  0  0
    4.2458   15.7232    4.2362 H   0  0  0  0  0  0  0  0  0  0  0  0
    4.8641   16.5294    1.4790 C   0  0  0  0  0  0  0  0  0  0  0  0
    5.9985   16.0370    0.7170 C   0  0  0  0  0  0  0  0  0  0  0  0
    4.2451   17.7426    0.8605 N   0  0  0  0  0  0  0  0  0  0  0  0
    2.8506   17.7819    0.7127 C   0  0  0  0  0  0  0  0  0  0  0  0
    2.1933   16.7164    1.1032 O   0  0  0  0  0  0  0  0  0  0  0  0
    4.8906   18.4897    0.5816 H   0  0  0  0  0  0  0  0  0  0  0  0
    2.0647   18.8867    0.1986 C   0  0  0  0  0  0  0  0  0  0  0  0
    0.7424   18.4055   -0.4163 C   0  0  0  0  0  0  0  0  0  0  0  0
    2.8532   19.6253   -0.7780 N   0  0  0  0  0  0  0  0  0  0  0  0
    3.3175   20.9397   -0.6593 C   0  0  0  0  0  0  0  0  0  0  0  0
    3.0090   21.5628    0.3915 O   0  0  0  0  0  0  0  0  0  0  0  0
    3.1024   19.1013   -1.6845 H   0  0  0  0  0  0  0  0  0  0  0  0
    4.1545   21.6038   -1.7264 C   0  0  0  0  0  0  0  0  0  0  0  0
    3.4309   21.9350   -2.9589 C   0  0  0  0  0  0  0  0  0  0  0  0
    5.4492   20.9977   -1.8730 N   0  0  0  0  0  0  0  0  0  0  0  0
    6.5311   21.0390   -1.0193 C   0  0  0  0  0  0  0  0  0  0  0  0
    6.4935   21.6248    0.1086 O   0  0  0  0  0  0  0  0  0  0  0  0
    5.5630   20.4419   -2.7970 H   0  0  0  0  0  0  0  0  0  0  0  0
    7.8923   20.3998   -1.3208 C   0  0  0  0  0  0  0  0  0  0  0  0
    7.8184   19.0011   -0.8515 C   0  0  0  0  0  0  0  0  0  0  0  0
    8.8081   21.1480   -0.4522 N   0  0  0  0  0  0  0  0  0  0  0  0
    9.9986   21.6974   -0.8965 C   0  0  0  0  0  0  0  0  0  0  0  0
   10.3638   21.5176   -2.1027 O   0  0  0  0  0  0  0  0  0  0  0  0
    8.5203   21.2748    0.5739 H   0  0  0  0  0  0  0  0  0  0  0  0
   10.8636   22.4994   -0.0155 C   0  0  0  0  0  0  0  0  0  0  0  0
   10.0643   23.7406    0.4394 C   0  0  0  0  0  0  0  0  0  0  0  0
   12.0536   23.0274   -0.6723 N   0  0  0  0  0  0  0  0  0  0  0  0
   13.2683   23.2431   -0.0438 C   0  0  0  0  0  0  0  0  0  0  0  0
   13.3518   22.9427    1.2008 O   0  0  0  0  0  0  0  0  0  0  0  0
   11.9548   23.2595   -1.6948 H   0  0  0  0  0  0  0  0  0  0  0  0
   14.4931   23.8015   -0.6960 C   0  0  0  0  0  0  0  0  0  0  0  0
   15.5957   24.1421    0.2540 C   0  0  0  0  0  0  0  0  0  0  0  0
   14.1925   24.8381   -1.6484 N   0  0  0  0  0  0  0  0  0  0  0  0
   14.9826   25.1563   -2.7767 C   0  0  0  0  0  0  0  0  0  0  0  0
   16.0263   24.5112   -2.9820 O   0  0  0  0  0  0  0  0  0  0  0  0
   13.3127   25.4313   -1.5309 H   0  0  0  0  0  0  0  0  0  0  0  0
   14.5995   26.2248   -3.7114 C   0  0  0  0  0  0  0  0  0  0  0  0
   14.9995   25.8149   -5.0898 C   0  0  0  0  0  0  0  0  0  0  0  0
   13.0983   26.5244   -3.6392 C   0  0  0  0  0  0  0  0  0  0  0  0
    5.2522   17.3402    5.2646 C   0  0  0  0  0  0  0  0  0  0  0  0
    7.5036   18.2269    5.6586 N   0  0  0  0  0  0  0  0  0  0  0  0
    6.6386   17.1228    5.5899 C   0  0  0  0  0  0  0  0  0  0  0  0
    7.0163   15.9374    5.7930 O   0  0  0  0  0  0  0  0  0  0  0  0
    7.0962   19.1876    5.4530 H   0  0  0  0  0  0  0  0  0  0  0  0
    8.9221   18.1151    5.9768 C   0  0  0  0  0  0  0  0  0  0  0  0
    9.7432   19.2210    5.4719 C   0  0  0  0  0  0  0  0  0  0  0  0
    8.1475   18.6198    8.4030 N   0  0  0  0  0  0  0  0  0  0  0  0
    8.9187   17.9373    7.4756 C   0  0  0  0  0  0  0  0  0  0  0  0
    9.7444   17.0201    7.8171 O   0  0  0  0  0  0  0  0  0  0  0  0
    8.6797   17.8099    9.3967 H   0  0  0  0  0  0  0  0  0  0  0  0
    7.4246   19.2370    9.3810 C   0  0  0  0  0  0  0  0  0  0  0  0
    6.6608   21.6351    9.7018 N   0  0  0  0  0  0  0  0  0  0  0  0
    7.6435   20.7253    9.5242 C   0  0  0  0  0  0  0  0  0  0  0  0
    8.8835   21.0394    9.4729 O   0  0  0  0  0  0  0  0  0  0  0  0
    5.6620   21.1512    9.8756 H   0  0  0  0  0  0  0  0  0  0  0  0
    6.5666   23.0281    9.8178 C   0  0  0  0  0  0  0  0  0  0  0  0
    5.1357   23.4762    9.6611 C   0  0  0  0  0  0  0  0  0  0  0  0
    8.6465   23.8591   10.8623 N   0  0  0  0  0  0  0  0  0  0  0  0
    7.2274   23.7722   10.8810 C   0  0  0  0  0  0  0  0  0  0  0  0
    6.6354   24.3391   11.8139 O   0  0  0  0  0  0  0  0  0  0  0  0
    9.2075   23.4103   10.1383 H   0  0  0  0  0  0  0  0  0  0  0  0
    9.3145   24.5736   11.9216 C   0  0  0  0  0  0  0  0  0  0  0  0
    9.5919   26.0377   11.4540 C   0  0  0  0  0  0  0  0  0  0  0  0
   11.7758   24.8388   12.0090 C   0  0  0  0  0  0  0  0  0  0  0  0
   10.6014   23.9361   12.3242 C   0  0  0  0  0  0  0  0  0  0  0  0
   10.5731   23.5426   13.7952 C   0  0  0  0  0  0  0  0  0  0  0  0
    7.3042   18.4066   10.5922 C   0  0  0  0  0  0  0  0  0  0  0  0
    7.3065   16.9611   10.5448 C   0  0  0  0  0  0  0  0  0  0  0  0
    8.2655   16.1506   11.0664 C   0  0  0  0  0  0  0  0  0  0  0  0
    8.2240   14.7706   10.9788 C   0  0  0  0  0  0  0  0  0  0  0  0
    7.1564   14.1890   10.3286 C   0  0  0  0  0  0  0  0  0  0  0  0
    6.1772   14.9938    9.7952 C   0  0  0  0  0  0  0  0  0  0  0  0
    6.2167   16.3438    9.8824 C   0  0  0  0  0  0  0  0  0  0  0  0
    4.1988   17.1447    6.3438 C   0  0  0  0  0  0  0  0  0  0  0  0
    3.6124   18.3261    6.9220 C   0  0  0  0  0  0  0  0  0  0  0  0
    2.5039   18.9406    6.4261 C   0  0  0  0  0  0  0  0  0  0  0  0
    1.9393   20.0470    6.9691 C   0  0  0  0  0  0  0  0  0  0  0  0
    2.4736   20.6469    8.1143 C   0  0  0  0  0  0  0  0  0  0  0  0
    3.5894   20.0523    8.6397 C   0  0  0  0  0  0  0  0  0  0  0  0
    4.1418   18.9310    8.0668 C   0  0  0  0  0  0  0  0  0  0  0  0
 68 69  1  0  0  0
 69 70  1  0  0  0
 69 66  1  0  0  0
 66 62  1  0  0  0
 62 63  1  0  0  0
 63 64  2  0  0  0
 63 60  1  0  0  0
 60 61  1  0  0  0
 60 56  1  0  0  0
 56 57  1  0  0  0
 57 58  2  0  0  0
 57 55  1  0  0  0
 55 71  1  0  0  0
 71 72  1  0  0  0
 72 73  2  0  0  0
 73 74  1  0  0  0
 74 75  2  0  0  0
 75 76  1  0  0  0
 76 77  2  0  0  0
 55 51  1  0  0  0
 51 52  1  0  0  0
 52 53  2  0  0  0
 52 49  1  0  0  0
 49 50  1  0  0  0
 49 45  1  0  0  0
 45 46  1  0  0  0
 46 47  2  0  0  0
 46 44  1  0  0  0
 44 78  1  0  0  0
 78 79  1  0  0  0
 79 80  2  0  0  0
 80 81  1  0  0  0
 81 82  2  0  0  0
 82 83  1  0  0  0
 83 84  2  0  0  0
 44  1  1  0  0  0
  1  2  1  0  0  0
  2  3  2  0  0  0
  2  5  1  0  0  0
  5  6  1  0  0  0
  5  7  1  0  0  0
  7  8  1  0  0  0
  8  9  2  0  0  0
  8 11  1  0  0  0
 11 12  1  0  0  0
 11 13  1  0  0  0
 13 14  1  0  0  0
 14 15  2  0  0  0
 14 17  1  0  0  0
 17 18  1  0  0  0
 17 19  1  0  0  0
 19 20  1  0  0  0
 20 21  2  0  0  0
 20 23  1  0  0  0
 23 24  1  0  0  0
 23 25  1  0  0  0
 25 26  1  0  0  0
 26 27  2  0  0  0
 26 29  1  0  0  0
 29 30  1  0  0  0
 29 31  1  0  0  0
 31 32  1  0  0  0
 32 33  2  0  0  0
 32 35  1  0  0  0
 35 36  1  0  0  0
 35 37  1  0  0  0
 37 38  1  0  0  0
 38 39  2  0  0  0
 38 41  1  0  0  0
 41 42  1  0  0  0
 41 43  1  0  0  0
 66 67  1  0  0  0
 77 72  1  0  0  0
 84 79  1  0  0  0
 62 65  1  0  0  0
 56 59  1  0  0  0
 51 54  1  0  0  0
 45 48  1  0  0  0
  1  4  1  0  0  0
  7 10  1  0  0  0
 13 16  1  0  0  0
 19 22  1  0  0  0
 25 28  1  0  0  0
 31 34  1  0  0  0
 37 40  1  0  0  0
M  END
> <minimizedAffinity>
-8.13457

> <CNNscore>
0.1353205740

> <CNNaffinity>
7.2367582321

> <CNN_VS>
0.9792822599

> <CNNaffinity_variance>
1.0728687048

$$$$
[H]c1c([H])c([H])c(C([H])([H])[C@@]([H])(C(=O)N([H])[C@]([H])(C(=O)N([H])[C@]([H])(C(=O)N([H])[C@]([H])(C(=O)N([H])[C@]([H])(C([H])([H])[H])C([H])(C([H])([H])[H])C([H])([H])[H])C([H])([H])[H])C([H])([H])c2c([H])c([H])c([H])c([H])c2[H])C([H])([H])[H])N([H])C(=O)[C@@]([H])(N([H])C(=O)[C@@]([H])(N([H])C(=O)[C@@]([H])(N([H])C(=O)[C@@]([H])(N([H])C(=O)[C@@]([H])(N([H])C(=O)[C@@]([H])(N([H])C(=O)C([H])(C([H])([H])[H])C([H])([H])[H])C([H])([H])[H])C([H])([H])[H])C([H])([H])[H])C([H])([H])[H])C([H])([H])[H])C([H])([H])[H])c([H])c1[H]


 84 85  0  0  0  0  0  0  0  0999 V2000
   14.3580   24.2826   -0.1439 N   0  0  0  0  0  0  0  0  0  0  0  0
   14.5220   22.9086   -0.0559 C   0  0  0  0  0  0  0  0  0  0  0  0
   14.0958   22.2470   -1.1056 O   0  0  0  0  0  0  0  0  0  0  0  0
   14.6441   24.9428    0.5763 H   0  0  0  0  0  0  0  0  0  0  0  0
   15.1070   22.0824    1.0644 C   0  0  0  0  0  0  0  0  0  0  0  0
   16.5068   21.7243    0.9155 C   0  0  0  0  0  0  0  0  0  0  0  0
   14.2057   20.8893    1.0233 N   0  0  0  0  0  0  0  0  0  0  0  0
   12.9281   20.9946    1.5933 C   0  0  0  0  0  0  0  0  0  0  0  0
   12.6355   22.1411    2.1588 O   0  0  0  0  0  0  0  0  0  0  0  0
   14.5821   20.0514    0.5662 H   0  0  0  0  0  0  0  0  0  0  0  0
   11.8946   19.9777    1.5970 C   0  0  0  0  0  0  0  0  0  0  0  0
   11.0761   19.9947    0.2979 C   0  0  0  0  0  0  0  0  0  0  0  0
   11.0336   20.1702    2.7558 N   0  0  0  0  0  0  0  0  0  0  0  0
   11.1725   19.5708    4.0123 C   0  0  0  0  0  0  0  0  0  0  0  0
   12.1292   18.7640    4.1588 O   0  0  0  0  0  0  0  0  0  0  0  0
   10.2051   20.8450    2.6276 H   0  0  0  0  0  0  0  0  0  0  0  0
   10.2338   19.8628    5.1586 C   0  0  0  0  0  0  0  0  0  0  0  0
   10.6257   20.9979    6.0013 C   0  0  0  0  0  0  0  0  0  0  0  0
    9.7934   18.6720    5.8319 N   0  0  0  0  0  0  0  0  0  0  0  0
    8.5274   18.1306    5.9037 C   0  0  0  0  0  0  0  0  0  0  0  0
    7.5301   18.6342    5.2966 O   0  0  0  0  0  0  0  0  0  0  0  0
   10.5895   18.1515    6.3524 H   0  0  0  0  0  0  0  0  0  0  0  0
    8.1695   16.8792    6.7149 C   0  0  0  0  0  0  0  0  0  0  0  0
    7.1209   16.1667    5.9567 C   0  0  0  0  0  0  0  0  0  0  0  0
    7.5805   17.4359    7.9381 N   0  0  0  0  0  0  0  0  0  0  0  0
    7.4870   16.7308    9.1258 C   0  0  0  0  0  0  0  0  0  0  0  0
    7.8800   15.5208    9.1726 O   0  0  0  0  0  0  0  0  0  0  0  0
    7.2179   18.4451    7.8950 H   0  0  0  0  0  0  0  0  0  0  0  0
    6.9508   17.3404   10.3540 C   0  0  0  0  0  0  0  0  0  0  0  0
    6.7736   16.2224   11.4053 C   0  0  0  0  0  0  0  0  0  0  0  0
    5.6278   17.9322   10.1946 N   0  0  0  0  0  0  0  0  0  0  0  0
    5.2780   19.2024   10.6203 C   0  0  0  0  0  0  0  0  0  0  0  0
    6.1894   19.9099   11.1815 O   0  0  0  0  0  0  0  0  0  0  0  0
    4.9030   17.3286    9.7259 H   0  0  0  0  0  0  0  0  0  0  0  0
    3.9219   19.8185   10.4828 C   0  0  0  0  0  0  0  0  0  0  0  0
    2.8154   18.8335   10.2842 C   0  0  0  0  0  0  0  0  0  0  0  0
    3.9036   20.9221    9.5588 N   0  0  0  0  0  0  0  0  0  0  0  0
    4.4099   20.8831    8.2394 C   0  0  0  0  0  0  0  0  0  0  0  0
    4.9219   19.8290    7.8219 O   0  0  0  0  0  0  0  0  0  0  0  0
    3.4805   21.8570    9.8531 H   0  0  0  0  0  0  0  0  0  0  0  0
    4.3425   22.0532    7.3514 C   0  0  0  0  0  0  0  0  0  0  0  0
    5.5947   22.1059    6.5407 C   0  0  0  0  0  0  0  0  0  0  0  0
    3.1039   22.0054    6.4502 C   0  0  0  0  0  0  0  0  0  0  0  0
   13.7074   24.7775   -1.3680 C   0  0  0  0  0  0  0  0  0  0  0  0
   11.6816   23.8338   -0.3602 N   0  0  0  0  0  0  0  0  0  0  0  0
   12.2720   24.6617   -1.3286 C   0  0  0  0  0  0  0  0  0  0  0  0
   11.6060   25.3109   -2.1796 O   0  0  0  0  0  0  0  0  0  0  0  0
   12.3276   23.3111    0.3036 H   0  0  0  0  0  0  0  0  0  0  0  0
   10.2409   23.6459   -0.2373 C   0  0  0  0  0  0  0  0  0  0  0  0
    9.7514   22.3680   -0.7662 C   0  0  0  0  0  0  0  0  0  0  0  0
    9.1386   23.1767    2.0662 N   0  0  0  0  0  0  0  0  0  0  0  0
    9.9944   23.8799    1.2333 C   0  0  0  0  0  0  0  0  0  0  0  0
   10.7180   24.8473    1.6576 O   0  0  0  0  0  0  0  0  0  0  0  0
    9.5992   23.9376    3.1318 H   0  0  0  0  0  0  0  0  0  0  0  0
    8.3278   22.5360    2.9561 C   0  0  0  0  0  0  0  0  0  0  0  0
    6.5145   20.7614    2.9750 N   0  0  0  0  0  0  0  0  0  0  0  0
    7.1679   21.7719    2.3609 C   0  0  0  0  0  0  0  0  0  0  0  0
    6.8530   22.1996    1.1961 O   0  0  0  0  0  0  0  0  0  0  0  0
    6.8345   20.6386    4.0449 H   0  0  0  0  0  0  0  0  0  0  0  0
    5.4738   19.8775    2.6614 C   0  0  0  0  0  0  0  0  0  0  0  0
    4.5278   19.7397    3.8271 C   0  0  0  0  0  0  0  0  0  0  0  0
    5.2596   19.2471    0.2814 N   0  0  0  0  0  0  0  0  0  0  0  0
    4.7397   19.9455    1.4056 C   0  0  0  0  0  0  0  0  0  0  0  0
    3.6838   20.5786    1.2430 O   0  0  0  0  0  0  0  0  0  0  0  0
    6.1284   18.7149    0.3283 H   0  0  0  0  0  0  0  0  0  0  0  0
    4.5545   19.3250   -0.9739 C   0  0  0  0  0  0  0  0  0  0  0  0
    4.3768   17.8842   -1.5497 C   0  0  0  0  0  0  0  0  0  0  0  0
    6.7472   19.8824   -1.9826 C   0  0  0  0  0  0  0  0  0  0  0  0
    5.2604   20.1706   -1.9795 C   0  0  0  0  0  0  0  0  0  0  0  0
    4.6493   19.9897   -3.3627 C   0  0  0  0  0  0  0  0  0  0  0  0
    8.1180   23.3225    4.1843 C   0  0  0  0  0  0  0  0  0  0  0  0
    7.9621   24.7603    4.1673 C   0  0  0  0  0  0  0  0  0  0  0  0
    8.9275   25.6679    4.4722 C   0  0  0  0  0  0  0  0  0  0  0  0
    8.7181   27.0351    4.4534 C   0  0  0  0  0  0  0  0  0  0  0  0
    7.4666   27.4998    4.1092 C   0  0  0  0  0  0  0  0  0  0  0  0
    6.4783   26.5958    3.7976 C   0  0  0  0  0  0  0  0  0  0  0  0
    6.6834   25.2582    3.8141 C   0  0  0  0  0  0  0  0  0  0  0  0
   14.4675   24.1719   -2.5376 C   0  0  0  0  0  0  0  0  0  0  0  0
   14.6988   25.0103   -3.6854 C   0  0  0  0  0  0  0  0  0  0  0  0
   14.3243   26.3168   -3.7557 C   0  0  0  0  0  0  0  0  0  0  0  0
   14.5463   27.1162   -4.8278 C   0  0  0  0  0  0  0  0  0  0  0  0
   15.1999   26.6365   -5.9677 C   0  0  0  0  0  0  0  0  0  0  0  0
   15.5913   25.3250   -5.9294 C   0  0  0  0  0  0  0  0  0  0  0  0
   15.3515   24.5368   -4.8286 C   0  0  0  0  0  0  0  0  0  0  0  0
 68 69  1  0  0  0
 69 70  1  0  0  0
 69 66  1  0  0  0
 66 62  1  0  0  0
 62 63  1  0  0  0
 63 64  2  0  0  0
 63 60  1  0  0  0
 60 61  1  0  0  0
 60 56  1  0  0  0
 56 57  1  0  0  0
 57 58  2  0  0  0
 57 55  1  0  0  0
 55 71  1  0  0  0
 71 72  1  0  0  0
 72 73  2  0  0  0
 73 74  1  0  0  0
 74 75  2  0  0  0
 75 76  1  0  0  0
 76 77  2  0  0  0
 55 51  1  0  0  0
 51 52  1  0  0  0
 52 53  2  0  0  0
 52 49  1  0  0  0
 49 50  1  0  0  0
 49 45  1  0  0  0
 45 46  1  0  0  0
 46 47  2  0  0  0
 46 44  1  0  0  0
 44 78  1  0  0  0
 78 79  1  0  0  0
 79 80  2  0  0  0
 80 81  1  0  0  0
 81 82  2  0  0  0
 82 83  1  0  0  0
 83 84  2  0  0  0
 44  1  1  0  0  0
  1  2  1  0  0  0
  2  3  2  0  0  0
  2  5  1  0  0  0
  5  6  1  0  0  0
  5  7  1  0  0  0
  7  8  1  0  0  0
  8  9  2  0  0  0
  8 11  1  0  0  0
 11 12  1  0  0  0
 11 13  1  0  0  0
 13 14  1  0  0  0
 14 15  2  0  0  0
 14 17  1  0  0  0
 17 18  1  0  0  0
 17 19  1  0  0  0
 19 20  1  0  0  0
 20 21  2  0  0  0
 20 23  1  0  0  0
 23 24  1  0  0  0
 23 25  1  0  0  0
 25 26  1  0  0  0
 26 27  2  0  0  0
 26 29  1  0  0  0
 29 30  1  0  0  0
 29 31  1  0  0  0
 31 32  1  0  0  0
 32 33  2  0  0  0
 32 35  1  0  0  0
 35 36  1  0  0  0
 35 37  1  0  0  0
 37 38  1  0  0  0
 38 39  2  0  0  0
 38 41  1  0  0  0
 41 42  1  0  0  0
 41 43  1  0  0  0
 66 67  1  0  0  0
 77 72  1  0  0  0
 84 79  1  0  0  0
 62 65  1  0  0  0
 56 59  1  0  0  0
 51 54  1  0  0  0
 45 48  1  0  0  0
  1  4  1  0  0  0
  7 10  1  0  0  0
 13 16  1  0  0  0
 19 22  1  0  0  0
 25 28  1  0  0  0
 31 34  1  0  0  0
 37 40  1  0  0  0
M  END
> <minimizedAffinity>
-8.46437

> <CNNscore>
0.1284166574

> <CNNaffinity>
8.2024555206

> <CNN_VS>
1.0533319712

> <CNNaffinity_variance>
0.7550348043

$$$$
[H]c1c([H])c([H])c(C([H])([H])[C@@]([H])(C(=O)N([H])[C@]([H])(C(=O)N([H])[C@]([H])(C(=O)N([H])[C@]([H])(C(=O)N([H])[C@]([H])(C([H])([H])[H])C([H])(C([H])([H])[H])C([H])([H])[H])C([H])([H])[H])C([H])([H])c2c([H])c([H])c([H])c([H])c2[H])C([H])([H])[H])N([H])C(=O)[C@@]([H])(N([H])C(=O)[C@@]([H])(N([H])C(=O)[C@@]([H])(N([H])C(=O)[C@@]([H])(N([H])C(=O)[C@@]([H])(N([H])C(=O)[C@@]([H])(N([H])C(=O)C([H])(C([H])([H])[H])C([H])([H])[H])C([H])([H])[H])C([H])([H])[H])C([H])([H])[H])C([H])([H])[H])C([H])([H])[H])C([H])([H])[H])c([H])c1[H]


 84 85  0  0  0  0  0  0  0  0999 V2000
    4.6155   16.4962    4.4275 N   0  0  0  0  0  0  0  0  0  0  0  0
    5.1058   16.9788    3.2236 C   0  0  0  0  0  0  0  0  0  0  0  0
    5.9532   17.9728    3.3469 O   0  0  0  0  0  0  0  0  0  0  0  0
    3.9592   15.7225    4.5120 H   0  0  0  0  0  0  0  0  0  0  0  0
    4.7993   16.5307    1.8147 C   0  0  0  0  0  0  0  0  0  0  0  0
    5.9145   15.9567    1.0819 C   0  0  0  0  0  0  0  0  0  0  0  0
    4.3254   17.8170    1.2161 N   0  0  0  0  0  0  0  0  0  0  0  0
    2.9492   18.0892    1.2161 C   0  0  0  0  0  0  0  0  0  0  0  0
    2.1717   17.1599    1.7180 O   0  0  0  0  0  0  0  0  0  0  0  0
    5.0509   18.4372    0.8395 H   0  0  0  0  0  0  0  0  0  0  0  0
    2.3054   19.2994    0.7435 C   0  0  0  0  0  0  0  0  0  0  0  0
    0.8612   19.0359    0.2931 C   0  0  0  0  0  0  0  0  0  0  0  0
    3.0915   19.8711   -0.3411 N   0  0  0  0  0  0  0  0  0  0  0  0
    3.2423   21.2291   -0.6417 C   0  0  0  0  0  0  0  0  0  0  0  0
    2.6207   22.0487    0.0860 O   0  0  0  0  0  0  0  0  0  0  0  0
    3.6087   19.1721   -0.9753 H   0  0  0  0  0  0  0  0  0  0  0  0
    4.1073   21.7169   -1.7794 C   0  0  0  0  0  0  0  0  0  0  0  0
    3.3714   22.1226   -2.9819 C   0  0  0  0  0  0  0  0  0  0  0  0
    5.2777   20.9060   -1.9734 N   0  0  0  0  0  0  0  0  0  0  0  0
    6.3722   20.7466   -1.1501 C   0  0  0  0  0  0  0  0  0  0  0  0
    6.4618   21.3052   -0.0114 O   0  0  0  0  0  0  0  0  0  0  0  0
    5.2734   20.3597   -2.9099 H   0  0  0  0  0  0  0  0  0  0  0  0
    7.5988   19.8954   -1.5015 C   0  0  0  0  0  0  0  0  0  0  0  0
    7.2274   18.4888   -1.2455 C   0  0  0  0  0  0  0  0  0  0  0  0
    8.5898   20.3173   -0.5051 N   0  0  0  0  0  0  0  0  0  0  0  0
    9.7619   20.9780   -0.8312 C   0  0  0  0  0  0  0  0  0  0  0  0
   10.0408   21.1996   -2.0534 O   0  0  0  0  0  0  0  0  0  0  0  0
    8.3748   20.1039    0.5245 H   0  0  0  0  0  0  0  0  0  0  0  0
   10.7046   21.4469    0.1978 C   0  0  0  0  0  0  0  0  0  0  0  0
   10.1882   22.7982    0.7400 C   0  0  0  0  0  0  0  0  0  0  0  0
   12.0453   21.7211   -0.3058 N   0  0  0  0  0  0  0  0  0  0  0  0
   13.2109   21.5300    0.4166 C   0  0  0  0  0  0  0  0  0  0  0  0
   13.0993   21.0656    1.6074 O   0  0  0  0  0  0  0  0  0  0  0  0
   12.1041   22.0966   -1.2880 H   0  0  0  0  0  0  0  0  0  0  0  0
   14.5924   21.8236   -0.0761 C   0  0  0  0  0  0  0  0  0  0  0  0
   15.6504   21.7499    0.9772 C   0  0  0  0  0  0  0  0  0  0  0  0
   14.6518   23.0083   -0.8914 N   0  0  0  0  0  0  0  0  0  0  0  0
   14.6965   23.0186   -2.3044 C   0  0  0  0  0  0  0  0  0  0  0  0
   14.6921   21.9345   -2.9148 O   0  0  0  0  0  0  0  0  0  0  0  0
   14.6606   23.9720   -0.4320 H   0  0  0  0  0  0  0  0  0  0  0  0
   14.7441   24.2752   -3.0666 C   0  0  0  0  0  0  0  0  0  0  0  0
   13.5833   25.1207   -2.6599 C   0  0  0  0  0  0  0  0  0  0  0  0
   16.0683   25.0155   -2.8494 C   0  0  0  0  0  0  0  0  0  0  0  0
    5.0863   17.1868    5.6391 C   0  0  0  0  0  0  0  0  0  0  0  0
    7.0121   17.0861    7.1529 N   0  0  0  0  0  0  0  0  0  0  0  0
    6.0417   16.4146    6.3917 C   0  0  0  0  0  0  0  0  0  0  0  0
    5.9655   15.1581    6.3252 O   0  0  0  0  0  0  0  0  0  0  0  0
    7.0083   18.1494    7.1317 H   0  0  0  0  0  0  0  0  0  0  0  0
    8.0242   16.3994    7.9466 C   0  0  0  0  0  0  0  0  0  0  0  0
    9.2212   17.2013    8.2232 C   0  0  0  0  0  0  0  0  0  0  0  0
    6.4173   16.7073    9.9626 N   0  0  0  0  0  0  0  0  0  0  0  0
    7.2501   15.9442    9.1597 C   0  0  0  0  0  0  0  0  0  0  0  0
    7.4454   14.6963    9.3700 O   0  0  0  0  0  0  0  0  0  0  0  0
    6.1017   15.5587   10.6751 H   0  0  0  0  0  0  0  0  0  0  0  0
    5.5774   17.3812   10.7995 C   0  0  0  0  0  0  0  0  0  0  0  0
    5.0555   19.7978   11.3695 N   0  0  0  0  0  0  0  0  0  0  0  0
    5.3386   18.8353   10.4648 C   0  0  0  0  0  0  0  0  0  0  0  0
    5.4486   19.0679    9.2108 O   0  0  0  0  0  0  0  0  0  0  0  0
    5.1559   19.4289   12.4258 H   0  0  0  0  0  0  0  0  0  0  0  0
    4.7556   21.1661   11.3459 C   0  0  0  0  0  0  0  0  0  0  0  0
    4.3256   21.6368   12.7120 C   0  0  0  0  0  0  0  0  0  0  0  0
    5.7001   22.1630    9.2912 N   0  0  0  0  0  0  0  0  0  0  0  0
    5.6240   22.1477   10.7111 C   0  0  0  0  0  0  0  0  0  0  0  0
    6.3124   22.9783   11.3262 O   0  0  0  0  0  0  0  0  0  0  0  0
    5.1768   21.5054    8.7133 H   0  0  0  0  0  0  0  0  0  0  0  0
    6.5736   23.1148    8.6509 C   0  0  0  0  0  0  0  0  0  0  0  0
    5.7130   24.2628    8.0339 C   0  0  0  0  0  0  0  0  0  0  0  0
    8.4434   23.4806    7.0678 C   0  0  0  0  0  0  0  0  0  0  0  0
    7.4095   22.4996    7.5797 C   0  0  0  0  0  0  0  0  0  0  0  0
    8.0526   21.2090    8.0697 C   0  0  0  0  0  0  0  0  0  0  0  0
    5.7597   16.9865   12.2074 C   0  0  0  0  0  0  0  0  0  0  0  0
    5.5534   15.6302   12.6655 C   0  0  0  0  0  0  0  0  0  0  0  0
    6.2007   15.0346   13.7022 C   0  0  0  0  0  0  0  0  0  0  0  0
    5.9735   13.7259   14.0885 C   0  0  0  0  0  0  0  0  0  0  0  0
    5.0444   12.9889   13.3854 C   0  0  0  0  0  0  0  0  0  0  0  0
    4.3801   13.5757   12.3340 C   0  0  0  0  0  0  0  0  0  0  0  0
    4.6009   14.8567   11.9569 C   0  0  0  0  0  0  0  0  0  0  0  0
    3.8482   17.7213    6.3417 C   0  0  0  0  0  0  0  0  0  0  0  0
    3.6476   19.1474    6.3417 C   0  0  0  0  0  0  0  0  0  0  0  0
    2.5154   19.7520    6.7941 C   0  0  0  0  0  0  0  0  0  0  0  0
    2.3215   21.0937    6.8070 C   0  0  0  0  0  0  0  0  0  0  0  0
    3.3059   21.9737    6.3451 C   0  0  0  0  0  0  0  0  0  0  0  0
    4.4590   21.3975    5.8836 C   0  0  0  0  0  0  0  0  0  0  0  0
    4.6277   20.0329    5.8809 C   0  0  0  0  0  0  0  0  0  0  0  0
 68 69  1  0  0  0
 69 70  1  0  0  0
 69 66  1  0  0  0
 66 62  1  0  0  0
 62 63  1  0  0  0
 63 64  2  0  0  0
 63 60  1  0  0  0
 60 61  1  0  0  0
 60 56  1  0  0  0
 56 57  1  0  0  0
 57 58  2  0  0  0
 57 55  1  0  0  0
 55 71  1  0  0  0
 71 72  1  0  0  0
 72 73  2  0  0  0
 73 74  1  0  0  0
 74 75  2  0  0  0
 75 76  1  0  0  0
 76 77  2  0  0  0
 55 51  1  0  0  0
 51 52  1  0  0  0
 52 53  2  0  0  0
 52 49  1  0  0  0
 49 50  1  0  0  0
 49 45  1  0  0  0
 45 46  1  0  0  0
 46 47  2  0  0  0
 46 44  1  0  0  0
 44 78  1  0  0  0
 78 79  1  0  0  0
 79 80  2  0  0  0
 80 81  1  0  0  0
 81 82  2  0  0  0
 82 83  1  0  0  0
 83 84  2  0  0  0
 44  1  1  0  0  0
  1  2  1  0  0  0
  2  3  2  0  0  0
  2  5  1  0  0  0
  5  6  1  0  0  0
  5  7  1  0  0  0
  7  8  1  0  0  0
  8  9  2  0  0  0
  8 11  1  0  0  0
 11 12  1  0  0  0
 11 13  1  0  0  0
 13 14  1  0  0  0
 14 15  2  0  0  0
 14 17  1  0  0  0
 17 18  1  0  0  0
 17 19  1  0  0  0
 19 20  1  0  0  0
 20 21  2  0  0  0
 20 23  1  0  0  0
 23 24  1  0  0  0
 23 25  1  0  0  0
 25 26  1  0  0  0
 26 27  2  0  0  0
 26 29  1  0  0  0
 29 30  1  0  0  0
 29 31  1  0  0  0
 31 32  1  0  0  0
 32 33  2  0  0  0
 32 35  1  0  0  0
 35 36  1  0  0  0
 35 37  1  0  0  0
 37 38  1  0  0  0
 38 39  2  0  0  0
 38 41  1  0  0  0
 41 42  1  0  0  0
 41 43  1  0  0  0
 66 67  1  0  0  0
 77 72  1  0  0  0
 84 79  1  0  0  0
 62 65  1  0  0  0
 56 59  1  0  0  0
 51 54  1  0  0  0
 45 48  1  0  0  0
  1  4  1  0  0  0
  7 10  1  0  0  0
 13 16  1  0  0  0
 19 22  1  0  0  0
 25 28  1  0  0  0
 31 34  1  0  0  0
 37 40  1  0  0  0
M  END
> <minimizedAffinity>
-7.66524

> <CNNscore>
0.1096857339

> <CNNaffinity>
7.0071396828

> <CNN_VS>
0.7685832381

> <CNNaffinity_variance>
1.5484168530

$$$$
[H]c1c([H])c([H])c(C([H])([H])[C@@]([H])(C(=O)N([H])[C@]([H])(C(=O)N([H])[C@]([H])(C(=O)N([H])[C@]([H])(C(=O)N([H])[C@]([H])(C([H])([H])[H])C([H])(C([H])([H])[H])C([H])([H])[H])C([H])([H])[H])C([H])([H])c2c([H])c([H])c([H])c([H])c2[H])C([H])([H])[H])N([H])C(=O)[C@@]([H])(N([H])C(=O)[C@@]([H])(N([H])C(=O)[C@@]([H])(N([H])C(=O)[C@@]([H])(N([H])C(=O)[C@@]([H])(N([H])C(=O)[C@@]([H])(N([H])C(=O)C([H])(C([H])([H])[H])C([H])([H])[H])C([H])([H])[H])C([H])([H])[H])C([H])([H])[H])C([H])([H])[H])C([H])([H])[H])C([H])([H])[H])c([H])c1[H]


 84 85  0  0  0  0  0  0  0  0999 V2000
   14.5479   24.2792   -0.1457 N   0  0  0  0  0  0  0  0  0  0  0  0
   14.4993   22.8939   -0.1091 C   0  0  0  0  0  0  0  0  0  0  0  0
   13.9603   22.3456   -1.1722 O   0  0  0  0  0  0  0  0  0  0  0  0
   14.9432   24.8600    0.5911 H   0  0  0  0  0  0  0  0  0  0  0  0
   14.9666   21.9461    0.9694 C   0  0  0  0  0  0  0  0  0  0  0  0
   16.3171   21.4344    0.8134 C   0  0  0  0  0  0  0  0  0  0  0  0
   13.9327   20.8712    0.8550 N   0  0  0  0  0  0  0  0  0  0  0  0
   12.7854   20.9568    1.6578 C   0  0  0  0  0  0  0  0  0  0  0  0
   12.7281   21.9726    2.4853 O   0  0  0  0  0  0  0  0  0  0  0  0
   14.1267   20.1246    0.1786 H   0  0  0  0  0  0  0  0  0  0  0  0
   11.6505   20.0545    1.6461 C   0  0  0  0  0  0  0  0  0  0  0  0
   10.8052   20.2212    0.3749 C   0  0  0  0  0  0  0  0  0  0  0  0
   10.8448   20.2783    2.8385 N   0  0  0  0  0  0  0  0  0  0  0  0
   10.9837   19.6406    4.0760 C   0  0  0  0  0  0  0  0  0  0  0  0
   11.8858   18.7660    4.1709 O   0  0  0  0  0  0  0  0  0  0  0  0
   10.0618   21.0118    2.7544 H   0  0  0  0  0  0  0  0  0  0  0  0
   10.1071   19.9693    5.2609 C   0  0  0  0  0  0  0  0  0  0  0  0
   10.5332   21.1398    6.0358 C   0  0  0  0  0  0  0  0  0  0  0  0
    9.7174   18.8021    6.0032 N   0  0  0  0  0  0  0  0  0  0  0  0
    8.5247   18.1110    5.9751 C   0  0  0  0  0  0  0  0  0  0  0  0
    7.5703   18.4204    5.1940 O   0  0  0  0  0  0  0  0  0  0  0  0
   10.4879   18.4416    6.6755 H   0  0  0  0  0  0  0  0  0  0  0  0
    8.2040   16.9079    6.8707 C   0  0  0  0  0  0  0  0  0  0  0  0
    6.8050   16.5277    6.5869 C   0  0  0  0  0  0  0  0  0  0  0  0
    8.2811   17.4728    8.2227 N   0  0  0  0  0  0  0  0  0  0  0  0
    7.2480   18.1832    8.8098 C   0  0  0  0  0  0  0  0  0  0  0  0
    6.1858   18.4136    8.1470 O   0  0  0  0  0  0  0  0  0  0  0  0
    9.1873   17.3092    8.7739 H   0  0  0  0  0  0  0  0  0  0  0  0
    7.3314   18.6803   10.1931 C   0  0  0  0  0  0  0  0  0  0  0  0
    6.0262   18.2901   10.9215 C   0  0  0  0  0  0  0  0  0  0  0  0
    7.4117   20.1324   10.2984 N   0  0  0  0  0  0  0  0  0  0  0  0
    8.3104   20.9228    9.6022 C   0  0  0  0  0  0  0  0  0  0  0  0
    9.1180   20.3328    8.7986 O   0  0  0  0  0  0  0  0  0  0  0  0
    6.7325   20.5877   10.9622 H   0  0  0  0  0  0  0  0  0  0  0  0
    8.4202   22.4105    9.7118 C   0  0  0  0  0  0  0  0  0  0  0  0
    8.8681   22.8978   11.0520 C   0  0  0  0  0  0  0  0  0  0  0  0
    7.2653   23.0933    9.1905 N   0  0  0  0  0  0  0  0  0  0  0  0
    7.2234   23.7950    7.9640 C   0  0  0  0  0  0  0  0  0  0  0  0
    8.2514   23.8479    7.2652 O   0  0  0  0  0  0  0  0  0  0  0  0
    6.3502   23.0894    9.7404 H   0  0  0  0  0  0  0  0  0  0  0  0
    5.9976   24.4579    7.4948 C   0  0  0  0  0  0  0  0  0  0  0  0
    6.3361   25.8577    7.1020 C   0  0  0  0  0  0  0  0  0  0  0  0
    5.3576   23.6975    6.3283 C   0  0  0  0  0  0  0  0  0  0  0  0
   13.9631   24.9139   -1.3380 C   0  0  0  0  0  0  0  0  0  0  0  0
   11.8688   24.0529   -0.3983 N   0  0  0  0  0  0  0  0  0  0  0  0
   12.5300   24.7815   -1.4004 C   0  0  0  0  0  0  0  0  0  0  0  0
   11.9304   25.3259   -2.3664 O   0  0  0  0  0  0  0  0  0  0  0  0
   12.4627   23.6139    0.3671 H   0  0  0  0  0  0  0  0  0  0  0  0
   10.4242   23.8576   -0.3705 C   0  0  0  0  0  0  0  0  0  0  0  0
    9.9706   22.6149   -1.0047 C   0  0  0  0  0  0  0  0  0  0  0  0
    9.1864   23.2525    1.8301 N   0  0  0  0  0  0  0  0  0  0  0  0
   10.0926   24.0001    1.0951 C   0  0  0  0  0  0  0  0  0  0  0  0
   10.7941   24.9330    1.6216 O   0  0  0  0  0  0  0  0  0  0  0  0
    9.5868   23.9408    2.9670 H   0  0  0  0  0  0  0  0  0  0  0  0
    8.3220   22.5632    2.6287 C   0  0  0  0  0  0  0  0  0  0  0  0
    6.6390   20.6730    2.4502 N   0  0  0  0  0  0  0  0  0  0  0  0
    7.2814   21.7332    1.9133 C   0  0  0  0  0  0  0  0  0  0  0  0
    7.0570   22.1562    0.7261 O   0  0  0  0  0  0  0  0  0  0  0  0
    6.8576   20.5558    3.5459 H   0  0  0  0  0  0  0  0  0  0  0  0
    5.6966   19.7270    2.0261 C   0  0  0  0  0  0  0  0  0  0  0  0
    4.2987   20.2735    2.1669 C   0  0  0  0  0  0  0  0  0  0  0  0
    5.4507   19.6183   -0.4306 N   0  0  0  0  0  0  0  0  0  0  0  0
    5.8378   18.9839    0.7817 C   0  0  0  0  0  0  0  0  0  0  0  0
    6.2729   17.8235    0.7022 O   0  0  0  0  0  0  0  0  0  0  0  0
    5.0713   20.5649   -0.4499 H   0  0  0  0  0  0  0  0  0  0  0  0
    5.5640   18.8854   -1.6671 C   0  0  0  0  0  0  0  0  0  0  0  0
    6.7832   19.4329   -2.4751 C   0  0  0  0  0  0  0  0  0  0  0  0
    3.1195   19.2860   -1.6594 C   0  0  0  0  0  0  0  0  0  0  0  0
    4.3361   18.9817   -2.5084 C   0  0  0  0  0  0  0  0  0  0  0  0
    4.5195   20.0091   -3.6174 C   0  0  0  0  0  0  0  0  0  0  0  0
    7.9327   23.3335    3.8229 C   0  0  0  0  0  0  0  0  0  0  0  0
    7.9602   24.7792    3.8562 C   0  0  0  0  0  0  0  0  0  0  0  0
    8.9691   25.5435    4.3526 C   0  0  0  0  0  0  0  0  0  0  0  0
    8.9357   26.9263    4.3723 C   0  0  0  0  0  0  0  0  0  0  0  0
    7.8221   27.5604    3.8637 C   0  0  0  0  0  0  0  0  0  0  0  0
    6.7922   26.8027    3.3573 C   0  0  0  0  0  0  0  0  0  0  0  0
    6.8255   25.4499    3.3363 C   0  0  0  0  0  0  0  0  0  0  0  0
   14.8009   24.4622   -2.5240 C   0  0  0  0  0  0  0  0  0  0  0  0
   15.1959   25.4651   -3.4791 C   0  0  0  0  0  0  0  0  0  0  0  0
   14.6519   25.5829   -4.7210 C   0  0  0  0  0  0  0  0  0  0  0  0
   15.0104   26.5293   -5.6229 C   0  0  0  0  0  0  0  0  0  0  0  0
   15.9917   27.4806   -5.3254 C   0  0  0  0  0  0  0  0  0  0  0  0
   16.5590   27.3909   -4.0825 C   0  0  0  0  0  0  0  0  0  0  0  0
   16.1767   26.4191   -3.1880 C   0  0  0  0  0  0  0  0  0  0  0  0
 68 69  1  0  0  0
 69 70  1  0  0  0
 69 66  1  0  0  0
 66 62  1  0  0  0
 62 63  1  0  0  0
 63 64  2  0  0  0
 63 60  1  0  0  0
 60 61  1  0  0  0
 60 56  1  0  0  0
 56 57  1  0  0  0
 57 58  2  0  0  0
 57 55  1  0  0  0
 55 71  1  0  0  0
 71 72  1  0  0  0
 72 73  2  0  0  0
 73 74  1  0  0  0
 74 75  2  0  0  0
 75 76  1  0  0  0
 76 77  2  0  0  0
 55 51  1  0  0  0
 51 52  1  0  0  0
 52 53  2  0  0  0
 52 49  1  0  0  0
 49 50  1  0  0  0
 49 45  1  0  0  0
 45 46  1  0  0  0
 46 47  2  0  0  0
 46 44  1  0  0  0
 44 78  1  0  0  0
 78 79  1  0  0  0
 79 80  2  0  0  0
 80 81  1  0  0  0
 81 82  2  0  0  0
 82 83  1  0  0  0
 83 84  2  0  0  0
 44  1  1  0  0  0
  1  2  1  0  0  0
  2  3  2  0  0  0
  2  5  1  0  0  0
  5  6  1  0  0  0
  5  7  1  0  0  0
  7  8  1  0  0  0
  8  9  2  0  0  0
  8 11  1  0  0  0
 11 12  1  0  0  0
 11 13  1  0  0  0
 13 14  1  0  0  0
 14 15  2  0  0  0
 14 17  1  0  0  0
 17 18  1  0  0  0
 17 19  1  0  0  0
 19 20  1  0  0  0
 20 21  2  0  0  0
 20 23  1  0  0  0
 23 24  1  0  0  0
 23 25  1  0  0  0
 25 26  1  0  0  0
 26 27  2  0  0  0
 26 29  1  0  0  0
 29 30  1  0  0  0
 29 31  1  0  0  0
 31 32  1  0  0  0
 32 33  2  0  0  0
 32 35  1  0  0  0
 35 36  1  0  0  0
 35 37  1  0  0  0
 37 38  1  0  0  0
 38 39  2  0  0  0
 38 41  1  0  0  0
 41 42  1  0  0  0
 41 43  1  0  0  0
 66 67  1  0  0  0
 77 72  1  0  0  0
 84 79  1  0  0  0
 62 65  1  0  0  0
 56 59  1  0  0  0
 51 54  1  0  0  0
 45 48  1  0  0  0
  1  4  1  0  0  0
  7 10  1  0  0  0
 13 16  1  0  0  0
 19 22  1  0  0  0
 25 28  1  0  0  0
 31 34  1  0  0  0
 37 40  1  0  0  0
M  END
> <minimizedAffinity>
-8.69005

> <CNNscore>
0.1041157544

> <CNNaffinity>
8.4231548309

> <CNN_VS>
0.8769831061

> <CNNaffinity_variance>
0.5580355525

$$$$
[H]c1c([H])c([H])c(C([H])([H])[C@@]([H])(C(=O)N([H])[C@]([H])(C(=O)N([H])[C@]([H])(C(=O)N([H])[C@]([H])(C(=O)N([H])[C@]([H])(C([H])([H])[H])C([H])(C([H])([H])[H])C([H])([H])[H])C([H])([H])[H])C([H])([H])c2c([H])c([H])c([H])c([H])c2[H])C([H])([H])[H])N([H])C(=O)[C@@]([H])(N([H])C(=O)[C@@]([H])(N([H])C(=O)[C@@]([H])(N([H])C(=O)[C@@]([H])(N([H])C(=O)[C@@]([H])(N([H])C(=O)[C@@]([H])(N([H])C(=O)C([H])(C([H])([H])[H])C([H])([H])[H])C([H])([H])[H])C([H])([H])[H])C([H])([H])[H])C([H])([H])[H])C([H])([H])[H])C([H])([H])[H])c([H])c1[H]


 84 85  0  0  0  0  0  0  0  0999 V2000
    3.3779   20.1395    1.6346 N   0  0  0  0  0  0  0  0  0  0  0  0
    2.7434   19.1031    0.9667 C   0  0  0  0  0  0  0  0  0  0  0  0
    3.4936   18.0430    0.7810 O   0  0  0  0  0  0  0  0  0  0  0  0
    2.9374   21.0269    1.8692 H   0  0  0  0  0  0  0  0  0  0  0  0
    1.3351   19.0301    0.4270 C   0  0  0  0  0  0  0  0  0  0  0  0
    0.3238   18.5850    1.3700 C   0  0  0  0  0  0  0  0  0  0  0  0
    1.5250   18.0675   -0.7021 N   0  0  0  0  0  0  0  0  0  0  0  0
    1.5740   18.5708   -2.0106 C   0  0  0  0  0  0  0  0  0  0  0  0
    1.4101   19.8652   -2.1433 O   0  0  0  0  0  0  0  0  0  0  0  0
    1.6155   17.0783   -0.4452 H   0  0  0  0  0  0  0  0  0  0  0  0
    1.8125   17.8114   -3.2226 C   0  0  0  0  0  0  0  0  0  0  0  0
    2.4485   18.6774   -4.3197 C   0  0  0  0  0  0  0  0  0  0  0  0
    0.5585   17.2302   -3.6815 N   0  0  0  0  0  0  0  0  0  0  0  0
    0.1927   15.8806   -3.6335 C   0  0  0  0  0  0  0  0  0  0  0  0
    1.0393   15.0748   -3.1628 O   0  0  0  0  0  0  0  0  0  0  0  0
   -0.1591   17.9140   -4.1008 H   0  0  0  0  0  0  0  0  0  0  0  0
   -1.1507   15.3867   -4.1148 C   0  0  0  0  0  0  0  0  0  0  0  0
   -2.1978   15.3524   -3.0878 C   0  0  0  0  0  0  0  0  0  0  0  0
   -1.0444   14.2415   -4.9764 N   0  0  0  0  0  0  0  0  0  0  0  0
   -1.3282   14.1351   -6.3215 C   0  0  0  0  0  0  0  0  0  0  0  0
   -1.7021   15.1264   -7.0246 O   0  0  0  0  0  0  0  0  0  0  0  0
   -0.6955   13.3499   -4.4675 H   0  0  0  0  0  0  0  0  0  0  0  0
   -1.2354   12.8300   -7.1218 C   0  0  0  0  0  0  0  0  0  0  0  0
   -0.4169   11.8973   -6.3203 C   0  0  0  0  0  0  0  0  0  0  0  0
   -0.4782   13.2271   -8.3143 N   0  0  0  0  0  0  0  0  0  0  0  0
   -0.8072   12.8170   -9.5950 C   0  0  0  0  0  0  0  0  0  0  0  0
   -1.7813   12.0161   -9.7691 O   0  0  0  0  0  0  0  0  0  0  0  0
    0.3639   13.8764   -8.1694 H   0  0  0  0  0  0  0  0  0  0  0  0
   -0.0671   13.2864  -10.7780 C   0  0  0  0  0  0  0  0  0  0  0  0
   -1.0520   13.3447  -11.9667 C   0  0  0  0  0  0  0  0  0  0  0  0
    0.9998   12.3891  -11.2056 N   0  0  0  0  0  0  0  0  0  0  0  0
    2.2940   12.4159  -10.7143 C   0  0  0  0  0  0  0  0  0  0  0  0
    2.5651   13.2839   -9.8091 O   0  0  0  0  0  0  0  0  0  0  0  0
    0.7447   11.6849  -11.9460 H   0  0  0  0  0  0  0  0  0  0  0  0
    3.4056   11.5171  -11.1545 C   0  0  0  0  0  0  0  0  0  0  0  0
    3.4663   11.2903  -12.6306 C   0  0  0  0  0  0  0  0  0  0  0  0
    3.4930   10.3147  -10.3679 N   0  0  0  0  0  0  0  0  0  0  0  0
    4.5779    9.9723   -9.5286 C   0  0  0  0  0  0  0  0  0  0  0  0
    5.5471   10.7483   -9.4506 O   0  0  0  0  0  0  0  0  0  0  0  0
    2.6966    9.6042  -10.3896 H   0  0  0  0  0  0  0  0  0  0  0  0
    4.5860    8.7274   -8.7460 C   0  0  0  0  0  0  0  0  0  0  0  0
    5.5236    8.8958   -7.5969 C   0  0  0  0  0  0  0  0  0  0  0  0
    3.1800    8.3584   -8.2607 C   0  0  0  0  0  0  0  0  0  0  0  0
    4.7861   19.9081    1.9952 C   0  0  0  0  0  0  0  0  0  0  0  0
    6.0716   19.1818    3.9522 N   0  0  0  0  0  0  0  0  0  0  0  0
    5.0147   19.9360    3.4172 C   0  0  0  0  0  0  0  0  0  0  0  0
    4.2422   20.6384    4.1236 O   0  0  0  0  0  0  0  0  0  0  0  0
    6.6582   18.6051    3.2781 H   0  0  0  0  0  0  0  0  0  0  0  0
    6.3856   19.1394    5.3755 C   0  0  0  0  0  0  0  0  0  0  0  0
    6.0598   17.8664    6.0279 C   0  0  0  0  0  0  0  0  0  0  0  0
    8.4629   20.5267    4.6678 N   0  0  0  0  0  0  0  0  0  0  0  0
    7.8412   19.5366    5.4119 C   0  0  0  0  0  0  0  0  0  0  0  0
    8.4751   18.8271    6.2689 O   0  0  0  0  0  0  0  0  0  0  0  0
    9.6357   20.2724    5.3653 H   0  0  0  0  0  0  0  0  0  0  0  0
    9.1524   21.4834    3.9827 C   0  0  0  0  0  0  0  0  0  0  0  0
    9.9268   21.3169    1.5723 N   0  0  0  0  0  0  0  0  0  0  0  0
   10.0514   20.9838    2.8756 C   0  0  0  0  0  0  0  0  0  0  0  0
   10.9708   20.2072    3.3118 O   0  0  0  0  0  0  0  0  0  0  0  0
    9.1632   22.1254    1.4130 H   0  0  0  0  0  0  0  0  0  0  0  0
   10.5619   20.9870    0.3679 C   0  0  0  0  0  0  0  0  0  0  0  0
    9.6061   21.1270   -0.7895 C   0  0  0  0  0  0  0  0  0  0  0  0
   12.0216   22.8841   -0.2466 N   0  0  0  0  0  0  0  0  0  0  0  0
   11.8804   21.4932    0.0131 C   0  0  0  0  0  0  0  0  0  0  0  0
   12.8998   20.7906   -0.0835 O   0  0  0  0  0  0  0  0  0  0  0  0
   11.2309   23.5269   -0.2018 H   0  0  0  0  0  0  0  0  0  0  0  0
   13.3170   23.3946   -0.6212 C   0  0  0  0  0  0  0  0  0  0  0  0
   13.8310   24.3539    0.4989 C   0  0  0  0  0  0  0  0  0  0  0  0
   12.4400   25.3740   -1.8250 C   0  0  0  0  0  0  0  0  0  0  0  0
   13.2938   24.1268   -1.9204 C   0  0  0  0  0  0  0  0  0  0  0  0
   14.7081   24.4475   -2.3858 C   0  0  0  0  0  0  0  0  0  0  0  0
    9.6269   22.5655    4.8630 C   0  0  0  0  0  0  0  0  0  0  0  0
    9.1710   23.9315    4.7276 C   0  0  0  0  0  0  0  0  0  0  0  0
    8.4697   24.6310    5.6589 C   0  0  0  0  0  0  0  0  0  0  0  0
    8.0454   25.9340    5.4698 C   0  0  0  0  0  0  0  0  0  0  0  0
    8.3486   26.5532    4.2759 C   0  0  0  0  0  0  0  0  0  0  0  0
    9.0576   25.8604    3.3227 C   0  0  0  0  0  0  0  0  0  0  0  0
    9.4744   24.5862    3.5082 C   0  0  0  0  0  0  0  0  0  0  0  0
    5.6174   20.8073    1.0936 C   0  0  0  0  0  0  0  0  0  0  0  0
    5.5714   20.5532   -0.3232 C   0  0  0  0  0  0  0  0  0  0  0  0
    4.8459   21.2972   -1.2019 C   0  0  0  0  0  0  0  0  0  0  0  0
    4.8041   21.0716   -2.5380 C   0  0  0  0  0  0  0  0  0  0  0  0
    5.5309   20.0282   -3.1209 C   0  0  0  0  0  0  0  0  0  0  0  0
    6.2732   19.2604   -2.2641 C   0  0  0  0  0  0  0  0  0  0  0  0
    6.2955   19.5114   -0.9123 C   0  0  0  0  0  0  0  0  0  0  0  0
 68 69  1  0  0  0
 69 70  1  0  0  0
 69 66  1  0  0  0
 66 62  1  0  0  0
 62 63  1  0  0  0
 63 64  2  0  0  0
 63 60  1  0  0  0
 60 61  1  0  0  0
 60 56  1  0  0  0
 56 57  1  0  0  0
 57 58  2  0  0  0
 57 55  1  0  0  0
 55 71  1  0  0  0
 71 72  1  0  0  0
 72 73  2  0  0  0
 73 74  1  0  0  0
 74 75  2  0  0  0
 75 76  1  0  0  0
 76 77  2  0  0  0
 55 51  1  0  0  0
 51 52  1  0  0  0
 52 53  2  0  0  0
 52 49  1  0  0  0
 49 50  1  0  0  0
 49 45  1  0  0  0
 45 46  1  0  0  0
 46 47  2  0  0  0
 46 44  1  0  0  0
 44 78  1  0  0  0
 78 79  1  0  0  0
 79 80  2  0  0  0
 80 81  1  0  0  0
 81 82  2  0  0  0
 82 83  1  0  0  0
 83 84  2  0  0  0
 44  1  1  0  0  0
  1  2  1  0  0  0
  2  3  2  0  0  0
  2  5  1  0  0  0
  5  6  1  0  0  0
  5  7  1  0  0  0
  7  8  1  0  0  0
  8  9  2  0  0  0
  8 11  1  0  0  0
 11 12  1  0  0  0
 11 13  1  0  0  0
 13 14  1  0  0  0
 14 15  2  0  0  0
 14 17  1  0  0  0
 17 18  1  0  0  0
 17 19  1  0  0  0
 19 20  1  0  0  0
 20 21  2  0  0  0
 20 23  1  0  0  0
 23 24  1  0  0  0
 23 25  1  0  0  0
 25 26  1  0  0  0
 26 27  2  0  0  0
 26 29  1  0  0  0
 29 30  1  0  0  0
 29 31  1  0  0  0
 31 32  1  0  0  0
 32 33  2  0  0  0
 32 35  1  0  0  0
 35 36  1  0  0  0
 35 37  1  0  0  0
 37 38  1  0  0  0
 38 39  2  0  0  0
 38 41  1  0  0  0
 41 42  1  0  0  0
 41 43  1  0  0  0
 66 67  1  0  0  0
 77 72  1  0  0  0
 84 79  1  0  0  0
 62 65  1  0  0  0
 56 59  1  0  0  0
 51 54  1  0  0  0
 45 48  1  0  0  0
  1  4  1  0  0  0
  7 10  1  0  0  0
 13 16  1  0  0  0
 19 22  1  0  0  0
 25 28  1  0  0  0
 31 34  1  0  0  0
 37 40  1  0  0  0
M  END
> <minimizedAffinity>
-8.26703

> <CNNscore>
0.1023348644

> <CNNaffinity>
6.4586896896

> <CNN_VS>
0.6609491110

> <CNNaffinity_variance>
0.9241584539

$$$$
[H]c1c([H])c([H])c(C([H])([H])[C@@]([H])(C(=O)N([H])[C@]([H])(C(=O)N([H])[C@]([H])(C(=O)N([H])[C@]([H])(C(=O)N([H])[C@]([H])(C([H])([H])[H])C([H])(C([H])([H])[H])C([H])([H])[H])C([H])([H])[H])C([H])([H])c2c([H])c([H])c([H])c([H])c2[H])C([H])([H])[H])N([H])C(=O)[C@@]([H])(N([H])C(=O)[C@@]([H])(N([H])C(=O)[C@@]([H])(N([H])C(=O)[C@@]([H])(N([H])C(=O)[C@@]([H])(N([H])C(=O)[C@@]([H])(N([H])C(=O)C([H])(C([H])([H])[H])C([H])([H])[H])C([H])([H])[H])C([H])([H])[H])C([H])([H])[H])C([H])([H])[H])C([H])([H])[H])C([H])([H])[H])c([H])c1[H]


 84 85  0  0  0  0  0  0  0  0999 V2000
    9.7334   23.1236    0.7109 N   0  0  0  0  0  0  0  0  0  0  0  0
   10.0524   21.8048    0.4255 C   0  0  0  0  0  0  0  0  0  0  0  0
   10.9679   21.2899    1.2116 O   0  0  0  0  0  0  0  0  0  0  0  0
    9.0373   23.6687    0.2060 H   0  0  0  0  0  0  0  0  0  0  0  0
    9.5062   20.8973   -0.6506 C   0  0  0  0  0  0  0  0  0  0  0  0
   10.0179   21.1326   -1.9896 C   0  0  0  0  0  0  0  0  0  0  0  0
    8.0437   21.1911   -0.5392 N   0  0  0  0  0  0  0  0  0  0  0  0
    7.1464   20.1143   -0.4822 C   0  0  0  0  0  0  0  0  0  0  0  0
    7.6696   18.9149   -0.5692 O   0  0  0  0  0  0  0  0  0  0  0  0
    7.7810   22.1823   -0.5047 H   0  0  0  0  0  0  0  0  0  0  0  0
    5.7087   20.1928   -0.3113 C   0  0  0  0  0  0  0  0  0  0  0  0
    5.3288   20.6364    1.1089 C   0  0  0  0  0  0  0  0  0  0  0  0
    5.1147   18.9013   -0.6282 N   0  0  0  0  0  0  0  0  0  0  0  0
    4.0452   18.6611   -1.4976 C   0  0  0  0  0  0  0  0  0  0  0  0
    3.5236   19.6642   -2.0538 O   0  0  0  0  0  0  0  0  0  0  0  0
    5.5467   18.0449   -0.1403 H   0  0  0  0  0  0  0  0  0  0  0  0
    3.5226   17.2720   -1.7763 C   0  0  0  0  0  0  0  0  0  0  0  0
    2.1801   17.2264   -2.3661 C   0  0  0  0  0  0  0  0  0  0  0  0
    3.7971   16.3514   -0.7076 N   0  0  0  0  0  0  0  0  0  0  0  0
    3.4706   16.4468    0.6286 C   0  0  0  0  0  0  0  0  0  0  0  0
    2.7943   17.4136    1.1026 O   0  0  0  0  0  0  0  0  0  0  0  0
    4.3441   15.4712   -1.0264 H   0  0  0  0  0  0  0  0  0  0  0  0
    3.8801   15.4200    1.6918 C   0  0  0  0  0  0  0  0  0  0  0  0
    2.6883   14.5901    1.9624 C   0  0  0  0  0  0  0  0  0  0  0  0
    4.1587   16.2541    2.8664 N   0  0  0  0  0  0  0  0  0  0  0  0
    5.3636   16.2295    3.5475 C   0  0  0  0  0  0  0  0  0  0  0  0
    6.2746   15.4166    3.1869 O   0  0  0  0  0  0  0  0  0  0  0  0
    3.3820   16.9181    3.1944 H   0  0  0  0  0  0  0  0  0  0  0  0
    5.6359   17.1269    4.6825 C   0  0  0  0  0  0  0  0  0  0  0  0
    6.5375   16.3718    5.6842 C   0  0  0  0  0  0  0  0  0  0  0  0
    4.4484   17.5024    5.4408 N   0  0  0  0  0  0  0  0  0  0  0  0
    3.6415   18.5896    5.1507 C   0  0  0  0  0  0  0  0  0  0  0  0
    3.9570   19.3058    4.1340 O   0  0  0  0  0  0  0  0  0  0  0  0
    4.2128   16.8923    6.2662 H   0  0  0  0  0  0  0  0  0  0  0  0
    2.4316   19.0012    5.9280 C   0  0  0  0  0  0  0  0  0  0  0  0
    2.3906   18.4766    7.3270 C   0  0  0  0  0  0  0  0  0  0  0  0
    1.2085   18.8168    5.1917 N   0  0  0  0  0  0  0  0  0  0  0  0
    0.8194   17.6168    4.5536 C   0  0  0  0  0  0  0  0  0  0  0  0
    1.5765   16.6314    4.6114 O   0  0  0  0  0  0  0  0  0  0  0  0
    0.5141   19.6226    5.1010 H   0  0  0  0  0  0  0  0  0  0  0  0
   -0.4555   17.5054    3.8294 C   0  0  0  0  0  0  0  0  0  0  0  0
   -0.2559   16.6078    2.6535 C   0  0  0  0  0  0  0  0  0  0  0  0
   -1.5748   16.9840    4.7370 C   0  0  0  0  0  0  0  0  0  0  0  0
   10.4858   23.7455    1.8126 C   0  0  0  0  0  0  0  0  0  0  0  0
    9.1185   22.7486    3.5866 N   0  0  0  0  0  0  0  0  0  0  0  0
    9.7066   23.8889    3.0157 C   0  0  0  0  0  0  0  0  0  0  0  0
    9.5818   25.0454    3.5014 O   0  0  0  0  0  0  0  0  0  0  0  0
    9.2648   21.8176    3.0936 H   0  0  0  0  0  0  0  0  0  0  0  0
    8.3104   22.7858    4.7996 C   0  0  0  0  0  0  0  0  0  0  0  0
    9.0216   23.2792    5.9840 C   0  0  0  0  0  0  0  0  0  0  0  0
    6.5476   24.6772    5.0368 N   0  0  0  0  0  0  0  0  0  0  0  0
    7.1069   23.5935    4.3785 C   0  0  0  0  0  0  0  0  0  0  0  0
    6.6397   23.1521    3.2710 O   0  0  0  0  0  0  0  0  0  0  0  0
    5.6558   24.8188    3.9827 H   0  0  0  0  0  0  0  0  0  0  0  0
    5.9383   25.7522    5.6139 C   0  0  0  0  0  0  0  0  0  0  0  0
    6.1994   26.2918    8.0793 N   0  0  0  0  0  0  0  0  0  0  0  0
    5.5985   25.6104    7.0795 C   0  0  0  0  0  0  0  0  0  0  0  0
    4.6529   24.7706    7.2782 O   0  0  0  0  0  0  0  0  0  0  0  0
    6.8901   27.0891    7.6930 H   0  0  0  0  0  0  0  0  0  0  0  0
    6.1246   26.3320    9.4777 C   0  0  0  0  0  0  0  0  0  0  0  0
    6.9168   25.2009   10.0824 C   0  0  0  0  0  0  0  0  0  0  0  0
    6.9774   28.6480    9.6062 N   0  0  0  0  0  0  0  0  0  0  0  0
    6.3147   27.5598   10.2374 C   0  0  0  0  0  0  0  0  0  0  0  0
    5.9393   27.7255   11.4095 O   0  0  0  0  0  0  0  0  0  0  0  0
    7.3282   28.5881    8.6504 H   0  0  0  0  0  0  0  0  0  0  0  0
    7.1923   29.8614   10.3549 C   0  0  0  0  0  0  0  0  0  0  0  0
    6.5134   31.0511    9.6047 C   0  0  0  0  0  0  0  0  0  0  0  0
    8.9602   31.5779   10.1019 C   0  0  0  0  0  0  0  0  0  0  0  0
    8.6386   30.1681   10.5518 C   0  0  0  0  0  0  0  0  0  0  0  0
    9.0493   29.9320   11.9992 C   0  0  0  0  0  0  0  0  0  0  0  0
    4.9698   26.3954    4.7088 C   0  0  0  0  0  0  0  0  0  0  0  0
    5.3254   27.5092    3.8573 C   0  0  0  0  0  0  0  0  0  0  0  0
    6.5860   27.9652    3.6307 C   0  0  0  0  0  0  0  0  0  0  0  0
    6.8676   29.0471    2.8159 C   0  0  0  0  0  0  0  0  0  0  0  0
    5.8159   29.6956    2.2041 C   0  0  0  0  0  0  0  0  0  0  0  0
    4.5342   29.2475    2.4221 C   0  0  0  0  0  0  0  0  0  0  0  0
    4.2586   28.1880    3.2178 C   0  0  0  0  0  0  0  0  0  0  0  0
   11.1784   24.9669    1.2288 C   0  0  0  0  0  0  0  0  0  0  0  0
   12.1584   24.7455    0.1970 C   0  0  0  0  0  0  0  0  0  0  0  0
   13.3066   24.0391    0.3834 C   0  0  0  0  0  0  0  0  0  0  0  0
   14.2300   23.8175   -0.5841 C   0  0  0  0  0  0  0  0  0  0  0  0
   14.0557   24.3125   -1.8807 C   0  0  0  0  0  0  0  0  0  0  0  0
   12.9093   25.0273   -2.1025 C   0  0  0  0  0  0  0  0  0  0  0  0
   11.9904   25.2380   -1.1015 C   0  0  0  0  0  0  0  0  0  0  0  0
 68 69  1  0  0  0
 69 70  1  0  0  0
 69 66  1  0  0  0
 66 62  1  0  0  0
 62 63  1  0  0  0
 63 64  2  0  0  0
 63 60  1  0  0  0
 60 61  1  0  0  0
 60 56  1  0  0  0
 56 57  1  0  0  0
 57 58  2  0  0  0
 57 55  1  0  0  0
 55 71  1  0  0  0
 71 72  1  0  0  0
 72 73  2  0  0  0
 73 74  1  0  0  0
 74 75  2  0  0  0
 75 76  1  0  0  0
 76 77  2  0  0  0
 55 51  1  0  0  0
 51 52  1  0  0  0
 52 53  2  0  0  0
 52 49  1  0  0  0
 49 50  1  0  0  0
 49 45  1  0  0  0
 45 46  1  0  0  0
 46 47  2  0  0  0
 46 44  1  0  0  0
 44 78  1  0  0  0
 78 79  1  0  0  0
 79 80  2  0  0  0
 80 81  1  0  0  0
 81 82  2  0  0  0
 82 83  1  0  0  0
 83 84  2  0  0  0
 44  1  1  0  0  0
  1  2  1  0  0  0
  2  3  2  0  0  0
  2  5  1  0  0  0
  5  6  1  0  0  0
  5  7  1  0  0  0
  7  8  1  0  0  0
  8  9  2  0  0  0
  8 11  1  0  0  0
 11 12  1  0  0  0
 11 13  1  0  0  0
 13 14  1  0  0  0
 14 15  2  0  0  0
 14 17  1  0  0  0
 17 18  1  0  0  0
 17 19  1  0  0  0
 19 20  1  0  0  0
 20 21  2  0  0  0
 20 23  1  0  0  0
 23 24  1  0  0  0
 23 25  1  0  0  0
 25 26  1  0  0  0
 26 27  2  0  0  0
 26 29  1  0  0  0
 29 30  1  0  0  0
 29 31  1  0  0  0
 31 32  1  0  0  0
 32 33  2  0  0  0
 32 35  1  0  0  0
 35 36  1  0  0  0
 35 37  1  0  0  0
 37 38  1  0  0  0
 38 39  2  0  0  0
 38 41  1  0  0  0
 41 42  1  0  0  0
 41 43  1  0  0  0
 66 67  1  0  0  0
 77 72  1  0  0  0
 84 79  1  0  0  0
 62 65  1  0  0  0
 56 59  1  0  0  0
 51 54  1  0  0  0
 45 48  1  0  0  0
  1  4  1  0  0  0
  7 10  1  0  0  0
 13 16  1  0  0  0
 19 22  1  0  0  0
 25 28  1  0  0  0
 31 34  1  0  0  0
 37 40  1  0  0  0
M  END
> <minimizedAffinity>
-7.82617

> <CNNscore>
0.0863380358

> <CNNaffinity>
7.2539148331

> <CNN_VS>
0.6262887716

> <CNNaffinity_variance>
1.0361804962

$$$$
[H]c1c([H])c([H])c(C([H])([H])[C@@]([H])(C(=O)N([H])[C@]([H])(C(=O)N([H])[C@]([H])(C(=O)N([H])[C@]([H])(C(=O)N([H])[C@]([H])(C([H])([H])[H])C([H])(C([H])([H])[H])C([H])([H])[H])C([H])([H])[H])C([H])([H])c2c([H])c([H])c([H])c([H])c2[H])C([H])([H])[H])N([H])C(=O)[C@@]([H])(N([H])C(=O)[C@@]([H])(N([H])C(=O)[C@@]([H])(N([H])C(=O)[C@@]([H])(N([H])C(=O)[C@@]([H])(N([H])C(=O)[C@@]([H])(N([H])C(=O)C([H])(C([H])([H])[H])C([H])([H])[H])C([H])([H])[H])C([H])([H])[H])C([H])([H])[H])C([H])([H])[H])C([H])([H])[H])C([H])([H])[H])c([H])c1[H]


 84 85  0  0  0  0  0  0  0  0999 V2000
    3.9879   18.2545    2.9151 N   0  0  0  0  0  0  0  0  0  0  0  0
    4.7849   17.3022    3.5320 C   0  0  0  0  0  0  0  0  0  0  0  0
    5.4171   16.5085    2.7004 O   0  0  0  0  0  0  0  0  0  0  0  0
    3.4394   18.9539    3.4116 H   0  0  0  0  0  0  0  0  0  0  0  0
    5.0164   17.0526    5.0030 C   0  0  0  0  0  0  0  0  0  0  0  0
    4.0955   17.7212    5.9057 C   0  0  0  0  0  0  0  0  0  0  0  0
    6.4193   17.5513    5.1472 N   0  0  0  0  0  0  0  0  0  0  0  0
    7.2058   17.0463    6.1933 C   0  0  0  0  0  0  0  0  0  0  0  0
    6.6246   16.1884    6.9971 O   0  0  0  0  0  0  0  0  0  0  0  0
    6.7291   18.2421    4.4547 H   0  0  0  0  0  0  0  0  0  0  0  0
    8.5973   17.3559    6.4583 C   0  0  0  0  0  0  0  0  0  0  0  0
    8.9653   17.1048    7.9279 C   0  0  0  0  0  0  0  0  0  0  0  0
    8.8626   18.7386    6.0856 N   0  0  0  0  0  0  0  0  0  0  0  0
    9.9022   19.2031    5.2727 C   0  0  0  0  0  0  0  0  0  0  0  0
   10.7089   18.3432    4.8283 O   0  0  0  0  0  0  0  0  0  0  0  0
    8.1856   19.4770    6.4789 H   0  0  0  0  0  0  0  0  0  0  0  0
   10.0705   20.6632    4.9261 C   0  0  0  0  0  0  0  0  0  0  0  0
   11.4440   21.0647    4.6028 C   0  0  0  0  0  0  0  0  0  0  0  0
    9.3258   21.5296    5.7978 N   0  0  0  0  0  0  0  0  0  0  0  0
    7.9693   21.7745    5.8302 C   0  0  0  0  0  0  0  0  0  0  0  0
    7.1462   21.1813    5.0637 O   0  0  0  0  0  0  0  0  0  0  0  0
    9.9455   22.0553    6.5157 H   0  0  0  0  0  0  0  0  0  0  0  0
    7.2967   22.7792    6.7738 C   0  0  0  0  0  0  0  0  0  0  0  0
    8.1985   23.9456    6.8654 C   0  0  0  0  0  0  0  0  0  0  0  0
    7.2951   22.0737    8.0604 N   0  0  0  0  0  0  0  0  0  0  0  0
    6.2645   21.2464    8.4724 C   0  0  0  0  0  0  0  0  0  0  0  0
    5.2330   21.1120    7.7385 O   0  0  0  0  0  0  0  0  0  0  0  0
    8.1481   22.2092    8.6975 H   0  0  0  0  0  0  0  0  0  0  0  0
    6.3231   20.5004    9.7403 C   0  0  0  0  0  0  0  0  0  0  0  0
    7.7475   20.6510   10.3189 C   0  0  0  0  0  0  0  0  0  0  0  0
    6.1167   19.0643    9.5945 N   0  0  0  0  0  0  0  0  0  0  0  0
    5.2931   18.3019   10.4053 C   0  0  0  0  0  0  0  0  0  0  0  0
    4.6581   18.9086   11.3408 O   0  0  0  0  0  0  0  0  0  0  0  0
    6.6477   18.5961    8.8147 H   0  0  0  0  0  0  0  0  0  0  0  0
    5.0841   16.8259   10.2831 C   0  0  0  0  0  0  0  0  0  0  0  0
    3.6587   16.3934   10.4074 C   0  0  0  0  0  0  0  0  0  0  0  0
    6.0046   16.0654   11.0871 N   0  0  0  0  0  0  0  0  0  0  0  0
    6.6668   14.8890   10.6675 C   0  0  0  0  0  0  0  0  0  0  0  0
    6.4503   14.4518    9.5231 O   0  0  0  0  0  0  0  0  0  0  0  0
    6.2340   16.3836   12.0800 H   0  0  0  0  0  0  0  0  0  0  0  0
    7.6043   14.1749   11.5469 C   0  0  0  0  0  0  0  0  0  0  0  0
    8.9357   14.8446   11.4641 C   0  0  0  0  0  0  0  0  0  0  0  0
    7.0980   14.1316   12.9928 C   0  0  0  0  0  0  0  0  0  0  0  0
    3.9458   18.2060    1.4446 C   0  0  0  0  0  0  0  0  0  0  0  0
    5.2734   19.0191   -0.4492 N   0  0  0  0  0  0  0  0  0  0  0  0
    4.7274   19.2452    0.8246 C   0  0  0  0  0  0  0  0  0  0  0  0
    4.8924   20.3185    1.4650 O   0  0  0  0  0  0  0  0  0  0  0  0
    5.0949   18.0739   -0.9029 H   0  0  0  0  0  0  0  0  0  0  0  0
    6.0801   20.0029   -1.1614 C   0  0  0  0  0  0  0  0  0  0  0  0
    5.5476   21.3691   -1.1134 C   0  0  0  0  0  0  0  0  0  0  0  0
    8.2154   20.7629    0.1049 N   0  0  0  0  0  0  0  0  0  0  0  0
    7.4507   19.8161   -0.5577 C   0  0  0  0  0  0  0  0  0  0  0  0
    7.8480   18.6096   -0.7199 O   0  0  0  0  0  0  0  0  0  0  0  0
    9.1561   19.7763    0.3662 H   0  0  0  0  0  0  0  0  0  0  0  0
    9.0300   21.6283    0.7739 C   0  0  0  0  0  0  0  0  0  0  0  0
   11.4126   22.1567    0.0804 N   0  0  0  0  0  0  0  0  0  0  0  0
   10.5118   21.3474    0.6790 C   0  0  0  0  0  0  0  0  0  0  0  0
   10.8335   20.2471    1.2487 O   0  0  0  0  0  0  0  0  0  0  0  0
   10.9632   23.1414   -0.2206 H   0  0  0  0  0  0  0  0  0  0  0  0
   12.7876   22.1340   -0.1874 C   0  0  0  0  0  0  0  0  0  0  0  0
   13.1219   21.0167   -1.1427 C   0  0  0  0  0  0  0  0  0  0  0  0
   13.4901   23.8234   -1.8487 N   0  0  0  0  0  0  0  0  0  0  0  0
   13.5422   23.3359   -0.5139 C   0  0  0  0  0  0  0  0  0  0  0  0
   14.2376   23.9703    0.2961 O   0  0  0  0  0  0  0  0  0  0  0  0
   12.9531   23.3529   -2.5770 H   0  0  0  0  0  0  0  0  0  0  0  0
   14.2509   24.9995   -2.1907 C   0  0  0  0  0  0  0  0  0  0  0  0
   13.4143   25.8811   -3.1716 C   0  0  0  0  0  0  0  0  0  0  0  0
   15.3657   24.0210   -4.1745 C   0  0  0  0  0  0  0  0  0  0  0  0
   15.5622   24.6738   -2.8222 C   0  0  0  0  0  0  0  0  0  0  0  0
   16.4391   25.9153   -2.9189 C   0  0  0  0  0  0  0  0  0  0  0  0
    8.4573   22.0462    2.0656 C   0  0  0  0  0  0  0  0  0  0  0  0
    8.5259   23.4111    2.5391 C   0  0  0  0  0  0  0  0  0  0  0  0
    9.6421   24.1869    2.5681 C   0  0  0  0  0  0  0  0  0  0  0  0
    9.6531   25.4847    3.0467 C   0  0  0  0  0  0  0  0  0  0  0  0
    8.4723   26.0170    3.5190 C   0  0  0  0  0  0  0  0  0  0  0  0
    7.3335   25.2464    3.4970 C   0  0  0  0  0  0  0  0  0  0  0  0
    7.3222   23.9772    3.0271 C   0  0  0  0  0  0  0  0  0  0  0  0
    2.4835   18.0485    1.0581 C   0  0  0  0  0  0  0  0  0  0  0  0
    2.1627   18.0549   -0.3458 C   0  0  0  0  0  0  0  0  0  0  0  0
    1.7659   19.1649   -1.0260 C   0  0  0  0  0  0  0  0  0  0  0  0
    1.4711   19.1826   -2.3491 C   0  0  0  0  0  0  0  0  0  0  0  0
    1.5626   18.0247   -3.1285 C   0  0  0  0  0  0  0  0  0  0  0  0
    1.9606   16.8894   -2.4746 C   0  0  0  0  0  0  0  0  0  0  0  0
    2.2517   16.9005   -1.1308 C   0  0  0  0  0  0  0  0  0  0  0  0
 68 69  1  0  0  0
 69 70  1  0  0  0
 69 66  1  0  0  0
 66 62  1  0  0  0
 62 63  1  0  0  0
 63 64  2  0  0  0
 63 60  1  0  0  0
 60 61  1  0  0  0
 60 56  1  0  0  0
 56 57  1  0  0  0
 57 58  2  0  0  0
 57 55  1  0  0  0
 55 71  1  0  0  0
 71 72  1  0  0  0
 72 73  2  0  0  0
 73 74  1  0  0  0
 74 75  2  0  0  0
 75 76  1  0  0  0
 76 77  2  0  0  0
 55 51  1  0  0  0
 51 52  1  0  0  0
 52 53  2  0  0  0
 52 49  1  0  0  0
 49 50  1  0  0  0
 49 45  1  0  0  0
 45 46  1  0  0  0
 46 47  2  0  0  0
 46 44  1  0  0  0
 44 78  1  0  0  0
 78 79  1  0  0  0
 79 80  2  0  0  0
 80 81  1  0  0  0
 81 82  2  0  0  0
 82 83  1  0  0  0
 83 84  2  0  0  0
 44  1  1  0  0  0
  1  2  1  0  0  0
  2  3  2  0  0  0
  2  5  1  0  0  0
  5  6  1  0  0  0
  5  7  1  0  0  0
  7  8  1  0  0  0
  8  9  2  0  0  0
  8 11  1  0  0  0
 11 12  1  0  0  0
 11 13  1  0  0  0
 13 14  1  0  0  0
 14 15  2  0  0  0
 14 17  1  0  0  0
 17 18  1  0  0  0
 17 19  1  0  0  0
 19 20  1  0  0  0
 20 21  2  0  0  0
 20 23  1  0  0  0
 23 24  1  0  0  0
 23 25  1  0  0  0
 25 26  1  0  0  0
 26 27  2  0  0  0
 26 29  1  0  0  0
 29 30  1  0  0  0
 29 31  1  0  0  0
 31 32  1  0  0  0
 32 33  2  0  0  0
 32 35  1  0  0  0
 35 36  1  0  0  0
 35 37  1  0  0  0
 37 38  1  0  0  0
 38 39  2  0  0  0
 38 41  1  0  0  0
 41 42  1  0  0  0
 41 43  1  0  0  0
 66 67  1  0  0  0
 77 72  1  0  0  0
 84 79  1  0  0  0
 62 65  1  0  0  0
 56 59  1  0  0  0
 51 54  1  0  0  0
 45 48  1  0  0  0
  1  4  1  0  0  0
  7 10  1  0  0  0
 13 16  1  0  0  0
 19 22  1  0  0  0
 25 28  1  0  0  0
 31 34  1  0  0  0
 37 40  1  0  0  0
M  END
> <minimizedAffinity>
-8.13199

> <CNNscore>
0.0724215358

> <CNNaffinity>
7.5883913040

> <CNN_VS>
0.5495629311

> <CNNaffinity_variance>
1.2900635004

$$$$
[H]c1c([H])c([H])c(C([H])([H])[C@@]([H])(C(=O)N([H])[C@]([H])(C(=O)N([H])[C@]([H])(C(=O)N([H])[C@]([H])(C(=O)N([H])[C@]([H])(C(=O)N([H])[C@]([H])(C([H])([H])[H])C([H])(C([H])([H])[H])C([H])([H])[H])C([H])([H])[H])C([H])([H])c2c([H])c([H])c([H])c([H])c2[H])C([H])([H])[H])C([H])([H])[H])N([H])C(=O)[C@@]([H])(N([H])C(=O)[C@@]([H])(N([H])C(=O)[C@@]([H])(N([H])C(=O)[C@@]([H])(N([H])C(=O)[C@@]([H])(N([H])C(=O)C([H])(C([H])([H])[H])C([H])([H])[H])C([H])([H])[H])C([H])([H])[H])C([H])([H])[H])C([H])([H])[H])C([H])([H])[H])c([H])c1[H]


 84 85  0  0  0  0  0  0  0  0999 V2000
    3.0916   17.2324    0.2731 C   0  0  0  0  0  0  0  0  0  0  0  0
    3.7284   16.8243    1.5100 N   0  0  0  0  0  0  0  0  0  0  0  0
    4.6211   17.6089    2.2392 C   0  0  0  0  0  0  0  0  0  0  0  0
    4.9410   18.7529    1.8744 O   0  0  0  0  0  0  0  0  0  0  0  0
    3.4884   15.8775    1.8656 H   0  0  0  0  0  0  0  0  0  0  0  0
    5.2446   17.0871    3.5089 C   0  0  0  0  0  0  0  0  0  0  0  0
    5.9394   15.7899    3.3081 C   0  0  0  0  0  0  0  0  0  0  0  0
    4.2456   17.0103    4.5570 N   0  0  0  0  0  0  0  0  0  0  0  0
    4.5745   17.0580    5.9159 C   0  0  0  0  0  0  0  0  0  0  0  0
    5.8058   17.1875    6.2399 O   0  0  0  0  0  0  0  0  0  0  0  0
    3.2420   16.9157    4.3146 H   0  0  0  0  0  0  0  0  0  0  0  0
    3.6273   16.9758    7.0576 C   0  0  0  0  0  0  0  0  0  0  0  0
    2.8229   18.2168    7.1416 C   0  0  0  0  0  0  0  0  0  0  0  0
    4.2573   16.5601    8.2642 N   0  0  0  0  0  0  0  0  0  0  0  0
    4.4278   15.2114    8.6416 C   0  0  0  0  0  0  0  0  0  0  0  0
    4.0746   14.2346    7.9896 O   0  0  0  0  0  0  0  0  0  0  0  0
    4.6030   17.3291    8.8931 H   0  0  0  0  0  0  0  0  0  0  0  0
    5.1090   14.9895    9.9752 C   0  0  0  0  0  0  0  0  0  0  0  0
    4.2562   15.2909   11.1403 C   0  0  0  0  0  0  0  0  0  0  0  0
    6.3327   15.7653    9.9522 N   0  0  0  0  0  0  0  0  0  0  0  0
    7.5986   15.1836    9.8688 C   0  0  0  0  0  0  0  0  0  0  0  0
    7.7313   13.9311    9.7910 O   0  0  0  0  0  0  0  0  0  0  0  0
    6.2004   16.8062   10.0018 H   0  0  0  0  0  0  0  0  0  0  0  0
    8.8769   15.9581    9.8635 C   0  0  0  0  0  0  0  0  0  0  0  0
    9.5458   15.8405   11.1669 C   0  0  0  0  0  0  0  0  0  0  0  0
    8.6022   17.3144    9.4961 N   0  0  0  0  0  0  0  0  0  0  0  0
    8.7896   17.8811    8.2266 C   0  0  0  0  0  0  0  0  0  0  0  0
    9.2393   17.1395    7.3155 O   0  0  0  0  0  0  0  0  0  0  0  0
    8.2233   17.9706   10.2476 H   0  0  0  0  0  0  0  0  0  0  0  0
    8.4690   19.3135    7.9422 C   0  0  0  0  0  0  0  0  0  0  0  0
    7.9220   19.9328    9.2067 C   0  0  0  0  0  0  0  0  0  0  0  0
    7.4626   19.3781    6.9223 N   0  0  0  0  0  0  0  0  0  0  0  0
    7.5343   20.3677    5.8902 C   0  0  0  0  0  0  0  0  0  0  0  0
    8.4880   21.1634    5.9015 O   0  0  0  0  0  0  0  0  0  0  0  0
    6.6655   18.7176    6.9046 H   0  0  0  0  0  0  0  0  0  0  0  0
    6.5019   20.4436    4.8351 C   0  0  0  0  0  0  0  0  0  0  0  0
    5.1094   20.6001    5.4624 C   0  0  0  0  0  0  0  0  0  0  0  0
    6.7479   21.6829    3.9971 C   0  0  0  0  0  0  0  0  0  0  0  0
    4.5973   18.8284   -1.0203 N   0  0  0  0  0  0  0  0  0  0  0  0
    4.0818   17.5359   -0.7633 C   0  0  0  0  0  0  0  0  0  0  0  0
    4.5106   16.5919   -1.4737 O   0  0  0  0  0  0  0  0  0  0  0  0
    4.2479   19.6470   -0.4786 H   0  0  0  0  0  0  0  0  0  0  0  0
    5.6253   19.0373   -2.0482 C   0  0  0  0  0  0  0  0  0  0  0  0
    5.2583   20.3137   -2.8306 C   0  0  0  0  0  0  0  0  0  0  0  0
    7.5740   20.4938   -1.2125 N   0  0  0  0  0  0  0  0  0  0  0  0
    6.8773   19.2752   -1.3352 C   0  0  0  0  0  0  0  0  0  0  0  0
    7.4024   18.2489   -0.7553 O   0  0  0  0  0  0  0  0  0  0  0  0
    7.2276   21.3597   -1.6802 H   0  0  0  0  0  0  0  0  0  0  0  0
    8.7906   20.4577   -0.4138 C   0  0  0  0  0  0  0  0  0  0  0  0
   10.0208   20.5226   -1.3249 C   0  0  0  0  0  0  0  0  0  0  0  0
   10.0921   22.2082    0.8131 N   0  0  0  0  0  0  0  0  0  0  0  0
    8.8466   21.6980    0.4047 C   0  0  0  0  0  0  0  0  0  0  0  0
    7.7381   22.2180    0.6871 O   0  0  0  0  0  0  0  0  0  0  0  0
   10.9432   21.6248    0.5124 H   0  0  0  0  0  0  0  0  0  0  0  0
   10.3263   23.4032    1.5816 C   0  0  0  0  0  0  0  0  0  0  0  0
   12.7322   23.4277    0.6732 N   0  0  0  0  0  0  0  0  0  0  0  0
   11.5542   24.0077    1.1379 C   0  0  0  0  0  0  0  0  0  0  0  0
   11.5747   25.3135    1.1443 O   0  0  0  0  0  0  0  0  0  0  0  0
   12.8500   22.4112    0.6077 H   0  0  0  0  0  0  0  0  0  0  0  0
   13.8902   24.2037    0.1982 C   0  0  0  0  0  0  0  0  0  0  0  0
   15.1675   23.5549    0.5425 C   0  0  0  0  0  0  0  0  0  0  0  0
   14.5991   24.9600   -2.1224 N   0  0  0  0  0  0  0  0  0  0  0  0
   13.7336   24.2149   -1.3024 C   0  0  0  0  0  0  0  0  0  0  0  0
   12.8126   23.5405   -1.8108 O   0  0  0  0  0  0  0  0  0  0  0  0
   15.3656   25.5072   -1.7360 H   0  0  0  0  0  0  0  0  0  0  0  0
   14.3771   24.9304   -3.5763 C   0  0  0  0  0  0  0  0  0  0  0  0
   15.4407   24.0054   -4.1827 C   0  0  0  0  0  0  0  0  0  0  0  0
   14.8530   26.1959   -5.6664 C   0  0  0  0  0  0  0  0  0  0  0  0
   14.4551   26.2687   -4.2190 C   0  0  0  0  0  0  0  0  0  0  0  0
   13.0934   26.9225   -4.0897 C   0  0  0  0  0  0  0  0  0  0  0  0
    9.9134   23.3847    2.9935 C   0  0  0  0  0  0  0  0  0  0  0  0
    8.9657   24.4990    3.3726 C   0  0  0  0  0  0  0  0  0  0  0  0
    8.9716   24.8668    4.7300 C   0  0  0  0  0  0  0  0  0  0  0  0
    8.1888   25.8988    5.1855 C   0  0  0  0  0  0  0  0  0  0  0  0
    7.3818   26.5923    4.3119 C   0  0  0  0  0  0  0  0  0  0  0  0
    7.3853   26.2281    3.0032 C   0  0  0  0  0  0  0  0  0  0  0  0
    8.1689   25.1906    2.5304 C   0  0  0  0  0  0  0  0  0  0  0  0
    2.2659   18.5214    0.5801 C   0  0  0  0  0  0  0  0  0  0  0  0
    0.8453   18.2062    0.6536 C   0  0  0  0  0  0  0  0  0  0  0  0
    0.0849   18.6591    1.7119 C   0  0  0  0  0  0  0  0  0  0  0  0
   -1.2570   18.4030    1.8275 C   0  0  0  0  0  0  0  0  0  0  0  0
   -1.8881   17.6634    0.8555 C   0  0  0  0  0  0  0  0  0  0  0  0
   -1.1712   17.1920   -0.2144 C   0  0  0  0  0  0  0  0  0  0  0  0
    0.2019   17.4696   -0.3077 C   0  0  0  0  0  0  0  0  0  0  0  0
 68 69  1  0  0  0
 69 70  1  0  0  0
 69 66  1  0  0  0
 66 62  1  0  0  0
 62 63  1  0  0  0
 63 64  2  0  0  0
 63 60  1  0  0  0
 60 61  1  0  0  0
 60 56  1  0  0  0
 56 57  1  0  0  0
 57 58  2  0  0  0
 57 55  1  0  0  0
 55 71  1  0  0  0
 71 72  1  0  0  0
 72 73  2  0  0  0
 73 74  1  0  0  0
 74 75  2  0  0  0
 75 76  1  0  0  0
 76 77  2  0  0  0
 55 51  1  0  0  0
 51 52  1  0  0  0
 52 53  2  0  0  0
 52 49  1  0  0  0
 49 50  1  0  0  0
 49 45  1  0  0  0
 45 46  1  0  0  0
 46 47  2  0  0  0
 46 43  1  0  0  0
 43 44  1  0  0  0
 43 39  1  0  0  0
 39 40  1  0  0  0
 40 41  2  0  0  0
 40  1  1  0  0  0
  1 78  1  0  0  0
 78 79  1  0  0  0
 79 80  2  0  0  0
 80 81  1  0  0  0
 81 82  2  0  0  0
 82 83  1  0  0  0
 83 84  2  0  0  0
  1  2  1  0  0  0
  2  3  1  0  0  0
  3  4  2  0  0  0
  3  6  1  0  0  0
  6  7  1  0  0  0
  6  8  1  0  0  0
  8  9  1  0  0  0
  9 10  2  0  0  0
  9 12  1  0  0  0
 12 13  1  0  0  0
 12 14  1  0  0  0
 14 15  1  0  0  0
 15 16  2  0  0  0
 15 18  1  0  0  0
 18 19  1  0  0  0
 18 20  1  0  0  0
 20 21  1  0  0  0
 21 22  2  0  0  0
 21 24  1  0  0  0
 24 25  1  0  0  0
 24 26  1  0  0  0
 26 27  1  0  0  0
 27 28  2  0  0  0
 27 30  1  0  0  0
 30 31  1  0  0  0
 30 32  1  0  0  0
 32 33  1  0  0  0
 33 34  2  0  0  0
 33 36  1  0  0  0
 36 37  1  0  0  0
 36 38  1  0  0  0
 66 67  1  0  0  0
 77 72  1  0  0  0
 84 79  1  0  0  0
 62 65  1  0  0  0
 56 59  1  0  0  0
 51 54  1  0  0  0
 45 48  1  0  0  0
 39 42  1  0  0  0
  2  5  1  0  0  0
  8 11  1  0  0  0
 14 17  1  0  0  0
 20 23  1  0  0  0
 26 29  1  0  0  0
 32 35  1  0  0  0
M  END
> <minimizedAffinity>
-8.65265

> <CNNscore>
0.1304460317

> <CNNaffinity>
7.5893120766

> <CNN_VS>
0.9899956584

> <CNNaffinity_variance>
0.8954637647

$$$$
[H]c1c([H])c([H])c(C([H])([H])[C@@]([H])(C(=O)N([H])[C@]([H])(C(=O)N([H])[C@]([H])(C(=O)N([H])[C@]([H])(C(=O)N([H])[C@]([H])(C(=O)N([H])[C@]([H])(C([H])([H])[H])C([H])(C([H])([H])[H])C([H])([H])[H])C([H])([H])[H])C([H])([H])c2c([H])c([H])c([H])c([H])c2[H])C([H])([H])[H])C([H])([H])[H])N([H])C(=O)[C@@]([H])(N([H])C(=O)[C@@]([H])(N([H])C(=O)[C@@]([H])(N([H])C(=O)[C@@]([H])(N([H])C(=O)[C@@]([H])(N([H])C(=O)C([H])(C([H])([H])[H])C([H])([H])[H])C([H])([H])[H])C([H])([H])[H])C([H])([H])[H])C([H])([H])[H])C([H])([H])[H])c([H])c1[H]


 84 85  0  0  0  0  0  0  0  0999 V2000
   10.8150   23.2261   -0.2307 C   0  0  0  0  0  0  0  0  0  0  0  0
    9.8086   22.2943   -0.7007 N   0  0  0  0  0  0  0  0  0  0  0  0
    9.5811   21.0310   -0.1560 C   0  0  0  0  0  0  0  0  0  0  0  0
   10.2403   20.6009    0.8055 O   0  0  0  0  0  0  0  0  0  0  0  0
    9.2218   22.6082   -1.4991 H   0  0  0  0  0  0  0  0  0  0  0  0
    8.5185   20.1267   -0.7273 C   0  0  0  0  0  0  0  0  0  0  0  0
    8.5183   20.1196   -2.2125 C   0  0  0  0  0  0  0  0  0  0  0  0
    7.2210   20.4828   -0.1868 N   0  0  0  0  0  0  0  0  0  0  0  0
    6.2762   19.5249    0.1963 C   0  0  0  0  0  0  0  0  0  0  0  0
    6.5800   18.2876    0.0745 O   0  0  0  0  0  0  0  0  0  0  0  0
    6.9604   21.4795   -0.0708 H   0  0  0  0  0  0  0  0  0  0  0  0
    4.9221   19.7905    0.7472 C   0  0  0  0  0  0  0  0  0  0  0  0
    4.3807   21.0481    0.1818 C   0  0  0  0  0  0  0  0  0  0  0  0
    4.8742   19.6746    2.1648 N   0  0  0  0  0  0  0  0  0  0  0  0
    5.9364   20.0312    3.0223 C   0  0  0  0  0  0  0  0  0  0  0  0
    7.0177   20.4908    2.6710 O   0  0  0  0  0  0  0  0  0  0  0  0
    3.9801   19.2935    2.5669 H   0  0  0  0  0  0  0  0  0  0  0  0
    5.6833   19.8117    4.4986 C   0  0  0  0  0  0  0  0  0  0  0  0
    4.8198   18.6524    4.7920 C   0  0  0  0  0  0  0  0  0  0  0  0
    5.1574   21.0570    5.0209 N   0  0  0  0  0  0  0  0  0  0  0  0
    5.1721   21.3767    6.3793 C   0  0  0  0  0  0  0  0  0  0  0  0
    5.6706   20.5839    7.2252 O   0  0  0  0  0  0  0  0  0  0  0  0
    4.7616   21.7099    4.2995 H   0  0  0  0  0  0  0  0  0  0  0  0
    4.6190   22.6438    6.9470 C   0  0  0  0  0  0  0  0  0  0  0  0
    3.2084   22.7973    6.5637 C   0  0  0  0  0  0  0  0  0  0  0  0
    5.4356   23.7421    6.5264 N   0  0  0  0  0  0  0  0  0  0  0  0
    5.6542   24.9303    7.2394 C   0  0  0  0  0  0  0  0  0  0  0  0
    5.0871   25.0558    8.3551 O   0  0  0  0  0  0  0  0  0  0  0  0
    5.9275   23.6684    5.5822 H   0  0  0  0  0  0  0  0  0  0  0  0
    6.5302   26.0215    6.7130 C   0  0  0  0  0  0  0  0  0  0  0  0
    7.1764   26.7143    7.8895 C   0  0  0  0  0  0  0  0  0  0  0  0
    5.7248   26.9715    6.0017 N   0  0  0  0  0  0  0  0  0  0  0  0
    6.2661   27.7019    4.8958 C   0  0  0  0  0  0  0  0  0  0  0  0
    7.4459   27.4901    4.5701 O   0  0  0  0  0  0  0  0  0  0  0  0
    4.7401   27.1526    6.2655 H   0  0  0  0  0  0  0  0  0  0  0  0
    5.4449   28.6839    4.1567 C   0  0  0  0  0  0  0  0  0  0  0  0
    6.3458   29.6574    3.3836 C   0  0  0  0  0  0  0  0  0  0  0  0
    4.6089   27.9480    3.1281 C   0  0  0  0  0  0  0  0  0  0  0  0
    9.3590   23.4411    1.8481 N   0  0  0  0  0  0  0  0  0  0  0  0
   10.3810   23.9113    0.9896 C   0  0  0  0  0  0  0  0  0  0  0  0
   10.9507   24.9862    1.3053 O   0  0  0  0  0  0  0  0  0  0  0  0
    8.8366   22.5716    1.6104 H   0  0  0  0  0  0  0  0  0  0  0  0
    9.0186   24.1659    3.0792 C   0  0  0  0  0  0  0  0  0  0  0  0
    7.7774   25.0328    2.7890 C   0  0  0  0  0  0  0  0  0  0  0  0
    9.5067   22.2148    4.6831 N   0  0  0  0  0  0  0  0  0  0  0  0
    8.6552   23.1526    4.0658 C   0  0  0  0  0  0  0  0  0  0  0  0
    7.4109   23.1142    4.4059 O   0  0  0  0  0  0  0  0  0  0  0  0
   10.5191   22.1646    4.4355 H   0  0  0  0  0  0  0  0  0  0  0  0
    8.8857   21.3331    5.6609 C   0  0  0  0  0  0  0  0  0  0  0  0
    9.5453   19.9507    5.6172 C   0  0  0  0  0  0  0  0  0  0  0  0
    8.1601   21.9151    7.9843 N   0  0  0  0  0  0  0  0  0  0  0  0
    9.1815   21.8627    7.0186 C   0  0  0  0  0  0  0  0  0  0  0  0
   10.3632   22.2433    7.2124 O   0  0  0  0  0  0  0  0  0  0  0  0
    7.1969   21.5788    7.6461 H   0  0  0  0  0  0  0  0  0  0  0  0
    8.2800   22.3715    9.3447 C   0  0  0  0  0  0  0  0  0  0  0  0
    6.3601   20.7796    9.9725 N   0  0  0  0  0  0  0  0  0  0  0  0
    7.5417   21.4808   10.2003 C   0  0  0  0  0  0  0  0  0  0  0  0
    8.0648   21.2670   11.3777 O   0  0  0  0  0  0  0  0  0  0  0  0
    5.8478   20.8484    9.0869 H   0  0  0  0  0  0  0  0  0  0  0  0
    5.7617   19.8529   10.9482 C   0  0  0  0  0  0  0  0  0  0  0  0
    4.2921   19.9551   10.9763 C   0  0  0  0  0  0  0  0  0  0  0  0
    6.7318   18.3141    9.1732 N   0  0  0  0  0  0  0  0  0  0  0  0
    6.1495   18.4857   10.4412 C   0  0  0  0  0  0  0  0  0  0  0  0
    5.9446   17.4968   11.1771 O   0  0  0  0  0  0  0  0  0  0  0  0
    6.9222   19.1033    8.5589 H   0  0  0  0  0  0  0  0  0  0  0  0
    7.0729   16.9493    8.7432 C   0  0  0  0  0  0  0  0  0  0  0  0
    8.5776   16.7590    8.9760 C   0  0  0  0  0  0  0  0  0  0  0  0
    7.9724   16.4004    6.4879 C   0  0  0  0  0  0  0  0  0  0  0  0
    6.7501   16.6746    7.3183 C   0  0  0  0  0  0  0  0  0  0  0  0
    5.8195   15.4784    7.2786 C   0  0  0  0  0  0  0  0  0  0  0  0
    8.3290   23.8255    9.5628 C   0  0  0  0  0  0  0  0  0  0  0  0
    9.5424   24.2921   10.3333 C   0  0  0  0  0  0  0  0  0  0  0  0
    9.5624   25.6580   10.6673 C   0  0  0  0  0  0  0  0  0  0  0  0
   10.5892   26.1891   11.4081 C   0  0  0  0  0  0  0  0  0  0  0  0
   11.6206   25.3841   11.8370 C   0  0  0  0  0  0  0  0  0  0  0  0
   11.5897   24.0664   11.5086 C   0  0  0  0  0  0  0  0  0  0  0  0
   10.5615   23.5180   10.7630 C   0  0  0  0  0  0  0  0  0  0  0  0
   11.0301   24.2841   -1.3584 C   0  0  0  0  0  0  0  0  0  0  0  0
   12.4446   24.3863   -1.6926 C   0  0  0  0  0  0  0  0  0  0  0  0
   13.3584   23.5210   -1.1275 C   0  0  0  0  0  0  0  0  0  0  0  0
   14.6987   23.5632   -1.4133 C   0  0  0  0  0  0  0  0  0  0  0  0
   15.1695   24.5033   -2.2990 C   0  0  0  0  0  0  0  0  0  0  0  0
   14.2970   25.3846   -2.8844 C   0  0  0  0  0  0  0  0  0  0  0  0
   12.9294   25.3185   -2.5739 C   0  0  0  0  0  0  0  0  0  0  0  0
 68 69  1  0  0  0
 69 70  1  0  0  0
 69 66  1  0  0  0
 66 62  1  0  0  0
 62 63  1  0  0  0
 63 64  2  0  0  0
 63 60  1  0  0  0
 60 61  1  0  0  0
 60 56  1  0  0  0
 56 57  1  0  0  0
 57 58  2  0  0  0
 57 55  1  0  0  0
 55 71  1  0  0  0
 71 72  1  0  0  0
 72 73  2  0  0  0
 73 74  1  0  0  0
 74 75  2  0  0  0
 75 76  1  0  0  0
 76 77  2  0  0  0
 55 51  1  0  0  0
 51 52  1  0  0  0
 52 53  2  0  0  0
 52 49  1  0  0  0
 49 50  1  0  0  0
 49 45  1  0  0  0
 45 46  1  0  0  0
 46 47  2  0  0  0
 46 43  1  0  0  0
 43 44  1  0  0  0
 43 39  1  0  0  0
 39 40  1  0  0  0
 40 41  2  0  0  0
 40  1  1  0  0  0
  1 78  1  0  0  0
 78 79  1  0  0  0
 79 80  2  0  0  0
 80 81  1  0  0  0
 81 82  2  0  0  0
 82 83  1  0  0  0
 83 84  2  0  0  0
  1  2  1  0  0  0
  2  3  1  0  0  0
  3  4  2  0  0  0
  3  6  1  0  0  0
  6  7  1  0  0  0
  6  8  1  0  0  0
  8  9  1  0  0  0
  9 10  2  0  0  0
  9 12  1  0  0  0
 12 13  1  0  0  0
 12 14  1  0  0  0
 14 15  1  0  0  0
 15 16  2  0  0  0
 15 18  1  0  0  0
 18 19  1  0  0  0
 18 20  1  0  0  0
 20 21  1  0  0  0
 21 22  2  0  0  0
 21 24  1  0  0  0
 24 25  1  0  0  0
 24 26  1  0  0  0
 26 27  1  0  0  0
 27 28  2  0  0  0
 27 30  1  0  0  0
 30 31  1  0  0  0
 30 32  1  0  0  0
 32 33  1  0  0  0
 33 34  2  0  0  0
 33 36  1  0  0  0
 36 37  1  0  0  0
 36 38  1  0  0  0
 66 67  1  0  0  0
 77 72  1  0  0  0
 84 79  1  0  0  0
 62 65  1  0  0  0
 56 59  1  0  0  0
 51 54  1  0  0  0
 45 48  1  0  0  0
 39 42  1  0  0  0
  2  5  1  0  0  0
  8 11  1  0  0  0
 14 17  1  0  0  0
 20 23  1  0  0  0
 26 29  1  0  0  0
 32 35  1  0  0  0
M  END
> <minimizedAffinity>
-7.52468

> <CNNscore>
0.0996989831

> <CNNaffinity>
7.1473402977

> <CNN_VS>
0.7125825882

> <CNNaffinity_variance>
2.0146880150

$$$$
[H]c1c([H])c([H])c(C([H])([H])[C@@]([H])(C(=O)N([H])[C@]([H])(C(=O)N([H])[C@]([H])(C(=O)N([H])[C@]([H])(C(=O)N([H])[C@]([H])(C(=O)N([H])[C@]([H])(C([H])([H])[H])C([H])(C([H])([H])[H])C([H])([H])[H])C([H])([H])[H])C([H])([H])c2c([H])c([H])c([H])c([H])c2[H])C([H])([H])[H])C([H])([H])[H])N([H])C(=O)[C@@]([H])(N([H])C(=O)[C@@]([H])(N([H])C(=O)[C@@]([H])(N([H])C(=O)[C@@]([H])(N([H])C(=O)[C@@]([H])(N([H])C(=O)C([H])(C([H])([H])[H])C([H])([H])[H])C([H])([H])[H])C([H])([H])[H])C([H])([H])[H])C([H])([H])[H])C([H])([H])[H])c([H])c1[H]


 84 85  0  0  0  0  0  0  0  0999 V2000
    6.7319   24.4791    7.2874 C   0  0  0  0  0  0  0  0  0  0  0  0
    5.3621   24.7129    7.7006 N   0  0  0  0  0  0  0  0  0  0  0  0
    4.7582   25.9677    7.7724 C   0  0  0  0  0  0  0  0  0  0  0  0
    5.3669   27.0086    7.4723 O   0  0  0  0  0  0  0  0  0  0  0  0
    4.8039   23.8737    7.9546 H   0  0  0  0  0  0  0  0  0  0  0  0
    3.3289   26.1089    8.2308 C   0  0  0  0  0  0  0  0  0  0  0  0
    2.9741   27.5136    8.5576 C   0  0  0  0  0  0  0  0  0  0  0  0
    3.0734   25.2128    9.3417 N   0  0  0  0  0  0  0  0  0  0  0  0
    1.9444   24.3889    9.4005 C   0  0  0  0  0  0  0  0  0  0  0  0
    1.1150   24.4225    8.4263 O   0  0  0  0  0  0  0  0  0  0  0  0
    3.7387   25.1636   10.1353 H   0  0  0  0  0  0  0  0  0  0  0  0
    1.5918   23.4502   10.4968 C   0  0  0  0  0  0  0  0  0  0  0  0
    1.1962   24.2073   11.7071 C   0  0  0  0  0  0  0  0  0  0  0  0
    2.5737   22.4382   10.6896 N   0  0  0  0  0  0  0  0  0  0  0  0
    2.5921   21.2129    9.9905 C   0  0  0  0  0  0  0  0  0  0  0  0
    1.7887   20.8656    9.1315 O   0  0  0  0  0  0  0  0  0  0  0  0
    3.3153   22.6451   11.4062 H   0  0  0  0  0  0  0  0  0  0  0  0
    3.7159   20.2685   10.3610 C   0  0  0  0  0  0  0  0  0  0  0  0
    4.1193   20.3450   11.7776 C   0  0  0  0  0  0  0  0  0  0  0  0
    4.8062   20.5389    9.4455 N   0  0  0  0  0  0  0  0  0  0  0  0
    5.1468   19.6829    8.3971 C   0  0  0  0  0  0  0  0  0  0  0  0
    4.4937   18.6234    8.1885 O   0  0  0  0  0  0  0  0  0  0  0  0
    5.3271   21.4330    9.6259 H   0  0  0  0  0  0  0  0  0  0  0  0
    6.2780   19.9270    7.4512 C   0  0  0  0  0  0  0  0  0  0  0  0
    5.7603   20.3204    6.1332 C   0  0  0  0  0  0  0  0  0  0  0  0
    7.1075   18.7611    7.4011 N   0  0  0  0  0  0  0  0  0  0  0  0
    8.2569   18.5306    8.1716 C   0  0  0  0  0  0  0  0  0  0  0  0
    8.6022   19.4226    8.9884 O   0  0  0  0  0  0  0  0  0  0  0  0
    6.8438   17.9872    6.7152 H   0  0  0  0  0  0  0  0  0  0  0  0
    9.0570   17.2738    8.0462 C   0  0  0  0  0  0  0  0  0  0  0  0
    8.4183   16.4143    6.9808 C   0  0  0  0  0  0  0  0  0  0  0  0
    9.0229   16.5665    9.2935 N   0  0  0  0  0  0  0  0  0  0  0  0
    7.7846   16.0773    9.8196 C   0  0  0  0  0  0  0  0  0  0  0  0
    6.7463   16.2799    9.1686 O   0  0  0  0  0  0  0  0  0  0  0  0
    9.8839   16.3918    9.8414 H   0  0  0  0  0  0  0  0  0  0  0  0
    7.7382   15.3479   11.1045 C   0  0  0  0  0  0  0  0  0  0  0  0
    6.8650   14.0921   10.9730 C   0  0  0  0  0  0  0  0  0  0  0  0
    9.1368   14.8762   11.4508 C   0  0  0  0  0  0  0  0  0  0  0  0
    7.9885   24.0967    5.1052 N   0  0  0  0  0  0  0  0  0  0  0  0
    6.8047   24.0770    5.8803 C   0  0  0  0  0  0  0  0  0  0  0  0
    5.7524   23.6836    5.3168 O   0  0  0  0  0  0  0  0  0  0  0  0
    8.8784   24.4455    5.5199 H   0  0  0  0  0  0  0  0  0  0  0  0
    7.9832   23.6304    3.7125 C   0  0  0  0  0  0  0  0  0  0  0  0
    7.8155   24.8631    2.8024 C   0  0  0  0  0  0  0  0  0  0  0  0
    9.6727   21.6954    3.5757 N   0  0  0  0  0  0  0  0  0  0  0  0
    9.3008   23.0503    3.4682 C   0  0  0  0  0  0  0  0  0  0  0  0
   10.2269   23.8772    3.1162 O   0  0  0  0  0  0  0  0  0  0  0  0
    8.9863   20.9733    3.8854 H   0  0  0  0  0  0  0  0  0  0  0  0
   11.0549   21.3830    3.2421 C   0  0  0  0  0  0  0  0  0  0  0  0
   11.4896   20.0959    3.9509 C   0  0  0  0  0  0  0  0  0  0  0  0
   11.1929   22.1169    0.8534 N   0  0  0  0  0  0  0  0  0  0  0  0
   11.1235   21.0698    1.7900 C   0  0  0  0  0  0  0  0  0  0  0  0
   11.1094   19.8492    1.4919 O   0  0  0  0  0  0  0  0  0  0  0  0
   11.1639   23.1057    1.2738 H   0  0  0  0  0  0  0  0  0  0  0  0
   11.2898   21.9910   -0.5777 C   0  0  0  0  0  0  0  0  0  0  0  0
    8.9285   20.9870   -0.4038 N   0  0  0  0  0  0  0  0  0  0  0  0
   10.0624   21.4321   -1.0790 C   0  0  0  0  0  0  0  0  0  0  0  0
    9.9729   21.3426   -2.3789 O   0  0  0  0  0  0  0  0  0  0  0  0
    8.8601   21.0082    0.6191 H   0  0  0  0  0  0  0  0  0  0  0  0
    7.7193   20.4896   -1.0817 C   0  0  0  0  0  0  0  0  0  0  0  0
    7.7130   19.0203   -1.1904 C   0  0  0  0  0  0  0  0  0  0  0  0
    5.4880   20.0815    0.0648 N   0  0  0  0  0  0  0  0  0  0  0  0
    6.5895   20.9203   -0.1791 C   0  0  0  0  0  0  0  0  0  0  0  0
    6.6511   22.0475    0.3567 O   0  0  0  0  0  0  0  0  0  0  0  0
    5.4186   19.1533   -0.3478 H   0  0  0  0  0  0  0  0  0  0  0  0
    4.4196   20.5749    0.9475 C   0  0  0  0  0  0  0  0  0  0  0  0
    4.6303   19.9315    2.3245 C   0  0  0  0  0  0  0  0  0  0  0  0
    2.2766   21.4988    0.0812 C   0  0  0  0  0  0  0  0  0  0  0  0
    3.0506   20.2665    0.4571 C   0  0  0  0  0  0  0  0  0  0  0  0
    3.1863   19.3546   -0.7465 C   0  0  0  0  0  0  0  0  0  0  0  0
   12.6072   21.6442   -1.1331 C   0  0  0  0  0  0  0  0  0  0  0  0
   13.6145   22.7693   -1.0773 C   0  0  0  0  0  0  0  0  0  0  0  0
   14.3089   22.9040    0.1382 C   0  0  0  0  0  0  0  0  0  0  0  0
   15.2833   23.8589    0.2929 C   0  0  0  0  0  0  0  0  0  0  0  0
   15.5955   24.7033   -0.7487 C   0  0  0  0  0  0  0  0  0  0  0  0
   14.9184   24.5630   -1.9179 C   0  0  0  0  0  0  0  0  0  0  0  0
   13.9344   23.6054   -2.0878 C   0  0  0  0  0  0  0  0  0  0  0  0
    7.2935   23.3246    8.1756 C   0  0  0  0  0  0  0  0  0  0  0  0
    8.3498   23.8243    9.0459 C   0  0  0  0  0  0  0  0  0  0  0  0
    8.3901   25.1575    9.3981 C   0  0  0  0  0  0  0  0  0  0  0  0
    9.3529   25.6809   10.2220 C   0  0  0  0  0  0  0  0  0  0  0  0
   10.3289   24.8550   10.7274 C   0  0  0  0  0  0  0  0  0  0  0  0
   10.3285   23.5226   10.4032 C   0  0  0  0  0  0  0  0  0  0  0  0
    9.3301   23.0132    9.5576 C   0  0  0  0  0  0  0  0  0  0  0  0
 68 69  1  0  0  0
 69 70  1  0  0  0
 69 66  1  0  0  0
 66 62  1  0  0  0
 62 63  1  0  0  0
 63 64  2  0  0  0
 63 60  1  0  0  0
 60 61  1  0  0  0
 60 56  1  0  0  0
 56 57  1  0  0  0
 57 58  2  0  0  0
 57 55  1  0  0  0
 55 71  1  0  0  0
 71 72  1  0  0  0
 72 73  2  0  0  0
 73 74  1  0  0  0
 74 75  2  0  0  0
 75 76  1  0  0  0
 76 77  2  0  0  0
 55 51  1  0  0  0
 51 52  1  0  0  0
 52 53  2  0  0  0
 52 49  1  0  0  0
 49 50  1  0  0  0
 49 45  1  0  0  0
 45 46  1  0  0  0
 46 47  2  0  0  0
 46 43  1  0  0  0
 43 44  1  0  0  0
 43 39  1  0  0  0
 39 40  1  0  0  0
 40 41  2  0  0  0
 40  1  1  0  0  0
  1 78  1  0  0  0
 78 79  1  0  0  0
 79 80  2  0  0  0
 80 81  1  0  0  0
 81 82  2  0  0  0
 82 83  1  0  0  0
 83 84  2  0  0  0
  1  2  1  0  0  0
  2  3  1  0  0  0
  3  4  2  0  0  0
  3  6  1  0  0  0
  6  7  1  0  0  0
  6  8  1  0  0  0
  8  9  1  0  0  0
  9 10  2  0  0  0
  9 12  1  0  0  0
 12 13  1  0  0  0
 12 14  1  0  0  0
 14 15  1  0  0  0
 15 16  2  0  0  0
 15 18  1  0  0  0
 18 19  1  0  0  0
 18 20  1  0  0  0
 20 21  1  0  0  0
 21 22  2  0  0  0
 21 24  1  0  0  0
 24 25  1  0  0  0
 24 26  1  0  0  0
 26 27  1  0  0  0
 27 28  2  0  0  0
 27 30  1  0  0  0
 30 31  1  0  0  0
 30 32  1  0  0  0
 32 33  1  0  0  0
 33 34  2  0  0  0
 33 36  1  0  0  0
 36 37  1  0  0  0
 36 38  1  0  0  0
 66 67  1  0  0  0
 77 72  1  0  0  0
 84 79  1  0  0  0
 62 65  1  0  0  0
 56 59  1  0  0  0
 51 54  1  0  0  0
 45 48  1  0  0  0
 39 42  1  0  0  0
  2  5  1  0  0  0
  8 11  1  0  0  0
 14 17  1  0  0  0
 20 23  1  0  0  0
 26 29  1  0  0  0
 32 35  1  0  0  0
M  END
> <minimizedAffinity>
-7.19946

> <CNNscore>
0.0904331356

> <CNNaffinity>
7.1747064590

> <CNN_VS>
0.6488311887

> <CNNaffinity_variance>
1.7960056067

$$$$
[H]c1c([H])c([H])c(C([H])([H])[C@@]([H])(C(=O)N([H])[C@]([H])(C(=O)N([H])[C@]([H])(C(=O)N([H])[C@]([H])(C(=O)N([H])[C@]([H])(C(=O)N([H])[C@]([H])(C([H])([H])[H])C([H])(C([H])([H])[H])C([H])([H])[H])C([H])([H])[H])C([H])([H])c2c([H])c([H])c([H])c([H])c2[H])C([H])([H])[H])C([H])([H])[H])N([H])C(=O)[C@@]([H])(N([H])C(=O)[C@@]([H])(N([H])C(=O)[C@@]([H])(N([H])C(=O)[C@@]([H])(N([H])C(=O)[C@@]([H])(N([H])C(=O)C([H])(C([H])([H])[H])C([H])([H])[H])C([H])([H])[H])C([H])([H])[H])C([H])([H])[H])C([H])([H])[H])C([H])([H])[H])c([H])c1[H]


 84 85  0  0  0  0  0  0  0  0999 V2000
    9.2218   22.0713    1.2636 C   0  0  0  0  0  0  0  0  0  0  0  0
    9.2383   23.4388    1.7446 N   0  0  0  0  0  0  0  0  0  0  0  0
    8.2649   24.0015    2.5694 C   0  0  0  0  0  0  0  0  0  0  0  0
    7.2854   23.3500    2.9697 O   0  0  0  0  0  0  0  0  0  0  0  0
   10.0421   24.0264    1.4463 H   0  0  0  0  0  0  0  0  0  0  0  0
    8.3631   25.4419    3.0038 C   0  0  0  0  0  0  0  0  0  0  0  0
    8.9537   25.5866    4.3588 C   0  0  0  0  0  0  0  0  0  0  0  0
    7.0639   26.0786    2.9080 N   0  0  0  0  0  0  0  0  0  0  0  0
    6.8868   27.4567    3.0710 C   0  0  0  0  0  0  0  0  0  0  0  0
    7.9175   28.1799    3.3006 O   0  0  0  0  0  0  0  0  0  0  0  0
    6.2186   25.5113    2.7123 H   0  0  0  0  0  0  0  0  0  0  0  0
    5.6000   28.1963    3.0025 C   0  0  0  0  0  0  0  0  0  0  0  0
    5.8463   29.6544    3.0891 C   0  0  0  0  0  0  0  0  0  0  0  0
    4.6206   27.6768    3.8949 N   0  0  0  0  0  0  0  0  0  0  0  0
    4.8945   27.2710    5.2181 C   0  0  0  0  0  0  0  0  0  0  0  0
    5.9878   27.3207    5.7712 O   0  0  0  0  0  0  0  0  0  0  0  0
    3.6432   27.6001    3.5137 H   0  0  0  0  0  0  0  0  0  0  0  0
    3.7107   26.7306    5.9917 C   0  0  0  0  0  0  0  0  0  0  0  0
    2.5101   26.5020    5.1660 C   0  0  0  0  0  0  0  0  0  0  0  0
    3.4775   27.6466    7.0902 N   0  0  0  0  0  0  0  0  0  0  0  0
    3.0018   27.2330    8.3353 C   0  0  0  0  0  0  0  0  0  0  0  0
    2.7663   26.0148    8.5660 O   0  0  0  0  0  0  0  0  0  0  0  0
    3.6946   28.6533    6.8834 H   0  0  0  0  0  0  0  0  0  0  0  0
    2.7337   28.1580    9.4782 C   0  0  0  0  0  0  0  0  0  0  0  0
    1.8113   29.2237    9.0617 C   0  0  0  0  0  0  0  0  0  0  0  0
    3.9782   28.6591    9.9782 N   0  0  0  0  0  0  0  0  0  0  0  0
    4.5642   28.3358   11.2110 C   0  0  0  0  0  0  0  0  0  0  0  0
    3.9506   27.5300   11.9570 O   0  0  0  0  0  0  0  0  0  0  0  0
    4.5216   29.3480    9.3707 H   0  0  0  0  0  0  0  0  0  0  0  0
    5.8740   28.9133   11.6425 C   0  0  0  0  0  0  0  0  0  0  0  0
    5.7403   30.4177   11.6636 C   0  0  0  0  0  0  0  0  0  0  0  0
    6.8851   28.5518   10.6916 N   0  0  0  0  0  0  0  0  0  0  0  0
    7.6356   27.3431   10.8507 C   0  0  0  0  0  0  0  0  0  0  0  0
    7.3870   26.6191   11.8290 O   0  0  0  0  0  0  0  0  0  0  0  0
    7.0973   29.1486    9.8726 H   0  0  0  0  0  0  0  0  0  0  0  0
    8.6804   26.9618    9.8771 C   0  0  0  0  0  0  0  0  0  0  0  0
    9.5459   25.8263   10.4417 C   0  0  0  0  0  0  0  0  0  0  0  0
    8.0123   26.4246    8.6267 C   0  0  0  0  0  0  0  0  0  0  0  0
    9.7543   21.2468    3.6139 N   0  0  0  0  0  0  0  0  0  0  0  0
    9.8814   21.1647    2.2070 C   0  0  0  0  0  0  0  0  0  0  0  0
   10.6069   20.2479    1.7457 O   0  0  0  0  0  0  0  0  0  0  0  0
    9.1895   22.0097    4.0435 H   0  0  0  0  0  0  0  0  0  0  0  0
   10.4125   20.2661    4.4869 C   0  0  0  0  0  0  0  0  0  0  0  0
   11.2314   21.0430    5.5367 C   0  0  0  0  0  0  0  0  0  0  0  0
    9.4815   18.5015    6.1107 N   0  0  0  0  0  0  0  0  0  0  0  0
    9.3446   19.5451    5.1738 C   0  0  0  0  0  0  0  0  0  0  0  0
    8.1401   19.9071    4.8846 O   0  0  0  0  0  0  0  0  0  0  0  0
   10.4226   18.1338    6.3709 H   0  0  0  0  0  0  0  0  0  0  0  0
    8.2439   17.9767    6.6694 C   0  0  0  0  0  0  0  0  0  0  0  0
    8.4131   16.4961    7.0256 C   0  0  0  0  0  0  0  0  0  0  0  0
    6.6840   19.0598    8.2996 N   0  0  0  0  0  0  0  0  0  0  0  0
    7.9910   18.6621    7.9647 C   0  0  0  0  0  0  0  0  0  0  0  0
    8.9989   18.8481    8.6917 O   0  0  0  0  0  0  0  0  0  0  0  0
    5.9401   18.8529    7.5519 H   0  0  0  0  0  0  0  0  0  0  0  0
    6.2625   19.7067    9.5150 C   0  0  0  0  0  0  0  0  0  0  0  0
    4.5581   17.8082    9.8391 N   0  0  0  0  0  0  0  0  0  0  0  0
    5.4445   18.7933   10.2679 C   0  0  0  0  0  0  0  0  0  0  0  0
    5.5581   18.8733   11.5664 O   0  0  0  0  0  0  0  0  0  0  0  0
    4.3793   17.6314    8.8450 H   0  0  0  0  0  0  0  0  0  0  0  0
    3.8338   16.9098   10.7540 C   0  0  0  0  0  0  0  0  0  0  0  0
    2.5532   16.4569   10.1832 C   0  0  0  0  0  0  0  0  0  0  0  0
    5.8925   15.7787   11.7246 N   0  0  0  0  0  0  0  0  0  0  0  0
    4.7519   15.7219   10.9047 C   0  0  0  0  0  0  0  0  0  0  0  0
    4.4768   14.6732   10.2834 O   0  0  0  0  0  0  0  0  0  0  0  0
    6.1329   16.6154   12.2523 H   0  0  0  0  0  0  0  0  0  0  0  0
    6.7460   14.5838   11.8130 C   0  0  0  0  0  0  0  0  0  0  0  0
    6.9413   14.2702   13.3023 C   0  0  0  0  0  0  0  0  0  0  0  0
    8.1056   14.1875    9.7657 C   0  0  0  0  0  0  0  0  0  0  0  0
    8.0714   14.7478   11.1599 C   0  0  0  0  0  0  0  0  0  0  0  0
    8.3901   16.2297   11.1290 C   0  0  0  0  0  0  0  0  0  0  0  0
    5.9866   21.1501    9.4460 C   0  0  0  0  0  0  0  0  0  0  0  0
    6.9626   21.9233    8.5897 C   0  0  0  0  0  0  0  0  0  0  0  0
    8.2172   22.1744    9.1733 C   0  0  0  0  0  0  0  0  0  0  0  0
    9.2036   22.8257    8.4746 C   0  0  0  0  0  0  0  0  0  0  0  0
    8.9748   23.2443    7.1831 C   0  0  0  0  0  0  0  0  0  0  0  0
    7.7594   22.9953    6.6301 C   0  0  0  0  0  0  0  0  0  0  0  0
    6.7566   22.3402    7.3223 C   0  0  0  0  0  0  0  0  0  0  0  0
    9.9971   22.0469   -0.0913 C   0  0  0  0  0  0  0  0  0  0  0  0
   11.0311   23.0734   -0.1006 C   0  0  0  0  0  0  0  0  0  0  0  0
   12.2145   22.8766    0.5805 C   0  0  0  0  0  0  0  0  0  0  0  0
   13.2262   23.8018    0.5974 C   0  0  0  0  0  0  0  0  0  0  0  0
   13.0707   24.9830   -0.0885 C   0  0  0  0  0  0  0  0  0  0  0  0
   11.9102   25.2217   -0.7791 C   0  0  0  0  0  0  0  0  0  0  0  0
   10.8906   24.2565   -0.7797 C   0  0  0  0  0  0  0  0  0  0  0  0
 68 69  1  0  0  0
 69 70  1  0  0  0
 69 66  1  0  0  0
 66 62  1  0  0  0
 62 63  1  0  0  0
 63 64  2  0  0  0
 63 60  1  0  0  0
 60 61  1  0  0  0
 60 56  1  0  0  0
 56 57  1  0  0  0
 57 58  2  0  0  0
 57 55  1  0  0  0
 55 71  1  0  0  0
 71 72  1  0  0  0
 72 73  2  0  0  0
 73 74  1  0  0  0
 74 75  2  0  0  0
 75 76  1  0  0  0
 76 77  2  0  0  0
 55 51  1  0  0  0
 51 52  1  0  0  0
 52 53  2  0  0  0
 52 49  1  0  0  0
 49 50  1  0  0  0
 49 45  1  0  0  0
 45 46  1  0  0  0
 46 47  2  0  0  0
 46 43  1  0  0  0
 43 44  1  0  0  0
 43 39  1  0  0  0
 39 40  1  0  0  0
 40 41  2  0  0  0
 40  1  1  0  0  0
  1 78  1  0  0  0
 78 79  1  0  0  0
 79 80  2  0  0  0
 80 81  1  0  0  0
 81 82  2  0  0  0
 82 83  1  0  0  0
 83 84  2  0  0  0
  1  2  1  0  0  0
  2  3  1  0  0  0
  3  4  2  0  0  0
  3  6  1  0  0  0
  6  7  1  0  0  0
  6  8  1  0  0  0
  8  9  1  0  0  0
  9 10  2  0  0  0
  9 12  1  0  0  0
 12 13  1  0  0  0
 12 14  1  0  0  0
 14 15  1  0  0  0
 15 16  2  0  0  0
 15 18  1  0  0  0
 18 19  1  0  0  0
 18 20  1  0  0  0
 20 21  1  0  0  0
 21 22  2  0  0  0
 21 24  1  0  0  0
 24 25  1  0  0  0
 24 26  1  0  0  0
 26 27  1  0  0  0
 27 28  2  0  0  0
 27 30  1  0  0  0
 30 31  1  0  0  0
 30 32  1  0  0  0
 32 33  1  0  0  0
 33 34  2  0  0  0
 33 36  1  0  0  0
 36 37  1  0  0  0
 36 38  1  0  0  0
 66 67  1  0  0  0
 77 72  1  0  0  0
 84 79  1  0  0  0
 62 65  1  0  0  0
 56 59  1  0  0  0
 51 54  1  0  0  0
 45 48  1  0  0  0
 39 42  1  0  0  0
  2  5  1  0  0  0
  8 11  1  0  0  0
 14 17  1  0  0  0
 20 23  1  0  0  0
 26 29  1  0  0  0
 32 35  1  0  0  0
M  END
> <minimizedAffinity>
-7.11693

> <CNNscore>
0.0854188576

> <CNNaffinity>
6.6686339378

> <CNN_VS>
0.5696271062

> <CNNaffinity_variance>
2.3772883415

$$$$
[H]c1c([H])c([H])c(C([H])([H])[C@@]([H])(C(=O)N([H])[C@]([H])(C(=O)N([H])[C@]([H])(C(=O)N([H])[C@]([H])(C(=O)N([H])[C@]([H])(C(=O)N([H])[C@]([H])(C([H])([H])[H])C([H])(C([H])([H])[H])C([H])([H])[H])C([H])([H])[H])C([H])([H])c2c([H])c([H])c([H])c([H])c2[H])C([H])([H])[H])C([H])([H])[H])N([H])C(=O)[C@@]([H])(N([H])C(=O)[C@@]([H])(N([H])C(=O)[C@@]([H])(N([H])C(=O)[C@@]([H])(N([H])C(=O)[C@@]([H])(N([H])C(=O)C([H])(C([H])([H])[H])C([H])([H])[H])C([H])([H])[H])C([H])([H])[H])C([H])([H])[H])C([H])([H])[H])C([H])([H])[H])c([H])c1[H]


 84 85  0  0  0  0  0  0  0  0999 V2000
   10.3598   22.8591    0.1470 C   0  0  0  0  0  0  0  0  0  0  0  0
    9.3125   22.0254   -0.4099 N   0  0  0  0  0  0  0  0  0  0  0  0
    9.3325   20.6313   -0.4258 C   0  0  0  0  0  0  0  0  0  0  0  0
   10.2754   19.9815    0.0565 O   0  0  0  0  0  0  0  0  0  0  0  0
    8.4944   22.5189   -0.8193 H   0  0  0  0  0  0  0  0  0  0  0  0
    8.1995   19.8524   -1.0446 C   0  0  0  0  0  0  0  0  0  0  0  0
    8.1066   20.0560   -2.5129 C   0  0  0  0  0  0  0  0  0  0  0  0
    6.9542   20.1705   -0.3735 N   0  0  0  0  0  0  0  0  0  0  0  0
    5.9627   19.2135   -0.1325 C   0  0  0  0  0  0  0  0  0  0  0  0
    6.1747   18.0091   -0.5101 O   0  0  0  0  0  0  0  0  0  0  0  0
    6.7683   21.1381   -0.0509 H   0  0  0  0  0  0  0  0  0  0  0  0
    4.6553   19.4444    0.5343 C   0  0  0  0  0  0  0  0  0  0  0  0
    4.1914   20.8279    0.2790 C   0  0  0  0  0  0  0  0  0  0  0  0
    4.6527   19.0288    1.8955 N   0  0  0  0  0  0  0  0  0  0  0  0
    5.6445   19.3879    2.8323 C   0  0  0  0  0  0  0  0  0  0  0  0
    6.6165   20.1015    2.6090 O   0  0  0  0  0  0  0  0  0  0  0  0
    3.8509   18.4144    2.1890 H   0  0  0  0  0  0  0  0  0  0  0  0
    5.4604   18.8228    4.2247 C   0  0  0  0  0  0  0  0  0  0  0  0
    5.3505   17.3525    4.2641 C   0  0  0  0  0  0  0  0  0  0  0  0
    4.3103   19.4930    4.7977 N   0  0  0  0  0  0  0  0  0  0  0  0
    4.2410   19.8671    6.1404 C   0  0  0  0  0  0  0  0  0  0  0  0
    5.2056   19.6474    6.9239 O   0  0  0  0  0  0  0  0  0  0  0  0
    3.5249   19.6811    4.1260 H   0  0  0  0  0  0  0  0  0  0  0  0
    3.0603   20.5408    6.7616 C   0  0  0  0  0  0  0  0  0  0  0  0
    1.8328   19.7905    6.4612 C   0  0  0  0  0  0  0  0  0  0  0  0
    3.0079   21.9005    6.3163 N   0  0  0  0  0  0  0  0  0  0  0  0
    3.2958   23.0352    7.0893 C   0  0  0  0  0  0  0  0  0  0  0  0
    3.6346   22.8563    8.2874 O   0  0  0  0  0  0  0  0  0  0  0  0
    2.7200   22.0864    5.3057 H   0  0  0  0  0  0  0  0  0  0  0  0
    3.2137   24.4187    6.5285 C   0  0  0  0  0  0  0  0  0  0  0  0
    4.5774   24.7920    5.9967 C   0  0  0  0  0  0  0  0  0  0  0  0
    2.8596   25.3322    7.5760 N   0  0  0  0  0  0  0  0  0  0  0  0
    2.0168   26.4577    7.3066 C   0  0  0  0  0  0  0  0  0  0  0  0
    1.6018   26.6195    6.1471 O   0  0  0  0  0  0  0  0  0  0  0  0
    3.1997   25.2036    8.5454 H   0  0  0  0  0  0  0  0  0  0  0  0
    1.6466   27.4056    8.3788 C   0  0  0  0  0  0  0  0  0  0  0  0
    1.4682   26.6614    9.7097 C   0  0  0  0  0  0  0  0  0  0  0  0
    2.7820   28.3909    8.5752 C   0  0  0  0  0  0  0  0  0  0  0  0
    9.0200   22.8637    2.3131 N   0  0  0  0  0  0  0  0  0  0  0  0
    9.9501   23.4512    1.4231 C   0  0  0  0  0  0  0  0  0  0  0  0
   10.4554   24.5516    1.7600 O   0  0  0  0  0  0  0  0  0  0  0  0
    8.5509   21.9680    2.0618 H   0  0  0  0  0  0  0  0  0  0  0  0
    8.7010   23.5022    3.5967 C   0  0  0  0  0  0  0  0  0  0  0  0
    7.5138   24.4581    3.3666 C   0  0  0  0  0  0  0  0  0  0  0  0
    9.0411   21.3630    4.9843 N   0  0  0  0  0  0  0  0  0  0  0  0
    8.2676   22.4327    4.4915 C   0  0  0  0  0  0  0  0  0  0  0  0
    7.0342   22.4754    4.8689 O   0  0  0  0  0  0  0  0  0  0  0  0
   10.0375   21.2446    4.6983 H   0  0  0  0  0  0  0  0  0  0  0  0
    8.3636   20.4485    5.8921 C   0  0  0  0  0  0  0  0  0  0  0  0
    9.0909   19.1001    5.9209 C   0  0  0  0  0  0  0  0  0  0  0  0
    7.4099   21.6843    7.8483 N   0  0  0  0  0  0  0  0  0  0  0  0
    8.4874   20.9870    7.2727 C   0  0  0  0  0  0  0  0  0  0  0  0
    9.5859   20.7776    7.8456 O   0  0  0  0  0  0  0  0  0  0  0  0
    6.5525   21.8027    7.2111 H   0  0  0  0  0  0  0  0  0  0  0  0
    7.3528   22.2450    9.1733 C   0  0  0  0  0  0  0  0  0  0  0  0
    5.3093   20.7609    9.6587 N   0  0  0  0  0  0  0  0  0  0  0  0
    6.4848   21.4331    9.9843 C   0  0  0  0  0  0  0  0  0  0  0  0
    6.8597   21.2719   11.2249 O   0  0  0  0  0  0  0  0  0  0  0  0
    4.9055   20.7945    8.7167 H   0  0  0  0  0  0  0  0  0  0  0  0
    4.5647   19.9154   10.6072 C   0  0  0  0  0  0  0  0  0  0  0  0
    3.1138   19.9471   10.3528 C   0  0  0  0  0  0  0  0  0  0  0  0
    6.2517   18.0461   10.9536 N   0  0  0  0  0  0  0  0  0  0  0  0
    5.0801   18.5227   10.3398 C   0  0  0  0  0  0  0  0  0  0  0  0
    4.4391   17.7900    9.5563 O   0  0  0  0  0  0  0  0  0  0  0  0
    6.7858   18.6167   11.6060 H   0  0  0  0  0  0  0  0  0  0  0  0
    6.6981   16.6811   10.6352 C   0  0  0  0  0  0  0  0  0  0  0  0
    6.6420   15.8668   11.9345 C   0  0  0  0  0  0  0  0  0  0  0  0
    8.2081   15.5781    8.9921 C   0  0  0  0  0  0  0  0  0  0  0  0
    8.0703   16.6196   10.0669 C   0  0  0  0  0  0  0  0  0  0  0  0
    8.3985   17.9888    9.5047 C   0  0  0  0  0  0  0  0  0  0  0  0
    7.4039   23.7111    9.2844 C   0  0  0  0  0  0  0  0  0  0  0  0
    8.6104   24.2303   10.0317 C   0  0  0  0  0  0  0  0  0  0  0  0
    9.6092   23.2799   10.3090 C   0  0  0  0  0  0  0  0  0  0  0  0
   10.7735   23.6426   10.9401 C   0  0  0  0  0  0  0  0  0  0  0  0
   10.9794   24.9520   11.3121 C   0  0  0  0  0  0  0  0  0  0  0  0
   10.0076   25.8608   11.0382 C   0  0  0  0  0  0  0  0  0  0  0  0
    8.8299   25.5095   10.4030 C   0  0  0  0  0  0  0  0  0  0  0  0
   10.6365   24.0031   -0.8786 C   0  0  0  0  0  0  0  0  0  0  0  0
   12.0029   23.9160   -1.3767 C   0  0  0  0  0  0  0  0  0  0  0  0
   12.7357   22.7602   -1.2027 C   0  0  0  0  0  0  0  0  0  0  0  0
   14.0205   22.6176   -1.6597 C   0  0  0  0  0  0  0  0  0  0  0  0
   14.6200   23.6626   -2.3218 C   0  0  0  0  0  0  0  0  0  0  0  0
   13.9293   24.8311   -2.5170 C   0  0  0  0  0  0  0  0  0  0  0  0
   12.6146   24.9496   -2.0387 C   0  0  0  0  0  0  0  0  0  0  0  0
 68 69  1  0  0  0
 69 70  1  0  0  0
 69 66  1  0  0  0
 66 62  1  0  0  0
 62 63  1  0  0  0
 63 64  2  0  0  0
 63 60  1  0  0  0
 60 61  1  0  0  0
 60 56  1  0  0  0
 56 57  1  0  0  0
 57 58  2  0  0  0
 57 55  1  0  0  0
 55 71  1  0  0  0
 71 72  1  0  0  0
 72 73  2  0  0  0
 73 74  1  0  0  0
 74 75  2  0  0  0
 75 76  1  0  0  0
 76 77  2  0  0  0
 55 51  1  0  0  0
 51 52  1  0  0  0
 52 53  2  0  0  0
 52 49  1  0  0  0
 49 50  1  0  0  0
 49 45  1  0  0  0
 45 46  1  0  0  0
 46 47  2  0  0  0
 46 43  1  0  0  0
 43 44  1  0  0  0
 43 39  1  0  0  0
 39 40  1  0  0  0
 40 41  2  0  0  0
 40  1  1  0  0  0
  1 78  1  0  0  0
 78 79  1  0  0  0
 79 80  2  0  0  0
 80 81  1  0  0  0
 81 82  2  0  0  0
 82 83  1  0  0  0
 83 84  2  0  0  0
  1  2  1  0  0  0
  2  3  1  0  0  0
  3  4  2  0  0  0
  3  6  1  0  0  0
  6  7  1  0  0  0
  6  8  1  0  0  0
  8  9  1  0  0  0
  9 10  2  0  0  0
  9 12  1  0  0  0
 12 13  1  0  0  0
 12 14  1  0  0  0
 14 15  1  0  0  0
 15 16  2  0  0  0
 15 18  1  0  0  0
 18 19  1  0  0  0
 18 20  1  0  0  0
 20 21  1  0  0  0
 21 22  2  0  0  0
 21 24  1  0  0  0
 24 25  1  0  0  0
 24 26  1  0  0  0
 26 27  1  0  0  0
 27 28  2  0  0  0
 27 30  1  0  0  0
 30 31  1  0  0  0
 30 32  1  0  0  0
 32 33  1  0  0  0
 33 34  2  0  0  0
 33 36  1  0  0  0
 36 37  1  0  0  0
 36 38  1  0  0  0
 66 67  1  0  0  0
 77 72  1  0  0  0
 84 79  1  0  0  0
 62 65  1  0  0  0
 56 59  1  0  0  0
 51 54  1  0  0  0
 45 48  1  0  0  0
 39 42  1  0  0  0
  2  5  1  0  0  0
  8 11  1  0  0  0
 14 17  1  0  0  0
 20 23  1  0  0  0
 26 29  1  0  0  0
 32 35  1  0  0  0
M  END
> <minimizedAffinity>
-6.89021

> <CNNscore>
0.0841588229

> <CNNaffinity>
6.8226532936

> <CNN_VS>
0.5741864443

> <CNNaffinity_variance>
1.6706699133

$$$$
[H]c1c([H])c([H])c(C([H])([H])[C@@]([H])(C(=O)N([H])[C@]([H])(C(=O)N([H])[C@]([H])(C(=O)N([H])[C@]([H])(C(=O)N([H])[C@]([H])(C(=O)N([H])[C@]([H])(C([H])([H])[H])C([H])(C([H])([H])[H])C([H])([H])[H])C([H])([H])[H])C([H])([H])c2c([H])c([H])c([H])c([H])c2[H])C([H])([H])[H])C([H])([H])[H])N([H])C(=O)[C@@]([H])(N([H])C(=O)[C@@]([H])(N([H])C(=O)[C@@]([H])(N([H])C(=O)[C@@]([H])(N([H])C(=O)[C@@]([H])(N([H])C(=O)C([H])(C([H])([H])[H])C([H])([H])[H])C([H])([H])[H])C([H])([H])[H])C([H])([H])[H])C([H])([H])[H])C([H])([H])[H])c([H])c1[H]


 84 85  0  0  0  0  0  0  0  0999 V2000
    2.3542   19.2910    0.3008 C   0  0  0  0  0  0  0  0  0  0  0  0
    1.6071   19.0086    1.5107 N   0  0  0  0  0  0  0  0  0  0  0  0
    1.7978   17.8873    2.3173 C   0  0  0  0  0  0  0  0  0  0  0  0
    2.6525   17.0249    2.0533 O   0  0  0  0  0  0  0  0  0  0  0  0
    0.8841   19.7040    1.7831 H   0  0  0  0  0  0  0  0  0  0  0  0
    0.9568   17.6744    3.5505 C   0  0  0  0  0  0  0  0  0  0  0  0
   -0.3143   18.4414    3.5095 C   0  0  0  0  0  0  0  0  0  0  0  0
    1.7328   17.9744    4.7380 N   0  0  0  0  0  0  0  0  0  0  0  0
    1.8831   17.0639    5.7893 C   0  0  0  0  0  0  0  0  0  0  0  0
    1.3219   15.9182    5.6872 O   0  0  0  0  0  0  0  0  0  0  0  0
    2.2035   18.8930    4.8347 H   0  0  0  0  0  0  0  0  0  0  0  0
    2.6453   17.2830    7.0457 C   0  0  0  0  0  0  0  0  0  0  0  0
    2.1391   16.3864    8.1107 C   0  0  0  0  0  0  0  0  0  0  0  0
    2.7512   18.6598    7.3901 N   0  0  0  0  0  0  0  0  0  0  0  0
    3.9433   19.4081    7.2941 C   0  0  0  0  0  0  0  0  0  0  0  0
    5.0245   18.9861    6.8979 O   0  0  0  0  0  0  0  0  0  0  0  0
    1.8702   19.1178    7.7373 H   0  0  0  0  0  0  0  0  0  0  0  0
    3.8410   20.8548    7.7284 C   0  0  0  0  0  0  0  0  0  0  0  0
    2.4738   21.4042    7.6622 C   0  0  0  0  0  0  0  0  0  0  0  0
    4.7907   21.5990    6.9258 N   0  0  0  0  0  0  0  0  0  0  0  0
    5.8755   22.2844    7.4746 C   0  0  0  0  0  0  0  0  0  0  0  0
    6.0881   22.2695    8.7185 O   0  0  0  0  0  0  0  0  0  0  0  0
    4.6057   21.5860    5.8918 H   0  0  0  0  0  0  0  0  0  0  0  0
    6.8580   23.0756    6.6730 C   0  0  0  0  0  0  0  0  0  0  0  0
    8.1184   23.2192    7.4150 C   0  0  0  0  0  0  0  0  0  0  0  0
    6.2708   24.3326    6.3192 N   0  0  0  0  0  0  0  0  0  0  0  0
    6.0160   24.7889    5.0174 C   0  0  0  0  0  0  0  0  0  0  0  0
    6.3261   24.0325    4.0613 O   0  0  0  0  0  0  0  0  0  0  0  0
    6.0000   24.9990    7.1076 H   0  0  0  0  0  0  0  0  0  0  0  0
    5.3944   26.1224    4.7516 C   0  0  0  0  0  0  0  0  0  0  0  0
    6.5043   27.1206    4.5204 C   0  0  0  0  0  0  0  0  0  0  0  0
    4.6390   26.5283    5.9013 N   0  0  0  0  0  0  0  0  0  0  0  0
    3.2284   26.2924    5.9661 C   0  0  0  0  0  0  0  0  0  0  0  0
    2.6801   25.7280    5.0049 O   0  0  0  0  0  0  0  0  0  0  0  0
    5.0884   26.9975    6.7073 H   0  0  0  0  0  0  0  0  0  0  0  0
    2.4403   26.7075    7.1458 C   0  0  0  0  0  0  0  0  0  0  0  0
    2.1364   25.4949    8.0370 C   0  0  0  0  0  0  0  0  0  0  0  0
    3.2703   27.6663    7.9767 C   0  0  0  0  0  0  0  0  0  0  0  0
    4.8071   19.9279    0.5558 N   0  0  0  0  0  0  0  0  0  0  0  0
    3.4301   20.2541    0.5492 C   0  0  0  0  0  0  0  0  0  0  0  0
    3.1198   21.4523    0.7681 O   0  0  0  0  0  0  0  0  0  0  0  0
    5.1107   18.9418    0.4113 H   0  0  0  0  0  0  0  0  0  0  0  0
    5.8246   20.9659    0.7662 C   0  0  0  0  0  0  0  0  0  0  0  0
    6.0922   21.0648    2.2811 C   0  0  0  0  0  0  0  0  0  0  0  0
    7.9942   21.2567   -0.5851 N   0  0  0  0  0  0  0  0  0  0  0  0
    7.0397   20.4891    0.1116 C   0  0  0  0  0  0  0  0  0  0  0  0
    7.2585   19.2191    0.1799 O   0  0  0  0  0  0  0  0  0  0  0  0
    7.8692   22.2851   -0.7089 H   0  0  0  0  0  0  0  0  0  0  0  0
    9.1362   20.5278   -1.1177 C   0  0  0  0  0  0  0  0  0  0  0  0
    9.5079   21.0699   -2.5018 C   0  0  0  0  0  0  0  0  0  0  0  0
   10.1870   21.7075    0.8233 N   0  0  0  0  0  0  0  0  0  0  0  0
   10.3144   20.8164   -0.2575 C   0  0  0  0  0  0  0  0  0  0  0  0
   11.3788   20.2266   -0.5708 O   0  0  0  0  0  0  0  0  0  0  0  0
    9.2142   22.1509    0.9349 H   0  0  0  0  0  0  0  0  0  0  0  0
   11.2124   22.0763    1.7645 C   0  0  0  0  0  0  0  0  0  0  0  0
   13.0824   23.4620    0.6703 N   0  0  0  0  0  0  0  0  0  0  0  0
   11.8556   23.2780    1.3036 C   0  0  0  0  0  0  0  0  0  0  0  0
   11.1810   24.3822    1.4801 O   0  0  0  0  0  0  0  0  0  0  0  0
   13.7109   22.6789    0.4621 H   0  0  0  0  0  0  0  0  0  0  0  0
   13.5718   24.7714    0.2069 C   0  0  0  0  0  0  0  0  0  0  0  0
   14.9700   25.0102    0.6056 C   0  0  0  0  0  0  0  0  0  0  0  0
   14.6618   24.6804   -2.0873 N   0  0  0  0  0  0  0  0  0  0  0  0
   13.4989   24.6788   -1.2973 C   0  0  0  0  0  0  0  0  0  0  0  0
   12.3742   24.5968   -1.8357 O   0  0  0  0  0  0  0  0  0  0  0  0
   15.5909   24.7326   -1.6744 H   0  0  0  0  0  0  0  0  0  0  0  0
   14.5106   24.5983   -3.5483 C   0  0  0  0  0  0  0  0  0  0  0  0
   15.4184   23.4628   -4.0390 C   0  0  0  0  0  0  0  0  0  0  0  0
   15.9556   26.6251   -3.5695 C   0  0  0  0  0  0  0  0  0  0  0  0
   14.8606   25.8579   -4.2559 C   0  0  0  0  0  0  0  0  0  0  0  0
   15.2900   25.4923   -5.6633 C   0  0  0  0  0  0  0  0  0  0  0  0
   11.9459   20.9827    2.4204 C   0  0  0  0  0  0  0  0  0  0  0  0
   11.2172   20.3691    3.5935 C   0  0  0  0  0  0  0  0  0  0  0  0
   10.1421   21.1199    4.1016 C   0  0  0  0  0  0  0  0  0  0  0  0
    9.3739   20.6435    5.1351 C   0  0  0  0  0  0  0  0  0  0  0  0
    9.6488   19.4145    5.6914 C   0  0  0  0  0  0  0  0  0  0  0  0
   10.6893   18.6984    5.1916 C   0  0  0  0  0  0  0  0  0  0  0  0
   11.4714   19.1661    4.1507 C   0  0  0  0  0  0  0  0  0  0  0  0
    1.3535   19.9017   -0.7303 C   0  0  0  0  0  0  0  0  0  0  0  0
    1.7068   19.4902   -2.0825 C   0  0  0  0  0  0  0  0  0  0  0  0
    1.2733   18.2777   -2.5776 C   0  0  0  0  0  0  0  0  0  0  0  0
    1.5654   17.8439   -3.8451 C   0  0  0  0  0  0  0  0  0  0  0  0
    2.3230   18.6395   -4.6716 C   0  0  0  0  0  0  0  0  0  0  0  0
    2.7761   19.8528   -4.2211 C   0  0  0  0  0  0  0  0  0  0  0  0
    2.4617   20.2723   -2.9187 C   0  0  0  0  0  0  0  0  0  0  0  0
 68 69  1  0  0  0
 69 70  1  0  0  0
 69 66  1  0  0  0
 66 62  1  0  0  0
 62 63  1  0  0  0
 63 64  2  0  0  0
 63 60  1  0  0  0
 60 61  1  0  0  0
 60 56  1  0  0  0
 56 57  1  0  0  0
 57 58  2  0  0  0
 57 55  1  0  0  0
 55 71  1  0  0  0
 71 72  1  0  0  0
 72 73  2  0  0  0
 73 74  1  0  0  0
 74 75  2  0  0  0
 75 76  1  0  0  0
 76 77  2  0  0  0
 55 51  1  0  0  0
 51 52  1  0  0  0
 52 53  2  0  0  0
 52 49  1  0  0  0
 49 50  1  0  0  0
 49 45  1  0  0  0
 45 46  1  0  0  0
 46 47  2  0  0  0
 46 43  1  0  0  0
 43 44  1  0  0  0
 43 39  1  0  0  0
 39 40  1  0  0  0
 40 41  2  0  0  0
 40  1  1  0  0  0
  1 78  1  0  0  0
 78 79  1  0  0  0
 79 80  2  0  0  0
 80 81  1  0  0  0
 81 82  2  0  0  0
 82 83  1  0  0  0
 83 84  2  0  0  0
  1  2  1  0  0  0
  2  3  1  0  0  0
  3  4  2  0  0  0
  3  6  1  0  0  0
  6  7  1  0  0  0
  6  8  1  0  0  0
  8  9  1  0  0  0
  9 10  2  0  0  0
  9 12  1  0  0  0
 12 13  1  0  0  0
 12 14  1  0  0  0
 14 15  1  0  0  0
 15 16  2  0  0  0
 15 18  1  0  0  0
 18 19  1  0  0  0
 18 20  1  0  0  0
 20 21  1  0  0  0
 21 22  2  0  0  0
 21 24  1  0  0  0
 24 25  1  0  0  0
 24 26  1  0  0  0
 26 27  1  0  0  0
 27 28  2  0  0  0
 27 30  1  0  0  0
 30 31  1  0  0  0
 30 32  1  0  0  0
 32 33  1  0  0  0
 33 34  2  0  0  0
 33 36  1  0  0  0
 36 37  1  0  0  0
 36 38  1  0  0  0
 66 67  1  0  0  0
 77 72  1  0  0  0
 84 79  1  0  0  0
 62 65  1  0  0  0
 56 59  1  0  0  0
 51 54  1  0  0  0
 45 48  1  0  0  0
 39 42  1  0  0  0
  2  5  1  0  0  0
  8 11  1  0  0  0
 14 17  1  0  0  0
 20 23  1  0  0  0
 26 29  1  0  0  0
 32 35  1  0  0  0
M  END
> <minimizedAffinity>
-7.95569

> <CNNscore>
0.0805094019

> <CNNaffinity>
7.2800741196

> <CNN_VS>
0.5861144066

> <CNNaffinity_variance>
1.0818235874

$$$$
[H]c1c([H])c([H])c(C([H])([H])[C@@]([H])(C(=O)N([H])[C@]([H])(C(=O)N([H])[C@]([H])(C(=O)N([H])[C@]([H])(C(=O)N([H])[C@]([H])(C(=O)N([H])[C@]([H])(C([H])([H])[H])C([H])(C([H])([H])[H])C([H])([H])[H])C([H])([H])[H])C([H])([H])c2c([H])c([H])c([H])c([H])c2[H])C([H])([H])[H])C([H])([H])[H])N([H])C(=O)[C@@]([H])(N([H])C(=O)[C@@]([H])(N([H])C(=O)[C@@]([H])(N([H])C(=O)[C@@]([H])(N([H])C(=O)[C@@]([H])(N([H])C(=O)C([H])(C([H])([H])[H])C([H])([H])[H])C([H])([H])[H])C([H])([H])[H])C([H])([H])[H])C([H])([H])[H])C([H])([H])[H])c([H])c1[H]


 84 85  0  0  0  0  0  0  0  0999 V2000
    7.5344   17.2481    6.5748 C   0  0  0  0  0  0  0  0  0  0  0  0
    7.5140   17.1422    8.0205 N   0  0  0  0  0  0  0  0  0  0  0  0
    8.6434   16.9661    8.8191 C   0  0  0  0  0  0  0  0  0  0  0  0
    9.7856   16.8909    8.3356 O   0  0  0  0  0  0  0  0  0  0  0  0
    6.5829   17.2078    8.4779 H   0  0  0  0  0  0  0  0  0  0  0  0
    8.5163   16.8507   10.3171 C   0  0  0  0  0  0  0  0  0  0  0  0
    8.7067   15.4581   10.7968 C   0  0  0  0  0  0  0  0  0  0  0  0
    7.2490   17.4052   10.7516 N   0  0  0  0  0  0  0  0  0  0  0  0
    6.9532   18.7695   10.6612 C   0  0  0  0  0  0  0  0  0  0  0  0
    7.8350   19.5517   10.1626 O   0  0  0  0  0  0  0  0  0  0  0  0
    6.5180   16.7863   11.1485 H   0  0  0  0  0  0  0  0  0  0  0  0
    5.6932   19.4306   11.0885 C   0  0  0  0  0  0  0  0  0  0  0  0
    4.9388   18.5438   12.0044 C   0  0  0  0  0  0  0  0  0  0  0  0
    4.9567   19.9666    9.9950 N   0  0  0  0  0  0  0  0  0  0  0  0
    4.1149   21.0950   10.0877 C   0  0  0  0  0  0  0  0  0  0  0  0
    3.9167   21.7602   11.0987 O   0  0  0  0  0  0  0  0  0  0  0  0
    5.0654   19.4666    9.0760 H   0  0  0  0  0  0  0  0  0  0  0  0
    3.4097   21.4884    8.8072 C   0  0  0  0  0  0  0  0  0  0  0  0
    3.8064   20.6862    7.6347 C   0  0  0  0  0  0  0  0  0  0  0  0
    3.6365   22.9082    8.6259 N   0  0  0  0  0  0  0  0  0  0  0  0
    2.6009   23.8236    8.4331 C   0  0  0  0  0  0  0  0  0  0  0  0
    1.3967   23.4463    8.4257 O   0  0  0  0  0  0  0  0  0  0  0  0
    4.6440   23.2044    8.6512 H   0  0  0  0  0  0  0  0  0  0  0  0
    2.8074   25.2891    8.2238 C   0  0  0  0  0  0  0  0  0  0  0  0
    1.5380   25.9320    7.8558 C   0  0  0  0  0  0  0  0  0  0  0  0
    3.8364   25.4832    7.2474 N   0  0  0  0  0  0  0  0  0  0  0  0
    5.0226   26.2096    7.4298 C   0  0  0  0  0  0  0  0  0  0  0  0
    5.2141   26.7448    8.5519 O   0  0  0  0  0  0  0  0  0  0  0  0
    3.7022   25.0450    6.2837 H   0  0  0  0  0  0  0  0  0  0  0  0
    6.0402   26.3524    6.3438 C   0  0  0  0  0  0  0  0  0  0  0  0
    7.4082   26.3886    6.9833 C   0  0  0  0  0  0  0  0  0  0  0  0
    5.8203   27.5888    5.6509 N   0  0  0  0  0  0  0  0  0  0  0  0
    5.3727   27.5919    4.2911 C   0  0  0  0  0  0  0  0  0  0  0  0
    5.1794   26.4999    3.7314 O   0  0  0  0  0  0  0  0  0  0  0  0
    5.9772   28.5032    6.1105 H   0  0  0  0  0  0  0  0  0  0  0  0
    5.1439   28.8605    3.5675 C   0  0  0  0  0  0  0  0  0  0  0  0
    6.4824   29.5445    3.2553 C   0  0  0  0  0  0  0  0  0  0  0  0
    4.4864   28.5535    2.2364 C   0  0  0  0  0  0  0  0  0  0  0  0
    8.4377   19.6052    6.9144 N   0  0  0  0  0  0  0  0  0  0  0  0
    7.7630   18.6294    6.1430 C   0  0  0  0  0  0  0  0  0  0  0  0
    7.3390   18.9793    5.0127 O   0  0  0  0  0  0  0  0  0  0  0  0
    8.7785   19.3706    7.8706 H   0  0  0  0  0  0  0  0  0  0  0  0
    8.6666   20.9559    6.3851 C   0  0  0  0  0  0  0  0  0  0  0  0
    8.9140   21.8962    7.5812 C   0  0  0  0  0  0  0  0  0  0  0  0
   10.0794   20.2094    4.3692 N   0  0  0  0  0  0  0  0  0  0  0  0
    9.8902   20.8846    5.5914 C   0  0  0  0  0  0  0  0  0  0  0  0
   10.9123   21.5110    6.0693 O   0  0  0  0  0  0  0  0  0  0  0  0
    9.3082   19.6553    3.9370 H   0  0  0  0  0  0  0  0  0  0  0  0
   11.4013   20.3277    3.7708 C   0  0  0  0  0  0  0  0  0  0  0  0
   12.0700   18.9511    3.6949 C   0  0  0  0  0  0  0  0  0  0  0  0
   11.3730   22.1169    2.0212 N   0  0  0  0  0  0  0  0  0  0  0  0
   11.2349   20.7580    2.3571 C   0  0  0  0  0  0  0  0  0  0  0  0
   10.9690   19.8459    1.5348 O   0  0  0  0  0  0  0  0  0  0  0  0
   11.5709   22.7724    2.8497 H   0  0  0  0  0  0  0  0  0  0  0  0
   11.2700   22.6968    0.7072 C   0  0  0  0  0  0  0  0  0  0  0  0
   13.0026   22.8276   -1.1889 N   0  0  0  0  0  0  0  0  0  0  0  0
   12.5885   22.8008    0.1406 C   0  0  0  0  0  0  0  0  0  0  0  0
   13.5649   22.9121    1.0007 O   0  0  0  0  0  0  0  0  0  0  0  0
   12.3392   22.7575   -1.9677 H   0  0  0  0  0  0  0  0  0  0  0  0
   14.4058   22.9987   -1.6020 C   0  0  0  0  0  0  0  0  0  0  0  0
   14.7528   22.1376   -2.7461 C   0  0  0  0  0  0  0  0  0  0  0  0
   14.6561   24.7960   -3.3816 N   0  0  0  0  0  0  0  0  0  0  0  0
   14.4883   24.4429   -2.0311 C   0  0  0  0  0  0  0  0  0  0  0  0
   14.4011   25.3307   -1.1562 O   0  0  0  0  0  0  0  0  0  0  0  0
   14.7165   24.0939   -4.1163 H   0  0  0  0  0  0  0  0  0  0  0  0
   14.7390   26.2247   -3.7220 C   0  0  0  0  0  0  0  0  0  0  0  0
   13.3181   26.6989   -4.0545 C   0  0  0  0  0  0  0  0  0  0  0  0
   14.9040   26.6496   -6.1692 C   0  0  0  0  0  0  0  0  0  0  0  0
   15.6420   26.5137   -4.8670 C   0  0  0  0  0  0  0  0  0  0  0  0
   16.3833   27.7992   -4.5567 C   0  0  0  0  0  0  0  0  0  0  0  0
   10.2343   23.7219    0.5055 C   0  0  0  0  0  0  0  0  0  0  0  0
    9.4185   24.0245    1.7410 C   0  0  0  0  0  0  0  0  0  0  0  0
    8.3269   23.1690    1.9734 C   0  0  0  0  0  0  0  0  0  0  0  0
    7.5407   23.3143    3.0897 C   0  0  0  0  0  0  0  0  0  0  0  0
    7.8138   24.3076    4.0031 C   0  0  0  0  0  0  0  0  0  0  0  0
    8.8712   25.1272    3.7679 C   0  0  0  0  0  0  0  0  0  0  0  0
    9.6717   24.9922    2.6477 C   0  0  0  0  0  0  0  0  0  0  0  0
    6.1393   16.7776    6.0556 C   0  0  0  0  0  0  0  0  0  0  0  0
    5.2957   16.3701    7.1715 C   0  0  0  0  0  0  0  0  0  0  0  0
    5.3836   15.0910    7.6807 C   0  0  0  0  0  0  0  0  0  0  0  0
    4.6236   14.6561    8.7357 C   0  0  0  0  0  0  0  0  0  0  0  0
    3.7293   15.5194    9.3231 C   0  0  0  0  0  0  0  0  0  0  0  0
    3.6079   16.8005    8.8491 C   0  0  0  0  0  0  0  0  0  0  0  0
    4.3991   17.2195    7.7676 C   0  0  0  0  0  0  0  0  0  0  0  0
 68 69  1  0  0  0
 69 70  1  0  0  0
 69 66  1  0  0  0
 66 62  1  0  0  0
 62 63  1  0  0  0
 63 64  2  0  0  0
 63 60  1  0  0  0
 60 61  1  0  0  0
 60 56  1  0  0  0
 56 57  1  0  0  0
 57 58  2  0  0  0
 57 55  1  0  0  0
 55 71  1  0  0  0
 71 72  1  0  0  0
 72 73  2  0  0  0
 73 74  1  0  0  0
 74 75  2  0  0  0
 75 76  1  0  0  0
 76 77  2  0  0  0
 55 51  1  0  0  0
 51 52  1  0  0  0
 52 53  2  0  0  0
 52 49  1  0  0  0
 49 50  1  0  0  0
 49 45  1  0  0  0
 45 46  1  0  0  0
 46 47  2  0  0  0
 46 43  1  0  0  0
 43 44  1  0  0  0
 43 39  1  0  0  0
 39 40  1  0  0  0
 40 41  2  0  0  0
 40  1  1  0  0  0
  1 78  1  0  0  0
 78 79  1  0  0  0
 79 80  2  0  0  0
 80 81  1  0  0  0
 81 82  2  0  0  0
 82 83  1  0  0  0
 83 84  2  0  0  0
  1  2  1  0  0  0
  2  3  1  0  0  0
  3  4  2  0  0  0
  3  6  1  0  0  0
  6  7  1  0  0  0
  6  8  1  0  0  0
  8  9  1  0  0  0
  9 10  2  0  0  0
  9 12  1  0  0  0
 12 13  1  0  0  0
 12 14  1  0  0  0
 14 15  1  0  0  0
 15 16  2  0  0  0
 15 18  1  0  0  0
 18 19  1  0  0  0
 18 20  1  0  0  0
 20 21  1  0  0  0
 21 22  2  0  0  0
 21 24  1  0  0  0
 24 25  1  0  0  0
 24 26  1  0  0  0
 26 27  1  0  0  0
 27 28  2  0  0  0
 27 30  1  0  0  0
 30 31  1  0  0  0
 30 32  1  0  0  0
 32 33  1  0  0  0
 33 34  2  0  0  0
 33 36  1  0  0  0
 36 37  1  0  0  0
 36 38  1  0  0  0
 66 67  1  0  0  0
 77 72  1  0  0  0
 84 79  1  0  0  0
 62 65  1  0  0  0
 56 59  1  0  0  0
 51 54  1  0  0  0
 45 48  1  0  0  0
 39 42  1  0  0  0
  2  5  1  0  0  0
  8 11  1  0  0  0
 14 17  1  0  0  0
 20 23  1  0  0  0
 26 29  1  0  0  0
 32 35  1  0  0  0
M  END
> <minimizedAffinity>
-8.32878

> <CNNscore>
0.0780867189

> <CNNaffinity>
7.1309900284

> <CNN_VS>
0.5568355918

> <CNNaffinity_variance>
1.3687709570

$$$$
[H]c1c([H])c([H])c(C([H])([H])[C@@]([H])(C(=O)N([H])[C@]([H])(C(=O)N([H])[C@]([H])(C(=O)N([H])[C@]([H])(C(=O)N([H])[C@]([H])(C(=O)N([H])[C@]([H])(C([H])([H])[H])C([H])(C([H])([H])[H])C([H])([H])[H])C([H])([H])[H])C([H])([H])c2c([H])c([H])c([H])c([H])c2[H])C([H])([H])[H])C([H])([H])[H])N([H])C(=O)[C@@]([H])(N([H])C(=O)[C@@]([H])(N([H])C(=O)[C@@]([H])(N([H])C(=O)[C@@]([H])(N([H])C(=O)[C@@]([H])(N([H])C(=O)C([H])(C([H])([H])[H])C([H])([H])[H])C([H])([H])[H])C([H])([H])[H])C([H])([H])[H])C([H])([H])[H])C([H])([H])[H])c([H])c1[H]


 84 85  0  0  0  0  0  0  0  0999 V2000
    6.3343   24.5253    7.3589 C   0  0  0  0  0  0  0  0  0  0  0  0
    5.0929   25.2428    7.5734 N   0  0  0  0  0  0  0  0  0  0  0  0
    4.9767   26.6316    7.6175 C   0  0  0  0  0  0  0  0  0  0  0  0
    5.9578   27.3788    7.4653 O   0  0  0  0  0  0  0  0  0  0  0  0
    4.2380   24.6648    7.6979 H   0  0  0  0  0  0  0  0  0  0  0  0
    3.6401   27.2846    7.8630 C   0  0  0  0  0  0  0  0  0  0  0  0
    3.7659   28.5884    8.5631 C   0  0  0  0  0  0  0  0  0  0  0  0
    2.7645   26.3714    8.5713 N   0  0  0  0  0  0  0  0  0  0  0  0
    1.5256   25.9683    8.0617 C   0  0  0  0  0  0  0  0  0  0  0  0
    1.1624   26.4165    6.9192 O   0  0  0  0  0  0  0  0  0  0  0  0
    3.0455   25.9893    9.4932 H   0  0  0  0  0  0  0  0  0  0  0  0
    0.5580   25.0497    8.7153 C   0  0  0  0  0  0  0  0  0  0  0  0
   -0.2020   25.7721    9.7617 C   0  0  0  0  0  0  0  0  0  0  0  0
    1.1531   23.8204    9.1157 N   0  0  0  0  0  0  0  0  0  0  0  0
    0.4935   22.5740    9.0751 C   0  0  0  0  0  0  0  0  0  0  0  0
   -0.6537   22.3825    8.6863 O   0  0  0  0  0  0  0  0  0  0  0  0
    2.1449   23.8788    9.4613 H   0  0  0  0  0  0  0  0  0  0  0  0
    1.3038   21.3921    9.5635 C   0  0  0  0  0  0  0  0  0  0  0  0
    2.6087   21.7602   10.1443 C   0  0  0  0  0  0  0  0  0  0  0  0
    1.4184   20.4754    8.4470 N   0  0  0  0  0  0  0  0  0  0  0  0
    2.1650   20.7620    7.3033 C   0  0  0  0  0  0  0  0  0  0  0  0
    2.7991   21.8482    7.1998 O   0  0  0  0  0  0  0  0  0  0  0  0
    0.8967   19.5706    8.5591 H   0  0  0  0  0  0  0  0  0  0  0  0
    2.2839   19.8442    6.1297 C   0  0  0  0  0  0  0  0  0  0  0  0
    1.3379   18.7273    6.2621 C   0  0  0  0  0  0  0  0  0  0  0  0
    3.6439   19.4138    6.0065 N   0  0  0  0  0  0  0  0  0  0  0  0
    4.5842   19.8983    5.0851 C   0  0  0  0  0  0  0  0  0  0  0  0
    4.2119   20.7964    4.2870 O   0  0  0  0  0  0  0  0  0  0  0  0
    3.9898   18.6499    6.6667 H   0  0  0  0  0  0  0  0  0  0  0  0
    5.9869   19.3830    5.0379 C   0  0  0  0  0  0  0  0  0  0  0  0
    5.9682   18.0300    4.3664 C   0  0  0  0  0  0  0  0  0  0  0  0
    6.4781   19.2286    6.3765 N   0  0  0  0  0  0  0  0  0  0  0  0
    7.5258   20.0706    6.8694 C   0  0  0  0  0  0  0  0  0  0  0  0
    7.9940   20.9350    6.1101 O   0  0  0  0  0  0  0  0  0  0  0  0
    6.0921   18.5120    7.0163 H   0  0  0  0  0  0  0  0  0  0  0  0
    8.0399   19.9192    8.2470 C   0  0  0  0  0  0  0  0  0  0  0  0
    7.9299   18.4561    8.6989 C   0  0  0  0  0  0  0  0  0  0  0  0
    9.5139   20.2738    8.2616 C   0  0  0  0  0  0  0  0  0  0  0  0
    7.7080   24.1436    5.2483 N   0  0  0  0  0  0  0  0  0  0  0  0
    6.4840   24.1226    5.9581 C   0  0  0  0  0  0  0  0  0  0  0  0
    5.4644   23.7273    5.3385 O   0  0  0  0  0  0  0  0  0  0  0  0
    8.5736   24.4939    5.7105 H   0  0  0  0  0  0  0  0  0  0  0  0
    7.7790   23.6765    3.8577 C   0  0  0  0  0  0  0  0  0  0  0  0
    7.5866   24.8990    2.9386 C   0  0  0  0  0  0  0  0  0  0  0  0
    9.5549   21.8192    3.7409 N   0  0  0  0  0  0  0  0  0  0  0  0
    9.1316   23.1611    3.6656 C   0  0  0  0  0  0  0  0  0  0  0  0
   10.0393   24.0388    3.3990 O   0  0  0  0  0  0  0  0  0  0  0  0
    8.8842   21.0575    3.9829 H   0  0  0  0  0  0  0  0  0  0  0  0
   10.9654   21.5773    3.4739 C   0  0  0  0  0  0  0  0  0  0  0  0
   11.4138   20.2772    4.1497 C   0  0  0  0  0  0  0  0  0  0  0  0
   11.1236   22.4208    1.1229 N   0  0  0  0  0  0  0  0  0  0  0  0
   11.1276   21.3339    2.0159 C   0  0  0  0  0  0  0  0  0  0  0  0
   11.2568   20.1322    1.6724 O   0  0  0  0  0  0  0  0  0  0  0  0
   10.9713   23.3826    1.5779 H   0  0  0  0  0  0  0  0  0  0  0  0
   11.2930   22.3656   -0.3059 C   0  0  0  0  0  0  0  0  0  0  0  0
    8.9997   21.2018   -0.2881 N   0  0  0  0  0  0  0  0  0  0  0  0
   10.1608   21.6903   -0.8823 C   0  0  0  0  0  0  0  0  0  0  0  0
   10.2038   21.5211   -2.1766 O   0  0  0  0  0  0  0  0  0  0  0  0
    8.8314   21.2756    0.7207 H   0  0  0  0  0  0  0  0  0  0  0  0
    7.8985   20.5790   -1.0421 C   0  0  0  0  0  0  0  0  0  0  0  0
    7.9686   19.1077   -1.0065 C   0  0  0  0  0  0  0  0  0  0  0  0
    5.3913   20.5025   -0.6322 N   0  0  0  0  0  0  0  0  0  0  0  0
    6.6555   21.0294   -0.3149 C   0  0  0  0  0  0  0  0  0  0  0  0
    6.7700   21.8869    0.5868 O   0  0  0  0  0  0  0  0  0  0  0  0
    5.2710   19.7934   -1.3528 H   0  0  0  0  0  0  0  0  0  0  0  0
    4.2239   20.9987    0.1126 C   0  0  0  0  0  0  0  0  0  0  0  0
    3.7037   19.8394    0.9729 C   0  0  0  0  0  0  0  0  0  0  0  0
    2.9774   20.7014   -2.0215 C   0  0  0  0  0  0  0  0  0  0  0  0
    3.1302   21.5026   -0.7591 C   0  0  0  0  0  0  0  0  0  0  0  0
    1.8436   21.4558    0.0414 C   0  0  0  0  0  0  0  0  0  0  0  0
   12.6635   22.1957   -0.8130 C   0  0  0  0  0  0  0  0  0  0  0  0
   13.1557   23.3492   -1.6560 C   0  0  0  0  0  0  0  0  0  0  0  0
   12.3493   24.5013   -1.6402 C   0  0  0  0  0  0  0  0  0  0  0  0
   12.7177   25.6308   -2.3285 C   0  0  0  0  0  0  0  0  0  0  0  0
   13.8910   25.6498   -3.0486 C   0  0  0  0  0  0  0  0  0  0  0  0
   14.6616   24.5312   -3.0556 C   0  0  0  0  0  0  0  0  0  0  0  0
   14.3028   23.3864   -2.3667 C   0  0  0  0  0  0  0  0  0  0  0  0
    6.2914   23.2466    8.2535 C   0  0  0  0  0  0  0  0  0  0  0  0
    7.3860   23.2652    9.2149 C   0  0  0  0  0  0  0  0  0  0  0  0
    7.2274   22.6983   10.4626 C   0  0  0  0  0  0  0  0  0  0  0  0
    8.2253   22.6765   11.4025 C   0  0  0  0  0  0  0  0  0  0  0  0
    9.4433   23.2405   11.1053 C   0  0  0  0  0  0  0  0  0  0  0  0
    9.6457   23.8162    9.8772 C   0  0  0  0  0  0  0  0  0  0  0  0
    8.6064   23.8240    8.9333 C   0  0  0  0  0  0  0  0  0  0  0  0
 68 69  1  0  0  0
 69 70  1  0  0  0
 69 66  1  0  0  0
 66 62  1  0  0  0
 62 63  1  0  0  0
 63 64  2  0  0  0
 63 60  1  0  0  0
 60 61  1  0  0  0
 60 56  1  0  0  0
 56 57  1  0  0  0
 57 58  2  0  0  0
 57 55  1  0  0  0
 55 71  1  0  0  0
 71 72  1  0  0  0
 72 73  2  0  0  0
 73 74  1  0  0  0
 74 75  2  0  0  0
 75 76  1  0  0  0
 76 77  2  0  0  0
 55 51  1  0  0  0
 51 52  1  0  0  0
 52 53  2  0  0  0
 52 49  1  0  0  0
 49 50  1  0  0  0
 49 45  1  0  0  0
 45 46  1  0  0  0
 46 47  2  0  0  0
 46 43  1  0  0  0
 43 44  1  0  0  0
 43 39  1  0  0  0
 39 40  1  0  0  0
 40 41  2  0  0  0
 40  1  1  0  0  0
  1 78  1  0  0  0
 78 79  1  0  0  0
 79 80  2  0  0  0
 80 81  1  0  0  0
 81 82  2  0  0  0
 82 83  1  0  0  0
 83 84  2  0  0  0
  1  2  1  0  0  0
  2  3  1  0  0  0
  3  4  2  0  0  0
  3  6  1  0  0  0
  6  7  1  0  0  0
  6  8  1  0  0  0
  8  9  1  0  0  0
  9 10  2  0  0  0
  9 12  1  0  0  0
 12 13  1  0  0  0
 12 14  1  0  0  0
 14 15  1  0  0  0
 15 16  2  0  0  0
 15 18  1  0  0  0
 18 19  1  0  0  0
 18 20  1  0  0  0
 20 21  1  0  0  0
 21 22  2  0  0  0
 21 24  1  0  0  0
 24 25  1  0  0  0
 24 26  1  0  0  0
 26 27  1  0  0  0
 27 28  2  0  0  0
 27 30  1  0  0  0
 30 31  1  0  0  0
 30 32  1  0  0  0
 32 33  1  0  0  0
 33 34  2  0  0  0
 33 36  1  0  0  0
 36 37  1  0  0  0
 36 38  1  0  0  0
 66 67  1  0  0  0
 77 72  1  0  0  0
 84 79  1  0  0  0
 62 65  1  0  0  0
 56 59  1  0  0  0
 51 54  1  0  0  0
 45 48  1  0  0  0
 39 42  1  0  0  0
  2  5  1  0  0  0
  8 11  1  0  0  0
 14 17  1  0  0  0
 20 23  1  0  0  0
 26 29  1  0  0  0
 32 35  1  0  0  0
M  END
> <minimizedAffinity>
-7.02150

> <CNNscore>
0.0680714846

> <CNNaffinity>
7.1835937500

> <CNN_VS>
0.4889978766

> <CNNaffinity_variance>
1.3360234499

$$$$
[H]c1c([H])c([H])c(C([H])([H])[C@@]([H])(C(=O)N([H])[C@]([H])(C(=O)N([H])[C@]([H])(C(=O)N([H])[C@]([H])(C(=O)N([H])[C@]([H])(C(=O)N([H])[C@]([H])(C([H])([H])[H])C([H])(C([H])([H])[H])C([H])([H])[H])C([H])([H])[H])C([H])([H])c2c([H])c([H])c([H])c([H])c2[H])C([H])([H])[H])C([H])([H])[H])N([H])C(=O)[C@@]([H])(N([H])C(=O)[C@@]([H])(N([H])C(=O)[C@@]([H])(N([H])C(=O)[C@@]([H])(N([H])C(=O)[C@@]([H])(N([H])C(=O)C([H])(C([H])([H])[H])C([H])([H])[H])C([H])([H])[H])C([H])([H])[H])C([H])([H])[H])C([H])([H])[H])C([H])([H])[H])c([H])c1[H]


 84 85  0  0  0  0  0  0  0  0999 V2000
    7.8302   19.7535    8.6144 C   0  0  0  0  0  0  0  0  0  0  0  0
    7.4097   21.1226    8.8395 N   0  0  0  0  0  0  0  0  0  0  0  0
    8.2769   22.2016    9.0065 C   0  0  0  0  0  0  0  0  0  0  0  0
    9.5114   22.0654    8.9673 O   0  0  0  0  0  0  0  0  0  0  0  0
    6.3851   21.2943    8.8723 H   0  0  0  0  0  0  0  0  0  0  0  0
    7.7406   23.5891    9.2523 C   0  0  0  0  0  0  0  0  0  0  0  0
    8.8193   24.5763    9.5124 C   0  0  0  0  0  0  0  0  0  0  0  0
    6.7625   23.5605   10.3223 N   0  0  0  0  0  0  0  0  0  0  0  0
    5.3877   23.6713   10.0891 C   0  0  0  0  0  0  0  0  0  0  0  0
    4.9828   23.7892    8.8806 O   0  0  0  0  0  0  0  0  0  0  0  0
    7.0700   23.4553   11.3068 H   0  0  0  0  0  0  0  0  0  0  0  0
    4.3139   23.6642   11.1159 C   0  0  0  0  0  0  0  0  0  0  0  0
    4.5475   22.5716   12.0886 C   0  0  0  0  0  0  0  0  0  0  0  0
    3.0106   23.7225   10.5472 N   0  0  0  0  0  0  0  0  0  0  0  0
    1.9934   24.5929   10.9922 C   0  0  0  0  0  0  0  0  0  0  0  0
    2.0954   25.4084   11.9024 O   0  0  0  0  0  0  0  0  0  0  0  0
    2.8247   23.0615    9.7504 H   0  0  0  0  0  0  0  0  0  0  0  0
    0.6734   24.4806   10.2594 C   0  0  0  0  0  0  0  0  0  0  0  0
    0.5408   23.2549    9.4497 C   0  0  0  0  0  0  0  0  0  0  0  0
    0.5247   25.6936    9.4806 N   0  0  0  0  0  0  0  0  0  0  0  0
    1.2939   25.9680    8.3489 C   0  0  0  0  0  0  0  0  0  0  0  0
    2.1578   25.1447    7.9386 O   0  0  0  0  0  0  0  0  0  0  0  0
   -0.2102   26.3585    9.8290 H   0  0  0  0  0  0  0  0  0  0  0  0
    1.1754   27.2189    7.5395 C   0  0  0  0  0  0  0  0  0  0  0  0
    0.3064   26.9894    6.3766 C   0  0  0  0  0  0  0  0  0  0  0  0
    2.4855   27.6700    7.1785 N   0  0  0  0  0  0  0  0  0  0  0  0
    3.4360   28.2279    8.0463 C   0  0  0  0  0  0  0  0  0  0  0  0
    3.1222   28.3479    9.2585 O   0  0  0  0  0  0  0  0  0  0  0  0
    2.7809   27.5856    6.1565 H   0  0  0  0  0  0  0  0  0  0  0  0
    4.7832   28.6679    7.5701 C   0  0  0  0  0  0  0  0  0  0  0  0
    4.9240   30.1443    7.8568 C   0  0  0  0  0  0  0  0  0  0  0  0
    4.8737   28.4608    6.1537 N   0  0  0  0  0  0  0  0  0  0  0  0
    5.6325   27.3682    5.6246 C   0  0  0  0  0  0  0  0  0  0  0  0
    6.2058   26.6076    6.4219 O   0  0  0  0  0  0  0  0  0  0  0  0
    4.3974   29.0889    5.4825 H   0  0  0  0  0  0  0  0  0  0  0  0
    5.7330   27.1464    4.1666 C   0  0  0  0  0  0  0  0  0  0  0  0
    5.5631   28.4731    3.4129 C   0  0  0  0  0  0  0  0  0  0  0  0
    7.1224   26.6326    3.8438 C   0  0  0  0  0  0  0  0  0  0  0  0
    7.0356   19.9678    6.2040 N   0  0  0  0  0  0  0  0  0  0  0  0
    7.9147   19.4484    7.1838 C   0  0  0  0  0  0  0  0  0  0  0  0
    8.8271   18.6786    6.7906 O   0  0  0  0  0  0  0  0  0  0  0  0
    6.2446   20.5842    6.4865 H   0  0  0  0  0  0  0  0  0  0  0  0
    7.2209   19.6484    4.7825 C   0  0  0  0  0  0  0  0  0  0  0  0
    5.9241   18.9883    4.2739 C   0  0  0  0  0  0  0  0  0  0  0  0
    8.6041   21.5608    3.7593 N   0  0  0  0  0  0  0  0  0  0  0  0
    7.3921   20.9243    4.0933 C   0  0  0  0  0  0  0  0  0  0  0  0
    6.3067   21.5356    3.7561 O   0  0  0  0  0  0  0  0  0  0  0  0
    9.5216   21.1425    4.0271 H   0  0  0  0  0  0  0  0  0  0  0  0
    8.4878   22.8210    3.0398 C   0  0  0  0  0  0  0  0  0  0  0  0
    9.7441   23.6704    3.2593 C   0  0  0  0  0  0  0  0  0  0  0  0
    9.4978   21.7528    1.0144 N   0  0  0  0  0  0  0  0  0  0  0  0
    8.4682   22.5244    1.5827 C   0  0  0  0  0  0  0  0  0  0  0  0
    7.5019   23.0048    0.9392 O   0  0  0  0  0  0  0  0  0  0  0  0
   10.2665   21.4448    1.6996 H   0  0  0  0  0  0  0  0  0  0  0  0
    9.6182   21.3537   -0.3639 C   0  0  0  0  0  0  0  0  0  0  0  0
    7.3998   20.2446   -1.0442 N   0  0  0  0  0  0  0  0  0  0  0  0
    8.7228   20.2544   -0.6091 C   0  0  0  0  0  0  0  0  0  0  0  0
    9.2256   19.0641   -0.4191 O   0  0  0  0  0  0  0  0  0  0  0  0
    6.8842   21.1091   -1.2400 H   0  0  0  0  0  0  0  0  0  0  0  0
    6.6361   19.0121   -1.3026 C   0  0  0  0  0  0  0  0  0  0  0  0
    6.1080   18.4201   -0.0610 C   0  0  0  0  0  0  0  0  0  0  0  0
    4.1625   19.0661   -1.8841 N   0  0  0  0  0  0  0  0  0  0  0  0
    5.4810   19.4691   -2.1590 C   0  0  0  0  0  0  0  0  0  0  0  0
    5.7182   20.2232   -3.1268 O   0  0  0  0  0  0  0  0  0  0  0  0
    3.9393   18.4634   -1.0945 H   0  0  0  0  0  0  0  0  0  0  0  0
    3.0899   19.5436   -2.7703 C   0  0  0  0  0  0  0  0  0  0  0  0
    1.8786   19.8710   -1.8872 C   0  0  0  0  0  0  0  0  0  0  0  0
    1.5917   17.6456   -3.3616 C   0  0  0  0  0  0  0  0  0  0  0  0
    2.6956   18.5602   -3.8131 C   0  0  0  0  0  0  0  0  0  0  0  0
    2.2538   19.3380   -5.0372 C   0  0  0  0  0  0  0  0  0  0  0  0
   10.9537   21.4433   -0.9742 C   0  0  0  0  0  0  0  0  0  0  0  0
   11.7068   22.7061   -0.6251 C   0  0  0  0  0  0  0  0  0  0  0  0
   11.1702   23.8975   -1.1451 C   0  0  0  0  0  0  0  0  0  0  0  0
   11.7390   25.1134   -0.8564 C   0  0  0  0  0  0  0  0  0  0  0  0
   12.8507   25.1820   -0.0473 C   0  0  0  0  0  0  0  0  0  0  0  0
   13.3594   24.0245    0.4494 C   0  0  0  0  0  0  0  0  0  0  0  0
   12.7966   22.7927    0.1669 C   0  0  0  0  0  0  0  0  0  0  0  0
    6.7591   18.8257    9.2695 C   0  0  0  0  0  0  0  0  0  0  0  0
    7.3329   17.5188    9.5617 C   0  0  0  0  0  0  0  0  0  0  0  0
    6.9711   16.4163    8.8154 C   0  0  0  0  0  0  0  0  0  0  0  0
    7.4865   15.1654    9.0376 C   0  0  0  0  0  0  0  0  0  0  0  0
    8.4046   14.9840   10.0446 C   0  0  0  0  0  0  0  0  0  0  0  0
    8.7931   16.0518   10.8124 C   0  0  0  0  0  0  0  0  0  0  0  0
    8.2494   17.3220   10.5626 C   0  0  0  0  0  0  0  0  0  0  0  0
 68 69  1  0  0  0
 69 70  1  0  0  0
 69 66  1  0  0  0
 66 62  1  0  0  0
 62 63  1  0  0  0
 63 64  2  0  0  0
 63 60  1  0  0  0
 60 61  1  0  0  0
 60 56  1  0  0  0
 56 57  1  0  0  0
 57 58  2  0  0  0
 57 55  1  0  0  0
 55 71  1  0  0  0
 71 72  1  0  0  0
 72 73  2  0  0  0
 73 74  1  0  0  0
 74 75  2  0  0  0
 75 76  1  0  0  0
 76 77  2  0  0  0
 55 51  1  0  0  0
 51 52  1  0  0  0
 52 53  2  0  0  0
 52 49  1  0  0  0
 49 50  1  0  0  0
 49 45  1  0  0  0
 45 46  1  0  0  0
 46 47  2  0  0  0
 46 43  1  0  0  0
 43 44  1  0  0  0
 43 39  1  0  0  0
 39 40  1  0  0  0
 40 41  2  0  0  0
 40  1  1  0  0  0
  1 78  1  0  0  0
 78 79  1  0  0  0
 79 80  2  0  0  0
 80 81  1  0  0  0
 81 82  2  0  0  0
 82 83  1  0  0  0
 83 84  2  0  0  0
  1  2  1  0  0  0
  2  3  1  0  0  0
  3  4  2  0  0  0
  3  6  1  0  0  0
  6  7  1  0  0  0
  6  8  1  0  0  0
  8  9  1  0  0  0
  9 10  2  0  0  0
  9 12  1  0  0  0
 12 13  1  0  0  0
 12 14  1  0  0  0
 14 15  1  0  0  0
 15 16  2  0  0  0
 15 18  1  0  0  0
 18 19  1  0  0  0
 18 20  1  0  0  0
 20 21  1  0  0  0
 21 22  2  0  0  0
 21 24  1  0  0  0
 24 25  1  0  0  0
 24 26  1  0  0  0
 26 27  1  0  0  0
 27 28  2  0  0  0
 27 30  1  0  0  0
 30 31  1  0  0  0
 30 32  1  0  0  0
 32 33  1  0  0  0
 33 34  2  0  0  0
 33 36  1  0  0  0
 36 37  1  0  0  0
 36 38  1  0  0  0
 66 67  1  0  0  0
 77 72  1  0  0  0
 84 79  1  0  0  0
 62 65  1  0  0  0
 56 59  1  0  0  0
 51 54  1  0  0  0
 45 48  1  0  0  0
 39 42  1  0  0  0
  2  5  1  0  0  0
  8 11  1  0  0  0
 14 17  1  0  0  0
 20 23  1  0  0  0
 26 29  1  0  0  0
 32 35  1  0  0  0
M  END
> <minimizedAffinity>
-7.46399

> <CNNscore>
0.0671493635

> <CNNaffinity>
6.6879653931

> <CNN_VS>
0.4490926266

> <CNNaffinity_variance>
1.5308665037

$$$$
[H]c1c([H])c([H])c(C([H])([H])[C@@]([H])(C(=O)N([H])[C@]([H])(C(=O)N([H])[C@]([H])(C([H])([H])[H])C([H])(C([H])([H])[H])C([H])([H])[H])C([H])([H])[H])N([H])C(=O)[C@@]([H])(N([H])C(=O)[C@@]([H])(N([H])C(=O)[C@@]([H])(N([H])C(=O)[C@@]([H])(N([H])C(=O)[C@@]([H])(N([H])C(=O)[C@@]([H])(N([H])C(=O)[C@@]([H])(N([H])C(=O)[C@@]([H])(N([H])C(=O)C([H])(C([H])([H])[H])C([H])([H])[H])C([H])([H])[H])C([H])([H])[H])C([H])([H])[H])C([H])([H])[H])C([H])([H])[H])C([H])([H])[H])C([H])([H])[H])C([H])([H])c2c([H])c([H])c([H])c([H])c2[H])c([H])c1[H]


 84 85  0  0  0  0  0  0  0  0999 V2000
    4.2151   16.1356    0.0027 N   0  0  0  0  0  0  0  0  0  0  0  0
    3.1675   16.9947   -0.4519 C   0  0  0  0  0  0  0  0  0  0  0  0
    3.3473   18.2413   -0.2304 O   0  0  0  0  0  0  0  0  0  0  0  0
    4.1107   15.1201   -0.1185 H   0  0  0  0  0  0  0  0  0  0  0  0
    1.9611   16.5988   -1.1252 C   0  0  0  0  0  0  0  0  0  0  0  0
    0.9958   17.8300   -1.2340 C   0  0  0  0  0  0  0  0  0  0  0  0
    1.2324   15.6880   -0.2470 N   0  0  0  0  0  0  0  0  0  0  0  0
    0.6336   16.0332    0.9779 C   0  0  0  0  0  0  0  0  0  0  0  0
    0.7128   17.1992    1.4045 O   0  0  0  0  0  0  0  0  0  0  0  0
    1.1292   14.6757   -0.5377 H   0  0  0  0  0  0  0  0  0  0  0  0
   -0.0961   15.0261    1.7947 C   0  0  0  0  0  0  0  0  0  0  0  0
   -1.5096   14.9048    1.1675 C   0  0  0  0  0  0  0  0  0  0  0  0
   -0.2423   15.4490    3.1592 N   0  0  0  0  0  0  0  0  0  0  0  0
   -0.0687   14.5713    4.2475 C   0  0  0  0  0  0  0  0  0  0  0  0
    0.2124   13.3641    4.1700 O   0  0  0  0  0  0  0  0  0  0  0  0
   -0.4918   16.4795    3.3505 H   0  0  0  0  0  0  0  0  0  0  0  0
   -0.2562   15.2011    5.6039 C   0  0  0  0  0  0  0  0  0  0  0  0
   -1.2386   16.3594    5.3997 C   0  0  0  0  0  0  0  0  0  0  0  0
    0.9953   15.7005    6.0755 N   0  0  0  0  0  0  0  0  0  0  0  0
    1.4237   15.4338    7.3966 C   0  0  0  0  0  0  0  0  0  0  0  0
    0.6247   14.7351    8.1225 O   0  0  0  0  0  0  0  0  0  0  0  0
    1.6026   16.2661    5.4564 H   0  0  0  0  0  0  0  0  0  0  0  0
    2.7002   15.9044    7.9774 C   0  0  0  0  0  0  0  0  0  0  0  0
    2.3809   16.9729    9.0160 C   0  0  0  0  0  0  0  0  0  0  0  0
    3.4948   16.5400    6.9051 N   0  0  0  0  0  0  0  0  0  0  0  0
    4.7711   16.0463    6.5740 C   0  0  0  0  0  0  0  0  0  0  0  0
    5.2339   15.0721    7.2177 O   0  0  0  0  0  0  0  0  0  0  0  0
    3.1188   17.3586    6.3906 H   0  0  0  0  0  0  0  0  0  0  0  0
    5.6065   16.6251    5.4821 C   0  0  0  0  0  0  0  0  0  0  0  0
    6.8481   15.7224    5.2736 C   0  0  0  0  0  0  0  0  0  0  0  0
    6.0281   17.9556    5.8098 N   0  0  0  0  0  0  0  0  0  0  0  0
    5.3038   19.1193    5.5461 C   0  0  0  0  0  0  0  0  0  0  0  0
    4.1725   19.0224    4.9582 O   0  0  0  0  0  0  0  0  0  0  0  0
    6.9555   18.0786    6.2868 H   0  0  0  0  0  0  0  0  0  0  0  0
    5.7785   20.4884    5.9149 C   0  0  0  0  0  0  0  0  0  0  0  0
    5.7944   21.3700    4.6677 C   0  0  0  0  0  0  0  0  0  0  0  0
    7.0532   20.4446    6.5696 N   0  0  0  0  0  0  0  0  0  0  0  0
    7.5586   21.4070    7.4746 C   0  0  0  0  0  0  0  0  0  0  0  0
    6.9614   22.4390    7.8374 O   0  0  0  0  0  0  0  0  0  0  0  0
    7.6756   19.6066    6.3512 H   0  0  0  0  0  0  0  0  0  0  0  0
    8.9311   21.1733    8.0505 C   0  0  0  0  0  0  0  0  0  0  0  0
    9.8437   20.5367    7.0576 C   0  0  0  0  0  0  0  0  0  0  0  0
    9.4462   22.5270    8.5301 C   0  0  0  0  0  0  0  0  0  0  0  0
    5.3996   16.6684    0.6251 C   0  0  0  0  0  0  0  0  0  0  0  0
    5.9764   15.5364    1.4746 C   0  0  0  0  0  0  0  0  0  0  0  0
    6.5281   18.5295   -0.5692 N   0  0  0  0  0  0  0  0  0  0  0  0
    6.4287   17.1510   -0.3461 C   0  0  0  0  0  0  0  0  0  0  0  0
    7.1242   16.2670   -0.8743 O   0  0  0  0  0  0  0  0  0  0  0  0
    5.8013   19.0975    0.0195 H   0  0  0  0  0  0  0  0  0  0  0  0
    7.4135   19.2646   -1.4298 C   0  0  0  0  0  0  0  0  0  0  0  0
    8.2114   21.3918   -0.3313 N   0  0  0  0  0  0  0  0  0  0  0  0
    8.4027   20.0349   -0.6547 C   0  0  0  0  0  0  0  0  0  0  0  0
    9.4637   19.5151   -0.2631 O   0  0  0  0  0  0  0  0  0  0  0  0
    7.3316   21.8439   -0.6178 H   0  0  0  0  0  0  0  0  0  0  0  0
    9.1793   22.1880    0.3809 C   0  0  0  0  0  0  0  0  0  0  0  0
   11.6723   21.6944    0.5232 N   0  0  0  0  0  0  0  0  0  0  0  0
   10.5272   22.1340   -0.1809 C   0  0  0  0  0  0  0  0  0  0  0  0
   10.7126   22.4952   -1.3625 O   0  0  0  0  0  0  0  0  0  0  0  0
   11.4733   21.3700    1.5247 H   0  0  0  0  0  0  0  0  0  0  0  0
   13.0143   21.6584    0.0477 C   0  0  0  0  0  0  0  0  0  0  0  0
   13.2044   20.6120   -0.9714 C   0  0  0  0  0  0  0  0  0  0  0  0
   13.4131   23.5928   -1.5223 N   0  0  0  0  0  0  0  0  0  0  0  0
   13.6178   22.9970   -0.2710 C   0  0  0  0  0  0  0  0  0  0  0  0
   14.2955   23.5421    0.6112 O   0  0  0  0  0  0  0  0  0  0  0  0
   12.7955   23.0327   -2.2132 H   0  0  0  0  0  0  0  0  0  0  0  0
   13.8915   24.8202   -2.0543 C   0  0  0  0  0  0  0  0  0  0  0  0
   12.6865   25.7584   -2.3294 C   0  0  0  0  0  0  0  0  0  0  0  0
   14.2457   25.8209   -4.2974 C   0  0  0  0  0  0  0  0  0  0  0  0
   14.6267   24.7222   -3.3457 C   0  0  0  0  0  0  0  0  0  0  0  0
   16.1154   24.5880   -3.2156 C   0  0  0  0  0  0  0  0  0  0  0  0
    9.1895   21.7993    1.8414 C   0  0  0  0  0  0  0  0  0  0  0  0
    9.0704   22.8982    2.7940 C   0  0  0  0  0  0  0  0  0  0  0  0
    9.0656   24.2162    2.3351 C   0  0  0  0  0  0  0  0  0  0  0  0
    9.0051   25.2928    3.1801 C   0  0  0  0  0  0  0  0  0  0  0  0
    8.9467   25.0714    4.5487 C   0  0  0  0  0  0  0  0  0  0  0  0
    8.9484   23.7991    5.0319 C   0  0  0  0  0  0  0  0  0  0  0  0
    9.0111   22.7228    4.1520 C   0  0  0  0  0  0  0  0  0  0  0  0
    6.7686   19.8897   -2.5901 C   0  0  0  0  0  0  0  0  0  0  0  0
    5.3720   20.2294   -2.6018 C   0  0  0  0  0  0  0  0  0  0  0  0
    4.8398   21.2631   -1.8743 C   0  0  0  0  0  0  0  0  0  0  0  0
    3.4974   21.5530   -1.9439 C   0  0  0  0  0  0  0  0  0  0  0  0
    2.6224   20.8473   -2.7272 C   0  0  0  0  0  0  0  0  0  0  0  0
    3.1406   19.7856   -3.4809 C   0  0  0  0  0  0  0  0  0  0  0  0
    4.4791   19.5123   -3.3983 C   0  0  0  0  0  0  0  0  0  0  0  0
 68 69  1  0  0  0
 69 70  1  0  0  0
 69 66  1  0  0  0
 66 62  1  0  0  0
 62 63  1  0  0  0
 63 64  2  0  0  0
 63 60  1  0  0  0
 60 61  1  0  0  0
 60 56  1  0  0  0
 56 57  1  0  0  0
 57 58  2  0  0  0
 57 55  1  0  0  0
 55 71  1  0  0  0
 71 72  1  0  0  0
 72 73  2  0  0  0
 73 74  1  0  0  0
 74 75  2  0  0  0
 75 76  1  0  0  0
 76 77  2  0  0  0
 55 51  1  0  0  0
 51 52  1  0  0  0
 52 53  2  0  0  0
 52 50  1  0  0  0
 50 78  1  0  0  0
 78 79  1  0  0  0
 79 80  2  0  0  0
 80 81  1  0  0  0
 81 82  2  0  0  0
 82 83  1  0  0  0
 83 84  2  0  0  0
 50 46  1  0  0  0
 46 47  1  0  0  0
 47 48  2  0  0  0
 47 44  1  0  0  0
 44 45  1  0  0  0
 44  1  1  0  0  0
  1  2  1  0  0  0
  2  3  2  0  0  0
  2  5  1  0  0  0
  5  6  1  0  0  0
  5  7  1  0  0  0
  7  8  1  0  0  0
  8  9  2  0  0  0
  8 11  1  0  0  0
 11 12  1  0  0  0
 11 13  1  0  0  0
 13 14  1  0  0  0
 14 15  2  0  0  0
 14 17  1  0  0  0
 17 18  1  0  0  0
 17 19  1  0  0  0
 19 20  1  0  0  0
 20 21  2  0  0  0
 20 23  1  0  0  0
 23 24  1  0  0  0
 23 25  1  0  0  0
 25 26  1  0  0  0
 26 27  2  0  0  0
 26 29  1  0  0  0
 29 30  1  0  0  0
 29 31  1  0  0  0
 31 32  1  0  0  0
 32 33  2  0  0  0
 32 35  1  0  0  0
 35 36  1  0  0  0
 35 37  1  0  0  0
 37 38  1  0  0  0
 38 39  2  0  0  0
 38 41  1  0  0  0
 41 42  1  0  0  0
 41 43  1  0  0  0
 66 67  1  0  0  0
 77 72  1  0  0  0
 84 79  1  0  0  0
 62 65  1  0  0  0
 56 59  1  0  0  0
 51 54  1  0  0  0
 46 49  1  0  0  0
  1  4  1  0  0  0
  7 10  1  0  0  0
 13 16  1  0  0  0
 19 22  1  0  0  0
 25 28  1  0  0  0
 31 34  1  0  0  0
 37 40  1  0  0  0
M  END
> <minimizedAffinity>
-8.64338

> <CNNscore>
0.1653221548

> <CNNaffinity>
7.3981389999

> <CNN_VS>
1.2230762243

> <CNNaffinity_variance>
1.5667992830

$$$$
[H]c1c([H])c([H])c(C([H])([H])[C@@]([H])(C(=O)N([H])[C@]([H])(C(=O)N([H])[C@]([H])(C([H])([H])[H])C([H])(C([H])([H])[H])C([H])([H])[H])C([H])([H])[H])N([H])C(=O)[C@@]([H])(N([H])C(=O)[C@@]([H])(N([H])C(=O)[C@@]([H])(N([H])C(=O)[C@@]([H])(N([H])C(=O)[C@@]([H])(N([H])C(=O)[C@@]([H])(N([H])C(=O)[C@@]([H])(N([H])C(=O)[C@@]([H])(N([H])C(=O)C([H])(C([H])([H])[H])C([H])([H])[H])C([H])([H])[H])C([H])([H])[H])C([H])([H])[H])C([H])([H])[H])C([H])([H])[H])C([H])([H])[H])C([H])([H])[H])C([H])([H])c2c([H])c([H])c([H])c([H])c2[H])c([H])c1[H]


 84 85  0  0  0  0  0  0  0  0999 V2000
    9.5507   21.5929    1.3055 N   0  0  0  0  0  0  0  0  0  0  0  0
    9.0541   22.8921    1.6337 C   0  0  0  0  0  0  0  0  0  0  0  0
    8.6349   23.5839    0.6433 O   0  0  0  0  0  0  0  0  0  0  0  0
    9.9317   21.0038    2.0569 H   0  0  0  0  0  0  0  0  0  0  0  0
    8.9775   23.4785    2.9436 C   0  0  0  0  0  0  0  0  0  0  0  0
    9.5908   24.9213    2.9065 C   0  0  0  0  0  0  0  0  0  0  0  0
    9.8968   22.7543    3.8166 N   0  0  0  0  0  0  0  0  0  0  0  0
    9.7074   21.4490    4.3051 C   0  0  0  0  0  0  0  0  0  0  0  0
    8.6783   20.8154    4.0097 O   0  0  0  0  0  0  0  0  0  0  0  0
   10.7920   23.2307    4.1189 H   0  0  0  0  0  0  0  0  0  0  0  0
   10.7146   20.7974    5.1854 C   0  0  0  0  0  0  0  0  0  0  0  0
   11.1814   19.5222    4.4357 C   0  0  0  0  0  0  0  0  0  0  0  0
   10.1475   20.3995    6.4432 N   0  0  0  0  0  0  0  0  0  0  0  0
    9.6173   21.3261    7.3625 C   0  0  0  0  0  0  0  0  0  0  0  0
    9.5823   22.5586    7.2139 O   0  0  0  0  0  0  0  0  0  0  0  0
   10.1276   19.3498    6.6852 H   0  0  0  0  0  0  0  0  0  0  0  0
    9.0601   20.7175    8.6238 C   0  0  0  0  0  0  0  0  0  0  0  0
    8.1125   19.6013    8.1713 C   0  0  0  0  0  0  0  0  0  0  0  0
    8.3342   21.7082    9.3515 N   0  0  0  0  0  0  0  0  0  0  0  0
    7.7296   21.3910   10.5901 C   0  0  0  0  0  0  0  0  0  0  0  0
    7.8718   20.1797   10.9976 O   0  0  0  0  0  0  0  0  0  0  0  0
    8.2396   22.6697    8.9796 H   0  0  0  0  0  0  0  0  0  0  0  0
    6.9594   22.3446   11.4181 C   0  0  0  0  0  0  0  0  0  0  0  0
    6.0646   23.1589   10.4916 C   0  0  0  0  0  0  0  0  0  0  0  0
    7.9092   23.2762   12.0625 N   0  0  0  0  0  0  0  0  0  0  0  0
    8.1673   23.1904   13.4439 C   0  0  0  0  0  0  0  0  0  0  0  0
    7.5625   22.3253   14.1247 O   0  0  0  0  0  0  0  0  0  0  0  0
    8.3901   24.0043   11.5013 H   0  0  0  0  0  0  0  0  0  0  0  0
    9.1373   24.0810   14.1448 C   0  0  0  0  0  0  0  0  0  0  0  0
    8.4215   24.7497   15.3450 C   0  0  0  0  0  0  0  0  0  0  0  0
    9.6380   25.0911   13.2591 N   0  0  0  0  0  0  0  0  0  0  0  0
   10.8876   25.0714   12.6374 C   0  0  0  0  0  0  0  0  0  0  0  0
   11.6744   24.0893   12.8637 O   0  0  0  0  0  0  0  0  0  0  0  0
    9.0250   25.9184   13.0534 H   0  0  0  0  0  0  0  0  0  0  0  0
   11.3658   26.1438   11.7115 C   0  0  0  0  0  0  0  0  0  0  0  0
   12.0039   27.2668   12.5267 C   0  0  0  0  0  0  0  0  0  0  0  0
   10.3107   26.6156   10.8634 N   0  0  0  0  0  0  0  0  0  0  0  0
    9.4654   25.8144   10.0607 C   0  0  0  0  0  0  0  0  0  0  0  0
    9.5160   24.5718    9.9773 O   0  0  0  0  0  0  0  0  0  0  0  0
   10.1514   27.6698   10.8378 H   0  0  0  0  0  0  0  0  0  0  0  0
    8.4163   26.5127    9.2351 C   0  0  0  0  0  0  0  0  0  0  0  0
    7.9197   25.6455    8.1281 C   0  0  0  0  0  0  0  0  0  0  0  0
    7.3036   26.9282   10.1927 C   0  0  0  0  0  0  0  0  0  0  0  0
    9.5283   21.1062   -0.0498 C   0  0  0  0  0  0  0  0  0  0  0  0
   10.6947   20.1254   -0.1661 C   0  0  0  0  0  0  0  0  0  0  0  0
    7.1328   21.2248   -0.6912 N   0  0  0  0  0  0  0  0  0  0  0  0
    8.2517   20.4258   -0.4273 C   0  0  0  0  0  0  0  0  0  0  0  0
    8.3007   19.1852   -0.4821 O   0  0  0  0  0  0  0  0  0  0  0  0
    7.3491   22.2912   -0.5746 H   0  0  0  0  0  0  0  0  0  0  0  0
    5.7995   20.8500   -1.0740 C   0  0  0  0  0  0  0  0  0  0  0  0
    5.1307   19.2794    0.7845 N   0  0  0  0  0  0  0  0  0  0  0  0
    4.9794   20.5004    0.0998 C   0  0  0  0  0  0  0  0  0  0  0  0
    4.1022   21.2722    0.5284 O   0  0  0  0  0  0  0  0  0  0  0  0
    5.8662   18.6304    0.4711 H   0  0  0  0  0  0  0  0  0  0  0  0
    4.3129   18.8840    1.9038 C   0  0  0  0  0  0  0  0  0  0  0  0
    4.6490   19.6892    4.2950 N   0  0  0  0  0  0  0  0  0  0  0  0
    5.0126   18.8894    3.1867 C   0  0  0  0  0  0  0  0  0  0  0  0
    6.0048   18.1470    3.3456 O   0  0  0  0  0  0  0  0  0  0  0  0
    3.7806   20.2952    4.1320 H   0  0  0  0  0  0  0  0  0  0  0  0
    5.3128   19.7713    5.5523 C   0  0  0  0  0  0  0  0  0  0  0  0
    5.4183   21.1626    6.0240 C   0  0  0  0  0  0  0  0  0  0  0  0
    3.7833   19.0361    7.4194 N   0  0  0  0  0  0  0  0  0  0  0  0
    4.8703   18.7662    6.5779 C   0  0  0  0  0  0  0  0  0  0  0  0
    5.5020   17.7026    6.6444 O   0  0  0  0  0  0  0  0  0  0  0  0
    3.2980   19.9920    7.2670 H   0  0  0  0  0  0  0  0  0  0  0  0
    3.2039   18.2646    8.4622 C   0  0  0  0  0  0  0  0  0  0  0  0
    1.6650   18.4632    8.4459 C   0  0  0  0  0  0  0  0  0  0  0  0
    4.2986   19.9626    9.9032 C   0  0  0  0  0  0  0  0  0  0  0  0
    3.6389   18.6138    9.8430 C   0  0  0  0  0  0  0  0  0  0  0  0
    2.5800   18.4631   10.8953 C   0  0  0  0  0  0  0  0  0  0  0  0
    3.6933   17.5318    1.6349 C   0  0  0  0  0  0  0  0  0  0  0  0
    2.4313   17.5435    0.9027 C   0  0  0  0  0  0  0  0  0  0  0  0
    1.8722   16.3420    0.4652 C   0  0  0  0  0  0  0  0  0  0  0  0
    0.7161   16.2883   -0.2677 C   0  0  0  0  0  0  0  0  0  0  0  0
    0.0698   17.4726   -0.5924 C   0  0  0  0  0  0  0  0  0  0  0  0
    0.5858   18.6630   -0.1816 C   0  0  0  0  0  0  0  0  0  0  0  0
    1.7621   18.6899    0.5614 C   0  0  0  0  0  0  0  0  0  0  0  0
    5.7142   20.0193   -2.2806 C   0  0  0  0  0  0  0  0  0  0  0  0
    4.4745   19.4517   -2.7357 C   0  0  0  0  0  0  0  0  0  0  0  0
    3.5491   20.1486   -3.4699 C   0  0  0  0  0  0  0  0  0  0  0  0
    2.3900   19.5435   -3.8956 C   0  0  0  0  0  0  0  0  0  0  0  0
    2.0894   18.2348   -3.6234 C   0  0  0  0  0  0  0  0  0  0  0  0
    3.0184   17.4999   -2.8747 C   0  0  0  0  0  0  0  0  0  0  0  0
    4.1661   18.1196   -2.4599 C   0  0  0  0  0  0  0  0  0  0  0  0
 68 69  1  0  0  0
 69 70  1  0  0  0
 69 66  1  0  0  0
 66 62  1  0  0  0
 62 63  1  0  0  0
 63 64  2  0  0  0
 63 60  1  0  0  0
 60 61  1  0  0  0
 60 56  1  0  0  0
 56 57  1  0  0  0
 57 58  2  0  0  0
 57 55  1  0  0  0
 55 71  1  0  0  0
 71 72  1  0  0  0
 72 73  2  0  0  0
 73 74  1  0  0  0
 74 75  2  0  0  0
 75 76  1  0  0  0
 76 77  2  0  0  0
 55 51  1  0  0  0
 51 52  1  0  0  0
 52 53  2  0  0  0
 52 50  1  0  0  0
 50 78  1  0  0  0
 78 79  1  0  0  0
 79 80  2  0  0  0
 80 81  1  0  0  0
 81 82  2  0  0  0
 82 83  1  0  0  0
 83 84  2  0  0  0
 50 46  1  0  0  0
 46 47  1  0  0  0
 47 48  2  0  0  0
 47 44  1  0  0  0
 44 45  1  0  0  0
 44  1  1  0  0  0
  1  2  1  0  0  0
  2  3  2  0  0  0
  2  5  1  0  0  0
  5  6  1  0  0  0
  5  7  1  0  0  0
  7  8  1  0  0  0
  8  9  2  0  0  0
  8 11  1  0  0  0
 11 12  1  0  0  0
 11 13  1  0  0  0
 13 14  1  0  0  0
 14 15  2  0  0  0
 14 17  1  0  0  0
 17 18  1  0  0  0
 17 19  1  0  0  0
 19 20  1  0  0  0
 20 21  2  0  0  0
 20 23  1  0  0  0
 23 24  1  0  0  0
 23 25  1  0  0  0
 25 26  1  0  0  0
 26 27  2  0  0  0
 26 29  1  0  0  0
 29 30  1  0  0  0
 29 31  1  0  0  0
 31 32  1  0  0  0
 32 33  2  0  0  0
 32 35  1  0  0  0
 35 36  1  0  0  0
 35 37  1  0  0  0
 37 38  1  0  0  0
 38 39  2  0  0  0
 38 41  1  0  0  0
 41 42  1  0  0  0
 41 43  1  0  0  0
 66 67  1  0  0  0
 77 72  1  0  0  0
 84 79  1  0  0  0
 62 65  1  0  0  0
 56 59  1  0  0  0
 51 54  1  0  0  0
 46 49  1  0  0  0
  1  4  1  0  0  0
  7 10  1  0  0  0
 13 16  1  0  0  0
 19 22  1  0  0  0
 25 28  1  0  0  0
 31 34  1  0  0  0
 37 40  1  0  0  0
M  END
> <minimizedAffinity>
-6.98930

> <CNNscore>
0.1256654561

> <CNNaffinity>
6.5019202232

> <CNN_VS>
0.8170667887

> <CNNaffinity_variance>
2.2933330536

$$$$
[H]c1c([H])c([H])c(C([H])([H])[C@@]([H])(C(=O)N([H])[C@]([H])(C(=O)N([H])[C@]([H])(C([H])([H])[H])C([H])(C([H])([H])[H])C([H])([H])[H])C([H])([H])[H])N([H])C(=O)[C@@]([H])(N([H])C(=O)[C@@]([H])(N([H])C(=O)[C@@]([H])(N([H])C(=O)[C@@]([H])(N([H])C(=O)[C@@]([H])(N([H])C(=O)[C@@]([H])(N([H])C(=O)[C@@]([H])(N([H])C(=O)[C@@]([H])(N([H])C(=O)C([H])(C([H])([H])[H])C([H])([H])[H])C([H])([H])[H])C([H])([H])[H])C([H])([H])[H])C([H])([H])[H])C([H])([H])[H])C([H])([H])[H])C([H])([H])[H])C([H])([H])c2c([H])c([H])c([H])c([H])c2[H])c([H])c1[H]


 84 85  0  0  0  0  0  0  0  0999 V2000
    9.5570   21.7522    1.3043 N   0  0  0  0  0  0  0  0  0  0  0  0
    8.9107   22.9561    1.7228 C   0  0  0  0  0  0  0  0  0  0  0  0
    8.3115   23.6053    0.7982 O   0  0  0  0  0  0  0  0  0  0  0  0
   10.0827   21.2052    1.9980 H   0  0  0  0  0  0  0  0  0  0  0  0
    8.8665   23.4903    3.0562 C   0  0  0  0  0  0  0  0  0  0  0  0
    9.3981   24.9657    3.0455 C   0  0  0  0  0  0  0  0  0  0  0  0
    9.8655   22.7883    3.8569 N   0  0  0  0  0  0  0  0  0  0  0  0
    9.7900   21.4459    4.2698 C   0  0  0  0  0  0  0  0  0  0  0  0
    8.8017   20.7541    3.9656 O   0  0  0  0  0  0  0  0  0  0  0  0
   10.7323   23.3130    4.1622 H   0  0  0  0  0  0  0  0  0  0  0  0
   10.8713   20.8223    5.0796 C   0  0  0  0  0  0  0  0  0  0  0  0
   11.1608   19.4461    4.4251 C   0  0  0  0  0  0  0  0  0  0  0  0
   10.4612   20.5992    6.4376 N   0  0  0  0  0  0  0  0  0  0  0  0
    9.5226   19.6107    6.7931 C   0  0  0  0  0  0  0  0  0  0  0  0
    8.9442   18.8416    6.0080 O   0  0  0  0  0  0  0  0  0  0  0  0
   10.8945   21.2136    7.2093 H   0  0  0  0  0  0  0  0  0  0  0  0
    9.2251   19.5224    8.2681 C   0  0  0  0  0  0  0  0  0  0  0  0
    8.8957   18.0517    8.5453 C   0  0  0  0  0  0  0  0  0  0  0  0
    8.0973   20.3413    8.5774 N   0  0  0  0  0  0  0  0  0  0  0  0
    8.2764   21.6468    9.0911 C   0  0  0  0  0  0  0  0  0  0  0  0
    9.4926   22.0284    9.2603 O   0  0  0  0  0  0  0  0  0  0  0  0
    7.1352   19.9879    8.4317 H   0  0  0  0  0  0  0  0  0  0  0  0
    7.1754   22.5707    9.4409 C   0  0  0  0  0  0  0  0  0  0  0  0
    5.8567   21.8415    9.2134 C   0  0  0  0  0  0  0  0  0  0  0  0
    7.2204   23.7221    8.5150 N   0  0  0  0  0  0  0  0  0  0  0  0
    7.7359   24.9611    8.9409 C   0  0  0  0  0  0  0  0  0  0  0  0
    8.1366   25.0801   10.1254 O   0  0  0  0  0  0  0  0  0  0  0  0
    6.8677   23.6268    7.5440 H   0  0  0  0  0  0  0  0  0  0  0  0
    7.8359   26.1494    8.0447 C   0  0  0  0  0  0  0  0  0  0  0  0
    7.9124   27.4266    8.9182 C   0  0  0  0  0  0  0  0  0  0  0  0
    6.7015   26.2301    7.1720 N   0  0  0  0  0  0  0  0  0  0  0  0
    5.4030   26.5584    7.5651 C   0  0  0  0  0  0  0  0  0  0  0  0
    5.1750   26.8041    8.7989 O   0  0  0  0  0  0  0  0  0  0  0  0
    6.8454   26.0279    6.1516 H   0  0  0  0  0  0  0  0  0  0  0  0
    4.2494   26.6404    6.6172 C   0  0  0  0  0  0  0  0  0  0  0  0
    4.0225   25.2716    5.9787 C   0  0  0  0  0  0  0  0  0  0  0  0
    4.4424   27.6733    5.6419 N   0  0  0  0  0  0  0  0  0  0  0  0
    5.2941   27.6064    4.5146 C   0  0  0  0  0  0  0  0  0  0  0  0
    6.0032   26.6297    4.2039 O   0  0  0  0  0  0  0  0  0  0  0  0
    3.8905   28.5750    5.7831 H   0  0  0  0  0  0  0  0  0  0  0  0
    5.3556   28.8107    3.6114 C   0  0  0  0  0  0  0  0  0  0  0  0
    6.6473   28.8765    2.8689 C   0  0  0  0  0  0  0  0  0  0  0  0
    4.1516   28.7261    2.6782 C   0  0  0  0  0  0  0  0  0  0  0  0
    9.4852   21.3033   -0.0624 C   0  0  0  0  0  0  0  0  0  0  0  0
   10.7041   20.4066   -0.2772 C   0  0  0  0  0  0  0  0  0  0  0  0
    7.0913   21.2843   -0.7199 N   0  0  0  0  0  0  0  0  0  0  0  0
    8.2355   20.5496   -0.3868 C   0  0  0  0  0  0  0  0  0  0  0  0
    8.3279   19.3112   -0.3386 O   0  0  0  0  0  0  0  0  0  0  0  0
    7.2696   22.3636   -0.6912 H   0  0  0  0  0  0  0  0  0  0  0  0
    5.7743   20.8326   -1.0752 C   0  0  0  0  0  0  0  0  0  0  0  0
    5.1549   19.2912    0.8245 N   0  0  0  0  0  0  0  0  0  0  0  0
    4.9786   20.4970    0.1194 C   0  0  0  0  0  0  0  0  0  0  0  0
    4.1007   21.2678    0.5486 O   0  0  0  0  0  0  0  0  0  0  0  0
    5.8917   18.6439    0.5106 H   0  0  0  0  0  0  0  0  0  0  0  0
    4.3610   18.9088    1.9653 C   0  0  0  0  0  0  0  0  0  0  0  0
    4.8589   19.9096    4.2522 N   0  0  0  0  0  0  0  0  0  0  0  0
    5.0814   18.9514    3.2361 C   0  0  0  0  0  0  0  0  0  0  0  0
    5.9610   18.0954    3.4697 O   0  0  0  0  0  0  0  0  0  0  0  0
    4.0824   20.6132    4.0287 H   0  0  0  0  0  0  0  0  0  0  0  0
    5.5541   20.0300    5.4893 C   0  0  0  0  0  0  0  0  0  0  0  0
    6.0100   21.4102    5.7271 C   0  0  0  0  0  0  0  0  0  0  0  0
    5.4706   18.1931    7.2170 N   0  0  0  0  0  0  0  0  0  0  0  0
    4.9043   19.3466    6.6591 C   0  0  0  0  0  0  0  0  0  0  0  0
    3.8591   19.8431    7.1017 O   0  0  0  0  0  0  0  0  0  0  0  0
    6.3904   17.8528    6.7578 H   0  0  0  0  0  0  0  0  0  0  0  0
    5.0350   17.3728    8.2921 C   0  0  0  0  0  0  0  0  0  0  0  0
    5.5253   17.9868    9.6302 C   0  0  0  0  0  0  0  0  0  0  0  0
    6.3536   15.6733    7.0548 C   0  0  0  0  0  0  0  0  0  0  0  0
    5.5418   15.9727    8.2834 C   0  0  0  0  0  0  0  0  0  0  0  0
    6.2504   15.5503    9.5368 C   0  0  0  0  0  0  0  0  0  0  0  0
    3.7561   17.5429    1.7357 C   0  0  0  0  0  0  0  0  0  0  0  0
    2.5180   17.5160    0.9641 C   0  0  0  0  0  0  0  0  0  0  0  0
    1.8053   18.6977    0.7552 C   0  0  0  0  0  0  0  0  0  0  0  0
    0.6129   18.7324    0.0816 C   0  0  0  0  0  0  0  0  0  0  0  0
    0.0861   17.5486   -0.4152 C   0  0  0  0  0  0  0  0  0  0  0  0
    0.7544   16.3775   -0.2311 C   0  0  0  0  0  0  0  0  0  0  0  0
    1.9638   16.3695    0.4573 C   0  0  0  0  0  0  0  0  0  0  0  0
    5.7198   19.9471   -2.2440 C   0  0  0  0  0  0  0  0  0  0  0  0
    4.4980   19.3307   -2.6838 C   0  0  0  0  0  0  0  0  0  0  0  0
    4.1833   18.0185   -2.4393 C   0  0  0  0  0  0  0  0  0  0  0  0
    2.9876   17.4912   -2.8675 C   0  0  0  0  0  0  0  0  0  0  0  0
    2.0516   18.2240   -3.5488 C   0  0  0  0  0  0  0  0  0  0  0  0
    2.3484   19.5681   -3.8117 C   0  0  0  0  0  0  0  0  0  0  0  0
    3.5435   20.0746   -3.3779 C   0  0  0  0  0  0  0  0  0  0  0  0
 68 69  1  0  0  0
 69 70  1  0  0  0
 69 66  1  0  0  0
 66 62  1  0  0  0
 62 63  1  0  0  0
 63 64  2  0  0  0
 63 60  1  0  0  0
 60 61  1  0  0  0
 60 56  1  0  0  0
 56 57  1  0  0  0
 57 58  2  0  0  0
 57 55  1  0  0  0
 55 71  1  0  0  0
 71 72  1  0  0  0
 72 73  2  0  0  0
 73 74  1  0  0  0
 74 75  2  0  0  0
 75 76  1  0  0  0
 76 77  2  0  0  0
 55 51  1  0  0  0
 51 52  1  0  0  0
 52 53  2  0  0  0
 52 50  1  0  0  0
 50 78  1  0  0  0
 78 79  1  0  0  0
 79 80  2  0  0  0
 80 81  1  0  0  0
 81 82  2  0  0  0
 82 83  1  0  0  0
 83 84  2  0  0  0
 50 46  1  0  0  0
 46 47  1  0  0  0
 47 48  2  0  0  0
 47 44  1  0  0  0
 44 45  1  0  0  0
 44  1  1  0  0  0
  1  2  1  0  0  0
  2  3  2  0  0  0
  2  5  1  0  0  0
  5  6  1  0  0  0
  5  7  1  0  0  0
  7  8  1  0  0  0
  8  9  2  0  0  0
  8 11  1  0  0  0
 11 12  1  0  0  0
 11 13  1  0  0  0
 13 14  1  0  0  0
 14 15  2  0  0  0
 14 17  1  0  0  0
 17 18  1  0  0  0
 17 19  1  0  0  0
 19 20  1  0  0  0
 20 21  2  0  0  0
 20 23  1  0  0  0
 23 24  1  0  0  0
 23 25  1  0  0  0
 25 26  1  0  0  0
 26 27  2  0  0  0
 26 29  1  0  0  0
 29 30  1  0  0  0
 29 31  1  0  0  0
 31 32  1  0  0  0
 32 33  2  0  0  0
 32 35  1  0  0  0
 35 36  1  0  0  0
 35 37  1  0  0  0
 37 38  1  0  0  0
 38 39  2  0  0  0
 38 41  1  0  0  0
 41 42  1  0  0  0
 41 43  1  0  0  0
 66 67  1  0  0  0
 77 72  1  0  0  0
 84 79  1  0  0  0
 62 65  1  0  0  0
 56 59  1  0  0  0
 51 54  1  0  0  0
 46 49  1  0  0  0
  1  4  1  0  0  0
  7 10  1  0  0  0
 13 16  1  0  0  0
 19 22  1  0  0  0
 25 28  1  0  0  0
 31 34  1  0  0  0
 37 40  1  0  0  0
M  END
> <minimizedAffinity>
-7.85085

> <CNNscore>
0.0982611701

> <CNNaffinity>
6.6328644753

> <CNN_VS>
0.6517530084

> <CNNaffinity_variance>
3.9639632702

$$$$
[H]c1c([H])c([H])c(C([H])([H])[C@@]([H])(C(=O)N([H])[C@]([H])(C(=O)N([H])[C@]([H])(C([H])([H])[H])C([H])(C([H])([H])[H])C([H])([H])[H])C([H])([H])[H])N([H])C(=O)[C@@]([H])(N([H])C(=O)[C@@]([H])(N([H])C(=O)[C@@]([H])(N([H])C(=O)[C@@]([H])(N([H])C(=O)[C@@]([H])(N([H])C(=O)[C@@]([H])(N([H])C(=O)[C@@]([H])(N([H])C(=O)[C@@]([H])(N([H])C(=O)C([H])(C([H])([H])[H])C([H])([H])[H])C([H])([H])[H])C([H])([H])[H])C([H])([H])[H])C([H])([H])[H])C([H])([H])[H])C([H])([H])[H])C([H])([H])[H])C([H])([H])c2c([H])c([H])c([H])c([H])c2[H])c([H])c1[H]


 84 85  0  0  0  0  0  0  0  0999 V2000
    3.3890   18.1134    1.2152 N   0  0  0  0  0  0  0  0  0  0  0  0
    2.7340   19.3505    0.9270 C   0  0  0  0  0  0  0  0  0  0  0  0
    3.3910   20.4027    1.2374 O   0  0  0  0  0  0  0  0  0  0  0  0
    2.8953   17.2337    1.0176 H   0  0  0  0  0  0  0  0  0  0  0  0
    1.4382   19.5191    0.3288 C   0  0  0  0  0  0  0  0  0  0  0  0
    1.1543   21.0472    0.1202 C   0  0  0  0  0  0  0  0  0  0  0  0
    0.4326   19.1307    1.3136 N   0  0  0  0  0  0  0  0  0  0  0  0
    0.0119   17.8156    1.5816 C   0  0  0  0  0  0  0  0  0  0  0  0
    0.4963   16.8635    0.9439 O   0  0  0  0  0  0  0  0  0  0  0  0
   -0.0318   19.8864    1.8908 H   0  0  0  0  0  0  0  0  0  0  0  0
   -1.0177   17.5271    2.6162 C   0  0  0  0  0  0  0  0  0  0  0  0
   -1.6182   18.8988    3.0210 C   0  0  0  0  0  0  0  0  0  0  0  0
   -0.4451   16.9220    3.7859 N   0  0  0  0  0  0  0  0  0  0  0  0
    0.7892   17.3342    4.3254 C   0  0  0  0  0  0  0  0  0  0  0  0
    1.5175   18.2319    3.8713 O   0  0  0  0  0  0  0  0  0  0  0  0
   -0.9877   16.1243    4.2657 H   0  0  0  0  0  0  0  0  0  0  0  0
    1.2218   16.5849    5.5596 C   0  0  0  0  0  0  0  0  0  0  0  0
   -0.0610   16.0307    6.1886 C   0  0  0  0  0  0  0  0  0  0  0  0
    1.8595   17.4853    6.4655 N   0  0  0  0  0  0  0  0  0  0  0  0
    3.2058   17.2847    6.8497 C   0  0  0  0  0  0  0  0  0  0  0  0
    3.7939   16.2593    6.3436 O   0  0  0  0  0  0  0  0  0  0  0  0
    1.3429   18.2940    6.8540 H   0  0  0  0  0  0  0  0  0  0  0  0
    3.9538   18.1592    7.7791 C   0  0  0  0  0  0  0  0  0  0  0  0
    3.3254   19.5467    7.7310 C   0  0  0  0  0  0  0  0  0  0  0  0
    5.3447   18.2762    7.2925 N   0  0  0  0  0  0  0  0  0  0  0  0
    6.3968   17.6387    7.9773 C   0  0  0  0  0  0  0  0  0  0  0  0
    6.1394   16.9874    9.0201 O   0  0  0  0  0  0  0  0  0  0  0  0
    5.5569   18.8336    6.4436 H   0  0  0  0  0  0  0  0  0  0  0  0
    7.8150   17.6942    7.5182 C   0  0  0  0  0  0  0  0  0  0  0  0
    8.6619   16.7449    8.4022 C   0  0  0  0  0  0  0  0  0  0  0  0
    8.3320   19.0281    7.6114 N   0  0  0  0  0  0  0  0  0  0  0  0
    9.0913   19.6694    6.6313 C   0  0  0  0  0  0  0  0  0  0  0  0
    9.3712   19.0375    5.5555 O   0  0  0  0  0  0  0  0  0  0  0  0
    8.1306   19.5782    8.4829 H   0  0  0  0  0  0  0  0  0  0  0  0
    9.6028   21.0679    6.7670 C   0  0  0  0  0  0  0  0  0  0  0  0
   10.9270   21.1960    6.0167 C   0  0  0  0  0  0  0  0  0  0  0  0
    9.7141   21.4561    8.1425 N   0  0  0  0  0  0  0  0  0  0  0  0
    9.1561   22.6161    8.7288 C   0  0  0  0  0  0  0  0  0  0  0  0
    8.4792   23.4731    8.1281 O   0  0  0  0  0  0  0  0  0  0  0  0
   10.2707   20.8072    8.7802 H   0  0  0  0  0  0  0  0  0  0  0  0
    9.3959   22.8420   10.1990 C   0  0  0  0  0  0  0  0  0  0  0  0
   10.5217   23.7915   10.4336 C   0  0  0  0  0  0  0  0  0  0  0  0
    8.0809   23.3408   10.7904 C   0  0  0  0  0  0  0  0  0  0  0  0
    4.7151   18.0846    1.7765 C   0  0  0  0  0  0  0  0  0  0  0  0
    4.8147   16.7751    2.5583 C   0  0  0  0  0  0  0  0  0  0  0  0
    6.1316   19.4051    0.2230 N   0  0  0  0  0  0  0  0  0  0  0  0
    5.8057   18.1523    0.7561 C   0  0  0  0  0  0  0  0  0  0  0  0
    6.3425   17.0681    0.4718 O   0  0  0  0  0  0  0  0  0  0  0  0
    5.5118   20.2055    0.6384 H   0  0  0  0  0  0  0  0  0  0  0  0
    7.1229   19.7640   -0.7533 C   0  0  0  0  0  0  0  0  0  0  0  0
    9.3826   20.7651   -0.2433 N   0  0  0  0  0  0  0  0  0  0  0  0
    7.9784   20.8645   -0.2739 C   0  0  0  0  0  0  0  0  0  0  0  0
    7.4882   21.9309    0.1400 O   0  0  0  0  0  0  0  0  0  0  0  0
    9.8204   19.9057   -0.6041 H   0  0  0  0  0  0  0  0  0  0  0  0
   10.2464   21.8010    0.2653 C   0  0  0  0  0  0  0  0  0  0  0  0
   12.7841   21.9349    0.4100 N   0  0  0  0  0  0  0  0  0  0  0  0
   11.5829   21.8083   -0.3256 C   0  0  0  0  0  0  0  0  0  0  0  0
   11.7049   21.6974   -1.5640 O   0  0  0  0  0  0  0  0  0  0  0  0
   12.6438   22.0040    1.4699 H   0  0  0  0  0  0  0  0  0  0  0  0
   14.1094   21.9915   -0.1084 C   0  0  0  0  0  0  0  0  0  0  0  0
   14.5059   20.7180   -0.7332 C   0  0  0  0  0  0  0  0  0  0  0  0
   14.1889   23.2979   -2.2655 N   0  0  0  0  0  0  0  0  0  0  0  0
   14.4401   23.2321   -0.8889 C   0  0  0  0  0  0  0  0  0  0  0  0
   14.9385   24.1812   -0.2679 O   0  0  0  0  0  0  0  0  0  0  0  0
   13.7413   22.4145   -2.7034 H   0  0  0  0  0  0  0  0  0  0  0  0
   14.4327   24.3361   -3.2042 C   0  0  0  0  0  0  0  0  0  0  0  0
   15.9463   24.6780   -3.2014 C   0  0  0  0  0  0  0  0  0  0  0  0
   13.6768   26.4963   -4.1635 C   0  0  0  0  0  0  0  0  0  0  0  0
   13.7302   25.6227   -2.9419 C   0  0  0  0  0  0  0  0  0  0  0  0
   12.3835   25.4858   -2.2946 C   0  0  0  0  0  0  0  0  0  0  0  0
   10.3251   21.7105    1.7720 C   0  0  0  0  0  0  0  0  0  0  0  0
    9.7154   22.8124    2.5091 C   0  0  0  0  0  0  0  0  0  0  0  0
   10.0756   24.1279    2.2133 C   0  0  0  0  0  0  0  0  0  0  0  0
    9.5766   25.2031    2.9001 C   0  0  0  0  0  0  0  0  0  0  0  0
    8.6768   24.9827    3.9332 C   0  0  0  0  0  0  0  0  0  0  0  0
    8.3020   23.7131    4.2487 C   0  0  0  0  0  0  0  0  0  0  0  0
    8.8242   22.6381    3.5357 C   0  0  0  0  0  0  0  0  0  0  0  0
    6.6455   19.7802   -2.1408 C   0  0  0  0  0  0  0  0  0  0  0  0
    5.2736   20.0460   -2.4775 C   0  0  0  0  0  0  0  0  0  0  0  0
    4.3875   19.0720   -2.8610 C   0  0  0  0  0  0  0  0  0  0  0  0
    3.0802   19.3858   -3.1499 C   0  0  0  0  0  0  0  0  0  0  0  0
    2.5860   20.6613   -3.0739 C   0  0  0  0  0  0  0  0  0  0  0  0
    3.4708   21.6757   -2.6843 C   0  0  0  0  0  0  0  0  0  0  0  0
    4.7680   21.3438   -2.4011 C   0  0  0  0  0  0  0  0  0  0  0  0
 68 69  1  0  0  0
 69 70  1  0  0  0
 69 66  1  0  0  0
 66 62  1  0  0  0
 62 63  1  0  0  0
 63 64  2  0  0  0
 63 60  1  0  0  0
 60 61  1  0  0  0
 60 56  1  0  0  0
 56 57  1  0  0  0
 57 58  2  0  0  0
 57 55  1  0  0  0
 55 71  1  0  0  0
 71 72  1  0  0  0
 72 73  2  0  0  0
 73 74  1  0  0  0
 74 75  2  0  0  0
 75 76  1  0  0  0
 76 77  2  0  0  0
 55 51  1  0  0  0
 51 52  1  0  0  0
 52 53  2  0  0  0
 52 50  1  0  0  0
 50 78  1  0  0  0
 78 79  1  0  0  0
 79 80  2  0  0  0
 80 81  1  0  0  0
 81 82  2  0  0  0
 82 83  1  0  0  0
 83 84  2  0  0  0
 50 46  1  0  0  0
 46 47  1  0  0  0
 47 48  2  0  0  0
 47 44  1  0  0  0
 44 45  1  0  0  0
 44  1  1  0  0  0
  1  2  1  0  0  0
  2  3  2  0  0  0
  2  5  1  0  0  0
  5  6  1  0  0  0
  5  7  1  0  0  0
  7  8  1  0  0  0
  8  9  2  0  0  0
  8 11  1  0  0  0
 11 12  1  0  0  0
 11 13  1  0  0  0
 13 14  1  0  0  0
 14 15  2  0  0  0
 14 17  1  0  0  0
 17 18  1  0  0  0
 17 19  1  0  0  0
 19 20  1  0  0  0
 20 21  2  0  0  0
 20 23  1  0  0  0
 23 24  1  0  0  0
 23 25  1  0  0  0
 25 26  1  0  0  0
 26 27  2  0  0  0
 26 29  1  0  0  0
 29 30  1  0  0  0
 29 31  1  0  0  0
 31 32  1  0  0  0
 32 33  2  0  0  0
 32 35  1  0  0  0
 35 36  1  0  0  0
 35 37  1  0  0  0
 37 38  1  0  0  0
 38 39  2  0  0  0
 38 41  1  0  0  0
 41 42  1  0  0  0
 41 43  1  0  0  0
 66 67  1  0  0  0
 77 72  1  0  0  0
 84 79  1  0  0  0
 62 65  1  0  0  0
 56 59  1  0  0  0
 51 54  1  0  0  0
 46 49  1  0  0  0
  1  4  1  0  0  0
  7 10  1  0  0  0
 13 16  1  0  0  0
 19 22  1  0  0  0
 25 28  1  0  0  0
 31 34  1  0  0  0
 37 40  1  0  0  0
M  END
> <minimizedAffinity>
-8.83900

> <CNNscore>
0.0953906327

> <CNNaffinity>
7.2361016273

> <CNN_VS>
0.6902562976

> <CNNaffinity_variance>
2.0326380730

$$$$
[H]c1c([H])c([H])c(C([H])([H])[C@@]([H])(C(=O)N([H])[C@]([H])(C(=O)N([H])[C@]([H])(C([H])([H])[H])C([H])(C([H])([H])[H])C([H])([H])[H])C([H])([H])[H])N([H])C(=O)[C@@]([H])(N([H])C(=O)[C@@]([H])(N([H])C(=O)[C@@]([H])(N([H])C(=O)[C@@]([H])(N([H])C(=O)[C@@]([H])(N([H])C(=O)[C@@]([H])(N([H])C(=O)[C@@]([H])(N([H])C(=O)[C@@]([H])(N([H])C(=O)C([H])(C([H])([H])[H])C([H])([H])[H])C([H])([H])[H])C([H])([H])[H])C([H])([H])[H])C([H])([H])[H])C([H])([H])[H])C([H])([H])[H])C([H])([H])[H])C([H])([H])c2c([H])c([H])c([H])c([H])c2[H])c([H])c1[H]


 84 85  0  0  0  0  0  0  0  0999 V2000
    8.2313   25.0492    3.0811 N   0  0  0  0  0  0  0  0  0  0  0  0
    7.8576   26.3737    3.4662 C   0  0  0  0  0  0  0  0  0  0  0  0
    8.7079   26.9924    4.1939 O   0  0  0  0  0  0  0  0  0  0  0  0
    7.5727   24.4912    2.5229 H   0  0  0  0  0  0  0  0  0  0  0  0
    6.6462   27.0625    3.1151 C   0  0  0  0  0  0  0  0  0  0  0  0
    6.9585   28.5811    2.8795 C   0  0  0  0  0  0  0  0  0  0  0  0
    5.7823   27.0846    4.2920 N   0  0  0  0  0  0  0  0  0  0  0  0
    5.3034   25.9549    4.9794 C   0  0  0  0  0  0  0  0  0  0  0  0
    5.5999   24.8127    4.5853 O   0  0  0  0  0  0  0  0  0  0  0  0
    5.4797   28.0204    4.6826 H   0  0  0  0  0  0  0  0  0  0  0  0
    4.4322   26.0889    6.1780 C   0  0  0  0  0  0  0  0  0  0  0  0
    4.5072   27.5794    6.6009 C   0  0  0  0  0  0  0  0  0  0  0  0
    4.9006   25.2850    7.2719 N   0  0  0  0  0  0  0  0  0  0  0  0
    4.3880   24.0010    7.5428 C   0  0  0  0  0  0  0  0  0  0  0  0
    3.4934   23.4254    6.9018 O   0  0  0  0  0  0  0  0  0  0  0  0
    5.6761   25.6848    7.9039 H   0  0  0  0  0  0  0  0  0  0  0  0
    5.0103   23.3088    8.7282 C   0  0  0  0  0  0  0  0  0  0  0  0
    4.6394   24.1525    9.9526 C   0  0  0  0  0  0  0  0  0  0  0  0
    6.4288   23.2753    8.5708 N   0  0  0  0  0  0  0  0  0  0  0  0
    7.2109   22.3482    9.2982 C   0  0  0  0  0  0  0  0  0  0  0  0
    6.5708   21.5656   10.0927 O   0  0  0  0  0  0  0  0  0  0  0  0
    6.9018   23.9312    7.9243 H   0  0  0  0  0  0  0  0  0  0  0  0
    8.6828   22.2342    9.2046 C   0  0  0  0  0  0  0  0  0  0  0  0
    9.1608   23.1787    8.1085 C   0  0  0  0  0  0  0  0  0  0  0  0
    9.0188   20.8553    8.7910 N   0  0  0  0  0  0  0  0  0  0  0  0
    8.5076   20.3253    7.5910 C   0  0  0  0  0  0  0  0  0  0  0  0
    7.7442   21.0330    6.8881 O   0  0  0  0  0  0  0  0  0  0  0  0
    9.6314   20.2655    9.3852 H   0  0  0  0  0  0  0  0  0  0  0  0
    8.8354   18.9534    7.1056 C   0  0  0  0  0  0  0  0  0  0  0  0
    9.0464   19.0053    5.5717 C   0  0  0  0  0  0  0  0  0  0  0  0
    7.7798   18.0342    7.4156 N   0  0  0  0  0  0  0  0  0  0  0  0
    7.9419   16.6666    7.6431 C   0  0  0  0  0  0  0  0  0  0  0  0
    9.1147   16.1629    7.5676 O   0  0  0  0  0  0  0  0  0  0  0  0
    6.8002   18.4071    7.4792 H   0  0  0  0  0  0  0  0  0  0  0  0
    6.8117   15.7451    7.9736 C   0  0  0  0  0  0  0  0  0  0  0  0
    5.5448   16.2275    7.2700 C   0  0  0  0  0  0  0  0  0  0  0  0
    6.6348   15.6168    9.3905 N   0  0  0  0  0  0  0  0  0  0  0  0
    7.2719   14.6712   10.2276 C   0  0  0  0  0  0  0  0  0  0  0  0
    8.0878   13.8081    9.8498 O   0  0  0  0  0  0  0  0  0  0  0  0
    5.9586   16.2998    9.8529 H   0  0  0  0  0  0  0  0  0  0  0  0
    6.9417   14.7028   11.6973 C   0  0  0  0  0  0  0  0  0  0  0  0
    6.2764   15.9800   12.0847 C   0  0  0  0  0  0  0  0  0  0  0  0
    6.0703   13.4831   11.9815 C   0  0  0  0  0  0  0  0  0  0  0  0
    9.5027   24.4916    3.4646 C   0  0  0  0  0  0  0  0  0  0  0  0
    9.1884   23.3382    4.4168 C   0  0  0  0  0  0  0  0  0  0  0  0
   10.3115   24.7426    1.1308 N   0  0  0  0  0  0  0  0  0  0  0  0
   10.3169   23.9938    2.3137 C   0  0  0  0  0  0  0  0  0  0  0  0
   10.9456   22.9413    2.5167 O   0  0  0  0  0  0  0  0  0  0  0  0
    9.6775   25.6313    1.2064 H   0  0  0  0  0  0  0  0  0  0  0  0
   10.9930   24.5102   -0.1128 C   0  0  0  0  0  0  0  0  0  0  0  0
    9.8553   22.2587   -0.0455 N   0  0  0  0  0  0  0  0  0  0  0  0
   10.5295   23.2687   -0.7581 C   0  0  0  0  0  0  0  0  0  0  0  0
   10.7298   23.0553   -1.9678 O   0  0  0  0  0  0  0  0  0  0  0  0
    9.6504   22.4164    0.9513 H   0  0  0  0  0  0  0  0  0  0  0  0
    9.4329   21.0118   -0.6328 C   0  0  0  0  0  0  0  0  0  0  0  0
    6.9879   20.6197   -1.2224 N   0  0  0  0  0  0  0  0  0  0  0  0
    8.0618   20.6296   -0.3021 C   0  0  0  0  0  0  0  0  0  0  0  0
    7.7882   20.2831    0.8667 O   0  0  0  0  0  0  0  0  0  0  0  0
    7.2628   20.8991   -2.2196 H   0  0  0  0  0  0  0  0  0  0  0  0
    5.6264   20.2998   -0.9536 C   0  0  0  0  0  0  0  0  0  0  0  0
    4.7635   21.4919   -1.0144 C   0  0  0  0  0  0  0  0  0  0  0  0
    3.9471   19.1491   -2.4441 N   0  0  0  0  0  0  0  0  0  0  0  0
    5.1037   19.0791   -1.6567 C   0  0  0  0  0  0  0  0  0  0  0  0
    5.7334   18.0224   -1.5101 O   0  0  0  0  0  0  0  0  0  0  0  0
    3.4833   20.1253   -2.5108 H   0  0  0  0  0  0  0  0  0  0  0  0
    3.2601   18.1426   -3.1744 C   0  0  0  0  0  0  0  0  0  0  0  0
    2.7258   18.7510   -4.4981 C   0  0  0  0  0  0  0  0  0  0  0  0
    1.3680   18.5436   -1.6197 C   0  0  0  0  0  0  0  0  0  0  0  0
    2.0737   17.5491   -2.4978 C   0  0  0  0  0  0  0  0  0  0  0  0
    1.1199   16.8338   -3.4089 C   0  0  0  0  0  0  0  0  0  0  0  0
   10.4021   19.9138   -0.2596 C   0  0  0  0  0  0  0  0  0  0  0  0
   11.7922   20.3224   -0.0874 C   0  0  0  0  0  0  0  0  0  0  0  0
   12.6336   20.4042   -1.1978 C   0  0  0  0  0  0  0  0  0  0  0  0
   13.9594   20.7346   -1.0979 C   0  0  0  0  0  0  0  0  0  0  0  0
   14.4941   20.9993    0.1549 C   0  0  0  0  0  0  0  0  0  0  0  0
   13.7028   20.9302    1.2599 C   0  0  0  0  0  0  0  0  0  0  0  0
   12.3592   20.5917    1.1311 C   0  0  0  0  0  0  0  0  0  0  0  0
   12.4279   24.8167   -0.0970 C   0  0  0  0  0  0  0  0  0  0  0  0
   13.1917   24.9780   -1.3040 C   0  0  0  0  0  0  0  0  0  0  0  0
   12.8034   25.7867   -2.3413 C   0  0  0  0  0  0  0  0  0  0  0  0
   13.5887   25.9169   -3.4626 C   0  0  0  0  0  0  0  0  0  0  0  0
   14.7842   25.2650   -3.6147 C   0  0  0  0  0  0  0  0  0  0  0  0
   15.2044   24.4321   -2.5690 C   0  0  0  0  0  0  0  0  0  0  0  0
   14.4091   24.3152   -1.4613 C   0  0  0  0  0  0  0  0  0  0  0  0
 68 69  1  0  0  0
 69 70  1  0  0  0
 69 66  1  0  0  0
 66 62  1  0  0  0
 62 63  1  0  0  0
 63 64  2  0  0  0
 63 60  1  0  0  0
 60 61  1  0  0  0
 60 56  1  0  0  0
 56 57  1  0  0  0
 57 58  2  0  0  0
 57 55  1  0  0  0
 55 71  1  0  0  0
 71 72  1  0  0  0
 72 73  2  0  0  0
 73 74  1  0  0  0
 74 75  2  0  0  0
 75 76  1  0  0  0
 76 77  2  0  0  0
 55 51  1  0  0  0
 51 52  1  0  0  0
 52 53  2  0  0  0
 52 50  1  0  0  0
 50 78  1  0  0  0
 78 79  1  0  0  0
 79 80  2  0  0  0
 80 81  1  0  0  0
 81 82  2  0  0  0
 82 83  1  0  0  0
 83 84  2  0  0  0
 50 46  1  0  0  0
 46 47  1  0  0  0
 47 48  2  0  0  0
 47 44  1  0  0  0
 44 45  1  0  0  0
 44  1  1  0  0  0
  1  2  1  0  0  0
  2  3  2  0  0  0
  2  5  1  0  0  0
  5  6  1  0  0  0
  5  7  1  0  0  0
  7  8  1  0  0  0
  8  9  2  0  0  0
  8 11  1  0  0  0
 11 12  1  0  0  0
 11 13  1  0  0  0
 13 14  1  0  0  0
 14 15  2  0  0  0
 14 17  1  0  0  0
 17 18  1  0  0  0
 17 19  1  0  0  0
 19 20  1  0  0  0
 20 21  2  0  0  0
 20 23  1  0  0  0
 23 24  1  0  0  0
 23 25  1  0  0  0
 25 26  1  0  0  0
 26 27  2  0  0  0
 26 29  1  0  0  0
 29 30  1  0  0  0
 29 31  1  0  0  0
 31 32  1  0  0  0
 32 33  2  0  0  0
 32 35  1  0  0  0
 35 36  1  0  0  0
 35 37  1  0  0  0
 37 38  1  0  0  0
 38 39  2  0  0  0
 38 41  1  0  0  0
 41 42  1  0  0  0
 41 43  1  0  0  0
 66 67  1  0  0  0
 77 72  1  0  0  0
 84 79  1  0  0  0
 62 65  1  0  0  0
 56 59  1  0  0  0
 51 54  1  0  0  0
 46 49  1  0  0  0
  1  4  1  0  0  0
  7 10  1  0  0  0
 13 16  1  0  0  0
 19 22  1  0  0  0
 25 28  1  0  0  0
 31 34  1  0  0  0
 37 40  1  0  0  0
M  END
> <minimizedAffinity>
-9.21896

> <CNNscore>
0.0935668722

> <CNNaffinity>
7.0395479202

> <CNN_VS>
0.6586684585

> <CNNaffinity_variance>
2.4919292927

$$$$
[H]c1c([H])c([H])c(C([H])([H])[C@@]([H])(C(=O)N([H])[C@]([H])(C(=O)N([H])[C@]([H])(C([H])([H])[H])C([H])(C([H])([H])[H])C([H])([H])[H])C([H])([H])[H])N([H])C(=O)[C@@]([H])(N([H])C(=O)[C@@]([H])(N([H])C(=O)[C@@]([H])(N([H])C(=O)[C@@]([H])(N([H])C(=O)[C@@]([H])(N([H])C(=O)[C@@]([H])(N([H])C(=O)[C@@]([H])(N([H])C(=O)[C@@]([H])(N([H])C(=O)C([H])(C([H])([H])[H])C([H])([H])[H])C([H])([H])[H])C([H])([H])[H])C([H])([H])[H])C([H])([H])[H])C([H])([H])[H])C([H])([H])[H])C([H])([H])[H])C([H])([H])c2c([H])c([H])c([H])c([H])c2[H])c([H])c1[H]


 84 85  0  0  0  0  0  0  0  0999 V2000
    9.0808   20.2964    7.5314 N   0  0  0  0  0  0  0  0  0  0  0  0
    8.6518   19.3511    8.5136 C   0  0  0  0  0  0  0  0  0  0  0  0
    7.8945   19.8206    9.4308 O   0  0  0  0  0  0  0  0  0  0  0  0
    9.7181   19.9836    6.7879 H   0  0  0  0  0  0  0  0  0  0  0  0
    8.9789   17.9526    8.5624 C   0  0  0  0  0  0  0  0  0  0  0  0
    8.9245   17.3527    7.1145 C   0  0  0  0  0  0  0  0  0  0  0  0
    7.8912   17.2583    9.2455 N   0  0  0  0  0  0  0  0  0  0  0  0
    8.0239   16.4507   10.3893 C   0  0  0  0  0  0  0  0  0  0  0  0
    9.1448   16.2669   10.8967 O   0  0  0  0  0  0  0  0  0  0  0  0
    6.9077   17.3592    8.8681 H   0  0  0  0  0  0  0  0  0  0  0  0
    6.8447   15.7930   11.0146 C   0  0  0  0  0  0  0  0  0  0  0  0
    7.3002   14.3586   11.3903 C   0  0  0  0  0  0  0  0  0  0  0  0
    5.7420   15.6918   10.1005 N   0  0  0  0  0  0  0  0  0  0  0  0
    4.8297   16.7452    9.8937 C   0  0  0  0  0  0  0  0  0  0  0  0
    4.8547   17.8501   10.4602 O   0  0  0  0  0  0  0  0  0  0  0  0
    5.6153   14.7725    9.5529 H   0  0  0  0  0  0  0  0  0  0  0  0
    3.7436   16.4534    8.8902 C   0  0  0  0  0  0  0  0  0  0  0  0
    3.8331   14.9523    8.5954 C   0  0  0  0  0  0  0  0  0  0  0  0
    3.9831   17.1999    7.6971 N   0  0  0  0  0  0  0  0  0  0  0  0
    5.1189   16.9325    6.8979 C   0  0  0  0  0  0  0  0  0  0  0  0
    5.9002   16.0003    7.3154 O   0  0  0  0  0  0  0  0  0  0  0  0
    3.3295   17.9475    7.4045 H   0  0  0  0  0  0  0  0  0  0  0  0
    5.4538   17.6477    5.6471 C   0  0  0  0  0  0  0  0  0  0  0  0
    5.6344   19.1235    5.9809 C   0  0  0  0  0  0  0  0  0  0  0  0
    4.3073   17.5309    4.7214 N   0  0  0  0  0  0  0  0  0  0  0  0
    4.4308   16.8081    3.5195 C   0  0  0  0  0  0  0  0  0  0  0  0
    5.5356   16.2826    3.2348 O   0  0  0  0  0  0  0  0  0  0  0  0
    3.4029   17.9852    4.9489 H   0  0  0  0  0  0  0  0  0  0  0  0
    3.3020   16.6291    2.5609 C   0  0  0  0  0  0  0  0  0  0  0  0
    3.5017   15.2941    1.8005 C   0  0  0  0  0  0  0  0  0  0  0  0
    3.2481   17.7132    1.6244 N   0  0  0  0  0  0  0  0  0  0  0  0
    2.1174   18.4828    1.3455 C   0  0  0  0  0  0  0  0  0  0  0  0
    1.0245   18.2171    1.9536 O   0  0  0  0  0  0  0  0  0  0  0  0
    4.1234   17.9583    1.0986 H   0  0  0  0  0  0  0  0  0  0  0  0
    2.1090   19.6127    0.3662 C   0  0  0  0  0  0  0  0  0  0  0  0
    0.7010   20.1990    0.2841 C   0  0  0  0  0  0  0  0  0  0  0  0
    2.6058   19.2024   -0.9145 N   0  0  0  0  0  0  0  0  0  0  0  0
    3.1892   20.0437   -1.8906 C   0  0  0  0  0  0  0  0  0  0  0  0
    3.3586   21.2730   -1.7743 O   0  0  0  0  0  0  0  0  0  0  0  0
    2.5260   18.1652   -1.1498 H   0  0  0  0  0  0  0  0  0  0  0  0
    3.6445   19.4097   -3.1792 C   0  0  0  0  0  0  0  0  0  0  0  0
    2.6445   19.5990   -4.2693 C   0  0  0  0  0  0  0  0  0  0  0  0
    4.9995   20.0229   -3.5196 C   0  0  0  0  0  0  0  0  0  0  0  0
    8.6400   21.6669    7.5726 C   0  0  0  0  0  0  0  0  0  0  0  0
    9.8375   22.4816    8.0607 C   0  0  0  0  0  0  0  0  0  0  0  0
    9.1356   22.4886    5.2828 N   0  0  0  0  0  0  0  0  0  0  0  0
    8.1714   22.1916    6.2534 C   0  0  0  0  0  0  0  0  0  0  0  0
    6.9406   22.3125    6.1306 O   0  0  0  0  0  0  0  0  0  0  0  0
   10.1526   22.2944    5.6369 H   0  0  0  0  0  0  0  0  0  0  0  0
    8.9767   22.9936    3.9469 C   0  0  0  0  0  0  0  0  0  0  0  0
    9.6924   22.3920    1.6030 N   0  0  0  0  0  0  0  0  0  0  0  0
    9.4647   22.0296    2.9443 C   0  0  0  0  0  0  0  0  0  0  0  0
    9.6840   20.8415    3.2432 O   0  0  0  0  0  0  0  0  0  0  0  0
    9.5460   23.3740    1.3297 H   0  0  0  0  0  0  0  0  0  0  0  0
   10.1208   21.4646    0.5860 C   0  0  0  0  0  0  0  0  0  0  0  0
   12.6515   21.6546    0.7829 N   0  0  0  0  0  0  0  0  0  0  0  0
   11.4489   21.7436    0.0440 C   0  0  0  0  0  0  0  0  0  0  0  0
   11.5619   22.0874   -1.1519 O   0  0  0  0  0  0  0  0  0  0  0  0
   12.5201   21.3346    1.7969 H   0  0  0  0  0  0  0  0  0  0  0  0
   13.9670   21.9534    0.3261 C   0  0  0  0  0  0  0  0  0  0  0  0
   14.4733   20.9199   -0.5932 C   0  0  0  0  0  0  0  0  0  0  0  0
   14.1570   23.7235   -1.4618 N   0  0  0  0  0  0  0  0  0  0  0  0
   14.1885   23.3756   -0.1051 C   0  0  0  0  0  0  0  0  0  0  0  0
   14.3975   24.2149    0.7817 O   0  0  0  0  0  0  0  0  0  0  0  0
   13.9555   22.9118   -2.1497 H   0  0  0  0  0  0  0  0  0  0  0  0
   14.3569   24.9754   -2.1030 C   0  0  0  0  0  0  0  0  0  0  0  0
   12.9767   25.6016   -2.4357 C   0  0  0  0  0  0  0  0  0  0  0  0
   15.2449   23.5264   -3.9113 C   0  0  0  0  0  0  0  0  0  0  0  0
   15.0983   24.9295   -3.3937 C   0  0  0  0  0  0  0  0  0  0  0  0
   14.5846   25.8631   -4.4500 C   0  0  0  0  0  0  0  0  0  0  0  0
    9.0914   21.4021   -0.5189 C   0  0  0  0  0  0  0  0  0  0  0  0
    8.0498   20.3922   -0.3627 C   0  0  0  0  0  0  0  0  0  0  0  0
    8.1289   19.1978   -1.0803 C   0  0  0  0  0  0  0  0  0  0  0  0
    7.1605   18.2309   -1.0151 C   0  0  0  0  0  0  0  0  0  0  0  0
    6.0533   18.4412   -0.2055 C   0  0  0  0  0  0  0  0  0  0  0  0
    5.9434   19.5939    0.5095 C   0  0  0  0  0  0  0  0  0  0  0  0
    6.9410   20.5606    0.4250 C   0  0  0  0  0  0  0  0  0  0  0  0
    9.2909   24.4176    3.7838 C   0  0  0  0  0  0  0  0  0  0  0  0
    8.2752   25.4346    3.7990 C   0  0  0  0  0  0  0  0  0  0  0  0
    6.9442   25.1700    3.9972 C   0  0  0  0  0  0  0  0  0  0  0  0
    6.0215   26.1892    4.0229 C   0  0  0  0  0  0  0  0  0  0  0  0
    6.3615   27.5062    3.8584 C   0  0  0  0  0  0  0  0  0  0  0  0
    7.7155   27.8041    3.6542 C   0  0  0  0  0  0  0  0  0  0  0  0
    8.6188   26.7761    3.6316 C   0  0  0  0  0  0  0  0  0  0  0  0
 68 69  1  0  0  0
 69 70  1  0  0  0
 69 66  1  0  0  0
 66 62  1  0  0  0
 62 63  1  0  0  0
 63 64  2  0  0  0
 63 60  1  0  0  0
 60 61  1  0  0  0
 60 56  1  0  0  0
 56 57  1  0  0  0
 57 58  2  0  0  0
 57 55  1  0  0  0
 55 71  1  0  0  0
 71 72  1  0  0  0
 72 73  2  0  0  0
 73 74  1  0  0  0
 74 75  2  0  0  0
 75 76  1  0  0  0
 76 77  2  0  0  0
 55 51  1  0  0  0
 51 52  1  0  0  0
 52 53  2  0  0  0
 52 50  1  0  0  0
 50 78  1  0  0  0
 78 79  1  0  0  0
 79 80  2  0  0  0
 80 81  1  0  0  0
 81 82  2  0  0  0
 82 83  1  0  0  0
 83 84  2  0  0  0
 50 46  1  0  0  0
 46 47  1  0  0  0
 47 48  2  0  0  0
 47 44  1  0  0  0
 44 45  1  0  0  0
 44  1  1  0  0  0
  1  2  1  0  0  0
  2  3  2  0  0  0
  2  5  1  0  0  0
  5  6  1  0  0  0
  5  7  1  0  0  0
  7  8  1  0  0  0
  8  9  2  0  0  0
  8 11  1  0  0  0
 11 12  1  0  0  0
 11 13  1  0  0  0
 13 14  1  0  0  0
 14 15  2  0  0  0
 14 17  1  0  0  0
 17 18  1  0  0  0
 17 19  1  0  0  0
 19 20  1  0  0  0
 20 21  2  0  0  0
 20 23  1  0  0  0
 23 24  1  0  0  0
 23 25  1  0  0  0
 25 26  1  0  0  0
 26 27  2  0  0  0
 26 29  1  0  0  0
 29 30  1  0  0  0
 29 31  1  0  0  0
 31 32  1  0  0  0
 32 33  2  0  0  0
 32 35  1  0  0  0
 35 36  1  0  0  0
 35 37  1  0  0  0
 37 38  1  0  0  0
 38 39  2  0  0  0
 38 41  1  0  0  0
 41 42  1  0  0  0
 41 43  1  0  0  0
 66 67  1  0  0  0
 77 72  1  0  0  0
 84 79  1  0  0  0
 62 65  1  0  0  0
 56 59  1  0  0  0
 51 54  1  0  0  0
 46 49  1  0  0  0
  1  4  1  0  0  0
  7 10  1  0  0  0
 13 16  1  0  0  0
 19 22  1  0  0  0
 25 28  1  0  0  0
 31 34  1  0  0  0
 37 40  1  0  0  0
M  END
> <minimizedAffinity>
-8.51946

> <CNNscore>
0.0699691325

> <CNNaffinity>
7.6069135666

> <CNN_VS>
0.5322491527

> <CNNaffinity_variance>
1.4651761055

$$$$
[H]c1c([H])c([H])c(C([H])([H])[C@@]([H])(C(=O)N([H])[C@]([H])(C(=O)N([H])[C@]([H])(C([H])([H])[H])C([H])(C([H])([H])[H])C([H])([H])[H])C([H])([H])[H])N([H])C(=O)[C@@]([H])(N([H])C(=O)[C@@]([H])(N([H])C(=O)[C@@]([H])(N([H])C(=O)[C@@]([H])(N([H])C(=O)[C@@]([H])(N([H])C(=O)[C@@]([H])(N([H])C(=O)[C@@]([H])(N([H])C(=O)[C@@]([H])(N([H])C(=O)C([H])(C([H])([H])[H])C([H])([H])[H])C([H])([H])[H])C([H])([H])[H])C([H])([H])[H])C([H])([H])[H])C([H])([H])[H])C([H])([H])[H])C([H])([H])[H])C([H])([H])c2c([H])c([H])c([H])c([H])c2[H])c([H])c1[H]


 84 85  0  0  0  0  0  0  0  0999 V2000
    5.4212   19.3653    0.0719 N   0  0  0  0  0  0  0  0  0  0  0  0
    6.1642   18.1474   -0.0105 C   0  0  0  0  0  0  0  0  0  0  0  0
    7.1996   18.1878   -0.7601 O   0  0  0  0  0  0  0  0  0  0  0  0
    4.5605   19.3835    0.6337 H   0  0  0  0  0  0  0  0  0  0  0  0
    5.8675   16.9113    0.6598 C   0  0  0  0  0  0  0  0  0  0  0  0
    6.6022   15.7328   -0.0687 C   0  0  0  0  0  0  0  0  0  0  0  0
    4.4573   16.6049    0.4380 N   0  0  0  0  0  0  0  0  0  0  0  0
    3.7385   16.8599   -0.7437 C   0  0  0  0  0  0  0  0  0  0  0  0
    4.3007   17.4044   -1.7108 O   0  0  0  0  0  0  0  0  0  0  0  0
    3.9078   16.1476    1.2183 H   0  0  0  0  0  0  0  0  0  0  0  0
    2.3005   16.4989   -0.8692 C   0  0  0  0  0  0  0  0  0  0  0  0
    1.6915   17.5011   -1.8844 C   0  0  0  0  0  0  0  0  0  0  0  0
    1.6032   16.6398    0.3782 N   0  0  0  0  0  0  0  0  0  0  0  0
    1.6469   17.8231    1.1414 C   0  0  0  0  0  0  0  0  0  0  0  0
    2.2772   18.8529    0.8504 O   0  0  0  0  0  0  0  0  0  0  0  0
    1.0239   15.8051    0.7366 H   0  0  0  0  0  0  0  0  0  0  0  0
    0.8452   17.7829    2.4171 C   0  0  0  0  0  0  0  0  0  0  0  0
   -0.4091   18.6232    2.1544 C   0  0  0  0  0  0  0  0  0  0  0  0
    1.6062   18.3612    3.4776 N   0  0  0  0  0  0  0  0  0  0  0  0
    2.4961   17.5683    4.2389 C   0  0  0  0  0  0  0  0  0  0  0  0
    2.5629   16.3243    3.9199 O   0  0  0  0  0  0  0  0  0  0  0  0
    1.5134   19.3673    3.7034 H   0  0  0  0  0  0  0  0  0  0  0  0
    3.3271   18.0723    5.3539 C   0  0  0  0  0  0  0  0  0  0  0  0
    4.3386   19.0578    4.7811 C   0  0  0  0  0  0  0  0  0  0  0  0
    4.0786   16.9356    5.9270 N   0  0  0  0  0  0  0  0  0  0  0  0
    4.3062   16.8570    7.3142 C   0  0  0  0  0  0  0  0  0  0  0  0
    3.8808   17.7777    8.0551 O   0  0  0  0  0  0  0  0  0  0  0  0
    4.4481   16.1883    5.3096 H   0  0  0  0  0  0  0  0  0  0  0  0
    5.0298   15.7204    7.9543 C   0  0  0  0  0  0  0  0  0  0  0  0
    4.0193   14.5789    8.2296 C   0  0  0  0  0  0  0  0  0  0  0  0
    5.6408   16.1298    9.1849 N   0  0  0  0  0  0  0  0  0  0  0  0
    6.8962   15.7205    9.6376 C   0  0  0  0  0  0  0  0  0  0  0  0
    7.5760   14.9082    8.9215 O   0  0  0  0  0  0  0  0  0  0  0  0
    5.1113   16.7909    9.8056 H   0  0  0  0  0  0  0  0  0  0  0  0
    7.4997   16.1812   10.9257 C   0  0  0  0  0  0  0  0  0  0  0  0
    9.0216   16.0956   10.8291 C   0  0  0  0  0  0  0  0  0  0  0  0
    6.9807   15.4469   12.0422 N   0  0  0  0  0  0  0  0  0  0  0  0
    5.9427   15.8673   12.9062 C   0  0  0  0  0  0  0  0  0  0  0  0
    5.3234   16.9452   12.8178 O   0  0  0  0  0  0  0  0  0  0  0  0
    7.4211   14.4951   12.2364 H   0  0  0  0  0  0  0  0  0  0  0  0
    5.5483   14.9424   14.0283 C   0  0  0  0  0  0  0  0  0  0  0  0
    6.6940   14.6654   14.9419 C   0  0  0  0  0  0  0  0  0  0  0  0
    4.3740   15.5971   14.7495 C   0  0  0  0  0  0  0  0  0  0  0  0
    5.8559   20.5525   -0.6180 C   0  0  0  0  0  0  0  0  0  0  0  0
    4.5983   21.3883   -0.8547 C   0  0  0  0  0  0  0  0  0  0  0  0
    8.2029   21.2845   -0.2722 N   0  0  0  0  0  0  0  0  0  0  0  0
    6.8659   21.3555    0.1371 C   0  0  0  0  0  0  0  0  0  0  0  0
    6.4178   22.0352    1.0760 O   0  0  0  0  0  0  0  0  0  0  0  0
    8.3390   20.6145   -1.1266 H   0  0  0  0  0  0  0  0  0  0  0  0
    9.3669   21.9408    0.2562 C   0  0  0  0  0  0  0  0  0  0  0  0
    9.0627   21.9088    2.7612 N   0  0  0  0  0  0  0  0  0  0  0  0
    9.7057   21.4388    1.6001 C   0  0  0  0  0  0  0  0  0  0  0  0
   10.5922   20.5809    1.7650 O   0  0  0  0  0  0  0  0  0  0  0  0
    8.3061   22.5993    2.6562 H   0  0  0  0  0  0  0  0  0  0  0  0
    9.4032   21.4772    4.0937 C   0  0  0  0  0  0  0  0  0  0  0  0
    8.6171   19.9070    5.9365 N   0  0  0  0  0  0  0  0  0  0  0  0
    8.4712   20.5068    4.6641 C   0  0  0  0  0  0  0  0  0  0  0  0
    7.4667   20.1631    4.0054 O   0  0  0  0  0  0  0  0  0  0  0  0
    9.4756   20.2420    6.4831 H   0  0  0  0  0  0  0  0  0  0  0  0
    7.7702   18.9270    6.5287 C   0  0  0  0  0  0  0  0  0  0  0  0
    8.4685   17.6438    6.7163 C   0  0  0  0  0  0  0  0  0  0  0  0
    5.9420   20.3539    7.5224 N   0  0  0  0  0  0  0  0  0  0  0  0
    6.9571   19.4046    7.6985 C   0  0  0  0  0  0  0  0  0  0  0  0
    7.2219   18.9273    8.8106 O   0  0  0  0  0  0  0  0  0  0  0  0
    5.7896   20.6948    6.5060 H   0  0  0  0  0  0  0  0  0  0  0  0
    5.0699   20.9644    8.4633 C   0  0  0  0  0  0  0  0  0  0  0  0
    3.7841   21.4348    7.7330 C   0  0  0  0  0  0  0  0  0  0  0  0
    5.6866   23.3569    8.2317 C   0  0  0  0  0  0  0  0  0  0  0  0
    5.6047   22.1716    9.1518 C   0  0  0  0  0  0  0  0  0  0  0  0
    4.9239   22.5146   10.4441 C   0  0  0  0  0  0  0  0  0  0  0  0
    9.5514   22.6774    5.0003 C   0  0  0  0  0  0  0  0  0  0  0  0
    8.7897   23.8619    4.6187 C   0  0  0  0  0  0  0  0  0  0  0  0
    9.3713   24.8236    3.7913 C   0  0  0  0  0  0  0  0  0  0  0  0
    8.7278   25.9796    3.4358 C   0  0  0  0  0  0  0  0  0  0  0  0
    7.4461   26.2106    3.9145 C   0  0  0  0  0  0  0  0  0  0  0  0
    6.8472   25.2941    4.7229 C   0  0  0  0  0  0  0  0  0  0  0  0
    7.5230   24.1280    5.0696 C   0  0  0  0  0  0  0  0  0  0  0  0
    9.4364   23.3824   -0.0085 C   0  0  0  0  0  0  0  0  0  0  0  0
   10.6674   24.0420   -0.3484 C   0  0  0  0  0  0  0  0  0  0  0  0
   11.0282   24.3518   -1.6348 C   0  0  0  0  0  0  0  0  0  0  0  0
   12.2106   25.0038   -1.8951 C   0  0  0  0  0  0  0  0  0  0  0  0
   13.0859   25.3807   -0.9108 C   0  0  0  0  0  0  0  0  0  0  0  0
   12.7411   25.0761    0.4128 C   0  0  0  0  0  0  0  0  0  0  0  0
   11.5603   24.4267    0.6519 C   0  0  0  0  0  0  0  0  0  0  0  0
 68 69  1  0  0  0
 69 70  1  0  0  0
 69 66  1  0  0  0
 66 62  1  0  0  0
 62 63  1  0  0  0
 63 64  2  0  0  0
 63 60  1  0  0  0
 60 61  1  0  0  0
 60 56  1  0  0  0
 56 57  1  0  0  0
 57 58  2  0  0  0
 57 55  1  0  0  0
 55 71  1  0  0  0
 71 72  1  0  0  0
 72 73  2  0  0  0
 73 74  1  0  0  0
 74 75  2  0  0  0
 75 76  1  0  0  0
 76 77  2  0  0  0
 55 51  1  0  0  0
 51 52  1  0  0  0
 52 53  2  0  0  0
 52 50  1  0  0  0
 50 78  1  0  0  0
 78 79  1  0  0  0
 79 80  2  0  0  0
 80 81  1  0  0  0
 81 82  2  0  0  0
 82 83  1  0  0  0
 83 84  2  0  0  0
 50 46  1  0  0  0
 46 47  1  0  0  0
 47 48  2  0  0  0
 47 44  1  0  0  0
 44 45  1  0  0  0
 44  1  1  0  0  0
  1  2  1  0  0  0
  2  3  2  0  0  0
  2  5  1  0  0  0
  5  6  1  0  0  0
  5  7  1  0  0  0
  7  8  1  0  0  0
  8  9  2  0  0  0
  8 11  1  0  0  0
 11 12  1  0  0  0
 11 13  1  0  0  0
 13 14  1  0  0  0
 14 15  2  0  0  0
 14 17  1  0  0  0
 17 18  1  0  0  0
 17 19  1  0  0  0
 19 20  1  0  0  0
 20 21  2  0  0  0
 20 23  1  0  0  0
 23 24  1  0  0  0
 23 25  1  0  0  0
 25 26  1  0  0  0
 26 27  2  0  0  0
 26 29  1  0  0  0
 29 30  1  0  0  0
 29 31  1  0  0  0
 31 32  1  0  0  0
 32 33  2  0  0  0
 32 35  1  0  0  0
 35 36  1  0  0  0
 35 37  1  0  0  0
 37 38  1  0  0  0
 38 39  2  0  0  0
 38 41  1  0  0  0
 41 42  1  0  0  0
 41 43  1  0  0  0
 66 67  1  0  0  0
 77 72  1  0  0  0
 84 79  1  0  0  0
 62 65  1  0  0  0
 56 59  1  0  0  0
 51 54  1  0  0  0
 46 49  1  0  0  0
  1  4  1  0  0  0
  7 10  1  0  0  0
 13 16  1  0  0  0
 19 22  1  0  0  0
 25 28  1  0  0  0
 31 34  1  0  0  0
 37 40  1  0  0  0
M  END
> <minimizedAffinity>
-7.58268

> <CNNscore>
0.0659430549

> <CNNaffinity>
6.5822815895

> <CNN_VS>
0.4340557456

> <CNNaffinity_variance>
2.0434768200

$$$$
[H]c1c([H])c([H])c(C([H])([H])[C@@]([H])(C(=O)N([H])[C@]([H])(C(=O)N([H])[C@]([H])(C([H])([H])[H])C([H])(C([H])([H])[H])C([H])([H])[H])C([H])([H])[H])N([H])C(=O)[C@@]([H])(N([H])C(=O)[C@@]([H])(N([H])C(=O)[C@@]([H])(N([H])C(=O)[C@@]([H])(N([H])C(=O)[C@@]([H])(N([H])C(=O)[C@@]([H])(N([H])C(=O)[C@@]([H])(N([H])C(=O)[C@@]([H])(N([H])C(=O)C([H])(C([H])([H])[H])C([H])([H])[H])C([H])([H])[H])C([H])([H])[H])C([H])([H])[H])C([H])([H])[H])C([H])([H])[H])C([H])([H])[H])C([H])([H])[H])C([H])([H])c2c([H])c([H])c([H])c([H])c2[H])c([H])c1[H]


 84 85  0  0  0  0  0  0  0  0999 V2000
    9.9630   20.1821    6.5686 N   0  0  0  0  0  0  0  0  0  0  0  0
    9.1080   19.3909    5.7408 C   0  0  0  0  0  0  0  0  0  0  0  0
    8.8931   19.8594    4.5704 O   0  0  0  0  0  0  0  0  0  0  0  0
   10.1455   19.8721    7.5316 H   0  0  0  0  0  0  0  0  0  0  0  0
    8.4863   18.1432    6.0900 C   0  0  0  0  0  0  0  0  0  0  0  0
    6.9916   18.1538    5.6153 C   0  0  0  0  0  0  0  0  0  0  0  0
    8.3676   18.0896    7.5442 N   0  0  0  0  0  0  0  0  0  0  0  0
    8.5994   16.9567    8.3449 C   0  0  0  0  0  0  0  0  0  0  0  0
    8.9232   15.8767    7.8191 O   0  0  0  0  0  0  0  0  0  0  0  0
    8.0876   18.9679    8.0639 H   0  0  0  0  0  0  0  0  0  0  0  0
    8.4583   17.0120    9.8251 C   0  0  0  0  0  0  0  0  0  0  0  0
    8.4681   15.5400   10.3142 C   0  0  0  0  0  0  0  0  0  0  0  0
    7.2150   17.6113   10.2215 N   0  0  0  0  0  0  0  0  0  0  0  0
    7.0673   19.0004   10.4037 C   0  0  0  0  0  0  0  0  0  0  0  0
    7.9605   19.8514   10.2602 O   0  0  0  0  0  0  0  0  0  0  0  0
    6.3659   16.9677   10.3813 H   0  0  0  0  0  0  0  0  0  0  0  0
    5.6854   19.4412   10.8133 C   0  0  0  0  0  0  0  0  0  0  0  0
    4.8092   18.1849   10.7633 C   0  0  0  0  0  0  0  0  0  0  0  0
    5.1995   20.4117    9.8859 N   0  0  0  0  0  0  0  0  0  0  0  0
    5.1377   21.7788   10.2427 C   0  0  0  0  0  0  0  0  0  0  0  0
    5.5331   22.0741   11.4301 O   0  0  0  0  0  0  0  0  0  0  0  0
    4.8841   20.1255    8.9422 H   0  0  0  0  0  0  0  0  0  0  0  0
    4.6521   22.8580    9.3552 C   0  0  0  0  0  0  0  0  0  0  0  0
    4.2215   22.2271    8.0366 C   0  0  0  0  0  0  0  0  0  0  0  0
    5.7790   23.7719    9.0719 N   0  0  0  0  0  0  0  0  0  0  0  0
    5.7349   25.1132    9.4977 C   0  0  0  0  0  0  0  0  0  0  0  0
    4.7149   25.5278   10.1023 O   0  0  0  0  0  0  0  0  0  0  0  0
    6.6102   23.4321    8.5525 H   0  0  0  0  0  0  0  0  0  0  0  0
    6.8528   26.0740    9.2691 C   0  0  0  0  0  0  0  0  0  0  0  0
    6.6789   26.7162    7.8700 C   0  0  0  0  0  0  0  0  0  0  0  0
    8.1216   25.4104    9.3400 N   0  0  0  0  0  0  0  0  0  0  0  0
    8.8604   25.2048   10.5063 C   0  0  0  0  0  0  0  0  0  0  0  0
    8.3967   25.6400   11.6155 O   0  0  0  0  0  0  0  0  0  0  0  0
    8.5404   25.0448    8.4491 H   0  0  0  0  0  0  0  0  0  0  0  0
   10.1774   24.4975   10.5352 C   0  0  0  0  0  0  0  0  0  0  0  0
   10.0547   23.1715    9.7873 C   0  0  0  0  0  0  0  0  0  0  0  0
   10.6533   24.3265   11.8767 N   0  0  0  0  0  0  0  0  0  0  0  0
   11.9063   24.7514   12.3770 C   0  0  0  0  0  0  0  0  0  0  0  0
   12.7827   25.3431   11.7174 O   0  0  0  0  0  0  0  0  0  0  0  0
    9.9986   23.8320   12.5581 H   0  0  0  0  0  0  0  0  0  0  0  0
   12.2146   24.4683   13.8243 C   0  0  0  0  0  0  0  0  0  0  0  0
   12.1890   25.7124   14.6462 C   0  0  0  0  0  0  0  0  0  0  0  0
   11.1970   23.4357   14.2998 C   0  0  0  0  0  0  0  0  0  0  0  0
   10.5617   21.3964    6.0774 C   0  0  0  0  0  0  0  0  0  0  0  0
   11.4874   20.9793    4.9350 C   0  0  0  0  0  0  0  0  0  0  0  0
    9.6309   22.7857    4.2424 N   0  0  0  0  0  0  0  0  0  0  0  0
    9.5717   22.4042    5.5881 C   0  0  0  0  0  0  0  0  0  0  0  0
    8.7620   22.8164    6.4360 O   0  0  0  0  0  0  0  0  0  0  0  0
   10.4356   22.2768    3.7030 H   0  0  0  0  0  0  0  0  0  0  0  0
    8.8165   23.7149    3.5089 C   0  0  0  0  0  0  0  0  0  0  0  0
    9.4179   22.2427    1.5495 N   0  0  0  0  0  0  0  0  0  0  0  0
    8.7201   23.3416    2.0862 C   0  0  0  0  0  0  0  0  0  0  0  0
    8.0220   23.9977    1.2917 O   0  0  0  0  0  0  0  0  0  0  0  0
    9.9832   21.6635    2.1862 H   0  0  0  0  0  0  0  0  0  0  0  0
    9.3863   21.8796    0.1548 C   0  0  0  0  0  0  0  0  0  0  0  0
    7.1197   20.7320   -0.0021 N   0  0  0  0  0  0  0  0  0  0  0  0
    8.5267   20.7368   -0.1459 C   0  0  0  0  0  0  0  0  0  0  0  0
    9.0413   19.6763   -0.5600 O   0  0  0  0  0  0  0  0  0  0  0  0
    6.7101   21.6639    0.3319 H   0  0  0  0  0  0  0  0  0  0  0  0
    6.2339   19.6417   -0.2368 C   0  0  0  0  0  0  0  0  0  0  0  0
    5.2679   19.4770    0.8628 C   0  0  0  0  0  0  0  0  0  0  0  0
    4.3740   20.0479   -1.8926 N   0  0  0  0  0  0  0  0  0  0  0  0
    5.6623   19.5672   -1.6243 C   0  0  0  0  0  0  0  0  0  0  0  0
    6.3725   19.0680   -2.5082 O   0  0  0  0  0  0  0  0  0  0  0  0
    3.8467   20.4734   -1.0480 H   0  0  0  0  0  0  0  0  0  0  0  0
    3.6231   20.0651   -3.0985 C   0  0  0  0  0  0  0  0  0  0  0  0
    2.9169   21.4398   -3.2374 C   0  0  0  0  0  0  0  0  0  0  0  0
    2.0967   18.8363   -4.6211 C   0  0  0  0  0  0  0  0  0  0  0  0
    2.5419   19.0463   -3.2013 C   0  0  0  0  0  0  0  0  0  0  0  0
    2.8315   17.7468   -2.5094 C   0  0  0  0  0  0  0  0  0  0  0  0
   10.7924   21.6412   -0.3459 C   0  0  0  0  0  0  0  0  0  0  0  0
   11.5690   22.8367   -0.6571 C   0  0  0  0  0  0  0  0  0  0  0  0
   12.9189   22.8970   -0.3081 C   0  0  0  0  0  0  0  0  0  0  0  0
   13.6905   24.0073   -0.5287 C   0  0  0  0  0  0  0  0  0  0  0  0
   13.1129   25.1208   -1.1221 C   0  0  0  0  0  0  0  0  0  0  0  0
   11.7993   25.0972   -1.4768 C   0  0  0  0  0  0  0  0  0  0  0  0
   11.0373   23.9568   -1.2411 C   0  0  0  0  0  0  0  0  0  0  0  0
    9.0117   25.1242    3.8679 C   0  0  0  0  0  0  0  0  0  0  0  0
    7.9253   26.0646    3.9052 C   0  0  0  0  0  0  0  0  0  0  0  0
    8.0610   27.3892    3.5770 C   0  0  0  0  0  0  0  0  0  0  0  0
    6.9782   28.2361    3.6112 C   0  0  0  0  0  0  0  0  0  0  0  0
    5.7205   27.8233    3.9649 C   0  0  0  0  0  0  0  0  0  0  0  0
    5.5543   26.4741    4.3050 C   0  0  0  0  0  0  0  0  0  0  0  0
    6.6439   25.6469    4.2652 C   0  0  0  0  0  0  0  0  0  0  0  0
 68 69  1  0  0  0
 69 70  1  0  0  0
 69 66  1  0  0  0
 66 62  1  0  0  0
 62 63  1  0  0  0
 63 64  2  0  0  0
 63 60  1  0  0  0
 60 61  1  0  0  0
 60 56  1  0  0  0
 56 57  1  0  0  0
 57 58  2  0  0  0
 57 55  1  0  0  0
 55 71  1  0  0  0
 71 72  1  0  0  0
 72 73  2  0  0  0
 73 74  1  0  0  0
 74 75  2  0  0  0
 75 76  1  0  0  0
 76 77  2  0  0  0
 55 51  1  0  0  0
 51 52  1  0  0  0
 52 53  2  0  0  0
 52 50  1  0  0  0
 50 78  1  0  0  0
 78 79  1  0  0  0
 79 80  2  0  0  0
 80 81  1  0  0  0
 81 82  2  0  0  0
 82 83  1  0  0  0
 83 84  2  0  0  0
 50 46  1  0  0  0
 46 47  1  0  0  0
 47 48  2  0  0  0
 47 44  1  0  0  0
 44 45  1  0  0  0
 44  1  1  0  0  0
  1  2  1  0  0  0
  2  3  2  0  0  0
  2  5  1  0  0  0
  5  6  1  0  0  0
  5  7  1  0  0  0
  7  8  1  0  0  0
  8  9  2  0  0  0
  8 11  1  0  0  0
 11 12  1  0  0  0
 11 13  1  0  0  0
 13 14  1  0  0  0
 14 15  2  0  0  0
 14 17  1  0  0  0
 17 18  1  0  0  0
 17 19  1  0  0  0
 19 20  1  0  0  0
 20 21  2  0  0  0
 20 23  1  0  0  0
 23 24  1  0  0  0
 23 25  1  0  0  0
 25 26  1  0  0  0
 26 27  2  0  0  0
 26 29  1  0  0  0
 29 30  1  0  0  0
 29 31  1  0  0  0
 31 32  1  0  0  0
 32 33  2  0  0  0
 32 35  1  0  0  0
 35 36  1  0  0  0
 35 37  1  0  0  0
 37 38  1  0  0  0
 38 39  2  0  0  0
 38 41  1  0  0  0
 41 42  1  0  0  0
 41 43  1  0  0  0
 66 67  1  0  0  0
 77 72  1  0  0  0
 84 79  1  0  0  0
 62 65  1  0  0  0
 56 59  1  0  0  0
 51 54  1  0  0  0
 46 49  1  0  0  0
  1  4  1  0  0  0
  7 10  1  0  0  0
 13 16  1  0  0  0
 19 22  1  0  0  0
 25 28  1  0  0  0
 31 34  1  0  0  0
 37 40  1  0  0  0
M  END
> <minimizedAffinity>
-8.23395

> <CNNscore>
0.0656245500

> <CNNaffinity>
6.5728631020

> <CNN_VS>
0.4313411713

> <CNNaffinity_variance>
3.4809792042

$$$$
[H]c1c([H])c([H])c(C([H])([H])[C@@]([H])(C(=O)N([H])[C@]([H])(C(=O)N([H])[C@]([H])(C([H])([H])[H])C([H])(C([H])([H])[H])C([H])([H])[H])C([H])([H])[H])N([H])C(=O)[C@@]([H])(N([H])C(=O)[C@@]([H])(N([H])C(=O)[C@@]([H])(N([H])C(=O)[C@@]([H])(N([H])C(=O)[C@@]([H])(N([H])C(=O)[C@@]([H])(N([H])C(=O)[C@@]([H])(N([H])C(=O)[C@@]([H])(N([H])C(=O)C([H])(C([H])([H])[H])C([H])([H])[H])C([H])([H])[H])C([H])([H])[H])C([H])([H])[H])C([H])([H])[H])C([H])([H])[H])C([H])([H])[H])C([H])([H])[H])C([H])([H])c2c([H])c([H])c([H])c([H])c2[H])c([H])c1[H]


 84 85  0  0  0  0  0  0  0  0999 V2000
    8.8250   22.7109    1.8390 N   0  0  0  0  0  0  0  0  0  0  0  0
    9.4890   23.9508    2.0923 C   0  0  0  0  0  0  0  0  0  0  0  0
   10.2973   24.3350    1.1789 O   0  0  0  0  0  0  0  0  0  0  0  0
    8.1879   22.3353    2.5530 H   0  0  0  0  0  0  0  0  0  0  0  0
    9.3323   24.7905    3.2480 C   0  0  0  0  0  0  0  0  0  0  0  0
    9.0926   23.8967    4.5141 C   0  0  0  0  0  0  0  0  0  0  0  0
    8.0705   25.5127    3.1133 N   0  0  0  0  0  0  0  0  0  0  0  0
    7.8378   26.8397    3.5170 C   0  0  0  0  0  0  0  0  0  0  0  0
    8.7475   27.4973    4.0534 O   0  0  0  0  0  0  0  0  0  0  0  0
    7.2456   25.0167    2.6733 H   0  0  0  0  0  0  0  0  0  0  0  0
    6.5117   27.4867    3.3254 C   0  0  0  0  0  0  0  0  0  0  0  0
    6.8031   28.9353    2.8536 C   0  0  0  0  0  0  0  0  0  0  0  0
    5.7668   27.5523    4.5513 N   0  0  0  0  0  0  0  0  0  0  0  0
    5.2238   26.4092    5.1703 C   0  0  0  0  0  0  0  0  0  0  0  0
    5.3076   25.2445    4.7473 O   0  0  0  0  0  0  0  0  0  0  0  0
    5.6241   28.5161    5.0111 H   0  0  0  0  0  0  0  0  0  0  0  0
    4.4812   26.6778    6.4541 C   0  0  0  0  0  0  0  0  0  0  0  0
    4.9850   28.0346    6.9576 C   0  0  0  0  0  0  0  0  0  0  0  0
    4.7895   25.6594    7.4059 N   0  0  0  0  0  0  0  0  0  0  0  0
    3.7555   24.9585    8.0690 C   0  0  0  0  0  0  0  0  0  0  0  0
    2.5533   25.2997    7.7658 O   0  0  0  0  0  0  0  0  0  0  0  0
    5.7739   25.4241    7.6238 H   0  0  0  0  0  0  0  0  0  0  0  0
    3.9713   23.8891    9.0679 C   0  0  0  0  0  0  0  0  0  0  0  0
    3.3421   24.3363   10.3818 C   0  0  0  0  0  0  0  0  0  0  0  0
    5.4256   23.7442    9.2898 N   0  0  0  0  0  0  0  0  0  0  0  0
    5.9762   22.4911    9.6199 C   0  0  0  0  0  0  0  0  0  0  0  0
    5.2111   21.5028    9.7448 O   0  0  0  0  0  0  0  0  0  0  0  0
    6.0519   24.5672    9.2080 H   0  0  0  0  0  0  0  0  0  0  0  0
    7.4379   22.2759    9.8250 C   0  0  0  0  0  0  0  0  0  0  0  0
    8.1813   23.6053    9.5419 C   0  0  0  0  0  0  0  0  0  0  0  0
    7.9328   21.2521    8.9520 N   0  0  0  0  0  0  0  0  0  0  0  0
    8.1473   19.9203    9.3107 C   0  0  0  0  0  0  0  0  0  0  0  0
    7.8988   19.5565   10.5110 O   0  0  0  0  0  0  0  0  0  0  0  0
    8.1563   21.5121    7.9595 H   0  0  0  0  0  0  0  0  0  0  0  0
    8.6566   18.8819    8.3629 C   0  0  0  0  0  0  0  0  0  0  0  0
    8.6648   19.4524    6.9461 C   0  0  0  0  0  0  0  0  0  0  0  0
    7.9016   17.6669    8.4586 N   0  0  0  0  0  0  0  0  0  0  0  0
    8.2481   16.5286    9.2235 C   0  0  0  0  0  0  0  0  0  0  0  0
    9.2674   16.4194    9.9322 O   0  0  0  0  0  0  0  0  0  0  0  0
    6.9948   17.6207    7.8991 H   0  0  0  0  0  0  0  0  0  0  0  0
    7.3142   15.3470    9.1824 C   0  0  0  0  0  0  0  0  0  0  0  0
    7.7885   14.2396   10.0614 C   0  0  0  0  0  0  0  0  0  0  0  0
    5.9345   15.8591    9.5847 C   0  0  0  0  0  0  0  0  0  0  0  0
    9.0381   21.9875    0.6120 C   0  0  0  0  0  0  0  0  0  0  0  0
   10.2321   21.0678    0.8655 C   0  0  0  0  0  0  0  0  0  0  0  0
    6.7665   21.8593   -0.3815 N   0  0  0  0  0  0  0  0  0  0  0  0
    7.8586   21.1808    0.1724 C   0  0  0  0  0  0  0  0  0  0  0  0
    7.9582   19.9527    0.3343 O   0  0  0  0  0  0  0  0  0  0  0  0
    6.9255   22.9415   -0.4153 H   0  0  0  0  0  0  0  0  0  0  0  0
    5.5213   21.3495   -0.8858 C   0  0  0  0  0  0  0  0  0  0  0  0
    4.8733   19.9059    1.0800 N   0  0  0  0  0  0  0  0  0  0  0  0
    4.6067   20.9798    0.2094 C   0  0  0  0  0  0  0  0  0  0  0  0
    3.5447   21.5999    0.4016 O   0  0  0  0  0  0  0  0  0  0  0  0
    5.7567   19.3896    0.9642 H   0  0  0  0  0  0  0  0  0  0  0  0
    3.9779   19.4858    2.1288 C   0  0  0  0  0  0  0  0  0  0  0  0
    3.6667   19.9816    4.6060 N   0  0  0  0  0  0  0  0  0  0  0  0
    4.4824   19.7294    3.4785 C   0  0  0  0  0  0  0  0  0  0  0  0
    5.7151   19.7211    3.6817 O   0  0  0  0  0  0  0  0  0  0  0  0
    2.6155   19.9580    4.4005 H   0  0  0  0  0  0  0  0  0  0  0  0
    4.0969   20.2674    5.9332 C   0  0  0  0  0  0  0  0  0  0  0  0
    3.4059   21.4432    6.4896 C   0  0  0  0  0  0  0  0  0  0  0  0
    3.0834   18.6405    7.5740 N   0  0  0  0  0  0  0  0  0  0  0  0
    4.1971   19.0774    6.8450 C   0  0  0  0  0  0  0  0  0  0  0  0
    5.2947   18.5080    6.9218 O   0  0  0  0  0  0  0  0  0  0  0  0
    2.1723   19.2057    7.4222 H   0  0  0  0  0  0  0  0  0  0  0  0
    2.9421   17.5730    8.5007 C   0  0  0  0  0  0  0  0  0  0  0  0
    2.1670   16.4118    7.8234 C   0  0  0  0  0  0  0  0  0  0  0  0
    1.8910   16.6619   10.5557 C   0  0  0  0  0  0  0  0  0  0  0  0
    2.1841   17.8910    9.7424 C   0  0  0  0  0  0  0  0  0  0  0  0
    2.7759   18.9862   10.5800 C   0  0  0  0  0  0  0  0  0  0  0  0
    3.6177   18.0296    1.9440 C   0  0  0  0  0  0  0  0  0  0  0  0
    2.4403   17.7636    1.1244 C   0  0  0  0  0  0  0  0  0  0  0  0
    2.1445   16.4552    0.7394 C   0  0  0  0  0  0  0  0  0  0  0  0
    1.0825   16.1446   -0.0684 C   0  0  0  0  0  0  0  0  0  0  0  0
    0.2641   17.1672   -0.5266 C   0  0  0  0  0  0  0  0  0  0  0  0
    0.5219   18.4551   -0.1704 C   0  0  0  0  0  0  0  0  0  0  0  0
    1.6075   18.7439    0.6509 C   0  0  0  0  0  0  0  0  0  0  0  0
    5.6430   20.4617   -2.0478 C   0  0  0  0  0  0  0  0  0  0  0  0
    4.5488   19.6557   -2.5160 C   0  0  0  0  0  0  0  0  0  0  0  0
    4.3811   18.3380   -2.1749 C   0  0  0  0  0  0  0  0  0  0  0  0
    3.3005   17.6245   -2.6378 C   0  0  0  0  0  0  0  0  0  0  0  0
    2.3406   18.1691   -3.4497 C   0  0  0  0  0  0  0  0  0  0  0  0
    2.4882   19.5143   -3.8133 C   0  0  0  0  0  0  0  0  0  0  0  0
    3.5703   20.2078   -3.3428 C   0  0  0  0  0  0  0  0  0  0  0  0
 68 69  1  0  0  0
 69 70  1  0  0  0
 69 66  1  0  0  0
 66 62  1  0  0  0
 62 63  1  0  0  0
 63 64  2  0  0  0
 63 60  1  0  0  0
 60 61  1  0  0  0
 60 56  1  0  0  0
 56 57  1  0  0  0
 57 58  2  0  0  0
 57 55  1  0  0  0
 55 71  1  0  0  0
 71 72  1  0  0  0
 72 73  2  0  0  0
 73 74  1  0  0  0
 74 75  2  0  0  0
 75 76  1  0  0  0
 76 77  2  0  0  0
 55 51  1  0  0  0
 51 52  1  0  0  0
 52 53  2  0  0  0
 52 50  1  0  0  0
 50 78  1  0  0  0
 78 79  1  0  0  0
 79 80  2  0  0  0
 80 81  1  0  0  0
 81 82  2  0  0  0
 82 83  1  0  0  0
 83 84  2  0  0  0
 50 46  1  0  0  0
 46 47  1  0  0  0
 47 48  2  0  0  0
 47 44  1  0  0  0
 44 45  1  0  0  0
 44  1  1  0  0  0
  1  2  1  0  0  0
  2  3  2  0  0  0
  2  5  1  0  0  0
  5  6  1  0  0  0
  5  7  1  0  0  0
  7  8  1  0  0  0
  8  9  2  0  0  0
  8 11  1  0  0  0
 11 12  1  0  0  0
 11 13  1  0  0  0
 13 14  1  0  0  0
 14 15  2  0  0  0
 14 17  1  0  0  0
 17 18  1  0  0  0
 17 19  1  0  0  0
 19 20  1  0  0  0
 20 21  2  0  0  0
 20 23  1  0  0  0
 23 24  1  0  0  0
 23 25  1  0  0  0
 25 26  1  0  0  0
 26 27  2  0  0  0
 26 29  1  0  0  0
 29 30  1  0  0  0
 29 31  1  0  0  0
 31 32  1  0  0  0
 32 33  2  0  0  0
 32 35  1  0  0  0
 35 36  1  0  0  0
 35 37  1  0  0  0
 37 38  1  0  0  0
 38 39  2  0  0  0
 38 41  1  0  0  0
 41 42  1  0  0  0
 41 43  1  0  0  0
 66 67  1  0  0  0
 77 72  1  0  0  0
 84 79  1  0  0  0
 62 65  1  0  0  0
 56 59  1  0  0  0
 51 54  1  0  0  0
 46 49  1  0  0  0
  1  4  1  0  0  0
  7 10  1  0  0  0
 13 16  1  0  0  0
 19 22  1  0  0  0
 25 28  1  0  0  0
 31 34  1  0  0  0
 37 40  1  0  0  0
M  END
> <minimizedAffinity>
-7.14442

> <CNNscore>
0.0612627901

> <CNNaffinity>
6.5516347885

> <CNN_VS>
0.4013714194

> <CNNaffinity_variance>
2.5554397106

$$$$
[H][C](N([H])C(=O)[C@@]([H])(N([H])C(=O)[C@@]([H])(N([H])C(=O)[C@@]([H])(N([H])C(=O)[C@@]([H])(N([H])C(=O)[C@@]([H])(N([H])C(=O)[C@@]([H])(N([H])C(=O)[C@@]([H])(N([H])C(=O)[C@@]([H])(N([H])C(=O)[C@]([H])(N([H])C(=O)[C@@]([H])(N([H])C(=O)C([H])(C([H])([H])[H])C([H])([H])[H])C([H])([H])[H])C([H])([H])[H])C([H])([H])[H])C([H])([H])[H])C([H])([H])[H])C([H])([H])[H])C([H])([H])c1c([H])c([H])c([H])c([H])c1[H])C([H])([H])[H])C([H])([H])c1c([H])c([H])c([H])c([H])c1[H])C([H])([H])[H])C([H])(C([H])([H])[H])C([H])([H])[H]


 83 84  0  0  0  0  0  0  0  0999 V2000
    8.2582   18.6809    6.4391 N   0  0  0  0  0  0  0  0  0  0  0  0
    9.4252   18.9754    5.7037 C   0  0  0  0  0  0  0  0  0  0  0  0
   10.0952   18.0235    5.2453 O   0  0  0  0  0  0  0  0  0  0  0  0
    7.6199   19.3854    6.8683 H   0  0  0  0  0  0  0  0  0  0  0  0
    9.8447   20.3560    5.4799 C   0  0  0  0  0  0  0  0  0  0  0  0
   11.2116   20.4102    4.8653 C   0  0  0  0  0  0  0  0  0  0  0  0
    9.6923   21.1986    6.6396 N   0  0  0  0  0  0  0  0  0  0  0  0
    9.0654   22.4516    6.6376 C   0  0  0  0  0  0  0  0  0  0  0  0
    8.6005   22.9024    5.5657 O   0  0  0  0  0  0  0  0  0  0  0  0
   10.0966   20.7988    7.5272 H   0  0  0  0  0  0  0  0  0  0  0  0
    8.9350   23.2438    7.8650 C   0  0  0  0  0  0  0  0  0  0  0  0
    9.7745   22.5902    9.0047 C   0  0  0  0  0  0  0  0  0  0  0  0
    7.5922   23.3241    8.3612 N   0  0  0  0  0  0  0  0  0  0  0  0
    6.7119   22.2302    8.4839 C   0  0  0  0  0  0  0  0  0  0  0  0
    6.9726   21.0537    8.1985 O   0  0  0  0  0  0  0  0  0  0  0  0
    7.2559   24.2669    8.6596 H   0  0  0  0  0  0  0  0  0  0  0  0
    5.2848   22.4615    8.9925 C   0  0  0  0  0  0  0  0  0  0  0  0
    4.3582   21.4396    8.5396 C   0  0  0  0  0  0  0  0  0  0  0  0
    4.9083   23.8079    8.4503 N   0  0  0  0  0  0  0  0  0  0  0  0
    4.9385   24.8672    9.3735 C   0  0  0  0  0  0  0  0  0  0  0  0
    5.2949   24.5540   10.5810 O   0  0  0  0  0  0  0  0  0  0  0  0
    4.6521   23.9227    7.4800 H   0  0  0  0  0  0  0  0  0  0  0  0
    4.6385   26.2875    9.2003 C   0  0  0  0  0  0  0  0  0  0  0  0
    3.5480   26.8485   10.0579 C   0  0  0  0  0  0  0  0  0  0  0  0
    4.4039   26.5488    7.7704 N   0  0  0  0  0  0  0  0  0  0  0  0
    3.3204   26.0644    7.0192 C   0  0  0  0  0  0  0  0  0  0  0  0
    2.4449   25.3265    7.5152 O   0  0  0  0  0  0  0  0  0  0  0  0
    5.1287   27.1570    7.2627 H   0  0  0  0  0  0  0  0  0  0  0  0
    3.3070   26.5137    5.5734 C   0  0  0  0  0  0  0  0  0  0  0  0
    1.9260   26.7737    5.0955 C   0  0  0  0  0  0  0  0  0  0  0  0
    4.3092   27.4432    5.2325 N   0  0  0  0  0  0  0  0  0  0  0  0
    4.5170   28.0253    3.9511 C   0  0  0  0  0  0  0  0  0  0  0  0
    3.8151   27.7550    2.9522 O   0  0  0  0  0  0  0  0  0  0  0  0
    4.9857   27.7642    5.9967 H   0  0  0  0  0  0  0  0  0  0  0  0
    5.6236   29.0139    3.7652 C   0  0  0  0  0  0  0  0  0  0  0  0
    5.7214   29.4097    2.2897 C   0  0  0  0  0  0  0  0  0  0  0  0
    6.8835   28.5314    4.2821 N   0  0  0  0  0  0  0  0  0  0  0  0
    7.5304   27.4254    3.6704 C   0  0  0  0  0  0  0  0  0  0  0  0
    6.9653   26.8845    2.6499 O   0  0  0  0  0  0  0  0  0  0  0  0
    7.3066   29.0106    5.1104 H   0  0  0  0  0  0  0  0  0  0  0  0
    8.8076   26.8763    4.1438 C   0  0  0  0  0  0  0  0  0  0  0  0
    9.1692   25.6651    3.3035 C   0  0  0  0  0  0  0  0  0  0  0  0
    8.5832   26.3440    5.5729 C   0  0  0  0  0  0  0  0  0  0  0  0
    7.8111   17.2664    6.6804 C   0  0  0  0  0  0  0  0  0  0  0  0
    6.0918   17.7850    4.7767 N   0  0  0  0  0  0  0  0  0  0  0  0
    6.9075   16.9362    5.5671 C   0  0  0  0  0  0  0  0  0  0  0  0
    6.8000   15.6839    5.2176 O   0  0  0  0  0  0  0  0  0  0  0  0
    6.0682   18.7912    4.9659 H   0  0  0  0  0  0  0  0  0  0  0  0
    5.2833   17.2282    3.7249 C   0  0  0  0  0  0  0  0  0  0  0  0
    3.8211   17.4377    4.2261 C   0  0  0  0  0  0  0  0  0  0  0  0
    5.0809   17.0170    1.2334 N   0  0  0  0  0  0  0  0  0  0  0  0
    5.4124   17.7767    2.3770 C   0  0  0  0  0  0  0  0  0  0  0  0
    5.8224   18.9448    2.2130 O   0  0  0  0  0  0  0  0  0  0  0  0
    4.7821   16.0165    1.4435 H   0  0  0  0  0  0  0  0  0  0  0  0
    5.0989   17.4030   -0.1488 C   0  0  0  0  0  0  0  0  0  0  0  0
    6.7034   19.3948   -0.5348 N   0  0  0  0  0  0  0  0  0  0  0  0
    6.4161   18.0145   -0.4026 C   0  0  0  0  0  0  0  0  0  0  0  0
    7.4000   17.2181   -0.5199 O   0  0  0  0  0  0  0  0  0  0  0  0
    5.9078   20.0743   -0.4363 H   0  0  0  0  0  0  0  0  0  0  0  0
    8.0746   19.8021   -0.7958 C   0  0  0  0  0  0  0  0  0  0  0  0
    8.2082   20.1935   -2.2876 C   0  0  0  0  0  0  0  0  0  0  0  0
    9.3112   21.9278   -0.5584 N   0  0  0  0  0  0  0  0  0  0  0  0
    8.5368   20.9141    0.0440 C   0  0  0  0  0  0  0  0  0  0  0  0
    8.2592   20.9676    1.2540 O   0  0  0  0  0  0  0  0  0  0  0  0
    9.5230   21.8435   -1.5855 H   0  0  0  0  0  0  0  0  0  0  0  0
    9.8590   23.0835    0.0924 C   0  0  0  0  0  0  0  0  0  0  0  0
   11.8544   22.1828   -1.1210 C   0  0  0  0  0  0  0  0  0  0  0  0
   11.3030   23.3258   -0.3111 C   0  0  0  0  0  0  0  0  0  0  0  0
   11.3713   24.6004   -1.1782 C   0  0  0  0  0  0  0  0  0  0  0  0
    4.0484   18.5316   -0.3645 C   0  0  0  0  0  0  0  0  0  0  0  0
    3.5843   18.5550   -1.7717 C   0  0  0  0  0  0  0  0  0  0  0  0
    3.0312   17.4342   -2.3788 C   0  0  0  0  0  0  0  0  0  0  0  0
    2.5840   17.4504   -3.6859 C   0  0  0  0  0  0  0  0  0  0  0  0
    2.6775   18.6184   -4.4509 C   0  0  0  0  0  0  0  0  0  0  0  0
    3.2221   19.7386   -3.8731 C   0  0  0  0  0  0  0  0  0  0  0  0
    3.6616   19.6803   -2.5482 C   0  0  0  0  0  0  0  0  0  0  0  0
    7.1285   17.3363    8.0230 C   0  0  0  0  0  0  0  0  0  0  0  0
    7.6682   16.4803    9.0738 C   0  0  0  0  0  0  0  0  0  0  0  0
    8.6187   16.8959    9.9796 C   0  0  0  0  0  0  0  0  0  0  0  0
    9.1397   16.0597   10.9465 C   0  0  0  0  0  0  0  0  0  0  0  0
    8.6972   14.7340   11.0240 C   0  0  0  0  0  0  0  0  0  0  0  0
    7.7465   14.3009   10.1267 C   0  0  0  0  0  0  0  0  0  0  0  0
    7.2399   15.1556    9.1706 C   0  0  0  0  0  0  0  0  0  0  0  0
 67 68  1  0  0  0
 68 69  1  0  0  0
 68 66  1  0  0  0
 66 62  1  0  0  0
 62 63  1  0  0  0
 63 64  2  0  0  0
 63 60  1  0  0  0
 60 61  1  0  0  0
 60 56  1  0  0  0
 56 57  1  0  0  0
 57 58  2  0  0  0
 57 55  1  0  0  0
 55 70  1  0  0  0
 70 71  1  0  0  0
 71 72  2  0  0  0
 72 73  1  0  0  0
 73 74  2  0  0  0
 74 75  1  0  0  0
 75 76  2  0  0  0
 55 51  1  0  0  0
 51 52  1  0  0  0
 52 53  2  0  0  0
 52 49  1  0  0  0
 49 50  1  0  0  0
 49 45  1  0  0  0
 45 46  1  0  0  0
 46 47  2  0  0  0
 46 44  1  0  0  0
 44 77  1  0  0  0
 77 78  1  0  0  0
 78 79  2  0  0  0
 79 80  1  0  0  0
 80 81  2  0  0  0
 81 82  1  0  0  0
 82 83  2  0  0  0
 44  1  1  0  0  0
  1  2  1  0  0  0
  2  3  2  0  0  0
  2  5  1  0  0  0
  5  6  1  0  0  0
  5  7  1  0  0  0
  7  8  1  0  0  0
  8  9  2  0  0  0
  8 11  1  0  0  0
 11 12  1  0  0  0
 11 13  1  0  0  0
 13 14  1  0  0  0
 14 15  2  0  0  0
 14 17  1  0  0  0
 17 18  1  0  0  0
 17 19  1  0  0  0
 19 20  1  0  0  0
 20 21  2  0  0  0
 20 23  1  0  0  0
 23 24  1  0  0  0
 23 25  1  0  0  0
 25 26  1  0  0  0
 26 27  2  0  0  0
 26 29  1  0  0  0
 29 30  1  0  0  0
 29 31  1  0  0  0
 31 32  1  0  0  0
 32 33  2  0  0  0
 32 35  1  0  0  0
 35 36  1  0  0  0
 35 37  1  0  0  0
 37 38  1  0  0  0
 38 39  2  0  0  0
 38 41  1  0  0  0
 41 42  1  0  0  0
 41 43  1  0  0  0
 76 71  1  0  0  0
 83 78  1  0  0  0
 62 65  1  0  0  0
 56 59  1  0  0  0
 51 54  1  0  0  0
 45 48  1  0  0  0
  1  4  1  0  0  0
  7 10  1  0  0  0
 13 16  1  0  0  0
 19 22  1  0  0  0
 25 28  1  0  0  0
 31 34  1  0  0  0
 37 40  1  0  0  0
M  END
> <minimizedAffinity>
-8.23905

> <CNNscore>
0.2249149978

> <CNNaffinity>
6.8465270996

> <CNN_VS>
1.5398865938

> <CNNaffinity_variance>
3.3944754601

$$$$
[H][C](N([H])C(=O)[C@@]([H])(N([H])C(=O)[C@@]([H])(N([H])C(=O)[C@@]([H])(N([H])C(=O)[C@@]([H])(N([H])C(=O)[C@@]([H])(N([H])C(=O)[C@@]([H])(N([H])C(=O)[C@@]([H])(N([H])C(=O)[C@@]([H])(N([H])C(=O)[C@]([H])(N([H])C(=O)[C@@]([H])(N([H])C(=O)C([H])(C([H])([H])[H])C([H])([H])[H])C([H])([H])[H])C([H])([H])[H])C([H])([H])[H])C([H])([H])[H])C([H])([H])[H])C([H])([H])[H])C([H])([H])c1c([H])c([H])c([H])c([H])c1[H])C([H])([H])[H])C([H])([H])c1c([H])c([H])c([H])c([H])c1[H])C([H])([H])[H])C([H])(C([H])([H])[H])C([H])([H])[H]


 83 84  0  0  0  0  0  0  0  0999 V2000
    4.2830   17.9009    2.2165 N   0  0  0  0  0  0  0  0  0  0  0  0
    4.7703   16.9272    3.1130 C   0  0  0  0  0  0  0  0  0  0  0  0
    5.3116   15.9026    2.6414 O   0  0  0  0  0  0  0  0  0  0  0  0
    3.8155   18.7929    2.4879 H   0  0  0  0  0  0  0  0  0  0  0  0
    4.6485   17.1064    4.5570 C   0  0  0  0  0  0  0  0  0  0  0  0
    3.6310   18.1583    4.8847 C   0  0  0  0  0  0  0  0  0  0  0  0
    5.9138   17.2909    5.2224 N   0  0  0  0  0  0  0  0  0  0  0  0
    6.5941   16.2926    5.9322 C   0  0  0  0  0  0  0  0  0  0  0  0
    6.0889   15.1500    6.0189 O   0  0  0  0  0  0  0  0  0  0  0  0
    6.3148   18.2622    5.1389 H   0  0  0  0  0  0  0  0  0  0  0  0
    7.8888   16.5544    6.5698 C   0  0  0  0  0  0  0  0  0  0  0  0
    7.8653   16.0367    8.0403 C   0  0  0  0  0  0  0  0  0  0  0  0
    8.2239   17.9463    6.6474 N   0  0  0  0  0  0  0  0  0  0  0  0
    9.3155   18.5499    5.9911 C   0  0  0  0  0  0  0  0  0  0  0  0
   10.1242   17.9755    5.2498 O   0  0  0  0  0  0  0  0  0  0  0  0
    7.6000   18.5493    7.2289 H   0  0  0  0  0  0  0  0  0  0  0  0
    9.5857   20.0451    6.1919 C   0  0  0  0  0  0  0  0  0  0  0  0
   10.7229   20.5153    5.4214 C   0  0  0  0  0  0  0  0  0  0  0  0
    9.8377   20.1851    7.6635 N   0  0  0  0  0  0  0  0  0  0  0  0
    8.9108   20.9718    8.3687 C   0  0  0  0  0  0  0  0  0  0  0  0
    7.9457   21.4760    7.6634 O   0  0  0  0  0  0  0  0  0  0  0  0
   10.6299   19.7344    8.0988 H   0  0  0  0  0  0  0  0  0  0  0  0
    8.8437   21.3188    9.7873 C   0  0  0  0  0  0  0  0  0  0  0  0
    7.7006   20.7421   10.5619 C   0  0  0  0  0  0  0  0  0  0  0  0
    8.9139   22.7838    9.9180 N   0  0  0  0  0  0  0  0  0  0  0  0
    7.9518   23.5946   10.5423 C   0  0  0  0  0  0  0  0  0  0  0  0
    6.9074   23.1248   11.0378 O   0  0  0  0  0  0  0  0  0  0  0  0
    9.7728   23.2685    9.4933 H   0  0  0  0  0  0  0  0  0  0  0  0
    8.2911   25.0700   10.5635 C   0  0  0  0  0  0  0  0  0  0  0  0
    9.7538   25.2951   10.4496 C   0  0  0  0  0  0  0  0  0  0  0  0
    7.4362   25.8856    9.7966 N   0  0  0  0  0  0  0  0  0  0  0  0
    7.2413   25.8123    8.3893 C   0  0  0  0  0  0  0  0  0  0  0  0
    7.8386   24.9952    7.6550 O   0  0  0  0  0  0  0  0  0  0  0  0
    6.8607   26.6337   10.3005 H   0  0  0  0  0  0  0  0  0  0  0  0
    6.2774   26.7482    7.7324 C   0  0  0  0  0  0  0  0  0  0  0  0
    5.9044   27.8718    8.7028 C   0  0  0  0  0  0  0  0  0  0  0  0
    5.1121   26.0654    7.2195 N   0  0  0  0  0  0  0  0  0  0  0  0
    4.3633   26.6313    6.1541 C   0  0  0  0  0  0  0  0  0  0  0  0
    4.7612   27.7521    5.6655 O   0  0  0  0  0  0  0  0  0  0  0  0
    4.8334   25.1515    7.6461 H   0  0  0  0  0  0  0  0  0  0  0  0
    3.1657   25.9988    5.5861 C   0  0  0  0  0  0  0  0  0  0  0  0
    1.9341   26.7393    6.0748 C   0  0  0  0  0  0  0  0  0  0  0  0
    3.0647   24.5794    6.1783 C   0  0  0  0  0  0  0  0  0  0  0  0
    4.3987   17.7336    0.7273 C   0  0  0  0  0  0  0  0  0  0  0  0
    5.9765   19.7551    0.2047 N   0  0  0  0  0  0  0  0  0  0  0  0
    5.6655   18.3792    0.3486 C   0  0  0  0  0  0  0  0  0  0  0  0
    6.6890   17.6128    0.0898 O   0  0  0  0  0  0  0  0  0  0  0  0
    5.2506   20.4612    0.3577 H   0  0  0  0  0  0  0  0  0  0  0  0
    7.3049   20.1550   -0.1763 C   0  0  0  0  0  0  0  0  0  0  0  0
    7.2298   20.2705   -1.7301 C   0  0  0  0  0  0  0  0  0  0  0  0
    9.1835   21.4852    0.8210 N   0  0  0  0  0  0  0  0  0  0  0  0
    7.8474   21.3957    0.3720 C   0  0  0  0  0  0  0  0  0  0  0  0
    7.1271   22.4128    0.4513 O   0  0  0  0  0  0  0  0  0  0  0  0
    9.7262   20.5704    0.7665 H   0  0  0  0  0  0  0  0  0  0  0  0
    9.8929   22.6207    1.3380 C   0  0  0  0  0  0  0  0  0  0  0  0
   11.9969   22.3519   -0.1425 N   0  0  0  0  0  0  0  0  0  0  0  0
   11.3266   22.3690    1.1049 C   0  0  0  0  0  0  0  0  0  0  0  0
   12.0381   22.1380    2.1327 O   0  0  0  0  0  0  0  0  0  0  0  0
   11.4318   22.5456   -1.0070 H   0  0  0  0  0  0  0  0  0  0  0  0
   13.4236   22.0721   -0.1662 C   0  0  0  0  0  0  0  0  0  0  0  0
   13.7288   21.1121   -1.3417 C   0  0  0  0  0  0  0  0  0  0  0  0
   14.6850   23.6667   -1.5696 N   0  0  0  0  0  0  0  0  0  0  0  0
   14.2646   23.2698   -0.2828 C   0  0  0  0  0  0  0  0  0  0  0  0
   14.6029   23.9209    0.7200 O   0  0  0  0  0  0  0  0  0  0  0  0
   14.3759   23.0871   -2.3913 H   0  0  0  0  0  0  0  0  0  0  0  0
   15.5119   24.7960   -1.8864 C   0  0  0  0  0  0  0  0  0  0  0  0
   15.3881   24.4854   -4.3670 C   0  0  0  0  0  0  0  0  0  0  0  0
   15.1272   25.4205   -3.2164 C   0  0  0  0  0  0  0  0  0  0  0  0
   13.6183   25.7433   -3.1978 C   0  0  0  0  0  0  0  0  0  0  0  0
    9.7061   22.6635    2.8830 C   0  0  0  0  0  0  0  0  0  0  0  0
    8.9350   23.8631    3.2858 C   0  0  0  0  0  0  0  0  0  0  0  0
    9.4678   25.1427    3.1882 C   0  0  0  0  0  0  0  0  0  0  0  0
    8.7518   26.2677    3.5490 C   0  0  0  0  0  0  0  0  0  0  0  0
    7.4443   26.1487    4.0332 C   0  0  0  0  0  0  0  0  0  0  0  0
    6.8966   24.8941    4.1401 C   0  0  0  0  0  0  0  0  0  0  0  0
    7.6542   23.7823    3.7637 C   0  0  0  0  0  0  0  0  0  0  0  0
    3.1726   18.4330    0.1974 C   0  0  0  0  0  0  0  0  0  0  0  0
    3.0345   18.4966   -1.2535 C   0  0  0  0  0  0  0  0  0  0  0  0
    2.9675   19.6769   -1.9599 C   0  0  0  0  0  0  0  0  0  0  0  0
    2.8046   19.7149   -3.3301 C   0  0  0  0  0  0  0  0  0  0  0  0
    2.7006   18.5167   -4.0463 C   0  0  0  0  0  0  0  0  0  0  0  0
    2.7661   17.3265   -3.3568 C   0  0  0  0  0  0  0  0  0  0  0  0
    2.9308   17.3143   -1.9877 C   0  0  0  0  0  0  0  0  0  0  0  0
 67 68  1  0  0  0
 68 69  1  0  0  0
 68 66  1  0  0  0
 66 62  1  0  0  0
 62 63  1  0  0  0
 63 64  2  0  0  0
 63 60  1  0  0  0
 60 61  1  0  0  0
 60 56  1  0  0  0
 56 57  1  0  0  0
 57 58  2  0  0  0
 57 55  1  0  0  0
 55 70  1  0  0  0
 70 71  1  0  0  0
 71 72  2  0  0  0
 72 73  1  0  0  0
 73 74  2  0  0  0
 74 75  1  0  0  0
 75 76  2  0  0  0
 55 51  1  0  0  0
 51 52  1  0  0  0
 52 53  2  0  0  0
 52 49  1  0  0  0
 49 50  1  0  0  0
 49 45  1  0  0  0
 45 46  1  0  0  0
 46 47  2  0  0  0
 46 44  1  0  0  0
 44 77  1  0  0  0
 77 78  1  0  0  0
 78 79  2  0  0  0
 79 80  1  0  0  0
 80 81  2  0  0  0
 81 82  1  0  0  0
 82 83  2  0  0  0
 44  1  1  0  0  0
  1  2  1  0  0  0
  2  3  2  0  0  0
  2  5  1  0  0  0
  5  6  1  0  0  0
  5  7  1  0  0  0
  7  8  1  0  0  0
  8  9  2  0  0  0
  8 11  1  0  0  0
 11 12  1  0  0  0
 11 13  1  0  0  0
 13 14  1  0  0  0
 14 15  2  0  0  0
 14 17  1  0  0  0
 17 18  1  0  0  0
 17 19  1  0  0  0
 19 20  1  0  0  0
 20 21  2  0  0  0
 20 23  1  0  0  0
 23 24  1  0  0  0
 23 25  1  0  0  0
 25 26  1  0  0  0
 26 27  2  0  0  0
 26 29  1  0  0  0
 29 30  1  0  0  0
 29 31  1  0  0  0
 31 32  1  0  0  0
 32 33  2  0  0  0
 32 35  1  0  0  0
 35 36  1  0  0  0
 35 37  1  0  0  0
 37 38  1  0  0  0
 38 39  2  0  0  0
 38 41  1  0  0  0
 41 42  1  0  0  0
 41 43  1  0  0  0
 76 71  1  0  0  0
 83 78  1  0  0  0
 62 65  1  0  0  0
 56 59  1  0  0  0
 51 54  1  0  0  0
 45 48  1  0  0  0
  1  4  1  0  0  0
  7 10  1  0  0  0
 13 16  1  0  0  0
 19 22  1  0  0  0
 25 28  1  0  0  0
 31 34  1  0  0  0
 37 40  1  0  0  0
M  END
> <minimizedAffinity>
-8.64073

> <CNNscore>
0.1011092067

> <CNNaffinity>
7.6365623474

> <CNN_VS>
0.7721267343

> <CNNaffinity_variance>
1.6130373478

$$$$
[H][C](N([H])C(=O)[C@@]([H])(N([H])C(=O)[C@@]([H])(N([H])C(=O)[C@@]([H])(N([H])C(=O)[C@@]([H])(N([H])C(=O)[C@@]([H])(N([H])C(=O)[C@@]([H])(N([H])C(=O)[C@@]([H])(N([H])C(=O)[C@@]([H])(N([H])C(=O)[C@]([H])(N([H])C(=O)[C@@]([H])(N([H])C(=O)C([H])(C([H])([H])[H])C([H])([H])[H])C([H])([H])[H])C([H])([H])[H])C([H])([H])[H])C([H])([H])[H])C([H])([H])[H])C([H])([H])[H])C([H])([H])c1c([H])c([H])c([H])c([H])c1[H])C([H])([H])[H])C([H])([H])c1c([H])c([H])c([H])c([H])c1[H])C([H])([H])[H])C([H])(C([H])([H])[H])C([H])([H])[H]


 83 84  0  0  0  0  0  0  0  0999 V2000
   10.0386   22.8977    0.4781 N   0  0  0  0  0  0  0  0  0  0  0  0
   10.0072   21.4914    0.3737 C   0  0  0  0  0  0  0  0  0  0  0  0
   10.5041   20.8151    1.3014 O   0  0  0  0  0  0  0  0  0  0  0  0
    9.6575   23.5652   -0.2270 H   0  0  0  0  0  0  0  0  0  0  0  0
    9.4098   20.8367   -0.7868 C   0  0  0  0  0  0  0  0  0  0  0  0
   10.1598   21.1749   -2.0407 C   0  0  0  0  0  0  0  0  0  0  0  0
    7.9853   21.0327   -0.8878 N   0  0  0  0  0  0  0  0  0  0  0  0
    7.0279   20.0239   -0.7177 C   0  0  0  0  0  0  0  0  0  0  0  0
    7.4058   18.8567   -0.4663 O   0  0  0  0  0  0  0  0  0  0  0  0
    7.6939   22.0221   -1.1052 H   0  0  0  0  0  0  0  0  0  0  0  0
    5.5923   20.3064   -0.8203 C   0  0  0  0  0  0  0  0  0  0  0  0
    4.9754   20.4215    0.6069 C   0  0  0  0  0  0  0  0  0  0  0  0
    4.8478   19.2802   -1.4898 N   0  0  0  0  0  0  0  0  0  0  0  0
    3.7935   19.5110   -2.3964 C   0  0  0  0  0  0  0  0  0  0  0  0
    3.3728   20.6199   -2.7528 O   0  0  0  0  0  0  0  0  0  0  0  0
    5.1224   18.2924   -1.2900 H   0  0  0  0  0  0  0  0  0  0  0  0
    3.0518   18.3198   -3.0128 C   0  0  0  0  0  0  0  0  0  0  0  0
    2.5302   18.6110   -4.3360 C   0  0  0  0  0  0  0  0  0  0  0  0
    1.9409   18.0311   -2.0478 N   0  0  0  0  0  0  0  0  0  0  0  0
    2.2147   17.0512   -1.0782 C   0  0  0  0  0  0  0  0  0  0  0  0
    3.3970   16.5198   -1.1305 O   0  0  0  0  0  0  0  0  0  0  0  0
    1.0601   18.5215   -2.1099 H   0  0  0  0  0  0  0  0  0  0  0  0
    1.3823   16.5247    0.0022 C   0  0  0  0  0  0  0  0  0  0  0  0
   -0.0976   16.6739   -0.1624 C   0  0  0  0  0  0  0  0  0  0  0  0
    1.8539   17.0886    1.2781 N   0  0  0  0  0  0  0  0  0  0  0  0
    2.3973   16.3531    2.3443 C   0  0  0  0  0  0  0  0  0  0  0  0
    2.5096   15.1110    2.3056 O   0  0  0  0  0  0  0  0  0  0  0  0
    1.7675   18.1519    1.4004 H   0  0  0  0  0  0  0  0  0  0  0  0
    2.8320   17.1905    3.5284 C   0  0  0  0  0  0  0  0  0  0  0  0
    1.7195   17.3961    4.4892 C   0  0  0  0  0  0  0  0  0  0  0  0
    4.1013   16.8684    4.0476 N   0  0  0  0  0  0  0  0  0  0  0  0
    5.0451   17.7832    4.5922 C   0  0  0  0  0  0  0  0  0  0  0  0
    4.8467   19.0159    4.6592 O   0  0  0  0  0  0  0  0  0  0  0  0
    4.4032   15.8420    4.0517 H   0  0  0  0  0  0  0  0  0  0  0  0
    6.3465   17.2678    5.1188 C   0  0  0  0  0  0  0  0  0  0  0  0
    6.3605   15.7384    5.0568 C   0  0  0  0  0  0  0  0  0  0  0  0
    6.6351   17.7596    6.4462 N   0  0  0  0  0  0  0  0  0  0  0  0
    7.8647   18.4173    6.7131 C   0  0  0  0  0  0  0  0  0  0  0  0
    8.6941   18.5640    5.7415 O   0  0  0  0  0  0  0  0  0  0  0  0
    5.9242   17.6223    7.2015 H   0  0  0  0  0  0  0  0  0  0  0  0
    8.2296   18.9372    8.0374 C   0  0  0  0  0  0  0  0  0  0  0  0
    9.3192   19.9818    7.8777 C   0  0  0  0  0  0  0  0  0  0  0  0
    8.8695   17.7807    8.8303 C   0  0  0  0  0  0  0  0  0  0  0  0
   10.6497   23.5894    1.6643 C   0  0  0  0  0  0  0  0  0  0  0  0
    9.5599   23.8464    4.0297 N   0  0  0  0  0  0  0  0  0  0  0  0
    9.5462   23.8096    2.6123 C   0  0  0  0  0  0  0  0  0  0  0  0
    8.3508   24.0000    2.1258 O   0  0  0  0  0  0  0  0  0  0  0  0
   10.4358   23.6876    4.5361 H   0  0  0  0  0  0  0  0  0  0  0  0
    8.3398   24.0854    4.7537 C   0  0  0  0  0  0  0  0  0  0  0  0
    8.4834   23.2020    6.0312 C   0  0  0  0  0  0  0  0  0  0  0  0
    6.7416   25.7991    5.6492 N   0  0  0  0  0  0  0  0  0  0  0  0
    8.0168   25.4540    5.1497 C   0  0  0  0  0  0  0  0  0  0  0  0
    8.8778   26.3534    5.0532 O   0  0  0  0  0  0  0  0  0  0  0  0
    6.0437   24.9947    5.6621 H   0  0  0  0  0  0  0  0  0  0  0  0
    6.2665   27.0666    6.1262 C   0  0  0  0  0  0  0  0  0  0  0  0
    6.3255   25.8092    8.3859 N   0  0  0  0  0  0  0  0  0  0  0  0
    5.9462   26.8909    7.5544 C   0  0  0  0  0  0  0  0  0  0  0  0
    5.2512   27.8059    8.0983 O   0  0  0  0  0  0  0  0  0  0  0  0
    6.9054   25.0425    7.9613 H   0  0  0  0  0  0  0  0  0  0  0  0
    5.8999   25.8129    9.7763 C   0  0  0  0  0  0  0  0  0  0  0  0
    5.1016   24.5176   10.0617 C   0  0  0  0  0  0  0  0  0  0  0  0
    8.1405   25.1149   10.5485 N   0  0  0  0  0  0  0  0  0  0  0  0
    7.0035   25.9282   10.7376 C   0  0  0  0  0  0  0  0  0  0  0  0
    6.9447   26.7171   11.6959 O   0  0  0  0  0  0  0  0  0  0  0  0
    8.1490   24.4609    9.7244 H   0  0  0  0  0  0  0  0  0  0  0  0
    9.3100   25.0766   11.3793 C   0  0  0  0  0  0  0  0  0  0  0  0
   10.0100   23.1786    9.9053 C   0  0  0  0  0  0  0  0  0  0  0  0
   10.0095   23.7305   11.3059 C   0  0  0  0  0  0  0  0  0  0  0  0
   11.4771   23.9064   11.7490 C   0  0  0  0  0  0  0  0  0  0  0  0
    4.9195   27.3927    5.4169 C   0  0  0  0  0  0  0  0  0  0  0  0
    5.1541   28.1610    4.1717 C   0  0  0  0  0  0  0  0  0  0  0  0
    4.2086   28.2135    3.1548 C   0  0  0  0  0  0  0  0  0  0  0  0
    4.4133   28.9377    1.9962 C   0  0  0  0  0  0  0  0  0  0  0  0
    5.6018   29.6523    1.8095 C   0  0  0  0  0  0  0  0  0  0  0  0
    6.5519   29.6143    2.8000 C   0  0  0  0  0  0  0  0  0  0  0  0
    6.3054   28.8706    3.9566 C   0  0  0  0  0  0  0  0  0  0  0  0
   11.2168   24.8582    1.0794 C   0  0  0  0  0  0  0  0  0  0  0  0
   12.2264   24.7014    0.0381 C   0  0  0  0  0  0  0  0  0  0  0  0
   12.1210   25.2649   -1.2141 C   0  0  0  0  0  0  0  0  0  0  0  0
   13.0730   25.0775   -2.1959 C   0  0  0  0  0  0  0  0  0  0  0  0
   14.1958   24.2862   -1.9268 C   0  0  0  0  0  0  0  0  0  0  0  0
   14.3184   23.7150   -0.6798 C   0  0  0  0  0  0  0  0  0  0  0  0
   13.3547   23.9181    0.2854 C   0  0  0  0  0  0  0  0  0  0  0  0
 67 68  1  0  0  0
 68 69  1  0  0  0
 68 66  1  0  0  0
 66 62  1  0  0  0
 62 63  1  0  0  0
 63 64  2  0  0  0
 63 60  1  0  0  0
 60 61  1  0  0  0
 60 56  1  0  0  0
 56 57  1  0  0  0
 57 58  2  0  0  0
 57 55  1  0  0  0
 55 70  1  0  0  0
 70 71  1  0  0  0
 71 72  2  0  0  0
 72 73  1  0  0  0
 73 74  2  0  0  0
 74 75  1  0  0  0
 75 76  2  0  0  0
 55 51  1  0  0  0
 51 52  1  0  0  0
 52 53  2  0  0  0
 52 49  1  0  0  0
 49 50  1  0  0  0
 49 45  1  0  0  0
 45 46  1  0  0  0
 46 47  2  0  0  0
 46 44  1  0  0  0
 44 77  1  0  0  0
 77 78  1  0  0  0
 78 79  2  0  0  0
 79 80  1  0  0  0
 80 81  2  0  0  0
 81 82  1  0  0  0
 82 83  2  0  0  0
 44  1  1  0  0  0
  1  2  1  0  0  0
  2  3  2  0  0  0
  2  5  1  0  0  0
  5  6  1  0  0  0
  5  7  1  0  0  0
  7  8  1  0  0  0
  8  9  2  0  0  0
  8 11  1  0  0  0
 11 12  1  0  0  0
 11 13  1  0  0  0
 13 14  1  0  0  0
 14 15  2  0  0  0
 14 17  1  0  0  0
 17 18  1  0  0  0
 17 19  1  0  0  0
 19 20  1  0  0  0
 20 21  2  0  0  0
 20 23  1  0  0  0
 23 24  1  0  0  0
 23 25  1  0  0  0
 25 26  1  0  0  0
 26 27  2  0  0  0
 26 29  1  0  0  0
 29 30  1  0  0  0
 29 31  1  0  0  0
 31 32  1  0  0  0
 32 33  2  0  0  0
 32 35  1  0  0  0
 35 36  1  0  0  0
 35 37  1  0  0  0
 37 38  1  0  0  0
 38 39  2  0  0  0
 38 41  1  0  0  0
 41 42  1  0  0  0
 41 43  1  0  0  0
 76 71  1  0  0  0
 83 78  1  0  0  0
 62 65  1  0  0  0
 56 59  1  0  0  0
 51 54  1  0  0  0
 45 48  1  0  0  0
  1  4  1  0  0  0
  7 10  1  0  0  0
 13 16  1  0  0  0
 19 22  1  0  0  0
 25 28  1  0  0  0
 31 34  1  0  0  0
 37 40  1  0  0  0
M  END
> <minimizedAffinity>
-8.43142

> <CNNscore>
0.0918957591

> <CNNaffinity>
7.2358994484

> <CNN_VS>
0.6649484634

> <CNNaffinity_variance>
1.7950741053

$$$$
[H][C](N([H])C(=O)[C@@]([H])(N([H])C(=O)[C@@]([H])(N([H])C(=O)[C@@]([H])(N([H])C(=O)[C@@]([H])(N([H])C(=O)[C@@]([H])(N([H])C(=O)[C@@]([H])(N([H])C(=O)[C@@]([H])(N([H])C(=O)[C@@]([H])(N([H])C(=O)[C@]([H])(N([H])C(=O)[C@@]([H])(N([H])C(=O)C([H])(C([H])([H])[H])C([H])([H])[H])C([H])([H])[H])C([H])([H])[H])C([H])([H])[H])C([H])([H])[H])C([H])([H])[H])C([H])([H])[H])C([H])([H])c1c([H])c([H])c([H])c([H])c1[H])C([H])([H])[H])C([H])([H])c1c([H])c([H])c([H])c([H])c1[H])C([H])([H])[H])C([H])(C([H])([H])[H])C([H])([H])[H]


 83 84  0  0  0  0  0  0  0  0999 V2000
    9.8703   22.7803    0.6093 N   0  0  0  0  0  0  0  0  0  0  0  0
    9.8844   21.3786    0.4531 C   0  0  0  0  0  0  0  0  0  0  0  0
   10.4973   20.6921    1.3006 O   0  0  0  0  0  0  0  0  0  0  0  0
    9.3949   23.4551   -0.0284 H   0  0  0  0  0  0  0  0  0  0  0  0
    9.2015   20.7399   -0.6685 C   0  0  0  0  0  0  0  0  0  0  0  0
    9.9136   21.0152   -1.9593 C   0  0  0  0  0  0  0  0  0  0  0  0
    7.7870   21.0141   -0.7121 N   0  0  0  0  0  0  0  0  0  0  0  0
    6.8205   20.1374   -1.2223 C   0  0  0  0  0  0  0  0  0  0  0  0
    7.1808   19.0319   -1.6875 O   0  0  0  0  0  0  0  0  0  0  0  0
    7.5108   21.9527   -0.3197 H   0  0  0  0  0  0  0  0  0  0  0  0
    5.3951   20.4828   -1.2168 C   0  0  0  0  0  0  0  0  0  0  0  0
    4.8825   20.5781    0.2525 C   0  0  0  0  0  0  0  0  0  0  0  0
    4.5623   19.5106   -1.8624 N   0  0  0  0  0  0  0  0  0  0  0  0
    3.5592   19.8088   -2.8068 C   0  0  0  0  0  0  0  0  0  0  0  0
    3.2659   20.9382   -3.2214 O   0  0  0  0  0  0  0  0  0  0  0  0
    4.7267   18.5096   -1.6134 H   0  0  0  0  0  0  0  0  0  0  0  0
    2.7107   18.6746   -3.3923 C   0  0  0  0  0  0  0  0  0  0  0  0
    2.1789   18.9956   -4.7045 C   0  0  0  0  0  0  0  0  0  0  0  0
    1.6064   18.4815   -2.3963 N   0  0  0  0  0  0  0  0  0  0  0  0
    1.4476   17.1733   -1.9079 C   0  0  0  0  0  0  0  0  0  0  0  0
    2.2794   16.2924   -2.3719 O   0  0  0  0  0  0  0  0  0  0  0  0
    1.0256   19.2567   -2.1098 H   0  0  0  0  0  0  0  0  0  0  0  0
    0.4931   16.6280   -0.9442 C   0  0  0  0  0  0  0  0  0  0  0  0
   -0.9297   17.0672   -1.0928 C   0  0  0  0  0  0  0  0  0  0  0  0
    1.0049   16.8705    0.4150 N   0  0  0  0  0  0  0  0  0  0  0  0
    1.0453   18.1167    1.0617 C   0  0  0  0  0  0  0  0  0  0  0  0
    0.6558   19.1652    0.5088 O   0  0  0  0  0  0  0  0  0  0  0  0
    1.3833   16.0200    0.9502 H   0  0  0  0  0  0  0  0  0  0  0  0
    1.5933   18.0753    2.4725 C   0  0  0  0  0  0  0  0  0  0  0  0
    0.5672   17.6195    3.4433 C   0  0  0  0  0  0  0  0  0  0  0  0
    2.8929   17.5443    2.5880 N   0  0  0  0  0  0  0  0  0  0  0  0
    4.0418   18.2282    3.0744 C   0  0  0  0  0  0  0  0  0  0  0  0
    4.0224   19.4197    3.4533 O   0  0  0  0  0  0  0  0  0  0  0  0
    3.0543   16.5276    2.2962 H   0  0  0  0  0  0  0  0  0  0  0  0
    5.3493   17.5060    3.1471 C   0  0  0  0  0  0  0  0  0  0  0  0
    5.3827   16.3896    2.1002 C   0  0  0  0  0  0  0  0  0  0  0  0
    5.6309   17.0126    4.4754 N   0  0  0  0  0  0  0  0  0  0  0  0
    6.5911   17.6662    5.2919 C   0  0  0  0  0  0  0  0  0  0  0  0
    7.1840   18.7025    4.8147 O   0  0  0  0  0  0  0  0  0  0  0  0
    5.1162   16.1698    4.8211 H   0  0  0  0  0  0  0  0  0  0  0  0
    6.9340   17.2186    6.6481 C   0  0  0  0  0  0  0  0  0  0  0  0
    6.4833   15.7800    6.8249 C   0  0  0  0  0  0  0  0  0  0  0  0
    6.0914   18.0471    7.6377 C   0  0  0  0  0  0  0  0  0  0  0  0
   10.5679   23.4555    1.7565 C   0  0  0  0  0  0  0  0  0  0  0  0
    9.6809   23.6096    4.2138 N   0  0  0  0  0  0  0  0  0  0  0  0
    9.5470   23.6259    2.8023 C   0  0  0  0  0  0  0  0  0  0  0  0
    8.3128   23.8191    2.4264 O   0  0  0  0  0  0  0  0  0  0  0  0
   10.5982   23.4431    4.6377 H   0  0  0  0  0  0  0  0  0  0  0  0
    8.5246   23.8056    5.0471 C   0  0  0  0  0  0  0  0  0  0  0  0
    8.9240   23.1458    6.4029 C   0  0  0  0  0  0  0  0  0  0  0  0
    6.6977   25.4602    5.5143 N   0  0  0  0  0  0  0  0  0  0  0  0
    8.0622   25.1692    5.2943 C   0  0  0  0  0  0  0  0  0  0  0  0
    8.8796   26.1130    5.3172 O   0  0  0  0  0  0  0  0  0  0  0  0
    6.0518   24.6170    5.4360 H   0  0  0  0  0  0  0  0  0  0  0  0
    6.0754   26.7176    5.8166 C   0  0  0  0  0  0  0  0  0  0  0  0
    4.8982   27.6260    7.9331 N   0  0  0  0  0  0  0  0  0  0  0  0
    5.5343   26.6069    7.1835 C   0  0  0  0  0  0  0  0  0  0  0  0
    5.6549   25.4769    7.7532 O   0  0  0  0  0  0  0  0  0  0  0  0
    4.7812   28.5680    7.4822 H   0  0  0  0  0  0  0  0  0  0  0  0
    4.4391   27.3216    9.2788 C   0  0  0  0  0  0  0  0  0  0  0  0
    5.0281   28.3644   10.2596 C   0  0  0  0  0  0  0  0  0  0  0  0
    2.3214   28.4735    9.8195 N   0  0  0  0  0  0  0  0  0  0  0  0
    2.9779   27.2912    9.4180 C   0  0  0  0  0  0  0  0  0  0  0  0
    2.3295   26.2555    9.1919 O   0  0  0  0  0  0  0  0  0  0  0  0
    2.9083   29.3277   10.0006 H   0  0  0  0  0  0  0  0  0  0  0  0
    0.9101   28.6403   10.0184 C   0  0  0  0  0  0  0  0  0  0  0  0
   -1.1095   28.2382    8.5954 C   0  0  0  0  0  0  0  0  0  0  0  0
    0.1946   28.9796    8.7223 C   0  0  0  0  0  0  0  0  0  0  0  0
   -0.1134   30.4916    8.7039 C   0  0  0  0  0  0  0  0  0  0  0  0
    4.8471   26.9038    4.8782 C   0  0  0  0  0  0  0  0  0  0  0  0
    5.1119   27.9563    3.8692 C   0  0  0  0  0  0  0  0  0  0  0  0
    6.3750   28.5116    3.7048 C   0  0  0  0  0  0  0  0  0  0  0  0
    6.6341   29.4839    2.7581 C   0  0  0  0  0  0  0  0  0  0  0  0
    5.6121   29.9468    1.9218 C   0  0  0  0  0  0  0  0  0  0  0  0
    4.3549   29.4140    2.0665 C   0  0  0  0  0  0  0  0  0  0  0  0
    4.1352   28.4320    3.0355 C   0  0  0  0  0  0  0  0  0  0  0  0
   11.0552   24.7516    1.1597 C   0  0  0  0  0  0  0  0  0  0  0  0
   12.1163   24.6521    0.1635 C   0  0  0  0  0  0  0  0  0  0  0  0
   13.3482   24.0916    0.4183 C   0  0  0  0  0  0  0  0  0  0  0  0
   14.3500   24.0363   -0.5297 C   0  0  0  0  0  0  0  0  0  0  0  0
   14.1234   24.5665   -1.8052 C   0  0  0  0  0  0  0  0  0  0  0  0
   12.8972   25.1306   -2.0784 C   0  0  0  0  0  0  0  0  0  0  0  0
   11.9114   25.1727   -1.1151 C   0  0  0  0  0  0  0  0  0  0  0  0
 67 68  1  0  0  0
 68 69  1  0  0  0
 68 66  1  0  0  0
 66 62  1  0  0  0
 62 63  1  0  0  0
 63 64  2  0  0  0
 63 60  1  0  0  0
 60 61  1  0  0  0
 60 56  1  0  0  0
 56 57  1  0  0  0
 57 58  2  0  0  0
 57 55  1  0  0  0
 55 70  1  0  0  0
 70 71  1  0  0  0
 71 72  2  0  0  0
 72 73  1  0  0  0
 73 74  2  0  0  0
 74 75  1  0  0  0
 75 76  2  0  0  0
 55 51  1  0  0  0
 51 52  1  0  0  0
 52 53  2  0  0  0
 52 49  1  0  0  0
 49 50  1  0  0  0
 49 45  1  0  0  0
 45 46  1  0  0  0
 46 47  2  0  0  0
 46 44  1  0  0  0
 44 77  1  0  0  0
 77 78  1  0  0  0
 78 79  2  0  0  0
 79 80  1  0  0  0
 80 81  2  0  0  0
 81 82  1  0  0  0
 82 83  2  0  0  0
 44  1  1  0  0  0
  1  2  1  0  0  0
  2  3  2  0  0  0
  2  5  1  0  0  0
  5  6  1  0  0  0
  5  7  1  0  0  0
  7  8  1  0  0  0
  8  9  2  0  0  0
  8 11  1  0  0  0
 11 12  1  0  0  0
 11 13  1  0  0  0
 13 14  1  0  0  0
 14 15  2  0  0  0
 14 17  1  0  0  0
 17 18  1  0  0  0
 17 19  1  0  0  0
 19 20  1  0  0  0
 20 21  2  0  0  0
 20 23  1  0  0  0
 23 24  1  0  0  0
 23 25  1  0  0  0
 25 26  1  0  0  0
 26 27  2  0  0  0
 26 29  1  0  0  0
 29 30  1  0  0  0
 29 31  1  0  0  0
 31 32  1  0  0  0
 32 33  2  0  0  0
 32 35  1  0  0  0
 35 36  1  0  0  0
 35 37  1  0  0  0
 37 38  1  0  0  0
 38 39  2  0  0  0
 38 41  1  0  0  0
 41 42  1  0  0  0
 41 43  1  0  0  0
 76 71  1  0  0  0
 83 78  1  0  0  0
 62 65  1  0  0  0
 56 59  1  0  0  0
 51 54  1  0  0  0
 45 48  1  0  0  0
  1  4  1  0  0  0
  7 10  1  0  0  0
 13 16  1  0  0  0
 19 22  1  0  0  0
 25 28  1  0  0  0
 31 34  1  0  0  0
 37 40  1  0  0  0
M  END
> <minimizedAffinity>
-7.99129

> <CNNscore>
0.0873459727

> <CNNaffinity>
7.0798277855

> <CNN_VS>
0.6183944345

> <CNNaffinity_variance>
1.0513417721

$$$$
[H][C](N([H])C(=O)[C@@]([H])(N([H])C(=O)[C@@]([H])(N([H])C(=O)[C@@]([H])(N([H])C(=O)[C@@]([H])(N([H])C(=O)[C@@]([H])(N([H])C(=O)[C@@]([H])(N([H])C(=O)[C@@]([H])(N([H])C(=O)[C@@]([H])(N([H])C(=O)[C@]([H])(N([H])C(=O)[C@@]([H])(N([H])C(=O)C([H])(C([H])([H])[H])C([H])([H])[H])C([H])([H])[H])C([H])([H])[H])C([H])([H])[H])C([H])([H])[H])C([H])([H])[H])C([H])([H])[H])C([H])([H])c1c([H])c([H])c([H])c([H])c1[H])C([H])([H])[H])C([H])([H])c1c([H])c([H])c([H])c([H])c1[H])C([H])([H])[H])C([H])(C([H])([H])[H])C([H])([H])[H]


 83 84  0  0  0  0  0  0  0  0999 V2000
   10.1283   22.7747    0.3346 N   0  0  0  0  0  0  0  0  0  0  0  0
    9.9311   21.3782    0.3205 C   0  0  0  0  0  0  0  0  0  0  0  0
   10.2966   20.7160    1.3171 O   0  0  0  0  0  0  0  0  0  0  0  0
    9.8657   23.4303   -0.4330 H   0  0  0  0  0  0  0  0  0  0  0  0
    9.3154   20.7171   -0.8267 C   0  0  0  0  0  0  0  0  0  0  0  0
   10.0088   21.0953   -2.1016 C   0  0  0  0  0  0  0  0  0  0  0  0
    7.8824   20.8658   -0.8754 N   0  0  0  0  0  0  0  0  0  0  0  0
    7.0006   19.9190   -1.4131 C   0  0  0  0  0  0  0  0  0  0  0  0
    7.4604   18.8610   -1.9005 O   0  0  0  0  0  0  0  0  0  0  0  0
    7.5216   21.7667   -0.4638 H   0  0  0  0  0  0  0  0  0  0  0  0
    5.5501   20.1365   -1.4111 C   0  0  0  0  0  0  0  0  0  0  0  0
    5.2097   21.4061   -0.5727 C   0  0  0  0  0  0  0  0  0  0  0  0
    4.8055   19.0630   -0.8205 N   0  0  0  0  0  0  0  0  0  0  0  0
    3.9255   18.2126   -1.5199 C   0  0  0  0  0  0  0  0  0  0  0  0
    3.6825   18.2595   -2.7333 O   0  0  0  0  0  0  0  0  0  0  0  0
    4.9407   18.9031    0.2028 H   0  0  0  0  0  0  0  0  0  0  0  0
    3.1584   17.1264   -0.7578 C   0  0  0  0  0  0  0  0  0  0  0  0
    1.9221   16.7483   -1.4185 C   0  0  0  0  0  0  0  0  0  0  0  0
    2.8865   17.7339    0.5861 N   0  0  0  0  0  0  0  0  0  0  0  0
    3.3799   17.0176    1.6901 C   0  0  0  0  0  0  0  0  0  0  0  0
    4.0167   15.9216    1.4134 O   0  0  0  0  0  0  0  0  0  0  0  0
    2.3786   18.6030    0.6687 H   0  0  0  0  0  0  0  0  0  0  0  0
    3.3028   17.3057    3.1213 C   0  0  0  0  0  0  0  0  0  0  0  0
    2.0386   17.9430    3.6064 C   0  0  0  0  0  0  0  0  0  0  0  0
    4.4938   18.0787    3.5113 N   0  0  0  0  0  0  0  0  0  0  0  0
    4.7948   19.3836    3.0878 C   0  0  0  0  0  0  0  0  0  0  0  0
    4.0606   20.0119    2.2984 O   0  0  0  0  0  0  0  0  0  0  0  0
    5.1906   17.5968    4.1711 H   0  0  0  0  0  0  0  0  0  0  0  0
    6.0711   19.9544    3.6687 C   0  0  0  0  0  0  0  0  0  0  0  0
    6.5570   21.1156    2.8823 C   0  0  0  0  0  0  0  0  0  0  0  0
    6.0895   20.0547    5.0737 N   0  0  0  0  0  0  0  0  0  0  0  0
    5.2782   20.9127    5.8673 C   0  0  0  0  0  0  0  0  0  0  0  0
    4.4413   21.7064    5.3845 O   0  0  0  0  0  0  0  0  0  0  0  0
    6.7642   19.4285    5.6191 H   0  0  0  0  0  0  0  0  0  0  0  0
    5.4142   20.8804    7.3563 C   0  0  0  0  0  0  0  0  0  0  0  0
    4.8483   22.1704    7.9555 C   0  0  0  0  0  0  0  0  0  0  0  0
    6.7744   20.6373    7.7782 N   0  0  0  0  0  0  0  0  0  0  0  0
    7.1144   19.4223    8.4293 C   0  0  0  0  0  0  0  0  0  0  0  0
    6.1821   18.5571    8.6178 O   0  0  0  0  0  0  0  0  0  0  0  0
    7.4988   21.3698    7.5951 H   0  0  0  0  0  0  0  0  0  0  0  0
    8.4726   19.1086    8.8916 C   0  0  0  0  0  0  0  0  0  0  0  0
    9.4597   20.0234    8.1896 C   0  0  0  0  0  0  0  0  0  0  0  0
    8.8084   17.6824    8.4131 C   0  0  0  0  0  0  0  0  0  0  0  0
   10.7608   23.4725    1.5058 C   0  0  0  0  0  0  0  0  0  0  0  0
    9.7655   23.4712    3.9262 N   0  0  0  0  0  0  0  0  0  0  0  0
    9.6990   23.6031    2.5160 C   0  0  0  0  0  0  0  0  0  0  0  0
    8.4921   23.8761    2.1028 O   0  0  0  0  0  0  0  0  0  0  0  0
   10.6549   23.2343    4.3754 H   0  0  0  0  0  0  0  0  0  0  0  0
    8.5795   23.6495    4.7208 C   0  0  0  0  0  0  0  0  0  0  0  0
    8.9398   22.9851    6.0854 C   0  0  0  0  0  0  0  0  0  0  0  0
    6.7469   25.2626    5.2976 N   0  0  0  0  0  0  0  0  0  0  0  0
    8.0943   25.0065    4.9606 C   0  0  0  0  0  0  0  0  0  0  0  0
    8.8765   25.9759    4.8717 O   0  0  0  0  0  0  0  0  0  0  0  0
    6.1266   24.3969    5.3115 H   0  0  0  0  0  0  0  0  0  0  0  0
    6.1114   26.5106    5.6112 C   0  0  0  0  0  0  0  0  0  0  0  0
    4.5883   27.1998    7.5851 N   0  0  0  0  0  0  0  0  0  0  0  0
    5.5715   26.3819    6.9770 C   0  0  0  0  0  0  0  0  0  0  0  0
    6.0410   25.4383    7.6877 O   0  0  0  0  0  0  0  0  0  0  0  0
    4.1802   27.9835    7.0162 H   0  0  0  0  0  0  0  0  0  0  0  0
    4.1925   26.9165    8.9553 C   0  0  0  0  0  0  0  0  0  0  0  0
    5.0251   27.8028    9.9132 C   0  0  0  0  0  0  0  0  0  0  0  0
    1.8310   26.4210    8.4247 N   0  0  0  0  0  0  0  0  0  0  0  0
    2.7629   27.1227    9.2179 C   0  0  0  0  0  0  0  0  0  0  0  0
    2.3757   27.8942   10.1119 O   0  0  0  0  0  0  0  0  0  0  0  0
    2.2016   25.7780    7.6790 H   0  0  0  0  0  0  0  0  0  0  0  0
    0.4012   26.4948    8.5217 C   0  0  0  0  0  0  0  0  0  0  0  0
    0.6297   27.0505    6.0919 C   0  0  0  0  0  0  0  0  0  0  0  0
   -0.2078   27.2161    7.3319 C   0  0  0  0  0  0  0  0  0  0  0  0
   -1.6024   26.6200    7.0478 C   0  0  0  0  0  0  0  0  0  0  0  0
    4.8813   26.6924    4.6744 C   0  0  0  0  0  0  0  0  0  0  0  0
    5.1507   27.7276    3.6488 C   0  0  0  0  0  0  0  0  0  0  0  0
    6.4258   27.9383    3.1386 C   0  0  0  0  0  0  0  0  0  0  0  0
    6.6840   28.8921    2.1731 C   0  0  0  0  0  0  0  0  0  0  0  0
    5.6490   29.6894    1.6720 C   0  0  0  0  0  0  0  0  0  0  0  0
    4.3803   29.5007    2.1620 C   0  0  0  0  0  0  0  0  0  0  0  0
    4.1615   28.5249    3.1375 C   0  0  0  0  0  0  0  0  0  0  0  0
   11.2204   24.7869    0.9273 C   0  0  0  0  0  0  0  0  0  0  0  0
   12.2683   24.7223   -0.0856 C   0  0  0  0  0  0  0  0  0  0  0  0
   12.1385   25.2553   -1.3488 C   0  0  0  0  0  0  0  0  0  0  0  0
   13.1307   25.1551   -2.3033 C   0  0  0  0  0  0  0  0  0  0  0  0
   14.3219   24.4884   -1.9935 C   0  0  0  0  0  0  0  0  0  0  0  0
   14.4697   23.9495   -0.7348 C   0  0  0  0  0  0  0  0  0  0  0  0
   13.4647   24.0640    0.2024 C   0  0  0  0  0  0  0  0  0  0  0  0
 67 68  1  0  0  0
 68 69  1  0  0  0
 68 66  1  0  0  0
 66 62  1  0  0  0
 62 63  1  0  0  0
 63 64  2  0  0  0
 63 60  1  0  0  0
 60 61  1  0  0  0
 60 56  1  0  0  0
 56 57  1  0  0  0
 57 58  2  0  0  0
 57 55  1  0  0  0
 55 70  1  0  0  0
 70 71  1  0  0  0
 71 72  2  0  0  0
 72 73  1  0  0  0
 73 74  2  0  0  0
 74 75  1  0  0  0
 75 76  2  0  0  0
 55 51  1  0  0  0
 51 52  1  0  0  0
 52 53  2  0  0  0
 52 49  1  0  0  0
 49 50  1  0  0  0
 49 45  1  0  0  0
 45 46  1  0  0  0
 46 47  2  0  0  0
 46 44  1  0  0  0
 44 77  1  0  0  0
 77 78  1  0  0  0
 78 79  2  0  0  0
 79 80  1  0  0  0
 80 81  2  0  0  0
 81 82  1  0  0  0
 82 83  2  0  0  0
 44  1  1  0  0  0
  1  2  1  0  0  0
  2  3  2  0  0  0
  2  5  1  0  0  0
  5  6  1  0  0  0
  5  7  1  0  0  0
  7  8  1  0  0  0
  8  9  2  0  0  0
  8 11  1  0  0  0
 11 12  1  0  0  0
 11 13  1  0  0  0
 13 14  1  0  0  0
 14 15  2  0  0  0
 14 17  1  0  0  0
 17 18  1  0  0  0
 17 19  1  0  0  0
 19 20  1  0  0  0
 20 21  2  0  0  0
 20 23  1  0  0  0
 23 24  1  0  0  0
 23 25  1  0  0  0
 25 26  1  0  0  0
 26 27  2  0  0  0
 26 29  1  0  0  0
 29 30  1  0  0  0
 29 31  1  0  0  0
 31 32  1  0  0  0
 32 33  2  0  0  0
 32 35  1  0  0  0
 35 36  1  0  0  0
 35 37  1  0  0  0
 37 38  1  0  0  0
 38 39  2  0  0  0
 38 41  1  0  0  0
 41 42  1  0  0  0
 41 43  1  0  0  0
 76 71  1  0  0  0
 83 78  1  0  0  0
 62 65  1  0  0  0
 56 59  1  0  0  0
 51 54  1  0  0  0
 45 48  1  0  0  0
  1  4  1  0  0  0
  7 10  1  0  0  0
 13 16  1  0  0  0
 19 22  1  0  0  0
 25 28  1  0  0  0
 31 34  1  0  0  0
 37 40  1  0  0  0
M  END
> <minimizedAffinity>
-7.80693

> <CNNscore>
0.0858729109

> <CNNaffinity>
7.1352396011

> <CNN_VS>
0.6127237678

> <CNNaffinity_variance>
1.7133636475

$$$$
[H][C](N([H])C(=O)[C@@]([H])(N([H])C(=O)[C@@]([H])(N([H])C(=O)[C@@]([H])(N([H])C(=O)[C@@]([H])(N([H])C(=O)[C@@]([H])(N([H])C(=O)[C@@]([H])(N([H])C(=O)[C@@]([H])(N([H])C(=O)[C@@]([H])(N([H])C(=O)[C@]([H])(N([H])C(=O)[C@@]([H])(N([H])C(=O)C([H])(C([H])([H])[H])C([H])([H])[H])C([H])([H])[H])C([H])([H])[H])C([H])([H])[H])C([H])([H])[H])C([H])([H])[H])C([H])([H])[H])C([H])([H])c1c([H])c([H])c([H])c([H])c1[H])C([H])([H])[H])C([H])([H])c1c([H])c([H])c([H])c([H])c1[H])C([H])([H])[H])C([H])(C([H])([H])[H])C([H])([H])[H]


 83 84  0  0  0  0  0  0  0  0999 V2000
    3.8687   17.7214    1.7501 N   0  0  0  0  0  0  0  0  0  0  0  0
    3.9761   16.7575    2.7742 C   0  0  0  0  0  0  0  0  0  0  0  0
    4.3519   15.6041    2.4681 O   0  0  0  0  0  0  0  0  0  0  0  0
    3.5683   18.7117    1.8808 H   0  0  0  0  0  0  0  0  0  0  0  0
    3.6579   17.0931    4.1593 C   0  0  0  0  0  0  0  0  0  0  0  0
    2.8425   18.3495    4.2348 C   0  0  0  0  0  0  0  0  0  0  0  0
    4.8064   17.0894    5.0303 N   0  0  0  0  0  0  0  0  0  0  0  0
    6.0013   17.7758    4.7769 C   0  0  0  0  0  0  0  0  0  0  0  0
    6.1128   18.4431    3.7230 O   0  0  0  0  0  0  0  0  0  0  0  0
    4.6888   16.5163    5.9073 H   0  0  0  0  0  0  0  0  0  0  0  0
    7.1219   17.7359    5.7223 C   0  0  0  0  0  0  0  0  0  0  0  0
    6.6683   17.0508    7.0473 C   0  0  0  0  0  0  0  0  0  0  0  0
    7.6095   19.0316    6.0956 N   0  0  0  0  0  0  0  0  0  0  0  0
    8.8420   19.5778    5.6841 C   0  0  0  0  0  0  0  0  0  0  0  0
    9.6651   19.0307    4.9379 O   0  0  0  0  0  0  0  0  0  0  0  0
    6.9926   19.6078    6.7107 H   0  0  0  0  0  0  0  0  0  0  0  0
    9.2622   20.9621    6.1902 C   0  0  0  0  0  0  0  0  0  0  0  0
   10.6733   21.2296    5.9776 C   0  0  0  0  0  0  0  0  0  0  0  0
    8.9327   20.9411    7.6530 N   0  0  0  0  0  0  0  0  0  0  0  0
    8.3242   22.1032    8.1577 C   0  0  0  0  0  0  0  0  0  0  0  0
    8.1147   23.0505    7.2965 O   0  0  0  0  0  0  0  0  0  0  0  0
    9.1443   20.1327    8.2203 H   0  0  0  0  0  0  0  0  0  0  0  0
    7.8728   22.4291    9.5095 C   0  0  0  0  0  0  0  0  0  0  0  0
    7.5145   21.2734   10.3900 C   0  0  0  0  0  0  0  0  0  0  0  0
    6.7794   23.4109    9.4174 N   0  0  0  0  0  0  0  0  0  0  0  0
    6.8192   24.7256    9.9102 C   0  0  0  0  0  0  0  0  0  0  0  0
    7.8148   25.1809   10.5088 O   0  0  0  0  0  0  0  0  0  0  0  0
    5.8753   23.0870    8.9370 H   0  0  0  0  0  0  0  0  0  0  0  0
    5.5644   25.5323    9.6512 C   0  0  0  0  0  0  0  0  0  0  0  0
    5.5853   26.8237   10.3825 C   0  0  0  0  0  0  0  0  0  0  0  0
    5.1310   25.5398    8.3108 N   0  0  0  0  0  0  0  0  0  0  0  0
    5.7403   26.2403    7.2328 C   0  0  0  0  0  0  0  0  0  0  0  0
    6.7543   26.9596    7.3672 O   0  0  0  0  0  0  0  0  0  0  0  0
    4.2676   24.9631    8.0527 H   0  0  0  0  0  0  0  0  0  0  0  0
    5.1576   26.1249    5.8604 C   0  0  0  0  0  0  0  0  0  0  0  0
    5.4971   24.7549    5.2677 C   0  0  0  0  0  0  0  0  0  0  0  0
    5.5696   27.2069    4.9962 N   0  0  0  0  0  0  0  0  0  0  0  0
    4.6372   27.8092    4.1109 C   0  0  0  0  0  0  0  0  0  0  0  0
    3.4296   27.3677    4.1144 O   0  0  0  0  0  0  0  0  0  0  0  0
    6.5622   27.5355    5.0361 H   0  0  0  0  0  0  0  0  0  0  0  0
    4.9848   28.9075    3.1999 C   0  0  0  0  0  0  0  0  0  0  0  0
    5.2640   28.3389    1.8205 C   0  0  0  0  0  0  0  0  0  0  0  0
    6.3189   29.5084    3.6843 C   0  0  0  0  0  0  0  0  0  0  0  0
    4.1911   17.3944    0.3191 C   0  0  0  0  0  0  0  0  0  0  0  0
    5.7809   19.2884   -0.5378 N   0  0  0  0  0  0  0  0  0  0  0  0
    5.4900   18.0292    0.0456 C   0  0  0  0  0  0  0  0  0  0  0  0
    6.5710   17.3724    0.3650 O   0  0  0  0  0  0  0  0  0  0  0  0
    5.0172   19.8929   -0.8545 H   0  0  0  0  0  0  0  0  0  0  0  0
    7.1481   19.7047   -0.7031 C   0  0  0  0  0  0  0  0  0  0  0  0
    7.3056   19.8685   -2.2463 C   0  0  0  0  0  0  0  0  0  0  0  0
    8.9340   21.1089    0.3607 N   0  0  0  0  0  0  0  0  0  0  0  0
    7.5923   20.9295   -0.0421 C   0  0  0  0  0  0  0  0  0  0  0  0
    6.7798   21.8519    0.1783 O   0  0  0  0  0  0  0  0  0  0  0  0
    9.5611   20.2665    0.1834 H   0  0  0  0  0  0  0  0  0  0  0  0
    9.5529   22.2504    0.9722 C   0  0  0  0  0  0  0  0  0  0  0  0
   11.8670   22.3250   -0.1810 N   0  0  0  0  0  0  0  0  0  0  0  0
   11.0092   22.0310    0.9067 C   0  0  0  0  0  0  0  0  0  0  0  0
   11.5542   21.5190    1.9347 O   0  0  0  0  0  0  0  0  0  0  0  0
   11.4416   22.7542   -1.0407 H   0  0  0  0  0  0  0  0  0  0  0  0
   13.2840   22.0235   -0.0557 C   0  0  0  0  0  0  0  0  0  0  0  0
   13.6761   20.9888   -1.1383 C   0  0  0  0  0  0  0  0  0  0  0  0
   14.5503   23.6195   -1.4533 N   0  0  0  0  0  0  0  0  0  0  0  0
   14.1561   23.1994   -0.1656 C   0  0  0  0  0  0  0  0  0  0  0  0
   14.5425   23.8128    0.8437 O   0  0  0  0  0  0  0  0  0  0  0  0
   14.2004   23.0717   -2.2805 H   0  0  0  0  0  0  0  0  0  0  0  0
   15.4003   24.7329   -1.7646 C   0  0  0  0  0  0  0  0  0  0  0  0
   15.3743   23.9937   -4.1558 C   0  0  0  0  0  0  0  0  0  0  0  0
   15.2577   25.1626   -3.2143 C   0  0  0  0  0  0  0  0  0  0  0  0
   13.8646   25.7961   -3.4119 C   0  0  0  0  0  0  0  0  0  0  0  0
    9.1846   22.2659    2.4849 C   0  0  0  0  0  0  0  0  0  0  0  0
    8.9164   23.6485    2.9459 C   0  0  0  0  0  0  0  0  0  0  0  0
    8.1891   24.5485    2.1766 C   0  0  0  0  0  0  0  0  0  0  0  0
    7.9231   25.8351    2.6039 C   0  0  0  0  0  0  0  0  0  0  0  0
    8.3879   26.2777    3.8474 C   0  0  0  0  0  0  0  0  0  0  0  0
    9.1104   25.4066    4.6249 C   0  0  0  0  0  0  0  0  0  0  0  0
    9.3567   24.1138    4.1562 C   0  0  0  0  0  0  0  0  0  0  0  0
    3.0414   17.9970   -0.4482 C   0  0  0  0  0  0  0  0  0  0  0  0
    1.7160   17.8527    0.1438 C   0  0  0  0  0  0  0  0  0  0  0  0
    1.0206   18.8954    0.7146 C   0  0  0  0  0  0  0  0  0  0  0  0
   -0.2195   18.7306    1.2981 C   0  0  0  0  0  0  0  0  0  0  0  0
   -0.8085   17.4610    1.3207 C   0  0  0  0  0  0  0  0  0  0  0  0
   -0.1280   16.4063    0.7541 C   0  0  0  0  0  0  0  0  0  0  0  0
    1.1092   16.5963    0.1756 C   0  0  0  0  0  0  0  0  0  0  0  0
 67 68  1  0  0  0
 68 69  1  0  0  0
 68 66  1  0  0  0
 66 62  1  0  0  0
 62 63  1  0  0  0
 63 64  2  0  0  0
 63 60  1  0  0  0
 60 61  1  0  0  0
 60 56  1  0  0  0
 56 57  1  0  0  0
 57 58  2  0  0  0
 57 55  1  0  0  0
 55 70  1  0  0  0
 70 71  1  0  0  0
 71 72  2  0  0  0
 72 73  1  0  0  0
 73 74  2  0  0  0
 74 75  1  0  0  0
 75 76  2  0  0  0
 55 51  1  0  0  0
 51 52  1  0  0  0
 52 53  2  0  0  0
 52 49  1  0  0  0
 49 50  1  0  0  0
 49 45  1  0  0  0
 45 46  1  0  0  0
 46 47  2  0  0  0
 46 44  1  0  0  0
 44 77  1  0  0  0
 77 78  1  0  0  0
 78 79  2  0  0  0
 79 80  1  0  0  0
 80 81  2  0  0  0
 81 82  1  0  0  0
 82 83  2  0  0  0
 44  1  1  0  0  0
  1  2  1  0  0  0
  2  3  2  0  0  0
  2  5  1  0  0  0
  5  6  1  0  0  0
  5  7  1  0  0  0
  7  8  1  0  0  0
  8  9  2  0  0  0
  8 11  1  0  0  0
 11 12  1  0  0  0
 11 13  1  0  0  0
 13 14  1  0  0  0
 14 15  2  0  0  0
 14 17  1  0  0  0
 17 18  1  0  0  0
 17 19  1  0  0  0
 19 20  1  0  0  0
 20 21  2  0  0  0
 20 23  1  0  0  0
 23 24  1  0  0  0
 23 25  1  0  0  0
 25 26  1  0  0  0
 26 27  2  0  0  0
 26 29  1  0  0  0
 29 30  1  0  0  0
 29 31  1  0  0  0
 31 32  1  0  0  0
 32 33  2  0  0  0
 32 35  1  0  0  0
 35 36  1  0  0  0
 35 37  1  0  0  0
 37 38  1  0  0  0
 38 39  2  0  0  0
 38 41  1  0  0  0
 41 42  1  0  0  0
 41 43  1  0  0  0
 76 71  1  0  0  0
 83 78  1  0  0  0
 62 65  1  0  0  0
 56 59  1  0  0  0
 51 54  1  0  0  0
 45 48  1  0  0  0
  1  4  1  0  0  0
  7 10  1  0  0  0
 13 16  1  0  0  0
 19 22  1  0  0  0
 25 28  1  0  0  0
 31 34  1  0  0  0
 37 40  1  0  0  0
M  END
> <minimizedAffinity>
-8.12881

> <CNNscore>
0.0762393251

> <CNNaffinity>
7.6592187881

> <CNN_VS>
0.5839336514

> <CNNaffinity_variance>
1.3828561306

$$$$
[H][C](N([H])C(=O)[C@@]([H])(N([H])C(=O)[C@@]([H])(N([H])C(=O)[C@@]([H])(N([H])C(=O)[C@@]([H])(N([H])C(=O)[C@@]([H])(N([H])C(=O)[C@@]([H])(N([H])C(=O)[C@@]([H])(N([H])C(=O)[C@@]([H])(N([H])C(=O)[C@]([H])(N([H])C(=O)[C@@]([H])(N([H])C(=O)C([H])(C([H])([H])[H])C([H])([H])[H])C([H])([H])[H])C([H])([H])[H])C([H])([H])[H])C([H])([H])[H])C([H])([H])[H])C([H])([H])[H])C([H])([H])c1c([H])c([H])c([H])c([H])c1[H])C([H])([H])[H])C([H])([H])c1c([H])c([H])c([H])c([H])c1[H])C([H])([H])[H])C([H])(C([H])([H])[H])C([H])([H])[H]


 83 84  0  0  0  0  0  0  0  0999 V2000
    9.7778   21.8724    5.0572 N   0  0  0  0  0  0  0  0  0  0  0  0
   10.0236   20.9633    6.1073 C   0  0  0  0  0  0  0  0  0  0  0  0
    9.8392   21.3490    7.2830 O   0  0  0  0  0  0  0  0  0  0  0  0
    9.8939   21.6682    4.0409 H   0  0  0  0  0  0  0  0  0  0  0  0
   10.4816   19.6041    5.8335 C   0  0  0  0  0  0  0  0  0  0  0  0
   11.1267   19.5155    4.4825 C   0  0  0  0  0  0  0  0  0  0  0  0
    9.4741   18.5998    6.0663 N   0  0  0  0  0  0  0  0  0  0  0  0
    8.1553   18.6703    5.5982 C   0  0  0  0  0  0  0  0  0  0  0  0
    7.7937   19.6681    4.9335 O   0  0  0  0  0  0  0  0  0  0  0  0
    9.8023   17.7735    6.6325 H   0  0  0  0  0  0  0  0  0  0  0  0
    7.1909   17.5976    5.8636 C   0  0  0  0  0  0  0  0  0  0  0  0
    7.9293   16.3634    6.4657 C   0  0  0  0  0  0  0  0  0  0  0  0
    6.5193   17.1208    4.6899 N   0  0  0  0  0  0  0  0  0  0  0  0
    5.2092   17.4767    4.3109 C   0  0  0  0  0  0  0  0  0  0  0  0
    4.4634   18.2545    4.9212 O   0  0  0  0  0  0  0  0  0  0  0  0
    7.0541   16.4695    4.0730 H   0  0  0  0  0  0  0  0  0  0  0  0
    4.5935   16.8614    3.0495 C   0  0  0  0  0  0  0  0  0  0  0  0
    5.1143   15.5367    2.7632 C   0  0  0  0  0  0  0  0  0  0  0  0
    4.9425   17.8251    1.9549 N   0  0  0  0  0  0  0  0  0  0  0  0
    3.8614   18.2988    1.1918 C   0  0  0  0  0  0  0  0  0  0  0  0
    2.6919   17.8510    1.5306 O   0  0  0  0  0  0  0  0  0  0  0  0
    5.9006   18.1016    1.7939 H   0  0  0  0  0  0  0  0  0  0  0  0
    3.8289   19.2317    0.0667 C   0  0  0  0  0  0  0  0  0  0  0  0
    2.8391   18.9368   -1.0161 C   0  0  0  0  0  0  0  0  0  0  0  0
    5.1951   19.3806   -0.4618 N   0  0  0  0  0  0  0  0  0  0  0  0
    6.0760   20.4328   -0.1624 C   0  0  0  0  0  0  0  0  0  0  0  0
    5.7537   21.3761    0.5881 O   0  0  0  0  0  0  0  0  0  0  0  0
    5.5398   18.6204   -1.1374 H   0  0  0  0  0  0  0  0  0  0  0  0
    7.4353   20.3211   -0.8199 C   0  0  0  0  0  0  0  0  0  0  0  0
    7.3179   20.0066   -2.2657 C   0  0  0  0  0  0  0  0  0  0  0  0
    8.3638   21.3070   -0.4322 N   0  0  0  0  0  0  0  0  0  0  0  0
    9.6834   21.0785    0.0479 C   0  0  0  0  0  0  0  0  0  0  0  0
   10.1729   19.9372    0.1939 O   0  0  0  0  0  0  0  0  0  0  0  0
    8.0745   22.3344   -0.5058 H   0  0  0  0  0  0  0  0  0  0  0  0
   10.5481   22.2465    0.4008 C   0  0  0  0  0  0  0  0  0  0  0  0
    9.8047   23.5503    0.0996 C   0  0  0  0  0  0  0  0  0  0  0  0
   11.8359   22.1932   -0.2518 N   0  0  0  0  0  0  0  0  0  0  0  0
   13.0106   21.9407    0.5047 C   0  0  0  0  0  0  0  0  0  0  0  0
   12.8849   21.7553    1.7708 O   0  0  0  0  0  0  0  0  0  0  0  0
   11.8849   22.3431   -1.2862 H   0  0  0  0  0  0  0  0  0  0  0  0
   14.3529   21.8786   -0.0881 C   0  0  0  0  0  0  0  0  0  0  0  0
   14.2248   21.6790   -1.5874 C   0  0  0  0  0  0  0  0  0  0  0  0
   15.0390   20.6066    0.4477 C   0  0  0  0  0  0  0  0  0  0  0  0
    9.3068   23.2753    5.3195 C   0  0  0  0  0  0  0  0  0  0  0  0
    6.9197   22.3036    5.7739 N   0  0  0  0  0  0  0  0  0  0  0  0
    8.0317   23.1418    6.0413 C   0  0  0  0  0  0  0  0  0  0  0  0
    7.8428   23.8907    7.0927 O   0  0  0  0  0  0  0  0  0  0  0  0
    6.9331   21.6820    4.9600 H   0  0  0  0  0  0  0  0  0  0  0  0
    5.7670   22.3435    6.6338 C   0  0  0  0  0  0  0  0  0  0  0  0
    4.6721   21.5786    5.8280 C   0  0  0  0  0  0  0  0  0  0  0  0
    6.8990   20.8582    8.3087 N   0  0  0  0  0  0  0  0  0  0  0  0
    5.8706   21.7656    7.9716 C   0  0  0  0  0  0  0  0  0  0  0  0
    5.0394   22.0716    8.8519 O   0  0  0  0  0  0  0  0  0  0  0  0
    7.5444   20.6070    7.4995 H   0  0  0  0  0  0  0  0  0  0  0  0
    7.1817   20.2350    9.5703 C   0  0  0  0  0  0  0  0  0  0  0  0
    8.5722   22.3813    9.9583 N   0  0  0  0  0  0  0  0  0  0  0  0
    7.8479   21.2501   10.4065 C   0  0  0  0  0  0  0  0  0  0  0  0
    7.7679   21.0918   11.6653 O   0  0  0  0  0  0  0  0  0  0  0  0
    8.6480   22.5377    8.9219 H   0  0  0  0  0  0  0  0  0  0  0  0
    9.1690   23.2662   10.9459 C   0  0  0  0  0  0  0  0  0  0  0  0
   10.6336   23.5594   10.5391 C   0  0  0  0  0  0  0  0  0  0  0  0
    7.5037   24.9065   10.1461 N   0  0  0  0  0  0  0  0  0  0  0  0
    8.4488   24.5330   11.1245 C   0  0  0  0  0  0  0  0  0  0  0  0
    8.6615   25.2631   12.1072 O   0  0  0  0  0  0  0  0  0  0  0  0
    7.3546   24.2593    9.3302 H   0  0  0  0  0  0  0  0  0  0  0  0
    6.7106   26.1024   10.1386 C   0  0  0  0  0  0  0  0  0  0  0  0
    6.3444   26.9917    7.8277 C   0  0  0  0  0  0  0  0  0  0  0  0
    7.1792   27.0827    9.0772 C   0  0  0  0  0  0  0  0  0  0  0  0
    7.0514   28.5169    9.6320 C   0  0  0  0  0  0  0  0  0  0  0  0
    8.2285   19.1050    9.3442 C   0  0  0  0  0  0  0  0  0  0  0  0
    7.8668   17.8921   10.1150 C   0  0  0  0  0  0  0  0  0  0  0  0
    8.7509   16.8311   10.2678 C   0  0  0  0  0  0  0  0  0  0  0  0
    8.4271   15.7022   10.9953 C   0  0  0  0  0  0  0  0  0  0  0  0
    7.1751   15.5922   11.6106 C   0  0  0  0  0  0  0  0  0  0  0  0
    6.2838   16.6274   11.4724 C   0  0  0  0  0  0  0  0  0  0  0  0
    6.6507   17.7519   10.7289 C   0  0  0  0  0  0  0  0  0  0  0  0
    9.1699   23.8655    3.9387 C   0  0  0  0  0  0  0  0  0  0  0  0
    8.5821   25.1980    3.8549 C   0  0  0  0  0  0  0  0  0  0  0  0
    9.0528   26.2824    4.5614 C   0  0  0  0  0  0  0  0  0  0  0  0
    8.4618   27.5279    4.4921 C   0  0  0  0  0  0  0  0  0  0  0  0
    7.3387   27.7148    3.6777 C   0  0  0  0  0  0  0  0  0  0  0  0
    6.8543   26.6418    2.9633 C   0  0  0  0  0  0  0  0  0  0  0  0
    7.4629   25.4073    3.0478 C   0  0  0  0  0  0  0  0  0  0  0  0
 67 68  1  0  0  0
 68 69  1  0  0  0
 68 66  1  0  0  0
 66 62  1  0  0  0
 62 63  1  0  0  0
 63 64  2  0  0  0
 63 60  1  0  0  0
 60 61  1  0  0  0
 60 56  1  0  0  0
 56 57  1  0  0  0
 57 58  2  0  0  0
 57 55  1  0  0  0
 55 70  1  0  0  0
 70 71  1  0  0  0
 71 72  2  0  0  0
 72 73  1  0  0  0
 73 74  2  0  0  0
 74 75  1  0  0  0
 75 76  2  0  0  0
 55 51  1  0  0  0
 51 52  1  0  0  0
 52 53  2  0  0  0
 52 49  1  0  0  0
 49 50  1  0  0  0
 49 45  1  0  0  0
 45 46  1  0  0  0
 46 47  2  0  0  0
 46 44  1  0  0  0
 44 77  1  0  0  0
 77 78  1  0  0  0
 78 79  2  0  0  0
 79 80  1  0  0  0
 80 81  2  0  0  0
 81 82  1  0  0  0
 82 83  2  0  0  0
 44  1  1  0  0  0
  1  2  1  0  0  0
  2  3  2  0  0  0
  2  5  1  0  0  0
  5  6  1  0  0  0
  5  7  1  0  0  0
  7  8  1  0  0  0
  8  9  2  0  0  0
  8 11  1  0  0  0
 11 12  1  0  0  0
 11 13  1  0  0  0
 13 14  1  0  0  0
 14 15  2  0  0  0
 14 17  1  0  0  0
 17 18  1  0  0  0
 17 19  1  0  0  0
 19 20  1  0  0  0
 20 21  2  0  0  0
 20 23  1  0  0  0
 23 24  1  0  0  0
 23 25  1  0  0  0
 25 26  1  0  0  0
 26 27  2  0  0  0
 26 29  1  0  0  0
 29 30  1  0  0  0
 29 31  1  0  0  0
 31 32  1  0  0  0
 32 33  2  0  0  0
 32 35  1  0  0  0
 35 36  1  0  0  0
 35 37  1  0  0  0
 37 38  1  0  0  0
 38 39  2  0  0  0
 38 41  1  0  0  0
 41 42  1  0  0  0
 41 43  1  0  0  0
 76 71  1  0  0  0
 83 78  1  0  0  0
 62 65  1  0  0  0
 56 59  1  0  0  0
 51 54  1  0  0  0
 45 48  1  0  0  0
  1  4  1  0  0  0
  7 10  1  0  0  0
 13 16  1  0  0  0
 19 22  1  0  0  0
 25 28  1  0  0  0
 31 34  1  0  0  0
 37 40  1  0  0  0
M  END
> <minimizedAffinity>
-7.60591

> <CNNscore>
0.0709181130

> <CNNaffinity>
7.1158189774

> <CNN_VS>
0.5046404600

> <CNNaffinity_variance>
2.4969871044

$$$$
[H][C](N([H])C(=O)[C@@]([H])(N([H])C(=O)[C@@]([H])(N([H])C(=O)[C@@]([H])(N([H])C(=O)[C@@]([H])(N([H])C(=O)[C@@]([H])(N([H])C(=O)[C@@]([H])(N([H])C(=O)[C@@]([H])(N([H])C(=O)[C@@]([H])(N([H])C(=O)[C@]([H])(N([H])C(=O)[C@@]([H])(N([H])C(=O)C([H])(C([H])([H])[H])C([H])([H])[H])C([H])([H])[H])C([H])([H])[H])C([H])([H])[H])C([H])([H])[H])C([H])([H])[H])C([H])([H])[H])C([H])([H])c1c([H])c([H])c([H])c([H])c1[H])C([H])([H])[H])C([H])([H])c1c([H])c([H])c([H])c([H])c1[H])C([H])([H])[H])C([H])(C([H])([H])[H])C([H])([H])[H]


 83 84  0  0  0  0  0  0  0  0999 V2000
    5.3360   16.8119    1.0504 N   0  0  0  0  0  0  0  0  0  0  0  0
    5.5317   17.7106    2.1197 C   0  0  0  0  0  0  0  0  0  0  0  0
    5.7181   18.9189    1.8542 O   0  0  0  0  0  0  0  0  0  0  0  0
    5.1710   15.7863    1.1449 H   0  0  0  0  0  0  0  0  0  0  0  0
    5.5174   17.2468    3.5042 C   0  0  0  0  0  0  0  0  0  0  0  0
    5.8309   15.7824    3.5843 C   0  0  0  0  0  0  0  0  0  0  0  0
    4.3306   17.6301    4.2269 N   0  0  0  0  0  0  0  0  0  0  0  0
    4.2533   18.7088    5.1178 C   0  0  0  0  0  0  0  0  0  0  0  0
    5.2734   19.4041    5.3278 O   0  0  0  0  0  0  0  0  0  0  0  0
    3.4880   17.0259    4.0366 H   0  0  0  0  0  0  0  0  0  0  0  0
    3.0018   19.0459    5.8043 C   0  0  0  0  0  0  0  0  0  0  0  0
    3.0672   20.5134    6.3267 C   0  0  0  0  0  0  0  0  0  0  0  0
    2.7349   18.2304    6.9530 N   0  0  0  0  0  0  0  0  0  0  0  0
    2.2517   16.9070    6.9067 C   0  0  0  0  0  0  0  0  0  0  0  0
    2.0051   16.2603    5.8799 O   0  0  0  0  0  0  0  0  0  0  0  0
    2.9253   18.6561    7.8875 H   0  0  0  0  0  0  0  0  0  0  0  0
    1.9695   16.1590    8.2143 C   0  0  0  0  0  0  0  0  0  0  0  0
    1.1194   16.9141    9.1171 C   0  0  0  0  0  0  0  0  0  0  0  0
    3.3246   15.9316    8.8148 N   0  0  0  0  0  0  0  0  0  0  0  0
    3.6185   14.6044    9.1718 C   0  0  0  0  0  0  0  0  0  0  0  0
    2.6854   13.7354    8.9326 O   0  0  0  0  0  0  0  0  0  0  0  0
    3.9688   16.6986    8.9457 H   0  0  0  0  0  0  0  0  0  0  0  0
    4.8199   14.0251    9.7705 C   0  0  0  0  0  0  0  0  0  0  0  0
    4.6097   13.1079   10.9340 C   0  0  0  0  0  0  0  0  0  0  0  0
    5.7590   15.1133   10.0899 N   0  0  0  0  0  0  0  0  0  0  0  0
    7.1590   15.0324   10.0118 C   0  0  0  0  0  0  0  0  0  0  0  0
    7.7463   13.9848    9.6731 O   0  0  0  0  0  0  0  0  0  0  0  0
    5.3319   16.0433   10.4150 H   0  0  0  0  0  0  0  0  0  0  0  0
    7.8835   16.3134   10.3674 C   0  0  0  0  0  0  0  0  0  0  0  0
    9.2186   16.0401   10.9554 C   0  0  0  0  0  0  0  0  0  0  0  0
    7.7833   17.3374    9.4052 N   0  0  0  0  0  0  0  0  0  0  0  0
    8.4777   17.3982    8.1649 C   0  0  0  0  0  0  0  0  0  0  0  0
    9.2892   16.5244    7.7887 O   0  0  0  0  0  0  0  0  0  0  0  0
    7.1204   18.1544    9.5996 H   0  0  0  0  0  0  0  0  0  0  0  0
    8.2404   18.5550    7.2473 C   0  0  0  0  0  0  0  0  0  0  0  0
    8.9544   18.3135    5.9149 C   0  0  0  0  0  0  0  0  0  0  0  0
    8.6175   19.8155    7.8441 N   0  0  0  0  0  0  0  0  0  0  0  0
    7.6311   20.6534    8.4279 C   0  0  0  0  0  0  0  0  0  0  0  0
    6.4105   20.2495    8.4131 O   0  0  0  0  0  0  0  0  0  0  0  0
    9.6255   20.0961    7.8377 H   0  0  0  0  0  0  0  0  0  0  0  0
    7.9385   21.9496    9.0463 C   0  0  0  0  0  0  0  0  0  0  0  0
    9.3356   22.3772    8.6350 C   0  0  0  0  0  0  0  0  0  0  0  0
    7.9971   21.7344   10.5714 C   0  0  0  0  0  0  0  0  0  0  0  0
    5.3481   17.2705   -0.3808 C   0  0  0  0  0  0  0  0  0  0  0  0
    6.8258   19.4108   -0.6715 N   0  0  0  0  0  0  0  0  0  0  0  0
    6.6054   18.0151   -0.5526 C   0  0  0  0  0  0  0  0  0  0  0  0
    7.7160   17.3336   -0.6165 O   0  0  0  0  0  0  0  0  0  0  0  0
    6.0305   20.0560   -0.6599 H   0  0  0  0  0  0  0  0  0  0  0  0
    8.1636   19.9157   -0.8297 C   0  0  0  0  0  0  0  0  0  0  0  0
    8.2548   20.2653   -2.3471 C   0  0  0  0  0  0  0  0  0  0  0  0
    9.9248   21.3108    0.2862 N   0  0  0  0  0  0  0  0  0  0  0  0
    8.5714   21.0776   -0.0436 C   0  0  0  0  0  0  0  0  0  0  0  0
    7.7161   21.8965    0.3533 O   0  0  0  0  0  0  0  0  0  0  0  0
   10.5936   20.5508   -0.0446 H   0  0  0  0  0  0  0  0  0  0  0  0
   10.5083   22.4106    1.0002 C   0  0  0  0  0  0  0  0  0  0  0  0
   12.6314   21.5154   -0.1752 N   0  0  0  0  0  0  0  0  0  0  0  0
   11.9358   22.4464    0.6340 C   0  0  0  0  0  0  0  0  0  0  0  0
   12.6179   23.4140    1.0972 O   0  0  0  0  0  0  0  0  0  0  0  0
   12.0885   20.7093   -0.5750 H   0  0  0  0  0  0  0  0  0  0  0  0
   14.0511   21.7197   -0.4140 C   0  0  0  0  0  0  0  0  0  0  0  0
   14.7726   20.3510   -0.3605 C   0  0  0  0  0  0  0  0  0  0  0  0
   14.3774   23.7910   -1.7204 N   0  0  0  0  0  0  0  0  0  0  0  0
   14.3524   22.3809   -1.6897 C   0  0  0  0  0  0  0  0  0  0  0  0
   14.5787   21.7235   -2.7196 O   0  0  0  0  0  0  0  0  0  0  0  0
   14.1801   24.3085   -0.8259 H   0  0  0  0  0  0  0  0  0  0  0  0
   14.6419   24.6149   -2.8651 C   0  0  0  0  0  0  0  0  0  0  0  0
   13.5632   26.4118   -4.2337 C   0  0  0  0  0  0  0  0  0  0  0  0
   13.8167   25.8899   -2.8445 C   0  0  0  0  0  0  0  0  0  0  0  0
   12.4511   25.5894   -2.1920 C   0  0  0  0  0  0  0  0  0  0  0  0
   10.4597   22.0968    2.5244 C   0  0  0  0  0  0  0  0  0  0  0  0
    9.8460   23.2192    3.2724 C   0  0  0  0  0  0  0  0  0  0  0  0
    9.3822   23.0652    4.5731 C   0  0  0  0  0  0  0  0  0  0  0  0
    8.8205   24.1091    5.2827 C   0  0  0  0  0  0  0  0  0  0  0  0
    8.6995   25.3758    4.7004 C   0  0  0  0  0  0  0  0  0  0  0  0
    9.1494   25.5520    3.4152 C   0  0  0  0  0  0  0  0  0  0  0  0
    9.7118   24.4706    2.7326 C   0  0  0  0  0  0  0  0  0  0  0  0
    4.1107   18.1254   -0.4879 C   0  0  0  0  0  0  0  0  0  0  0  0
    3.5496   18.2954   -1.8237 C   0  0  0  0  0  0  0  0  0  0  0  0
    2.7584   17.3526   -2.4416 C   0  0  0  0  0  0  0  0  0  0  0  0
    2.2637   17.5196   -3.7194 C   0  0  0  0  0  0  0  0  0  0  0  0
    2.5685   18.6860   -4.4307 C   0  0  0  0  0  0  0  0  0  0  0  0
    3.3579   19.6403   -3.8285 C   0  0  0  0  0  0  0  0  0  0  0  0
    3.8390   19.4513   -2.5501 C   0  0  0  0  0  0  0  0  0  0  0  0
 67 68  1  0  0  0
 68 69  1  0  0  0
 68 66  1  0  0  0
 66 62  1  0  0  0
 62 63  1  0  0  0
 63 64  2  0  0  0
 63 60  1  0  0  0
 60 61  1  0  0  0
 60 56  1  0  0  0
 56 57  1  0  0  0
 57 58  2  0  0  0
 57 55  1  0  0  0
 55 70  1  0  0  0
 70 71  1  0  0  0
 71 72  2  0  0  0
 72 73  1  0  0  0
 73 74  2  0  0  0
 74 75  1  0  0  0
 75 76  2  0  0  0
 55 51  1  0  0  0
 51 52  1  0  0  0
 52 53  2  0  0  0
 52 49  1  0  0  0
 49 50  1  0  0  0
 49 45  1  0  0  0
 45 46  1  0  0  0
 46 47  2  0  0  0
 46 44  1  0  0  0
 44 77  1  0  0  0
 77 78  1  0  0  0
 78 79  2  0  0  0
 79 80  1  0  0  0
 80 81  2  0  0  0
 81 82  1  0  0  0
 82 83  2  0  0  0
 44  1  1  0  0  0
  1  2  1  0  0  0
  2  3  2  0  0  0
  2  5  1  0  0  0
  5  6  1  0  0  0
  5  7  1  0  0  0
  7  8  1  0  0  0
  8  9  2  0  0  0
  8 11  1  0  0  0
 11 12  1  0  0  0
 11 13  1  0  0  0
 13 14  1  0  0  0
 14 15  2  0  0  0
 14 17  1  0  0  0
 17 18  1  0  0  0
 17 19  1  0  0  0
 19 20  1  0  0  0
 20 21  2  0  0  0
 20 23  1  0  0  0
 23 24  1  0  0  0
 23 25  1  0  0  0
 25 26  1  0  0  0
 26 27  2  0  0  0
 26 29  1  0  0  0
 29 30  1  0  0  0
 29 31  1  0  0  0
 31 32  1  0  0  0
 32 33  2  0  0  0
 32 35  1  0  0  0
 35 36  1  0  0  0
 35 37  1  0  0  0
 37 38  1  0  0  0
 38 39  2  0  0  0
 38 41  1  0  0  0
 41 42  1  0  0  0
 41 43  1  0  0  0
 76 71  1  0  0  0
 83 78  1  0  0  0
 62 65  1  0  0  0
 56 59  1  0  0  0
 51 54  1  0  0  0
 45 48  1  0  0  0
  1  4  1  0  0  0
  7 10  1  0  0  0
 13 16  1  0  0  0
 19 22  1  0  0  0
 25 28  1  0  0  0
 31 34  1  0  0  0
 37 40  1  0  0  0
M  END
> <minimizedAffinity>
-8.70300

> <CNNscore>
0.0707464963

> <CNNaffinity>
7.1901407242

> <CNN_VS>
0.5086772442

> <CNNaffinity_variance>
1.6499925852

$$$$
[H][C](N([H])C(=O)[C@@]([H])(N([H])C(=O)[C@@]([H])(N([H])C(=O)[C@@]([H])(N([H])C(=O)[C@@]([H])(N([H])C(=O)[C@@]([H])(N([H])C(=O)[C@@]([H])(N([H])C(=O)[C@@]([H])(N([H])C(=O)[C@@]([H])(N([H])C(=O)[C@]([H])(N([H])C(=O)[C@@]([H])(N([H])C(=O)C([H])(C([H])([H])[H])C([H])([H])[H])C([H])([H])[H])C([H])([H])[H])C([H])([H])[H])C([H])([H])[H])C([H])([H])[H])C([H])([H])[H])C([H])([H])c1c([H])c([H])c([H])c([H])c1[H])C([H])([H])[H])C([H])([H])c1c([H])c([H])c([H])c([H])c1[H])C([H])([H])[H])C([H])(C([H])([H])[H])C([H])([H])[H]


 83 84  0  0  0  0  0  0  0  0999 V2000
    8.9346   23.4374    5.6601 N   0  0  0  0  0  0  0  0  0  0  0  0
    8.4780   24.0064    4.4530 C   0  0  0  0  0  0  0  0  0  0  0  0
    7.2959   23.7914    4.1041 O   0  0  0  0  0  0  0  0  0  0  0  0
    9.8942   23.5453    6.0546 H   0  0  0  0  0  0  0  0  0  0  0  0
    9.3595   24.8273    3.6277 C   0  0  0  0  0  0  0  0  0  0  0  0
    8.9381   26.2663    3.6569 C   0  0  0  0  0  0  0  0  0  0  0  0
    9.5562   24.3035    2.2993 N   0  0  0  0  0  0  0  0  0  0  0  0
    9.9073   22.9786    2.0088 C   0  0  0  0  0  0  0  0  0  0  0  0
   10.0765   22.1693    2.9494 O   0  0  0  0  0  0  0  0  0  0  0  0
    9.4131   25.0058    1.5262 H   0  0  0  0  0  0  0  0  0  0  0  0
   10.0738   22.5166    0.6267 C   0  0  0  0  0  0  0  0  0  0  0  0
   10.1649   23.7436   -0.3308 C   0  0  0  0  0  0  0  0  0  0  0  0
    8.9803   21.7228    0.1470 N   0  0  0  0  0  0  0  0  0  0  0  0
    9.0734   20.3683   -0.2318 C   0  0  0  0  0  0  0  0  0  0  0  0
   10.0969   19.6724   -0.1914 O   0  0  0  0  0  0  0  0  0  0  0  0
    8.0488   22.1914    0.0870 H   0  0  0  0  0  0  0  0  0  0  0  0
    7.8323   19.6461   -0.7677 C   0  0  0  0  0  0  0  0  0  0  0  0
    7.6452   19.8415   -2.1941 C   0  0  0  0  0  0  0  0  0  0  0  0
    6.6929   20.2338    0.0101 N   0  0  0  0  0  0  0  0  0  0  0  0
    5.6595   19.3421    0.3456 C   0  0  0  0  0  0  0  0  0  0  0  0
    5.8192   18.1175   -0.0517 O   0  0  0  0  0  0  0  0  0  0  0  0
    6.6890   21.2111    0.2652 H   0  0  0  0  0  0  0  0  0  0  0  0
    4.4176   19.5616    1.0849 C   0  0  0  0  0  0  0  0  0  0  0  0
    3.6104   20.7592    0.6927 C   0  0  0  0  0  0  0  0  0  0  0  0
    4.7184   19.5485    2.5262 N   0  0  0  0  0  0  0  0  0  0  0  0
    5.4569   20.5248    3.2149 C   0  0  0  0  0  0  0  0  0  0  0  0
    5.9568   21.5108    2.6361 O   0  0  0  0  0  0  0  0  0  0  0  0
    4.3437   18.7169    3.0928 H   0  0  0  0  0  0  0  0  0  0  0  0
    5.5884   20.2800    4.7032 C   0  0  0  0  0  0  0  0  0  0  0  0
    4.5584   21.0227    5.4715 C   0  0  0  0  0  0  0  0  0  0  0  0
    5.8433   18.9422    5.0632 N   0  0  0  0  0  0  0  0  0  0  0  0
    7.1202   18.3651    5.3093 C   0  0  0  0  0  0  0  0  0  0  0  0
    8.1915   19.0033    5.2169 O   0  0  0  0  0  0  0  0  0  0  0  0
    5.0113   18.2793    5.1775 H   0  0  0  0  0  0  0  0  0  0  0  0
    7.2111   16.9247    5.7012 C   0  0  0  0  0  0  0  0  0  0  0  0
    6.2056   16.1035    4.8901 C   0  0  0  0  0  0  0  0  0  0  0  0
    7.0475   16.7313    7.1235 N   0  0  0  0  0  0  0  0  0  0  0  0
    8.1855   16.6183    7.9650 C   0  0  0  0  0  0  0  0  0  0  0  0
    9.3481   16.7026    7.4223 O   0  0  0  0  0  0  0  0  0  0  0  0
    6.0800   16.6768    7.5181 H   0  0  0  0  0  0  0  0  0  0  0  0
    8.0971   16.4144    9.4167 C   0  0  0  0  0  0  0  0  0  0  0  0
    6.7287   15.8522    9.7567 C   0  0  0  0  0  0  0  0  0  0  0  0
    8.1589   17.8018   10.0854 C   0  0  0  0  0  0  0  0  0  0  0  0
    8.0423   22.5892    6.5222 C   0  0  0  0  0  0  0  0  0  0  0  0
    7.5736   24.7500    7.9223 N   0  0  0  0  0  0  0  0  0  0  0  0
    7.2150   23.5316    7.2919 C   0  0  0  0  0  0  0  0  0  0  0  0
    5.9522   23.2463    7.4528 O   0  0  0  0  0  0  0  0  0  0  0  0
    8.5441   25.0755    7.8893 H   0  0  0  0  0  0  0  0  0  0  0  0
    6.5782   25.5152    8.6247 C   0  0  0  0  0  0  0  0  0  0  0  0
    7.3739   26.1894    9.7847 C   0  0  0  0  0  0  0  0  0  0  0  0
    5.4816   26.3689    6.5362 N   0  0  0  0  0  0  0  0  0  0  0  0
    5.8361   26.5389    7.8928 C   0  0  0  0  0  0  0  0  0  0  0  0
    5.4967   27.5956    8.4652 O   0  0  0  0  0  0  0  0  0  0  0  0
    5.8414   25.4669    6.0991 H   0  0  0  0  0  0  0  0  0  0  0  0
    4.7218   27.2361    5.6815 C   0  0  0  0  0  0  0  0  0  0  0  0
    2.5433   27.3498    7.0714 N   0  0  0  0  0  0  0  0  0  0  0  0
    3.2991   26.9509    5.9423 C   0  0  0  0  0  0  0  0  0  0  0  0
    2.6847   26.2702    5.0619 O   0  0  0  0  0  0  0  0  0  0  0  0
    3.0270   27.9185    7.8110 H   0  0  0  0  0  0  0  0  0  0  0  0
    1.1451   26.9586    7.1510 C   0  0  0  0  0  0  0  0  0  0  0  0
    0.9984   25.8245    8.1944 C   0  0  0  0  0  0  0  0  0  0  0  0
    0.7789   29.2013    8.1205 N   0  0  0  0  0  0  0  0  0  0  0  0
    0.2364   28.0592    7.4951 C   0  0  0  0  0  0  0  0  0  0  0  0
   -0.9795   27.9936    7.2471 O   0  0  0  0  0  0  0  0  0  0  0  0
    1.8133   29.2156    8.3122 H   0  0  0  0  0  0  0  0  0  0  0  0
    0.0572   30.3690    8.5388 C   0  0  0  0  0  0  0  0  0  0  0  0
    1.0692   30.2403   10.8245 C   0  0  0  0  0  0  0  0  0  0  0  0
   -0.2065   30.3626   10.0345 C   0  0  0  0  0  0  0  0  0  0  0  0
   -0.8840   31.6923   10.4270 C   0  0  0  0  0  0  0  0  0  0  0  0
    4.9811   26.8286    4.2014 C   0  0  0  0  0  0  0  0  0  0  0  0
    5.2989   28.0184    3.3771 C   0  0  0  0  0  0  0  0  0  0  0  0
    4.5660   28.3387    2.2409 C   0  0  0  0  0  0  0  0  0  0  0  0
    4.8468   29.4529    1.4737 C   0  0  0  0  0  0  0  0  0  0  0  0
    5.8981   30.3070    1.8253 C   0  0  0  0  0  0  0  0  0  0  0  0
    6.6377   30.0102    2.9434 C   0  0  0  0  0  0  0  0  0  0  0  0
    6.3204   28.8742    3.6922 C   0  0  0  0  0  0  0  0  0  0  0  0
    9.0123   21.7980    7.3629 C   0  0  0  0  0  0  0  0  0  0  0  0
    9.0154   22.0806    8.7941 C   0  0  0  0  0  0  0  0  0  0  0  0
    8.1171   21.5284    9.6800 C   0  0  0  0  0  0  0  0  0  0  0  0
    8.1173   21.8341   11.0261 C   0  0  0  0  0  0  0  0  0  0  0  0
    9.0594   22.7395   11.5283 C   0  0  0  0  0  0  0  0  0  0  0  0
    9.9660   23.3013   10.6571 C   0  0  0  0  0  0  0  0  0  0  0  0
    9.9469   22.9789    9.3166 C   0  0  0  0  0  0  0  0  0  0  0  0
 67 68  1  0  0  0
 68 69  1  0  0  0
 68 66  1  0  0  0
 66 62  1  0  0  0
 62 63  1  0  0  0
 63 64  2  0  0  0
 63 60  1  0  0  0
 60 61  1  0  0  0
 60 56  1  0  0  0
 56 57  1  0  0  0
 57 58  2  0  0  0
 57 55  1  0  0  0
 55 70  1  0  0  0
 70 71  1  0  0  0
 71 72  2  0  0  0
 72 73  1  0  0  0
 73 74  2  0  0  0
 74 75  1  0  0  0
 75 76  2  0  0  0
 55 51  1  0  0  0
 51 52  1  0  0  0
 52 53  2  0  0  0
 52 49  1  0  0  0
 49 50  1  0  0  0
 49 45  1  0  0  0
 45 46  1  0  0  0
 46 47  2  0  0  0
 46 44  1  0  0  0
 44 77  1  0  0  0
 77 78  1  0  0  0
 78 79  2  0  0  0
 79 80  1  0  0  0
 80 81  2  0  0  0
 81 82  1  0  0  0
 82 83  2  0  0  0
 44  1  1  0  0  0
  1  2  1  0  0  0
  2  3  2  0  0  0
  2  5  1  0  0  0
  5  6  1  0  0  0
  5  7  1  0  0  0
  7  8  1  0  0  0
  8  9  2  0  0  0
  8 11  1  0  0  0
 11 12  1  0  0  0
 11 13  1  0  0  0
 13 14  1  0  0  0
 14 15  2  0  0  0
 14 17  1  0  0  0
 17 18  1  0  0  0
 17 19  1  0  0  0
 19 20  1  0  0  0
 20 21  2  0  0  0
 20 23  1  0  0  0
 23 24  1  0  0  0
 23 25  1  0  0  0
 25 26  1  0  0  0
 26 27  2  0  0  0
 26 29  1  0  0  0
 29 30  1  0  0  0
 29 31  1  0  0  0
 31 32  1  0  0  0
 32 33  2  0  0  0
 32 35  1  0  0  0
 35 36  1  0  0  0
 35 37  1  0  0  0
 37 38  1  0  0  0
 38 39  2  0  0  0
 38 41  1  0  0  0
 41 42  1  0  0  0
 41 43  1  0  0  0
 76 71  1  0  0  0
 83 78  1  0  0  0
 62 65  1  0  0  0
 56 59  1  0  0  0
 51 54  1  0  0  0
 45 48  1  0  0  0
  1  4  1  0  0  0
  7 10  1  0  0  0
 13 16  1  0  0  0
 19 22  1  0  0  0
 25 28  1  0  0  0
 31 34  1  0  0  0
 37 40  1  0  0  0
M  END
> <minimizedAffinity>
-7.55715

> <CNNscore>
0.0669829622

> <CNNaffinity>
6.7698945999

> <CNN_VS>
0.4534676075

> <CNNaffinity_variance>
1.8275362253

$$$$
