[H]Oc1c([H])c([H])c2c(=O)n([H])c(C3=C([H])C([H])([H])C(C([H])([H])[H])(C([H])([H])[H])C([H])([H])C3([H])[H])c([H])c2c1[H]


 22 24  0  0  0  0  0  0  0  0999 V2000
   12.8110   24.4160   -0.8471 C   0  0  0  0  0  0  0  0  0  0  0  0
   12.6771   25.0154   -2.0903 C   0  0  0  0  0  0  0  0  0  0  0  0
   13.7758   25.4995   -2.8074 C   0  0  0  0  0  0  0  0  0  0  0  0
   13.5994   26.0917   -4.0464 C   0  0  0  0  0  0  0  0  0  0  0  0
   14.6768   26.5724   -4.7617 C   0  0  0  0  0  0  0  0  0  0  0  0
   14.5182   27.1722   -6.0112 O   0  0  0  0  0  0  0  0  0  0  0  0
   15.9264   26.4381   -4.1931 C   0  0  0  0  0  0  0  0  0  0  0  0
   16.0975   25.8472   -2.9581 C   0  0  0  0  0  0  0  0  0  0  0  0
   15.0166   25.3628   -2.2363 C   0  0  0  0  0  0  0  0  0  0  0  0
   15.1555   24.7698   -1.0048 C   0  0  0  0  0  0  0  0  0  0  0  0
   16.2951   24.6515   -0.4949 O   0  0  0  0  0  0  0  0  0  0  0  0
   14.0482   24.3122   -0.3431 N   0  0  0  0  0  0  0  0  0  0  0  0
   14.3665   28.1739   -6.1099 H   0  0  0  0  0  0  0  0  0  0  0  0
   14.2303   23.8768    0.5804 H   0  0  0  0  0  0  0  0  0  0  0  0
    8.6994   21.6194    1.8273 C   0  0  0  0  0  0  0  0  0  0  0  0
    9.7076   22.0000    0.7457 C   0  0  0  0  0  0  0  0  0  0  0  0
    9.5297   21.0132   -0.3890 C   0  0  0  0  0  0  0  0  0  0  0  0
   11.1263   21.9356    1.2661 C   0  0  0  0  0  0  0  0  0  0  0  0
   11.7798   23.3093    1.2603 C   0  0  0  0  0  0  0  0  0  0  0  0
   11.6698   23.9175   -0.1076 C   0  0  0  0  0  0  0  0  0  0  0  0
   10.4257   23.9473   -0.5586 C   0  0  0  0  0  0  0  0  0  0  0  0
    9.3469   23.4036    0.2996 C   0  0  0  0  0  0  0  0  0  0  0  0
 15 16  1  0  0  0
 16 17  1  0  0  0
 16 18  1  0  0  0
 18 19  1  0  0  0
 19 20  1  0  0  0
 20 21  2  0  0  0
 21 22  1  0  0  0
 20  1  1  0  0  0
  1  2  2  0  0  0
  2  3  1  0  0  0
  3  4  2  0  0  0
  4  5  1  0  0  0
  5  6  1  0  0  0
  5  7  2  0  0  0
  7  8  1  0  0  0
  8  9  2  0  0  0
  9 10  1  0  0  0
 10 11  2  0  0  0
 10 12  1  0  0  0
 22 16  1  0  0  0
 12  1  1  0  0  0
  9  3  1  0  0  0
  6 13  1  0  0  0
 12 14  1  0  0  0
M  END
> <minimizedAffinity>
-8.55725

> <CNNscore>
0.5218492746

> <CNNaffinity>
6.5030798912

> <CNN_VS>
3.3936274052

> <CNNaffinity_variance>
0.2611941397

$$$$
[H]Oc1c([H])c([H])c2c(=O)n([H])c(C3=C([H])C([H])([H])C(C([H])([H])[H])(C([H])([H])[H])C([H])([H])C3([H])[H])c([H])c2c1[H]


 22 24  0  0  0  0  0  0  0  0999 V2000
   13.2313   24.1541   -0.9367 C   0  0  0  0  0  0  0  0  0  0  0  0
   13.0073   24.7566   -2.1654 C   0  0  0  0  0  0  0  0  0  0  0  0
   14.0242   25.4016   -2.8764 C   0  0  0  0  0  0  0  0  0  0  0  0
   13.7592   25.9912   -4.1008 C   0  0  0  0  0  0  0  0  0  0  0  0
   14.7554   26.6299   -4.8100 C   0  0  0  0  0  0  0  0  0  0  0  0
   14.5069   27.2295   -6.0449 O   0  0  0  0  0  0  0  0  0  0  0  0
   16.0160   26.6551   -4.2504 C   0  0  0  0  0  0  0  0  0  0  0  0
   16.2756   26.0662   -3.0300 C   0  0  0  0  0  0  0  0  0  0  0  0
   15.2764   25.4232   -2.3143 C   0  0  0  0  0  0  0  0  0  0  0  0
   15.5044   24.8280   -1.0972 C   0  0  0  0  0  0  0  0  0  0  0  0
   16.6534   24.8554   -0.5954 O   0  0  0  0  0  0  0  0  0  0  0  0
   14.4750   24.2092   -0.4409 N   0  0  0  0  0  0  0  0  0  0  0  0
   14.2193   28.2030   -6.1201 H   0  0  0  0  0  0  0  0  0  0  0  0
   14.7219   23.7827    0.4716 H   0  0  0  0  0  0  0  0  0  0  0  0
    8.6850   22.3985    1.9142 C   0  0  0  0  0  0  0  0  0  0  0  0
    9.8567   23.2766    1.4813 C   0  0  0  0  0  0  0  0  0  0  0  0
    9.8492   24.4953    2.3800 C   0  0  0  0  0  0  0  0  0  0  0  0
    9.7234   23.7019    0.0360 C   0  0  0  0  0  0  0  0  0  0  0  0
   10.8498   23.1330   -0.8135 C   0  0  0  0  0  0  0  0  0  0  0  0
   12.1745   23.4886   -0.2034 C   0  0  0  0  0  0  0  0  0  0  0  0
   12.2683   23.1297    1.0672 C   0  0  0  0  0  0  0  0  0  0  0  0
   11.1115   22.4541    1.7007 C   0  0  0  0  0  0  0  0  0  0  0  0
 15 16  1  0  0  0
 16 17  1  0  0  0
 16 18  1  0  0  0
 18 19  1  0  0  0
 19 20  1  0  0  0
 20 21  2  0  0  0
 21 22  1  0  0  0
 20  1  1  0  0  0
  1  2  2  0  0  0
  2  3  1  0  0  0
  3  4  2  0  0  0
  4  5  1  0  0  0
  5  6  1  0  0  0
  5  7  2  0  0  0
  7  8  1  0  0  0
  8  9  2  0  0  0
  9 10  1  0  0  0
 10 11  2  0  0  0
 10 12  1  0  0  0
 22 16  1  0  0  0
 12  1  1  0  0  0
  9  3  1  0  0  0
  6 13  1  0  0  0
 12 14  1  0  0  0
M  END
> <minimizedAffinity>
-8.62702

> <CNNscore>
0.5169623494

> <CNNaffinity>
6.4378690720

> <CNN_VS>
3.3281359673

> <CNNaffinity_variance>
0.2694337964

$$$$
[H]Oc1c([H])c([H])c2c(=O)n([H])c(C3=C([H])C([H])([H])C(C([H])([H])[H])(C([H])([H])[H])C([H])([H])C3([H])[H])c([H])c2c1[H]


 22 24  0  0  0  0  0  0  0  0999 V2000
   15.4729   24.0849   -2.8156 C   0  0  0  0  0  0  0  0  0  0  0  0
   16.0240   24.0027   -1.5458 C   0  0  0  0  0  0  0  0  0  0  0  0
   15.7596   22.9322   -0.6857 C   0  0  0  0  0  0  0  0  0  0  0  0
   16.3301   22.8875    0.5751 C   0  0  0  0  0  0  0  0  0  0  0  0
   16.0755   21.8358    1.4310 C   0  0  0  0  0  0  0  0  0  0  0  0
   16.6412   21.7740    2.7047 O   0  0  0  0  0  0  0  0  0  0  0  0
   15.2350   20.8396    0.9793 C   0  0  0  0  0  0  0  0  0  0  0  0
   14.6687   20.8882   -0.2779 C   0  0  0  0  0  0  0  0  0  0  0  0
   14.9225   21.9440   -1.1410 C   0  0  0  0  0  0  0  0  0  0  0  0
   14.3735   22.0201   -2.3981 C   0  0  0  0  0  0  0  0  0  0  0  0
   13.6104   21.1102   -2.8011 O   0  0  0  0  0  0  0  0  0  0  0  0
   14.6638   23.0892   -3.2018 N   0  0  0  0  0  0  0  0  0  0  0  0
   16.1789   22.1774    3.5169 H   0  0  0  0  0  0  0  0  0  0  0  0
   14.2134   23.0785   -4.1360 H   0  0  0  0  0  0  0  0  0  0  0  0
   16.0380   28.9263   -5.6654 C   0  0  0  0  0  0  0  0  0  0  0  0
   15.3880   27.7970   -4.8694 C   0  0  0  0  0  0  0  0  0  0  0  0
   13.9236   28.1516   -4.7177 C   0  0  0  0  0  0  0  0  0  0  0  0
   16.0247   27.6452   -3.5059 C   0  0  0  0  0  0  0  0  0  0  0  0
   16.7133   26.2961   -3.3648 C   0  0  0  0  0  0  0  0  0  0  0  0
   15.7487   25.1965   -3.7022 C   0  0  0  0  0  0  0  0  0  0  0  0
   15.1834   25.3544   -4.8886 C   0  0  0  0  0  0  0  0  0  0  0  0
   15.5538   26.5386   -5.6988 C   0  0  0  0  0  0  0  0  0  0  0  0
 15 16  1  0  0  0
 16 17  1  0  0  0
 16 18  1  0  0  0
 18 19  1  0  0  0
 19 20  1  0  0  0
 20 21  2  0  0  0
 21 22  1  0  0  0
 20  1  1  0  0  0
  1  2  2  0  0  0
  2  3  1  0  0  0
  3  4  2  0  0  0
  4  5  1  0  0  0
  5  6  1  0  0  0
  5  7  2  0  0  0
  7  8  1  0  0  0
  8  9  2  0  0  0
  9 10  1  0  0  0
 10 11  2  0  0  0
 10 12  1  0  0  0
 22 16  1  0  0  0
 12  1  1  0  0  0
  9  3  1  0  0  0
  6 13  1  0  0  0
 12 14  1  0  0  0
M  END
> <minimizedAffinity>
-0.02355

> <CNNscore>
0.5090054870

> <CNNaffinity>
6.2480993271

> <CNN_VS>
3.1803169250

> <CNNaffinity_variance>
0.2425100803

$$$$
[H]Oc1c([H])c([H])c2c(=O)n([H])c(C3=C([H])C([H])([H])C(C([H])([H])[H])(C([H])([H])[H])C([H])([H])C3([H])[H])c([H])c2c1[H]


 22 24  0  0  0  0  0  0  0  0999 V2000
   13.3272   24.6266   -1.9783 C   0  0  0  0  0  0  0  0  0  0  0  0
   11.9797   24.5549   -1.6589 C   0  0  0  0  0  0  0  0  0  0  0  0
   11.5261   23.9978   -0.4590 C   0  0  0  0  0  0  0  0  0  0  0  0
   10.1714   23.9452   -0.1777 C   0  0  0  0  0  0  0  0  0  0  0  0
    9.7138   23.3977    1.0031 C   0  0  0  0  0  0  0  0  0  0  0  0
    8.3528   23.3361    1.3034 O   0  0  0  0  0  0  0  0  0  0  0  0
   10.6570   22.9094    1.8833 C   0  0  0  0  0  0  0  0  0  0  0  0
   12.0060   22.9640    1.5989 C   0  0  0  0  0  0  0  0  0  0  0  0
   12.4696   23.5138    0.4127 C   0  0  0  0  0  0  0  0  0  0  0  0
   13.8060   23.5820    0.1017 C   0  0  0  0  0  0  0  0  0  0  0  0
   14.6571   23.1358    0.9074 O   0  0  0  0  0  0  0  0  0  0  0  0
   14.1988   24.1369   -1.0862 N   0  0  0  0  0  0  0  0  0  0  0  0
    7.7813   22.5360    1.0401 H   0  0  0  0  0  0  0  0  0  0  0  0
   15.2225   24.1539   -1.2522 H   0  0  0  0  0  0  0  0  0  0  0  0
   15.9631   26.9717   -6.3864 C   0  0  0  0  0  0  0  0  0  0  0  0
   15.5088   26.7290   -4.9490 C   0  0  0  0  0  0  0  0  0  0  0  0
   16.1581   27.7981   -4.0956 C   0  0  0  0  0  0  0  0  0  0  0  0
   15.9251   25.3587   -4.4624 C   0  0  0  0  0  0  0  0  0  0  0  0
   14.7146   24.4865   -4.1657 C   0  0  0  0  0  0  0  0  0  0  0  0
   13.7920   25.2031   -3.2230 C   0  0  0  0  0  0  0  0  0  0  0  0
   13.4538   26.4088   -3.6517 C   0  0  0  0  0  0  0  0  0  0  0  0
   14.0001   26.8806   -4.9458 C   0  0  0  0  0  0  0  0  0  0  0  0
 15 16  1  0  0  0
 16 17  1  0  0  0
 16 18  1  0  0  0
 18 19  1  0  0  0
 19 20  1  0  0  0
 20 21  2  0  0  0
 21 22  1  0  0  0
 20  1  1  0  0  0
  1  2  2  0  0  0
  2  3  1  0  0  0
  3  4  2  0  0  0
  4  5  1  0  0  0
  5  6  1  0  0  0
  5  7  2  0  0  0
  7  8  1  0  0  0
  8  9  2  0  0  0
  9 10  1  0  0  0
 10 11  2  0  0  0
 10 12  1  0  0  0
 22 16  1  0  0  0
 12  1  1  0  0  0
  9  3  1  0  0  0
  6 13  1  0  0  0
 12 14  1  0  0  0
M  END
> <minimizedAffinity>
-9.04521

> <CNNscore>
0.4774649441

> <CNNaffinity>
6.5465073586

> <CNN_VS>
3.1257276535

> <CNNaffinity_variance>
0.1141283959

$$$$
[H]Oc1c([H])c([H])c2c(=O)n([H])c(C3=C([H])C([H])([H])C(C([H])([H])[H])(C([H])([H])[H])C([H])([H])C3([H])[H])c([H])c2c1[H]


 22 24  0  0  0  0  0  0  0  0999 V2000
   13.6635   24.4571   -1.8525 C   0  0  0  0  0  0  0  0  0  0  0  0
   13.6766   25.3304   -2.9296 C   0  0  0  0  0  0  0  0  0  0  0  0
   14.8038   26.0886   -3.2615 C   0  0  0  0  0  0  0  0  0  0  0  0
   14.7759   26.9495   -4.3456 C   0  0  0  0  0  0  0  0  0  0  0  0
   15.8826   27.7018   -4.6813 C   0  0  0  0  0  0  0  0  0  0  0  0
   15.8730   28.5744   -5.7697 O   0  0  0  0  0  0  0  0  0  0  0  0
   17.0081   27.5597   -3.8964 C   0  0  0  0  0  0  0  0  0  0  0  0
   17.0313   26.7005   -2.8171 C   0  0  0  0  0  0  0  0  0  0  0  0
   15.9205   25.9426   -2.4767 C   0  0  0  0  0  0  0  0  0  0  0  0
   15.9135   25.0790   -1.4082 C   0  0  0  0  0  0  0  0  0  0  0  0
   16.9409   24.9557   -0.6997 O   0  0  0  0  0  0  0  0  0  0  0  0
   14.7844   24.3592   -1.1249 N   0  0  0  0  0  0  0  0  0  0  0  0
   15.5914   29.5479   -5.6741 H   0  0  0  0  0  0  0  0  0  0  0  0
   14.8533   23.7285   -0.3044 H   0  0  0  0  0  0  0  0  0  0  0  0
    9.1696   21.8183    0.3204 C   0  0  0  0  0  0  0  0  0  0  0  0
   10.5771   22.3996    0.2080 C   0  0  0  0  0  0  0  0  0  0  0  0
   11.2877   22.0867    1.5080 C   0  0  0  0  0  0  0  0  0  0  0  0
   10.5406   23.8956   -0.0116 C   0  0  0  0  0  0  0  0  0  0  0  0
   11.1222   24.2694   -1.3667 C   0  0  0  0  0  0  0  0  0  0  0  0
   12.4930   23.6751   -1.5117 C   0  0  0  0  0  0  0  0  0  0  0  0
   12.5129   22.3694   -1.2955 C   0  0  0  0  0  0  0  0  0  0  0  0
   11.2424   21.6876   -0.9537 C   0  0  0  0  0  0  0  0  0  0  0  0
 15 16  1  0  0  0
 16 17  1  0  0  0
 16 18  1  0  0  0
 18 19  1  0  0  0
 19 20  1  0  0  0
 20 21  2  0  0  0
 21 22  1  0  0  0
 20  1  1  0  0  0
  1  2  2  0  0  0
  2  3  1  0  0  0
  3  4  2  0  0  0
  4  5  1  0  0  0
  5  6  1  0  0  0
  5  7  2  0  0  0
  7  8  1  0  0  0
  8  9  2  0  0  0
  9 10  1  0  0  0
 10 11  2  0  0  0
 10 12  1  0  0  0
 22 16  1  0  0  0
 12  1  1  0  0  0
  9  3  1  0  0  0
  6 13  1  0  0  0
 12 14  1  0  0  0
M  END
> <minimizedAffinity>
-9.08126

> <CNNscore>
0.4324855506

> <CNNaffinity>
6.4766144753

> <CNN_VS>
2.8010420799

> <CNNaffinity_variance>
0.4338556230

$$$$
[H]Oc1c([H])c([H])c2c(=O)n([H])c(C3=C([H])C([H])([H])C(C([H])([H])[H])(C([H])([H])[H])C([H])([H])C3([H])[H])c([H])c2c1[H]


 22 24  0  0  0  0  0  0  0  0999 V2000
   11.5972   24.5409    0.0967 C   0  0  0  0  0  0  0  0  0  0  0  0
   11.1934   23.2625    0.4507 C   0  0  0  0  0  0  0  0  0  0  0  0
   10.4925   23.0020    1.6325 C   0  0  0  0  0  0  0  0  0  0  0  0
   10.1072   21.7104    1.9496 C   0  0  0  0  0  0  0  0  0  0  0  0
    9.4154   21.4430    3.1129 C   0  0  0  0  0  0  0  0  0  0  0  0
    9.0192   20.1483    3.4489 O   0  0  0  0  0  0  0  0  0  0  0  0
    9.1271   22.5096    3.9389 C   0  0  0  0  0  0  0  0  0  0  0  0
    9.5130   23.7950    3.6188 C   0  0  0  0  0  0  0  0  0  0  0  0
   10.2086   24.0675    2.4500 C   0  0  0  0  0  0  0  0  0  0  0  0
   10.6061   25.3364    2.1045 C   0  0  0  0  0  0  0  0  0  0  0  0
   10.3399   26.3006    2.8610 O   0  0  0  0  0  0  0  0  0  0  0  0
   11.2901   25.5388    0.9365 N   0  0  0  0  0  0  0  0  0  0  0  0
    9.6152   19.5299    3.9953 H   0  0  0  0  0  0  0  0  0  0  0  0
   11.5572   26.5220    0.7422 H   0  0  0  0  0  0  0  0  0  0  0  0
   15.1076   25.0377   -4.2976 C   0  0  0  0  0  0  0  0  0  0  0  0
   14.6142   24.9869   -2.8535 C   0  0  0  0  0  0  0  0  0  0  0  0
   15.8182   25.2304   -1.9681 C   0  0  0  0  0  0  0  0  0  0  0  0
   13.9986   23.6444   -2.5274 C   0  0  0  0  0  0  0  0  0  0  0  0
   12.5179   23.7790   -2.2058 C   0  0  0  0  0  0  0  0  0  0  0  0
   12.3243   24.8055   -1.1276 C   0  0  0  0  0  0  0  0  0  0  0  0
   12.8868   25.9680   -1.4175 C   0  0  0  0  0  0  0  0  0  0  0  0
   13.6033   26.1074   -2.7072 C   0  0  0  0  0  0  0  0  0  0  0  0
 15 16  1  0  0  0
 16 17  1  0  0  0
 16 18  1  0  0  0
 18 19  1  0  0  0
 19 20  1  0  0  0
 20 21  2  0  0  0
 21 22  1  0  0  0
 20  1  1  0  0  0
  1  2  2  0  0  0
  2  3  1  0  0  0
  3  4  2  0  0  0
  4  5  1  0  0  0
  5  6  1  0  0  0
  5  7  2  0  0  0
  7  8  1  0  0  0
  8  9  2  0  0  0
  9 10  1  0  0  0
 10 11  2  0  0  0
 10 12  1  0  0  0
 22 16  1  0  0  0
 12  1  1  0  0  0
  9  3  1  0  0  0
  6 13  1  0  0  0
 12 14  1  0  0  0
M  END
> <minimizedAffinity>
-2.85650

> <CNNscore>
0.4151539803

> <CNNaffinity>
6.0142846107

> <CNN_VS>
2.4968543053

> <CNNaffinity_variance>
0.6854254603

$$$$
[H]Oc1c([H])c([H])c2c(=O)n([H])c(C3=C([H])C([H])([H])C(C([H])([H])[H])(C([H])([H])[H])C([H])([H])C3([H])[H])c([H])c2c1[H]


 22 24  0  0  0  0  0  0  0  0999 V2000
   14.2985   25.0852   -2.1618 C   0  0  0  0  0  0  0  0  0  0  0  0
   15.5799   25.6134   -2.1187 C   0  0  0  0  0  0  0  0  0  0  0  0
   16.0353   26.5440   -3.0580 C   0  0  0  0  0  0  0  0  0  0  0  0
   17.3227   27.0475   -2.9798 C   0  0  0  0  0  0  0  0  0  0  0  0
   17.7814   27.9659   -3.9015 C   0  0  0  0  0  0  0  0  0  0  0  0
   19.0752   28.4840   -3.8386 O   0  0  0  0  0  0  0  0  0  0  0  0
   16.9086   28.3570   -4.8956 C   0  0  0  0  0  0  0  0  0  0  0  0
   15.6265   27.8526   -4.9697 C   0  0  0  0  0  0  0  0  0  0  0  0
   15.1620   26.9292   -4.0447 C   0  0  0  0  0  0  0  0  0  0  0  0
   13.8912   26.4093   -4.0926 C   0  0  0  0  0  0  0  0  0  0  0  0
   13.1039   26.7701   -4.9996 O   0  0  0  0  0  0  0  0  0  0  0  0
   13.4937   25.5008   -3.1492 N   0  0  0  0  0  0  0  0  0  0  0  0
   19.8553   28.0378   -4.3166 H   0  0  0  0  0  0  0  0  0  0  0  0
   12.5219   25.1524   -3.2491 H   0  0  0  0  0  0  0  0  0  0  0  0
   13.1805   20.7819    1.3181 C   0  0  0  0  0  0  0  0  0  0  0  0
   13.5303   21.5402    0.0399 C   0  0  0  0  0  0  0  0  0  0  0  0
   13.6872   20.5071   -1.0560 C   0  0  0  0  0  0  0  0  0  0  0  0
   14.8147   22.3235    0.1966 C   0  0  0  0  0  0  0  0  0  0  0  0
   14.5659   23.8202    0.0871 C   0  0  0  0  0  0  0  0  0  0  0  0
   13.8321   24.1204   -1.1876 C   0  0  0  0  0  0  0  0  0  0  0  0
   12.7219   23.4120   -1.3208 C   0  0  0  0  0  0  0  0  0  0  0  0
   12.3571   22.4566   -0.2485 C   0  0  0  0  0  0  0  0  0  0  0  0
 15 16  1  0  0  0
 16 17  1  0  0  0
 16 18  1  0  0  0
 18 19  1  0  0  0
 19 20  1  0  0  0
 20 21  2  0  0  0
 21 22  1  0  0  0
 20  1  1  0  0  0
  1  2  2  0  0  0
  2  3  1  0  0  0
  3  4  2  0  0  0
  4  5  1  0  0  0
  5  6  1  0  0  0
  5  7  2  0  0  0
  7  8  1  0  0  0
  8  9  2  0  0  0
  9 10  1  0  0  0
 10 11  2  0  0  0
 10 12  1  0  0  0
 22 16  1  0  0  0
 12  1  1  0  0  0
  9  3  1  0  0  0
  6 13  1  0  0  0
 12 14  1  0  0  0
M  END
> <minimizedAffinity>
-8.35259

> <CNNscore>
0.3755447268

> <CNNaffinity>
6.4801969528

> <CNN_VS>
2.4336037636

> <CNNaffinity_variance>
0.4281362593

$$$$
[H]Oc1c([H])c([H])c2c(=O)n([H])c(C3=C([H])C([H])([H])C(C([H])([H])[H])(C([H])([H])[H])C([H])([H])C3([H])[H])c([H])c2c1[H]


 22 24  0  0  0  0  0  0  0  0999 V2000
   15.0872   25.5510   -2.1762 C   0  0  0  0  0  0  0  0  0  0  0  0
   14.3168   24.4300   -2.4461 C   0  0  0  0  0  0  0  0  0  0  0  0
   14.0799   23.4394   -1.4879 C   0  0  0  0  0  0  0  0  0  0  0  0
   13.3045   22.3347   -1.7975 C   0  0  0  0  0  0  0  0  0  0  0  0
   13.0649   21.3520   -0.8593 C   0  0  0  0  0  0  0  0  0  0  0  0
   12.2865   20.2322   -1.1533 O   0  0  0  0  0  0  0  0  0  0  0  0
   13.6267   21.5169    0.3897 C   0  0  0  0  0  0  0  0  0  0  0  0
   14.3986   22.6193    0.6939 C   0  0  0  0  0  0  0  0  0  0  0  0
   14.6416   23.6093   -0.2469 C   0  0  0  0  0  0  0  0  0  0  0  0
   15.4058   24.7178    0.0263 C   0  0  0  0  0  0  0  0  0  0  0  0
   15.9129   24.8602    1.1644 O   0  0  0  0  0  0  0  0  0  0  0  0
   15.6080   25.6592   -0.9464 N   0  0  0  0  0  0  0  0  0  0  0  0
   12.6949   19.3788   -1.5286 H   0  0  0  0  0  0  0  0  0  0  0  0
   16.1949   26.4677   -0.6677 H   0  0  0  0  0  0  0  0  0  0  0  0
   15.7373   28.8951   -6.6788 C   0  0  0  0  0  0  0  0  0  0  0  0
   15.7857   27.6491   -5.7976 C   0  0  0  0  0  0  0  0  0  0  0  0
   16.4309   26.5532   -6.6198 C   0  0  0  0  0  0  0  0  0  0  0  0
   14.3997   27.2222   -5.3684 C   0  0  0  0  0  0  0  0  0  0  0  0
   14.2310   27.3286   -3.8603 C   0  0  0  0  0  0  0  0  0  0  0  0
   15.3310   26.5735   -3.1724 C   0  0  0  0  0  0  0  0  0  0  0  0
   16.5371   26.9427   -3.5739 C   0  0  0  0  0  0  0  0  0  0  0  0
   16.6485   28.0038   -4.6023 C   0  0  0  0  0  0  0  0  0  0  0  0
 15 16  1  0  0  0
 16 17  1  0  0  0
 16 18  1  0  0  0
 18 19  1  0  0  0
 19 20  1  0  0  0
 20 21  2  0  0  0
 21 22  1  0  0  0
 20  1  1  0  0  0
  1  2  2  0  0  0
  2  3  1  0  0  0
  3  4  2  0  0  0
  4  5  1  0  0  0
  5  6  1  0  0  0
  5  7  2  0  0  0
  7  8  1  0  0  0
  8  9  2  0  0  0
  9 10  1  0  0  0
 10 11  2  0  0  0
 10 12  1  0  0  0
 22 16  1  0  0  0
 12  1  1  0  0  0
  9  3  1  0  0  0
  6 13  1  0  0  0
 12 14  1  0  0  0
M  END
> <minimizedAffinity>
-2.49208

> <CNNscore>
0.3581982553

> <CNNaffinity>
6.3106088638

> <CNN_VS>
2.2604491711

> <CNNaffinity_variance>
0.1026807427

$$$$
[H]Oc1c([H])c([H])c2c(=O)n([H])c(C3=C([H])C([H])([H])C(C([H])([H])[H])(C([H])([H])[H])C([H])([H])C3([H])[H])c([H])c2c1[H]


 22 24  0  0  0  0  0  0  0  0999 V2000
   12.9949   23.9942   -0.7739 C   0  0  0  0  0  0  0  0  0  0  0  0
   11.6213   24.1438   -0.6564 C   0  0  0  0  0  0  0  0  0  0  0  0
   10.8451   23.3013    0.1457 C   0  0  0  0  0  0  0  0  0  0  0  0
    9.4756   23.4844    0.2361 C   0  0  0  0  0  0  0  0  0  0  0  0
    8.7010   22.6587    1.0246 C   0  0  0  0  0  0  0  0  0  0  0  0
    7.3201   22.8280    1.1278 O   0  0  0  0  0  0  0  0  0  0  0  0
    9.3454   21.6517    1.7128 C   0  0  0  0  0  0  0  0  0  0  0  0
   10.7103   21.4730    1.6199 C   0  0  0  0  0  0  0  0  0  0  0  0
   11.4921   22.3013    0.8281 C   0  0  0  0  0  0  0  0  0  0  0  0
   12.8528   22.1481    0.7155 C   0  0  0  0  0  0  0  0  0  0  0  0
   13.4308   21.2301    1.3446 O   0  0  0  0  0  0  0  0  0  0  0  0
   13.5677   22.9993   -0.0830 N   0  0  0  0  0  0  0  0  0  0  0  0
    6.6738   22.3600    0.4957 H   0  0  0  0  0  0  0  0  0  0  0  0
   14.5891   22.8228   -0.1188 H   0  0  0  0  0  0  0  0  0  0  0  0
   15.7175   26.9445   -4.7441 C   0  0  0  0  0  0  0  0  0  0  0  0
   15.1209   25.7540   -3.9969 C   0  0  0  0  0  0  0  0  0  0  0  0
   15.4520   24.5166   -4.8044 C   0  0  0  0  0  0  0  0  0  0  0  0
   13.6213   25.8882   -3.8523 C   0  0  0  0  0  0  0  0  0  0  0  0
   13.2159   26.0104   -2.3912 C   0  0  0  0  0  0  0  0  0  0  0  0
   13.7943   24.8684   -1.6072 C   0  0  0  0  0  0  0  0  0  0  0  0
   15.1037   24.7503   -1.7607 C   0  0  0  0  0  0  0  0  0  0  0  0
   15.8040   25.7123   -2.6439 C   0  0  0  0  0  0  0  0  0  0  0  0
 15 16  1  0  0  0
 16 17  1  0  0  0
 16 18  1  0  0  0
 18 19  1  0  0  0
 19 20  1  0  0  0
 20 21  2  0  0  0
 21 22  1  0  0  0
 20  1  1  0  0  0
  1  2  2  0  0  0
  2  3  1  0  0  0
  3  4  2  0  0  0
  4  5  1  0  0  0
  5  6  1  0  0  0
  5  7  2  0  0  0
  7  8  1  0  0  0
  8  9  2  0  0  0
  9 10  1  0  0  0
 10 11  2  0  0  0
 10 12  1  0  0  0
 22 16  1  0  0  0
 12  1  1  0  0  0
  9  3  1  0  0  0
  6 13  1  0  0  0
 12 14  1  0  0  0
M  END
> <minimizedAffinity>
-8.74243

> <CNNscore>
0.3557964265

> <CNNaffinity>
6.4952254295

> <CNN_VS>
2.3109779358

> <CNNaffinity_variance>
0.3344011009

$$$$
[H]OC(=O)c1c([H])c(OC([H])([H])c2c([H])c([H])c3c(c2[H])C([H])([H])C([H])([H])N3C(=O)C2([H])C([H])([H])C2([H])[H])c([H])c(Cl)c1Cl


 28 31  0  0  0  0  0  0  0  0999 V2000
   14.6412   23.2753   -1.5351 C   0  0  0  0  0  0  0  0  0  0  0  0
   13.5423   23.2083   -0.5479 C   0  0  0  0  0  0  0  0  0  0  0  0
   12.6623   24.2648   -0.4563 C   0  0  0  0  0  0  0  0  0  0  0  0
   11.6428   24.2217    0.4628 C   0  0  0  0  0  0  0  0  0  0  0  0
   11.4400   23.1616    1.3204 C   0  0  0  0  0  0  0  0  0  0  0  0
   10.4647   22.9212    2.3252 N   0  0  0  0  0  0  0  0  0  0  0  0
   10.4794   21.4791    2.5332 C   0  0  0  0  0  0  0  0  0  0  0  0
   11.9005   21.1171    2.2453 C   0  0  0  0  0  0  0  0  0  0  0  0
   12.3131   22.1146    1.2292 C   0  0  0  0  0  0  0  0  0  0  0  0
   13.3495   22.1341    0.3105 C   0  0  0  0  0  0  0  0  0  0  0  0
    9.6435   23.8762    2.9805 C   0  0  0  0  0  0  0  0  0  0  0  0
    9.7734   25.0757    2.6466 O   0  0  0  0  0  0  0  0  0  0  0  0
    8.6561   23.5396    4.0199 C   0  0  0  0  0  0  0  0  0  0  0  0
    9.2245   23.4362    5.4232 C   0  0  0  0  0  0  0  0  0  0  0  0
    8.2971   24.5195    5.0787 C   0  0  0  0  0  0  0  0  0  0  0  0
   15.5418   24.3377   -1.2926 O   0  0  0  0  0  0  0  0  0  0  0  0
   14.7966   26.5797   -4.0666 C   0  0  0  0  0  0  0  0  0  0  0  0
   14.6536   25.6042   -3.1303 C   0  0  0  0  0  0  0  0  0  0  0  0
   15.6720   25.3238   -2.2477 C   0  0  0  0  0  0  0  0  0  0  0  0
   16.8573   26.0291   -2.2968 C   0  0  0  0  0  0  0  0  0  0  0  0
   16.9885   27.0168   -3.2513 C   0  0  0  0  0  0  0  0  0  0  0  0
   18.5018   27.8869   -3.2835 Cl  0  0  0  0  0  0  0  0  0  0  0  0
   15.9600   27.2920   -4.1351 C   0  0  0  0  0  0  0  0  0  0  0  0
   16.2123   28.5712   -5.3208 Cl  0  0  0  0  0  0  0  0  0  0  0  0
   13.9278   26.8533   -6.3770 O   0  0  0  0  0  0  0  0  0  0  0  0
   13.7235   26.8994   -5.0185 C   0  0  0  0  0  0  0  0  0  0  0  0
   12.6017   27.2215   -4.5618 O   0  0  0  0  0  0  0  0  0  0  0  0
   13.8975   27.6754   -6.9903 H   0  0  0  0  0  0  0  0  0  0  0  0
 25 26  1  0  0  0
 26 27  2  0  0  0
 26 17  1  0  0  0
 17 18  2  0  0  0
 18 19  1  0  0  0
 19 16  1  0  0  0
 16  1  1  0  0  0
  1  2  1  0  0  0
  2  3  2  0  0  0
  3  4  1  0  0  0
  4  5  2  0  0  0
  5  6  1  0  0  0
  6  7  1  0  0  0
  7  8  1  0  0  0
  8  9  1  0  0  0
  9 10  2  0  0  0
  6 11  1  0  0  0
 11 12  2  0  0  0
 11 13  1  0  0  0
 13 14  1  0  0  0
 14 15  1  0  0  0
 19 20  2  0  0  0
 20 21  1  0  0  0
 21 22  1  0  0  0
 21 23  2  0  0  0
 23 24  1  0  0  0
 23 17  1  0  0  0
 10  2  1  0  0  0
 15 13  1  0  0  0
  9  5  1  0  0  0
 25 28  1  0  0  0
M  END
> <minimizedAffinity>
-8.07770

> <CNNscore>
0.5547994971

> <CNNaffinity>
6.6489706039

> <CNN_VS>
3.6888456345

> <CNNaffinity_variance>
0.2911798954

$$$$
[H]OC(=O)c1c([H])c(OC([H])([H])c2c([H])c([H])c3c(c2[H])C([H])([H])C([H])([H])N3C(=O)C2([H])C([H])([H])C2([H])[H])c([H])c(Cl)c1Cl


 28 31  0  0  0  0  0  0  0  0999 V2000
   15.3632   22.3910   -2.8068 C   0  0  0  0  0  0  0  0  0  0  0  0
   14.3527   22.4206   -1.7275 C   0  0  0  0  0  0  0  0  0  0  0  0
   14.3734   21.4329   -0.7668 C   0  0  0  0  0  0  0  0  0  0  0  0
   13.4351   21.4411    0.2360 C   0  0  0  0  0  0  0  0  0  0  0  0
   12.4499   22.3993    0.3440 C   0  0  0  0  0  0  0  0  0  0  0  0
   11.4033   22.5886    1.2860 N   0  0  0  0  0  0  0  0  0  0  0  0
   11.0202   23.9882    1.1537 C   0  0  0  0  0  0  0  0  0  0  0  0
   11.2907   24.2710   -0.2886 C   0  0  0  0  0  0  0  0  0  0  0  0
   12.4298   23.3781   -0.6091 C   0  0  0  0  0  0  0  0  0  0  0  0
   13.3651   23.3918   -1.6305 C   0  0  0  0  0  0  0  0  0  0  0  0
   10.8533   21.6268    2.1739 C   0  0  0  0  0  0  0  0  0  0  0  0
   11.3346   20.4715    2.1440 O   0  0  0  0  0  0  0  0  0  0  0  0
    9.7604   21.9080    3.1199 C   0  0  0  0  0  0  0  0  0  0  0  0
    8.3834   21.4892    2.6386 C   0  0  0  0  0  0  0  0  0  0  0  0
    9.0113   20.8020    3.7725 C   0  0  0  0  0  0  0  0  0  0  0  0
   16.3264   23.4197   -2.6942 O   0  0  0  0  0  0  0  0  0  0  0  0
   14.3940   26.3096   -3.7857 C   0  0  0  0  0  0  0  0  0  0  0  0
   14.6953   25.0649   -3.3286 C   0  0  0  0  0  0  0  0  0  0  0  0
   16.0052   24.6782   -3.1571 C   0  0  0  0  0  0  0  0  0  0  0  0
   17.0372   25.5481   -3.4454 C   0  0  0  0  0  0  0  0  0  0  0  0
   16.7171   26.8081   -3.9076 C   0  0  0  0  0  0  0  0  0  0  0  0
   18.0487   27.8802   -4.2623 Cl  0  0  0  0  0  0  0  0  0  0  0  0
   15.3977   27.1887   -4.0777 C   0  0  0  0  0  0  0  0  0  0  0  0
   15.0796   28.8175   -4.6709 Cl  0  0  0  0  0  0  0  0  0  0  0  0
   12.0816   26.6775   -2.9582 O   0  0  0  0  0  0  0  0  0  0  0  0
   13.0038   26.7469   -3.9751 C   0  0  0  0  0  0  0  0  0  0  0  0
   12.6690   27.1897   -5.0987 O   0  0  0  0  0  0  0  0  0  0  0  0
   11.2583   26.0651   -2.9707 H   0  0  0  0  0  0  0  0  0  0  0  0
 25 26  1  0  0  0
 26 27  2  0  0  0
 26 17  1  0  0  0
 17 18  2  0  0  0
 18 19  1  0  0  0
 19 16  1  0  0  0
 16  1  1  0  0  0
  1  2  1  0  0  0
  2  3  2  0  0  0
  3  4  1  0  0  0
  4  5  2  0  0  0
  5  6  1  0  0  0
  6  7  1  0  0  0
  7  8  1  0  0  0
  8  9  1  0  0  0
  9 10  2  0  0  0
  6 11  1  0  0  0
 11 12  2  0  0  0
 11 13  1  0  0  0
 13 14  1  0  0  0
 14 15  1  0  0  0
 19 20  2  0  0  0
 20 21  1  0  0  0
 21 22  1  0  0  0
 21 23  2  0  0  0
 23 24  1  0  0  0
 23 17  1  0  0  0
 10  2  1  0  0  0
 15 13  1  0  0  0
  9  5  1  0  0  0
 25 28  1  0  0  0
M  END
> <minimizedAffinity>
-3.03741

> <CNNscore>
0.4674164057

> <CNNaffinity>
6.7565360069

> <CNN_VS>
3.1581158638

> <CNNaffinity_variance>
0.4833742678

$$$$
[H]OC(=O)c1c([H])c(OC([H])([H])c2c([H])c([H])c3c(c2[H])C([H])([H])C([H])([H])N3C(=O)C2([H])C([H])([H])C2([H])[H])c([H])c(Cl)c1Cl


 28 31  0  0  0  0  0  0  0  0999 V2000
   11.6244   25.6417   -0.4058 C   0  0  0  0  0  0  0  0  0  0  0  0
   12.4433   26.0018   -1.5833 C   0  0  0  0  0  0  0  0  0  0  0  0
   13.3730   27.0122   -1.4658 C   0  0  0  0  0  0  0  0  0  0  0  0
   14.1338   27.3649   -2.5534 C   0  0  0  0  0  0  0  0  0  0  0  0
   14.0227   26.7562   -3.7853 C   0  0  0  0  0  0  0  0  0  0  0  0
   14.7013   26.9642   -5.0161 N   0  0  0  0  0  0  0  0  0  0  0  0
   14.4990   25.7367   -5.7748 C   0  0  0  0  0  0  0  0  0  0  0  0
   13.1602   25.2711   -5.3012 C   0  0  0  0  0  0  0  0  0  0  0  0
   13.1005   25.7547   -3.9011 C   0  0  0  0  0  0  0  0  0  0  0  0
   12.3211   25.3805   -2.8190 C   0  0  0  0  0  0  0  0  0  0  0  0
   15.4294   28.1143   -5.4196 C   0  0  0  0  0  0  0  0  0  0  0  0
   15.4989   29.0670   -4.6105 O   0  0  0  0  0  0  0  0  0  0  0  0
   16.1022   28.2490   -6.7225 C   0  0  0  0  0  0  0  0  0  0  0  0
   17.4415   27.5419   -6.8194 C   0  0  0  0  0  0  0  0  0  0  0  0
   16.2973   27.0701   -7.6071 C   0  0  0  0  0  0  0  0  0  0  0  0
   12.3994   25.2880    0.7225 O   0  0  0  0  0  0  0  0  0  0  0  0
   16.0196   25.0785    1.0787 C   0  0  0  0  0  0  0  0  0  0  0  0
   14.7297   25.4587    1.2796 C   0  0  0  0  0  0  0  0  0  0  0  0
   13.7122   24.9128    0.5303 C   0  0  0  0  0  0  0  0  0  0  0  0
   13.9833   23.9681   -0.4387 C   0  0  0  0  0  0  0  0  0  0  0  0
   15.2965   23.5909   -0.6314 C   0  0  0  0  0  0  0  0  0  0  0  0
   15.6007   22.3945   -1.8661 Cl  0  0  0  0  0  0  0  0  0  0  0  0
   16.3134   24.1450    0.1259 C   0  0  0  0  0  0  0  0  0  0  0  0
   17.9616   23.6042   -0.1856 Cl  0  0  0  0  0  0  0  0  0  0  0  0
   18.3472   25.0241    1.9429 O   0  0  0  0  0  0  0  0  0  0  0  0
   17.1231   25.6448    1.8670 C   0  0  0  0  0  0  0  0  0  0  0  0
   16.9240   26.7199    2.4795 O   0  0  0  0  0  0  0  0  0  0  0  0
   18.7348   24.6226    2.8040 H   0  0  0  0  0  0  0  0  0  0  0  0
 25 26  1  0  0  0
 26 27  2  0  0  0
 26 17  1  0  0  0
 17 18  2  0  0  0
 18 19  1  0  0  0
 19 16  1  0  0  0
 16  1  1  0  0  0
  1  2  1  0  0  0
  2  3  2  0  0  0
  3  4  1  0  0  0
  4  5  2  0  0  0
  5  6  1  0  0  0
  6  7  1  0  0  0
  7  8  1  0  0  0
  8  9  1  0  0  0
  9 10  2  0  0  0
  6 11  1  0  0  0
 11 12  2  0  0  0
 11 13  1  0  0  0
 13 14  1  0  0  0
 14 15  1  0  0  0
 19 20  2  0  0  0
 20 21  1  0  0  0
 21 22  1  0  0  0
 21 23  2  0  0  0
 23 24  1  0  0  0
 23 17  1  0  0  0
 10  2  1  0  0  0
 15 13  1  0  0  0
  9  5  1  0  0  0
 25 28  1  0  0  0
M  END
> <minimizedAffinity>
28.18816

> <CNNscore>
0.4666266739

> <CNNaffinity>
6.4775605202

> <CNN_VS>
3.0226025581

> <CNNaffinity_variance>
1.0259592533

$$$$
[H]OC(=O)c1c([H])c(OC([H])([H])c2c([H])c([H])c3c(c2[H])C([H])([H])C([H])([H])N3C(=O)C2([H])C([H])([H])C2([H])[H])c([H])c(Cl)c1Cl


 28 31  0  0  0  0  0  0  0  0999 V2000
   15.3261   24.8356   -0.0572 C   0  0  0  0  0  0  0  0  0  0  0  0
   14.0296   24.1332    0.0545 C   0  0  0  0  0  0  0  0  0  0  0  0
   12.8737   24.8773    0.1506 C   0  0  0  0  0  0  0  0  0  0  0  0
   11.6629   24.2395    0.2653 C   0  0  0  0  0  0  0  0  0  0  0  0
   11.5285   22.8678    0.2908 C   0  0  0  0  0  0  0  0  0  0  0  0
   10.3913   22.0231    0.3994 N   0  0  0  0  0  0  0  0  0  0  0  0
   10.8286   20.7284   -0.1065 C   0  0  0  0  0  0  0  0  0  0  0  0
   12.2783   20.7035    0.2557 C   0  0  0  0  0  0  0  0  0  0  0  0
   12.6750   22.1306    0.1958 C   0  0  0  0  0  0  0  0  0  0  0  0
   13.9083   22.7502    0.0793 C   0  0  0  0  0  0  0  0  0  0  0  0
    9.1021   22.3654    0.8858 C   0  0  0  0  0  0  0  0  0  0  0  0
    8.9220   23.5450    1.2642 O   0  0  0  0  0  0  0  0  0  0  0  0
    7.9748   21.4214    0.9687 C   0  0  0  0  0  0  0  0  0  0  0  0
    6.7861   21.7767    0.0948 C   0  0  0  0  0  0  0  0  0  0  0  0
    7.5907   20.5857   -0.1992 C   0  0  0  0  0  0  0  0  0  0  0  0
   16.0088   24.5531   -1.2625 O   0  0  0  0  0  0  0  0  0  0  0  0
   14.9222   26.6419   -4.0434 C   0  0  0  0  0  0  0  0  0  0  0  0
   14.9078   25.6990   -3.0638 C   0  0  0  0  0  0  0  0  0  0  0  0
   16.0083   25.5051   -2.2601 C   0  0  0  0  0  0  0  0  0  0  0  0
   17.1469   26.2657   -2.4336 C   0  0  0  0  0  0  0  0  0  0  0  0
   17.1474   27.2194   -3.4308 C   0  0  0  0  0  0  0  0  0  0  0  0
   18.6051   28.1614   -3.6209 Cl  0  0  0  0  0  0  0  0  0  0  0  0
   16.0370   27.4076   -4.2347 C   0  0  0  0  0  0  0  0  0  0  0  0
   16.1237   28.6490   -5.4827 Cl  0  0  0  0  0  0  0  0  0  0  0  0
   12.5333   27.2198   -4.3997 O   0  0  0  0  0  0  0  0  0  0  0  0
   13.7595   26.8696   -4.9129 C   0  0  0  0  0  0  0  0  0  0  0  0
   13.9083   26.7349   -6.1500 O   0  0  0  0  0  0  0  0  0  0  0  0
   11.6987   26.6249   -4.4504 H   0  0  0  0  0  0  0  0  0  0  0  0
 25 26  1  0  0  0
 26 27  2  0  0  0
 26 17  1  0  0  0
 17 18  2  0  0  0
 18 19  1  0  0  0
 19 16  1  0  0  0
 16  1  1  0  0  0
  1  2  1  0  0  0
  2  3  2  0  0  0
  3  4  1  0  0  0
  4  5  2  0  0  0
  5  6  1  0  0  0
  6  7  1  0  0  0
  7  8  1  0  0  0
  8  9  1  0  0  0
  9 10  2  0  0  0
  6 11  1  0  0  0
 11 12  2  0  0  0
 11 13  1  0  0  0
 13 14  1  0  0  0
 14 15  1  0  0  0
 19 20  2  0  0  0
 20 21  1  0  0  0
 21 22  1  0  0  0
 21 23  2  0  0  0
 23 24  1  0  0  0
 23 17  1  0  0  0
 10  2  1  0  0  0
 15 13  1  0  0  0
  9  5  1  0  0  0
 25 28  1  0  0  0
M  END
> <minimizedAffinity>
-7.89888

> <CNNscore>
0.4592727423

> <CNNaffinity>
6.8414649963

> <CNN_VS>
3.1420984268

> <CNNaffinity_variance>
0.3207338750

$$$$
[H]OC(=O)c1c([H])c(OC([H])([H])c2c([H])c([H])c3c(c2[H])C([H])([H])C([H])([H])N3C(=O)C2([H])C([H])([H])C2([H])[H])c([H])c(Cl)c1Cl


 28 31  0  0  0  0  0  0  0  0999 V2000
   10.8719   23.0711    0.3190 C   0  0  0  0  0  0  0  0  0  0  0  0
   11.8269   23.6414   -0.6555 C   0  0  0  0  0  0  0  0  0  0  0  0
   11.6374   24.9326   -1.0980 C   0  0  0  0  0  0  0  0  0  0  0  0
   12.5100   25.4726   -2.0108 C   0  0  0  0  0  0  0  0  0  0  0  0
   13.5898   24.7866   -2.5244 C   0  0  0  0  0  0  0  0  0  0  0  0
   14.5956   25.1535   -3.4584 N   0  0  0  0  0  0  0  0  0  0  0  0
   15.6884   24.2172   -3.2287 C   0  0  0  0  0  0  0  0  0  0  0  0
   14.9776   22.9820   -2.7789 C   0  0  0  0  0  0  0  0  0  0  0  0
   13.7768   23.5064   -2.0855 C   0  0  0  0  0  0  0  0  0  0  0  0
   12.9108   22.9391   -1.1653 C   0  0  0  0  0  0  0  0  0  0  0  0
   14.5534   26.2101   -4.4058 C   0  0  0  0  0  0  0  0  0  0  0  0
   13.5209   26.9172   -4.4364 O   0  0  0  0  0  0  0  0  0  0  0  0
   15.6447   26.5196   -5.3447 C   0  0  0  0  0  0  0  0  0  0  0  0
   15.5338   25.8320   -6.6930 C   0  0  0  0  0  0  0  0  0  0  0  0
   15.3856   27.2880   -6.5908 C   0  0  0  0  0  0  0  0  0  0  0  0
   11.0304   23.5937    1.6230 O   0  0  0  0  0  0  0  0  0  0  0  0
    7.8790   23.2581    3.4211 C   0  0  0  0  0  0  0  0  0  0  0  0
    8.9876   22.9366    2.7023 C   0  0  0  0  0  0  0  0  0  0  0  0
    9.9015   23.9042    2.3514 C   0  0  0  0  0  0  0  0  0  0  0  0
    9.7093   25.2192    2.7238 C   0  0  0  0  0  0  0  0  0  0  0  0
    8.5806   25.5312    3.4536 C   0  0  0  0  0  0  0  0  0  0  0  0
    8.3710   27.2044    3.9060 Cl  0  0  0  0  0  0  0  0  0  0  0  0
    7.6666   24.5524    3.8019 C   0  0  0  0  0  0  0  0  0  0  0  0
    6.2538   25.0390    4.7365 Cl  0  0  0  0  0  0  0  0  0  0  0  0
    6.9133   21.6521    5.0508 O   0  0  0  0  0  0  0  0  0  0  0  0
    6.8899   22.2431    3.8099 C   0  0  0  0  0  0  0  0  0  0  0  0
    6.0120   21.9200    2.9759 O   0  0  0  0  0  0  0  0  0  0  0  0
    7.1079   20.6571    5.2091 H   0  0  0  0  0  0  0  0  0  0  0  0
 25 26  1  0  0  0
 26 27  2  0  0  0
 26 17  1  0  0  0
 17 18  2  0  0  0
 18 19  1  0  0  0
 19 16  1  0  0  0
 16  1  1  0  0  0
  1  2  1  0  0  0
  2  3  2  0  0  0
  3  4  1  0  0  0
  4  5  2  0  0  0
  5  6  1  0  0  0
  6  7  1  0  0  0
  7  8  1  0  0  0
  8  9  1  0  0  0
  9 10  2  0  0  0
  6 11  1  0  0  0
 11 12  2  0  0  0
 11 13  1  0  0  0
 13 14  1  0  0  0
 14 15  1  0  0  0
 19 20  2  0  0  0
 20 21  1  0  0  0
 21 22  1  0  0  0
 21 23  2  0  0  0
 23 24  1  0  0  0
 23 17  1  0  0  0
 10  2  1  0  0  0
 15 13  1  0  0  0
  9  5  1  0  0  0
 25 28  1  0  0  0
M  END
> <minimizedAffinity>
-9.28532

> <CNNscore>
0.4532935321

> <CNNaffinity>
6.2912774086

> <CNN_VS>
2.8517954350

> <CNNaffinity_variance>
0.1617265046

$$$$
[H]OC(=O)c1c([H])c(OC([H])([H])c2c([H])c([H])c3c(c2[H])C([H])([H])C([H])([H])N3C(=O)C2([H])C([H])([H])C2([H])[H])c([H])c(Cl)c1Cl


 28 31  0  0  0  0  0  0  0  0999 V2000
   14.9209   22.1765   -2.1315 C   0  0  0  0  0  0  0  0  0  0  0  0
   13.5627   22.0880   -1.5534 C   0  0  0  0  0  0  0  0  0  0  0  0
   13.0736   20.8536   -1.1847 C   0  0  0  0  0  0  0  0  0  0  0  0
   11.8101   20.7540   -0.6559 C   0  0  0  0  0  0  0  0  0  0  0  0
   10.9804   21.8385   -0.4663 C   0  0  0  0  0  0  0  0  0  0  0  0
    9.6642   21.9520    0.0564 N   0  0  0  0  0  0  0  0  0  0  0  0
    9.5262   23.3508    0.4407 C   0  0  0  0  0  0  0  0  0  0  0  0
   10.4018   24.0534   -0.5457 C   0  0  0  0  0  0  0  0  0  0  0  0
   11.4659   23.0620   -0.8324 C   0  0  0  0  0  0  0  0  0  0  0  0
   12.7370   23.1887   -1.3680 C   0  0  0  0  0  0  0  0  0  0  0  0
    8.6931   20.9245    0.1873 C   0  0  0  0  0  0  0  0  0  0  0  0
    9.0139   19.7752   -0.1913 O   0  0  0  0  0  0  0  0  0  0  0  0
    7.3434   21.1311    0.7388 C   0  0  0  0  0  0  0  0  0  0  0  0
    6.2627   21.3598   -0.3018 C   0  0  0  0  0  0  0  0  0  0  0  0
    6.2631   20.1362    0.5076 C   0  0  0  0  0  0  0  0  0  0  0  0
   14.9226   22.5791   -3.4867 O   0  0  0  0  0  0  0  0  0  0  0  0
   15.4088   25.6914   -5.3182 C   0  0  0  0  0  0  0  0  0  0  0  0
   15.0451   24.4125   -5.0339 C   0  0  0  0  0  0  0  0  0  0  0  0
   15.2858   23.8743   -3.7900 C   0  0  0  0  0  0  0  0  0  0  0  0
   15.9004   24.6243   -2.8079 C   0  0  0  0  0  0  0  0  0  0  0  0
   16.2634   25.9208   -3.1097 C   0  0  0  0  0  0  0  0  0  0  0  0
   17.0391   26.8382   -1.8428 Cl  0  0  0  0  0  0  0  0  0  0  0  0
   16.0182   26.4540   -4.3628 C   0  0  0  0  0  0  0  0  0  0  0  0
   16.5134   28.1188   -4.6615 Cl  0  0  0  0  0  0  0  0  0  0  0  0
   15.9850   26.0389   -7.7087 O   0  0  0  0  0  0  0  0  0  0  0  0
   15.1609   26.2894   -6.6375 C   0  0  0  0  0  0  0  0  0  0  0  0
   14.1698   27.0450   -6.7697 O   0  0  0  0  0  0  0  0  0  0  0  0
   16.5691   26.7503   -8.1623 H   0  0  0  0  0  0  0  0  0  0  0  0
 25 26  1  0  0  0
 26 27  2  0  0  0
 26 17  1  0  0  0
 17 18  2  0  0  0
 18 19  1  0  0  0
 19 16  1  0  0  0
 16  1  1  0  0  0
  1  2  1  0  0  0
  2  3  2  0  0  0
  3  4  1  0  0  0
  4  5  2  0  0  0
  5  6  1  0  0  0
  6  7  1  0  0  0
  7  8  1  0  0  0
  8  9  1  0  0  0
  9 10  2  0  0  0
  6 11  1  0  0  0
 11 12  2  0  0  0
 11 13  1  0  0  0
 13 14  1  0  0  0
 14 15  1  0  0  0
 19 20  2  0  0  0
 20 21  1  0  0  0
 21 22  1  0  0  0
 21 23  2  0  0  0
 23 24  1  0  0  0
 23 17  1  0  0  0
 10  2  1  0  0  0
 15 13  1  0  0  0
  9  5  1  0  0  0
 25 28  1  0  0  0
M  END
> <minimizedAffinity>
-8.53321

> <CNNscore>
0.4425182641

> <CNNaffinity>
6.8158159256

> <CNN_VS>
3.0161230564

> <CNNaffinity_variance>
0.0523735508

$$$$
[H]OC(=O)c1c([H])c(OC([H])([H])c2c([H])c([H])c3c(c2[H])C([H])([H])C([H])([H])N3C(=O)C2([H])C([H])([H])C2([H])[H])c([H])c(Cl)c1Cl


 28 31  0  0  0  0  0  0  0  0999 V2000
   14.9202   22.2704   -2.0570 C   0  0  0  0  0  0  0  0  0  0  0  0
   13.5927   22.2469   -1.4059 C   0  0  0  0  0  0  0  0  0  0  0  0
   13.0533   23.4292   -0.9476 C   0  0  0  0  0  0  0  0  0  0  0  0
   11.8258   23.4220   -0.3316 C   0  0  0  0  0  0  0  0  0  0  0  0
   11.0817   22.2777   -0.1384 C   0  0  0  0  0  0  0  0  0  0  0  0
    9.8136   22.0552    0.4624 N   0  0  0  0  0  0  0  0  0  0  0  0
    9.3668   20.7689   -0.0563 C   0  0  0  0  0  0  0  0  0  0  0  0
   10.6499   20.0316   -0.2645 C   0  0  0  0  0  0  0  0  0  0  0  0
   11.6174   21.1058   -0.5928 C   0  0  0  0  0  0  0  0  0  0  0  0
   12.8535   21.0867   -1.2174 C   0  0  0  0  0  0  0  0  0  0  0  0
    9.1226   22.9051    1.3657 C   0  0  0  0  0  0  0  0  0  0  0  0
    9.6741   23.9841    1.6800 O   0  0  0  0  0  0  0  0  0  0  0  0
    7.8063   22.5936    1.9477 C   0  0  0  0  0  0  0  0  0  0  0  0
    7.8536   21.7252    3.1913 C   0  0  0  0  0  0  0  0  0  0  0  0
    7.4159   23.1226    3.2811 C   0  0  0  0  0  0  0  0  0  0  0  0
   14.8657   22.6569   -3.4158 O   0  0  0  0  0  0  0  0  0  0  0  0
   15.3946   25.7138   -5.3269 C   0  0  0  0  0  0  0  0  0  0  0  0
   15.0085   24.4496   -5.0081 C   0  0  0  0  0  0  0  0  0  0  0  0
   15.2513   23.9368   -3.7540 C   0  0  0  0  0  0  0  0  0  0  0  0
   15.8908   24.6977   -2.7964 C   0  0  0  0  0  0  0  0  0  0  0  0
   16.2763   25.9790   -3.1332 C   0  0  0  0  0  0  0  0  0  0  0  0
   17.0830   26.9110   -1.8966 Cl  0  0  0  0  0  0  0  0  0  0  0  0
   16.0288   26.4867   -4.3964 C   0  0  0  0  0  0  0  0  0  0  0  0
   16.5538   28.1336   -4.7403 Cl  0  0  0  0  0  0  0  0  0  0  0  0
   15.9678   26.0124   -7.7248 O   0  0  0  0  0  0  0  0  0  0  0  0
   15.1450   26.2847   -6.6579 C   0  0  0  0  0  0  0  0  0  0  0  0
   14.1537   27.0373   -6.8043 O   0  0  0  0  0  0  0  0  0  0  0  0
   16.5512   26.7145   -8.1935 H   0  0  0  0  0  0  0  0  0  0  0  0
 25 26  1  0  0  0
 26 27  2  0  0  0
 26 17  1  0  0  0
 17 18  2  0  0  0
 18 19  1  0  0  0
 19 16  1  0  0  0
 16  1  1  0  0  0
  1  2  1  0  0  0
  2  3  2  0  0  0
  3  4  1  0  0  0
  4  5  2  0  0  0
  5  6  1  0  0  0
  6  7  1  0  0  0
  7  8  1  0  0  0
  8  9  1  0  0  0
  9 10  2  0  0  0
  6 11  1  0  0  0
 11 12  2  0  0  0
 11 13  1  0  0  0
 13 14  1  0  0  0
 14 15  1  0  0  0
 19 20  2  0  0  0
 20 21  1  0  0  0
 21 22  1  0  0  0
 21 23  2  0  0  0
 23 24  1  0  0  0
 23 17  1  0  0  0
 10  2  1  0  0  0
 15 13  1  0  0  0
  9  5  1  0  0  0
 25 28  1  0  0  0
M  END
> <minimizedAffinity>
-8.08790

> <CNNscore>
0.4164529145

> <CNNaffinity>
6.8464927673

> <CNN_VS>
2.8512418270

> <CNNaffinity_variance>
0.1611965001

$$$$
[H]OC(=O)c1c([H])c(OC([H])([H])c2c([H])c([H])c3c(c2[H])C([H])([H])C([H])([H])N3C(=O)C2([H])C([H])([H])C2([H])[H])c([H])c(Cl)c1Cl


 28 31  0  0  0  0  0  0  0  0999 V2000
   15.0099   22.1541   -2.0765 C   0  0  0  0  0  0  0  0  0  0  0  0
   13.9059   22.2508   -1.0974 C   0  0  0  0  0  0  0  0  0  0  0  0
   13.8748   21.3706   -0.0377 C   0  0  0  0  0  0  0  0  0  0  0  0
   12.8503   21.4413    0.8742 C   0  0  0  0  0  0  0  0  0  0  0  0
   11.8261   22.3605    0.7933 C   0  0  0  0  0  0  0  0  0  0  0  0
   10.6929   22.5999    1.6161 N   0  0  0  0  0  0  0  0  0  0  0  0
   10.2740   23.9597    1.3013 C   0  0  0  0  0  0  0  0  0  0  0  0
   10.6632   24.1024   -0.1345 C   0  0  0  0  0  0  0  0  0  0  0  0
   11.8574   23.2327   -0.2579 C   0  0  0  0  0  0  0  0  0  0  0  0
   12.8799   23.1817   -1.1908 C   0  0  0  0  0  0  0  0  0  0  0  0
   10.0995   21.7123    2.5520 C   0  0  0  0  0  0  0  0  0  0  0  0
   10.6220   20.5829    2.6881 O   0  0  0  0  0  0  0  0  0  0  0  0
    8.9165   22.0414    3.3648 C   0  0  0  0  0  0  0  0  0  0  0  0
    7.5884   21.6852    2.7228 C   0  0  0  0  0  0  0  0  0  0  0  0
    8.0476   20.9696    3.9183 C   0  0  0  0  0  0  0  0  0  0  0  0
   14.6748   22.6801   -3.3452 O   0  0  0  0  0  0  0  0  0  0  0  0
   15.3658   25.7118   -5.2448 C   0  0  0  0  0  0  0  0  0  0  0  0
   14.9111   24.4696   -4.9301 C   0  0  0  0  0  0  0  0  0  0  0  0
   15.1300   23.9382   -3.6793 C   0  0  0  0  0  0  0  0  0  0  0  0
   15.8148   24.6576   -2.7211 C   0  0  0  0  0  0  0  0  0  0  0  0
   16.2698   25.9171   -3.0538 C   0  0  0  0  0  0  0  0  0  0  0  0
   17.1323   26.7967   -1.8165 Cl  0  0  0  0  0  0  0  0  0  0  0  0
   16.0460   26.4437   -4.3136 C   0  0  0  0  0  0  0  0  0  0  0  0
   16.6606   28.0603   -4.6523 Cl  0  0  0  0  0  0  0  0  0  0  0  0
   15.9962   26.0579   -7.6219 O   0  0  0  0  0  0  0  0  0  0  0  0
   15.1430   26.3021   -6.5721 C   0  0  0  0  0  0  0  0  0  0  0  0
   14.1464   27.0450   -6.7314 O   0  0  0  0  0  0  0  0  0  0  0  0
   16.5825   26.7748   -8.0638 H   0  0  0  0  0  0  0  0  0  0  0  0
 25 26  1  0  0  0
 26 27  2  0  0  0
 26 17  1  0  0  0
 17 18  2  0  0  0
 18 19  1  0  0  0
 19 16  1  0  0  0
 16  1  1  0  0  0
  1  2  1  0  0  0
  2  3  2  0  0  0
  3  4  1  0  0  0
  4  5  2  0  0  0
  5  6  1  0  0  0
  6  7  1  0  0  0
  7  8  1  0  0  0
  8  9  1  0  0  0
  9 10  2  0  0  0
  6 11  1  0  0  0
 11 12  2  0  0  0
 11 13  1  0  0  0
 13 14  1  0  0  0
 14 15  1  0  0  0
 19 20  2  0  0  0
 20 21  1  0  0  0
 21 22  1  0  0  0
 21 23  2  0  0  0
 23 24  1  0  0  0
 23 17  1  0  0  0
 10  2  1  0  0  0
 15 13  1  0  0  0
  9  5  1  0  0  0
 25 28  1  0  0  0
M  END
> <minimizedAffinity>
-8.02859

> <CNNscore>
0.4159245491

> <CNNaffinity>
6.9900693893

> <CNN_VS>
2.9073414803

> <CNNaffinity_variance>
0.1976567358

$$$$
[H]OC(=O)c1c([H])c(OC([H])([H])c2c([H])c([H])c3c(c2[H])C([H])([H])C([H])([H])N3C(=O)C2([H])C([H])([H])C2([H])[H])c([H])c(Cl)c1Cl


 28 31  0  0  0  0  0  0  0  0999 V2000
   13.4080   22.6065   -0.1335 C   0  0  0  0  0  0  0  0  0  0  0  0
   12.3061   22.9593    0.7875 C   0  0  0  0  0  0  0  0  0  0  0  0
   11.6759   24.1757    0.6389 C   0  0  0  0  0  0  0  0  0  0  0  0
   10.6578   24.5220    1.4930 C   0  0  0  0  0  0  0  0  0  0  0  0
   10.2162   23.7086    2.5147 C   0  0  0  0  0  0  0  0  0  0  0  0
    9.1971   23.8724    3.4910 N   0  0  0  0  0  0  0  0  0  0  0  0
    8.8944   22.5248    3.9554 C   0  0  0  0  0  0  0  0  0  0  0  0
   10.2067   21.8236    3.8162 C   0  0  0  0  0  0  0  0  0  0  0  0
   10.8418   22.5029    2.6617 C   0  0  0  0  0  0  0  0  0  0  0  0
   11.8712   22.1305    1.8131 C   0  0  0  0  0  0  0  0  0  0  0  0
    8.5937   25.0847    3.9175 C   0  0  0  0  0  0  0  0  0  0  0  0
    8.9866   26.1453    3.3811 O   0  0  0  0  0  0  0  0  0  0  0  0
    7.5412   25.1651    4.9443 C   0  0  0  0  0  0  0  0  0  0  0  0
    6.2946   25.9168    4.5154 C   0  0  0  0  0  0  0  0  0  0  0  0
    6.2394   24.4713    4.7600 C   0  0  0  0  0  0  0  0  0  0  0  0
   14.2774   23.6889   -0.3998 O   0  0  0  0  0  0  0  0  0  0  0  0
   14.9732   25.5579   -3.4494 C   0  0  0  0  0  0  0  0  0  0  0  0
   14.6705   25.2838   -2.1524 C   0  0  0  0  0  0  0  0  0  0  0  0
   14.5832   23.9827   -1.7119 C   0  0  0  0  0  0  0  0  0  0  0  0
   14.8024   22.9318   -2.5794 C   0  0  0  0  0  0  0  0  0  0  0  0
   15.1095   23.2243   -3.8924 C   0  0  0  0  0  0  0  0  0  0  0  0
   15.3794   21.8696   -4.9603 Cl  0  0  0  0  0  0  0  0  0  0  0  0
   15.1949   24.5352   -4.3272 C   0  0  0  0  0  0  0  0  0  0  0  0
   15.5940   24.8177   -6.0204 Cl  0  0  0  0  0  0  0  0  0  0  0  0
   16.2774   27.6019   -3.9865 O   0  0  0  0  0  0  0  0  0  0  0  0
   15.0744   26.9382   -3.9435 C   0  0  0  0  0  0  0  0  0  0  0  0
   14.0274   27.5086   -4.3294 O   0  0  0  0  0  0  0  0  0  0  0  0
   16.4988   28.4263   -3.4170 H   0  0  0  0  0  0  0  0  0  0  0  0
 25 26  1  0  0  0
 26 27  2  0  0  0
 26 17  1  0  0  0
 17 18  2  0  0  0
 18 19  1  0  0  0
 19 16  1  0  0  0
 16  1  1  0  0  0
  1  2  1  0  0  0
  2  3  2  0  0  0
  3  4  1  0  0  0
  4  5  2  0  0  0
  5  6  1  0  0  0
  6  7  1  0  0  0
  7  8  1  0  0  0
  8  9  1  0  0  0
  9 10  2  0  0  0
  6 11  1  0  0  0
 11 12  2  0  0  0
 11 13  1  0  0  0
 13 14  1  0  0  0
 14 15  1  0  0  0
 19 20  2  0  0  0
 20 21  1  0  0  0
 21 22  1  0  0  0
 21 23  2  0  0  0
 23 24  1  0  0  0
 23 17  1  0  0  0
 10  2  1  0  0  0
 15 13  1  0  0  0
  9  5  1  0  0  0
 25 28  1  0  0  0
M  END
> <minimizedAffinity>
-6.57510

> <CNNscore>
0.4102161825

> <CNNaffinity>
6.4245781898

> <CNN_VS>
2.6354658604

> <CNNaffinity_variance>
0.4160742164

$$$$
[H]c1c([H])c([H])c(-c2c([H])c([H])c3oc(C(=O)C([H])([H])C([H])([H])SC([H])([H])c4c([H])c([H])c([H])c([H])c4[H])nc3c2[H])c([H])c1[H]


 27 30  0  0  0  0  0  0  0  0999 V2000
   12.4353   24.1689   -0.3878 C   0  0  0  0  0  0  0  0  0  0  0  0
   13.3306   23.8141   -1.3477 N   0  0  0  0  0  0  0  0  0  0  0  0
   13.4167   24.7814   -2.2797 C   0  0  0  0  0  0  0  0  0  0  0  0
   14.1695   24.8968   -3.4340 C   0  0  0  0  0  0  0  0  0  0  0  0
   14.0527   26.0233   -4.2155 C   0  0  0  0  0  0  0  0  0  0  0  0
   13.1746   27.0175   -3.8158 C   0  0  0  0  0  0  0  0  0  0  0  0
   12.4284   26.8822   -2.6537 C   0  0  0  0  0  0  0  0  0  0  0  0
   12.5331   25.7554   -1.8553 C   0  0  0  0  0  0  0  0  0  0  0  0
   11.9640   25.3630   -0.7272 O   0  0  0  0  0  0  0  0  0  0  0  0
   14.8569   26.1132   -5.4260 C   0  0  0  0  0  0  0  0  0  0  0  0
   14.9254   25.0224   -6.2547 C   0  0  0  0  0  0  0  0  0  0  0  0
   15.6846   25.0887   -7.4115 C   0  0  0  0  0  0  0  0  0  0  0  0
   16.3563   26.2369   -7.7155 C   0  0  0  0  0  0  0  0  0  0  0  0
   16.2781   27.3302   -6.8697 C   0  0  0  0  0  0  0  0  0  0  0  0
   15.5243   27.2662   -5.7197 C   0  0  0  0  0  0  0  0  0  0  0  0
   11.0457   23.7330    1.4414 O   0  0  0  0  0  0  0  0  0  0  0  0
   12.0583   23.3980    0.7893 C   0  0  0  0  0  0  0  0  0  0  0  0
   12.9083   22.2310    1.1657 C   0  0  0  0  0  0  0  0  0  0  0  0
   13.6622   21.6765    0.0003 C   0  0  0  0  0  0  0  0  0  0  0  0
   12.6712   20.2929   -0.6682 S   0  0  0  0  0  0  0  0  0  0  0  0
   11.1835   20.1534    0.3719 C   0  0  0  0  0  0  0  0  0  0  0  0
   10.0044   20.1782   -0.5382 C   0  0  0  0  0  0  0  0  0  0  0  0
    8.8464   19.5193   -0.1618 C   0  0  0  0  0  0  0  0  0  0  0  0
    7.7573   19.5587   -1.0332 C   0  0  0  0  0  0  0  0  0  0  0  0
    7.8242   20.2313   -2.2349 C   0  0  0  0  0  0  0  0  0  0  0  0
    8.9884   20.8679   -2.5658 C   0  0  0  0  0  0  0  0  0  0  0  0
   10.0911   20.8593   -1.7415 C   0  0  0  0  0  0  0  0  0  0  0  0
 16 17  2  0  0  0
 17 18  1  0  0  0
 18 19  1  0  0  0
 19 20  1  0  0  0
 20 21  1  0  0  0
 21 22  1  0  0  0
 22 23  2  0  0  0
 23 24  1  0  0  0
 24 25  2  0  0  0
 25 26  1  0  0  0
 26 27  2  0  0  0
 17  1  1  0  0  0
  1  2  2  0  0  0
  2  3  1  0  0  0
  3  4  2  0  0  0
  4  5  1  0  0  0
  5  6  2  0  0  0
  6  7  1  0  0  0
  7  8  2  0  0  0
  8  9  1  0  0  0
  5 10  1  0  0  0
 10 11  2  0  0  0
 11 12  1  0  0  0
 12 13  2  0  0  0
 13 14  1  0  0  0
 14 15  2  0  0  0
 27 22  1  0  0  0
  9  1  1  0  0  0
 15 10  1  0  0  0
  8  3  1  0  0  0
M  END
> <minimizedAffinity>
-4.23564

> <CNNscore>
0.4799912870

> <CNNaffinity>
6.5560531616

> <CNN_VS>
3.1468484402

> <CNNaffinity_variance>
0.3960215449

$$$$
[H]c1c([H])c([H])c(-c2c([H])c([H])c3oc(C(=O)C([H])([H])C([H])([H])SC([H])([H])c4c([H])c([H])c([H])c([H])c4[H])nc3c2[H])c([H])c1[H]


 27 30  0  0  0  0  0  0  0  0999 V2000
   11.2469   24.3927    0.8763 C   0  0  0  0  0  0  0  0  0  0  0  0
   11.1422   24.7828   -0.4220 N   0  0  0  0  0  0  0  0  0  0  0  0
   12.3615   24.8310   -0.9900 C   0  0  0  0  0  0  0  0  0  0  0  0
   12.7814   25.1637   -2.2648 C   0  0  0  0  0  0  0  0  0  0  0  0
   14.1218   25.1250   -2.5740 C   0  0  0  0  0  0  0  0  0  0  0  0
   15.0177   24.7492   -1.5865 C   0  0  0  0  0  0  0  0  0  0  0  0
   14.5756   24.4190   -0.3133 C   0  0  0  0  0  0  0  0  0  0  0  0
   13.2306   24.4526    0.0155 C   0  0  0  0  0  0  0  0  0  0  0  0
   12.5387   24.1982    1.1141 O   0  0  0  0  0  0  0  0  0  0  0  0
   14.5319   25.4835   -3.9243 C   0  0  0  0  0  0  0  0  0  0  0  0
   14.1238   26.6873   -4.4398 C   0  0  0  0  0  0  0  0  0  0  0  0
   14.5044   27.0467   -5.7223 C   0  0  0  0  0  0  0  0  0  0  0  0
   15.2810   26.2011   -6.4599 C   0  0  0  0  0  0  0  0  0  0  0  0
   15.6856   24.9892   -5.9268 C   0  0  0  0  0  0  0  0  0  0  0  0
   15.3082   24.6303   -4.6526 C   0  0  0  0  0  0  0  0  0  0  0  0
    9.8082   25.1848    2.5407 O   0  0  0  0  0  0  0  0  0  0  0  0
   10.1606   24.2178    1.8310 C   0  0  0  0  0  0  0  0  0  0  0  0
    9.5117   22.8770    1.9179 C   0  0  0  0  0  0  0  0  0  0  0  0
    8.8505   22.4807    0.6375 C   0  0  0  0  0  0  0  0  0  0  0  0
    9.6020   20.8976    0.1153 S   0  0  0  0  0  0  0  0  0  0  0  0
   10.8022   21.2863   -1.1972 C   0  0  0  0  0  0  0  0  0  0  0  0
   12.1629   21.0867   -0.6248 C   0  0  0  0  0  0  0  0  0  0  0  0
   12.3020   20.9102    0.7414 C   0  0  0  0  0  0  0  0  0  0  0  0
   13.5879   20.7255    1.2507 C   0  0  0  0  0  0  0  0  0  0  0  0
   14.6921   20.7178    0.4251 C   0  0  0  0  0  0  0  0  0  0  0  0
   14.5074   20.8962   -0.9181 C   0  0  0  0  0  0  0  0  0  0  0  0
   13.2602   21.0824   -1.4705 C   0  0  0  0  0  0  0  0  0  0  0  0
 16 17  2  0  0  0
 17 18  1  0  0  0
 18 19  1  0  0  0
 19 20  1  0  0  0
 20 21  1  0  0  0
 21 22  1  0  0  0
 22 23  2  0  0  0
 23 24  1  0  0  0
 24 25  2  0  0  0
 25 26  1  0  0  0
 26 27  2  0  0  0
 17  1  1  0  0  0
  1  2  2  0  0  0
  2  3  1  0  0  0
  3  4  2  0  0  0
  4  5  1  0  0  0
  5  6  2  0  0  0
  6  7  1  0  0  0
  7  8  2  0  0  0
  8  9  1  0  0  0
  5 10  1  0  0  0
 10 11  2  0  0  0
 11 12  1  0  0  0
 12 13  2  0  0  0
 13 14  1  0  0  0
 14 15  2  0  0  0
 27 22  1  0  0  0
  9  1  1  0  0  0
 15 10  1  0  0  0
  8  3  1  0  0  0
M  END
> <minimizedAffinity>
-8.98348

> <CNNscore>
0.4357153773

> <CNNaffinity>
7.0015425682

> <CNN_VS>
3.0506796837

> <CNNaffinity_variance>
0.0630511492

$$$$
[H]c1c([H])c([H])c(-c2c([H])c([H])c3oc(C(=O)C([H])([H])C([H])([H])SC([H])([H])c4c([H])c([H])c([H])c([H])c4[H])nc3c2[H])c([H])c1[H]


 27 30  0  0  0  0  0  0  0  0999 V2000
   14.2744   21.9404    0.0949 C   0  0  0  0  0  0  0  0  0  0  0  0
   14.0585   22.1888   -1.2245 N   0  0  0  0  0  0  0  0  0  0  0  0
   14.7032   23.3107   -1.5951 C   0  0  0  0  0  0  0  0  0  0  0  0
   14.7964   23.9734   -2.8052 C   0  0  0  0  0  0  0  0  0  0  0  0
   15.5421   25.1263   -2.8966 C   0  0  0  0  0  0  0  0  0  0  0  0
   16.1832   25.5911   -1.7600 C   0  0  0  0  0  0  0  0  0  0  0  0
   16.0769   24.9110   -0.5550 C   0  0  0  0  0  0  0  0  0  0  0  0
   15.3307   23.7495   -0.4448 C   0  0  0  0  0  0  0  0  0  0  0  0
   15.0573   22.9143    0.5442 O   0  0  0  0  0  0  0  0  0  0  0  0
   15.6182   25.8020   -4.1841 C   0  0  0  0  0  0  0  0  0  0  0  0
   15.3530   25.0840   -5.3223 C   0  0  0  0  0  0  0  0  0  0  0  0
   15.4194   25.7093   -6.5567 C   0  0  0  0  0  0  0  0  0  0  0  0
   15.7474   27.0319   -6.6287 C   0  0  0  0  0  0  0  0  0  0  0  0
   16.0126   27.7443   -5.4716 C   0  0  0  0  0  0  0  0  0  0  0  0
   15.9473   27.1245   -4.2441 C   0  0  0  0  0  0  0  0  0  0  0  0
   14.5404   19.9414    1.2782 O   0  0  0  0  0  0  0  0  0  0  0  0
   13.7540   20.8257    0.8751 C   0  0  0  0  0  0  0  0  0  0  0  0
   12.2899   20.7914    1.1600 C   0  0  0  0  0  0  0  0  0  0  0  0
   11.9728   21.2047    2.5609 C   0  0  0  0  0  0  0  0  0  0  0  0
   10.5760   22.3811    2.4682 S   0  0  0  0  0  0  0  0  0  0  0  0
   10.0737   22.4732    0.7207 C   0  0  0  0  0  0  0  0  0  0  0  0
   10.8380   23.5908    0.0998 C   0  0  0  0  0  0  0  0  0  0  0  0
   10.7607   23.7838   -1.2690 C   0  0  0  0  0  0  0  0  0  0  0  0
   11.4868   24.8381   -1.8243 C   0  0  0  0  0  0  0  0  0  0  0  0
   12.2605   25.6673   -1.0403 C   0  0  0  0  0  0  0  0  0  0  0  0
   12.3074   25.4394    0.3072 C   0  0  0  0  0  0  0  0  0  0  0  0
   11.6100   24.4132    0.9041 C   0  0  0  0  0  0  0  0  0  0  0  0
 16 17  2  0  0  0
 17 18  1  0  0  0
 18 19  1  0  0  0
 19 20  1  0  0  0
 20 21  1  0  0  0
 21 22  1  0  0  0
 22 23  2  0  0  0
 23 24  1  0  0  0
 24 25  2  0  0  0
 25 26  1  0  0  0
 26 27  2  0  0  0
 17  1  1  0  0  0
  1  2  2  0  0  0
  2  3  1  0  0  0
  3  4  2  0  0  0
  4  5  1  0  0  0
  5  6  2  0  0  0
  6  7  1  0  0  0
  7  8  2  0  0  0
  8  9  1  0  0  0
  5 10  1  0  0  0
 10 11  2  0  0  0
 11 12  1  0  0  0
 12 13  2  0  0  0
 13 14  1  0  0  0
 14 15  2  0  0  0
 27 22  1  0  0  0
  9  1  1  0  0  0
 15 10  1  0  0  0
  8  3  1  0  0  0
M  END
> <minimizedAffinity>
-9.13702

> <CNNscore>
0.4265402555

> <CNNaffinity>
7.2343530655

> <CNN_VS>
3.0857427120

> <CNNaffinity_variance>
0.0289430376

$$$$
[H]c1c([H])c([H])c(-c2c([H])c([H])c3oc(C(=O)C([H])([H])C([H])([H])SC([H])([H])c4c([H])c([H])c([H])c([H])c4[H])nc3c2[H])c([H])c1[H]


 27 30  0  0  0  0  0  0  0  0999 V2000
   10.0642   23.8185    0.9807 C   0  0  0  0  0  0  0  0  0  0  0  0
   10.1863   23.9805   -0.3638 N   0  0  0  0  0  0  0  0  0  0  0  0
   11.4489   24.3280   -0.6748 C   0  0  0  0  0  0  0  0  0  0  0  0
   12.0684   24.6015   -1.8805 C   0  0  0  0  0  0  0  0  0  0  0  0
   13.4022   24.9391   -1.9017 C   0  0  0  0  0  0  0  0  0  0  0  0
   14.0897   24.9942   -0.7003 C   0  0  0  0  0  0  0  0  0  0  0  0
   13.4493   24.7159    0.4990 C   0  0  0  0  0  0  0  0  0  0  0  0
   12.1077   24.3747    0.5391 C   0  0  0  0  0  0  0  0  0  0  0  0
   11.2583   24.0672    1.5057 O   0  0  0  0  0  0  0  0  0  0  0  0
   14.0244   25.2239   -3.1869 C   0  0  0  0  0  0  0  0  0  0  0  0
   14.9806   24.3630   -3.6620 C   0  0  0  0  0  0  0  0  0  0  0  0
   15.5835   24.6164   -4.8831 C   0  0  0  0  0  0  0  0  0  0  0  0
   15.2210   25.7187   -5.6012 C   0  0  0  0  0  0  0  0  0  0  0  0
   14.2544   26.5792   -5.1094 C   0  0  0  0  0  0  0  0  0  0  0  0
   13.6542   26.3290   -3.8961 C   0  0  0  0  0  0  0  0  0  0  0  0
    7.9692   24.2987    1.9014 O   0  0  0  0  0  0  0  0  0  0  0  0
    8.8628   23.4445    1.7146 C   0  0  0  0  0  0  0  0  0  0  0  0
    8.7537   22.0430    2.2147 C   0  0  0  0  0  0  0  0  0  0  0  0
    9.5907   21.8057    3.4301 C   0  0  0  0  0  0  0  0  0  0  0  0
   11.0517   20.8458    2.8939 S   0  0  0  0  0  0  0  0  0  0  0  0
   10.8488   20.5183    1.1146 C   0  0  0  0  0  0  0  0  0  0  0  0
   12.1681   20.7622    0.4673 C   0  0  0  0  0  0  0  0  0  0  0  0
   13.2954   20.8949    1.2599 C   0  0  0  0  0  0  0  0  0  0  0  0
   14.5181   21.1229    0.6274 C   0  0  0  0  0  0  0  0  0  0  0  0
   14.6094   21.2147   -0.7453 C   0  0  0  0  0  0  0  0  0  0  0  0
   13.4698   21.0776   -1.4886 C   0  0  0  0  0  0  0  0  0  0  0  0
   12.2395   20.8516   -0.9134 C   0  0  0  0  0  0  0  0  0  0  0  0
 16 17  2  0  0  0
 17 18  1  0  0  0
 18 19  1  0  0  0
 19 20  1  0  0  0
 20 21  1  0  0  0
 21 22  1  0  0  0
 22 23  2  0  0  0
 23 24  1  0  0  0
 24 25  2  0  0  0
 25 26  1  0  0  0
 26 27  2  0  0  0
 17  1  1  0  0  0
  1  2  2  0  0  0
  2  3  1  0  0  0
  3  4  2  0  0  0
  4  5  1  0  0  0
  5  6  2  0  0  0
  6  7  1  0  0  0
  7  8  2  0  0  0
  8  9  1  0  0  0
  5 10  1  0  0  0
 10 11  2  0  0  0
 11 12  1  0  0  0
 12 13  2  0  0  0
 13 14  1  0  0  0
 14 15  2  0  0  0
 27 22  1  0  0  0
  9  1  1  0  0  0
 15 10  1  0  0  0
  8  3  1  0  0  0
M  END
> <minimizedAffinity>
-8.92402

> <CNNscore>
0.4182135165

> <CNNaffinity>
6.7328519821

> <CNN_VS>
2.8157696724

> <CNNaffinity_variance>
0.1981775761

$$$$
[H]c1c([H])c([H])c(-c2c([H])c([H])c3oc(C(=O)C([H])([H])C([H])([H])SC([H])([H])c4c([H])c([H])c([H])c([H])c4[H])nc3c2[H])c([H])c1[H]


 27 30  0  0  0  0  0  0  0  0999 V2000
    9.9938   23.8149    0.9624 C   0  0  0  0  0  0  0  0  0  0  0  0
   10.1323   23.9879   -0.3791 N   0  0  0  0  0  0  0  0  0  0  0  0
   11.4049   24.3117   -0.6745 C   0  0  0  0  0  0  0  0  0  0  0  0
   12.0416   24.5842   -1.8714 C   0  0  0  0  0  0  0  0  0  0  0  0
   13.3824   24.8937   -1.8765 C   0  0  0  0  0  0  0  0  0  0  0  0
   14.0592   24.9221   -0.6681 C   0  0  0  0  0  0  0  0  0  0  0  0
   13.4016   24.6452    0.5221 C   0  0  0  0  0  0  0  0  0  0  0  0
   12.0527   24.3322    0.5460 C   0  0  0  0  0  0  0  0  0  0  0  0
   11.1877   24.0329    1.5013 O   0  0  0  0  0  0  0  0  0  0  0  0
   14.0229   25.1783   -3.1527 C   0  0  0  0  0  0  0  0  0  0  0  0
   13.6675   26.3171   -3.8295 C   0  0  0  0  0  0  0  0  0  0  0  0
   14.2663   26.6058   -5.0449 C   0  0  0  0  0  0  0  0  0  0  0  0
   15.2030   25.7557   -5.5568 C   0  0  0  0  0  0  0  0  0  0  0  0
   15.5521   24.6098   -4.8628 C   0  0  0  0  0  0  0  0  0  0  0  0
   14.9580   24.3212   -3.6549 C   0  0  0  0  0  0  0  0  0  0  0  0
    7.9378   24.3480    1.9400 O   0  0  0  0  0  0  0  0  0  0  0  0
    8.7777   23.4590    1.6810 C   0  0  0  0  0  0  0  0  0  0  0  0
    8.5894   22.0333    2.0788 C   0  0  0  0  0  0  0  0  0  0  0  0
    9.3065   21.6967    3.3463 C   0  0  0  0  0  0  0  0  0  0  0  0
   10.8955   20.9257    2.8729 S   0  0  0  0  0  0  0  0  0  0  0  0
   10.7652   20.4769    1.1133 C   0  0  0  0  0  0  0  0  0  0  0  0
   12.0978   20.7234    0.4948 C   0  0  0  0  0  0  0  0  0  0  0  0
   12.1936   20.8341   -0.8819 C   0  0  0  0  0  0  0  0  0  0  0  0
   13.4539   21.0649   -1.4347 C   0  0  0  0  0  0  0  0  0  0  0  0
   14.5751   21.1804   -0.6406 C   0  0  0  0  0  0  0  0  0  0  0  0
   14.4334   21.0639    0.7145 C   0  0  0  0  0  0  0  0  0  0  0  0
   13.2127   20.8362    1.3093 C   0  0  0  0  0  0  0  0  0  0  0  0
 16 17  2  0  0  0
 17 18  1  0  0  0
 18 19  1  0  0  0
 19 20  1  0  0  0
 20 21  1  0  0  0
 21 22  1  0  0  0
 22 23  2  0  0  0
 23 24  1  0  0  0
 24 25  2  0  0  0
 25 26  1  0  0  0
 26 27  2  0  0  0
 17  1  1  0  0  0
  1  2  2  0  0  0
  2  3  1  0  0  0
  3  4  2  0  0  0
  4  5  1  0  0  0
  5  6  2  0  0  0
  6  7  1  0  0  0
  7  8  2  0  0  0
  8  9  1  0  0  0
  5 10  1  0  0  0
 10 11  2  0  0  0
 11 12  1  0  0  0
 12 13  2  0  0  0
 13 14  1  0  0  0
 14 15  2  0  0  0
 27 22  1  0  0  0
  9  1  1  0  0  0
 15 10  1  0  0  0
  8  3  1  0  0  0
M  END
> <minimizedAffinity>
-8.89585

> <CNNscore>
0.4148180485

> <CNNaffinity>
6.6994438171

> <CNN_VS>
2.7790501118

> <CNNaffinity_variance>
0.2236350477

$$$$
[H]c1c([H])c([H])c(-c2c([H])c([H])c3oc(C(=O)C([H])([H])C([H])([H])SC([H])([H])c4c([H])c([H])c([H])c([H])c4[H])nc3c2[H])c([H])c1[H]


 27 30  0  0  0  0  0  0  0  0999 V2000
    9.7435   22.6609    0.9633 C   0  0  0  0  0  0  0  0  0  0  0  0
   10.9522   22.8954    0.3863 N   0  0  0  0  0  0  0  0  0  0  0  0
   11.8588   22.0077    0.8354 C   0  0  0  0  0  0  0  0  0  0  0  0
   13.2018   21.8289    0.5588 C   0  0  0  0  0  0  0  0  0  0  0  0
   13.8977   20.8164    1.1787 C   0  0  0  0  0  0  0  0  0  0  0  0
   13.2222   19.9990    2.0702 C   0  0  0  0  0  0  0  0  0  0  0  0
   11.8740   20.1953    2.3337 C   0  0  0  0  0  0  0  0  0  0  0  0
   11.1581   21.2092    1.7192 C   0  0  0  0  0  0  0  0  0  0  0  0
    9.9023   21.6218    1.7747 O   0  0  0  0  0  0  0  0  0  0  0  0
   15.3112   20.6562    0.8682 C   0  0  0  0  0  0  0  0  0  0  0  0
   16.2214   21.4626    1.5026 C   0  0  0  0  0  0  0  0  0  0  0  0
   17.5707   21.3247    1.2212 C   0  0  0  0  0  0  0  0  0  0  0  0
   17.9814   20.3891    0.3168 C   0  0  0  0  0  0  0  0  0  0  0  0
   17.0516   19.5819   -0.3161 C   0  0  0  0  0  0  0  0  0  0  0  0
   15.7103   19.7176   -0.0378 C   0  0  0  0  0  0  0  0  0  0  0  0
    7.5341   23.2038    1.5027 O   0  0  0  0  0  0  0  0  0  0  0  0
    8.5070   23.3986    0.7422 C   0  0  0  0  0  0  0  0  0  0  0  0
    8.4592   24.3635   -0.3948 C   0  0  0  0  0  0  0  0  0  0  0  0
    9.5732   24.1514   -1.3684 C   0  0  0  0  0  0  0  0  0  0  0  0
   10.8324   25.4328   -1.0275 S   0  0  0  0  0  0  0  0  0  0  0  0
   12.4408   24.5852   -0.9315 C   0  0  0  0  0  0  0  0  0  0  0  0
   13.1968   24.9312   -2.1674 C   0  0  0  0  0  0  0  0  0  0  0  0
   14.3603   24.2414   -2.4631 C   0  0  0  0  0  0  0  0  0  0  0  0
   15.0486   24.5859   -3.6270 C   0  0  0  0  0  0  0  0  0  0  0  0
   14.5905   25.5822   -4.4628 C   0  0  0  0  0  0  0  0  0  0  0  0
   13.4368   26.2372   -4.1311 C   0  0  0  0  0  0  0  0  0  0  0  0
   12.7207   25.9354   -2.9946 C   0  0  0  0  0  0  0  0  0  0  0  0
 16 17  2  0  0  0
 17 18  1  0  0  0
 18 19  1  0  0  0
 19 20  1  0  0  0
 20 21  1  0  0  0
 21 22  1  0  0  0
 22 23  2  0  0  0
 23 24  1  0  0  0
 24 25  2  0  0  0
 25 26  1  0  0  0
 26 27  2  0  0  0
 17  1  1  0  0  0
  1  2  2  0  0  0
  2  3  1  0  0  0
  3  4  2  0  0  0
  4  5  1  0  0  0
  5  6  2  0  0  0
  6  7  1  0  0  0
  7  8  2  0  0  0
  8  9  1  0  0  0
  5 10  1  0  0  0
 10 11  2  0  0  0
 11 12  1  0  0  0
 12 13  2  0  0  0
 13 14  1  0  0  0
 14 15  2  0  0  0
 27 22  1  0  0  0
  9  1  1  0  0  0
 15 10  1  0  0  0
  8  3  1  0  0  0
M  END
> <minimizedAffinity>
10.89502

> <CNNscore>
0.4101352394

> <CNNaffinity>
6.3952393532

> <CNN_VS>
2.6229131222

> <CNNaffinity_variance>
1.2135926485

$$$$
[H]c1c([H])c([H])c(-c2c([H])c([H])c3oc(C(=O)C([H])([H])C([H])([H])SC([H])([H])c4c([H])c([H])c([H])c([H])c4[H])nc3c2[H])c([H])c1[H]


 27 30  0  0  0  0  0  0  0  0999 V2000
    9.9394   21.5316    1.7488 C   0  0  0  0  0  0  0  0  0  0  0  0
   10.8031   22.5540    1.5092 N   0  0  0  0  0  0  0  0  0  0  0  0
   12.0624   22.0859    1.4276 C   0  0  0  0  0  0  0  0  0  0  0  0
   13.2747   22.7117    1.2021 C   0  0  0  0  0  0  0  0  0  0  0  0
   14.4318   21.9675    1.1707 C   0  0  0  0  0  0  0  0  0  0  0  0
   14.3436   20.5991    1.3679 C   0  0  0  0  0  0  0  0  0  0  0  0
   13.1169   19.9905    1.5926 C   0  0  0  0  0  0  0  0  0  0  0  0
   11.9426   20.7238    1.6277 C   0  0  0  0  0  0  0  0  0  0  0  0
   10.6680   20.4235    1.8162 O   0  0  0  0  0  0  0  0  0  0  0  0
   15.6924   22.6565    0.9338 C   0  0  0  0  0  0  0  0  0  0  0  0
   15.6709   23.8699    0.2947 C   0  0  0  0  0  0  0  0  0  0  0  0
   16.8598   24.5412    0.0609 C   0  0  0  0  0  0  0  0  0  0  0  0
   18.0398   23.9900    0.4682 C   0  0  0  0  0  0  0  0  0  0  0  0
   18.0466   22.7645    1.1122 C   0  0  0  0  0  0  0  0  0  0  0  0
   16.8661   22.0958    1.3452 C   0  0  0  0  0  0  0  0  0  0  0  0
    7.9649   21.2154    2.9606 O   0  0  0  0  0  0  0  0  0  0  0  0
    8.4936   21.6212    1.9030 C   0  0  0  0  0  0  0  0  0  0  0  0
    7.7024   22.2001    0.7783 C   0  0  0  0  0  0  0  0  0  0  0  0
    8.4076   22.0809   -0.5341 C   0  0  0  0  0  0  0  0  0  0  0  0
    9.3945   23.6048   -0.7512 S   0  0  0  0  0  0  0  0  0  0  0  0
   11.1387   23.0964   -0.8686 C   0  0  0  0  0  0  0  0  0  0  0  0
   11.8565   24.1540   -1.6335 C   0  0  0  0  0  0  0  0  0  0  0  0
   13.2375   24.1057   -1.7203 C   0  0  0  0  0  0  0  0  0  0  0  0
   13.8842   25.1090   -2.4429 C   0  0  0  0  0  0  0  0  0  0  0  0
   13.1767   26.1216   -3.0551 C   0  0  0  0  0  0  0  0  0  0  0  0
   11.8138   26.1296   -2.9429 C   0  0  0  0  0  0  0  0  0  0  0  0
   11.1281   25.1635   -2.2416 C   0  0  0  0  0  0  0  0  0  0  0  0
 16 17  2  0  0  0
 17 18  1  0  0  0
 18 19  1  0  0  0
 19 20  1  0  0  0
 20 21  1  0  0  0
 21 22  1  0  0  0
 22 23  2  0  0  0
 23 24  1  0  0  0
 24 25  2  0  0  0
 25 26  1  0  0  0
 26 27  2  0  0  0
 17  1  1  0  0  0
  1  2  2  0  0  0
  2  3  1  0  0  0
  3  4  2  0  0  0
  4  5  1  0  0  0
  5  6  2  0  0  0
  6  7  1  0  0  0
  7  8  2  0  0  0
  8  9  1  0  0  0
  5 10  1  0  0  0
 10 11  2  0  0  0
 11 12  1  0  0  0
 12 13  2  0  0  0
 13 14  1  0  0  0
 14 15  2  0  0  0
 27 22  1  0  0  0
  9  1  1  0  0  0
 15 10  1  0  0  0
  8  3  1  0  0  0
M  END
> <minimizedAffinity>
2.68615

> <CNNscore>
0.3944879472

> <CNNaffinity>
6.4453811646

> <CNN_VS>
2.5426251888

> <CNNaffinity_variance>
1.0102314949

$$$$
[H]c1c([H])c([H])c(-c2c([H])c([H])c3oc(C(=O)C([H])([H])C([H])([H])SC([H])([H])c4c([H])c([H])c([H])c([H])c4[H])nc3c2[H])c([H])c1[H]


 27 30  0  0  0  0  0  0  0  0999 V2000
   13.3887   22.5961    0.1530 C   0  0  0  0  0  0  0  0  0  0  0  0
   13.1281   22.9964   -1.1200 N   0  0  0  0  0  0  0  0  0  0  0  0
   14.0895   23.8363   -1.5465 C   0  0  0  0  0  0  0  0  0  0  0  0
   14.2777   24.5043   -2.7426 C   0  0  0  0  0  0  0  0  0  0  0  0
   15.3759   25.3174   -2.9049 C   0  0  0  0  0  0  0  0  0  0  0  0
   16.2682   25.4418   -1.8526 C   0  0  0  0  0  0  0  0  0  0  0  0
   16.0609   24.7626   -0.6604 C   0  0  0  0  0  0  0  0  0  0  0  0
   14.9613   23.9403   -0.4794 C   0  0  0  0  0  0  0  0  0  0  0  0
   14.5183   23.1916    0.5173 O   0  0  0  0  0  0  0  0  0  0  0  0
   15.5441   26.0090   -4.1752 C   0  0  0  0  0  0  0  0  0  0  0  0
   15.2566   25.3364   -5.3354 C   0  0  0  0  0  0  0  0  0  0  0  0
   15.4095   25.9775   -6.5538 C   0  0  0  0  0  0  0  0  0  0  0  0
   15.8441   27.2706   -6.5884 C   0  0  0  0  0  0  0  0  0  0  0  0
   16.1307   27.9373   -5.4094 C   0  0  0  0  0  0  0  0  0  0  0  0
   15.9794   27.3017   -4.1977 C   0  0  0  0  0  0  0  0  0  0  0  0
   12.4012   21.9600    2.1748 O   0  0  0  0  0  0  0  0  0  0  0  0
   12.5919   21.6899    0.9691 C   0  0  0  0  0  0  0  0  0  0  0  0
   12.0342   20.4677    0.3202 C   0  0  0  0  0  0  0  0  0  0  0  0
   10.6375   20.1744    0.7644 C   0  0  0  0  0  0  0  0  0  0  0  0
    9.5181   20.8261   -0.5262 S   0  0  0  0  0  0  0  0  0  0  0  0
    8.0986   21.5773    0.3312 C   0  0  0  0  0  0  0  0  0  0  0  0
    8.6443   22.5330    1.3352 C   0  0  0  0  0  0  0  0  0  0  0  0
    8.3565   22.3420    2.6759 C   0  0  0  0  0  0  0  0  0  0  0  0
    8.8805   23.2521    3.5947 C   0  0  0  0  0  0  0  0  0  0  0  0
    9.6621   24.3125    3.1878 C   0  0  0  0  0  0  0  0  0  0  0  0
    9.9203   24.4623    1.8533 C   0  0  0  0  0  0  0  0  0  0  0  0
    9.4275   23.5924    0.9068 C   0  0  0  0  0  0  0  0  0  0  0  0
 16 17  2  0  0  0
 17 18  1  0  0  0
 18 19  1  0  0  0
 19 20  1  0  0  0
 20 21  1  0  0  0
 21 22  1  0  0  0
 22 23  2  0  0  0
 23 24  1  0  0  0
 24 25  2  0  0  0
 25 26  1  0  0  0
 26 27  2  0  0  0
 17  1  1  0  0  0
  1  2  2  0  0  0
  2  3  1  0  0  0
  3  4  2  0  0  0
  4  5  1  0  0  0
  5  6  2  0  0  0
  6  7  1  0  0  0
  7  8  2  0  0  0
  8  9  1  0  0  0
  5 10  1  0  0  0
 10 11  2  0  0  0
 11 12  1  0  0  0
 12 13  2  0  0  0
 13 14  1  0  0  0
 14 15  2  0  0  0
 27 22  1  0  0  0
  9  1  1  0  0  0
 15 10  1  0  0  0
  8  3  1  0  0  0
M  END
> <minimizedAffinity>
-8.80160

> <CNNscore>
0.3805026114

> <CNNaffinity>
6.8758964539

> <CNN_VS>
2.6162965298

> <CNNaffinity_variance>
0.2049207985

$$$$
[H]c1c([H])c([H])c(-c2c([H])c([H])c3oc(C(=O)C([H])([H])C([H])([H])SC([H])([H])c4c([H])c([H])c([H])c([H])c4[H])nc3c2[H])c([H])c1[H]


 27 30  0  0  0  0  0  0  0  0999 V2000
   11.5734   24.3626    0.0504 C   0  0  0  0  0  0  0  0  0  0  0  0
   11.5495   25.0278   -1.1352 N   0  0  0  0  0  0  0  0  0  0  0  0
   12.7818   25.0531   -1.6759 C   0  0  0  0  0  0  0  0  0  0  0  0
   13.2719   25.5968   -2.8492 C   0  0  0  0  0  0  0  0  0  0  0  0
   14.6074   25.4690   -3.1553 C   0  0  0  0  0  0  0  0  0  0  0  0
   15.4274   24.7914   -2.2678 C   0  0  0  0  0  0  0  0  0  0  0  0
   14.9156   24.2531   -1.0957 C   0  0  0  0  0  0  0  0  0  0  0  0
   13.5744   24.3723   -0.7716 C   0  0  0  0  0  0  0  0  0  0  0  0
   12.8279   23.9735    0.2453 O   0  0  0  0  0  0  0  0  0  0  0  0
   15.0928   26.0548   -4.3967 C   0  0  0  0  0  0  0  0  0  0  0  0
   15.5705   27.3404   -4.3768 C   0  0  0  0  0  0  0  0  0  0  0  0
   16.0375   27.9150   -5.5475 C   0  0  0  0  0  0  0  0  0  0  0  0
   16.0181   27.1978   -6.7082 C   0  0  0  0  0  0  0  0  0  0  0  0
   15.5332   25.9010   -6.7136 C   0  0  0  0  0  0  0  0  0  0  0  0
   15.0686   25.3284   -5.5512 C   0  0  0  0  0  0  0  0  0  0  0  0
   10.3467   24.7816    1.9964 O   0  0  0  0  0  0  0  0  0  0  0  0
   10.4481   24.1171    0.9424 C   0  0  0  0  0  0  0  0  0  0  0  0
    9.4577   23.0719    0.5515 C   0  0  0  0  0  0  0  0  0  0  0  0
    8.1402   23.2527    1.2338 C   0  0  0  0  0  0  0  0  0  0  0  0
    7.9276   21.8358    2.3699 S   0  0  0  0  0  0  0  0  0  0  0  0
    8.9854   22.1519    3.8175 C   0  0  0  0  0  0  0  0  0  0  0  0
    9.9918   21.0553    3.8771 C   0  0  0  0  0  0  0  0  0  0  0  0
   10.9977   21.0090    2.9269 C   0  0  0  0  0  0  0  0  0  0  0  0
   11.9269   19.9711    3.0063 C   0  0  0  0  0  0  0  0  0  0  0  0
   11.8526   19.0162    3.9981 C   0  0  0  0  0  0  0  0  0  0  0  0
   10.8419   19.1012    4.9154 C   0  0  0  0  0  0  0  0  0  0  0  0
    9.9003   20.1050    4.8811 C   0  0  0  0  0  0  0  0  0  0  0  0
 16 17  2  0  0  0
 17 18  1  0  0  0
 18 19  1  0  0  0
 19 20  1  0  0  0
 20 21  1  0  0  0
 21 22  1  0  0  0
 22 23  2  0  0  0
 23 24  1  0  0  0
 24 25  2  0  0  0
 25 26  1  0  0  0
 26 27  2  0  0  0
 17  1  1  0  0  0
  1  2  2  0  0  0
  2  3  1  0  0  0
  3  4  2  0  0  0
  4  5  1  0  0  0
  5  6  2  0  0  0
  6  7  1  0  0  0
  7  8  2  0  0  0
  8  9  1  0  0  0
  5 10  1  0  0  0
 10 11  2  0  0  0
 11 12  1  0  0  0
 12 13  2  0  0  0
 13 14  1  0  0  0
 14 15  2  0  0  0
 27 22  1  0  0  0
  9  1  1  0  0  0
 15 10  1  0  0  0
  8  3  1  0  0  0
M  END
> <minimizedAffinity>
-8.80972

> <CNNscore>
0.3688776791

> <CNNaffinity>
6.3208241463

> <CNN_VS>
2.3316109180

> <CNNaffinity_variance>
0.4107707143

$$$$
[H]c1c([H])c(C([H])([H])Oc2c([H])c([H])c(C(=O)N([H])[H])c([H])c2[H])c([H])c(C([H])(C([H])([H])[H])C([H])([H])[H])c1[H]


 22 23  0  0  0  0  0  0  0  0999 V2000
   14.1187   22.0806   -2.5384 O   0  0  0  0  0  0  0  0  0  0  0  0
   13.6107   21.6859   -1.3265 C   0  0  0  0  0  0  0  0  0  0  0  0
   12.2414   21.6449   -1.1577 C   0  0  0  0  0  0  0  0  0  0  0  0
   11.7129   21.2501    0.0551 C   0  0  0  0  0  0  0  0  0  0  0  0
   12.4973   20.8866    1.1300 C   0  0  0  0  0  0  0  0  0  0  0  0
   13.8866   20.9261    0.9651 C   0  0  0  0  0  0  0  0  0  0  0  0
   14.3959   21.3197   -0.2436 C   0  0  0  0  0  0  0  0  0  0  0  0
   11.9421   20.4715    2.4049 C   0  0  0  0  0  0  0  0  0  0  0  0
   12.0735   21.2620    3.5551 N   0  0  0  0  0  0  0  0  0  0  0  0
   11.3333   19.3811    2.4706 O   0  0  0  0  0  0  0  0  0  0  0  0
   11.3310   21.9295    3.8163 H   0  0  0  0  0  0  0  0  0  0  0  0
   12.9149   21.1797    4.1468 H   0  0  0  0  0  0  0  0  0  0  0  0
   15.1257   23.0270   -2.7268 C   0  0  0  0  0  0  0  0  0  0  0  0
   14.4044   26.1863   -4.6791 C   0  0  0  0  0  0  0  0  0  0  0  0
   13.3563   26.7118   -3.9535 C   0  0  0  0  0  0  0  0  0  0  0  0
   12.8655   26.0527   -2.8206 C   0  0  0  0  0  0  0  0  0  0  0  0
   13.4467   24.8637   -2.4364 C   0  0  0  0  0  0  0  0  0  0  0  0
   14.4804   24.3235   -3.1327 C   0  0  0  0  0  0  0  0  0  0  0  0
   14.9505   24.9939   -4.2520 C   0  0  0  0  0  0  0  0  0  0  0  0
   16.0397   27.8128   -5.4019 C   0  0  0  0  0  0  0  0  0  0  0  0
   14.9273   26.8860   -5.8841 C   0  0  0  0  0  0  0  0  0  0  0  0
   15.4986   25.8404   -6.8137 C   0  0  0  0  0  0  0  0  0  0  0  0
 20 21  1  0  0  0
 21 22  1  0  0  0
 21 14  1  0  0  0
 14 15  2  0  0  0
 15 16  1  0  0  0
 16 17  2  0  0  0
 17 18  1  0  0  0
 18 13  1  0  0  0
 13  1  1  0  0  0
  1  2  1  0  0  0
  2  3  2  0  0  0
  3  4  1  0  0  0
  4  5  2  0  0  0
  5  6  1  0  0  0
  6  7  2  0  0  0
  5  8  1  0  0  0
  8  9  1  0  0  0
  8 10  2  0  0  0
 18 19  2  0  0  0
 19 14  1  0  0  0
  7  2  1  0  0  0
  9 11  1  0  0  0
  9 12  1  0  0  0
M  END
> <minimizedAffinity>
-9.41518

> <CNNscore>
0.5059874058

> <CNNaffinity>
5.8846688271

> <CNN_VS>
2.9775683880

> <CNNaffinity_variance>
0.0824496895

$$$$
[H]c1c([H])c(C([H])([H])Oc2c([H])c([H])c(C(=O)N([H])[H])c([H])c2[H])c([H])c(C([H])(C([H])([H])[H])C([H])([H])[H])c1[H]


 22 23  0  0  0  0  0  0  0  0999 V2000
   14.5204   22.7232   -3.8416 O   0  0  0  0  0  0  0  0  0  0  0  0
   14.2239   23.4550   -2.7196 C   0  0  0  0  0  0  0  0  0  0  0  0
   14.9426   23.2261   -1.5636 C   0  0  0  0  0  0  0  0  0  0  0  0
   14.6576   23.9534   -0.4252 C   0  0  0  0  0  0  0  0  0  0  0  0
   13.6718   24.9172   -0.3807 C   0  0  0  0  0  0  0  0  0  0  0  0
   12.9395   25.1540   -1.5497 C   0  0  0  0  0  0  0  0  0  0  0  0
   13.2337   24.4248   -2.6708 C   0  0  0  0  0  0  0  0  0  0  0  0
   13.3720   25.6819    0.8157 C   0  0  0  0  0  0  0  0  0  0  0  0
   12.1141   26.2666    1.0172 N   0  0  0  0  0  0  0  0  0  0  0  0
   14.2627   25.8176    1.6830 O   0  0  0  0  0  0  0  0  0  0  0  0
   11.3846   25.7642    1.5467 H   0  0  0  0  0  0  0  0  0  0  0  0
   11.9116   27.2040    0.6360 H   0  0  0  0  0  0  0  0  0  0  0  0
   15.3911   23.1140   -4.8587 C   0  0  0  0  0  0  0  0  0  0  0  0
   16.5166   26.6182   -3.9828 C   0  0  0  0  0  0  0  0  0  0  0  0
   15.6865   27.3708   -4.7864 C   0  0  0  0  0  0  0  0  0  0  0  0
   14.7490   26.7572   -5.6249 C   0  0  0  0  0  0  0  0  0  0  0  0
   14.6649   25.3818   -5.6378 C   0  0  0  0  0  0  0  0  0  0  0  0
   15.4702   24.6159   -4.8566 C   0  0  0  0  0  0  0  0  0  0  0  0
   16.3918   25.2454   -4.0334 C   0  0  0  0  0  0  0  0  0  0  0  0
   17.9509   28.5540   -3.7892 C   0  0  0  0  0  0  0  0  0  0  0  0
   17.5142   27.2693   -3.0907 C   0  0  0  0  0  0  0  0  0  0  0  0
   16.8216   27.6035   -1.7898 C   0  0  0  0  0  0  0  0  0  0  0  0
 20 21  1  0  0  0
 21 22  1  0  0  0
 21 14  1  0  0  0
 14 15  2  0  0  0
 15 16  1  0  0  0
 16 17  2  0  0  0
 17 18  1  0  0  0
 18 13  1  0  0  0
 13  1  1  0  0  0
  1  2  1  0  0  0
  2  3  2  0  0  0
  3  4  1  0  0  0
  4  5  2  0  0  0
  5  6  1  0  0  0
  6  7  2  0  0  0
  5  8  1  0  0  0
  8  9  1  0  0  0
  8 10  2  0  0  0
 18 19  2  0  0  0
 19 14  1  0  0  0
  7  2  1  0  0  0
  9 11  1  0  0  0
  9 12  1  0  0  0
M  END
> <minimizedAffinity>
0.21310

> <CNNscore>
0.4871545434

> <CNNaffinity>
5.9147620201

> <CNN_VS>
2.8814032078

> <CNNaffinity_variance>
0.2066454440

$$$$
[H]c1c([H])c(C([H])([H])Oc2c([H])c([H])c(C(=O)N([H])[H])c([H])c2[H])c([H])c(C([H])(C([H])([H])[H])C([H])([H])[H])c1[H]


 22 23  0  0  0  0  0  0  0  0999 V2000
   14.1088   22.0975   -2.4996 O   0  0  0  0  0  0  0  0  0  0  0  0
   13.5673   21.7004   -1.3032 C   0  0  0  0  0  0  0  0  0  0  0  0
   14.4129   21.3191   -0.2810 C   0  0  0  0  0  0  0  0  0  0  0  0
   13.8852   20.9166    0.9296 C   0  0  0  0  0  0  0  0  0  0  0  0
   12.5289   20.8744    1.1772 C   0  0  0  0  0  0  0  0  0  0  0  0
   11.6661   21.2598    0.1447 C   0  0  0  0  0  0  0  0  0  0  0  0
   12.2044   21.6565   -1.0503 C   0  0  0  0  0  0  0  0  0  0  0  0
   11.9738   20.4514    2.4496 C   0  0  0  0  0  0  0  0  0  0  0  0
   12.0165   21.2787    3.5805 N   0  0  0  0  0  0  0  0  0  0  0  0
   11.4465   19.3204    2.5308 O   0  0  0  0  0  0  0  0  0  0  0  0
   11.2199   21.8949    3.8057 H   0  0  0  0  0  0  0  0  0  0  0  0
   12.8463   21.2750    4.1939 H   0  0  0  0  0  0  0  0  0  0  0  0
   15.1093   23.0561   -2.6592 C   0  0  0  0  0  0  0  0  0  0  0  0
   14.3928   26.1856   -4.6607 C   0  0  0  0  0  0  0  0  0  0  0  0
   13.3319   26.7131   -3.9553 C   0  0  0  0  0  0  0  0  0  0  0  0
   12.8308   26.0651   -2.8206 C   0  0  0  0  0  0  0  0  0  0  0  0
   13.4147   24.8850   -2.4139 C   0  0  0  0  0  0  0  0  0  0  0  0
   14.4608   24.3429   -3.0899 C   0  0  0  0  0  0  0  0  0  0  0  0
   14.9410   25.0023   -4.2114 C   0  0  0  0  0  0  0  0  0  0  0  0
   16.0441   27.7946   -5.3862 C   0  0  0  0  0  0  0  0  0  0  0  0
   14.9266   26.8735   -5.8676 C   0  0  0  0  0  0  0  0  0  0  0  0
   15.4939   25.8176   -6.7880 C   0  0  0  0  0  0  0  0  0  0  0  0
 20 21  1  0  0  0
 21 22  1  0  0  0
 21 14  1  0  0  0
 14 15  2  0  0  0
 15 16  1  0  0  0
 16 17  2  0  0  0
 17 18  1  0  0  0
 18 13  1  0  0  0
 13  1  1  0  0  0
  1  2  1  0  0  0
  2  3  2  0  0  0
  3  4  1  0  0  0
  4  5  2  0  0  0
  5  6  1  0  0  0
  6  7  2  0  0  0
  5  8  1  0  0  0
  8  9  1  0  0  0
  8 10  2  0  0  0
 18 19  2  0  0  0
 19 14  1  0  0  0
  7  2  1  0  0  0
  9 11  1  0  0  0
  9 12  1  0  0  0
M  END
> <minimizedAffinity>
-9.41080

> <CNNscore>
0.4835838974

> <CNNaffinity>
5.8603849411

> <CNN_VS>
2.8339877129

> <CNNaffinity_variance>
0.0801087767

$$$$
[H]c1c([H])c(C([H])([H])Oc2c([H])c([H])c(C(=O)N([H])[H])c([H])c2[H])c([H])c(C([H])(C([H])([H])[H])C([H])([H])[H])c1[H]


 22 23  0  0  0  0  0  0  0  0999 V2000
   14.9832   22.9865   -2.0246 O   0  0  0  0  0  0  0  0  0  0  0  0
   15.3523   24.1590   -2.6340 C   0  0  0  0  0  0  0  0  0  0  0  0
   16.1641   25.0408   -1.9494 C   0  0  0  0  0  0  0  0  0  0  0  0
   16.5453   26.2254   -2.5474 C   0  0  0  0  0  0  0  0  0  0  0  0
   16.1495   26.5821   -3.8197 C   0  0  0  0  0  0  0  0  0  0  0  0
   15.3263   25.6922   -4.5191 C   0  0  0  0  0  0  0  0  0  0  0  0
   14.9566   24.5212   -3.9128 C   0  0  0  0  0  0  0  0  0  0  0  0
   16.5500   27.8271   -4.4486 C   0  0  0  0  0  0  0  0  0  0  0  0
   17.7336   28.4850   -4.0863 N   0  0  0  0  0  0  0  0  0  0  0  0
   15.8162   28.3182   -5.3342 O   0  0  0  0  0  0  0  0  0  0  0  0
   18.6058   28.3154   -4.6111 H   0  0  0  0  0  0  0  0  0  0  0  0
   17.7378   29.1433   -3.2916 H   0  0  0  0  0  0  0  0  0  0  0  0
   13.7064   22.4257   -2.0497 C   0  0  0  0  0  0  0  0  0  0  0  0
   11.6485   22.9457    1.0821 C   0  0  0  0  0  0  0  0  0  0  0  0
   11.3363   24.2843    0.9738 C   0  0  0  0  0  0  0  0  0  0  0  0
   11.7864   25.0410   -0.1141 C   0  0  0  0  0  0  0  0  0  0  0  0
   12.5508   24.4274   -1.0828 C   0  0  0  0  0  0  0  0  0  0  0  0
   12.8732   23.1104   -1.0013 C   0  0  0  0  0  0  0  0  0  0  0  0
   12.4163   22.3801    0.0855 C   0  0  0  0  0  0  0  0  0  0  0  0
    9.7723   21.6463    1.8781 C   0  0  0  0  0  0  0  0  0  0  0  0
   11.1706   22.1399    2.2385 C   0  0  0  0  0  0  0  0  0  0  0  0
   12.1042   20.9622    2.3979 C   0  0  0  0  0  0  0  0  0  0  0  0
 20 21  1  0  0  0
 21 22  1  0  0  0
 21 14  1  0  0  0
 14 15  2  0  0  0
 15 16  1  0  0  0
 16 17  2  0  0  0
 17 18  1  0  0  0
 18 13  1  0  0  0
 13  1  1  0  0  0
  1  2  1  0  0  0
  2  3  2  0  0  0
  3  4  1  0  0  0
  4  5  2  0  0  0
  5  6  1  0  0  0
  6  7  2  0  0  0
  5  8  1  0  0  0
  8  9  1  0  0  0
  8 10  2  0  0  0
 18 19  2  0  0  0
 19 14  1  0  0  0
  7  2  1  0  0  0
  9 11  1  0  0  0
  9 12  1  0  0  0
M  END
> <minimizedAffinity>
-7.69797

> <CNNscore>
0.4777328372

> <CNNaffinity>
6.1492409706

> <CNN_VS>
2.9376943111

> <CNNaffinity_variance>
0.1467951238

$$$$
[H]c1c([H])c(C([H])([H])Oc2c([H])c([H])c(C(=O)N([H])[H])c([H])c2[H])c([H])c(C([H])(C([H])([H])[H])C([H])([H])[H])c1[H]


 22 23  0  0  0  0  0  0  0  0999 V2000
   13.6688   23.4032   -2.2074 O   0  0  0  0  0  0  0  0  0  0  0  0
   14.2882   24.4900   -2.7709 C   0  0  0  0  0  0  0  0  0  0  0  0
   15.6608   24.6003   -2.6759 C   0  0  0  0  0  0  0  0  0  0  0  0
   16.3006   25.6873   -3.2372 C   0  0  0  0  0  0  0  0  0  0  0  0
   15.6266   26.6905   -3.9021 C   0  0  0  0  0  0  0  0  0  0  0  0
   14.2346   26.5845   -4.0019 C   0  0  0  0  0  0  0  0  0  0  0  0
   13.6142   25.5005   -3.4402 C   0  0  0  0  0  0  0  0  0  0  0  0
   16.2988   27.8333   -4.4923 C   0  0  0  0  0  0  0  0  0  0  0  0
   17.5415   28.2782   -4.0205 N   0  0  0  0  0  0  0  0  0  0  0  0
   15.7495   28.4298   -5.4443 O   0  0  0  0  0  0  0  0  0  0  0  0
   18.4146   27.9473   -4.4599 H   0  0  0  0  0  0  0  0  0  0  0  0
   17.5887   28.9399   -3.2301 H   0  0  0  0  0  0  0  0  0  0  0  0
   13.8292   22.9697   -0.8914 C   0  0  0  0  0  0  0  0  0  0  0  0
   10.4614   22.4143    0.7404 C   0  0  0  0  0  0  0  0  0  0  0  0
   10.1978   21.1137    0.3661 C   0  0  0  0  0  0  0  0  0  0  0  0
   11.1051   20.3949   -0.4205 C   0  0  0  0  0  0  0  0  0  0  0  0
   12.2736   21.0071   -0.8191 C   0  0  0  0  0  0  0  0  0  0  0  0
   12.5587   22.2871   -0.4648 C   0  0  0  0  0  0  0  0  0  0  0  0
   11.6452   22.9803    0.3150 C   0  0  0  0  0  0  0  0  0  0  0  0
   10.1734   24.5047    1.9192 C   0  0  0  0  0  0  0  0  0  0  0  0
    9.4974   23.1801    1.5767 C   0  0  0  0  0  0  0  0  0  0  0  0
    8.2635   23.4354    0.7423 C   0  0  0  0  0  0  0  0  0  0  0  0
 20 21  1  0  0  0
 21 22  1  0  0  0
 21 14  1  0  0  0
 14 15  2  0  0  0
 15 16  1  0  0  0
 16 17  2  0  0  0
 17 18  1  0  0  0
 18 13  1  0  0  0
 13  1  1  0  0  0
  1  2  1  0  0  0
  2  3  2  0  0  0
  3  4  1  0  0  0
  4  5  2  0  0  0
  5  6  1  0  0  0
  6  7  2  0  0  0
  5  8  1  0  0  0
  8  9  1  0  0  0
  8 10  2  0  0  0
 18 19  2  0  0  0
 19 14  1  0  0  0
  7  2  1  0  0  0
  9 11  1  0  0  0
  9 12  1  0  0  0
M  END
> <minimizedAffinity>
-7.85547

> <CNNscore>
0.4278482795

> <CNNaffinity>
5.8007493019

> <CNN_VS>
2.4818406105

> <CNNaffinity_variance>
0.1927456111

$$$$
[H]c1c([H])c(C([H])([H])Oc2c([H])c([H])c(C(=O)N([H])[H])c([H])c2[H])c([H])c(C([H])(C([H])([H])[H])C([H])([H])[H])c1[H]


 22 23  0  0  0  0  0  0  0  0999 V2000
   13.5572   23.6271   -0.4627 O   0  0  0  0  0  0  0  0  0  0  0  0
   12.2359   23.4712   -0.1276 C   0  0  0  0  0  0  0  0  0  0  0  0
   11.5213   22.4343   -0.6929 C   0  0  0  0  0  0  0  0  0  0  0  0
   10.1908   22.2625   -0.3670 C   0  0  0  0  0  0  0  0  0  0  0  0
    9.5234   23.0896    0.5122 C   0  0  0  0  0  0  0  0  0  0  0  0
   10.2424   24.1429    1.0889 C   0  0  0  0  0  0  0  0  0  0  0  0
   11.5614   24.3004    0.7559 C   0  0  0  0  0  0  0  0  0  0  0  0
    8.1248   22.9093    0.8551 C   0  0  0  0  0  0  0  0  0  0  0  0
    7.2668   22.1395    0.0574 N   0  0  0  0  0  0  0  0  0  0  0  0
    7.6823   23.4571    1.8885 O   0  0  0  0  0  0  0  0  0  0  0  0
    7.1129   21.1415    0.2703 H   0  0  0  0  0  0  0  0  0  0  0  0
    6.7843   22.5683   -0.7476 H   0  0  0  0  0  0  0  0  0  0  0  0
   14.1099   23.3826   -1.7197 C   0  0  0  0  0  0  0  0  0  0  0  0
   14.7784   26.0648   -4.3028 C   0  0  0  0  0  0  0  0  0  0  0  0
   13.6618   26.8598   -4.1532 C   0  0  0  0  0  0  0  0  0  0  0  0
   12.6741   26.5413   -3.2142 C   0  0  0  0  0  0  0  0  0  0  0  0
   12.8323   25.4155   -2.4354 C   0  0  0  0  0  0  0  0  0  0  0  0
   13.9222   24.6146   -2.5618 C   0  0  0  0  0  0  0  0  0  0  0  0
   14.8883   24.9495   -3.4987 C   0  0  0  0  0  0  0  0  0  0  0  0
   15.1517   26.3922   -6.6683 C   0  0  0  0  0  0  0  0  0  0  0  0
   15.8295   26.4022   -5.3010 C   0  0  0  0  0  0  0  0  0  0  0  0
   16.3333   27.7924   -4.9892 C   0  0  0  0  0  0  0  0  0  0  0  0
 20 21  1  0  0  0
 21 22  1  0  0  0
 21 14  1  0  0  0
 14 15  2  0  0  0
 15 16  1  0  0  0
 16 17  2  0  0  0
 17 18  1  0  0  0
 18 13  1  0  0  0
 13  1  1  0  0  0
  1  2  1  0  0  0
  2  3  2  0  0  0
  3  4  1  0  0  0
  4  5  2  0  0  0
  5  6  1  0  0  0
  6  7  2  0  0  0
  5  8  1  0  0  0
  8  9  1  0  0  0
  8 10  2  0  0  0
 18 19  2  0  0  0
 19 14  1  0  0  0
  7  2  1  0  0  0
  9 11  1  0  0  0
  9 12  1  0  0  0
M  END
> <minimizedAffinity>
-8.17190

> <CNNscore>
0.3859521747

> <CNNaffinity>
5.6429562569

> <CNN_VS>
2.1779112816

> <CNNaffinity_variance>
0.1455288529

$$$$
[H]c1c([H])c(C([H])([H])Oc2c([H])c([H])c(C(=O)N([H])[H])c([H])c2[H])c([H])c(C([H])(C([H])([H])[H])C([H])([H])[H])c1[H]


 22 23  0  0  0  0  0  0  0  0999 V2000
   16.0616   24.5145   -0.7924 O   0  0  0  0  0  0  0  0  0  0  0  0
   15.9753   25.1564   -2.0018 C   0  0  0  0  0  0  0  0  0  0  0  0
   16.6635   26.3395   -2.1806 C   0  0  0  0  0  0  0  0  0  0  0  0
   16.5880   26.9990   -3.3911 C   0  0  0  0  0  0  0  0  0  0  0  0
   15.8456   26.5283   -4.4542 C   0  0  0  0  0  0  0  0  0  0  0  0
   15.1455   25.3291   -4.2792 C   0  0  0  0  0  0  0  0  0  0  0  0
   15.2302   24.6865   -3.0729 C   0  0  0  0  0  0  0  0  0  0  0  0
   15.7661   27.2212   -5.7268 C   0  0  0  0  0  0  0  0  0  0  0  0
   15.6186   26.5242   -6.9341 N   0  0  0  0  0  0  0  0  0  0  0  0
   15.8314   28.4700   -5.7381 O   0  0  0  0  0  0  0  0  0  0  0  0
   14.6799   26.3627   -7.3313 H   0  0  0  0  0  0  0  0  0  0  0  0
   16.4497   26.1691   -7.4320 H   0  0  0  0  0  0  0  0  0  0  0  0
   15.2210   24.7259    0.3004 C   0  0  0  0  0  0  0  0  0  0  0  0
   12.3215   22.5146   -0.7078 C   0  0  0  0  0  0  0  0  0  0  0  0
   11.3064   23.4417   -0.8130 C   0  0  0  0  0  0  0  0  0  0  0  0
   11.5430   24.7976   -0.5595 C   0  0  0  0  0  0  0  0  0  0  0  0
   12.8120   25.1976   -0.2009 C   0  0  0  0  0  0  0  0  0  0  0  0
   13.8306   24.3057   -0.0897 C   0  0  0  0  0  0  0  0  0  0  0  0
   13.5731   22.9673   -0.3457 C   0  0  0  0  0  0  0  0  0  0  0  0
   13.4388   20.4168   -1.1472 C   0  0  0  0  0  0  0  0  0  0  0  0
   12.0713   21.0724   -0.9769 C   0  0  0  0  0  0  0  0  0  0  0  0
   11.3717   20.4919    0.2304 C   0  0  0  0  0  0  0  0  0  0  0  0
 20 21  1  0  0  0
 21 22  1  0  0  0
 21 14  1  0  0  0
 14 15  2  0  0  0
 15 16  1  0  0  0
 16 17  2  0  0  0
 17 18  1  0  0  0
 18 13  1  0  0  0
 13  1  1  0  0  0
  1  2  1  0  0  0
  2  3  2  0  0  0
  3  4  1  0  0  0
  4  5  2  0  0  0
  5  6  1  0  0  0
  6  7  2  0  0  0
  5  8  1  0  0  0
  8  9  1  0  0  0
  8 10  2  0  0  0
 18 19  2  0  0  0
 19 14  1  0  0  0
  7  2  1  0  0  0
  9 11  1  0  0  0
  9 12  1  0  0  0
M  END
> <minimizedAffinity>
-8.17612

> <CNNscore>
0.3673266768

> <CNNaffinity>
5.8572592735

> <CNN_VS>
2.1515276432

> <CNNaffinity_variance>
0.1327840090

$$$$
[H]c1c([H])c(C([H])([H])Oc2c([H])c([H])c(C(=O)N([H])[H])c([H])c2[H])c([H])c(C([H])(C([H])([H])[H])C([H])([H])[H])c1[H]


 22 23  0  0  0  0  0  0  0  0999 V2000
   14.7086   23.0809   -4.4935 O   0  0  0  0  0  0  0  0  0  0  0  0
   14.3843   23.6069   -3.2685 C   0  0  0  0  0  0  0  0  0  0  0  0
   14.8616   22.9906   -2.1294 C   0  0  0  0  0  0  0  0  0  0  0  0
   14.5452   23.5063   -0.8885 C   0  0  0  0  0  0  0  0  0  0  0  0
   13.7606   24.6287   -0.7230 C   0  0  0  0  0  0  0  0  0  0  0  0
   13.2735   25.2582   -1.8742 C   0  0  0  0  0  0  0  0  0  0  0  0
   13.5959   24.7349   -3.0979 C   0  0  0  0  0  0  0  0  0  0  0  0
   13.4278   25.1711    0.5813 C   0  0  0  0  0  0  0  0  0  0  0  0
   12.1250   25.5832    0.8943 N   0  0  0  0  0  0  0  0  0  0  0  0
   14.3306   25.2698    1.4410 O   0  0  0  0  0  0  0  0  0  0  0  0
   11.4697   24.9335    1.3562 H   0  0  0  0  0  0  0  0  0  0  0  0
   11.8151   26.5400    0.6637 H   0  0  0  0  0  0  0  0  0  0  0  0
   15.8002   23.4581   -5.2755 C   0  0  0  0  0  0  0  0  0  0  0  0
   16.3570   27.1125   -4.4700 C   0  0  0  0  0  0  0  0  0  0  0  0
   15.7979   27.7152   -5.5770 C   0  0  0  0  0  0  0  0  0  0  0  0
   15.2316   26.9493   -6.6024 C   0  0  0  0  0  0  0  0  0  0  0  0
   15.2396   25.5757   -6.4914 C   0  0  0  0  0  0  0  0  0  0  0  0
   15.7835   24.9558   -5.4120 C   0  0  0  0  0  0  0  0  0  0  0  0
   16.3390   25.7347   -4.4080 C   0  0  0  0  0  0  0  0  0  0  0  0
   17.0662   27.0115   -2.1616 C   0  0  0  0  0  0  0  0  0  0  0  0
   16.9596   27.9257   -3.3789 C   0  0  0  0  0  0  0  0  0  0  0  0
   18.3405   28.3469   -3.8256 C   0  0  0  0  0  0  0  0  0  0  0  0
 20 21  1  0  0  0
 21 22  1  0  0  0
 21 14  1  0  0  0
 14 15  2  0  0  0
 15 16  1  0  0  0
 16 17  2  0  0  0
 17 18  1  0  0  0
 18 13  1  0  0  0
 13  1  1  0  0  0
  1  2  1  0  0  0
  2  3  2  0  0  0
  3  4  1  0  0  0
  4  5  2  0  0  0
  5  6  1  0  0  0
  6  7  2  0  0  0
  5  8  1  0  0  0
  8  9  1  0  0  0
  8 10  2  0  0  0
 18 19  2  0  0  0
 19 14  1  0  0  0
  7  2  1  0  0  0
  9 11  1  0  0  0
  9 12  1  0  0  0
M  END
> <minimizedAffinity>
-3.59363

> <CNNscore>
0.3393677771

> <CNNaffinity>
5.9741935730

> <CNN_VS>
2.0274488926

> <CNNaffinity_variance>
0.1285852641

$$$$
[H]c1c([H])c(C([H])([H])Oc2c([H])c([H])c(C(=O)N([H])[H])c([H])c2[H])c([H])c(C([H])(C([H])([H])[H])C([H])([H])[H])c1[H]


 22 23  0  0  0  0  0  0  0  0999 V2000
   12.6277   25.2855   -1.5380 O   0  0  0  0  0  0  0  0  0  0  0  0
   13.3289   25.5569   -2.6856 C   0  0  0  0  0  0  0  0  0  0  0  0
   12.9673   26.6503   -3.4465 C   0  0  0  0  0  0  0  0  0  0  0  0
   13.6619   26.9382   -4.6044 C   0  0  0  0  0  0  0  0  0  0  0  0
   14.7206   26.1749   -5.0508 C   0  0  0  0  0  0  0  0  0  0  0  0
   15.0922   25.0648   -4.2837 C   0  0  0  0  0  0  0  0  0  0  0  0
   14.3937   24.7921   -3.1377 C   0  0  0  0  0  0  0  0  0  0  0  0
   15.4510   26.4772   -6.2678 C   0  0  0  0  0  0  0  0  0  0  0  0
   15.4865   25.5805   -7.3446 N   0  0  0  0  0  0  0  0  0  0  0  0
   16.0606   27.5661   -6.3499 O   0  0  0  0  0  0  0  0  0  0  0  0
   14.8066   25.6655   -8.1162 H   0  0  0  0  0  0  0  0  0  0  0  0
   16.1943   24.8300   -7.3705 H   0  0  0  0  0  0  0  0  0  0  0  0
   11.3862   24.6529   -1.4758 C   0  0  0  0  0  0  0  0  0  0  0  0
   13.0750   21.6126    0.0133 C   0  0  0  0  0  0  0  0  0  0  0  0
   12.0944   20.6576   -0.1533 C   0  0  0  0  0  0  0  0  0  0  0  0
   10.8706   20.9815   -0.7500 C   0  0  0  0  0  0  0  0  0  0  0  0
   10.6560   22.2756   -1.1722 C   0  0  0  0  0  0  0  0  0  0  0  0
   11.6045   23.2362   -1.0206 C   0  0  0  0  0  0  0  0  0  0  0  0
   12.8096   22.8927   -0.4266 C   0  0  0  0  0  0  0  0  0  0  0  0
   15.0455   20.2394   -0.2579 C   0  0  0  0  0  0  0  0  0  0  0  0
   14.3768   21.2697    0.6479 C   0  0  0  0  0  0  0  0  0  0  0  0
   15.2124   22.5279    0.6967 C   0  0  0  0  0  0  0  0  0  0  0  0
 20 21  1  0  0  0
 21 22  1  0  0  0
 21 14  1  0  0  0
 14 15  2  0  0  0
 15 16  1  0  0  0
 16 17  2  0  0  0
 17 18  1  0  0  0
 18 13  1  0  0  0
 13  1  1  0  0  0
  1  2  1  0  0  0
  2  3  2  0  0  0
  3  4  1  0  0  0
  4  5  2  0  0  0
  5  6  1  0  0  0
  6  7  2  0  0  0
  5  8  1  0  0  0
  8  9  1  0  0  0
  8 10  2  0  0  0
 18 19  2  0  0  0
 19 14  1  0  0  0
  7  2  1  0  0  0
  9 11  1  0  0  0
  9 12  1  0  0  0
M  END
> <minimizedAffinity>
-7.61139

> <CNNscore>
0.3259930611

> <CNNaffinity>
5.8162508011

> <CNN_VS>
1.8960573673

> <CNNaffinity_variance>
0.1139828563

$$$$
[H]c1c([H])c([H])c([C@@]2([H])C(=O)C(C(=O)N3C([H])([H])C([H])([H])C([H])(C4([H])C([H])([H])C4([H])[H])C([H])([H])C3([H])[H])=N[C@]2([H])C([H])(C([H])([H])[H])C([H])([H])[H])c([H])c1[H]


 26 29  0  0  0  0  0  0  0  0999 V2000
   14.8086   26.0062   -3.3520 C   0  0  0  0  0  0  0  0  0  0  0  0
   14.1637   24.7492   -3.4218 N   0  0  0  0  0  0  0  0  0  0  0  0
   14.8673   23.8149   -2.8162 C   0  0  0  0  0  0  0  0  0  0  0  0
   16.0541   24.4241   -2.3033 C   0  0  0  0  0  0  0  0  0  0  0  0
   17.1799   23.9633   -2.0152 O   0  0  0  0  0  0  0  0  0  0  0  0
   15.6780   25.8931   -2.1560 C   0  0  0  0  0  0  0  0  0  0  0  0
   14.4025   22.4498   -2.7936 C   0  0  0  0  0  0  0  0  0  0  0  0
   15.0313   21.6244   -3.6287 O   0  0  0  0  0  0  0  0  0  0  0  0
   13.3928   21.8873   -2.0243 N   0  0  0  0  0  0  0  0  0  0  0  0
   13.2275   20.4072   -2.1808 C   0  0  0  0  0  0  0  0  0  0  0  0
   13.0309   19.8742   -0.7794 C   0  0  0  0  0  0  0  0  0  0  0  0
   11.6034   20.2228   -0.4014 C   0  0  0  0  0  0  0  0  0  0  0  0
   11.2365   21.5197   -1.0394 C   0  0  0  0  0  0  0  0  0  0  0  0
   12.4529   22.4776   -1.1377 C   0  0  0  0  0  0  0  0  0  0  0  0
   11.3721   20.2768    1.0780 C   0  0  0  0  0  0  0  0  0  0  0  0
   12.5589   20.7359    1.8808 C   0  0  0  0  0  0  0  0  0  0  0  0
   11.2371   21.5124    1.8487 C   0  0  0  0  0  0  0  0  0  0  0  0
   15.0712   26.0727   -0.8509 C   0  0  0  0  0  0  0  0  0  0  0  0
   13.6726   25.9498   -0.7888 C   0  0  0  0  0  0  0  0  0  0  0  0
   12.9798   26.0953    0.3837 C   0  0  0  0  0  0  0  0  0  0  0  0
   13.6549   26.3723    1.5570 C   0  0  0  0  0  0  0  0  0  0  0  0
   15.0148   26.4999    1.5414 C   0  0  0  0  0  0  0  0  0  0  0  0
   15.6900   26.3449    0.3262 C   0  0  0  0  0  0  0  0  0  0  0  0
   16.3910   27.4823   -4.6332 C   0  0  0  0  0  0  0  0  0  0  0  0
   15.5380   26.2669   -4.6351 C   0  0  0  0  0  0  0  0  0  0  0  0
   14.4720   26.4558   -5.7240 C   0  0  0  0  0  0  0  0  0  0  0  0
 24 25  1  0  0  0
 25 26  1  0  0  0
 25  1  1  0  0  0
  1  2  1  0  0  0
  2  3  2  0  0  0
  3  4  1  0  0  0
  4  5  2  0  0  0
  4  6  1  0  0  0
  6 18  1  0  0  0
 18 19  2  0  0  0
 19 20  1  0  0  0
 20 21  2  0  0  0
 21 22  1  0  0  0
 22 23  2  0  0  0
  3  7  1  0  0  0
  7  8  2  0  0  0
  7  9  1  0  0  0
  9 10  1  0  0  0
 10 11  1  0  0  0
 11 12  1  0  0  0
 12 13  1  0  0  0
 13 14  1  0  0  0
 12 15  1  0  0  0
 15 16  1  0  0  0
 16 17  1  0  0  0
  6  1  1  0  0  0
 23 18  1  0  0  0
 14  9  1  0  0  0
 17 15  1  0  0  0
M  END
> <minimizedAffinity>
3.49786

> <CNNscore>
0.4871411026

> <CNNaffinity>
6.9734826088

> <CNN_VS>
3.3970699310

> <CNNaffinity_variance>
0.4973984659

$$$$
[H]c1c([H])c([H])c([C@@]2([H])C(=O)C(C(=O)N3C([H])([H])C([H])([H])C([H])(C4([H])C([H])([H])C4([H])[H])C([H])([H])C3([H])[H])=N[C@]2([H])C([H])(C([H])([H])[H])C([H])([H])[H])c([H])c1[H]


 26 29  0  0  0  0  0  0  0  0999 V2000
   11.1604   21.4510    1.3458 C   0  0  0  0  0  0  0  0  0  0  0  0
   12.3743   22.1537    1.1627 N   0  0  0  0  0  0  0  0  0  0  0  0
   12.2078   23.2040    0.3854 C   0  0  0  0  0  0  0  0  0  0  0  0
   10.8330   23.2480   -0.0023 C   0  0  0  0  0  0  0  0  0  0  0  0
   10.2508   23.7606   -0.9827 O   0  0  0  0  0  0  0  0  0  0  0  0
   10.1167   22.4747    1.0978 C   0  0  0  0  0  0  0  0  0  0  0  0
   13.3283   24.0464    0.0461 C   0  0  0  0  0  0  0  0  0  0  0  0
   14.2844   24.1153    0.9708 O   0  0  0  0  0  0  0  0  0  0  0  0
   13.5392   24.7906   -1.1068 N   0  0  0  0  0  0  0  0  0  0  0  0
   14.8634   25.4863   -1.1779 C   0  0  0  0  0  0  0  0  0  0  0  0
   15.3537   25.2740   -2.5925 C   0  0  0  0  0  0  0  0  0  0  0  0
   14.5499   26.2284   -3.4558 C   0  0  0  0  0  0  0  0  0  0  0  0
   13.1807   26.3647   -2.8812 C   0  0  0  0  0  0  0  0  0  0  0  0
   12.6983   25.0453   -2.2230 C   0  0  0  0  0  0  0  0  0  0  0  0
   14.4812   25.8195   -4.8956 C   0  0  0  0  0  0  0  0  0  0  0  0
   15.2161   26.7305   -5.8409 C   0  0  0  0  0  0  0  0  0  0  0  0
   15.6018   25.2589   -5.6498 C   0  0  0  0  0  0  0  0  0  0  0  0
    9.8022   23.4026    2.1673 C   0  0  0  0  0  0  0  0  0  0  0  0
    9.5532   22.8400    3.4308 C   0  0  0  0  0  0  0  0  0  0  0  0
    9.2469   23.6080    4.5228 C   0  0  0  0  0  0  0  0  0  0  0  0
    9.1743   24.9827    4.4040 C   0  0  0  0  0  0  0  0  0  0  0  0
    9.4092   25.5708    3.1936 C   0  0  0  0  0  0  0  0  0  0  0  0
    9.7193   24.7559    2.0999 C   0  0  0  0  0  0  0  0  0  0  0  0
   12.1423   20.2890   -0.6567 C   0  0  0  0  0  0  0  0  0  0  0  0
   11.1179   20.2745    0.4181 C   0  0  0  0  0  0  0  0  0  0  0  0
    9.7405   20.2906   -0.2602 C   0  0  0  0  0  0  0  0  0  0  0  0
 24 25  1  0  0  0
 25 26  1  0  0  0
 25  1  1  0  0  0
  1  2  1  0  0  0
  2  3  2  0  0  0
  3  4  1  0  0  0
  4  5  2  0  0  0
  4  6  1  0  0  0
  6 18  1  0  0  0
 18 19  2  0  0  0
 19 20  1  0  0  0
 20 21  2  0  0  0
 21 22  1  0  0  0
 22 23  2  0  0  0
  3  7  1  0  0  0
  7  8  2  0  0  0
  7  9  1  0  0  0
  9 10  1  0  0  0
 10 11  1  0  0  0
 11 12  1  0  0  0
 12 13  1  0  0  0
 13 14  1  0  0  0
 12 15  1  0  0  0
 15 16  1  0  0  0
 16 17  1  0  0  0
  6  1  1  0  0  0
 23 18  1  0  0  0
 14  9  1  0  0  0
 17 15  1  0  0  0
M  END
> <minimizedAffinity>
-8.30820

> <CNNscore>
0.4686852396

> <CNNaffinity>
6.9297361374

> <CNN_VS>
3.2478649616

> <CNNaffinity_variance>
0.2376001775

$$$$
[H]c1c([H])c([H])c([C@@]2([H])C(=O)C(C(=O)N3C([H])([H])C([H])([H])C([H])(C4([H])C([H])([H])C4([H])[H])C([H])([H])C3([H])[H])=N[C@]2([H])C([H])(C([H])([H])[H])C([H])([H])[H])c([H])c1[H]


 26 29  0  0  0  0  0  0  0  0999 V2000
   12.4670   26.2672   -3.0869 C   0  0  0  0  0  0  0  0  0  0  0  0
   12.9971   25.0208   -3.4950 N   0  0  0  0  0  0  0  0  0  0  0  0
   13.9235   24.5973   -2.6600 C   0  0  0  0  0  0  0  0  0  0  0  0
   14.0621   25.5753   -1.6272 C   0  0  0  0  0  0  0  0  0  0  0  0
   15.0050   25.8580   -0.8566 O   0  0  0  0  0  0  0  0  0  0  0  0
   12.7222   26.3004   -1.6266 C   0  0  0  0  0  0  0  0  0  0  0  0
   14.6152   23.3556   -2.9053 C   0  0  0  0  0  0  0  0  0  0  0  0
   15.2579   23.2868   -4.0698 O   0  0  0  0  0  0  0  0  0  0  0  0
   14.6971   22.2310   -2.0953 N   0  0  0  0  0  0  0  0  0  0  0  0
   15.5818   21.1399   -2.6145 C   0  0  0  0  0  0  0  0  0  0  0  0
   16.3701   20.6577   -1.4176 C   0  0  0  0  0  0  0  0  0  0  0  0
   15.4112   19.8054   -0.6076 C   0  0  0  0  0  0  0  0  0  0  0  0
   14.0355   20.3654   -0.7401 C   0  0  0  0  0  0  0  0  0  0  0  0
   14.0530   21.9112   -0.8703 C   0  0  0  0  0  0  0  0  0  0  0  0
   15.7946   19.6800    0.8354 C   0  0  0  0  0  0  0  0  0  0  0  0
   16.4899   20.8862    1.4056 C   0  0  0  0  0  0  0  0  0  0  0  0
   15.1365   20.3921    1.9302 C   0  0  0  0  0  0  0  0  0  0  0  0
   11.8175   25.5715   -0.7582 C   0  0  0  0  0  0  0  0  0  0  0  0
   10.8893   24.7261   -1.3897 C   0  0  0  0  0  0  0  0  0  0  0  0
    9.9821   23.9827   -0.6823 C   0  0  0  0  0  0  0  0  0  0  0  0
    9.9587   24.0487    0.6976 C   0  0  0  0  0  0  0  0  0  0  0  0
   10.8437   24.8581    1.3516 C   0  0  0  0  0  0  0  0  0  0  0  0
   11.7562   25.6031    0.5975 C   0  0  0  0  0  0  0  0  0  0  0  0
   12.1861   28.2751   -4.5748 C   0  0  0  0  0  0  0  0  0  0  0  0
   13.1227   27.3688   -3.8634 C   0  0  0  0  0  0  0  0  0  0  0  0
   14.0096   26.7006   -4.9239 C   0  0  0  0  0  0  0  0  0  0  0  0
 24 25  1  0  0  0
 25 26  1  0  0  0
 25  1  1  0  0  0
  1  2  1  0  0  0
  2  3  2  0  0  0
  3  4  1  0  0  0
  4  5  2  0  0  0
  4  6  1  0  0  0
  6 18  1  0  0  0
 18 19  2  0  0  0
 19 20  1  0  0  0
 20 21  2  0  0  0
 21 22  1  0  0  0
 22 23  2  0  0  0
  3  7  1  0  0  0
  7  8  2  0  0  0
  7  9  1  0  0  0
  9 10  1  0  0  0
 10 11  1  0  0  0
 11 12  1  0  0  0
 12 13  1  0  0  0
 13 14  1  0  0  0
 12 15  1  0  0  0
 15 16  1  0  0  0
 16 17  1  0  0  0
  6  1  1  0  0  0
 23 18  1  0  0  0
 14  9  1  0  0  0
 17 15  1  0  0  0
M  END
> <minimizedAffinity>
12.97304

> <CNNscore>
0.4600717425

> <CNNaffinity>
6.4660658836

> <CNN_VS>
2.9748542309

> <CNNaffinity_variance>
0.7880714536

$$$$
[H]c1c([H])c([H])c([C@@]2([H])C(=O)C(C(=O)N3C([H])([H])C([H])([H])C([H])(C4([H])C([H])([H])C4([H])[H])C([H])([H])C3([H])[H])=N[C@]2([H])C([H])(C([H])([H])[H])C([H])([H])[H])c([H])c1[H]


 26 29  0  0  0  0  0  0  0  0999 V2000
   14.9656   25.7843   -5.4325 C   0  0  0  0  0  0  0  0  0  0  0  0
   14.8680   25.0640   -4.2190 N   0  0  0  0  0  0  0  0  0  0  0  0
   15.5613   25.6432   -3.2605 C   0  0  0  0  0  0  0  0  0  0  0  0
   16.1770   26.8102   -3.8097 C   0  0  0  0  0  0  0  0  0  0  0  0
   17.1920   27.4610   -3.4793 O   0  0  0  0  0  0  0  0  0  0  0  0
   15.2955   27.1640   -5.0008 C   0  0  0  0  0  0  0  0  0  0  0  0
   15.6202   25.0558   -1.9446 C   0  0  0  0  0  0  0  0  0  0  0  0
   16.7424   25.2950   -1.2683 O   0  0  0  0  0  0  0  0  0  0  0  0
   14.6703   24.2785   -1.2957 N   0  0  0  0  0  0  0  0  0  0  0  0
   15.0131   23.9049    0.1134 C   0  0  0  0  0  0  0  0  0  0  0  0
   13.7367   24.0949    0.9016 C   0  0  0  0  0  0  0  0  0  0  0  0
   12.8590   22.9055    0.5592 C   0  0  0  0  0  0  0  0  0  0  0  0
   13.1116   22.5089   -0.8559 C   0  0  0  0  0  0  0  0  0  0  0  0
   13.4383   23.7351   -1.7482 C   0  0  0  0  0  0  0  0  0  0  0  0
   11.3990   23.1540    0.7864 C   0  0  0  0  0  0  0  0  0  0  0  0
   11.0264   24.6041    0.9346 C   0  0  0  0  0  0  0  0  0  0  0  0
   10.4944   23.7305   -0.2077 C   0  0  0  0  0  0  0  0  0  0  0  0
   14.2157   28.0077   -4.5254 C   0  0  0  0  0  0  0  0  0  0  0  0
   14.4991   29.3790   -4.4060 C   0  0  0  0  0  0  0  0  0  0  0  0
   13.5649   30.2807   -3.9700 C   0  0  0  0  0  0  0  0  0  0  0  0
   12.2956   29.8533   -3.6305 C   0  0  0  0  0  0  0  0  0  0  0  0
   11.9779   28.5286   -3.7320 C   0  0  0  0  0  0  0  0  0  0  0  0
   12.9565   27.6357   -4.1807 C   0  0  0  0  0  0  0  0  0  0  0  0
   15.8148   25.3964   -7.7676 C   0  0  0  0  0  0  0  0  0  0  0  0
   15.9918   25.1412   -6.3156 C   0  0  0  0  0  0  0  0  0  0  0  0
   15.8802   23.6253   -6.0988 C   0  0  0  0  0  0  0  0  0  0  0  0
 24 25  1  0  0  0
 25 26  1  0  0  0
 25  1  1  0  0  0
  1  2  1  0  0  0
  2  3  2  0  0  0
  3  4  1  0  0  0
  4  5  2  0  0  0
  4  6  1  0  0  0
  6 18  1  0  0  0
 18 19  2  0  0  0
 19 20  1  0  0  0
 20 21  2  0  0  0
 21 22  1  0  0  0
 22 23  2  0  0  0
  3  7  1  0  0  0
  7  8  2  0  0  0
  7  9  1  0  0  0
  9 10  1  0  0  0
 10 11  1  0  0  0
 11 12  1  0  0  0
 12 13  1  0  0  0
 13 14  1  0  0  0
 12 15  1  0  0  0
 15 16  1  0  0  0
 16 17  1  0  0  0
  6  1  1  0  0  0
 23 18  1  0  0  0
 14  9  1  0  0  0
 17 15  1  0  0  0
M  END
> <minimizedAffinity>
7.86803

> <CNNscore>
0.4548721910

> <CNNaffinity>
6.9489479065

> <CNN_VS>
3.1608831882

> <CNNaffinity_variance>
0.6220574379

$$$$
[H]c1c([H])c([H])c([C@@]2([H])C(=O)C(C(=O)N3C([H])([H])C([H])([H])C([H])(C4([H])C([H])([H])C4([H])[H])C([H])([H])C3([H])[H])=N[C@]2([H])C([H])(C([H])([H])[H])C([H])([H])[H])c([H])c1[H]


 26 29  0  0  0  0  0  0  0  0999 V2000
   15.6213   25.1913   -2.0544 C   0  0  0  0  0  0  0  0  0  0  0  0
   15.5746   23.8645   -1.5659 N   0  0  0  0  0  0  0  0  0  0  0  0
   14.9334   23.7988   -0.4172 C   0  0  0  0  0  0  0  0  0  0  0  0
   14.5149   25.1213   -0.0734 C   0  0  0  0  0  0  0  0  0  0  0  0
   14.2413   25.6598    1.0212 O   0  0  0  0  0  0  0  0  0  0  0  0
   14.4573   25.8474   -1.4115 C   0  0  0  0  0  0  0  0  0  0  0  0
   14.7944   22.5387    0.2704 C   0  0  0  0  0  0  0  0  0  0  0  0
   15.8800   22.1282    0.9237 O   0  0  0  0  0  0  0  0  0  0  0  0
   13.6880   21.7028    0.3392 N   0  0  0  0  0  0  0  0  0  0  0  0
   13.8530   20.5053    1.2232 C   0  0  0  0  0  0  0  0  0  0  0  0
   12.5591   20.3960    1.9979 C   0  0  0  0  0  0  0  0  0  0  0  0
   11.5437   19.8225    1.0272 C   0  0  0  0  0  0  0  0  0  0  0  0
   11.8498   20.3213   -0.3443 C   0  0  0  0  0  0  0  0  0  0  0  0
   12.4298   21.7598   -0.3179 C   0  0  0  0  0  0  0  0  0  0  0  0
   10.1240   20.1275    1.3965 C   0  0  0  0  0  0  0  0  0  0  0  0
    9.9422   21.3892    2.1955 C   0  0  0  0  0  0  0  0  0  0  0  0
    9.3283   21.2015    0.8031 C   0  0  0  0  0  0  0  0  0  0  0  0
   13.1444   25.6258   -1.9867 C   0  0  0  0  0  0  0  0  0  0  0  0
   12.3134   24.7123   -1.3158 C   0  0  0  0  0  0  0  0  0  0  0  0
   11.0506   24.4169   -1.7561 C   0  0  0  0  0  0  0  0  0  0  0  0
   10.5546   25.0233   -2.8944 C   0  0  0  0  0  0  0  0  0  0  0  0
   11.3294   25.9176   -3.5770 C   0  0  0  0  0  0  0  0  0  0  0  0
   12.6140   26.1956   -3.0987 C   0  0  0  0  0  0  0  0  0  0  0  0
   17.5204   26.6723   -2.7785 C   0  0  0  0  0  0  0  0  0  0  0  0
   16.9489   25.8016   -1.7202 C   0  0  0  0  0  0  0  0  0  0  0  0
   17.9306   24.6417   -1.5001 C   0  0  0  0  0  0  0  0  0  0  0  0
 24 25  1  0  0  0
 25 26  1  0  0  0
 25  1  1  0  0  0
  1  2  1  0  0  0
  2  3  2  0  0  0
  3  4  1  0  0  0
  4  5  2  0  0  0
  4  6  1  0  0  0
  6 18  1  0  0  0
 18 19  2  0  0  0
 19 20  1  0  0  0
 20 21  2  0  0  0
 21 22  1  0  0  0
 22 23  2  0  0  0
  3  7  1  0  0  0
  7  8  2  0  0  0
  7  9  1  0  0  0
  9 10  1  0  0  0
 10 11  1  0  0  0
 11 12  1  0  0  0
 12 13  1  0  0  0
 13 14  1  0  0  0
 12 15  1  0  0  0
 15 16  1  0  0  0
 16 17  1  0  0  0
  6  1  1  0  0  0
 23 18  1  0  0  0
 14  9  1  0  0  0
 17 15  1  0  0  0
M  END
> <minimizedAffinity>
5.22646

> <CNNscore>
0.4529069960

> <CNNaffinity>
7.0483312607

> <CNN_VS>
3.1922385693

> <CNNaffinity_variance>
1.2687724829

$$$$
[H]c1c([H])c([H])c([C@@]2([H])C(=O)C(C(=O)N3C([H])([H])C([H])([H])C([H])(C4([H])C([H])([H])C4([H])[H])C([H])([H])C3([H])[H])=N[C@]2([H])C([H])(C([H])([H])[H])C([H])([H])[H])c([H])c1[H]


 26 29  0  0  0  0  0  0  0  0999 V2000
   14.2518   25.8624   -5.0430 C   0  0  0  0  0  0  0  0  0  0  0  0
   13.4635   25.3527   -3.9847 N   0  0  0  0  0  0  0  0  0  0  0  0
   13.9805   25.6570   -2.8121 C   0  0  0  0  0  0  0  0  0  0  0  0
   15.1781   26.4023   -3.0419 C   0  0  0  0  0  0  0  0  0  0  0  0
   16.2028   26.5835   -2.3490 O   0  0  0  0  0  0  0  0  0  0  0  0
   14.9776   27.0003   -4.4287 C   0  0  0  0  0  0  0  0  0  0  0  0
   13.3471   25.2088   -1.5963 C   0  0  0  0  0  0  0  0  0  0  0  0
   12.2522   25.8823   -1.2476 O   0  0  0  0  0  0  0  0  0  0  0  0
   13.7261   24.1779   -0.7471 N   0  0  0  0  0  0  0  0  0  0  0  0
   12.7858   23.9147    0.3882 C   0  0  0  0  0  0  0  0  0  0  0  0
   12.6661   22.4095    0.4706 C   0  0  0  0  0  0  0  0  0  0  0  0
   13.9488   21.9283    1.1228 C   0  0  0  0  0  0  0  0  0  0  0  0
   15.0679   22.8220    0.7075 C   0  0  0  0  0  0  0  0  0  0  0  0
   14.8786   23.3474   -0.7398 C   0  0  0  0  0  0  0  0  0  0  0  0
   14.2740   20.4975    0.8199 C   0  0  0  0  0  0  0  0  0  0  0  0
   14.0741   20.1008   -0.6175 C   0  0  0  0  0  0  0  0  0  0  0  0
   15.4468   20.0587    0.0643 C   0  0  0  0  0  0  0  0  0  0  0  0
   14.2724   28.2587   -4.2776 C   0  0  0  0  0  0  0  0  0  0  0  0
   12.9164   28.1768   -3.9179 C   0  0  0  0  0  0  0  0  0  0  0  0
   12.1406   29.2919   -3.7425 C   0  0  0  0  0  0  0  0  0  0  0  0
   12.6855   30.5493   -3.9192 C   0  0  0  0  0  0  0  0  0  0  0  0
   14.0000   30.6741   -4.2691 C   0  0  0  0  0  0  0  0  0  0  0  0
   14.7626   29.5141   -4.4397 C   0  0  0  0  0  0  0  0  0  0  0  0
   16.1672   24.2841   -4.6372 C   0  0  0  0  0  0  0  0  0  0  0  0
   15.1314   24.7746   -5.5812 C   0  0  0  0  0  0  0  0  0  0  0  0
   15.8602   25.3533   -6.8025 C   0  0  0  0  0  0  0  0  0  0  0  0
 24 25  1  0  0  0
 25 26  1  0  0  0
 25  1  1  0  0  0
  1  2  1  0  0  0
  2  3  2  0  0  0
  3  4  1  0  0  0
  4  5  2  0  0  0
  4  6  1  0  0  0
  6 18  1  0  0  0
 18 19  2  0  0  0
 19 20  1  0  0  0
 20 21  2  0  0  0
 21 22  1  0  0  0
 22 23  2  0  0  0
  3  7  1  0  0  0
  7  8  2  0  0  0
  7  9  1  0  0  0
  9 10  1  0  0  0
 10 11  1  0  0  0
 11 12  1  0  0  0
 12 13  1  0  0  0
 13 14  1  0  0  0
 12 15  1  0  0  0
 15 16  1  0  0  0
 16 17  1  0  0  0
  6  1  1  0  0  0
 23 18  1  0  0  0
 14  9  1  0  0  0
 17 15  1  0  0  0
M  END
> <minimizedAffinity>
10.83653

> <CNNscore>
0.4526886940

> <CNNaffinity>
6.6156883240

> <CNN_VS>
2.9948472977

> <CNNaffinity_variance>
0.4390198588

$$$$
[H]c1c([H])c([H])c([C@@]2([H])C(=O)C(C(=O)N3C([H])([H])C([H])([H])C([H])(C4([H])C([H])([H])C4([H])[H])C([H])([H])C3([H])[H])=N[C@]2([H])C([H])(C([H])([H])[H])C([H])([H])[H])c([H])c1[H]


 26 29  0  0  0  0  0  0  0  0999 V2000
   13.7522   25.2798   -4.0180 C   0  0  0  0  0  0  0  0  0  0  0  0
   14.7380   24.5286   -3.3361 N   0  0  0  0  0  0  0  0  0  0  0  0
   14.8619   24.9234   -2.0857 C   0  0  0  0  0  0  0  0  0  0  0  0
   13.9393   25.9935   -1.8711 C   0  0  0  0  0  0  0  0  0  0  0  0
   13.9186   26.9349   -1.0488 O   0  0  0  0  0  0  0  0  0  0  0  0
   12.8698   25.7744   -2.9337 C   0  0  0  0  0  0  0  0  0  0  0  0
   15.8347   24.3061   -1.2180 C   0  0  0  0  0  0  0  0  0  0  0  0
   16.9565   25.0019   -1.0407 O   0  0  0  0  0  0  0  0  0  0  0  0
   15.7578   23.0913   -0.5501 N   0  0  0  0  0  0  0  0  0  0  0  0
   16.9150   22.7900    0.3513 C   0  0  0  0  0  0  0  0  0  0  0  0
   16.3045   22.2253    1.6143 C   0  0  0  0  0  0  0  0  0  0  0  0
   15.9027   20.8013    1.2779 C   0  0  0  0  0  0  0  0  0  0  0  0
   15.4802   20.7422   -0.1510 C   0  0  0  0  0  0  0  0  0  0  0  0
   14.7875   22.0551   -0.6015 C   0  0  0  0  0  0  0  0  0  0  0  0
   14.8297   20.2556    2.1699 C   0  0  0  0  0  0  0  0  0  0  0  0
   13.6001   21.1169    2.2693 C   0  0  0  0  0  0  0  0  0  0  0  0
   13.5650   19.6960    1.6942 C   0  0  0  0  0  0  0  0  0  0  0  0
   11.8779   24.8653   -2.3920 C   0  0  0  0  0  0  0  0  0  0  0  0
   10.7870   25.4526   -1.7287 C   0  0  0  0  0  0  0  0  0  0  0  0
    9.7826   24.7042   -1.1745 C   0  0  0  0  0  0  0  0  0  0  0  0
    9.8202   23.3254   -1.2570 C   0  0  0  0  0  0  0  0  0  0  0  0
   10.8629   22.7137   -1.8932 C   0  0  0  0  0  0  0  0  0  0  0  0
   11.8711   23.5090   -2.4475 C   0  0  0  0  0  0  0  0  0  0  0  0
   15.8588   26.5452   -4.5521 C   0  0  0  0  0  0  0  0  0  0  0  0
   14.4125   26.3540   -4.8283 C   0  0  0  0  0  0  0  0  0  0  0  0
   13.7017   27.6714   -4.4867 C   0  0  0  0  0  0  0  0  0  0  0  0
 24 25  1  0  0  0
 25 26  1  0  0  0
 25  1  1  0  0  0
  1  2  1  0  0  0
  2  3  2  0  0  0
  3  4  1  0  0  0
  4  5  2  0  0  0
  4  6  1  0  0  0
  6 18  1  0  0  0
 18 19  2  0  0  0
 19 20  1  0  0  0
 20 21  2  0  0  0
 21 22  1  0  0  0
 22 23  2  0  0  0
  3  7  1  0  0  0
  7  8  2  0  0  0
  7  9  1  0  0  0
  9 10  1  0  0  0
 10 11  1  0  0  0
 11 12  1  0  0  0
 12 13  1  0  0  0
 13 14  1  0  0  0
 12 15  1  0  0  0
 15 16  1  0  0  0
 16 17  1  0  0  0
  6  1  1  0  0  0
 23 18  1  0  0  0
 14  9  1  0  0  0
 17 15  1  0  0  0
M  END
> <minimizedAffinity>
17.38781

> <CNNscore>
0.4519937932

> <CNNaffinity>
6.7920179367

> <CNN_VS>
3.0699498653

> <CNNaffinity_variance>
1.5279138088

$$$$
[H]c1c([H])c([H])c([C@@]2([H])C(=O)C(C(=O)N3C([H])([H])C([H])([H])C([H])(C4([H])C([H])([H])C4([H])[H])C([H])([H])C3([H])[H])=N[C@]2([H])C([H])(C([H])([H])[H])C([H])([H])[H])c([H])c1[H]


 26 29  0  0  0  0  0  0  0  0999 V2000
   15.5982   24.0053   -1.4593 C   0  0  0  0  0  0  0  0  0  0  0  0
   15.1780   22.7468   -0.9688 N   0  0  0  0  0  0  0  0  0  0  0  0
   14.4956   22.8720    0.1508 C   0  0  0  0  0  0  0  0  0  0  0  0
   14.4324   24.2633    0.4715 C   0  0  0  0  0  0  0  0  0  0  0  0
   14.2679   24.8716    1.5512 O   0  0  0  0  0  0  0  0  0  0  0  0
   14.6267   24.9582   -0.8703 C   0  0  0  0  0  0  0  0  0  0  0  0
   13.9961   21.7053    0.8360 C   0  0  0  0  0  0  0  0  0  0  0  0
   14.8822   20.7251    1.0033 O   0  0  0  0  0  0  0  0  0  0  0  0
   12.7233   21.4700    1.3383 N   0  0  0  0  0  0  0  0  0  0  0  0
   12.5648   20.1803    2.0827 C   0  0  0  0  0  0  0  0  0  0  0  0
   11.7468   20.5211    3.3079 C   0  0  0  0  0  0  0  0  0  0  0  0
   10.3186   20.6781    2.8204 C   0  0  0  0  0  0  0  0  0  0  0  0
   10.3373   21.2435    1.4407 C   0  0  0  0  0  0  0  0  0  0  0  0
   11.5230   22.2227    1.2356 C   0  0  0  0  0  0  0  0  0  0  0  0
    9.4665   21.5162    3.7241 C   0  0  0  0  0  0  0  0  0  0  0  0
    9.9044   22.9505    3.8449 C   0  0  0  0  0  0  0  0  0  0  0  0
    8.5430   22.5521    3.2626 C   0  0  0  0  0  0  0  0  0  0  0  0
   13.3273   25.0869   -1.5017 C   0  0  0  0  0  0  0  0  0  0  0  0
   13.2673   25.8930   -2.6513 C   0  0  0  0  0  0  0  0  0  0  0  0
   12.1007   26.0937   -3.3403 C   0  0  0  0  0  0  0  0  0  0  0  0
   10.9315   25.4953   -2.9113 C   0  0  0  0  0  0  0  0  0  0  0  0
   10.9453   24.7037   -1.7981 C   0  0  0  0  0  0  0  0  0  0  0  0
   12.1544   24.5207   -1.1192 C   0  0  0  0  0  0  0  0  0  0  0  0
   17.2763   24.2773    0.3939 C   0  0  0  0  0  0  0  0  0  0  0  0
   17.0256   24.2436   -1.0693 C   0  0  0  0  0  0  0  0  0  0  0  0
   17.4196   25.6159   -1.6344 C   0  0  0  0  0  0  0  0  0  0  0  0
 24 25  1  0  0  0
 25 26  1  0  0  0
 25  1  1  0  0  0
  1  2  1  0  0  0
  2  3  2  0  0  0
  3  4  1  0  0  0
  4  5  2  0  0  0
  4  6  1  0  0  0
  6 18  1  0  0  0
 18 19  2  0  0  0
 19 20  1  0  0  0
 20 21  2  0  0  0
 21 22  1  0  0  0
 22 23  2  0  0  0
  3  7  1  0  0  0
  7  8  2  0  0  0
  7  9  1  0  0  0
  9 10  1  0  0  0
 10 11  1  0  0  0
 11 12  1  0  0  0
 12 13  1  0  0  0
 13 14  1  0  0  0
 12 15  1  0  0  0
 15 16  1  0  0  0
 16 17  1  0  0  0
  6  1  1  0  0  0
 23 18  1  0  0  0
 14  9  1  0  0  0
 17 15  1  0  0  0
M  END
> <minimizedAffinity>
0.76003

> <CNNscore>
0.4317224920

> <CNNaffinity>
6.7945389748

> <CNN_VS>
2.9333553314

> <CNNaffinity_variance>
0.4781948030

$$$$
[H]c1c([H])c([H])c([C@@]2([H])C(=O)C(C(=O)N3C([H])([H])C([H])([H])C([H])(C4([H])C([H])([H])C4([H])[H])C([H])([H])C3([H])[H])=N[C@]2([H])C([H])(C([H])([H])[H])C([H])([H])[H])c([H])c1[H]


 26 29  0  0  0  0  0  0  0  0999 V2000
   10.8254   23.2189    0.4895 C   0  0  0  0  0  0  0  0  0  0  0  0
   10.8903   23.8008   -0.7982 N   0  0  0  0  0  0  0  0  0  0  0  0
   11.9713   24.5407   -0.9361 C   0  0  0  0  0  0  0  0  0  0  0  0
   12.6968   24.4891    0.2941 C   0  0  0  0  0  0  0  0  0  0  0  0
   13.5232   25.2677    0.8173 O   0  0  0  0  0  0  0  0  0  0  0  0
   12.2392   23.1851    0.9354 C   0  0  0  0  0  0  0  0  0  0  0  0
   12.2190   25.2494   -2.1676 C   0  0  0  0  0  0  0  0  0  0  0  0
   11.1482   25.8198   -2.7171 O   0  0  0  0  0  0  0  0  0  0  0  0
   13.4162   25.4124   -2.8516 N   0  0  0  0  0  0  0  0  0  0  0  0
   13.3397   26.2924   -4.0609 C   0  0  0  0  0  0  0  0  0  0  0  0
   14.5719   27.1668   -4.0004 C   0  0  0  0  0  0  0  0  0  0  0  0
   15.7266   26.2839   -4.4356 C   0  0  0  0  0  0  0  0  0  0  0  0
   15.4669   24.8879   -3.9803 C   0  0  0  0  0  0  0  0  0  0  0  0
   14.7038   24.8550   -2.6300 C   0  0  0  0  0  0  0  0  0  0  0  0
   17.0609   26.7599   -3.9477 C   0  0  0  0  0  0  0  0  0  0  0  0
   17.2648   28.2480   -4.0347 C   0  0  0  0  0  0  0  0  0  0  0  0
   17.2708   27.4935   -2.7000 C   0  0  0  0  0  0  0  0  0  0  0  0
   13.0870   22.1184    0.4383 C   0  0  0  0  0  0  0  0  0  0  0  0
   14.3707   22.0248    1.0027 C   0  0  0  0  0  0  0  0  0  0  0  0
   15.2659   21.0612    0.6208 C   0  0  0  0  0  0  0  0  0  0  0  0
   14.9196   20.1396   -0.3488 C   0  0  0  0  0  0  0  0  0  0  0  0
   13.6816   20.1947   -0.9234 C   0  0  0  0  0  0  0  0  0  0  0  0
   12.7927   21.1921   -0.5092 C   0  0  0  0  0  0  0  0  0  0  0  0
    9.9821   23.7078    2.8077 C   0  0  0  0  0  0  0  0  0  0  0  0
    9.9125   24.0288    1.3596 C   0  0  0  0  0  0  0  0  0  0  0  0
    8.4785   23.7391    0.8935 C   0  0  0  0  0  0  0  0  0  0  0  0
 24 25  1  0  0  0
 25 26  1  0  0  0
 25  1  1  0  0  0
  1  2  1  0  0  0
  2  3  2  0  0  0
  3  4  1  0  0  0
  4  5  2  0  0  0
  4  6  1  0  0  0
  6 18  1  0  0  0
 18 19  2  0  0  0
 19 20  1  0  0  0
 20 21  2  0  0  0
 21 22  1  0  0  0
 22 23  2  0  0  0
  3  7  1  0  0  0
  7  8  2  0  0  0
  7  9  1  0  0  0
  9 10  1  0  0  0
 10 11  1  0  0  0
 11 12  1  0  0  0
 12 13  1  0  0  0
 13 14  1  0  0  0
 12 15  1  0  0  0
 15 16  1  0  0  0
 16 17  1  0  0  0
  6  1  1  0  0  0
 23 18  1  0  0  0
 14  9  1  0  0  0
 17 15  1  0  0  0
M  END
> <minimizedAffinity>
-5.91387

> <CNNscore>
0.4211377501

> <CNNaffinity>
6.9300622940

> <CNN_VS>
2.9185109138

> <CNNaffinity_variance>
0.1969293058

$$$$
[H]c1c([H])c(C2([H])N(C(=O)N([H])C([H])([H])C([H])([H])C([H])([H])N(C([H])([H])[H])C([H])([H])[H])C(S(=O)(=O)C([H])(C([H])([H])[H])C([H])([H])[H])=NC2(C([H])([H])[H])C([H])([H])[H])c(F)c([H])c1C(F)(F)F


 34 35  0  0  0  0  0  0  0  0999 V2000
   12.1120   27.0325   -2.0884 C   0  0  0  0  0  0  0  0  0  0  0  0
   12.0517   25.5234   -2.0541 C   0  0  0  0  0  0  0  0  0  0  0  0
   10.7280   25.0706   -2.6020 C   0  0  0  0  0  0  0  0  0  0  0  0
   13.1002   25.0052   -2.9010 N   0  0  0  0  0  0  0  0  0  0  0  0
   13.8602   24.1229   -2.2821 C   0  0  0  0  0  0  0  0  0  0  0  0
   13.4678   24.0456   -0.9232 N   0  0  0  0  0  0  0  0  0  0  0  0
   12.4111   24.9407   -0.7403 C   0  0  0  0  0  0  0  0  0  0  0  0
   14.0690   23.0501   -0.0383 C   0  0  0  0  0  0  0  0  0  0  0  0
   14.0565   23.3514    1.2076 O   0  0  0  0  0  0  0  0  0  0  0  0
   14.6120   21.8509   -0.5054 N   0  0  0  0  0  0  0  0  0  0  0  0
   14.3679   21.6777   -1.5765 H   0  0  0  0  0  0  0  0  0  0  0  0
   11.2876   24.7595    0.1658 C   0  0  0  0  0  0  0  0  0  0  0  0
   11.3338   25.5622    1.3433 C   0  0  0  0  0  0  0  0  0  0  0  0
   10.4777   25.4129    2.3938 C   0  0  0  0  0  0  0  0  0  0  0  0
    9.4924   24.4500    2.3811 C   0  0  0  0  0  0  0  0  0  0  0  0
    9.4119   23.6680    1.2760 C   0  0  0  0  0  0  0  0  0  0  0  0
   10.2929   23.8345    0.2053 C   0  0  0  0  0  0  0  0  0  0  0  0
   10.0281   23.1137   -0.9262 F   0  0  0  0  0  0  0  0  0  0  0  0
    8.5801   24.3637    3.5681 C   0  0  0  0  0  0  0  0  0  0  0  0
    8.0571   25.6131    3.8479 F   0  0  0  0  0  0  0  0  0  0  0  0
    7.5628   23.5497    3.2135 F   0  0  0  0  0  0  0  0  0  0  0  0
    9.2516   23.9662    4.7177 F   0  0  0  0  0  0  0  0  0  0  0  0
   15.1947   23.4602   -3.2252 S   0  0  0  0  0  0  0  0  0  0  0  0
   15.7714   22.1900   -2.6577 O   0  0  0  0  0  0  0  0  0  0  0  0
   14.9875   23.4834   -4.6794 O   0  0  0  0  0  0  0  0  0  0  0  0
   16.6331   24.5842   -2.9323 C   0  0  0  0  0  0  0  0  0  0  0  0
   16.8043   24.8414   -1.4898 C   0  0  0  0  0  0  0  0  0  0  0  0
   16.3661   25.8949   -3.6751 C   0  0  0  0  0  0  0  0  0  0  0  0
   15.2633   20.7627    0.0857 C   0  0  0  0  0  0  0  0  0  0  0  0
   14.7065   20.0450    1.2615 C   0  0  0  0  0  0  0  0  0  0  0  0
   13.1789   20.0157    0.9855 C   0  0  0  0  0  0  0  0  0  0  0  0
   12.3491   20.2748    2.0305 N   0  0  0  0  0  0  0  0  0  0  0  0
   12.2770   21.5405    2.6144 C   0  0  0  0  0  0  0  0  0  0  0  0
   11.8906   19.1701    2.7866 C   0  0  0  0  0  0  0  0  0  0  0  0
  1  2  1  0  0  0
  2  3  1  0  0  0
  2  4  1  0  0  0
  4  5  2  0  0  0
  5 23  1  0  0  0
 23 24  2  0  0  0
 23 25  2  0  0  0
 23 26  1  0  0  0
 26 27  1  0  0  0
 26 28  1  0  0  0
  5  6  1  0  0  0
  6  7  1  0  0  0
  7 12  1  0  0  0
 12 13  2  0  0  0
 13 14  1  0  0  0
 14 15  2  0  0  0
 15 16  1  0  0  0
 16 17  2  0  0  0
 17 18  1  0  0  0
 15 19  1  0  0  0
 19 20  1  0  0  0
 19 21  1  0  0  0
 19 22  1  0  0  0
  6  8  1  0  0  0
  8  9  2  0  0  0
  8 10  1  0  0  0
 10 29  1  0  0  0
 29 30  1  0  0  0
 30 31  1  0  0  0
 31 32  1  0  0  0
 32 33  1  0  0  0
 32 34  1  0  0  0
  7  2  1  0  0  0
 17 12  1  0  0  0
 10 11  1  0  0  0
M  END
> <minimizedAffinity>
2.37064

> <CNNscore>
0.5453595519

> <CNNaffinity>
7.3261957169

> <CNN_VS>
3.9954109192

> <CNNaffinity_variance>
0.6106364131

$$$$
[H]c1c([H])c(C2([H])N(C(=O)N([H])C([H])([H])C([H])([H])C([H])([H])N(C([H])([H])[H])C([H])([H])[H])C(S(=O)(=O)C([H])(C([H])([H])[H])C([H])([H])[H])=NC2(C([H])([H])[H])C([H])([H])[H])c(F)c([H])c1C(F)(F)F


 34 35  0  0  0  0  0  0  0  0999 V2000
   15.6814   21.5743    0.9538 C   0  0  0  0  0  0  0  0  0  0  0  0
   14.3726   21.7132    0.2121 C   0  0  0  0  0  0  0  0  0  0  0  0
   14.5420   21.1941   -1.1876 C   0  0  0  0  0  0  0  0  0  0  0  0
   13.3799   20.9074    0.8832 N   0  0  0  0  0  0  0  0  0  0  0  0
   12.2886   21.5884    1.1742 C   0  0  0  0  0  0  0  0  0  0  0  0
   12.4854   22.9482    0.8296 N   0  0  0  0  0  0  0  0  0  0  0  0
   13.7743   23.0654    0.3039 C   0  0  0  0  0  0  0  0  0  0  0  0
   11.3831   23.9019    0.9354 C   0  0  0  0  0  0  0  0  0  0  0  0
   11.7348   25.1238    1.0982 O   0  0  0  0  0  0  0  0  0  0  0  0
   10.0416   23.5208    0.8571 N   0  0  0  0  0  0  0  0  0  0  0  0
    9.9322   22.4636    0.5297 H   0  0  0  0  0  0  0  0  0  0  0  0
   14.1847   23.9785   -0.7514 C   0  0  0  0  0  0  0  0  0  0  0  0
   13.2448   24.1255   -1.8135 C   0  0  0  0  0  0  0  0  0  0  0  0
   13.5134   24.7892   -2.9739 C   0  0  0  0  0  0  0  0  0  0  0  0
   14.7426   25.3704   -3.1963 C   0  0  0  0  0  0  0  0  0  0  0  0
   15.6638   25.2569   -2.2075 C   0  0  0  0  0  0  0  0  0  0  0  0
   15.3739   24.5777   -1.0222 C   0  0  0  0  0  0  0  0  0  0  0  0
   16.3045   24.6597   -0.0236 F   0  0  0  0  0  0  0  0  0  0  0  0
   14.9509   26.0979   -4.4910 C   0  0  0  0  0  0  0  0  0  0  0  0
   15.2501   25.1929   -5.4931 F   0  0  0  0  0  0  0  0  0  0  0  0
   13.7755   26.6897   -4.7935 F   0  0  0  0  0  0  0  0  0  0  0  0
   16.0291   26.9723   -4.4336 F   0  0  0  0  0  0  0  0  0  0  0  0
   11.0308   20.6975    2.0308 S   0  0  0  0  0  0  0  0  0  0  0  0
    9.6627   20.8292    1.4151 O   0  0  0  0  0  0  0  0  0  0  0  0
   11.4202   19.3473    2.4588 O   0  0  0  0  0  0  0  0  0  0  0  0
   10.7290   21.6252    3.6013 C   0  0  0  0  0  0  0  0  0  0  0  0
   11.4750   21.0121    4.7167 C   0  0  0  0  0  0  0  0  0  0  0  0
    9.2265   21.5908    3.8879 C   0  0  0  0  0  0  0  0  0  0  0  0
    8.8157   24.1880    0.9566 C   0  0  0  0  0  0  0  0  0  0  0  0
    8.0739   24.3025    2.2389 C   0  0  0  0  0  0  0  0  0  0  0  0
    8.9070   25.3266    3.0560 C   0  0  0  0  0  0  0  0  0  0  0  0
    8.2245   26.2406    3.7953 N   0  0  0  0  0  0  0  0  0  0  0  0
    7.3453   27.1515    3.2074 C   0  0  0  0  0  0  0  0  0  0  0  0
    8.7286   26.5438    5.0823 C   0  0  0  0  0  0  0  0  0  0  0  0
  1  2  1  0  0  0
  2  3  1  0  0  0
  2  4  1  0  0  0
  4  5  2  0  0  0
  5 23  1  0  0  0
 23 24  2  0  0  0
 23 25  2  0  0  0
 23 26  1  0  0  0
 26 27  1  0  0  0
 26 28  1  0  0  0
  5  6  1  0  0  0
  6  7  1  0  0  0
  7 12  1  0  0  0
 12 13  2  0  0  0
 13 14  1  0  0  0
 14 15  2  0  0  0
 15 16  1  0  0  0
 16 17  2  0  0  0
 17 18  1  0  0  0
 15 19  1  0  0  0
 19 20  1  0  0  0
 19 21  1  0  0  0
 19 22  1  0  0  0
  6  8  1  0  0  0
  8  9  2  0  0  0
  8 10  1  0  0  0
 10 29  1  0  0  0
 29 30  1  0  0  0
 30 31  1  0  0  0
 31 32  1  0  0  0
 32 33  1  0  0  0
 32 34  1  0  0  0
  7  2  1  0  0  0
 17 12  1  0  0  0
 10 11  1  0  0  0
M  END
> <minimizedAffinity>
-8.69164

> <CNNscore>
0.5323432684

> <CNNaffinity>
7.3992409706

> <CNN_VS>
3.9389362335

> <CNNaffinity_variance>
0.4844276011

$$$$
[H]c1c([H])c(C2([H])N(C(=O)N([H])C([H])([H])C([H])([H])C([H])([H])N(C([H])([H])[H])C([H])([H])[H])C(S(=O)(=O)C([H])(C([H])([H])[H])C([H])([H])[H])=NC2(C([H])([H])[H])C([H])([H])[H])c(F)c([H])c1C(F)(F)F


 34 35  0  0  0  0  0  0  0  0999 V2000
   15.9404   21.8708    1.3001 C   0  0  0  0  0  0  0  0  0  0  0  0
   14.6558   21.7980    0.5084 C   0  0  0  0  0  0  0  0  0  0  0  0
   14.9371   21.1787   -0.8312 C   0  0  0  0  0  0  0  0  0  0  0  0
   13.7284   20.9504    1.2201 N   0  0  0  0  0  0  0  0  0  0  0  0
   12.5595   21.5299    1.4127 C   0  0  0  0  0  0  0  0  0  0  0  0
   12.6234   22.8670    0.9498 N   0  0  0  0  0  0  0  0  0  0  0  0
   13.9129   23.0787    0.4559 C   0  0  0  0  0  0  0  0  0  0  0  0
   11.4220   23.6989    0.9325 C   0  0  0  0  0  0  0  0  0  0  0  0
   11.6338   24.9617    0.9921 O   0  0  0  0  0  0  0  0  0  0  0  0
   10.1334   23.1666    0.8482 N   0  0  0  0  0  0  0  0  0  0  0  0
   10.1513   22.0789    0.6170 H   0  0  0  0  0  0  0  0  0  0  0  0
   14.2660   23.9342   -0.6663 C   0  0  0  0  0  0  0  0  0  0  0  0
   13.3520   23.8933   -1.7600 C   0  0  0  0  0  0  0  0  0  0  0  0
   13.5922   24.4782   -2.9679 C   0  0  0  0  0  0  0  0  0  0  0  0
   14.7648   25.1594   -3.2112 C   0  0  0  0  0  0  0  0  0  0  0  0
   15.6593   25.2254   -2.1940 C   0  0  0  0  0  0  0  0  0  0  0  0
   15.3986   24.6251   -0.9603 C   0  0  0  0  0  0  0  0  0  0  0  0
   16.2829   24.8867    0.0495 F   0  0  0  0  0  0  0  0  0  0  0  0
   14.9432   25.7899   -4.5600 C   0  0  0  0  0  0  0  0  0  0  0  0
   15.1880   24.8105   -5.5054 F   0  0  0  0  0  0  0  0  0  0  0  0
   13.7708   26.3868   -4.8642 F   0  0  0  0  0  0  0  0  0  0  0  0
   16.0411   26.6405   -4.6003 F   0  0  0  0  0  0  0  0  0  0  0  0
   11.3703   20.5852    2.3087 S   0  0  0  0  0  0  0  0  0  0  0  0
    9.9715   20.6863    1.7597 O   0  0  0  0  0  0  0  0  0  0  0  0
   11.8194   19.2398    2.6912 O   0  0  0  0  0  0  0  0  0  0  0  0
   11.1150   21.4739    3.9097 C   0  0  0  0  0  0  0  0  0  0  0  0
   11.3414   20.5645    5.0489 C   0  0  0  0  0  0  0  0  0  0  0  0
    9.6792   22.0021    3.9320 C   0  0  0  0  0  0  0  0  0  0  0  0
    8.8400   23.7006    0.8473 C   0  0  0  0  0  0  0  0  0  0  0  0
    7.6925   23.0052    0.2090 C   0  0  0  0  0  0  0  0  0  0  0  0
    8.0689   21.5025    0.3124 C   0  0  0  0  0  0  0  0  0  0  0  0
    8.2119   20.8118   -0.8496 N   0  0  0  0  0  0  0  0  0  0  0  0
    7.3119   19.8135   -1.2258 C   0  0  0  0  0  0  0  0  0  0  0  0
    9.4925   20.8095   -1.4517 C   0  0  0  0  0  0  0  0  0  0  0  0
  1  2  1  0  0  0
  2  3  1  0  0  0
  2  4  1  0  0  0
  4  5  2  0  0  0
  5 23  1  0  0  0
 23 24  2  0  0  0
 23 25  2  0  0  0
 23 26  1  0  0  0
 26 27  1  0  0  0
 26 28  1  0  0  0
  5  6  1  0  0  0
  6  7  1  0  0  0
  7 12  1  0  0  0
 12 13  2  0  0  0
 13 14  1  0  0  0
 14 15  2  0  0  0
 15 16  1  0  0  0
 16 17  2  0  0  0
 17 18  1  0  0  0
 15 19  1  0  0  0
 19 20  1  0  0  0
 19 21  1  0  0  0
 19 22  1  0  0  0
  6  8  1  0  0  0
  8  9  2  0  0  0
  8 10  1  0  0  0
 10 29  1  0  0  0
 29 30  1  0  0  0
 30 31  1  0  0  0
 31 32  1  0  0  0
 32 33  1  0  0  0
 32 34  1  0  0  0
  7  2  1  0  0  0
 17 12  1  0  0  0
 10 11  1  0  0  0
M  END
> <minimizedAffinity>
-7.90279

> <CNNscore>
0.5026351810

> <CNNaffinity>
7.5422263145

> <CNN_VS>
3.7909882069

> <CNNaffinity_variance>
0.3270084858

$$$$
[H]c1c([H])c(C2([H])N(C(=O)N([H])C([H])([H])C([H])([H])C([H])([H])N(C([H])([H])[H])C([H])([H])[H])C(S(=O)(=O)C([H])(C([H])([H])[H])C([H])([H])[H])=NC2(C([H])([H])[H])C([H])([H])[H])c(F)c([H])c1C(F)(F)F


 34 35  0  0  0  0  0  0  0  0999 V2000
   16.6540   25.4273   -5.2947 C   0  0  0  0  0  0  0  0  0  0  0  0
   15.2571   25.1066   -4.8170 C   0  0  0  0  0  0  0  0  0  0  0  0
   14.2725   25.4758   -5.8900 C   0  0  0  0  0  0  0  0  0  0  0  0
   15.1697   23.6842   -4.5838 N   0  0  0  0  0  0  0  0  0  0  0  0
   14.7115   23.3963   -3.3812 C   0  0  0  0  0  0  0  0  0  0  0  0
   14.5535   24.5967   -2.6460 N   0  0  0  0  0  0  0  0  0  0  0  0
   14.9449   25.6508   -3.4749 C   0  0  0  0  0  0  0  0  0  0  0  0
   13.9414   24.5728   -1.3192 C   0  0  0  0  0  0  0  0  0  0  0  0
   14.2778   25.5394   -0.5475 O   0  0  0  0  0  0  0  0  0  0  0  0
   13.0471   23.5787   -0.9154 N   0  0  0  0  0  0  0  0  0  0  0  0
   12.7316   22.9375   -1.7676 H   0  0  0  0  0  0  0  0  0  0  0  0
   14.3680   26.9861   -3.4858 C   0  0  0  0  0  0  0  0  0  0  0  0
   12.9731   27.0369   -3.1947 C   0  0  0  0  0  0  0  0  0  0  0  0
   12.2134   28.1610   -3.3295 C   0  0  0  0  0  0  0  0  0  0  0  0
   12.7623   29.3456   -3.7694 C   0  0  0  0  0  0  0  0  0  0  0  0
   14.0885   29.3404   -4.0527 C   0  0  0  0  0  0  0  0  0  0  0  0
   14.8557   28.1826   -3.9063 C   0  0  0  0  0  0  0  0  0  0  0  0
   16.2081   28.3186   -4.0563 F   0  0  0  0  0  0  0  0  0  0  0  0
   11.8623   30.5407   -3.8723 C   0  0  0  0  0  0  0  0  0  0  0  0
   11.5902   31.0316   -2.6082 F   0  0  0  0  0  0  0  0  0  0  0  0
   12.5497   31.4830   -4.5524 F   0  0  0  0  0  0  0  0  0  0  0  0
   10.6302   30.2227   -4.4303 F   0  0  0  0  0  0  0  0  0  0  0  0
   14.6046   21.6805   -2.9886 S   0  0  0  0  0  0  0  0  0  0  0  0
   15.6520   21.2112   -2.0134 O   0  0  0  0  0  0  0  0  0  0  0  0
   13.2395   21.1891   -2.7579 O   0  0  0  0  0  0  0  0  0  0  0  0
   15.1871   20.7764   -4.4924 C   0  0  0  0  0  0  0  0  0  0  0  0
   16.0986   21.6231   -5.2853 C   0  0  0  0  0  0  0  0  0  0  0  0
   13.9579   20.4010   -5.3225 C   0  0  0  0  0  0  0  0  0  0  0  0
   12.3553   23.2902    0.2662 C   0  0  0  0  0  0  0  0  0  0  0  0
   11.0721   23.9512    0.6185 C   0  0  0  0  0  0  0  0  0  0  0  0
   10.0066   22.8551    0.3468 C   0  0  0  0  0  0  0  0  0  0  0  0
   10.1463   21.6710    0.9997 N   0  0  0  0  0  0  0  0  0  0  0  0
   10.2124   21.6039    2.3922 C   0  0  0  0  0  0  0  0  0  0  0  0
   10.6509   20.5756    0.2596 C   0  0  0  0  0  0  0  0  0  0  0  0
  1  2  1  0  0  0
  2  3  1  0  0  0
  2  4  1  0  0  0
  4  5  2  0  0  0
  5 23  1  0  0  0
 23 24  2  0  0  0
 23 25  2  0  0  0
 23 26  1  0  0  0
 26 27  1  0  0  0
 26 28  1  0  0  0
  5  6  1  0  0  0
  6  7  1  0  0  0
  7 12  1  0  0  0
 12 13  2  0  0  0
 13 14  1  0  0  0
 14 15  2  0  0  0
 15 16  1  0  0  0
 16 17  2  0  0  0
 17 18  1  0  0  0
 15 19  1  0  0  0
 19 20  1  0  0  0
 19 21  1  0  0  0
 19 22  1  0  0  0
  6  8  1  0  0  0
  8  9  2  0  0  0
  8 10  1  0  0  0
 10 29  1  0  0  0
 29 30  1  0  0  0
 30 31  1  0  0  0
 31 32  1  0  0  0
 32 33  1  0  0  0
 32 34  1  0  0  0
  7  2  1  0  0  0
 17 12  1  0  0  0
 10 11  1  0  0  0
M  END
> <minimizedAffinity>
15.53948

> <CNNscore>
0.4987253845

> <CNNaffinity>
7.1985197067

> <CNN_VS>
3.5900845528

> <CNNaffinity_variance>
1.2776249647

$$$$
[H]c1c([H])c(C2([H])N(C(=O)N([H])C([H])([H])C([H])([H])C([H])([H])N(C([H])([H])[H])C([H])([H])[H])C(S(=O)(=O)C([H])(C([H])([H])[H])C([H])([H])[H])=NC2(C([H])([H])[H])C([H])([H])[H])c(F)c([H])c1C(F)(F)F


 34 35  0  0  0  0  0  0  0  0999 V2000
   15.6846   21.5675    0.7505 C   0  0  0  0  0  0  0  0  0  0  0  0
   14.3706   21.7989    0.0419 C   0  0  0  0  0  0  0  0  0  0  0  0
   14.4796   21.3038   -1.3724 C   0  0  0  0  0  0  0  0  0  0  0  0
   13.3473   21.0362    0.7174 N   0  0  0  0  0  0  0  0  0  0  0  0
   12.3039   21.7719    1.0480 C   0  0  0  0  0  0  0  0  0  0  0  0
   12.5719   23.1258    0.7291 N   0  0  0  0  0  0  0  0  0  0  0  0
   13.8540   23.1808    0.1771 C   0  0  0  0  0  0  0  0  0  0  0  0
   11.5295   24.1387    0.8810 C   0  0  0  0  0  0  0  0  0  0  0  0
   11.9550   25.3341    1.0626 O   0  0  0  0  0  0  0  0  0  0  0  0
   10.1667   23.8375    0.8247 N   0  0  0  0  0  0  0  0  0  0  0  0
    9.9891   22.7962    0.4766 H   0  0  0  0  0  0  0  0  0  0  0  0
   14.2941   24.0931   -0.8669 C   0  0  0  0  0  0  0  0  0  0  0  0
   13.3628   24.2782   -1.9306 C   0  0  0  0  0  0  0  0  0  0  0  0
   13.6544   24.9464   -3.0827 C   0  0  0  0  0  0  0  0  0  0  0  0
   14.9005   25.4947   -3.2946 C   0  0  0  0  0  0  0  0  0  0  0  0
   15.8144   25.3445   -2.3040 C   0  0  0  0  0  0  0  0  0  0  0  0
   15.5008   24.6611   -1.1270 C   0  0  0  0  0  0  0  0  0  0  0  0
   16.4296   24.7059   -0.1244 F   0  0  0  0  0  0  0  0  0  0  0  0
   15.1342   26.2298   -4.5806 C   0  0  0  0  0  0  0  0  0  0  0  0
   15.5386   25.3414   -5.5604 F   0  0  0  0  0  0  0  0  0  0  0  0
   13.9439   26.7509   -4.9481 F   0  0  0  0  0  0  0  0  0  0  0  0
   16.1549   27.1662   -4.4713 F   0  0  0  0  0  0  0  0  0  0  0  0
   11.0150   20.9353    1.9130 S   0  0  0  0  0  0  0  0  0  0  0  0
   11.4186   19.5903    2.4575 O   0  0  0  0  0  0  0  0  0  0  0  0
   10.2282   21.7882    2.8138 O   0  0  0  0  0  0  0  0  0  0  0  0
    9.8160   20.3742    0.6224 C   0  0  0  0  0  0  0  0  0  0  0  0
   10.2726   20.7801   -0.7204 C   0  0  0  0  0  0  0  0  0  0  0  0
    8.4583   21.0074    0.9331 C   0  0  0  0  0  0  0  0  0  0  0  0
    8.9841   24.5717    0.9667 C   0  0  0  0  0  0  0  0  0  0  0  0
    8.1893   24.5650    2.2220 C   0  0  0  0  0  0  0  0  0  0  0  0
    9.0512   25.3991    3.2079 C   0  0  0  0  0  0  0  0  0  0  0  0
    8.7305   25.3358    4.5273 N   0  0  0  0  0  0  0  0  0  0  0  0
    8.7104   26.4751    5.3334 C   0  0  0  0  0  0  0  0  0  0  0  0
    8.8397   24.0767    5.1637 C   0  0  0  0  0  0  0  0  0  0  0  0
  1  2  1  0  0  0
  2  3  1  0  0  0
  2  4  1  0  0  0
  4  5  2  0  0  0
  5 23  1  0  0  0
 23 24  2  0  0  0
 23 25  2  0  0  0
 23 26  1  0  0  0
 26 27  1  0  0  0
 26 28  1  0  0  0
  5  6  1  0  0  0
  6  7  1  0  0  0
  7 12  1  0  0  0
 12 13  2  0  0  0
 13 14  1  0  0  0
 14 15  2  0  0  0
 15 16  1  0  0  0
 16 17  2  0  0  0
 17 18  1  0  0  0
 15 19  1  0  0  0
 19 20  1  0  0  0
 19 21  1  0  0  0
 19 22  1  0  0  0
  6  8  1  0  0  0
  8  9  2  0  0  0
  8 10  1  0  0  0
 10 29  1  0  0  0
 29 30  1  0  0  0
 30 31  1  0  0  0
 31 32  1  0  0  0
 32 33  1  0  0  0
 32 34  1  0  0  0
  7  2  1  0  0  0
 17 12  1  0  0  0
 10 11  1  0  0  0
M  END
> <minimizedAffinity>
-7.97321

> <CNNscore>
0.4905791581

> <CNNaffinity>
7.5146284103

> <CNN_VS>
3.6865200996

> <CNNaffinity_variance>
0.1983153373

$$$$
[H]c1c([H])c(C2([H])N(C(=O)N([H])C([H])([H])C([H])([H])C([H])([H])N(C([H])([H])[H])C([H])([H])[H])C(S(=O)(=O)C([H])(C([H])([H])[H])C([H])([H])[H])=NC2(C([H])([H])[H])C([H])([H])[H])c(F)c([H])c1C(F)(F)F


 34 35  0  0  0  0  0  0  0  0999 V2000
   16.8191   25.2850   -5.2749 C   0  0  0  0  0  0  0  0  0  0  0  0
   15.3629   25.0045   -4.9871 C   0  0  0  0  0  0  0  0  0  0  0  0
   14.5338   25.4559   -6.1558 C   0  0  0  0  0  0  0  0  0  0  0  0
   15.1951   23.5790   -4.8288 N   0  0  0  0  0  0  0  0  0  0  0  0
   14.5804   23.2639   -3.7055 C   0  0  0  0  0  0  0  0  0  0  0  0
   14.3760   24.4404   -2.9435 N   0  0  0  0  0  0  0  0  0  0  0  0
   14.9059   25.5087   -3.6711 C   0  0  0  0  0  0  0  0  0  0  0  0
   13.6029   24.3905   -1.7043 C   0  0  0  0  0  0  0  0  0  0  0  0
   13.8756   25.3115   -0.8556 O   0  0  0  0  0  0  0  0  0  0  0  0
   12.6295   23.4196   -1.4575 N   0  0  0  0  0  0  0  0  0  0  0  0
   12.3994   22.8258   -2.3692 H   0  0  0  0  0  0  0  0  0  0  0  0
   14.3841   26.8663   -3.6944 C   0  0  0  0  0  0  0  0  0  0  0  0
   13.0706   27.0110   -3.1589 C   0  0  0  0  0  0  0  0  0  0  0  0
   12.3388   28.1577   -3.2515 C   0  0  0  0  0  0  0  0  0  0  0  0
   12.8371   29.2737   -3.8873 C   0  0  0  0  0  0  0  0  0  0  0  0
   14.0863   29.1785   -4.4067 C   0  0  0  0  0  0  0  0  0  0  0  0
   14.8264   27.9988   -4.3011 C   0  0  0  0  0  0  0  0  0  0  0  0
   16.1311   28.0536   -4.7071 F   0  0  0  0  0  0  0  0  0  0  0  0
   11.9760   30.5006   -3.9293 C   0  0  0  0  0  0  0  0  0  0  0  0
   11.8166   31.0042   -2.6511 F   0  0  0  0  0  0  0  0  0  0  0  0
   12.6448   31.4156   -4.6634 F   0  0  0  0  0  0  0  0  0  0  0  0
   10.6951   30.2267   -4.3929 F   0  0  0  0  0  0  0  0  0  0  0  0
   14.3627   21.5401   -3.4043 S   0  0  0  0  0  0  0  0  0  0  0  0
   15.0387   21.0494   -2.1512 O   0  0  0  0  0  0  0  0  0  0  0  0
   13.0002   21.0446   -3.6408 O   0  0  0  0  0  0  0  0  0  0  0  0
   15.4089   20.6684   -4.6549 C   0  0  0  0  0  0  0  0  0  0  0  0
   16.3573   21.6080   -5.2824 C   0  0  0  0  0  0  0  0  0  0  0  0
   14.4792   20.0702   -5.7126 C   0  0  0  0  0  0  0  0  0  0  0  0
   11.7858   23.1145   -0.3837 C   0  0  0  0  0  0  0  0  0  0  0  0
   10.9098   21.9144   -0.3760 C   0  0  0  0  0  0  0  0  0  0  0  0
   11.8246   20.7945    0.1893 C   0  0  0  0  0  0  0  0  0  0  0  0
   12.5960   21.1005    1.2659 N   0  0  0  0  0  0  0  0  0  0  0  0
   12.1921   22.0409    2.2150 C   0  0  0  0  0  0  0  0  0  0  0  0
   13.9739   20.7878    1.1889 C   0  0  0  0  0  0  0  0  0  0  0  0
  1  2  1  0  0  0
  2  3  1  0  0  0
  2  4  1  0  0  0
  4  5  2  0  0  0
  5 23  1  0  0  0
 23 24  2  0  0  0
 23 25  2  0  0  0
 23 26  1  0  0  0
 26 27  1  0  0  0
 26 28  1  0  0  0
  5  6  1  0  0  0
  6  7  1  0  0  0
  7 12  1  0  0  0
 12 13  2  0  0  0
 13 14  1  0  0  0
 14 15  2  0  0  0
 15 16  1  0  0  0
 16 17  2  0  0  0
 17 18  1  0  0  0
 15 19  1  0  0  0
 19 20  1  0  0  0
 19 21  1  0  0  0
 19 22  1  0  0  0
  6  8  1  0  0  0
  8  9  2  0  0  0
  8 10  1  0  0  0
 10 29  1  0  0  0
 29 30  1  0  0  0
 30 31  1  0  0  0
 31 32  1  0  0  0
 32 33  1  0  0  0
 32 34  1  0  0  0
  7  2  1  0  0  0
 17 12  1  0  0  0
 10 11  1  0  0  0
M  END
> <minimizedAffinity>
18.14394

> <CNNscore>
0.4894111753

> <CNNaffinity>
7.1277036667

> <CNN_VS>
3.4883778095

> <CNNaffinity_variance>
0.9540355802

$$$$
[H]c1c([H])c(C2([H])N(C(=O)N([H])C([H])([H])C([H])([H])C([H])([H])N(C([H])([H])[H])C([H])([H])[H])C(S(=O)(=O)C([H])(C([H])([H])[H])C([H])([H])[H])=NC2(C([H])([H])[H])C([H])([H])[H])c(F)c([H])c1C(F)(F)F


 34 35  0  0  0  0  0  0  0  0999 V2000
   12.0039   27.1300   -2.4094 C   0  0  0  0  0  0  0  0  0  0  0  0
   12.4271   25.6852   -2.2852 C   0  0  0  0  0  0  0  0  0  0  0  0
   11.4497   24.8198   -3.0287 C   0  0  0  0  0  0  0  0  0  0  0  0
   13.7278   25.5364   -2.8946 N   0  0  0  0  0  0  0  0  0  0  0  0
   14.5986   24.9559   -2.0922 C   0  0  0  0  0  0  0  0  0  0  0  0
   14.0006   24.7605   -0.8231 N   0  0  0  0  0  0  0  0  0  0  0  0
   12.6976   25.2594   -0.8921 C   0  0  0  0  0  0  0  0  0  0  0  0
   14.7099   24.0223    0.2198 C   0  0  0  0  0  0  0  0  0  0  0  0
   14.3638   24.3088    1.4203 O   0  0  0  0  0  0  0  0  0  0  0  0
   15.6884   23.0660   -0.0613 N   0  0  0  0  0  0  0  0  0  0  0  0
   15.7218   22.8170   -1.1447 H   0  0  0  0  0  0  0  0  0  0  0  0
   11.5413   24.7233   -0.1910 C   0  0  0  0  0  0  0  0  0  0  0  0
   11.2357   25.3722    1.0413 C   0  0  0  0  0  0  0  0  0  0  0  0
   10.3095   24.9107    1.9291 C   0  0  0  0  0  0  0  0  0  0  0  0
    9.5967   23.7577    1.6831 C   0  0  0  0  0  0  0  0  0  0  0  0
    9.8547   23.1125    0.5184 C   0  0  0  0  0  0  0  0  0  0  0  0
   10.8033   23.5987   -0.3839 C   0  0  0  0  0  0  0  0  0  0  0  0
   10.8729   22.9740   -1.5984 F   0  0  0  0  0  0  0  0  0  0  0  0
    8.5833   23.3284    2.7016 C   0  0  0  0  0  0  0  0  0  0  0  0
    9.1904   23.1919    3.9368 F   0  0  0  0  0  0  0  0  0  0  0  0
    7.6754   24.3244    2.7850 F   0  0  0  0  0  0  0  0  0  0  0  0
    8.0373   22.0853    2.4066 F   0  0  0  0  0  0  0  0  0  0  0  0
   16.2293   24.7642   -2.7354 S   0  0  0  0  0  0  0  0  0  0  0  0
   17.3167   24.9806   -1.7161 O   0  0  0  0  0  0  0  0  0  0  0  0
   16.4025   23.6132   -3.6316 O   0  0  0  0  0  0  0  0  0  0  0  0
   16.5346   26.2450   -3.7994 C   0  0  0  0  0  0  0  0  0  0  0  0
   16.9243   27.4043   -2.9745 C   0  0  0  0  0  0  0  0  0  0  0  0
   15.2450   26.5499   -4.5643 C   0  0  0  0  0  0  0  0  0  0  0  0
   16.5300   22.2552    0.7082 C   0  0  0  0  0  0  0  0  0  0  0  0
   16.0568   21.0033    1.3536 C   0  0  0  0  0  0  0  0  0  0  0  0
   15.1389   20.3596    0.2795 C   0  0  0  0  0  0  0  0  0  0  0  0
   13.8476   20.7807    0.2261 N   0  0  0  0  0  0  0  0  0  0  0  0
   13.0663   20.9006    1.3765 C   0  0  0  0  0  0  0  0  0  0  0  0
   13.1818   20.6816   -1.0186 C   0  0  0  0  0  0  0  0  0  0  0  0
  1  2  1  0  0  0
  2  3  1  0  0  0
  2  4  1  0  0  0
  4  5  2  0  0  0
  5 23  1  0  0  0
 23 24  2  0  0  0
 23 25  2  0  0  0
 23 26  1  0  0  0
 26 27  1  0  0  0
 26 28  1  0  0  0
  5  6  1  0  0  0
  6  7  1  0  0  0
  7 12  1  0  0  0
 12 13  2  0  0  0
 13 14  1  0  0  0
 14 15  2  0  0  0
 15 16  1  0  0  0
 16 17  2  0  0  0
 17 18  1  0  0  0
 15 19  1  0  0  0
 19 20  1  0  0  0
 19 21  1  0  0  0
 19 22  1  0  0  0
  6  8  1  0  0  0
  8  9  2  0  0  0
  8 10  1  0  0  0
 10 29  1  0  0  0
 29 30  1  0  0  0
 30 31  1  0  0  0
 31 32  1  0  0  0
 32 33  1  0  0  0
 32 34  1  0  0  0
  7  2  1  0  0  0
 17 12  1  0  0  0
 10 11  1  0  0  0
M  END
> <minimizedAffinity>
0.13126

> <CNNscore>
0.4518554211

> <CNNaffinity>
7.5461945534

> <CNN_VS>
3.4097888470

> <CNNaffinity_variance>
0.6057051420

$$$$
[H]c1c([H])c(C2([H])N(C(=O)N([H])C([H])([H])C([H])([H])C([H])([H])N(C([H])([H])[H])C([H])([H])[H])C(S(=O)(=O)C([H])(C([H])([H])[H])C([H])([H])[H])=NC2(C([H])([H])[H])C([H])([H])[H])c(F)c([H])c1C(F)(F)F


 34 35  0  0  0  0  0  0  0  0999 V2000
   15.4623   21.3610    0.9281 C   0  0  0  0  0  0  0  0  0  0  0  0
   14.0964   21.4582    0.2900 C   0  0  0  0  0  0  0  0  0  0  0  0
   14.1352   20.7997   -1.0598 C   0  0  0  0  0  0  0  0  0  0  0  0
   13.1530   20.7473    1.1204 N   0  0  0  0  0  0  0  0  0  0  0  0
   12.1022   21.4802    1.4332 C   0  0  0  0  0  0  0  0  0  0  0  0
   12.2900   22.7941    0.9384 N   0  0  0  0  0  0  0  0  0  0  0  0
   13.5301   22.8272    0.2961 C   0  0  0  0  0  0  0  0  0  0  0  0
   11.2165   23.7805    1.0411 C   0  0  0  0  0  0  0  0  0  0  0  0
   11.6005   25.0034    1.0499 O   0  0  0  0  0  0  0  0  0  0  0  0
    9.8673   23.4266    1.1156 N   0  0  0  0  0  0  0  0  0  0  0  0
    9.7129   22.3453    0.9065 H   0  0  0  0  0  0  0  0  0  0  0  0
   13.8618   23.6214   -0.8766 C   0  0  0  0  0  0  0  0  0  0  0  0
   15.2028   24.1045   -0.9115 C   0  0  0  0  0  0  0  0  0  0  0  0
   15.6573   25.0075   -1.8264 C   0  0  0  0  0  0  0  0  0  0  0  0
   14.8248   25.5229   -2.7957 C   0  0  0  0  0  0  0  0  0  0  0  0
   13.5414   25.0848   -2.7996 C   0  0  0  0  0  0  0  0  0  0  0  0
   13.0902   24.1564   -1.8589 C   0  0  0  0  0  0  0  0  0  0  0  0
   11.8323   23.6537   -2.0460 F   0  0  0  0  0  0  0  0  0  0  0  0
   15.4075   26.4970   -3.7756 C   0  0  0  0  0  0  0  0  0  0  0  0
   15.8384   25.8239   -4.9043 F   0  0  0  0  0  0  0  0  0  0  0  0
   14.4052   27.3271   -4.1357 F   0  0  0  0  0  0  0  0  0  0  0  0
   16.5271   27.1449   -3.2683 F   0  0  0  0  0  0  0  0  0  0  0  0
   10.9094   20.7094    2.4785 S   0  0  0  0  0  0  0  0  0  0  0  0
    9.4898   20.8590    1.9985 O   0  0  0  0  0  0  0  0  0  0  0  0
   11.2911   19.3764    2.9638 O   0  0  0  0  0  0  0  0  0  0  0  0
   10.8104   21.7578    3.9981 C   0  0  0  0  0  0  0  0  0  0  0  0
   11.4985   21.1017    5.1260 C   0  0  0  0  0  0  0  0  0  0  0  0
    9.3317   21.9675    4.3306 C   0  0  0  0  0  0  0  0  0  0  0  0
    8.6656   24.1303    1.2513 C   0  0  0  0  0  0  0  0  0  0  0  0
    8.0518   24.4088    2.5755 C   0  0  0  0  0  0  0  0  0  0  0  0
    8.8360   25.6452    3.0921 C   0  0  0  0  0  0  0  0  0  0  0  0
    8.2030   26.4644    3.9729 N   0  0  0  0  0  0  0  0  0  0  0  0
    7.6580   27.6870    3.5772 C   0  0  0  0  0  0  0  0  0  0  0  0
    8.4760   26.2759    5.3485 C   0  0  0  0  0  0  0  0  0  0  0  0
  1  2  1  0  0  0
  2  3  1  0  0  0
  2  4  1  0  0  0
  4  5  2  0  0  0
  5 23  1  0  0  0
 23 24  2  0  0  0
 23 25  2  0  0  0
 23 26  1  0  0  0
 26 27  1  0  0  0
 26 28  1  0  0  0
  5  6  1  0  0  0
  6  7  1  0  0  0
  7 12  1  0  0  0
 12 13  2  0  0  0
 13 14  1  0  0  0
 14 15  2  0  0  0
 15 16  1  0  0  0
 16 17  2  0  0  0
 17 18  1  0  0  0
 15 19  1  0  0  0
 19 20  1  0  0  0
 19 21  1  0  0  0
 19 22  1  0  0  0
  6  8  1  0  0  0
  8  9  2  0  0  0
  8 10  1  0  0  0
 10 29  1  0  0  0
 29 30  1  0  0  0
 30 31  1  0  0  0
 31 32  1  0  0  0
 32 33  1  0  0  0
 32 34  1  0  0  0
  7  2  1  0  0  0
 17 12  1  0  0  0
 10 11  1  0  0  0
M  END
> <minimizedAffinity>
-8.43006

> <CNNscore>
0.4432598054

> <CNNaffinity>
7.1458063126

> <CNN_VS>
3.1674487591

> <CNNaffinity_variance>
0.4255702496

$$$$
[H]c1c([H])c(C2([H])N(C(=O)N([H])C([H])([H])C([H])([H])C([H])([H])N(C([H])([H])[H])C([H])([H])[H])C(S(=O)(=O)C([H])(C([H])([H])[H])C([H])([H])[H])=NC2(C([H])([H])[H])C([H])([H])[H])c(F)c([H])c1C(F)(F)F


 34 35  0  0  0  0  0  0  0  0999 V2000
   16.4902   25.2454   -2.3755 C   0  0  0  0  0  0  0  0  0  0  0  0
   15.0938   24.6777   -2.2754 C   0  0  0  0  0  0  0  0  0  0  0  0
   14.1306   25.6178   -2.9427 C   0  0  0  0  0  0  0  0  0  0  0  0
   15.0629   23.4154   -2.9761 N   0  0  0  0  0  0  0  0  0  0  0  0
   14.5776   22.4380   -2.2358 C   0  0  0  0  0  0  0  0  0  0  0  0
   14.3405   22.9226   -0.9261 N   0  0  0  0  0  0  0  0  0  0  0  0
   14.7118   24.2691   -0.9035 C   0  0  0  0  0  0  0  0  0  0  0  0
   13.6853   22.0732    0.0664 C   0  0  0  0  0  0  0  0  0  0  0  0
   13.9512   22.3589    1.2874 O   0  0  0  0  0  0  0  0  0  0  0  0
   12.8237   21.0299   -0.2800 N   0  0  0  0  0  0  0  0  0  0  0  0
   12.5666   21.0499   -1.3619 H   0  0  0  0  0  0  0  0  0  0  0  0
   14.0758   25.3157   -0.1186 C   0  0  0  0  0  0  0  0  0  0  0  0
   14.9356   25.9723    0.8103 C   0  0  0  0  0  0  0  0  0  0  0  0
   14.4962   26.8498    1.7568 C   0  0  0  0  0  0  0  0  0  0  0  0
   13.1594   27.1605    1.8772 C   0  0  0  0  0  0  0  0  0  0  0  0
   12.3085   26.5601    1.0085 C   0  0  0  0  0  0  0  0  0  0  0  0
   12.7727   25.6662    0.0411 C   0  0  0  0  0  0  0  0  0  0  0  0
   11.8652   25.2427   -0.8901 F   0  0  0  0  0  0  0  0  0  0  0  0
   12.7610   28.1492    2.9319 C   0  0  0  0  0  0  0  0  0  0  0  0
   13.6815   28.1286    3.9639 F   0  0  0  0  0  0  0  0  0  0  0  0
   12.8031   29.3682    2.3526 F   0  0  0  0  0  0  0  0  0  0  0  0
   11.5361   27.8361    3.5083 F   0  0  0  0  0  0  0  0  0  0  0  0
   14.5350   20.8464   -2.9938 S   0  0  0  0  0  0  0  0  0  0  0  0
   15.5878   19.8986   -2.4823 O   0  0  0  0  0  0  0  0  0  0  0  0
   13.1881   20.2857   -3.1652 O   0  0  0  0  0  0  0  0  0  0  0  0
   15.1732   21.0835   -4.7127 C   0  0  0  0  0  0  0  0  0  0  0  0
   15.2481   22.5190   -5.0441 C   0  0  0  0  0  0  0  0  0  0  0  0
   14.2200   20.3683   -5.6723 C   0  0  0  0  0  0  0  0  0  0  0  0
   12.1059   20.0616    0.4307 C   0  0  0  0  0  0  0  0  0  0  0  0
   11.0265   20.4152    1.3887 C   0  0  0  0  0  0  0  0  0  0  0  0
   10.1746   21.4576    0.6152 C   0  0  0  0  0  0  0  0  0  0  0  0
    9.9237   22.6425    1.2323 N   0  0  0  0  0  0  0  0  0  0  0  0
    9.2787   23.6908    0.5742 C   0  0  0  0  0  0  0  0  0  0  0  0
   10.6911   22.9538    2.3797 C   0  0  0  0  0  0  0  0  0  0  0  0
  1  2  1  0  0  0
  2  3  1  0  0  0
  2  4  1  0  0  0
  4  5  2  0  0  0
  5 23  1  0  0  0
 23 24  2  0  0  0
 23 25  2  0  0  0
 23 26  1  0  0  0
 26 27  1  0  0  0
 26 28  1  0  0  0
  5  6  1  0  0  0
  6  7  1  0  0  0
  7 12  1  0  0  0
 12 13  2  0  0  0
 13 14  1  0  0  0
 14 15  2  0  0  0
 15 16  1  0  0  0
 16 17  2  0  0  0
 17 18  1  0  0  0
 15 19  1  0  0  0
 19 20  1  0  0  0
 19 21  1  0  0  0
 19 22  1  0  0  0
  6  8  1  0  0  0
  8  9  2  0  0  0
  8 10  1  0  0  0
 10 29  1  0  0  0
 29 30  1  0  0  0
 30 31  1  0  0  0
 31 32  1  0  0  0
 32 33  1  0  0  0
 32 34  1  0  0  0
  7  2  1  0  0  0
 17 12  1  0  0  0
 10 11  1  0  0  0
M  END
> <minimizedAffinity>
19.17766

> <CNNscore>
0.4344668090

> <CNNaffinity>
7.0488586426

> <CNN_VS>
3.0624952316

> <CNNaffinity_variance>
0.6317822337

$$$$
[H]C1=C(C([H])([H])N([H])C(=O)N(c2c(F)c([H])c3nc(C([H])(C([H])([H])[H])C([H])([H])[H])c([H])c(N4C([H])([H])C([H])([H])N(C([H])([H])[H])C([H])([H])C4([H])[H])c3c2[H])C([H])([H])[H])C([H])([H])C([H])([H])S(=O)(=O)c2c([H])c([H])c([H])c([H])c2C(C([H])([H])[H])=C1F


 45 49  0  0  0  0  0  0  0  0999 V2000
   12.8544   20.8313    1.2798 N   0  0  0  0  0  0  0  0  0  0  0  0
   12.9673   20.1210    2.5653 C   0  0  0  0  0  0  0  0  0  0  0  0
   13.9329   21.5671    0.7592 C   0  0  0  0  0  0  0  0  0  0  0  0
   15.0014   21.5554    1.4519 O   0  0  0  0  0  0  0  0  0  0  0  0
   13.9591   22.3083   -0.4346 N   0  0  0  0  0  0  0  0  0  0  0  0
   13.0618   22.3139   -1.0003 H   0  0  0  0  0  0  0  0  0  0  0  0
    8.0649   21.4169    1.4383 C   0  0  0  0  0  0  0  0  0  0  0  0
    6.8597   21.2873    0.7651 C   0  0  0  0  0  0  0  0  0  0  0  0
    6.7699   20.7937   -0.5098 C   0  0  0  0  0  0  0  0  0  0  0  0
    7.9013   20.4245   -1.1208 N   0  0  0  0  0  0  0  0  0  0  0  0
    9.1088   20.5187   -0.5360 C   0  0  0  0  0  0  0  0  0  0  0  0
   10.2345   20.1230   -1.2285 C   0  0  0  0  0  0  0  0  0  0  0  0
   11.4888   20.2122   -0.6517 C   0  0  0  0  0  0  0  0  0  0  0  0
   12.5809   19.8312   -1.3526 F   0  0  0  0  0  0  0  0  0  0  0  0
   11.5855   20.7039    0.6289 C   0  0  0  0  0  0  0  0  0  0  0  0
   10.4443   21.0963    1.3075 C   0  0  0  0  0  0  0  0  0  0  0  0
    9.1996   21.0170    0.7531 C   0  0  0  0  0  0  0  0  0  0  0  0
    6.4427   24.2336    5.7981 C   0  0  0  0  0  0  0  0  0  0  0  0
    7.3410   23.4055    5.0289 N   0  0  0  0  0  0  0  0  0  0  0  0
    7.7400   24.1243    3.8260 C   0  0  0  0  0  0  0  0  0  0  0  0
    8.7276   23.2684    3.0377 C   0  0  0  0  0  0  0  0  0  0  0  0
    8.1244   21.9618    2.7465 N   0  0  0  0  0  0  0  0  0  0  0  0
    7.5788   21.2703    3.8968 C   0  0  0  0  0  0  0  0  0  0  0  0
    6.6479   22.2064    4.6446 C   0  0  0  0  0  0  0  0  0  0  0  0
    5.4466   20.6756   -1.2027 C   0  0  0  0  0  0  0  0  0  0  0  0
    4.6857   19.4652   -0.6715 C   0  0  0  0  0  0  0  0  0  0  0  0
    5.7001   20.5144   -2.6730 C   0  0  0  0  0  0  0  0  0  0  0  0
   15.1049   23.0389   -0.9191 C   0  0  0  0  0  0  0  0  0  0  0  0
   14.6481   23.8048   -2.1541 C   0  0  0  0  0  0  0  0  0  0  0  0
   13.8338   24.7977   -1.9761 C   0  0  0  0  0  0  0  0  0  0  0  0
   13.1740   25.7548   -2.7953 C   0  0  0  0  0  0  0  0  0  0  0  0
   11.7542   25.6949   -2.7452 F   0  0  0  0  0  0  0  0  0  0  0  0
   13.6011   26.7003   -3.6210 C   0  0  0  0  0  0  0  0  0  0  0  0
   12.5530   27.5733   -4.3380 C   0  0  0  0  0  0  0  0  0  0  0  0
   14.9662   27.0743   -3.9798 C   0  0  0  0  0  0  0  0  0  0  0  0
   15.3383   28.3678   -3.5162 C   0  0  0  0  0  0  0  0  0  0  0  0
   16.5637   28.9213   -3.6891 C   0  0  0  0  0  0  0  0  0  0  0  0
   17.5075   28.1806   -4.3603 C   0  0  0  0  0  0  0  0  0  0  0  0
   17.1844   26.9338   -4.8253 C   0  0  0  0  0  0  0  0  0  0  0  0
   15.9127   26.3419   -4.6559 C   0  0  0  0  0  0  0  0  0  0  0  0
   15.6509   24.8165   -5.4678 S   0  0  0  0  0  0  0  0  0  0  0  0
   15.1197   25.0351   -6.8672 O   0  0  0  0  0  0  0  0  0  0  0  0
   17.0017   24.1432   -5.6802 O   0  0  0  0  0  0  0  0  0  0  0  0
   14.6190   23.6832   -4.6499 C   0  0  0  0  0  0  0  0  0  0  0  0
   15.2383   23.2628   -3.3800 C   0  0  0  0  0  0  0  0  0  0  0  0
 18 19  1  0  0  0
 19 20  1  0  0  0
 20 21  1  0  0  0
 21 22  1  0  0  0
 22 23  1  0  0  0
 23 24  1  0  0  0
 22  7  1  0  0  0
  7  8  2  0  0  0
  8  9  1  0  0  0
  9 10  2  0  0  0
 10 11  1  0  0  0
 11 12  2  0  0  0
 12 13  1  0  0  0
 13 14  1  0  0  0
 13 15  2  0  0  0
 15 16  1  0  0  0
 16 17  2  0  0  0
 15  1  1  0  0  0
  1  2  1  0  0  0
  1  3  1  0  0  0
  3  4  2  0  0  0
  3  5  1  0  0  0
  5 28  1  0  0  0
 28 29  1  0  0  0
 29 30  2  0  0  0
 30 31  1  0  0  0
 31 32  1  0  0  0
 31 33  2  0  0  0
 33 34  1  0  0  0
 33 35  1  0  0  0
 35 36  2  0  0  0
 36 37  1  0  0  0
 37 38  2  0  0  0
 38 39  1  0  0  0
 39 40  2  0  0  0
 40 41  1  0  0  0
 41 42  2  0  0  0
 41 43  2  0  0  0
 41 44  1  0  0  0
 44 45  1  0  0  0
  9 25  1  0  0  0
 25 26  1  0  0  0
 25 27  1  0  0  0
 24 19  1  0  0  0
 17  7  1  0  0  0
 45 29  1  0  0  0
 17 11  1  0  0  0
 40 35  1  0  0  0
  5  6  1  0  0  0
M  END
> <minimizedAffinity>
0.42131

> <CNNscore>
0.5096800327

> <CNNaffinity>
8.2214679718

> <CNN_VS>
4.1903181076

> <CNNaffinity_variance>
0.5233119726

$$$$
[H]C1=C(C([H])([H])N([H])C(=O)N(c2c(F)c([H])c3nc(C([H])(C([H])([H])[H])C([H])([H])[H])c([H])c(N4C([H])([H])C([H])([H])N(C([H])([H])[H])C([H])([H])C4([H])[H])c3c2[H])C([H])([H])[H])C([H])([H])C([H])([H])S(=O)(=O)c2c([H])c([H])c([H])c([H])c2C(C([H])([H])[H])=C1F


 45 49  0  0  0  0  0  0  0  0999 V2000
   10.8416   21.4897   -0.1408 N   0  0  0  0  0  0  0  0  0  0  0  0
   11.5606   20.2180   -0.3294 C   0  0  0  0  0  0  0  0  0  0  0  0
   10.9205   22.5175   -1.0964 C   0  0  0  0  0  0  0  0  0  0  0  0
   11.6233   22.2663   -2.1282 O   0  0  0  0  0  0  0  0  0  0  0  0
   10.3114   23.7827   -1.0366 N   0  0  0  0  0  0  0  0  0  0  0  0
    9.7324   23.9814   -0.1703 H   0  0  0  0  0  0  0  0  0  0  0  0
    6.6238   20.8532    2.1200 C   0  0  0  0  0  0  0  0  0  0  0  0
    5.9251   20.9434    3.3143 C   0  0  0  0  0  0  0  0  0  0  0  0
    6.4959   21.3882    4.4776 C   0  0  0  0  0  0  0  0  0  0  0  0
    7.7841   21.7480    4.4468 N   0  0  0  0  0  0  0  0  0  0  0  0
    8.5297   21.6900    3.3290 C   0  0  0  0  0  0  0  0  0  0  0  0
    9.8544   22.0732    3.3722 C   0  0  0  0  0  0  0  0  0  0  0  0
   10.6445   22.0204    2.2379 C   0  0  0  0  0  0  0  0  0  0  0  0
   11.9443   22.3881    2.3049 F   0  0  0  0  0  0  0  0  0  0  0  0
   10.0767   21.5777    1.0662 C   0  0  0  0  0  0  0  0  0  0  0  0
    8.7458   21.1972    1.0429 C   0  0  0  0  0  0  0  0  0  0  0  0
    7.9525   21.2410    2.1527 C   0  0  0  0  0  0  0  0  0  0  0  0
    5.5846   20.3740   -3.1963 C   0  0  0  0  0  0  0  0  0  0  0  0
    5.4263   20.0685   -1.7942 N   0  0  0  0  0  0  0  0  0  0  0  0
    4.9939   21.2688   -1.0905 C   0  0  0  0  0  0  0  0  0  0  0  0
    4.7795   20.9334    0.3829 C   0  0  0  0  0  0  0  0  0  0  0  0
    6.0095   20.3579    0.9413 N   0  0  0  0  0  0  0  0  0  0  0  0
    6.5618   19.2492    0.1899 C   0  0  0  0  0  0  0  0  0  0  0  0
    6.6971   19.6534   -1.2663 C   0  0  0  0  0  0  0  0  0  0  0  0
    5.7052   21.4647    5.7480 C   0  0  0  0  0  0  0  0  0  0  0  0
    4.6893   20.3282    5.7995 C   0  0  0  0  0  0  0  0  0  0  0  0
    4.9948   22.7862    5.7791 C   0  0  0  0  0  0  0  0  0  0  0  0
   10.4257   24.7949   -2.0581 C   0  0  0  0  0  0  0  0  0  0  0  0
   11.8670   25.2871   -2.0302 C   0  0  0  0  0  0  0  0  0  0  0  0
   12.6853   24.6987   -1.2150 C   0  0  0  0  0  0  0  0  0  0  0  0
   14.0588   24.8142   -0.8644 C   0  0  0  0  0  0  0  0  0  0  0  0
   14.2934   25.1487    0.4976 F   0  0  0  0  0  0  0  0  0  0  0  0
   15.1895   24.6885   -1.5455 C   0  0  0  0  0  0  0  0  0  0  0  0
   16.5212   24.8763   -0.7933 C   0  0  0  0  0  0  0  0  0  0  0  0
   15.3947   24.3829   -2.9585 C   0  0  0  0  0  0  0  0  0  0  0  0
   16.0040   23.1155   -3.1800 C   0  0  0  0  0  0  0  0  0  0  0  0
   16.2607   22.5912   -4.4036 C   0  0  0  0  0  0  0  0  0  0  0  0
   15.9091   23.3387   -5.5025 C   0  0  0  0  0  0  0  0  0  0  0  0
   15.3252   24.5650   -5.3285 C   0  0  0  0  0  0  0  0  0  0  0  0
   15.0518   25.1278   -4.0617 C   0  0  0  0  0  0  0  0  0  0  0  0
   14.4583   26.7716   -4.0530 S   0  0  0  0  0  0  0  0  0  0  0  0
   15.6040   27.7579   -3.9999 O   0  0  0  0  0  0  0  0  0  0  0  0
   13.7852   27.0502   -5.3917 O   0  0  0  0  0  0  0  0  0  0  0  0
   13.3230   27.1670   -2.7988 C   0  0  0  0  0  0  0  0  0  0  0  0
   12.0855   26.3854   -2.9741 C   0  0  0  0  0  0  0  0  0  0  0  0
 18 19  1  0  0  0
 19 20  1  0  0  0
 20 21  1  0  0  0
 21 22  1  0  0  0
 22 23  1  0  0  0
 23 24  1  0  0  0
 22  7  1  0  0  0
  7  8  2  0  0  0
  8  9  1  0  0  0
  9 10  2  0  0  0
 10 11  1  0  0  0
 11 12  2  0  0  0
 12 13  1  0  0  0
 13 14  1  0  0  0
 13 15  2  0  0  0
 15 16  1  0  0  0
 16 17  2  0  0  0
 15  1  1  0  0  0
  1  2  1  0  0  0
  1  3  1  0  0  0
  3  4  2  0  0  0
  3  5  1  0  0  0
  5 28  1  0  0  0
 28 29  1  0  0  0
 29 30  2  0  0  0
 30 31  1  0  0  0
 31 32  1  0  0  0
 31 33  2  0  0  0
 33 34  1  0  0  0
 33 35  1  0  0  0
 35 36  2  0  0  0
 36 37  1  0  0  0
 37 38  2  0  0  0
 38 39  1  0  0  0
 39 40  2  0  0  0
 40 41  1  0  0  0
 41 42  2  0  0  0
 41 43  2  0  0  0
 41 44  1  0  0  0
 44 45  1  0  0  0
  9 25  1  0  0  0
 25 26  1  0  0  0
 25 27  1  0  0  0
 24 19  1  0  0  0
 17  7  1  0  0  0
 45 29  1  0  0  0
 17 11  1  0  0  0
 40 35  1  0  0  0
  5  6  1  0  0  0
M  END
> <minimizedAffinity>
-2.35652

> <CNNscore>
0.4527440071

> <CNNaffinity>
7.9104180336

> <CNN_VS>
3.5813944340

> <CNNaffinity_variance>
0.1976034641

$$$$
[H]C1=C(C([H])([H])N([H])C(=O)N(c2c(F)c([H])c3nc(C([H])(C([H])([H])[H])C([H])([H])[H])c([H])c(N4C([H])([H])C([H])([H])N(C([H])([H])[H])C([H])([H])C4([H])[H])c3c2[H])C([H])([H])[H])C([H])([H])C([H])([H])S(=O)(=O)c2c([H])c([H])c([H])c([H])c2C(C([H])([H])[H])=C1F


 45 49  0  0  0  0  0  0  0  0999 V2000
   11.7887   20.9662   -0.1768 N   0  0  0  0  0  0  0  0  0  0  0  0
   11.1023   19.6629   -0.1651 C   0  0  0  0  0  0  0  0  0  0  0  0
   12.9266   21.1808   -0.9735 C   0  0  0  0  0  0  0  0  0  0  0  0
   13.2994   20.1959   -1.6894 O   0  0  0  0  0  0  0  0  0  0  0  0
   13.6912   22.3565   -1.0649 N   0  0  0  0  0  0  0  0  0  0  0  0
   13.3731   23.1682   -0.4605 H   0  0  0  0  0  0  0  0  0  0  0  0
    7.8418   22.8100    1.9037 C   0  0  0  0  0  0  0  0  0  0  0  0
    7.3224   23.7870    2.7394 C   0  0  0  0  0  0  0  0  0  0  0  0
    8.0991   24.7470    3.3328 C   0  0  0  0  0  0  0  0  0  0  0  0
    9.4141   24.7302    3.0874 N   0  0  0  0  0  0  0  0  0  0  0  0
    9.9941   23.8166    2.2888 C   0  0  0  0  0  0  0  0  0  0  0  0
   11.3579   23.8572    2.0844 C   0  0  0  0  0  0  0  0  0  0  0  0
   11.9802   22.9277    1.2705 C   0  0  0  0  0  0  0  0  0  0  0  0
   13.3202   22.9773    1.0938 F   0  0  0  0  0  0  0  0  0  0  0  0
   11.2059   21.9632    0.6694 C   0  0  0  0  0  0  0  0  0  0  0  0
    9.8389   21.9386    0.8870 C   0  0  0  0  0  0  0  0  0  0  0  0
    9.2089   22.8464    1.6883 C   0  0  0  0  0  0  0  0  0  0  0  0
    6.4823   17.9582   -0.1421 C   0  0  0  0  0  0  0  0  0  0  0  0
    6.2517   19.3254    0.2605 N   0  0  0  0  0  0  0  0  0  0  0  0
    7.1237   20.2028   -0.5094 C   0  0  0  0  0  0  0  0  0  0  0  0
    6.8449   21.6515   -0.1185 C   0  0  0  0  0  0  0  0  0  0  0  0
    7.0125   21.8117    1.3313 N   0  0  0  0  0  0  0  0  0  0  0  0
    6.2757   20.8623    2.1406 C   0  0  0  0  0  0  0  0  0  0  0  0
    6.5753   19.4565    1.6548 C   0  0  0  0  0  0  0  0  0  0  0  0
    7.4971   25.7817    4.2341 C   0  0  0  0  0  0  0  0  0  0  0  0
    6.6432   26.7489    3.4207 C   0  0  0  0  0  0  0  0  0  0  0  0
    8.6142   26.5265    4.9044 C   0  0  0  0  0  0  0  0  0  0  0  0
   14.8488   22.5161   -1.9108 C   0  0  0  0  0  0  0  0  0  0  0  0
   14.5087   23.6043   -2.9210 C   0  0  0  0  0  0  0  0  0  0  0  0
   13.8158   24.6163   -2.5010 C   0  0  0  0  0  0  0  0  0  0  0  0
   13.2897   25.8138   -3.0594 C   0  0  0  0  0  0  0  0  0  0  0  0
   11.8722   25.9146   -3.0089 F   0  0  0  0  0  0  0  0  0  0  0  0
   13.8412   26.8710   -3.6394 C   0  0  0  0  0  0  0  0  0  0  0  0
   12.9178   28.0095   -4.1143 C   0  0  0  0  0  0  0  0  0  0  0  0
   15.2474   27.1530   -3.9138 C   0  0  0  0  0  0  0  0  0  0  0  0
   15.7630   28.2437   -3.1580 C   0  0  0  0  0  0  0  0  0  0  0  0
   17.0486   28.6711   -3.2072 C   0  0  0  0  0  0  0  0  0  0  0  0
   17.9090   28.0046   -4.0471 C   0  0  0  0  0  0  0  0  0  0  0  0
   17.4476   26.9533   -4.7936 C   0  0  0  0  0  0  0  0  0  0  0  0
   16.1116   26.4953   -4.7564 C   0  0  0  0  0  0  0  0  0  0  0  0
   15.6840   25.2513   -5.9071 S   0  0  0  0  0  0  0  0  0  0  0  0
   15.2076   25.8605   -7.2072 O   0  0  0  0  0  0  0  0  0  0  0  0
   16.9483   24.4911   -6.2900 O   0  0  0  0  0  0  0  0  0  0  0  0
   14.5097   24.0877   -5.3727 C   0  0  0  0  0  0  0  0  0  0  0  0
   15.0517   23.3045   -4.2477 C   0  0  0  0  0  0  0  0  0  0  0  0
 18 19  1  0  0  0
 19 20  1  0  0  0
 20 21  1  0  0  0
 21 22  1  0  0  0
 22 23  1  0  0  0
 23 24  1  0  0  0
 22  7  1  0  0  0
  7  8  2  0  0  0
  8  9  1  0  0  0
  9 10  2  0  0  0
 10 11  1  0  0  0
 11 12  2  0  0  0
 12 13  1  0  0  0
 13 14  1  0  0  0
 13 15  2  0  0  0
 15 16  1  0  0  0
 16 17  2  0  0  0
 15  1  1  0  0  0
  1  2  1  0  0  0
  1  3  1  0  0  0
  3  4  2  0  0  0
  3  5  1  0  0  0
  5 28  1  0  0  0
 28 29  1  0  0  0
 29 30  2  0  0  0
 30 31  1  0  0  0
 31 32  1  0  0  0
 31 33  2  0  0  0
 33 34  1  0  0  0
 33 35  1  0  0  0
 35 36  2  0  0  0
 36 37  1  0  0  0
 37 38  2  0  0  0
 38 39  1  0  0  0
 39 40  2  0  0  0
 40 41  1  0  0  0
 41 42  2  0  0  0
 41 43  2  0  0  0
 41 44  1  0  0  0
 44 45  1  0  0  0
  9 25  1  0  0  0
 25 26  1  0  0  0
 25 27  1  0  0  0
 24 19  1  0  0  0
 17  7  1  0  0  0
 45 29  1  0  0  0
 17 11  1  0  0  0
 40 35  1  0  0  0
  5  6  1  0  0  0
M  END
> <minimizedAffinity>
1.45940

> <CNNscore>
0.4512245953

> <CNNaffinity>
8.1749296188

> <CNN_VS>
3.6887292862

> <CNNaffinity_variance>
0.6979996562

$$$$
[H]C1=C(C([H])([H])N([H])C(=O)N(c2c(F)c([H])c3nc(C([H])(C([H])([H])[H])C([H])([H])[H])c([H])c(N4C([H])([H])C([H])([H])N(C([H])([H])[H])C([H])([H])C4([H])[H])c3c2[H])C([H])([H])[H])C([H])([H])C([H])([H])S(=O)(=O)c2c([H])c([H])c([H])c([H])c2C(C([H])([H])[H])=C1F


 45 49  0  0  0  0  0  0  0  0999 V2000
   11.6120   24.5917   -1.4084 N   0  0  0  0  0  0  0  0  0  0  0  0
   11.6114   25.7263   -2.3477 C   0  0  0  0  0  0  0  0  0  0  0  0
   10.4691   23.7923   -1.2342 C   0  0  0  0  0  0  0  0  0  0  0  0
    9.4614   24.0972   -1.9506 O   0  0  0  0  0  0  0  0  0  0  0  0
   10.3199   22.7006   -0.3617 N   0  0  0  0  0  0  0  0  0  0  0  0
   11.1647   22.4594    0.2327 H   0  0  0  0  0  0  0  0  0  0  0  0
   16.4376   24.7249   -1.4519 C   0  0  0  0  0  0  0  0  0  0  0  0
   17.6080   24.5213   -0.7369 C   0  0  0  0  0  0  0  0  0  0  0  0
   17.6191   24.0909    0.5637 C   0  0  0  0  0  0  0  0  0  0  0  0
   16.4430   23.8606    1.1584 N   0  0  0  0  0  0  0  0  0  0  0  0
   15.2648   24.0339    0.5333 C   0  0  0  0  0  0  0  0  0  0  0  0
   14.0898   23.7812    1.2108 C   0  0  0  0  0  0  0  0  0  0  0  0
   12.8644   23.9543    0.5926 C   0  0  0  0  0  0  0  0  0  0  0  0
   11.7240   23.7136    1.2787 F   0  0  0  0  0  0  0  0  0  0  0  0
   12.8465   24.3833   -0.7138 C   0  0  0  0  0  0  0  0  0  0  0  0
   14.0361   24.6320   -1.3768 C   0  0  0  0  0  0  0  0  0  0  0  0
   15.2536   24.4685   -0.7818 C   0  0  0  0  0  0  0  0  0  0  0  0
   14.5144   26.8225   -6.0860 C   0  0  0  0  0  0  0  0  0  0  0  0
   15.5251   26.2788   -5.2101 N   0  0  0  0  0  0  0  0  0  0  0  0
   15.1507   24.9217   -4.8344 C   0  0  0  0  0  0  0  0  0  0  0  0
   16.2432   24.3298   -3.9482 C   0  0  0  0  0  0  0  0  0  0  0  0
   16.4625   25.2019   -2.7875 N   0  0  0  0  0  0  0  0  0  0  0  0
   16.6944   26.5963   -3.1055 C   0  0  0  0  0  0  0  0  0  0  0  0
   15.5908   27.0874   -4.0236 C   0  0  0  0  0  0  0  0  0  0  0  0
   18.9075   23.8889    1.3014 C   0  0  0  0  0  0  0  0  0  0  0  0
   19.0485   24.9359    2.4015 C   0  0  0  0  0  0  0  0  0  0  0  0
   20.0353   24.0238    0.3207 C   0  0  0  0  0  0  0  0  0  0  0  0
    9.1180   21.9130   -0.2347 C   0  0  0  0  0  0  0  0  0  0  0  0
    9.0185   21.4950    1.2268 C   0  0  0  0  0  0  0  0  0  0  0  0
   10.0526   21.7016    1.9807 C   0  0  0  0  0  0  0  0  0  0  0  0
   10.4006   21.4847    3.3425 C   0  0  0  0  0  0  0  0  0  0  0  0
   11.5030   20.6079    3.5368 F   0  0  0  0  0  0  0  0  0  0  0  0
    9.9046   21.9194    4.4929 C   0  0  0  0  0  0  0  0  0  0  0  0
   10.5824   21.4649    5.7999 C   0  0  0  0  0  0  0  0  0  0  0  0
    8.7695   22.8037    4.7410 C   0  0  0  0  0  0  0  0  0  0  0  0
    9.1428   24.0606    5.2956 C   0  0  0  0  0  0  0  0  0  0  0  0
    8.2747   25.0633    5.5764 C   0  0  0  0  0  0  0  0  0  0  0  0
    6.9440   24.8466    5.3079 C   0  0  0  0  0  0  0  0  0  0  0  0
    6.5466   23.6478    4.7785 C   0  0  0  0  0  0  0  0  0  0  0  0
    7.4365   22.5914    4.4811 C   0  0  0  0  0  0  0  0  0  0  0  0
    6.7120   21.0854    3.9696 S   0  0  0  0  0  0  0  0  0  0  0  0
    6.4084   20.2020    5.1594 O   0  0  0  0  0  0  0  0  0  0  0  0
    5.3449   21.3862    3.3669 O   0  0  0  0  0  0  0  0  0  0  0  0
    7.6112   20.1624    2.8043 C   0  0  0  0  0  0  0  0  0  0  0  0
    7.7123   20.9104    1.5381 C   0  0  0  0  0  0  0  0  0  0  0  0
 18 19  1  0  0  0
 19 20  1  0  0  0
 20 21  1  0  0  0
 21 22  1  0  0  0
 22 23  1  0  0  0
 23 24  1  0  0  0
 22  7  1  0  0  0
  7  8  2  0  0  0
  8  9  1  0  0  0
  9 10  2  0  0  0
 10 11  1  0  0  0
 11 12  2  0  0  0
 12 13  1  0  0  0
 13 14  1  0  0  0
 13 15  2  0  0  0
 15 16  1  0  0  0
 16 17  2  0  0  0
 15  1  1  0  0  0
  1  2  1  0  0  0
  1  3  1  0  0  0
  3  4  2  0  0  0
  3  5  1  0  0  0
  5 28  1  0  0  0
 28 29  1  0  0  0
 29 30  2  0  0  0
 30 31  1  0  0  0
 31 32  1  0  0  0
 31 33  2  0  0  0
 33 34  1  0  0  0
 33 35  1  0  0  0
 35 36  2  0  0  0
 36 37  1  0  0  0
 37 38  2  0  0  0
 38 39  1  0  0  0
 39 40  2  0  0  0
 40 41  1  0  0  0
 41 42  2  0  0  0
 41 43  2  0  0  0
 41 44  1  0  0  0
 44 45  1  0  0  0
  9 25  1  0  0  0
 25 26  1  0  0  0
 25 27  1  0  0  0
 24 19  1  0  0  0
 17  7  1  0  0  0
 45 29  1  0  0  0
 17 11  1  0  0  0
 40 35  1  0  0  0
  5  6  1  0  0  0
M  END
> <minimizedAffinity>
3.29279

> <CNNscore>
0.4343528152

> <CNNaffinity>
8.2736816406

> <CNN_VS>
3.5936968327

> <CNNaffinity_variance>
0.2638814747

$$$$
[H]C1=C(C([H])([H])N([H])C(=O)N(c2c(F)c([H])c3nc(C([H])(C([H])([H])[H])C([H])([H])[H])c([H])c(N4C([H])([H])C([H])([H])N(C([H])([H])[H])C([H])([H])C4([H])[H])c3c2[H])C([H])([H])[H])C([H])([H])C([H])([H])S(=O)(=O)c2c([H])c([H])c([H])c([H])c2C(C([H])([H])[H])=C1F


 45 49  0  0  0  0  0  0  0  0999 V2000
   14.2224   20.8354    0.5755 N   0  0  0  0  0  0  0  0  0  0  0  0
   15.4026   20.0454    0.9661 C   0  0  0  0  0  0  0  0  0  0  0  0
   13.0136   20.7351    1.2857 C   0  0  0  0  0  0  0  0  0  0  0  0
   13.0188   19.9475    2.2862 O   0  0  0  0  0  0  0  0  0  0  0  0
   11.8090   21.4059    1.0129 N   0  0  0  0  0  0  0  0  0  0  0  0
   11.8161   22.0556    0.1744 H   0  0  0  0  0  0  0  0  0  0  0  0
   13.0096   24.8551   -1.8074 C   0  0  0  0  0  0  0  0  0  0  0  0
   13.2389   25.6592   -2.9135 C   0  0  0  0  0  0  0  0  0  0  0  0
   14.1711   25.3576   -3.8711 C   0  0  0  0  0  0  0  0  0  0  0  0
   14.8846   24.2359   -3.7210 N   0  0  0  0  0  0  0  0  0  0  0  0
   14.7217   23.4037   -2.6771 C   0  0  0  0  0  0  0  0  0  0  0  0
   15.4966   22.2660   -2.5846 C   0  0  0  0  0  0  0  0  0  0  0  0
   15.3517   21.3947   -1.5199 C   0  0  0  0  0  0  0  0  0  0  0  0
   16.1304   20.2917   -1.4415 F   0  0  0  0  0  0  0  0  0  0  0  0
   14.4156   21.6901   -0.5568 C   0  0  0  0  0  0  0  0  0  0  0  0
   13.6477   22.8368   -0.6669 C   0  0  0  0  0  0  0  0  0  0  0  0
   13.7788   23.7081   -1.7092 C   0  0  0  0  0  0  0  0  0  0  0  0
    9.9949   24.3667    2.6922 C   0  0  0  0  0  0  0  0  0  0  0  0
   10.4704   25.0163    1.4937 N   0  0  0  0  0  0  0  0  0  0  0  0
   10.1739   24.1718    0.3440 C   0  0  0  0  0  0  0  0  0  0  0  0
   10.6326   24.8807   -0.9274 C   0  0  0  0  0  0  0  0  0  0  0  0
   12.0583   25.2144   -0.8185 N   0  0  0  0  0  0  0  0  0  0  0  0
   12.4286   25.9299    0.3856 C   0  0  0  0  0  0  0  0  0  0  0  0
   11.8947   25.1819    1.5929 C   0  0  0  0  0  0  0  0  0  0  0  0
   14.3906   26.2580   -5.0485 C   0  0  0  0  0  0  0  0  0  0  0  0
   15.1840   25.5249   -6.1252 C   0  0  0  0  0  0  0  0  0  0  0  0
   15.1549   27.4621   -4.5818 C   0  0  0  0  0  0  0  0  0  0  0  0
   10.6003   21.2648    1.7877 C   0  0  0  0  0  0  0  0  0  0  0  0
    9.4461   21.2065    0.7953 C   0  0  0  0  0  0  0  0  0  0  0  0
    9.6622   20.6219   -0.3414 C   0  0  0  0  0  0  0  0  0  0  0  0
    8.9164   20.3413   -1.5194 C   0  0  0  0  0  0  0  0  0  0  0  0
    9.4336   20.9394   -2.7011 F   0  0  0  0  0  0  0  0  0  0  0  0
    7.8161   19.6412   -1.7593 C   0  0  0  0  0  0  0  0  0  0  0  0
    7.3078   19.5523   -3.2112 C   0  0  0  0  0  0  0  0  0  0  0  0
    6.9651   18.9002   -0.8326 C   0  0  0  0  0  0  0  0  0  0  0  0
    6.9979   17.4918   -1.0380 C   0  0  0  0  0  0  0  0  0  0  0  0
    6.3253   16.5904   -0.2810 C   0  0  0  0  0  0  0  0  0  0  0  0
    5.5588   17.0737    0.7529 C   0  0  0  0  0  0  0  0  0  0  0  0
    5.4990   18.4231    0.9780 C   0  0  0  0  0  0  0  0  0  0  0  0
    6.1915   19.3769    0.1988 C   0  0  0  0  0  0  0  0  0  0  0  0
    5.8511   21.0564    0.5424 S   0  0  0  0  0  0  0  0  0  0  0  0
    4.6855   21.5502   -0.2856 O   0  0  0  0  0  0  0  0  0  0  0  0
    5.3622   21.1663    1.9818 O   0  0  0  0  0  0  0  0  0  0  0  0
    7.1793   22.1596    0.3502 C   0  0  0  0  0  0  0  0  0  0  0  0
    8.2399   21.8465    1.3249 C   0  0  0  0  0  0  0  0  0  0  0  0
 18 19  1  0  0  0
 19 20  1  0  0  0
 20 21  1  0  0  0
 21 22  1  0  0  0
 22 23  1  0  0  0
 23 24  1  0  0  0
 22  7  1  0  0  0
  7  8  2  0  0  0
  8  9  1  0  0  0
  9 10  2  0  0  0
 10 11  1  0  0  0
 11 12  2  0  0  0
 12 13  1  0  0  0
 13 14  1  0  0  0
 13 15  2  0  0  0
 15 16  1  0  0  0
 16 17  2  0  0  0
 15  1  1  0  0  0
  1  2  1  0  0  0
  1  3  1  0  0  0
  3  4  2  0  0  0
  3  5  1  0  0  0
  5 28  1  0  0  0
 28 29  1  0  0  0
 29 30  2  0  0  0
 30 31  1  0  0  0
 31 32  1  0  0  0
 31 33  2  0  0  0
 33 34  1  0  0  0
 33 35  1  0  0  0
 35 36  2  0  0  0
 36 37  1  0  0  0
 37 38  2  0  0  0
 38 39  1  0  0  0
 39 40  2  0  0  0
 40 41  1  0  0  0
 41 42  2  0  0  0
 41 43  2  0  0  0
 41 44  1  0  0  0
 44 45  1  0  0  0
  9 25  1  0  0  0
 25 26  1  0  0  0
 25 27  1  0  0  0
 24 19  1  0  0  0
 17  7  1  0  0  0
 45 29  1  0  0  0
 17 11  1  0  0  0
 40 35  1  0  0  0
  5  6  1  0  0  0
M  END
> <minimizedAffinity>
-4.48070

> <CNNscore>
0.4317653775

> <CNNaffinity>
8.4010419846

> <CNN_VS>
3.6272790432

> <CNNaffinity_variance>
0.2427962571

$$$$
[H]C1=C(C([H])([H])N([H])C(=O)N(c2c(F)c([H])c3nc(C([H])(C([H])([H])[H])C([H])([H])[H])c([H])c(N4C([H])([H])C([H])([H])N(C([H])([H])[H])C([H])([H])C4([H])[H])c3c2[H])C([H])([H])[H])C([H])([H])C([H])([H])S(=O)(=O)c2c([H])c([H])c([H])c([H])c2C(C([H])([H])[H])=C1F


 45 49  0  0  0  0  0  0  0  0999 V2000
   11.7990   22.6143   -0.4448 N   0  0  0  0  0  0  0  0  0  0  0  0
   10.9887   21.7509   -1.3209 C   0  0  0  0  0  0  0  0  0  0  0  0
   13.2033   22.5899   -0.4983 C   0  0  0  0  0  0  0  0  0  0  0  0
   13.7146   21.8024   -1.3586 O   0  0  0  0  0  0  0  0  0  0  0  0
   14.0973   23.3357    0.2890 N   0  0  0  0  0  0  0  0  0  0  0  0
   13.6593   23.9846    1.0047 H   0  0  0  0  0  0  0  0  0  0  0  0
    8.0818   23.1240    2.5932 C   0  0  0  0  0  0  0  0  0  0  0  0
    7.3911   23.9717    3.4457 C   0  0  0  0  0  0  0  0  0  0  0  0
    7.7569   25.2753    3.6546 C   0  0  0  0  0  0  0  0  0  0  0  0
    8.8290   25.7385    3.0020 N   0  0  0  0  0  0  0  0  0  0  0  0
    9.5515   24.9801    2.1583 C   0  0  0  0  0  0  0  0  0  0  0  0
   10.6488   25.5234    1.5225 C   0  0  0  0  0  0  0  0  0  0  0  0
   11.4109   24.7648    0.6524 C   0  0  0  0  0  0  0  0  0  0  0  0
   12.4905   25.3128    0.0495 F   0  0  0  0  0  0  0  0  0  0  0  0
   11.0473   23.4563    0.4359 C   0  0  0  0  0  0  0  0  0  0  0  0
    9.9430   22.9289    1.0835 C   0  0  0  0  0  0  0  0  0  0  0  0
    9.1812   23.6623    1.9464 C   0  0  0  0  0  0  0  0  0  0  0  0
    4.7283   18.8706    2.1074 C   0  0  0  0  0  0  0  0  0  0  0  0
    6.0100   19.5322    2.1721 N   0  0  0  0  0  0  0  0  0  0  0  0
    6.1428   20.1888    3.4659 C   0  0  0  0  0  0  0  0  0  0  0  0
    7.5172   20.8468    3.5528 C   0  0  0  0  0  0  0  0  0  0  0  0
    7.6936   21.7701    2.4249 N   0  0  0  0  0  0  0  0  0  0  0  0
    7.4282   21.1992    1.1200 C   0  0  0  0  0  0  0  0  0  0  0  0
    6.0673   20.5287    1.1378 C   0  0  0  0  0  0  0  0  0  0  0  0
    6.9849   26.1557    4.5895 C   0  0  0  0  0  0  0  0  0  0  0  0
    6.5175   25.3508    5.7978 C   0  0  0  0  0  0  0  0  0  0  0  0
    5.7986   26.6999    3.8488 C   0  0  0  0  0  0  0  0  0  0  0  0
   15.5343   23.2704    0.1798 C   0  0  0  0  0  0  0  0  0  0  0  0
   15.8978   23.8378   -1.1864 C   0  0  0  0  0  0  0  0  0  0  0  0
   15.3791   23.2681   -2.2290 C   0  0  0  0  0  0  0  0  0  0  0  0
   15.4299   23.4469   -3.6390 C   0  0  0  0  0  0  0  0  0  0  0  0
   15.9570   22.3375   -4.3553 F   0  0  0  0  0  0  0  0  0  0  0  0
   15.0989   24.4457   -4.4460 C   0  0  0  0  0  0  0  0  0  0  0  0
   15.2888   24.2538   -5.9630 C   0  0  0  0  0  0  0  0  0  0  0  0
   14.5538   25.7610   -4.1222 C   0  0  0  0  0  0  0  0  0  0  0  0
   13.2193   25.9484   -4.5811 C   0  0  0  0  0  0  0  0  0  0  0  0
   12.4851   27.0681   -4.3683 C   0  0  0  0  0  0  0  0  0  0  0  0
   13.0741   28.0905   -3.6629 C   0  0  0  0  0  0  0  0  0  0  0  0
   14.3585   27.9483   -3.2096 C   0  0  0  0  0  0  0  0  0  0  0  0
   15.1388   26.7900   -3.4233 C   0  0  0  0  0  0  0  0  0  0  0  0
   16.8080   26.8718   -2.9116 S   0  0  0  0  0  0  0  0  0  0  0  0
   17.6868   27.4021   -4.0227 O   0  0  0  0  0  0  0  0  0  0  0  0
   16.9253   27.9175   -1.8090 O   0  0  0  0  0  0  0  0  0  0  0  0
   17.4965   25.3935   -2.3127 C   0  0  0  0  0  0  0  0  0  0  0  0
   16.8072   24.9805   -1.0769 C   0  0  0  0  0  0  0  0  0  0  0  0
 18 19  1  0  0  0
 19 20  1  0  0  0
 20 21  1  0  0  0
 21 22  1  0  0  0
 22 23  1  0  0  0
 23 24  1  0  0  0
 22  7  1  0  0  0
  7  8  2  0  0  0
  8  9  1  0  0  0
  9 10  2  0  0  0
 10 11  1  0  0  0
 11 12  2  0  0  0
 12 13  1  0  0  0
 13 14  1  0  0  0
 13 15  2  0  0  0
 15 16  1  0  0  0
 16 17  2  0  0  0
 15  1  1  0  0  0
  1  2  1  0  0  0
  1  3  1  0  0  0
  3  4  2  0  0  0
  3  5  1  0  0  0
  5 28  1  0  0  0
 28 29  1  0  0  0
 29 30  2  0  0  0
 30 31  1  0  0  0
 31 32  1  0  0  0
 31 33  2  0  0  0
 33 34  1  0  0  0
 33 35  1  0  0  0
 35 36  2  0  0  0
 36 37  1  0  0  0
 37 38  2  0  0  0
 38 39  1  0  0  0
 39 40  2  0  0  0
 40 41  1  0  0  0
 41 42  2  0  0  0
 41 43  2  0  0  0
 41 44  1  0  0  0
 44 45  1  0  0  0
  9 25  1  0  0  0
 25 26  1  0  0  0
 25 27  1  0  0  0
 24 19  1  0  0  0
 17  7  1  0  0  0
 45 29  1  0  0  0
 17 11  1  0  0  0
 40 35  1  0  0  0
  5  6  1  0  0  0
M  END
> <minimizedAffinity>
0.86382

> <CNNscore>
0.4289960265

> <CNNaffinity>
7.8764829636

> <CNN_VS>
3.3789799213

> <CNNaffinity_variance>
0.2237121761

$$$$
[H]C1=C(C([H])([H])N([H])C(=O)N(c2c(F)c([H])c3nc(C([H])(C([H])([H])[H])C([H])([H])[H])c([H])c(N4C([H])([H])C([H])([H])N(C([H])([H])[H])C([H])([H])C4([H])[H])c3c2[H])C([H])([H])[H])C([H])([H])C([H])([H])S(=O)(=O)c2c([H])c([H])c([H])c([H])c2C(C([H])([H])[H])=C1F


 45 49  0  0  0  0  0  0  0  0999 V2000
   12.2658   22.0453    0.8194 N   0  0  0  0  0  0  0  0  0  0  0  0
   11.8252   20.6617    0.5722 C   0  0  0  0  0  0  0  0  0  0  0  0
   13.6238   22.3998    0.7436 C   0  0  0  0  0  0  0  0  0  0  0  0
   14.4272   21.4638    0.4274 O   0  0  0  0  0  0  0  0  0  0  0  0
   14.1862   23.6665    0.9768 N   0  0  0  0  0  0  0  0  0  0  0  0
   13.5073   24.4366    1.2437 H   0  0  0  0  0  0  0  0  0  0  0  0
    8.7238   23.3991    3.8074 C   0  0  0  0  0  0  0  0  0  0  0  0
    7.7252   24.3228    4.0759 C   0  0  0  0  0  0  0  0  0  0  0  0
    7.4617   25.3909    3.2593 C   0  0  0  0  0  0  0  0  0  0  0  0
    8.2074   25.5380    2.1584 N   0  0  0  0  0  0  0  0  0  0  0  0
    9.1939   24.6856    1.8280 C   0  0  0  0  0  0  0  0  0  0  0  0
    9.9259   24.9021    0.6787 C   0  0  0  0  0  0  0  0  0  0  0  0
   10.9478   24.0427    0.3173 C   0  0  0  0  0  0  0  0  0  0  0  0
   11.6618   24.2804   -0.8065 F   0  0  0  0  0  0  0  0  0  0  0  0
   11.2154   22.9669    1.1310 C   0  0  0  0  0  0  0  0  0  0  0  0
   10.4701   22.7666    2.2804 C   0  0  0  0  0  0  0  0  0  0  0  0
    9.4599   23.6053    2.6531 C   0  0  0  0  0  0  0  0  0  0  0  0
   10.5454   18.5322    5.4102 C   0  0  0  0  0  0  0  0  0  0  0  0
    9.9074   19.8165    5.5780 N   0  0  0  0  0  0  0  0  0  0  0  0
    8.7424   19.8878    4.7059 C   0  0  0  0  0  0  0  0  0  0  0  0
    8.0404   21.2261    4.9195 C   0  0  0  0  0  0  0  0  0  0  0  0
    8.9901   22.3225    4.6918 N   0  0  0  0  0  0  0  0  0  0  0  0
   10.2325   22.2185    5.4298 C   0  0  0  0  0  0  0  0  0  0  0  0
   10.8357   20.8458    5.1975 C   0  0  0  0  0  0  0  0  0  0  0  0
    6.3759   26.3690    3.5902 C   0  0  0  0  0  0  0  0  0  0  0  0
    6.9822   27.7278    3.9255 C   0  0  0  0  0  0  0  0  0  0  0  0
    5.6157   25.8433    4.7725 C   0  0  0  0  0  0  0  0  0  0  0  0
   15.5932   23.9684    0.8750 C   0  0  0  0  0  0  0  0  0  0  0  0
   15.8838   24.2188   -0.5992 C   0  0  0  0  0  0  0  0  0  0  0  0
   15.2700   23.4750   -1.4655 C   0  0  0  0  0  0  0  0  0  0  0  0
   15.2295   23.3542   -2.8820 C   0  0  0  0  0  0  0  0  0  0  0  0
   15.6582   22.0927   -3.3786 F   0  0  0  0  0  0  0  0  0  0  0  0
   14.8852   24.1807   -3.8602 C   0  0  0  0  0  0  0  0  0  0  0  0
   14.9603   23.6679   -5.3113 C   0  0  0  0  0  0  0  0  0  0  0  0
   14.4199   25.5629   -3.7889 C   0  0  0  0  0  0  0  0  0  0  0  0
   13.0656   25.7250   -4.1966 C   0  0  0  0  0  0  0  0  0  0  0  0
   12.3958   26.9036   -4.1812 C   0  0  0  0  0  0  0  0  0  0  0  0
   13.0751   28.0158   -3.7434 C   0  0  0  0  0  0  0  0  0  0  0  0
   14.3809   27.8993   -3.3477 C   0  0  0  0  0  0  0  0  0  0  0  0
   15.0950   26.6802   -3.3586 C   0  0  0  0  0  0  0  0  0  0  0  0
   16.7978   26.7733   -2.9760 S   0  0  0  0  0  0  0  0  0  0  0  0
   17.6184   27.0116   -4.2242 O   0  0  0  0  0  0  0  0  0  0  0  0
   17.0358   28.0168   -2.1274 O   0  0  0  0  0  0  0  0  0  0  0  0
   17.4638   25.4154   -2.1211 C   0  0  0  0  0  0  0  0  0  0  0  0
   16.8458   25.3069   -0.7872 C   0  0  0  0  0  0  0  0  0  0  0  0
 18 19  1  0  0  0
 19 20  1  0  0  0
 20 21  1  0  0  0
 21 22  1  0  0  0
 22 23  1  0  0  0
 23 24  1  0  0  0
 22  7  1  0  0  0
  7  8  2  0  0  0
  8  9  1  0  0  0
  9 10  2  0  0  0
 10 11  1  0  0  0
 11 12  2  0  0  0
 12 13  1  0  0  0
 13 14  1  0  0  0
 13 15  2  0  0  0
 15 16  1  0  0  0
 16 17  2  0  0  0
 15  1  1  0  0  0
  1  2  1  0  0  0
  1  3  1  0  0  0
  3  4  2  0  0  0
  3  5  1  0  0  0
  5 28  1  0  0  0
 28 29  1  0  0  0
 29 30  2  0  0  0
 30 31  1  0  0  0
 31 32  1  0  0  0
 31 33  2  0  0  0
 33 34  1  0  0  0
 33 35  1  0  0  0
 35 36  2  0  0  0
 36 37  1  0  0  0
 37 38  2  0  0  0
 38 39  1  0  0  0
 39 40  2  0  0  0
 40 41  1  0  0  0
 41 42  2  0  0  0
 41 43  2  0  0  0
 41 44  1  0  0  0
 44 45  1  0  0  0
  9 25  1  0  0  0
 25 26  1  0  0  0
 25 27  1  0  0  0
 24 19  1  0  0  0
 17  7  1  0  0  0
 45 29  1  0  0  0
 17 11  1  0  0  0
 40 35  1  0  0  0
  5  6  1  0  0  0
M  END
> <minimizedAffinity>
1.04795

> <CNNscore>
0.4147426486

> <CNNaffinity>
7.9192476273

> <CNN_VS>
3.2844498158

> <CNNaffinity_variance>
0.2192487270

$$$$
[H]C1=C(C([H])([H])N([H])C(=O)N(c2c(F)c([H])c3nc(C([H])(C([H])([H])[H])C([H])([H])[H])c([H])c(N4C([H])([H])C([H])([H])N(C([H])([H])[H])C([H])([H])C4([H])[H])c3c2[H])C([H])([H])[H])C([H])([H])C([H])([H])S(=O)(=O)c2c([H])c([H])c([H])c([H])c2C(C([H])([H])[H])=C1F


 45 49  0  0  0  0  0  0  0  0999 V2000
   11.1384   20.0288   -0.0745 N   0  0  0  0  0  0  0  0  0  0  0  0
   10.3489   18.8368    0.2793 C   0  0  0  0  0  0  0  0  0  0  0  0
   12.1501   19.9673   -1.0484 C   0  0  0  0  0  0  0  0  0  0  0  0
   12.3150   18.8364   -1.6099 O   0  0  0  0  0  0  0  0  0  0  0  0
   12.9924   21.0118   -1.4665 N   0  0  0  0  0  0  0  0  0  0  0  0
   12.8482   21.9476   -0.9883 H   0  0  0  0  0  0  0  0  0  0  0  0
    7.7089   22.7798    1.9198 C   0  0  0  0  0  0  0  0  0  0  0  0
    7.4178   23.9382    2.6240 C   0  0  0  0  0  0  0  0  0  0  0  0
    8.3801   24.8302    3.0181 C   0  0  0  0  0  0  0  0  0  0  0  0
    9.6522   24.5603    2.7037 N   0  0  0  0  0  0  0  0  0  0  0  0
   10.0160   23.4589    2.0230 C   0  0  0  0  0  0  0  0  0  0  0  0
   11.3484   23.2427    1.7375 C   0  0  0  0  0  0  0  0  0  0  0  0
   11.7501   22.1167    1.0416 C   0  0  0  0  0  0  0  0  0  0  0  0
   13.0626   21.9171    0.7835 F   0  0  0  0  0  0  0  0  0  0  0  0
   10.7887   21.2189    0.6405 C   0  0  0  0  0  0  0  0  0  0  0  0
    9.4567   21.4531    0.9368 C   0  0  0  0  0  0  0  0  0  0  0  0
    9.0430   22.5574    1.6239 C   0  0  0  0  0  0  0  0  0  0  0  0
    5.5099   18.0595    0.3527 C   0  0  0  0  0  0  0  0  0  0  0  0
    5.4966   19.4495    0.7427 N   0  0  0  0  0  0  0  0  0  0  0  0
    6.2814   20.2204   -0.2127 C   0  0  0  0  0  0  0  0  0  0  0  0
    6.2267   21.6962    0.1721 C   0  0  0  0  0  0  0  0  0  0  0  0
    6.6905   21.8622    1.5553 N   0  0  0  0  0  0  0  0  0  0  0  0
    6.0384   21.0065    2.5257 C   0  0  0  0  0  0  0  0  0  0  0  0
    6.0990   19.5697    2.0422 C   0  0  0  0  0  0  0  0  0  0  0  0
    8.0219   26.0679    3.7828 C   0  0  0  0  0  0  0  0  0  0  0  0
    7.0495   26.9188    2.9724 C   0  0  0  0  0  0  0  0  0  0  0  0
    9.2823   26.8400    4.0420 C   0  0  0  0  0  0  0  0  0  0  0  0
   14.0108   20.8856   -2.4805 C   0  0  0  0  0  0  0  0  0  0  0  0
   14.7517   22.2157   -2.5277 C   0  0  0  0  0  0  0  0  0  0  0  0
   15.1360   22.6466   -3.6884 C   0  0  0  0  0  0  0  0  0  0  0  0
   15.8261   23.7826   -4.1942 C   0  0  0  0  0  0  0  0  0  0  0  0
   17.0507   23.4837   -4.8521 F   0  0  0  0  0  0  0  0  0  0  0  0
   15.5792   25.0853   -4.1749 C   0  0  0  0  0  0  0  0  0  0  0  0
   16.5826   26.0301   -4.8640 C   0  0  0  0  0  0  0  0  0  0  0  0
   14.4579   25.8104   -3.5842 C   0  0  0  0  0  0  0  0  0  0  0  0
   13.6155   26.4320   -4.5489 C   0  0  0  0  0  0  0  0  0  0  0  0
   12.4907   27.1275   -4.2504 C   0  0  0  0  0  0  0  0  0  0  0  0
   12.1450   27.2396   -2.9246 C   0  0  0  0  0  0  0  0  0  0  0  0
   12.9339   26.6588   -1.9677 C   0  0  0  0  0  0  0  0  0  0  0  0
   14.1098   25.9321   -2.2600 C   0  0  0  0  0  0  0  0  0  0  0  0
   15.0643   25.4144   -0.8904 S   0  0  0  0  0  0  0  0  0  0  0  0
   16.0758   26.4721   -0.5080 O   0  0  0  0  0  0  0  0  0  0  0  0
   14.1506   25.3121    0.3251 O   0  0  0  0  0  0  0  0  0  0  0  0
   15.8855   23.8933   -1.0632 C   0  0  0  0  0  0  0  0  0  0  0  0
   14.9033   22.8020   -1.1942 C   0  0  0  0  0  0  0  0  0  0  0  0
 18 19  1  0  0  0
 19 20  1  0  0  0
 20 21  1  0  0  0
 21 22  1  0  0  0
 22 23  1  0  0  0
 23 24  1  0  0  0
 22  7  1  0  0  0
  7  8  2  0  0  0
  8  9  1  0  0  0
  9 10  2  0  0  0
 10 11  1  0  0  0
 11 12  2  0  0  0
 12 13  1  0  0  0
 13 14  1  0  0  0
 13 15  2  0  0  0
 15 16  1  0  0  0
 16 17  2  0  0  0
 15  1  1  0  0  0
  1  2  1  0  0  0
  1  3  1  0  0  0
  3  4  2  0  0  0
  3  5  1  0  0  0
  5 28  1  0  0  0
 28 29  1  0  0  0
 29 30  2  0  0  0
 30 31  1  0  0  0
 31 32  1  0  0  0
 31 33  2  0  0  0
 33 34  1  0  0  0
 33 35  1  0  0  0
 35 36  2  0  0  0
 36 37  1  0  0  0
 37 38  2  0  0  0
 38 39  1  0  0  0
 39 40  2  0  0  0
 40 41  1  0  0  0
 41 42  2  0  0  0
 41 43  2  0  0  0
 41 44  1  0  0  0
 44 45  1  0  0  0
  9 25  1  0  0  0
 25 26  1  0  0  0
 25 27  1  0  0  0
 24 19  1  0  0  0
 17  7  1  0  0  0
 45 29  1  0  0  0
 17 11  1  0  0  0
 40 35  1  0  0  0
  5  6  1  0  0  0
M  END
> <minimizedAffinity>
3.77386

> <CNNscore>
0.4125158489

> <CNNaffinity>
8.0932559967

> <CNN_VS>
3.3385963440

> <CNNaffinity_variance>
0.8242242932

$$$$
[H]C1=C(C([H])([H])N([H])C(=O)N(c2c(F)c([H])c3nc(C([H])(C([H])([H])[H])C([H])([H])[H])c([H])c(N4C([H])([H])C([H])([H])N(C([H])([H])[H])C([H])([H])C4([H])[H])c3c2[H])C([H])([H])[H])C([H])([H])C([H])([H])S(=O)(=O)c2c([H])c([H])c([H])c([H])c2C(C([H])([H])[H])=C1F


 45 49  0  0  0  0  0  0  0  0999 V2000
   11.8658   22.0362    1.1381 N   0  0  0  0  0  0  0  0  0  0  0  0
   12.5939   21.1779    2.0883 C   0  0  0  0  0  0  0  0  0  0  0  0
   12.3339   23.3213    0.8142 C   0  0  0  0  0  0  0  0  0  0  0  0
   13.4239   23.6739    1.3703 O   0  0  0  0  0  0  0  0  0  0  0  0
   11.7335   24.2519   -0.0511 N   0  0  0  0  0  0  0  0  0  0  0  0
   10.8239   23.9482   -0.5046 H   0  0  0  0  0  0  0  0  0  0  0  0
    7.1082   21.2923    1.4824 C   0  0  0  0  0  0  0  0  0  0  0  0
    5.9805   20.7248    0.9090 C   0  0  0  0  0  0  0  0  0  0  0  0
    6.0182   20.0218   -0.2663 C   0  0  0  0  0  0  0  0  0  0  0  0
    7.2002   19.8841   -0.8775 N   0  0  0  0  0  0  0  0  0  0  0  0
    8.3390   20.4039   -0.3858 C   0  0  0  0  0  0  0  0  0  0  0  0
    9.5222   20.2261   -1.0727 C   0  0  0  0  0  0  0  0  0  0  0  0
   10.7071   20.7529   -0.5909 C   0  0  0  0  0  0  0  0  0  0  0  0
   11.8538   20.5783   -1.2865 F   0  0  0  0  0  0  0  0  0  0  0  0
   10.6767   21.4570    0.5899 C   0  0  0  0  0  0  0  0  0  0  0  0
    9.4795   21.6251    1.2646 C   0  0  0  0  0  0  0  0  0  0  0  0
    8.3012   21.1141    0.8028 C   0  0  0  0  0  0  0  0  0  0  0  0
    8.8703   24.0903    5.7998 C   0  0  0  0  0  0  0  0  0  0  0  0
    7.8787   23.4924    4.9374 N   0  0  0  0  0  0  0  0  0  0  0  0
    8.0978   22.0529    4.8852 C   0  0  0  0  0  0  0  0  0  0  0  0
    7.0199   21.4154    4.0128 C   0  0  0  0  0  0  0  0  0  0  0  0
    7.0274   22.0410    2.6845 N   0  0  0  0  0  0  0  0  0  0  0  0
    6.9592   23.4883    2.6898 C   0  0  0  0  0  0  0  0  0  0  0  0
    8.0315   24.0334    3.6146 C   0  0  0  0  0  0  0  0  0  0  0  0
    4.7737   19.4294   -0.8542 C   0  0  0  0  0  0  0  0  0  0  0  0
    4.6857   17.9475   -0.5042 C   0  0  0  0  0  0  0  0  0  0  0  0
    4.8321   19.5995   -2.3440 C   0  0  0  0  0  0  0  0  0  0  0  0
   12.2703   25.5574   -0.3487 C   0  0  0  0  0  0  0  0  0  0  0  0
   12.9070   25.4669   -1.7295 C   0  0  0  0  0  0  0  0  0  0  0  0
   12.6390   26.4115   -2.5759 C   0  0  0  0  0  0  0  0  0  0  0  0
   12.9907   26.7306   -3.9165 C   0  0  0  0  0  0  0  0  0  0  0  0
   11.8922   26.7815   -4.8179 F   0  0  0  0  0  0  0  0  0  0  0  0
   14.1420   26.9832   -4.5239 C   0  0  0  0  0  0  0  0  0  0  0  0
   14.1180   27.3139   -6.0287 C   0  0  0  0  0  0  0  0  0  0  0  0
   15.4960   27.0054   -3.9777 C   0  0  0  0  0  0  0  0  0  0  0  0
   16.0821   28.3028   -3.9723 C   0  0  0  0  0  0  0  0  0  0  0  0
   17.3129   28.5863   -3.4797 C   0  0  0  0  0  0  0  0  0  0  0  0
   18.0422   27.5470   -2.9525 C   0  0  0  0  0  0  0  0  0  0  0  0
   17.5129   26.2840   -2.9449 C   0  0  0  0  0  0  0  0  0  0  0  0
   16.2334   25.9697   -3.4551 C   0  0  0  0  0  0  0  0  0  0  0  0
   15.8114   24.2745   -3.5052 S   0  0  0  0  0  0  0  0  0  0  0  0
   16.2447   23.6497   -4.8130 O   0  0  0  0  0  0  0  0  0  0  0  0
   16.6298   23.5407   -2.4495 O   0  0  0  0  0  0  0  0  0  0  0  0
   14.1378   23.8958   -3.2333 C   0  0  0  0  0  0  0  0  0  0  0  0
   13.7506   24.2772   -1.8631 C   0  0  0  0  0  0  0  0  0  0  0  0
 18 19  1  0  0  0
 19 20  1  0  0  0
 20 21  1  0  0  0
 21 22  1  0  0  0
 22 23  1  0  0  0
 23 24  1  0  0  0
 22  7  1  0  0  0
  7  8  2  0  0  0
  8  9  1  0  0  0
  9 10  2  0  0  0
 10 11  1  0  0  0
 11 12  2  0  0  0
 12 13  1  0  0  0
 13 14  1  0  0  0
 13 15  2  0  0  0
 15 16  1  0  0  0
 16 17  2  0  0  0
 15  1  1  0  0  0
  1  2  1  0  0  0
  1  3  1  0  0  0
  3  4  2  0  0  0
  3  5  1  0  0  0
  5 28  1  0  0  0
 28 29  1  0  0  0
 29 30  2  0  0  0
 30 31  1  0  0  0
 31 32  1  0  0  0
 31 33  2  0  0  0
 33 34  1  0  0  0
 33 35  1  0  0  0
 35 36  2  0  0  0
 36 37  1  0  0  0
 37 38  2  0  0  0
 38 39  1  0  0  0
 39 40  2  0  0  0
 40 41  1  0  0  0
 41 42  2  0  0  0
 41 43  2  0  0  0
 41 44  1  0  0  0
 44 45  1  0  0  0
  9 25  1  0  0  0
 25 26  1  0  0  0
 25 27  1  0  0  0
 24 19  1  0  0  0
 17  7  1  0  0  0
 45 29  1  0  0  0
 17 11  1  0  0  0
 40 35  1  0  0  0
  5  6  1  0  0  0
M  END
> <minimizedAffinity>
-4.38021

> <CNNscore>
0.4066482782

> <CNNaffinity>
8.0371761322

> <CNN_VS>
3.2683038712

> <CNNaffinity_variance>
0.1936645210

$$$$
[H]OC1([H])C([H])([H])N([H])N(S(=O)(=O)c2c([H])c([H])c(-c3c([H])sc4nc(C([H])([H])[H])n(C([H])([H])C([H])([H])F)c34)c([H])c2[H])C([H])([H])C1([H])[H]


 30 33  0  0  0  0  0  0  0  0999 V2000
   13.7950   25.5941   -3.1966 C   0  0  0  0  0  0  0  0  0  0  0  0
   14.1349   24.3439   -2.7341 C   0  0  0  0  0  0  0  0  0  0  0  0
   13.4774   23.7421   -1.6818 C   0  0  0  0  0  0  0  0  0  0  0  0
   12.4366   24.3829   -1.0433 C   0  0  0  0  0  0  0  0  0  0  0  0
   12.0873   25.6359   -1.4981 C   0  0  0  0  0  0  0  0  0  0  0  0
   12.7539   26.2286   -2.5537 C   0  0  0  0  0  0  0  0  0  0  0  0
   19.0001   28.3285   -3.6230 C   0  0  0  0  0  0  0  0  0  0  0  0
   17.7365   27.8088   -4.1955 C   0  0  0  0  0  0  0  0  0  0  0  0
   17.4046   27.8537   -5.4814 N   0  0  0  0  0  0  0  0  0  0  0  0
   16.1730   27.2644   -5.5780 C   0  0  0  0  0  0  0  0  0  0  0  0
   14.9364   26.8420   -6.6660 S   0  0  0  0  0  0  0  0  0  0  0  0
   13.8526   26.1341   -5.5963 C   0  0  0  0  0  0  0  0  0  0  0  0
   14.4950   26.2397   -4.3533 C   0  0  0  0  0  0  0  0  0  0  0  0
   15.7128   26.8388   -4.3546 C   0  0  0  0  0  0  0  0  0  0  0  0
   16.7223   27.1989   -3.4935 N   0  0  0  0  0  0  0  0  0  0  0  0
   16.8224   27.0410   -2.0638 C   0  0  0  0  0  0  0  0  0  0  0  0
   17.0988   25.5574   -1.7852 C   0  0  0  0  0  0  0  0  0  0  0  0
   16.5103   25.0877   -0.6552 F   0  0  0  0  0  0  0  0  0  0  0  0
   11.6056   23.6097    0.2952 S   0  0  0  0  0  0  0  0  0  0  0  0
   11.1363   24.6228    1.3010 O   0  0  0  0  0  0  0  0  0  0  0  0
   10.3679   22.9641   -0.2789 O   0  0  0  0  0  0  0  0  0  0  0  0
   12.6053   22.4858    1.1038 N   0  0  0  0  0  0  0  0  0  0  0  0
   13.2417   21.5308    0.2655 C   0  0  0  0  0  0  0  0  0  0  0  0
   12.3545   20.4168   -0.2056 C   0  0  0  0  0  0  0  0  0  0  0  0
   11.3975   19.9236    0.8268 C   0  0  0  0  0  0  0  0  0  0  0  0
   10.2596   19.4388    0.1669 O   0  0  0  0  0  0  0  0  0  0  0  0
   10.9538   20.9579    1.8030 C   0  0  0  0  0  0  0  0  0  0  0  0
   11.9965   21.8626    2.1671 N   0  0  0  0  0  0  0  0  0  0  0  0
   10.3320   19.5481   -0.8142 H   0  0  0  0  0  0  0  0  0  0  0  0
   11.7566   22.4592    2.9655 H   0  0  0  0  0  0  0  0  0  0  0  0
  7  8  1  0  0  0
  8  9  2  0  0  0
  9 10  1  0  0  0
 10 11  1  0  0  0
 11 12  1  0  0  0
 12 13  2  0  0  0
 13  1  1  0  0  0
  1  2  2  0  0  0
  2  3  1  0  0  0
  3  4  2  0  0  0
  4  5  1  0  0  0
  5  6  2  0  0  0
  4 19  1  0  0  0
 19 20  2  0  0  0
 19 21  2  0  0  0
 19 22  1  0  0  0
 22 23  1  0  0  0
 23 24  1  0  0  0
 24 25  1  0  0  0
 25 26  1  0  0  0
 25 27  1  0  0  0
 27 28  1  0  0  0
 13 14  1  0  0  0
 14 15  1  0  0  0
 15 16  1  0  0  0
 16 17  1  0  0  0
 17 18  1  0  0  0
 15  8  1  0  0  0
 14 10  2  0  0  0
  6  1  1  0  0  0
 28 22  1  0  0  0
 26 29  1  0  0  0
 28 30  1  0  0  0
M  END
> <minimizedAffinity>
-5.29568

> <CNNscore>
0.5085444450

> <CNNaffinity>
7.4183182716

> <CNN_VS>
3.7725446224

> <CNNaffinity_variance>
0.5024905205

$$$$
[H]OC1([H])C([H])([H])N([H])N(S(=O)(=O)c2c([H])c([H])c(-c3c([H])sc4nc(C([H])([H])[H])n(C([H])([H])C([H])([H])F)c34)c([H])c2[H])C([H])([H])C1([H])[H]


 30 33  0  0  0  0  0  0  0  0999 V2000
   14.2141   26.3849   -3.6784 C   0  0  0  0  0  0  0  0  0  0  0  0
   12.9838   25.7727   -3.7429 C   0  0  0  0  0  0  0  0  0  0  0  0
   12.5533   24.8784   -2.7854 C   0  0  0  0  0  0  0  0  0  0  0  0
   13.3545   24.5593   -1.7094 C   0  0  0  0  0  0  0  0  0  0  0  0
   14.5892   25.1666   -1.6344 C   0  0  0  0  0  0  0  0  0  0  0  0
   15.0095   26.0613   -2.6002 C   0  0  0  0  0  0  0  0  0  0  0  0
   11.6990   31.2416   -5.8780 C   0  0  0  0  0  0  0  0  0  0  0  0
   12.8122   30.2703   -5.7706 C   0  0  0  0  0  0  0  0  0  0  0  0
   13.9759   30.3682   -6.4047 N   0  0  0  0  0  0  0  0  0  0  0  0
   14.7110   29.2786   -6.0228 C   0  0  0  0  0  0  0  0  0  0  0  0
   16.2045   28.4919   -6.2272 S   0  0  0  0  0  0  0  0  0  0  0  0
   15.9675   27.1743   -5.2133 C   0  0  0  0  0  0  0  0  0  0  0  0
   14.6741   27.3726   -4.7069 C   0  0  0  0  0  0  0  0  0  0  0  0
   14.0211   28.4801   -5.1418 C   0  0  0  0  0  0  0  0  0  0  0  0
   12.8178   29.1299   -5.0005 N   0  0  0  0  0  0  0  0  0  0  0  0
   11.6577   28.7749   -4.2214 C   0  0  0  0  0  0  0  0  0  0  0  0
   11.2450   27.3558   -4.6349 C   0  0  0  0  0  0  0  0  0  0  0  0
    9.9026   27.1763   -4.7323 F   0  0  0  0  0  0  0  0  0  0  0  0
   12.7986   23.4199   -0.4959 S   0  0  0  0  0  0  0  0  0  0  0  0
   13.2526   22.0231   -0.8142 O   0  0  0  0  0  0  0  0  0  0  0  0
   13.4676   23.8077    0.8004 O   0  0  0  0  0  0  0  0  0  0  0  0
   11.0959   23.4056   -0.3658 N   0  0  0  0  0  0  0  0  0  0  0  0
   10.5296   24.5397    0.2769 C   0  0  0  0  0  0  0  0  0  0  0  0
   10.6532   24.5426    1.7719 C   0  0  0  0  0  0  0  0  0  0  0  0
   10.4585   23.2041    2.4007 C   0  0  0  0  0  0  0  0  0  0  0  0
   11.2107   23.1670    3.5832 O   0  0  0  0  0  0  0  0  0  0  0  0
   10.8829   22.0549    1.5528 C   0  0  0  0  0  0  0  0  0  0  0  0
   10.5876   22.2458    0.1692 N   0  0  0  0  0  0  0  0  0  0  0  0
   11.7100   24.0097    3.7251 H   0  0  0  0  0  0  0  0  0  0  0  0
   10.7072   21.3969   -0.3929 H   0  0  0  0  0  0  0  0  0  0  0  0
  7  8  1  0  0  0
  8  9  2  0  0  0
  9 10  1  0  0  0
 10 11  1  0  0  0
 11 12  1  0  0  0
 12 13  2  0  0  0
 13  1  1  0  0  0
  1  2  2  0  0  0
  2  3  1  0  0  0
  3  4  2  0  0  0
  4  5  1  0  0  0
  5  6  2  0  0  0
  4 19  1  0  0  0
 19 20  2  0  0  0
 19 21  2  0  0  0
 19 22  1  0  0  0
 22 23  1  0  0  0
 23 24  1  0  0  0
 24 25  1  0  0  0
 25 26  1  0  0  0
 25 27  1  0  0  0
 27 28  1  0  0  0
 13 14  1  0  0  0
 14 15  1  0  0  0
 15 16  1  0  0  0
 16 17  1  0  0  0
 17 18  1  0  0  0
 15  8  1  0  0  0
 14 10  2  0  0  0
  6  1  1  0  0  0
 28 22  1  0  0  0
 26 29  1  0  0  0
 28 30  1  0  0  0
M  END
> <minimizedAffinity>
47.05566

> <CNNscore>
0.4815285206

> <CNNaffinity>
6.6072244644

> <CNN_VS>
3.1815669537

> <CNNaffinity_variance>
0.9231798053

$$$$
[H]OC1([H])C([H])([H])N([H])N(S(=O)(=O)c2c([H])c([H])c(-c3c([H])sc4nc(C([H])([H])[H])n(C([H])([H])C([H])([H])F)c34)c([H])c2[H])C([H])([H])C1([H])[H]


 30 33  0  0  0  0  0  0  0  0999 V2000
   14.2776   23.6322   -2.6633 C   0  0  0  0  0  0  0  0  0  0  0  0
   15.3073   23.4881   -3.5640 C   0  0  0  0  0  0  0  0  0  0  0  0
   15.5466   24.4064   -4.5647 C   0  0  0  0  0  0  0  0  0  0  0  0
   14.7483   25.5224   -4.7014 C   0  0  0  0  0  0  0  0  0  0  0  0
   13.7136   25.6772   -3.8046 C   0  0  0  0  0  0  0  0  0  0  0  0
   13.4838   24.7500   -2.8059 C   0  0  0  0  0  0  0  0  0  0  0  0
   10.3979   23.5740    1.7748 C   0  0  0  0  0  0  0  0  0  0  0  0
   11.4994   22.9792    0.9829 C   0  0  0  0  0  0  0  0  0  0  0  0
   12.0372   21.7834    1.1993 N   0  0  0  0  0  0  0  0  0  0  0  0
   13.0070   21.6236    0.2466 C   0  0  0  0  0  0  0  0  0  0  0  0
   14.2011   20.5589   -0.3295 S   0  0  0  0  0  0  0  0  0  0  0  0
   14.8002   21.4739   -1.6038 C   0  0  0  0  0  0  0  0  0  0  0  0
   14.0298   22.6459   -1.5629 C   0  0  0  0  0  0  0  0  0  0  0  0
   13.0924   22.7156   -0.5839 C   0  0  0  0  0  0  0  0  0  0  0  0
   12.1271   23.5630   -0.0935 N   0  0  0  0  0  0  0  0  0  0  0  0
   11.7441   24.8833   -0.5283 C   0  0  0  0  0  0  0  0  0  0  0  0
   12.7941   25.8650    0.0093 C   0  0  0  0  0  0  0  0  0  0  0  0
   12.5385   26.3160    1.2643 F   0  0  0  0  0  0  0  0  0  0  0  0
   15.0600   26.6857   -5.9780 S   0  0  0  0  0  0  0  0  0  0  0  0
   16.0319   26.1389   -6.9854 O   0  0  0  0  0  0  0  0  0  0  0  0
   13.7531   26.8912   -6.7047 O   0  0  0  0  0  0  0  0  0  0  0  0
   15.6975   28.1478   -5.3679 N   0  0  0  0  0  0  0  0  0  0  0  0
   17.1140   28.2544   -5.4127 C   0  0  0  0  0  0  0  0  0  0  0  0
   17.8369   27.4840   -4.3479 C   0  0  0  0  0  0  0  0  0  0  0  0
   17.1683   27.5151   -3.0148 C   0  0  0  0  0  0  0  0  0  0  0  0
   17.4852   26.3261   -2.3429 O   0  0  0  0  0  0  0  0  0  0  0  0
   15.6837   27.6270   -3.0703 C   0  0  0  0  0  0  0  0  0  0  0  0
   15.2292   28.4818   -4.1195 N   0  0  0  0  0  0  0  0  0  0  0  0
   18.0518   25.7333   -2.8972 H   0  0  0  0  0  0  0  0  0  0  0  0
   14.2316   28.7090   -4.0553 H   0  0  0  0  0  0  0  0  0  0  0  0
  7  8  1  0  0  0
  8  9  2  0  0  0
  9 10  1  0  0  0
 10 11  1  0  0  0
 11 12  1  0  0  0
 12 13  2  0  0  0
 13  1  1  0  0  0
  1  2  2  0  0  0
  2  3  1  0  0  0
  3  4  2  0  0  0
  4  5  1  0  0  0
  5  6  2  0  0  0
  4 19  1  0  0  0
 19 20  2  0  0  0
 19 21  2  0  0  0
 19 22  1  0  0  0
 22 23  1  0  0  0
 23 24  1  0  0  0
 24 25  1  0  0  0
 25 26  1  0  0  0
 25 27  1  0  0  0
 27 28  1  0  0  0
 13 14  1  0  0  0
 14 15  1  0  0  0
 15 16  1  0  0  0
 16 17  1  0  0  0
 17 18  1  0  0  0
 15  8  1  0  0  0
 14 10  2  0  0  0
  6  1  1  0  0  0
 28 22  1  0  0  0
 26 29  1  0  0  0
 28 30  1  0  0  0
M  END
> <minimizedAffinity>
-4.62765

> <CNNscore>
0.4768910408

> <CNNaffinity>
7.5979032516

> <CNN_VS>
3.6233720779

> <CNNaffinity_variance>
0.4918442667

$$$$
[H]OC1([H])C([H])([H])N([H])N(S(=O)(=O)c2c([H])c([H])c(-c3c([H])sc4nc(C([H])([H])[H])n(C([H])([H])C([H])([H])F)c34)c([H])c2[H])C([H])([H])C1([H])[H]


 30 33  0  0  0  0  0  0  0  0999 V2000
   11.9862   25.0713   -1.3339 C   0  0  0  0  0  0  0  0  0  0  0  0
   10.8208   24.3765   -1.5610 C   0  0  0  0  0  0  0  0  0  0  0  0
   10.0254   23.9134   -0.5341 C   0  0  0  0  0  0  0  0  0  0  0  0
   10.3752   24.1338    0.7814 C   0  0  0  0  0  0  0  0  0  0  0  0
   11.5407   24.8289    1.0210 C   0  0  0  0  0  0  0  0  0  0  0  0
   12.3296   25.2880   -0.0167 C   0  0  0  0  0  0  0  0  0  0  0  0
   16.3409   22.6026   -4.4473 C   0  0  0  0  0  0  0  0  0  0  0  0
   15.4236   23.7206   -4.1264 C   0  0  0  0  0  0  0  0  0  0  0  0
   15.3603   24.8714   -4.7880 N   0  0  0  0  0  0  0  0  0  0  0  0
   14.3854   25.6106   -4.1745 C   0  0  0  0  0  0  0  0  0  0  0  0
   13.5720   27.1035   -4.2066 S   0  0  0  0  0  0  0  0  0  0  0  0
   12.5287   26.8815   -2.9095 C   0  0  0  0  0  0  0  0  0  0  0  0
   12.8400   25.5931   -2.4490 C   0  0  0  0  0  0  0  0  0  0  0  0
   13.8200   24.9353   -3.1190 C   0  0  0  0  0  0  0  0  0  0  0  0
   14.4986   23.7397   -3.1078 N   0  0  0  0  0  0  0  0  0  0  0  0
   14.3753   22.6114   -2.2186 C   0  0  0  0  0  0  0  0  0  0  0  0
   14.8376   23.0708   -0.8291 C   0  0  0  0  0  0  0  0  0  0  0  0
   15.6154   24.1837   -0.8447 F   0  0  0  0  0  0  0  0  0  0  0  0
    9.3571   23.5406    2.0820 S   0  0  0  0  0  0  0  0  0  0  0  0
    9.6261   24.2799    3.3624 O   0  0  0  0  0  0  0  0  0  0  0  0
    7.9324   23.8528    1.6930 O   0  0  0  0  0  0  0  0  0  0  0  0
    9.5978   21.8751    2.3725 N   0  0  0  0  0  0  0  0  0  0  0  0
   10.7850   21.3297    1.8131 C   0  0  0  0  0  0  0  0  0  0  0  0
   10.7244   21.0730    0.3365 C   0  0  0  0  0  0  0  0  0  0  0  0
    9.4129   20.5414   -0.1350 C   0  0  0  0  0  0  0  0  0  0  0  0
    9.2266   20.9596   -1.4601 O   0  0  0  0  0  0  0  0  0  0  0  0
    8.2385   21.0004    0.6586 C   0  0  0  0  0  0  0  0  0  0  0  0
    8.5133   21.0918    2.0565 N   0  0  0  0  0  0  0  0  0  0  0  0
    9.9790   21.5200   -1.7754 H   0  0  0  0  0  0  0  0  0  0  0  0
    7.6733   21.2289    2.6279 H   0  0  0  0  0  0  0  0  0  0  0  0
  7  8  1  0  0  0
  8  9  2  0  0  0
  9 10  1  0  0  0
 10 11  1  0  0  0
 11 12  1  0  0  0
 12 13  2  0  0  0
 13  1  1  0  0  0
  1  2  2  0  0  0
  2  3  1  0  0  0
  3  4  2  0  0  0
  4  5  1  0  0  0
  5  6  2  0  0  0
  4 19  1  0  0  0
 19 20  2  0  0  0
 19 21  2  0  0  0
 19 22  1  0  0  0
 22 23  1  0  0  0
 23 24  1  0  0  0
 24 25  1  0  0  0
 25 26  1  0  0  0
 25 27  1  0  0  0
 27 28  1  0  0  0
 13 14  1  0  0  0
 14 15  1  0  0  0
 15 16  1  0  0  0
 16 17  1  0  0  0
 17 18  1  0  0  0
 15  8  1  0  0  0
 14 10  2  0  0  0
  6  1  1  0  0  0
 28 22  1  0  0  0
 26 29  1  0  0  0
 28 30  1  0  0  0
M  END
> <minimizedAffinity>
-5.74389

> <CNNscore>
0.4102264643

> <CNNaffinity>
7.0425438881

> <CNN_VS>
2.8890378475

> <CNNaffinity_variance>
0.4062387049

$$$$
[H]OC1([H])C([H])([H])N([H])N(S(=O)(=O)c2c([H])c([H])c(-c3c([H])sc4nc(C([H])([H])[H])n(C([H])([H])C([H])([H])F)c34)c([H])c2[H])C([H])([H])C1([H])[H]


 30 33  0  0  0  0  0  0  0  0999 V2000
   13.7317   24.7502   -2.1343 C   0  0  0  0  0  0  0  0  0  0  0  0
   14.3058   23.5096   -2.2886 C   0  0  0  0  0  0  0  0  0  0  0  0
   14.0890   22.4799   -1.3973 C   0  0  0  0  0  0  0  0  0  0  0  0
   13.2744   22.6593   -0.2992 C   0  0  0  0  0  0  0  0  0  0  0  0
   12.6938   23.8982   -0.1344 C   0  0  0  0  0  0  0  0  0  0  0  0
   12.9187   24.9224   -1.0347 C   0  0  0  0  0  0  0  0  0  0  0  0
   18.5678   27.7465   -3.6793 C   0  0  0  0  0  0  0  0  0  0  0  0
   17.1245   27.4314   -3.7893 C   0  0  0  0  0  0  0  0  0  0  0  0
   16.2851   27.9860   -4.6574 N   0  0  0  0  0  0  0  0  0  0  0  0
   15.0642   27.4116   -4.4273 C   0  0  0  0  0  0  0  0  0  0  0  0
   13.4381   27.4011   -4.9242 S   0  0  0  0  0  0  0  0  0  0  0  0
   12.8311   26.2431   -3.8704 C   0  0  0  0  0  0  0  0  0  0  0  0
   13.9499   25.8631   -3.1135 C   0  0  0  0  0  0  0  0  0  0  0  0
   15.1180   26.4862   -3.4122 C   0  0  0  0  0  0  0  0  0  0  0  0
   16.4359   26.5199   -3.0222 N   0  0  0  0  0  0  0  0  0  0  0  0
   17.1144   25.7878   -1.9816 C   0  0  0  0  0  0  0  0  0  0  0  0
   16.3338   26.0131   -0.6796 C   0  0  0  0  0  0  0  0  0  0  0  0
   16.1882   24.8960    0.0785 F   0  0  0  0  0  0  0  0  0  0  0  0
   13.0043   21.3434    0.8301 S   0  0  0  0  0  0  0  0  0  0  0  0
   14.2496   20.5229    1.0157 O   0  0  0  0  0  0  0  0  0  0  0  0
   12.6994   21.9757    2.1664 O   0  0  0  0  0  0  0  0  0  0  0  0
   11.7567   20.3003    0.3086 N   0  0  0  0  0  0  0  0  0  0  0  0
   11.2932   20.5277   -1.0154 C   0  0  0  0  0  0  0  0  0  0  0  0
   10.3820   21.7094   -1.1687 C   0  0  0  0  0  0  0  0  0  0  0  0
    9.4186   21.8844   -0.0435 C   0  0  0  0  0  0  0  0  0  0  0  0
    9.1302   23.2515    0.0717 O   0  0  0  0  0  0  0  0  0  0  0  0
    9.9179   21.4097    1.2774 C   0  0  0  0  0  0  0  0  0  0  0  0
   10.6980   20.2179    1.1815 N   0  0  0  0  0  0  0  0  0  0  0  0
    9.6344   23.7882   -0.5898 H   0  0  0  0  0  0  0  0  0  0  0  0
   10.8923   19.7849    2.0902 H   0  0  0  0  0  0  0  0  0  0  0  0
  7  8  1  0  0  0
  8  9  2  0  0  0
  9 10  1  0  0  0
 10 11  1  0  0  0
 11 12  1  0  0  0
 12 13  2  0  0  0
 13  1  1  0  0  0
  1  2  2  0  0  0
  2  3  1  0  0  0
  3  4  2  0  0  0
  4  5  1  0  0  0
  5  6  2  0  0  0
  4 19  1  0  0  0
 19 20  2  0  0  0
 19 21  2  0  0  0
 19 22  1  0  0  0
 22 23  1  0  0  0
 23 24  1  0  0  0
 24 25  1  0  0  0
 25 26  1  0  0  0
 25 27  1  0  0  0
 27 28  1  0  0  0
 13 14  1  0  0  0
 14 15  1  0  0  0
 15 16  1  0  0  0
 16 17  1  0  0  0
 17 18  1  0  0  0
 15  8  1  0  0  0
 14 10  2  0  0  0
  6  1  1  0  0  0
 28 22  1  0  0  0
 26 29  1  0  0  0
 28 30  1  0  0  0
M  END
> <minimizedAffinity>
-5.59321

> <CNNscore>
0.4096257091

> <CNNaffinity>
7.5301389694

> <CNN_VS>
3.0845384598

> <CNNaffinity_variance>
0.6283419728

$$$$
[H]OC1([H])C([H])([H])N([H])N(S(=O)(=O)c2c([H])c([H])c(-c3c([H])sc4nc(C([H])([H])[H])n(C([H])([H])C([H])([H])F)c34)c([H])c2[H])C([H])([H])C1([H])[H]


 30 33  0  0  0  0  0  0  0  0999 V2000
   13.1799   24.5677   -1.7846 C   0  0  0  0  0  0  0  0  0  0  0  0
   14.2433   24.2878   -0.9579 C   0  0  0  0  0  0  0  0  0  0  0  0
   14.1962   23.2905   -0.0066 C   0  0  0  0  0  0  0  0  0  0  0  0
   13.0614   22.5238    0.1536 C   0  0  0  0  0  0  0  0  0  0  0  0
   11.9897   22.7952   -0.6691 C   0  0  0  0  0  0  0  0  0  0  0  0
   12.0490   23.7973   -1.6189 C   0  0  0  0  0  0  0  0  0  0  0  0
   16.5695   25.2212   -6.5633 C   0  0  0  0  0  0  0  0  0  0  0  0
   15.4810   25.6492   -5.6542 C   0  0  0  0  0  0  0  0  0  0  0  0
   14.7016   26.7092   -5.8410 N   0  0  0  0  0  0  0  0  0  0  0  0
   13.8341   26.7357   -4.7826 C   0  0  0  0  0  0  0  0  0  0  0  0
   12.5411   27.5961   -4.0906 S   0  0  0  0  0  0  0  0  0  0  0  0
   12.2757   26.6530   -2.7268 C   0  0  0  0  0  0  0  0  0  0  0  0
   13.2376   25.6369   -2.8326 C   0  0  0  0  0  0  0  0  0  0  0  0
   14.0540   25.6921   -3.9154 C   0  0  0  0  0  0  0  0  0  0  0  0
   15.1064   25.0191   -4.4897 N   0  0  0  0  0  0  0  0  0  0  0  0
   15.8113   23.8439   -4.0416 C   0  0  0  0  0  0  0  0  0  0  0  0
   14.8510   22.6544   -4.1767 C   0  0  0  0  0  0  0  0  0  0  0  0
   14.8088   21.8504   -3.0834 F   0  0  0  0  0  0  0  0  0  0  0  0
   13.0102   21.2569    1.3671 S   0  0  0  0  0  0  0  0  0  0  0  0
   14.1770   20.3206    1.2241 O   0  0  0  0  0  0  0  0  0  0  0  0
   13.1609   21.9349    2.7072 O   0  0  0  0  0  0  0  0  0  0  0  0
   11.5766   20.3342    1.2669 N   0  0  0  0  0  0  0  0  0  0  0  0
   10.4061   21.0705    0.9389 C   0  0  0  0  0  0  0  0  0  0  0  0
    9.8259   21.8664    2.0703 C   0  0  0  0  0  0  0  0  0  0  0  0
    9.8777   21.1737    3.3904 C   0  0  0  0  0  0  0  0  0  0  0  0
    9.9636   22.1524    4.3905 O   0  0  0  0  0  0  0  0  0  0  0  0
   11.0322   20.2469    3.5574 C   0  0  0  0  0  0  0  0  0  0  0  0
   11.3509   19.5346    2.3619 N   0  0  0  0  0  0  0  0  0  0  0  0
    9.9919   23.0646    4.0074 H   0  0  0  0  0  0  0  0  0  0  0  0
   12.0174   18.7698    2.5099 H   0  0  0  0  0  0  0  0  0  0  0  0
  7  8  1  0  0  0
  8  9  2  0  0  0
  9 10  1  0  0  0
 10 11  1  0  0  0
 11 12  1  0  0  0
 12 13  2  0  0  0
 13  1  1  0  0  0
  1  2  2  0  0  0
  2  3  1  0  0  0
  3  4  2  0  0  0
  4  5  1  0  0  0
  5  6  2  0  0  0
  4 19  1  0  0  0
 19 20  2  0  0  0
 19 21  2  0  0  0
 19 22  1  0  0  0
 22 23  1  0  0  0
 23 24  1  0  0  0
 24 25  1  0  0  0
 25 26  1  0  0  0
 25 27  1  0  0  0
 27 28  1  0  0  0
 13 14  1  0  0  0
 14 15  1  0  0  0
 15 16  1  0  0  0
 16 17  1  0  0  0
 17 18  1  0  0  0
 15  8  1  0  0  0
 14 10  2  0  0  0
  6  1  1  0  0  0
 28 22  1  0  0  0
 26 29  1  0  0  0
 28 30  1  0  0  0
M  END
> <minimizedAffinity>
-2.17713

> <CNNscore>
0.3886926472

> <CNNaffinity>
7.1335525513

> <CNN_VS>
2.7727594376

> <CNNaffinity_variance>
0.4977317452

$$$$
[H]OC1([H])C([H])([H])N([H])N(S(=O)(=O)c2c([H])c([H])c(-c3c([H])sc4nc(C([H])([H])[H])n(C([H])([H])C([H])([H])F)c34)c([H])c2[H])C([H])([H])C1([H])[H]


 30 33  0  0  0  0  0  0  0  0999 V2000
   12.3340   23.7644   -1.7163 C   0  0  0  0  0  0  0  0  0  0  0  0
   11.3478   24.6683   -2.0370 C   0  0  0  0  0  0  0  0  0  0  0  0
   11.5836   25.7639   -2.8407 C   0  0  0  0  0  0  0  0  0  0  0  0
   12.8388   25.9976   -3.3616 C   0  0  0  0  0  0  0  0  0  0  0  0
   13.8348   25.0986   -3.0470 C   0  0  0  0  0  0  0  0  0  0  0  0
   13.5861   24.0042   -2.2404 C   0  0  0  0  0  0  0  0  0  0  0  0
   15.9685   20.0129    1.0165 C   0  0  0  0  0  0  0  0  0  0  0  0
   14.6211   20.5184    0.6651 C   0  0  0  0  0  0  0  0  0  0  0  0
   13.4758   20.0243    1.1233 N   0  0  0  0  0  0  0  0  0  0  0  0
   12.4826   20.7798    0.5610 C   0  0  0  0  0  0  0  0  0  0  0  0
   10.7966   20.9815    0.4720 S   0  0  0  0  0  0  0  0  0  0  0  0
   10.7265   22.2882   -0.5805 C   0  0  0  0  0  0  0  0  0  0  0  0
   12.0738   22.5625   -0.8605 C   0  0  0  0  0  0  0  0  0  0  0  0
   12.9886   21.7612   -0.2579 C   0  0  0  0  0  0  0  0  0  0  0  0
   14.3479   21.5718   -0.1770 N   0  0  0  0  0  0  0  0  0  0  0  0
   15.4231   22.2765   -0.8298 C   0  0  0  0  0  0  0  0  0  0  0  0
   15.7530   23.5053    0.0284 C   0  0  0  0  0  0  0  0  0  0  0  0
   14.7954   23.8173    0.9391 F   0  0  0  0  0  0  0  0  0  0  0  0
   13.1299   27.3945   -4.3832 S   0  0  0  0  0  0  0  0  0  0  0  0
   11.8458   27.9263   -4.9547 O   0  0  0  0  0  0  0  0  0  0  0  0
   13.6865   28.4759   -3.4893 O   0  0  0  0  0  0  0  0  0  0  0  0
   14.1754   27.0283   -5.6829 N   0  0  0  0  0  0  0  0  0  0  0  0
   14.8766   25.7977   -5.5659 C   0  0  0  0  0  0  0  0  0  0  0  0
   16.0430   25.8254   -4.6232 C   0  0  0  0  0  0  0  0  0  0  0  0
   16.8359   27.0878   -4.6738 C   0  0  0  0  0  0  0  0  0  0  0  0
   17.4037   27.2943   -3.4086 O   0  0  0  0  0  0  0  0  0  0  0  0
   16.0451   28.3010   -5.0234 C   0  0  0  0  0  0  0  0  0  0  0  0
   15.0409   28.0463   -6.0057 N   0  0  0  0  0  0  0  0  0  0  0  0
   17.1414   26.5846   -2.7704 H   0  0  0  0  0  0  0  0  0  0  0  0
   14.6165   28.8994   -6.3838 H   0  0  0  0  0  0  0  0  0  0  0  0
  7  8  1  0  0  0
  8  9  2  0  0  0
  9 10  1  0  0  0
 10 11  1  0  0  0
 11 12  1  0  0  0
 12 13  2  0  0  0
 13  1  1  0  0  0
  1  2  2  0  0  0
  2  3  1  0  0  0
  3  4  2  0  0  0
  4  5  1  0  0  0
  5  6  2  0  0  0
  4 19  1  0  0  0
 19 20  2  0  0  0
 19 21  2  0  0  0
 19 22  1  0  0  0
 22 23  1  0  0  0
 23 24  1  0  0  0
 24 25  1  0  0  0
 25 26  1  0  0  0
 25 27  1  0  0  0
 27 28  1  0  0  0
 13 14  1  0  0  0
 14 15  1  0  0  0
 15 16  1  0  0  0
 16 17  1  0  0  0
 17 18  1  0  0  0
 15  8  1  0  0  0
 14 10  2  0  0  0
  6  1  1  0  0  0
 28 22  1  0  0  0
 26 29  1  0  0  0
 28 30  1  0  0  0
M  END
> <minimizedAffinity>
0.91290

> <CNNscore>
0.3737080097

> <CNNaffinity>
7.1607103348

> <CNN_VS>
2.6760149002

> <CNNaffinity_variance>
0.6850937605

$$$$
[H]OC1([H])C([H])([H])N([H])N(S(=O)(=O)c2c([H])c([H])c(-c3c([H])sc4nc(C([H])([H])[H])n(C([H])([H])C([H])([H])F)c34)c([H])c2[H])C([H])([H])C1([H])[H]


 30 33  0  0  0  0  0  0  0  0999 V2000
   12.8980   24.5086   -1.3545 C   0  0  0  0  0  0  0  0  0  0  0  0
   13.1685   23.1693   -1.5146 C   0  0  0  0  0  0  0  0  0  0  0  0
   12.8245   22.2283   -0.5670 C   0  0  0  0  0  0  0  0  0  0  0  0
   12.1855   22.6021    0.5964 C   0  0  0  0  0  0  0  0  0  0  0  0
   11.9093   23.9413    0.7676 C   0  0  0  0  0  0  0  0  0  0  0  0
   12.2591   24.8749   -0.1894 C   0  0  0  0  0  0  0  0  0  0  0  0
   18.0659   26.8077   -3.0154 C   0  0  0  0  0  0  0  0  0  0  0  0
   16.5957   26.6626   -3.1227 C   0  0  0  0  0  0  0  0  0  0  0  0
   15.8325   27.2631   -4.0298 N   0  0  0  0  0  0  0  0  0  0  0  0
   14.5504   26.8539   -3.7805 C   0  0  0  0  0  0  0  0  0  0  0  0
   12.9368   27.0103   -4.2934 S   0  0  0  0  0  0  0  0  0  0  0  0
   12.1906   25.9964   -3.1820 C   0  0  0  0  0  0  0  0  0  0  0  0
   13.2525   25.5288   -2.3929 C   0  0  0  0  0  0  0  0  0  0  0  0
   14.4883   25.9888   -2.7140 C   0  0  0  0  0  0  0  0  0  0  0  0
   15.7993   25.8862   -2.3125 N   0  0  0  0  0  0  0  0  0  0  0  0
   16.3805   25.1391   -1.2249 C   0  0  0  0  0  0  0  0  0  0  0  0
   15.6603   25.5668    0.0610 C   0  0  0  0  0  0  0  0  0  0  0  0
   15.3155   24.5337    0.8718 F   0  0  0  0  0  0  0  0  0  0  0  0
   11.7516   21.3978    1.7970 S   0  0  0  0  0  0  0  0  0  0  0  0
   10.6577   20.4987    1.2936 O   0  0  0  0  0  0  0  0  0  0  0  0
   12.9690   20.5282    1.9971 O   0  0  0  0  0  0  0  0  0  0  0  0
   11.2203   22.1118    3.2546 N   0  0  0  0  0  0  0  0  0  0  0  0
   10.9322   21.1985    4.3046 C   0  0  0  0  0  0  0  0  0  0  0  0
    9.6237   20.4775    4.1699 C   0  0  0  0  0  0  0  0  0  0  0  0
    8.5134   21.3251    3.6468 C   0  0  0  0  0  0  0  0  0  0  0  0
    7.6210   20.4930    2.9563 O   0  0  0  0  0  0  0  0  0  0  0  0
    8.9457   22.4046    2.7154 C   0  0  0  0  0  0  0  0  0  0  0  0
   10.1856   23.0023    3.0941 N   0  0  0  0  0  0  0  0  0  0  0  0
    7.9289   19.5524    2.9504 H   0  0  0  0  0  0  0  0  0  0  0  0
   10.4007   23.8578    2.5718 H   0  0  0  0  0  0  0  0  0  0  0  0
  7  8  1  0  0  0
  8  9  2  0  0  0
  9 10  1  0  0  0
 10 11  1  0  0  0
 11 12  1  0  0  0
 12 13  2  0  0  0
 13  1  1  0  0  0
  1  2  2  0  0  0
  2  3  1  0  0  0
  3  4  2  0  0  0
  4  5  1  0  0  0
  5  6  2  0  0  0
  4 19  1  0  0  0
 19 20  2  0  0  0
 19 21  2  0  0  0
 19 22  1  0  0  0
 22 23  1  0  0  0
 23 24  1  0  0  0
 24 25  1  0  0  0
 25 26  1  0  0  0
 25 27  1  0  0  0
 27 28  1  0  0  0
 13 14  1  0  0  0
 14 15  1  0  0  0
 15 16  1  0  0  0
 16 17  1  0  0  0
 17 18  1  0  0  0
 15  8  1  0  0  0
 14 10  2  0  0  0
  6  1  1  0  0  0
 28 22  1  0  0  0
 26 29  1  0  0  0
 28 30  1  0  0  0
M  END
> <minimizedAffinity>
-4.18709

> <CNNscore>
0.3495307863

> <CNNaffinity>
7.0383858681

> <CNN_VS>
2.4601325989

> <CNNaffinity_variance>
0.4374755919

$$$$
[H]OC1([H])C([H])([H])N([H])N(S(=O)(=O)c2c([H])c([H])c(-c3c([H])sc4nc(C([H])([H])[H])n(C([H])([H])C([H])([H])F)c34)c([H])c2[H])C([H])([H])C1([H])[H]


 30 33  0  0  0  0  0  0  0  0999 V2000
   13.3687   23.8528    0.1710 C   0  0  0  0  0  0  0  0  0  0  0  0
   12.9513   22.5483    0.2990 C   0  0  0  0  0  0  0  0  0  0  0  0
   11.6502   22.2171    0.6140 C   0  0  0  0  0  0  0  0  0  0  0  0
   10.7032   23.1989    0.8159 C   0  0  0  0  0  0  0  0  0  0  0  0
   11.1100   24.5095    0.6903 C   0  0  0  0  0  0  0  0  0  0  0  0
   12.4169   24.8289    0.3741 C   0  0  0  0  0  0  0  0  0  0  0  0
   15.7040   26.1880   -4.7122 C   0  0  0  0  0  0  0  0  0  0  0  0
   15.7979   25.6661   -3.3290 C   0  0  0  0  0  0  0  0  0  0  0  0
   16.9050   25.6424   -2.5945 N   0  0  0  0  0  0  0  0  0  0  0  0
   16.5525   25.0934   -1.3913 C   0  0  0  0  0  0  0  0  0  0  0  0
   17.1483   24.6342    0.1337 S   0  0  0  0  0  0  0  0  0  0  0  0
   15.7352   24.0388    0.8182 C   0  0  0  0  0  0  0  0  0  0  0  0
   14.7770   24.2131   -0.1920 C   0  0  0  0  0  0  0  0  0  0  0  0
   15.2183   24.7651   -1.3506 C   0  0  0  0  0  0  0  0  0  0  0  0
   14.7627   25.1358   -2.5937 N   0  0  0  0  0  0  0  0  0  0  0  0
   13.4456   25.0253   -3.1699 C   0  0  0  0  0  0  0  0  0  0  0  0
   12.7468   26.3781   -2.9779 C   0  0  0  0  0  0  0  0  0  0  0  0
   12.6215   27.1030   -4.1192 F   0  0  0  0  0  0  0  0  0  0  0  0
    9.0498   22.7683    1.2168 S   0  0  0  0  0  0  0  0  0  0  0  0
    8.0939   23.2391    0.1570 O   0  0  0  0  0  0  0  0  0  0  0  0
    8.9840   21.2603    1.2199 O   0  0  0  0  0  0  0  0  0  0  0  0
    8.5586   23.4400    2.7080 N   0  0  0  0  0  0  0  0  0  0  0  0
    9.5181   23.3572    3.7531 C   0  0  0  0  0  0  0  0  0  0  0  0
    9.6383   22.0049    4.3912 C   0  0  0  0  0  0  0  0  0  0  0  0
    8.3364   21.2992    4.5703 C   0  0  0  0  0  0  0  0  0  0  0  0
    8.5801   19.9196    4.5167 O   0  0  0  0  0  0  0  0  0  0  0  0
    7.3108   21.6227    3.5392 C   0  0  0  0  0  0  0  0  0  0  0  0
    7.3334   22.9941    3.1434 N   0  0  0  0  0  0  0  0  0  0  0  0
    9.5366   19.7237    4.3542 H   0  0  0  0  0  0  0  0  0  0  0  0
    6.5240   23.2670    2.5765 H   0  0  0  0  0  0  0  0  0  0  0  0
  7  8  1  0  0  0
  8  9  2  0  0  0
  9 10  1  0  0  0
 10 11  1  0  0  0
 11 12  1  0  0  0
 12 13  2  0  0  0
 13  1  1  0  0  0
  1  2  2  0  0  0
  2  3  1  0  0  0
  3  4  2  0  0  0
  4  5  1  0  0  0
  5  6  2  0  0  0
  4 19  1  0  0  0
 19 20  2  0  0  0
 19 21  2  0  0  0
 19 22  1  0  0  0
 22 23  1  0  0  0
 23 24  1  0  0  0
 24 25  1  0  0  0
 25 26  1  0  0  0
 25 27  1  0  0  0
 27 28  1  0  0  0
 13 14  1  0  0  0
 14 15  1  0  0  0
 15 16  1  0  0  0
 16 17  1  0  0  0
 17 18  1  0  0  0
 15  8  1  0  0  0
 14 10  2  0  0  0
  6  1  1  0  0  0
 28 22  1  0  0  0
 26 29  1  0  0  0
 28 30  1  0  0  0
M  END
> <minimizedAffinity>
-6.84263

> <CNNscore>
0.3471459746

> <CNNaffinity>
6.9367051125

> <CNN_VS>
2.4080493450

> <CNNaffinity_variance>
0.1181687340

$$$$
[H]OC(=O)C([H])([H])[H].[H]OC(=O)c1c([H])c([H])c([H])c(C([H])([H])N([H])C(=O)[C@]2([H])C(=O)[C@@]([H])(C(=O)N(C([H])([H])[H])C([H])([H])[H])O[C@]3([H])c4c([H])c([H])c(C(=O)N([H])[H])c([H])c4C([H])([H])C([H])([H])[C@]23[H])c1[H]


 40 43  0  0  0  0  0  0  0  0999 V2000
   14.9174   23.1357   -0.7252 C   0  0  0  0  0  0  0  0  0  0  0  0
   14.2204   22.5277   -1.7233 O   0  0  0  0  0  0  0  0  0  0  0  0
   13.3260   23.3872   -2.3843 C   0  0  0  0  0  0  0  0  0  0  0  0
   12.1399   23.7118   -1.5411 C   0  0  0  0  0  0  0  0  0  0  0  0
   11.5079   24.9876   -1.9913 C   0  0  0  0  0  0  0  0  0  0  0  0
   12.4417   26.1478   -2.0653 C   0  0  0  0  0  0  0  0  0  0  0  0
   13.6138   25.8011   -2.8663 C   0  0  0  0  0  0  0  0  0  0  0  0
   14.2852   26.8653   -3.4708 C   0  0  0  0  0  0  0  0  0  0  0  0
   15.3943   26.6223   -4.2392 C   0  0  0  0  0  0  0  0  0  0  0  0
   15.8134   25.3145   -4.3902 C   0  0  0  0  0  0  0  0  0  0  0  0
   15.1286   24.2760   -3.7793 C   0  0  0  0  0  0  0  0  0  0  0  0
   14.0142   24.5131   -3.0060 C   0  0  0  0  0  0  0  0  0  0  0  0
   12.5300   23.6746   -0.0974 C   0  0  0  0  0  0  0  0  0  0  0  0
   13.9578   24.0330    0.0001 C   0  0  0  0  0  0  0  0  0  0  0  0
   14.4010   24.9703    0.6038 O   0  0  0  0  0  0  0  0  0  0  0  0
   14.0962   20.2000   -0.5107 C   0  0  0  0  0  0  0  0  0  0  0  0
   15.0221   20.8230    0.3822 N   0  0  0  0  0  0  0  0  0  0  0  0
   15.5869   19.9916    1.4420 C   0  0  0  0  0  0  0  0  0  0  0  0
   15.3959   22.1653    0.2817 C   0  0  0  0  0  0  0  0  0  0  0  0
   16.2514   22.6057    1.1632 O   0  0  0  0  0  0  0  0  0  0  0  0
   16.1251   27.6999   -4.8883 C   0  0  0  0  0  0  0  0  0  0  0  0
   17.2801   28.2163   -4.2598 N   0  0  0  0  0  0  0  0  0  0  0  0
   15.7756   28.1938   -5.9852 O   0  0  0  0  0  0  0  0  0  0  0  0
   18.1563   28.4080   -4.7926 H   0  0  0  0  0  0  0  0  0  0  0  0
   17.2730   28.4131   -3.2542 H   0  0  0  0  0  0  0  0  0  0  0  0
   11.6447   24.3804    0.8149 C   0  0  0  0  0  0  0  0  0  0  0  0
   11.8203   25.5954    1.0343 O   0  0  0  0  0  0  0  0  0  0  0  0
   10.5669   23.7572    1.4874 N   0  0  0  0  0  0  0  0  0  0  0  0
   10.4170   22.7167    1.2966 H   0  0  0  0  0  0  0  0  0  0  0  0
    9.7293   24.4954    2.3705 C   0  0  0  0  0  0  0  0  0  0  0  0
    9.1569   23.7623    3.4894 C   0  0  0  0  0  0  0  0  0  0  0  0
    8.1803   24.2321    4.3158 C   0  0  0  0  0  0  0  0  0  0  0  0
    7.7061   23.4431    5.3652 C   0  0  0  0  0  0  0  0  0  0  0  0
    8.1899   22.1791    5.6125 C   0  0  0  0  0  0  0  0  0  0  0  0
    9.1769   21.7001    4.7795 C   0  0  0  0  0  0  0  0  0  0  0  0
    9.6430   22.4807    3.7451 C   0  0  0  0  0  0  0  0  0  0  0  0
    9.6893   20.3574    5.0413 C   0  0  0  0  0  0  0  0  0  0  0  0
   11.0009   20.1354    5.4278 O   0  0  0  0  0  0  0  0  0  0  0  0
    8.8903   19.3975    4.9024 O   0  0  0  0  0  0  0  0  0  0  0  0
   11.2090   20.2880    6.4261 H   0  0  0  0  0  0  0  0  0  0  0  0
 16 17  1  0  0  0
 17 18  1  0  0  0
 17 19  1  0  0  0
 19 20  2  0  0  0
 19  1  1  0  0  0
  1  2  1  0  0  0
  2  3  1  0  0  0
  3  4  1  0  0  0
  4  5  1  0  0  0
  5  6  1  0  0  0
  6  7  1  0  0  0
  7  8  2  0  0  0
  8  9  1  0  0  0
  9 10  2  0  0  0
 10 11  1  0  0  0
 11 12  2  0  0  0
  9 21  1  0  0  0
 21 22  1  0  0  0
 21 23  2  0  0  0
  4 13  1  0  0  0
 13 26  1  0  0  0
 26 27  2  0  0  0
 26 28  1  0  0  0
 28 30  1  0  0  0
 30 31  1  0  0  0
 31 32  2  0  0  0
 32 33  1  0  0  0
 33 34  2  0  0  0
 34 35  1  0  0  0
 35 36  2  0  0  0
 35 37  1  0  0  0
 37 38  1  0  0  0
 37 39  2  0  0  0
 13 14  1  0  0  0
 14 15  2  0  0  0
 14  1  1  0  0  0
 12  3  1  0  0  0
 36 31  1  0  0  0
 12  7  1  0  0  0
 22 24  1  0  0  0
 22 25  1  0  0  0
 28 29  1  0  0  0
 38 40  1  0  0  0
M  END
> <minimizedAffinity>
-7.15130

> <CNNscore>
0.5964964628

> <CNNaffinity>
7.4612836838

> <CNN_VS>
4.4506292343

> <CNNaffinity_variance>
0.5079550147

$$$$
[H]OC(=O)C([H])([H])[H].[H]OC(=O)c1c([H])c([H])c([H])c(C([H])([H])N([H])C(=O)[C@]2([H])C(=O)[C@@]([H])(C(=O)N(C([H])([H])[H])C([H])([H])[H])O[C@]3([H])c4c([H])c([H])c(C(=O)N([H])[H])c([H])c4C([H])([H])C([H])([H])[C@]23[H])c1[H]


 40 43  0  0  0  0  0  0  0  0999 V2000
   14.9033   23.1380   -0.7178 C   0  0  0  0  0  0  0  0  0  0  0  0
   14.2205   22.5214   -1.7204 O   0  0  0  0  0  0  0  0  0  0  0  0
   13.3188   23.3692   -2.3864 C   0  0  0  0  0  0  0  0  0  0  0  0
   12.1234   23.6776   -1.5501 C   0  0  0  0  0  0  0  0  0  0  0  0
   11.4772   24.9451   -2.0035 C   0  0  0  0  0  0  0  0  0  0  0  0
   12.3959   26.1177   -2.0713 C   0  0  0  0  0  0  0  0  0  0  0  0
   13.5772   25.7871   -2.8655 C   0  0  0  0  0  0  0  0  0  0  0  0
   14.2381   26.8604   -3.4654 C   0  0  0  0  0  0  0  0  0  0  0  0
   15.3550   26.6327   -4.2272 C   0  0  0  0  0  0  0  0  0  0  0  0
   15.7922   25.3306   -4.3763 C   0  0  0  0  0  0  0  0  0  0  0  0
   15.1177   24.2828   -3.7700 C   0  0  0  0  0  0  0  0  0  0  0  0
   13.9956   24.5046   -3.0034 C   0  0  0  0  0  0  0  0  0  0  0  0
   12.5052   23.6448   -0.1042 C   0  0  0  0  0  0  0  0  0  0  0  0
   13.9275   24.0220    0.0021 C   0  0  0  0  0  0  0  0  0  0  0  0
   14.3545   24.9648    0.6089 O   0  0  0  0  0  0  0  0  0  0  0  0
   14.0841   20.2034   -0.4811 C   0  0  0  0  0  0  0  0  0  0  0  0
   15.0158   20.8317    0.4021 N   0  0  0  0  0  0  0  0  0  0  0  0
   15.5876   20.0065    1.4630 C   0  0  0  0  0  0  0  0  0  0  0  0
   15.3886   22.1735    0.2914 C   0  0  0  0  0  0  0  0  0  0  0  0
   16.2499   22.6191    1.1648 O   0  0  0  0  0  0  0  0  0  0  0  0
   16.0752   27.7202   -4.8714 C   0  0  0  0  0  0  0  0  0  0  0  0
   17.2099   28.2626   -4.2279 N   0  0  0  0  0  0  0  0  0  0  0  0
   15.7339   28.2007   -5.9768 O   0  0  0  0  0  0  0  0  0  0  0  0
   18.0907   28.4680   -4.7478 H   0  0  0  0  0  0  0  0  0  0  0  0
   17.1828   28.4652   -3.2237 H   0  0  0  0  0  0  0  0  0  0  0  0
   11.6052   24.3382    0.8031 C   0  0  0  0  0  0  0  0  0  0  0  0
   11.7851   25.5468    1.0524 O   0  0  0  0  0  0  0  0  0  0  0  0
   10.5078   23.7096    1.4380 N   0  0  0  0  0  0  0  0  0  0  0  0
   10.3542   22.6747    1.2216 H   0  0  0  0  0  0  0  0  0  0  0  0
    9.6563   24.4358    2.3178 C   0  0  0  0  0  0  0  0  0  0  0  0
    8.6741   23.6602    3.0601 C   0  0  0  0  0  0  0  0  0  0  0  0
    8.4317   23.7770    4.3961 C   0  0  0  0  0  0  0  0  0  0  0  0
    7.4662   22.9766    5.0092 C   0  0  0  0  0  0  0  0  0  0  0  0
    6.7268   22.0500    4.3108 C   0  0  0  0  0  0  0  0  0  0  0  0
    6.9684   21.9288    2.9601 C   0  0  0  0  0  0  0  0  0  0  0  0
    7.9215   22.7196    2.3579 C   0  0  0  0  0  0  0  0  0  0  0  0
    6.1820   20.9460    2.2185 C   0  0  0  0  0  0  0  0  0  0  0  0
    6.2513   19.5908    2.4967 O   0  0  0  0  0  0  0  0  0  0  0  0
    5.4308   21.3765    1.3078 O   0  0  0  0  0  0  0  0  0  0  0  0
    5.6922   19.2660    3.3000 H   0  0  0  0  0  0  0  0  0  0  0  0
 16 17  1  0  0  0
 17 18  1  0  0  0
 17 19  1  0  0  0
 19 20  2  0  0  0
 19  1  1  0  0  0
  1  2  1  0  0  0
  2  3  1  0  0  0
  3  4  1  0  0  0
  4  5  1  0  0  0
  5  6  1  0  0  0
  6  7  1  0  0  0
  7  8  2  0  0  0
  8  9  1  0  0  0
  9 10  2  0  0  0
 10 11  1  0  0  0
 11 12  2  0  0  0
  9 21  1  0  0  0
 21 22  1  0  0  0
 21 23  2  0  0  0
  4 13  1  0  0  0
 13 26  1  0  0  0
 26 27  2  0  0  0
 26 28  1  0  0  0
 28 30  1  0  0  0
 30 31  1  0  0  0
 31 32  2  0  0  0
 32 33  1  0  0  0
 33 34  2  0  0  0
 34 35  1  0  0  0
 35 36  2  0  0  0
 35 37  1  0  0  0
 37 38  1  0  0  0
 37 39  2  0  0  0
 13 14  1  0  0  0
 14 15  2  0  0  0
 14  1  1  0  0  0
 12  3  1  0  0  0
 36 31  1  0  0  0
 12  7  1  0  0  0
 22 24  1  0  0  0
 22 25  1  0  0  0
 28 29  1  0  0  0
 38 40  1  0  0  0
M  END
> <minimizedAffinity>
-6.93820

> <CNNscore>
0.5643281341

> <CNNaffinity>
7.5733909607

> <CNN_VS>
4.2738776207

> <CNNaffinity_variance>
0.7625533342

$$$$
[H]OC(=O)C([H])([H])[H].[H]OC(=O)c1c([H])c([H])c([H])c(C([H])([H])N([H])C(=O)[C@]2([H])C(=O)[C@@]([H])(C(=O)N(C([H])([H])[H])C([H])([H])[H])O[C@]3([H])c4c([H])c([H])c(C(=O)N([H])[H])c([H])c4C([H])([H])C([H])([H])[C@]23[H])c1[H]


 40 43  0  0  0  0  0  0  0  0999 V2000
   14.9194   25.9026   -0.0478 C   0  0  0  0  0  0  0  0  0  0  0  0
   16.1337   25.2892   -0.0793 O   0  0  0  0  0  0  0  0  0  0  0  0
   16.2268   24.2836   -1.0568 C   0  0  0  0  0  0  0  0  0  0  0  0
   15.4479   23.0687   -0.6818 C   0  0  0  0  0  0  0  0  0  0  0  0
   15.1061   22.2680   -1.8950 C   0  0  0  0  0  0  0  0  0  0  0  0
   14.4103   23.0361   -2.9671 C   0  0  0  0  0  0  0  0  0  0  0  0
   15.1693   24.2402   -3.2979 C   0  0  0  0  0  0  0  0  0  0  0  0
   14.9768   24.7588   -4.5796 C   0  0  0  0  0  0  0  0  0  0  0  0
   15.6533   25.8867   -4.9666 C   0  0  0  0  0  0  0  0  0  0  0  0
   16.5137   26.4778   -4.0615 C   0  0  0  0  0  0  0  0  0  0  0  0
   16.6869   25.9427   -2.7950 C   0  0  0  0  0  0  0  0  0  0  0  0
   16.0104   24.8103   -2.3998 C   0  0  0  0  0  0  0  0  0  0  0  0
   14.2792   23.4673    0.1624 C   0  0  0  0  0  0  0  0  0  0  0  0
   13.8805   24.8341   -0.2243 C   0  0  0  0  0  0  0  0  0  0  0  0
   12.8087   25.1496   -0.6613 O   0  0  0  0  0  0  0  0  0  0  0  0
   12.2323   26.9933    0.9155 C   0  0  0  0  0  0  0  0  0  0  0  0
   13.4182   27.0123    1.7129 N   0  0  0  0  0  0  0  0  0  0  0  0
   13.3117   27.5898    3.0504 C   0  0  0  0  0  0  0  0  0  0  0  0
   14.6453   26.5128    1.2701 C   0  0  0  0  0  0  0  0  0  0  0  0
   15.6480   26.5927    2.1014 O   0  0  0  0  0  0  0  0  0  0  0  0
   15.4842   26.4620   -6.2921 C   0  0  0  0  0  0  0  0  0  0  0  0
   15.0015   25.6411   -7.3356 N   0  0  0  0  0  0  0  0  0  0  0  0
   15.7480   27.6586   -6.5524 O   0  0  0  0  0  0  0  0  0  0  0  0
   14.2665   25.9705   -7.9987 H   0  0  0  0  0  0  0  0  0  0  0  0
   15.3733   24.6940   -7.4576 H   0  0  0  0  0  0  0  0  0  0  0  0
   13.1971   22.4994    0.2414 C   0  0  0  0  0  0  0  0  0  0  0  0
   12.3157   22.4806   -0.6406 O   0  0  0  0  0  0  0  0  0  0  0  0
   13.0789   21.5515    1.2854 N   0  0  0  0  0  0  0  0  0  0  0  0
   13.8360   21.5681    2.0390 H   0  0  0  0  0  0  0  0  0  0  0  0
   11.9988   20.6247    1.3146 C   0  0  0  0  0  0  0  0  0  0  0  0
   11.2772   20.5058    2.5725 C   0  0  0  0  0  0  0  0  0  0  0  0
   11.6320   19.6894    3.6044 C   0  0  0  0  0  0  0  0  0  0  0  0
   10.8621   19.6503    4.7682 C   0  0  0  0  0  0  0  0  0  0  0  0
    9.7313   20.4175    4.9286 C   0  0  0  0  0  0  0  0  0  0  0  0
    9.3692   21.2444    3.8881 C   0  0  0  0  0  0  0  0  0  0  0  0
   10.1305   21.2808    2.7411 C   0  0  0  0  0  0  0  0  0  0  0  0
    8.1694   22.0601    4.0594 C   0  0  0  0  0  0  0  0  0  0  0  0
    7.7559   22.5036    5.3049 O   0  0  0  0  0  0  0  0  0  0  0  0
    7.5161   22.3499    3.0258 O   0  0  0  0  0  0  0  0  0  0  0  0
    8.2394   23.3380    5.6699 H   0  0  0  0  0  0  0  0  0  0  0  0
 16 17  1  0  0  0
 17 18  1  0  0  0
 17 19  1  0  0  0
 19 20  2  0  0  0
 19  1  1  0  0  0
  1  2  1  0  0  0
  2  3  1  0  0  0
  3  4  1  0  0  0
  4  5  1  0  0  0
  5  6  1  0  0  0
  6  7  1  0  0  0
  7  8  2  0  0  0
  8  9  1  0  0  0
  9 10  2  0  0  0
 10 11  1  0  0  0
 11 12  2  0  0  0
  9 21  1  0  0  0
 21 22  1  0  0  0
 21 23  2  0  0  0
  4 13  1  0  0  0
 13 26  1  0  0  0
 26 27  2  0  0  0
 26 28  1  0  0  0
 28 30  1  0  0  0
 30 31  1  0  0  0
 31 32  2  0  0  0
 32 33  1  0  0  0
 33 34  2  0  0  0
 34 35  1  0  0  0
 35 36  2  0  0  0
 35 37  1  0  0  0
 37 38  1  0  0  0
 37 39  2  0  0  0
 13 14  1  0  0  0
 14 15  2  0  0  0
 14  1  1  0  0  0
 12  3  1  0  0  0
 36 31  1  0  0  0
 12  7  1  0  0  0
 22 24  1  0  0  0
 22 25  1  0  0  0
 28 29  1  0  0  0
 38 40  1  0  0  0
M  END
> <minimizedAffinity>
4.24164

> <CNNscore>
0.5626901388

> <CNNaffinity>
7.0271401405

> <CNN_VS>
3.9541025162

> <CNNaffinity_variance>
0.6478832364

$$$$
[H]OC(=O)C([H])([H])[H].[H]OC(=O)c1c([H])c([H])c([H])c(C([H])([H])N([H])C(=O)[C@]2([H])C(=O)[C@@]([H])(C(=O)N(C([H])([H])[H])C([H])([H])[H])O[C@]3([H])c4c([H])c([H])c(C(=O)N([H])[H])c([H])c4C([H])([H])C([H])([H])[C@]23[H])c1[H]


 40 43  0  0  0  0  0  0  0  0999 V2000
   16.2643   24.6593   -0.8551 C   0  0  0  0  0  0  0  0  0  0  0  0
   16.8683   23.9743   -1.8639 O   0  0  0  0  0  0  0  0  0  0  0  0
   16.1408   23.9930   -3.0663 C   0  0  0  0  0  0  0  0  0  0  0  0
   14.9272   23.1296   -2.9962 C   0  0  0  0  0  0  0  0  0  0  0  0
   13.9163   23.5602   -4.0073 C   0  0  0  0  0  0  0  0  0  0  0  0
   13.5473   25.0033   -3.9369 C   0  0  0  0  0  0  0  0  0  0  0  0
   14.7496   25.8332   -3.9722 C   0  0  0  0  0  0  0  0  0  0  0  0
   14.5870   27.1358   -4.4470 C   0  0  0  0  0  0  0  0  0  0  0  0
   15.6677   27.9770   -4.5116 C   0  0  0  0  0  0  0  0  0  0  0  0
   16.8963   27.4984   -4.0989 C   0  0  0  0  0  0  0  0  0  0  0  0
   17.0307   26.2007   -3.6317 C   0  0  0  0  0  0  0  0  0  0  0  0
   15.9494   25.3507   -3.5640 C   0  0  0  0  0  0  0  0  0  0  0  0
   14.4304   23.0823   -1.5860 C   0  0  0  0  0  0  0  0  0  0  0  0
   14.7975   24.3512   -0.9289 C   0  0  0  0  0  0  0  0  0  0  0  0
   14.0261   25.1404   -0.4583 O   0  0  0  0  0  0  0  0  0  0  0  0
   15.7207   21.9061    0.3545 C   0  0  0  0  0  0  0  0  0  0  0  0
   16.4587   22.9276    1.0287 N   0  0  0  0  0  0  0  0  0  0  0  0
   16.9649   22.6129    2.3622 C   0  0  0  0  0  0  0  0  0  0  0  0
   16.7060   24.1853    0.4733 C   0  0  0  0  0  0  0  0  0  0  0  0
   17.3942   25.0240    1.1984 O   0  0  0  0  0  0  0  0  0  0  0  0
   15.5453   29.3420   -4.9997 C   0  0  0  0  0  0  0  0  0  0  0  0
   16.0945   29.6678   -6.2599 N   0  0  0  0  0  0  0  0  0  0  0  0
   14.9718   30.2471   -4.3507 O   0  0  0  0  0  0  0  0  0  0  0  0
   15.5729   30.2467   -6.9535 H   0  0  0  0  0  0  0  0  0  0  0  0
   17.0293   29.3339   -6.5143 H   0  0  0  0  0  0  0  0  0  0  0  0
   13.0469   22.6682   -1.4168 C   0  0  0  0  0  0  0  0  0  0  0  0
   12.7274   21.4781   -1.6090 O   0  0  0  0  0  0  0  0  0  0  0  0
   12.0125   23.5559   -1.0369 N   0  0  0  0  0  0  0  0  0  0  0  0
   12.2886   24.5745   -0.8708 H   0  0  0  0  0  0  0  0  0  0  0  0
   10.6733   23.0978   -0.8844 C   0  0  0  0  0  0  0  0  0  0  0  0
   10.2467   22.7731    0.4683 C   0  0  0  0  0  0  0  0  0  0  0  0
   10.0465   21.5120    0.9446 C   0  0  0  0  0  0  0  0  0  0  0  0
    9.6309   21.3148    2.2625 C   0  0  0  0  0  0  0  0  0  0  0  0
    9.4078   22.3606    3.1282 C   0  0  0  0  0  0  0  0  0  0  0  0
    9.6093   23.6371    2.6511 C   0  0  0  0  0  0  0  0  0  0  0  0
   10.0191   23.8287    1.3504 C   0  0  0  0  0  0  0  0  0  0  0  0
    9.3739   24.7473    3.5709 C   0  0  0  0  0  0  0  0  0  0  0  0
    9.0603   24.5409    4.9043 O   0  0  0  0  0  0  0  0  0  0  0  0
    9.4664   25.9112    3.1063 O   0  0  0  0  0  0  0  0  0  0  0  0
    9.8557   24.3391    5.5287 H   0  0  0  0  0  0  0  0  0  0  0  0
 16 17  1  0  0  0
 17 18  1  0  0  0
 17 19  1  0  0  0
 19 20  2  0  0  0
 19  1  1  0  0  0
  1  2  1  0  0  0
  2  3  1  0  0  0
  3  4  1  0  0  0
  4  5  1  0  0  0
  5  6  1  0  0  0
  6  7  1  0  0  0
  7  8  2  0  0  0
  8  9  1  0  0  0
  9 10  2  0  0  0
 10 11  1  0  0  0
 11 12  2  0  0  0
  9 21  1  0  0  0
 21 22  1  0  0  0
 21 23  2  0  0  0
  4 13  1  0  0  0
 13 26  1  0  0  0
 26 27  2  0  0  0
 26 28  1  0  0  0
 28 30  1  0  0  0
 30 31  1  0  0  0
 31 32  2  0  0  0
 32 33  1  0  0  0
 33 34  2  0  0  0
 34 35  1  0  0  0
 35 36  2  0  0  0
 35 37  1  0  0  0
 37 38  1  0  0  0
 37 39  2  0  0  0
 13 14  1  0  0  0
 14 15  2  0  0  0
 14  1  1  0  0  0
 12  3  1  0  0  0
 36 31  1  0  0  0
 12  7  1  0  0  0
 22 24  1  0  0  0
 22 25  1  0  0  0
 28 29  1  0  0  0
 38 40  1  0  0  0
M  END
> <minimizedAffinity>
5.45931

> <CNNscore>
0.5227285028

> <CNNaffinity>
7.2894363403

> <CNN_VS>
3.8103961945

> <CNNaffinity_variance>
1.1407324076

$$$$
[H]OC(=O)C([H])([H])[H].[H]OC(=O)c1c([H])c([H])c([H])c(C([H])([H])N([H])C(=O)[C@]2([H])C(=O)[C@@]([H])(C(=O)N(C([H])([H])[H])C([H])([H])[H])O[C@]3([H])c4c([H])c([H])c(C(=O)N([H])[H])c([H])c4C([H])([H])C([H])([H])[C@]23[H])c1[H]


 40 43  0  0  0  0  0  0  0  0999 V2000
   15.3646   23.3719   -0.3867 C   0  0  0  0  0  0  0  0  0  0  0  0
   14.9516   22.5145   -1.3593 O   0  0  0  0  0  0  0  0  0  0  0  0
   13.8271   22.9722   -2.0673 C   0  0  0  0  0  0  0  0  0  0  0  0
   12.5831   22.8910   -1.2492 C   0  0  0  0  0  0  0  0  0  0  0  0
   11.5517   23.8396   -1.7649 C   0  0  0  0  0  0  0  0  0  0  0  0
   12.0162   25.2512   -1.8881 C   0  0  0  0  0  0  0  0  0  0  0  0
   13.2538   25.3086   -2.6631 C   0  0  0  0  0  0  0  0  0  0  0  0
   13.5197   26.5149   -3.3134 C   0  0  0  0  0  0  0  0  0  0  0  0
   14.6609   26.6483   -4.0614 C   0  0  0  0  0  0  0  0  0  0  0  0
   15.5189   25.5687   -4.1461 C   0  0  0  0  0  0  0  0  0  0  0  0
   15.2313   24.3820   -3.4907 C   0  0  0  0  0  0  0  0  0  0  0  0
   14.0871   24.2414   -2.7377 C   0  0  0  0  0  0  0  0  0  0  0  0
   12.9267   23.0560    0.1973 C   0  0  0  0  0  0  0  0  0  0  0  0
   14.1328   23.9009    0.2875 C   0  0  0  0  0  0  0  0  0  0  0  0
   14.2013   24.9592    0.8485 O   0  0  0  0  0  0  0  0  0  0  0  0
   15.0269   20.4594    0.4746 C   0  0  0  0  0  0  0  0  0  0  0  0
   15.9789   21.3469    1.0650 N   0  0  0  0  0  0  0  0  0  0  0  0
   16.8178   20.8085    2.1327 C   0  0  0  0  0  0  0  0  0  0  0  0
   16.1314   22.6779    0.6691 C   0  0  0  0  0  0  0  0  0  0  0  0
   17.0398   23.3771    1.2927 O   0  0  0  0  0  0  0  0  0  0  0  0
   14.9785   27.8862   -4.7564 C   0  0  0  0  0  0  0  0  0  0  0  0
   16.3101   28.1145   -5.1694 N   0  0  0  0  0  0  0  0  0  0  0  0
   14.1209   28.7641   -5.0074 O   0  0  0  0  0  0  0  0  0  0  0  0
   16.5351   28.4881   -6.1171 H   0  0  0  0  0  0  0  0  0  0  0  0
   17.0870   27.9126   -4.5325 H   0  0  0  0  0  0  0  0  0  0  0  0
   11.8277   23.4404    1.0682 C   0  0  0  0  0  0  0  0  0  0  0  0
   11.4780   22.6847    1.9966 O   0  0  0  0  0  0  0  0  0  0  0  0
   11.1109   24.6519    0.9239 N   0  0  0  0  0  0  0  0  0  0  0  0
   11.4132   25.2987    0.1291 H   0  0  0  0  0  0  0  0  0  0  0  0
   10.0424   24.9804    1.8053 C   0  0  0  0  0  0  0  0  0  0  0  0
    8.9602   24.0129    1.9049 C   0  0  0  0  0  0  0  0  0  0  0  0
    8.4500   23.2990    0.8621 C   0  0  0  0  0  0  0  0  0  0  0  0
    7.4045   22.3977    1.0705 C   0  0  0  0  0  0  0  0  0  0  0  0
    6.8491   22.1890    2.3118 C   0  0  0  0  0  0  0  0  0  0  0  0
    7.3620   22.9083    3.3688 C   0  0  0  0  0  0  0  0  0  0  0  0
    8.3932   23.7969    3.1603 C   0  0  0  0  0  0  0  0  0  0  0  0
    6.7732   22.6854    4.6869 C   0  0  0  0  0  0  0  0  0  0  0  0
    7.3129   21.7820    5.5878 O   0  0  0  0  0  0  0  0  0  0  0  0
    5.7472   23.3489    4.9804 O   0  0  0  0  0  0  0  0  0  0  0  0
    8.1238   22.1158    6.1302 H   0  0  0  0  0  0  0  0  0  0  0  0
 16 17  1  0  0  0
 17 18  1  0  0  0
 17 19  1  0  0  0
 19 20  2  0  0  0
 19  1  1  0  0  0
  1  2  1  0  0  0
  2  3  1  0  0  0
  3  4  1  0  0  0
  4  5  1  0  0  0
  5  6  1  0  0  0
  6  7  1  0  0  0
  7  8  2  0  0  0
  8  9  1  0  0  0
  9 10  2  0  0  0
 10 11  1  0  0  0
 11 12  2  0  0  0
  9 21  1  0  0  0
 21 22  1  0  0  0
 21 23  2  0  0  0
  4 13  1  0  0  0
 13 26  1  0  0  0
 26 27  2  0  0  0
 26 28  1  0  0  0
 28 30  1  0  0  0
 30 31  1  0  0  0
 31 32  2  0  0  0
 32 33  1  0  0  0
 33 34  2  0  0  0
 34 35  1  0  0  0
 35 36  2  0  0  0
 35 37  1  0  0  0
 37 38  1  0  0  0
 37 39  2  0  0  0
 13 14  1  0  0  0
 14 15  2  0  0  0
 14  1  1  0  0  0
 12  3  1  0  0  0
 36 31  1  0  0  0
 12  7  1  0  0  0
 22 24  1  0  0  0
 22 25  1  0  0  0
 28 29  1  0  0  0
 38 40  1  0  0  0
M  END
> <minimizedAffinity>
-3.25919

> <CNNscore>
0.4622430503

> <CNNaffinity>
7.4007363319

> <CNN_VS>
3.4209389687

> <CNNaffinity_variance>
0.8387185335

$$$$
[H]OC(=O)C([H])([H])[H].[H]OC(=O)c1c([H])c([H])c([H])c(C([H])([H])N([H])C(=O)[C@]2([H])C(=O)[C@@]([H])(C(=O)N(C([H])([H])[H])C([H])([H])[H])O[C@]3([H])c4c([H])c([H])c(C(=O)N([H])[H])c([H])c4C([H])([H])C([H])([H])[C@]23[H])c1[H]


 40 43  0  0  0  0  0  0  0  0999 V2000
   13.7550   24.5221    0.9007 C   0  0  0  0  0  0  0  0  0  0  0  0
   12.9166   25.5909    0.9812 O   0  0  0  0  0  0  0  0  0  0  0  0
   11.7506   25.4460    0.2099 C   0  0  0  0  0  0  0  0  0  0  0  0
   12.0286   25.5753   -1.2493 C   0  0  0  0  0  0  0  0  0  0  0  0
   10.9609   24.9049   -2.0495 C   0  0  0  0  0  0  0  0  0  0  0  0
   10.7121   23.4820   -1.6794 C   0  0  0  0  0  0  0  0  0  0  0  0
   10.4756   23.3692   -0.2417 C   0  0  0  0  0  0  0  0  0  0  0  0
    9.7241   22.2695    0.1760 C   0  0  0  0  0  0  0  0  0  0  0  0
    9.4583   22.0931    1.5094 C   0  0  0  0  0  0  0  0  0  0  0  0
    9.9504   23.0234    2.4044 C   0  0  0  0  0  0  0  0  0  0  0  0
   10.6939   24.1066    1.9635 C   0  0  0  0  0  0  0  0  0  0  0  0
   10.9647   24.2896    0.6258 C   0  0  0  0  0  0  0  0  0  0  0  0
   13.4204   25.1071   -1.5345 C   0  0  0  0  0  0  0  0  0  0  0  0
   13.7723   24.0817   -0.5338 C   0  0  0  0  0  0  0  0  0  0  0  0
   14.0652   22.9438   -0.7760 O   0  0  0  0  0  0  0  0  0  0  0  0
   14.6883   27.1562    2.1374 C   0  0  0  0  0  0  0  0  0  0  0  0
   15.5789   26.0947    1.7872 N   0  0  0  0  0  0  0  0  0  0  0  0
   17.0012   26.3078    2.0423 C   0  0  0  0  0  0  0  0  0  0  0  0
   15.1495   24.8914    1.2221 C   0  0  0  0  0  0  0  0  0  0  0  0
   16.0698   24.0067    0.9514 O   0  0  0  0  0  0  0  0  0  0  0  0
    8.6792   20.9625    1.9901 C   0  0  0  0  0  0  0  0  0  0  0  0
    7.9749   20.1721    1.0545 N   0  0  0  0  0  0  0  0  0  0  0  0
    8.6036   20.6553    3.2022 O   0  0  0  0  0  0  0  0  0  0  0  0
    7.9839   19.1298    1.0985 H   0  0  0  0  0  0  0  0  0  0  0  0
    7.4362   20.6197    0.3066 H   0  0  0  0  0  0  0  0  0  0  0  0
   13.6970   24.7520   -2.9171 C   0  0  0  0  0  0  0  0  0  0  0  0
   12.9608   25.1818   -3.8274 O   0  0  0  0  0  0  0  0  0  0  0  0
   14.7793   23.9267   -3.3043 N   0  0  0  0  0  0  0  0  0  0  0  0
   15.4098   23.5611   -2.5232 H   0  0  0  0  0  0  0  0  0  0  0  0
   15.0057   23.6102   -4.6736 C   0  0  0  0  0  0  0  0  0  0  0  0
   15.4034   24.7105   -5.5386 C   0  0  0  0  0  0  0  0  0  0  0  0
   15.5442   24.6311   -6.8919 C   0  0  0  0  0  0  0  0  0  0  0  0
   15.9367   25.7516   -7.6259 C   0  0  0  0  0  0  0  0  0  0  0  0
   16.1953   26.9661   -7.0334 C   0  0  0  0  0  0  0  0  0  0  0  0
   16.0540   27.0510   -5.6657 C   0  0  0  0  0  0  0  0  0  0  0  0
   15.6667   25.9439   -4.9440 C   0  0  0  0  0  0  0  0  0  0  0  0
   16.3270   28.3410   -5.0370 C   0  0  0  0  0  0  0  0  0  0  0  0
   15.5170   29.4451   -5.2469 O   0  0  0  0  0  0  0  0  0  0  0  0
   17.3343   28.4172   -4.2896 O   0  0  0  0  0  0  0  0  0  0  0  0
   14.6514   29.4822   -4.6879 H   0  0  0  0  0  0  0  0  0  0  0  0
 16 17  1  0  0  0
 17 18  1  0  0  0
 17 19  1  0  0  0
 19 20  2  0  0  0
 19  1  1  0  0  0
  1  2  1  0  0  0
  2  3  1  0  0  0
  3  4  1  0  0  0
  4  5  1  0  0  0
  5  6  1  0  0  0
  6  7  1  0  0  0
  7  8  2  0  0  0
  8  9  1  0  0  0
  9 10  2  0  0  0
 10 11  1  0  0  0
 11 12  2  0  0  0
  9 21  1  0  0  0
 21 22  1  0  0  0
 21 23  2  0  0  0
  4 13  1  0  0  0
 13 26  1  0  0  0
 26 27  2  0  0  0
 26 28  1  0  0  0
 28 30  1  0  0  0
 30 31  1  0  0  0
 31 32  2  0  0  0
 32 33  1  0  0  0
 33 34  2  0  0  0
 34 35  1  0  0  0
 35 36  2  0  0  0
 35 37  1  0  0  0
 37 38  1  0  0  0
 37 39  2  0  0  0
 13 14  1  0  0  0
 14 15  2  0  0  0
 14  1  1  0  0  0
 12  3  1  0  0  0
 36 31  1  0  0  0
 12  7  1  0  0  0
 22 24  1  0  0  0
 22 25  1  0  0  0
 28 29  1  0  0  0
 38 40  1  0  0  0
M  END
> <minimizedAffinity>
4.38332

> <CNNscore>
0.4173640907

> <CNNaffinity>
6.8949165344

> <CNN_VS>
2.8776905537

> <CNNaffinity_variance>
0.6601125598

$$$$
[H]OC(=O)C([H])([H])[H].[H]OC(=O)c1c([H])c([H])c([H])c(C([H])([H])N([H])C(=O)[C@]2([H])C(=O)[C@@]([H])(C(=O)N(C([H])([H])[H])C([H])([H])[H])O[C@]3([H])c4c([H])c([H])c(C(=O)N([H])[H])c([H])c4C([H])([H])C([H])([H])[C@]23[H])c1[H]


 40 43  0  0  0  0  0  0  0  0999 V2000
   10.9810   20.5979    2.3342 C   0  0  0  0  0  0  0  0  0  0  0  0
   10.5916   21.6191    3.1448 O   0  0  0  0  0  0  0  0  0  0  0  0
   10.1236   22.7429    2.4423 C   0  0  0  0  0  0  0  0  0  0  0  0
   11.2327   23.4856    1.7776 C   0  0  0  0  0  0  0  0  0  0  0  0
   10.7119   24.3014    0.6405 C   0  0  0  0  0  0  0  0  0  0  0  0
    9.9133   23.5329   -0.3571 C   0  0  0  0  0  0  0  0  0  0  0  0
    8.8530   22.7847    0.3148 C   0  0  0  0  0  0  0  0  0  0  0  0
    7.7339   22.4704   -0.4582 C   0  0  0  0  0  0  0  0  0  0  0  0
    6.6956   21.7703    0.0998 C   0  0  0  0  0  0  0  0  0  0  0  0
    6.7953   21.3959    1.4259 C   0  0  0  0  0  0  0  0  0  0  0  0
    7.9175   21.7207    2.1714 C   0  0  0  0  0  0  0  0  0  0  0  0
    8.9640   22.4234    1.6171 C   0  0  0  0  0  0  0  0  0  0  0  0
   12.3279   22.5310    1.4214 C   0  0  0  0  0  0  0  0  0  0  0  0
   11.7212   21.2080    1.1801 C   0  0  0  0  0  0  0  0  0  0  0  0
   11.7737   20.5951    0.1501 O   0  0  0  0  0  0  0  0  0  0  0  0
   10.5084   19.0223    4.9097 C   0  0  0  0  0  0  0  0  0  0  0  0
   11.7365   18.9828    4.1798 N   0  0  0  0  0  0  0  0  0  0  0  0
   12.8026   18.1404    4.7161 C   0  0  0  0  0  0  0  0  0  0  0  0
   11.9498   19.7039    3.0026 C   0  0  0  0  0  0  0  0  0  0  0  0
   13.1191   19.5759    2.4375 O   0  0  0  0  0  0  0  0  0  0  0  0
    5.5099   21.4213   -0.6675 C   0  0  0  0  0  0  0  0  0  0  0  0
    5.0500   20.0857   -0.6430 N   0  0  0  0  0  0  0  0  0  0  0  0
    4.8739   22.2551   -1.3528 O   0  0  0  0  0  0  0  0  0  0  0  0
    4.0389   19.8547   -0.5299 H   0  0  0  0  0  0  0  0  0  0  0  0
    5.7150   19.3119   -0.7374 H   0  0  0  0  0  0  0  0  0  0  0  0
   13.2574   22.9878    0.4008 C   0  0  0  0  0  0  0  0  0  0  0  0
   14.1830   23.7651    0.7077 O   0  0  0  0  0  0  0  0  0  0  0  0
   13.1746   22.5941   -0.9559 N   0  0  0  0  0  0  0  0  0  0  0  0
   12.3821   21.9267   -1.2163 H   0  0  0  0  0  0  0  0  0  0  0  0
   14.1119   23.0708   -1.9154 C   0  0  0  0  0  0  0  0  0  0  0  0
   13.7994   24.3393   -2.5559 C   0  0  0  0  0  0  0  0  0  0  0  0
   12.7656   25.1572   -2.2100 C   0  0  0  0  0  0  0  0  0  0  0  0
   12.5538   26.3535   -2.8975 C   0  0  0  0  0  0  0  0  0  0  0  0
   13.3606   26.7584   -3.9358 C   0  0  0  0  0  0  0  0  0  0  0  0
   14.4070   25.9349   -4.2886 C   0  0  0  0  0  0  0  0  0  0  0  0
   14.6134   24.7552   -3.6088 C   0  0  0  0  0  0  0  0  0  0  0  0
   15.2644   26.3659   -5.3900 C   0  0  0  0  0  0  0  0  0  0  0  0
   15.3606   25.6457   -6.5694 O   0  0  0  0  0  0  0  0  0  0  0  0
   15.9207   27.4255   -5.2299 O   0  0  0  0  0  0  0  0  0  0  0  0
   14.6011   25.7931   -7.2511 H   0  0  0  0  0  0  0  0  0  0  0  0
 16 17  1  0  0  0
 17 18  1  0  0  0
 17 19  1  0  0  0
 19 20  2  0  0  0
 19  1  1  0  0  0
  1  2  1  0  0  0
  2  3  1  0  0  0
  3  4  1  0  0  0
  4  5  1  0  0  0
  5  6  1  0  0  0
  6  7  1  0  0  0
  7  8  2  0  0  0
  8  9  1  0  0  0
  9 10  2  0  0  0
 10 11  1  0  0  0
 11 12  2  0  0  0
  9 21  1  0  0  0
 21 22  1  0  0  0
 21 23  2  0  0  0
  4 13  1  0  0  0
 13 26  1  0  0  0
 26 27  2  0  0  0
 26 28  1  0  0  0
 28 30  1  0  0  0
 30 31  1  0  0  0
 31 32  2  0  0  0
 32 33  1  0  0  0
 33 34  2  0  0  0
 34 35  1  0  0  0
 35 36  2  0  0  0
 35 37  1  0  0  0
 37 38  1  0  0  0
 37 39  2  0  0  0
 13 14  1  0  0  0
 14 15  2  0  0  0
 14  1  1  0  0  0
 12  3  1  0  0  0
 36 31  1  0  0  0
 12  7  1  0  0  0
 22 24  1  0  0  0
 22 25  1  0  0  0
 28 29  1  0  0  0
 38 40  1  0  0  0
M  END
> <minimizedAffinity>
-5.43861

> <CNNscore>
0.4170653522

> <CNNaffinity>
6.6356859207

> <CNN_VS>
2.7675147057

> <CNNaffinity_variance>
0.3965469003

$$$$
[H]OC(=O)C([H])([H])[H].[H]OC(=O)c1c([H])c([H])c([H])c(C([H])([H])N([H])C(=O)[C@]2([H])C(=O)[C@@]([H])(C(=O)N(C([H])([H])[H])C([H])([H])[H])O[C@]3([H])c4c([H])c([H])c(C(=O)N([H])[H])c([H])c4C([H])([H])C([H])([H])[C@]23[H])c1[H]


 40 43  0  0  0  0  0  0  0  0999 V2000
   14.4333   22.4489   -0.1533 C   0  0  0  0  0  0  0  0  0  0  0  0
   14.2639   21.7120   -1.2846 O   0  0  0  0  0  0  0  0  0  0  0  0
   13.1851   22.1427   -2.0760 C   0  0  0  0  0  0  0  0  0  0  0  0
   11.8712   21.7930   -1.4639 C   0  0  0  0  0  0  0  0  0  0  0  0
   10.7939   22.6860   -1.9852 C   0  0  0  0  0  0  0  0  0  0  0  0
   11.0760   24.1433   -1.8432 C   0  0  0  0  0  0  0  0  0  0  0  0
   12.3815   24.4622   -2.4173 C   0  0  0  0  0  0  0  0  0  0  0  0
   12.5617   25.7775   -2.8487 C   0  0  0  0  0  0  0  0  0  0  0  0
   13.7589   26.1557   -3.3995 C   0  0  0  0  0  0  0  0  0  0  0  0
   14.7581   25.2080   -3.5096 C   0  0  0  0  0  0  0  0  0  0  0  0
   14.5534   23.9085   -3.0735 C   0  0  0  0  0  0  0  0  0  0  0  0
   13.3535   23.5222   -2.5192 C   0  0  0  0  0  0  0  0  0  0  0  0
   12.0064   21.7687    0.0257 C   0  0  0  0  0  0  0  0  0  0  0  0
   13.0670   22.7217    0.4044 C   0  0  0  0  0  0  0  0  0  0  0  0
   12.9221   23.6804    1.1109 O   0  0  0  0  0  0  0  0  0  0  0  0
   17.1140   23.1984    1.1079 C   0  0  0  0  0  0  0  0  0  0  0  0
   16.3742   22.0314    1.4728 N   0  0  0  0  0  0  0  0  0  0  0  0
   16.9532   21.1708    2.5012 C   0  0  0  0  0  0  0  0  0  0  0  0
   15.1487   21.6912    0.8948 C   0  0  0  0  0  0  0  0  0  0  0  0
   14.5798   20.5972    1.3219 O   0  0  0  0  0  0  0  0  0  0  0  0
   13.9912   27.5150   -3.8630 C   0  0  0  0  0  0  0  0  0  0  0  0
   15.3030   27.8995   -4.2194 N   0  0  0  0  0  0  0  0  0  0  0  0
   13.0764   28.3652   -3.9615 O   0  0  0  0  0  0  0  0  0  0  0  0
   15.4988   28.4484   -5.0847 H   0  0  0  0  0  0  0  0  0  0  0  0
   16.0942   27.6398   -3.6223 H   0  0  0  0  0  0  0  0  0  0  0  0
   10.7657   21.8842    0.7749 C   0  0  0  0  0  0  0  0  0  0  0  0
    9.8398   22.5953    0.3364 O   0  0  0  0  0  0  0  0  0  0  0  0
   10.5374   21.2217    2.0043 N   0  0  0  0  0  0  0  0  0  0  0  0
   11.3311   20.6115    2.3773 H   0  0  0  0  0  0  0  0  0  0  0  0
    9.3027   21.3686    2.6974 C   0  0  0  0  0  0  0  0  0  0  0  0
    9.1786   22.5287    3.5667 C   0  0  0  0  0  0  0  0  0  0  0  0
    9.5895   22.5817    4.8651 C   0  0  0  0  0  0  0  0  0  0  0  0
    9.4167   23.7487    5.6113 C   0  0  0  0  0  0  0  0  0  0  0  0
    8.8359   24.8795    5.0850 C   0  0  0  0  0  0  0  0  0  0  0  0
    8.4194   24.8305    3.7729 C   0  0  0  0  0  0  0  0  0  0  0  0
    8.5909   23.6779    3.0392 C   0  0  0  0  0  0  0  0  0  0  0  0
    7.8042   26.0319    3.2139 C   0  0  0  0  0  0  0  0  0  0  0  0
    8.2779   27.3010    3.5039 O   0  0  0  0  0  0  0  0  0  0  0  0
    6.8181   25.8739    2.4513 O   0  0  0  0  0  0  0  0  0  0  0  0
    9.1022   27.6085    2.9661 H   0  0  0  0  0  0  0  0  0  0  0  0
 16 17  1  0  0  0
 17 18  1  0  0  0
 17 19  1  0  0  0
 19 20  2  0  0  0
 19  1  1  0  0  0
  1  2  1  0  0  0
  2  3  1  0  0  0
  3  4  1  0  0  0
  4  5  1  0  0  0
  5  6  1  0  0  0
  6  7  1  0  0  0
  7  8  2  0  0  0
  8  9  1  0  0  0
  9 10  2  0  0  0
 10 11  1  0  0  0
 11 12  2  0  0  0
  9 21  1  0  0  0
 21 22  1  0  0  0
 21 23  2  0  0  0
  4 13  1  0  0  0
 13 26  1  0  0  0
 26 27  2  0  0  0
 26 28  1  0  0  0
 28 30  1  0  0  0
 30 31  1  0  0  0
 31 32  2  0  0  0
 32 33  1  0  0  0
 33 34  2  0  0  0
 34 35  1  0  0  0
 35 36  2  0  0  0
 35 37  1  0  0  0
 37 38  1  0  0  0
 37 39  2  0  0  0
 13 14  1  0  0  0
 14 15  2  0  0  0
 14  1  1  0  0  0
 12  3  1  0  0  0
 36 31  1  0  0  0
 12  7  1  0  0  0
 22 24  1  0  0  0
 22 25  1  0  0  0
 28 29  1  0  0  0
 38 40  1  0  0  0
M  END
> <minimizedAffinity>
0.04627

> <CNNscore>
0.4153722227

> <CNNaffinity>
7.0248804092

> <CNN_VS>
2.9179401398

> <CNNaffinity_variance>
0.6993517876

$$$$
[H]OC(=O)C([H])([H])[H].[H]OC(=O)c1c([H])c([H])c([H])c(C([H])([H])N([H])C(=O)[C@]2([H])C(=O)[C@@]([H])(C(=O)N(C([H])([H])[H])C([H])([H])[H])O[C@]3([H])c4c([H])c([H])c(C(=O)N([H])[H])c([H])c4C([H])([H])C([H])([H])[C@]23[H])c1[H]


 40 43  0  0  0  0  0  0  0  0999 V2000
   13.1082   21.3940   -0.4299 C   0  0  0  0  0  0  0  0  0  0  0  0
   13.2466   21.4737    0.9214 O   0  0  0  0  0  0  0  0  0  0  0  0
   12.5449   22.5493    1.4926 C   0  0  0  0  0  0  0  0  0  0  0  0
   13.1920   23.8586    1.1919 C   0  0  0  0  0  0  0  0  0  0  0  0
   12.2051   24.9728    1.3118 C   0  0  0  0  0  0  0  0  0  0  0  0
   10.9672   24.7923    0.5002 C   0  0  0  0  0  0  0  0  0  0  0  0
   10.3653   23.4908    0.7818 C   0  0  0  0  0  0  0  0  0  0  0  0
    8.9930   23.3821    0.5501 C   0  0  0  0  0  0  0  0  0  0  0  0
    8.3538   22.1933    0.7906 C   0  0  0  0  0  0  0  0  0  0  0  0
    9.1013   21.1307    1.2605 C   0  0  0  0  0  0  0  0  0  0  0  0
   10.4627   21.2651    1.4823 C   0  0  0  0  0  0  0  0  0  0  0  0
   11.1108   22.4561    1.2427 C   0  0  0  0  0  0  0  0  0  0  0  0
   13.8950   23.7758   -0.1259 C   0  0  0  0  0  0  0  0  0  0  0  0
   13.1807   22.7943   -0.9645 C   0  0  0  0  0  0  0  0  0  0  0  0
   12.6629   23.0273   -2.0214 O   0  0  0  0  0  0  0  0  0  0  0  0
   16.0302   21.4730    0.4615 C   0  0  0  0  0  0  0  0  0  0  0  0
   15.5698   20.7029   -0.6510 N   0  0  0  0  0  0  0  0  0  0  0  0
   16.5680   19.9261   -1.3814 C   0  0  0  0  0  0  0  0  0  0  0  0
   14.2333   20.6684   -1.0562 C   0  0  0  0  0  0  0  0  0  0  0  0
   13.9504   19.9226   -2.0890 O   0  0  0  0  0  0  0  0  0  0  0  0
    6.9256   22.0343    0.5639 C   0  0  0  0  0  0  0  0  0  0  0  0
    6.2677   22.9357   -0.3024 N   0  0  0  0  0  0  0  0  0  0  0  0
    6.2482   21.1296    1.1043 O   0  0  0  0  0  0  0  0  0  0  0  0
    5.5826   22.6090   -1.0181 H   0  0  0  0  0  0  0  0  0  0  0  0
    6.4580   23.9406   -0.2385 H   0  0  0  0  0  0  0  0  0  0  0  0
   14.1900   25.0475   -0.7660 C   0  0  0  0  0  0  0  0  0  0  0  0
   14.2247   26.0917   -0.0850 O   0  0  0  0  0  0  0  0  0  0  0  0
   14.4474   25.1773   -2.1514 N   0  0  0  0  0  0  0  0  0  0  0  0
   14.4190   24.2814   -2.7326 H   0  0  0  0  0  0  0  0  0  0  0  0
   14.7320   26.4475   -2.7277 C   0  0  0  0  0  0  0  0  0  0  0  0
   14.4281   26.6031   -4.1421 C   0  0  0  0  0  0  0  0  0  0  0  0
   13.3288   27.2349   -4.6418 C   0  0  0  0  0  0  0  0  0  0  0  0
   13.1331   27.3224   -6.0211 C   0  0  0  0  0  0  0  0  0  0  0  0
   14.0208   26.7871   -6.9258 C   0  0  0  0  0  0  0  0  0  0  0  0
   15.1335   26.1478   -6.4252 C   0  0  0  0  0  0  0  0  0  0  0  0
   15.3239   26.0628   -5.0639 C   0  0  0  0  0  0  0  0  0  0  0  0
   16.0767   25.5810   -7.3860 C   0  0  0  0  0  0  0  0  0  0  0  0
   16.2328   24.2133   -7.5407 O   0  0  0  0  0  0  0  0  0  0  0  0
   16.7508   26.3858   -8.0765 O   0  0  0  0  0  0  0  0  0  0  0  0
   15.5265   23.7420   -8.1258 H   0  0  0  0  0  0  0  0  0  0  0  0
 16 17  1  0  0  0
 17 18  1  0  0  0
 17 19  1  0  0  0
 19 20  2  0  0  0
 19  1  1  0  0  0
  1  2  1  0  0  0
  2  3  1  0  0  0
  3  4  1  0  0  0
  4  5  1  0  0  0
  5  6  1  0  0  0
  6  7  1  0  0  0
  7  8  2  0  0  0
  8  9  1  0  0  0
  9 10  2  0  0  0
 10 11  1  0  0  0
 11 12  2  0  0  0
  9 21  1  0  0  0
 21 22  1  0  0  0
 21 23  2  0  0  0
  4 13  1  0  0  0
 13 26  1  0  0  0
 26 27  2  0  0  0
 26 28  1  0  0  0
 28 30  1  0  0  0
 30 31  1  0  0  0
 31 32  2  0  0  0
 32 33  1  0  0  0
 33 34  2  0  0  0
 34 35  1  0  0  0
 35 36  2  0  0  0
 35 37  1  0  0  0
 37 38  1  0  0  0
 37 39  2  0  0  0
 13 14  1  0  0  0
 14 15  2  0  0  0
 14  1  1  0  0  0
 12  3  1  0  0  0
 36 31  1  0  0  0
 12  7  1  0  0  0
 22 24  1  0  0  0
 22 25  1  0  0  0
 28 29  1  0  0  0
 38 40  1  0  0  0
M  END
> <minimizedAffinity>
8.60757

> <CNNscore>
0.4088434875

> <CNNaffinity>
7.0474014282

> <CNN_VS>
2.8812842369

> <CNNaffinity_variance>
2.1123170853

$$$$
[H]c1nc(C(N([H])C(=O)c2nc3c([H])c([H])c(N4C([H])([H])C([H])(C(=O)N([H])c5c(C([H])([H])[H])nc([H])c([H])c5[H])C4([H])[H])c([H])c3o2)(C([H])([H])[H])C([H])([H])[H])c([H])c([H])c1[H]


 37 41  0  0  0  0  0  0  0  0999 V2000
   12.2236   27.5107   -4.5547 C   0  0  0  0  0  0  0  0  0  0  0  0
   13.2960   27.2114   -5.4105 C   0  0  0  0  0  0  0  0  0  0  0  0
   14.2572   26.2645   -5.0860 C   0  0  0  0  0  0  0  0  0  0  0  0
   14.2240   25.5642   -3.8975 C   0  0  0  0  0  0  0  0  0  0  0  0
   14.9892   24.6308   -3.3223 N   0  0  0  0  0  0  0  0  0  0  0  0
   14.4527   24.3292   -2.1451 C   0  0  0  0  0  0  0  0  0  0  0  0
   13.3831   25.0632   -2.0200 O   0  0  0  0  0  0  0  0  0  0  0  0
   13.1808   25.8360   -3.0369 C   0  0  0  0  0  0  0  0  0  0  0  0
   12.2599   26.7721   -3.3880 C   0  0  0  0  0  0  0  0  0  0  0  0
    9.4086   29.0297   -4.4336 C   0  0  0  0  0  0  0  0  0  0  0  0
   10.7357   29.6146   -4.0108 C   0  0  0  0  0  0  0  0  0  0  0  0
   11.2219   28.4364   -4.7751 N   0  0  0  0  0  0  0  0  0  0  0  0
   10.1924   28.8384   -5.6785 C   0  0  0  0  0  0  0  0  0  0  0  0
    7.4021   30.0209   -3.3098 N   0  0  0  0  0  0  0  0  0  0  0  0
    8.1762   29.8985   -4.4556 C   0  0  0  0  0  0  0  0  0  0  0  0
    7.9531   30.4117   -5.5035 O   0  0  0  0  0  0  0  0  0  0  0  0
    6.4609   30.6523   -4.0708 H   0  0  0  0  0  0  0  0  0  0  0  0
    4.7165   29.7010   -3.7103 C   0  0  0  0  0  0  0  0  0  0  0  0
    5.2420   30.1475   -2.3581 C   0  0  0  0  0  0  0  0  0  0  0  0
    4.4150   30.4464   -1.3478 N   0  0  0  0  0  0  0  0  0  0  0  0
    4.8402   30.7624   -0.1465 C   0  0  0  0  0  0  0  0  0  0  0  0
    6.2394   30.7807    0.0621 C   0  0  0  0  0  0  0  0  0  0  0  0
    7.0863   30.4890   -0.9366 C   0  0  0  0  0  0  0  0  0  0  0  0
    6.6511   30.1462   -2.2224 C   0  0  0  0  0  0  0  0  0  0  0  0
   14.9181   23.3983   -1.1313 C   0  0  0  0  0  0  0  0  0  0  0  0
   14.5429   22.2309   -0.9895 O   0  0  0  0  0  0  0  0  0  0  0  0
   15.9244   23.9018   -0.2186 N   0  0  0  0  0  0  0  0  0  0  0  0
   16.1928   24.9611   -0.3274 H   0  0  0  0  0  0  0  0  0  0  0  0
   16.6187   23.2117    0.8066 C   0  0  0  0  0  0  0  0  0  0  0  0
   16.3375   21.7190    0.7084 C   0  0  0  0  0  0  0  0  0  0  0  0
   15.7090   23.5579    2.0991 C   0  0  0  0  0  0  0  0  0  0  0  0
   17.9279   23.6651    1.1677 C   0  0  0  0  0  0  0  0  0  0  0  0
   18.2036   24.2384    2.4059 C   0  0  0  0  0  0  0  0  0  0  0  0
   19.4724   24.6705    2.6793 C   0  0  0  0  0  0  0  0  0  0  0  0
   20.4663   24.5562    1.7602 C   0  0  0  0  0  0  0  0  0  0  0  0
   20.1865   23.9874    0.5085 C   0  0  0  0  0  0  0  0  0  0  0  0
   18.9674   23.5664    0.2557 N   0  0  0  0  0  0  0  0  0  0  0  0
 18 19  1  0  0  0
 19 20  2  0  0  0
 20 21  1  0  0  0
 21 22  2  0  0  0
 22 23  1  0  0  0
 23 24  2  0  0  0
 24 14  1  0  0  0
 14 15  1  0  0  0
 15 16  2  0  0  0
 15 10  1  0  0  0
 10 11  1  0  0  0
 11 12  1  0  0  0
 12 13  1  0  0  0
 12  1  1  0  0  0
  1  2  2  0  0  0
  2  3  1  0  0  0
  3  4  2  0  0  0
  4  5  1  0  0  0
  5  6  2  0  0  0
  6  7  1  0  0  0
  7  8  1  0  0  0
  8  9  2  0  0  0
  6 25  1  0  0  0
 25 26  2  0  0  0
 25 27  1  0  0  0
 27 29  1  0  0  0
 29 30  1  0  0  0
 29 31  1  0  0  0
 29 32  1  0  0  0
 32 33  2  0  0  0
 33 34  1  0  0  0
 34 35  2  0  0  0
 35 36  1  0  0  0
 36 37  2  0  0  0
 24 19  1  0  0  0
 13 10  1  0  0  0
  9  1  1  0  0  0
 37 32  1  0  0  0
  8  4  1  0  0  0
 14 17  1  0  0  0
 27 28  1  0  0  0
M  END
> <minimizedAffinity>
34.01863

> <CNNscore>
0.5668830872

> <CNNaffinity>
6.5082001686

> <CNN_VS>
3.6893885136

> <CNNaffinity_variance>
0.6856353879

$$$$
[H]c1nc(C(N([H])C(=O)c2nc3c([H])c([H])c(N4C([H])([H])C([H])(C(=O)N([H])c5c(C([H])([H])[H])nc([H])c([H])c5[H])C4([H])[H])c([H])c3o2)(C([H])([H])[H])C([H])([H])[H])c([H])c([H])c1[H]


 37 41  0  0  0  0  0  0  0  0999 V2000
   13.6969   26.2026   -3.0961 C   0  0  0  0  0  0  0  0  0  0  0  0
   15.0635   25.8829   -3.1420 C   0  0  0  0  0  0  0  0  0  0  0  0
   15.5948   24.8107   -2.4391 C   0  0  0  0  0  0  0  0  0  0  0  0
   14.8142   23.9970   -1.6437 C   0  0  0  0  0  0  0  0  0  0  0  0
   15.0360   22.9325   -0.8656 N   0  0  0  0  0  0  0  0  0  0  0  0
   13.8764   22.5675   -0.3301 C   0  0  0  0  0  0  0  0  0  0  0  0
   12.9760   23.3935   -0.7834 O   0  0  0  0  0  0  0  0  0  0  0  0
   13.4668   24.2858   -1.5803 C   0  0  0  0  0  0  0  0  0  0  0  0
   12.9836   25.3459   -2.2806 C   0  0  0  0  0  0  0  0  0  0  0  0
   11.6616   28.5800   -3.7685 C   0  0  0  0  0  0  0  0  0  0  0  0
   13.1584   28.7256   -3.6255 C   0  0  0  0  0  0  0  0  0  0  0  0
   13.0687   27.2471   -3.7466 N   0  0  0  0  0  0  0  0  0  0  0  0
   12.1224   27.5796   -4.7623 C   0  0  0  0  0  0  0  0  0  0  0  0
    9.5115   29.5546   -4.6042 N   0  0  0  0  0  0  0  0  0  0  0  0
   10.8314   29.7538   -4.2233 C   0  0  0  0  0  0  0  0  0  0  0  0
   11.4093   30.7917   -4.2349 O   0  0  0  0  0  0  0  0  0  0  0  0
    9.5031   30.8369   -5.0724 H   0  0  0  0  0  0  0  0  0  0  0  0
    7.6452   30.3698   -2.7800 C   0  0  0  0  0  0  0  0  0  0  0  0
    7.2185   29.6302   -4.0349 C   0  0  0  0  0  0  0  0  0  0  0  0
    5.9373   29.3106   -4.2595 N   0  0  0  0  0  0  0  0  0  0  0  0
    5.5277   28.7388   -5.3681 C   0  0  0  0  0  0  0  0  0  0  0  0
    6.5046   28.4585   -6.3524 C   0  0  0  0  0  0  0  0  0  0  0  0
    7.7942   28.7659   -6.1469 C   0  0  0  0  0  0  0  0  0  0  0  0
    8.2484   29.3791   -4.9731 C   0  0  0  0  0  0  0  0  0  0  0  0
   13.5902   21.4914    0.6031 C   0  0  0  0  0  0  0  0  0  0  0  0
   14.3388   20.5490    0.8775 O   0  0  0  0  0  0  0  0  0  0  0  0
   12.3068   21.5538    1.2727 N   0  0  0  0  0  0  0  0  0  0  0  0
   11.6361   22.3662    0.9630 H   0  0  0  0  0  0  0  0  0  0  0  0
   11.7895   20.7038    2.2823 C   0  0  0  0  0  0  0  0  0  0  0  0
   12.8474   19.6925    2.7003 C   0  0  0  0  0  0  0  0  0  0  0  0
   10.8303   19.7276    1.4193 C   0  0  0  0  0  0  0  0  0  0  0  0
   10.9186   21.2687    3.2685 C   0  0  0  0  0  0  0  0  0  0  0  0
   11.1519   21.1343    4.6344 C   0  0  0  0  0  0  0  0  0  0  0  0
   10.2682   21.6805    5.5243 C   0  0  0  0  0  0  0  0  0  0  0  0
    9.1631   22.3457    5.0980 C   0  0  0  0  0  0  0  0  0  0  0  0
    8.9226   22.4729    3.7215 C   0  0  0  0  0  0  0  0  0  0  0  0
    9.7802   21.9533    2.8719 N   0  0  0  0  0  0  0  0  0  0  0  0
 18 19  1  0  0  0
 19 20  2  0  0  0
 20 21  1  0  0  0
 21 22  2  0  0  0
 22 23  1  0  0  0
 23 24  2  0  0  0
 24 14  1  0  0  0
 14 15  1  0  0  0
 15 16  2  0  0  0
 15 10  1  0  0  0
 10 11  1  0  0  0
 11 12  1  0  0  0
 12 13  1  0  0  0
 12  1  1  0  0  0
  1  2  2  0  0  0
  2  3  1  0  0  0
  3  4  2  0  0  0
  4  5  1  0  0  0
  5  6  2  0  0  0
  6  7  1  0  0  0
  7  8  1  0  0  0
  8  9  2  0  0  0
  6 25  1  0  0  0
 25 26  2  0  0  0
 25 27  1  0  0  0
 27 29  1  0  0  0
 29 30  1  0  0  0
 29 31  1  0  0  0
 29 32  1  0  0  0
 32 33  2  0  0  0
 33 34  1  0  0  0
 34 35  2  0  0  0
 35 36  1  0  0  0
 36 37  2  0  0  0
 24 19  1  0  0  0
 13 10  1  0  0  0
  9  1  1  0  0  0
 37 32  1  0  0  0
  8  4  1  0  0  0
 14 17  1  0  0  0
 27 28  1  0  0  0
M  END
> <minimizedAffinity>
7.91050

> <CNNscore>
0.5511587858

> <CNNaffinity>
7.1867675781

> <CNN_VS>
3.9610500336

> <CNNaffinity_variance>
0.6288027763

$$$$
[H]c1nc(C(N([H])C(=O)c2nc3c([H])c([H])c(N4C([H])([H])C([H])(C(=O)N([H])c5c(C([H])([H])[H])nc([H])c([H])c5[H])C4([H])[H])c([H])c3o2)(C([H])([H])[H])C([H])([H])[H])c([H])c([H])c1[H]


 37 41  0  0  0  0  0  0  0  0999 V2000
   12.5984   27.4510   -4.2900 C   0  0  0  0  0  0  0  0  0  0  0  0
   13.7172   27.0648   -5.0456 C   0  0  0  0  0  0  0  0  0  0  0  0
   14.6550   26.1608   -4.5667 C   0  0  0  0  0  0  0  0  0  0  0  0
   14.5510   25.5918   -3.3139 C   0  0  0  0  0  0  0  0  0  0  0  0
   15.2786   24.7275   -2.5989 N   0  0  0  0  0  0  0  0  0  0  0  0
   14.6742   24.5522   -1.4291 C   0  0  0  0  0  0  0  0  0  0  0  0
   13.6017   25.2924   -1.4452 O   0  0  0  0  0  0  0  0  0  0  0  0
   13.4608   25.9512   -2.5489 C   0  0  0  0  0  0  0  0  0  0  0  0
   12.5649   26.8418   -3.0508 C   0  0  0  0  0  0  0  0  0  0  0  0
    9.9462   29.2431   -4.2555 C   0  0  0  0  0  0  0  0  0  0  0  0
   11.3578   29.7735   -4.3460 C   0  0  0  0  0  0  0  0  0  0  0  0
   11.6142   28.3449   -4.6656 N   0  0  0  0  0  0  0  0  0  0  0  0
   10.4314   28.5065   -5.4483 C   0  0  0  0  0  0  0  0  0  0  0  0
    7.7965   30.2064   -3.4060 N   0  0  0  0  0  0  0  0  0  0  0  0
    8.7778   30.1872   -4.3876 C   0  0  0  0  0  0  0  0  0  0  0  0
    8.7880   30.8498   -5.3736 O   0  0  0  0  0  0  0  0  0  0  0  0
    7.0510   30.9953   -4.2339 H   0  0  0  0  0  0  0  0  0  0  0  0
    5.5451   28.7724   -3.9977 C   0  0  0  0  0  0  0  0  0  0  0  0
    5.5924   29.6485   -2.7591 C   0  0  0  0  0  0  0  0  0  0  0  0
    4.5290   29.7869   -1.9565 N   0  0  0  0  0  0  0  0  0  0  0  0
    4.5621   30.4763   -0.8397 C   0  0  0  0  0  0  0  0  0  0  0  0
    5.7886   31.0905   -0.4929 C   0  0  0  0  0  0  0  0  0  0  0  0
    6.8651   30.9688   -1.2840 C   0  0  0  0  0  0  0  0  0  0  0  0
    6.8495   30.2347   -2.4761 C   0  0  0  0  0  0  0  0  0  0  0  0
   15.0772   23.7366   -0.2963 C   0  0  0  0  0  0  0  0  0  0  0  0
   15.6808   24.1316    0.7054 O   0  0  0  0  0  0  0  0  0  0  0  0
   14.7181   22.3345   -0.3614 N   0  0  0  0  0  0  0  0  0  0  0  0
   14.2388   21.9982   -1.2904 H   0  0  0  0  0  0  0  0  0  0  0  0
   14.9008   21.3244    0.6163 C   0  0  0  0  0  0  0  0  0  0  0  0
   13.5925   21.0735    1.3526 C   0  0  0  0  0  0  0  0  0  0  0  0
   15.6919   22.1355    1.7714 C   0  0  0  0  0  0  0  0  0  0  0  0
   15.7635   20.2244    0.3067 C   0  0  0  0  0  0  0  0  0  0  0  0
   17.1379   20.3766    0.1460 C   0  0  0  0  0  0  0  0  0  0  0  0
   17.9025   19.2874   -0.1706 C   0  0  0  0  0  0  0  0  0  0  0  0
   17.3424   18.0611   -0.3380 C   0  0  0  0  0  0  0  0  0  0  0  0
   15.9558   17.9092   -0.1857 C   0  0  0  0  0  0  0  0  0  0  0  0
   15.2284   18.9581    0.1271 N   0  0  0  0  0  0  0  0  0  0  0  0
 18 19  1  0  0  0
 19 20  2  0  0  0
 20 21  1  0  0  0
 21 22  2  0  0  0
 22 23  1  0  0  0
 23 24  2  0  0  0
 24 14  1  0  0  0
 14 15  1  0  0  0
 15 16  2  0  0  0
 15 10  1  0  0  0
 10 11  1  0  0  0
 11 12  1  0  0  0
 12 13  1  0  0  0
 12  1  1  0  0  0
  1  2  2  0  0  0
  2  3  1  0  0  0
  3  4  2  0  0  0
  4  5  1  0  0  0
  5  6  2  0  0  0
  6  7  1  0  0  0
  7  8  1  0  0  0
  8  9  2  0  0  0
  6 25  1  0  0  0
 25 26  2  0  0  0
 25 27  1  0  0  0
 27 29  1  0  0  0
 29 30  1  0  0  0
 29 31  1  0  0  0
 29 32  1  0  0  0
 32 33  2  0  0  0
 33 34  1  0  0  0
 34 35  2  0  0  0
 35 36  1  0  0  0
 36 37  2  0  0  0
 24 19  1  0  0  0
 13 10  1  0  0  0
  9  1  1  0  0  0
 37 32  1  0  0  0
  8  4  1  0  0  0
 14 17  1  0  0  0
 27 28  1  0  0  0
M  END
> <minimizedAffinity>
34.73269

> <CNNscore>
0.4942477047

> <CNNaffinity>
6.5276803970

> <CNN_VS>
3.2262909412

> <CNNaffinity_variance>
0.5238090754

$$$$
[H]c1nc(C(N([H])C(=O)c2nc3c([H])c([H])c(N4C([H])([H])C([H])(C(=O)N([H])c5c(C([H])([H])[H])nc([H])c([H])c5[H])C4([H])[H])c([H])c3o2)(C([H])([H])[H])C([H])([H])[H])c([H])c([H])c1[H]


 37 41  0  0  0  0  0  0  0  0999 V2000
   14.1549   24.1000   -2.7365 C   0  0  0  0  0  0  0  0  0  0  0  0
   15.3028   23.3335   -2.9948 C   0  0  0  0  0  0  0  0  0  0  0  0
   16.2312   23.6971   -3.9602 C   0  0  0  0  0  0  0  0  0  0  0  0
   16.0794   24.8302   -4.7328 C   0  0  0  0  0  0  0  0  0  0  0  0
   16.7768   25.4125   -5.7138 N   0  0  0  0  0  0  0  0  0  0  0  0
   16.1232   26.5070   -6.0875 C   0  0  0  0  0  0  0  0  0  0  0  0
   15.0578   26.5824   -5.3406 O   0  0  0  0  0  0  0  0  0  0  0  0
   14.9615   25.6042   -4.5003 C   0  0  0  0  0  0  0  0  0  0  0  0
   14.0730   25.2145   -3.5484 C   0  0  0  0  0  0  0  0  0  0  0  0
   12.4990   22.6937   -0.3855 C   0  0  0  0  0  0  0  0  0  0  0  0
   13.0253   24.1094   -0.3574 C   0  0  0  0  0  0  0  0  0  0  0  0
   13.1679   23.8261   -1.8093 N   0  0  0  0  0  0  0  0  0  0  0  0
   11.8837   23.2310   -1.6238 C   0  0  0  0  0  0  0  0  0  0  0  0
   10.5522   21.3526    0.4407 N   0  0  0  0  0  0  0  0  0  0  0  0
   11.6148   22.1974    0.7307 C   0  0  0  0  0  0  0  0  0  0  0  0
   11.9050   22.6050    1.8082 O   0  0  0  0  0  0  0  0  0  0  0  0
   10.1250   21.5272    1.7254 H   0  0  0  0  0  0  0  0  0  0  0  0
    8.0784   22.4259    0.8915 C   0  0  0  0  0  0  0  0  0  0  0  0
    8.2227   20.9602    0.5243 C   0  0  0  0  0  0  0  0  0  0  0  0
    7.1620   20.1447    0.4625 N   0  0  0  0  0  0  0  0  0  0  0  0
    7.2453   18.8928    0.0755 C   0  0  0  0  0  0  0  0  0  0  0  0
    8.5249   18.4098   -0.2864 C   0  0  0  0  0  0  0  0  0  0  0  0
    9.6017   19.2077   -0.2280 C   0  0  0  0  0  0  0  0  0  0  0  0
    9.5314   20.5456    0.1784 C   0  0  0  0  0  0  0  0  0  0  0  0
   16.4505   27.4656   -7.1290 C   0  0  0  0  0  0  0  0  0  0  0  0
   16.7130   27.1994   -8.3054 O   0  0  0  0  0  0  0  0  0  0  0  0
   16.4525   28.8595   -6.7335 N   0  0  0  0  0  0  0  0  0  0  0  0
   16.2784   29.0627   -5.6684 H   0  0  0  0  0  0  0  0  0  0  0  0
   16.6502   30.0105   -7.5369 C   0  0  0  0  0  0  0  0  0  0  0  0
   16.9391   31.2156   -6.6533 C   0  0  0  0  0  0  0  0  0  0  0  0
   15.1313   30.3670   -7.9657 C   0  0  0  0  0  0  0  0  0  0  0  0
   17.3405   29.8618   -8.7825 C   0  0  0  0  0  0  0  0  0  0  0  0
   18.6868   30.1830   -8.9321 C   0  0  0  0  0  0  0  0  0  0  0  0
   19.2807   30.0377  -10.1558 C   0  0  0  0  0  0  0  0  0  0  0  0
   18.5773   29.5920  -11.2292 C   0  0  0  0  0  0  0  0  0  0  0  0
   17.2179   29.2775  -11.0810 C   0  0  0  0  0  0  0  0  0  0  0  0
   16.6557   29.4112   -9.9006 N   0  0  0  0  0  0  0  0  0  0  0  0
 18 19  1  0  0  0
 19 20  2  0  0  0
 20 21  1  0  0  0
 21 22  2  0  0  0
 22 23  1  0  0  0
 23 24  2  0  0  0
 24 14  1  0  0  0
 14 15  1  0  0  0
 15 16  2  0  0  0
 15 10  1  0  0  0
 10 11  1  0  0  0
 11 12  1  0  0  0
 12 13  1  0  0  0
 12  1  1  0  0  0
  1  2  2  0  0  0
  2  3  1  0  0  0
  3  4  2  0  0  0
  4  5  1  0  0  0
  5  6  2  0  0  0
  6  7  1  0  0  0
  7  8  1  0  0  0
  8  9  2  0  0  0
  6 25  1  0  0  0
 25 26  2  0  0  0
 25 27  1  0  0  0
 27 29  1  0  0  0
 29 30  1  0  0  0
 29 31  1  0  0  0
 29 32  1  0  0  0
 32 33  2  0  0  0
 33 34  1  0  0  0
 34 35  2  0  0  0
 35 36  1  0  0  0
 36 37  2  0  0  0
 24 19  1  0  0  0
 13 10  1  0  0  0
  9  1  1  0  0  0
 37 32  1  0  0  0
  8  4  1  0  0  0
 14 17  1  0  0  0
 27 28  1  0  0  0
M  END
> <minimizedAffinity>
49.87209

> <CNNscore>
0.3904440701

> <CNNaffinity>
6.6314721107

> <CNN_VS>
2.5892188549

> <CNNaffinity_variance>
0.1300414056

$$$$
[H]c1nc(C(N([H])C(=O)c2nc3c([H])c([H])c(N4C([H])([H])C([H])(C(=O)N([H])c5c(C([H])([H])[H])nc([H])c([H])c5[H])C4([H])[H])c([H])c3o2)(C([H])([H])[H])C([H])([H])[H])c([H])c([H])c1[H]


 37 41  0  0  0  0  0  0  0  0999 V2000
   11.8278   22.8163    1.0602 C   0  0  0  0  0  0  0  0  0  0  0  0
   12.6954   21.7153    0.9760 C   0  0  0  0  0  0  0  0  0  0  0  0
   13.7452   21.6705    0.0693 C   0  0  0  0  0  0  0  0  0  0  0  0
   13.9963   22.7018   -0.8124 C   0  0  0  0  0  0  0  0  0  0  0  0
   14.8953   22.9320   -1.7750 N   0  0  0  0  0  0  0  0  0  0  0  0
   14.6350   24.1230   -2.3027 C   0  0  0  0  0  0  0  0  0  0  0  0
   13.6037   24.6000   -1.6644 O   0  0  0  0  0  0  0  0  0  0  0  0
   13.1610   23.7979   -0.7518 C   0  0  0  0  0  0  0  0  0  0  0  0
   12.1418   23.8043    0.1475 C   0  0  0  0  0  0  0  0  0  0  0  0
    8.8508   23.2493    2.1542 C   0  0  0  0  0  0  0  0  0  0  0  0
    9.7020   22.0255    2.3987 C   0  0  0  0  0  0  0  0  0  0  0  0
   10.7524   22.9593    1.9157 N   0  0  0  0  0  0  0  0  0  0  0  0
   10.0527   23.8770    2.7560 C   0  0  0  0  0  0  0  0  0  0  0  0
    7.0652   22.3726    3.6754 N   0  0  0  0  0  0  0  0  0  0  0  0
    7.5156   23.3868    2.8415 C   0  0  0  0  0  0  0  0  0  0  0  0
    6.9292   24.3875    2.5843 O   0  0  0  0  0  0  0  0  0  0  0  0
    5.8538   23.0013    3.7064 H   0  0  0  0  0  0  0  0  0  0  0  0
    8.4874   22.0317    5.9854 C   0  0  0  0  0  0  0  0  0  0  0  0
    7.3806   21.0608    5.6163 C   0  0  0  0  0  0  0  0  0  0  0  0
    7.1049   19.9906    6.3731 N   0  0  0  0  0  0  0  0  0  0  0  0
    6.1067   19.1758    6.1210 C   0  0  0  0  0  0  0  0  0  0  0  0
    5.3029   19.4646    4.9931 C   0  0  0  0  0  0  0  0  0  0  0  0
    5.5634   20.5285    4.2187 C   0  0  0  0  0  0  0  0  0  0  0  0
    6.6206   21.4102    4.4742 C   0  0  0  0  0  0  0  0  0  0  0  0
   15.3026   24.8142   -3.3923 C   0  0  0  0  0  0  0  0  0  0  0  0
   16.4569   25.2515   -3.3767 O   0  0  0  0  0  0  0  0  0  0  0  0
   14.5296   24.9864   -4.6056 N   0  0  0  0  0  0  0  0  0  0  0  0
   13.4865   24.6450   -4.5698 H   0  0  0  0  0  0  0  0  0  0  0  0
   14.9350   25.5400   -5.8460 C   0  0  0  0  0  0  0  0  0  0  0  0
   13.9920   25.0832   -6.9500 C   0  0  0  0  0  0  0  0  0  0  0  0
   16.2147   24.6177   -6.2060 C   0  0  0  0  0  0  0  0  0  0  0  0
   15.4503   26.8758   -5.8602 C   0  0  0  0  0  0  0  0  0  0  0  0
   16.6123   27.2197   -6.5455 C   0  0  0  0  0  0  0  0  0  0  0  0
   17.0622   28.5107   -6.5006 C   0  0  0  0  0  0  0  0  0  0  0  0
   16.3983   29.4614   -5.7928 C   0  0  0  0  0  0  0  0  0  0  0  0
   15.2325   29.1130   -5.0941 C   0  0  0  0  0  0  0  0  0  0  0  0
   14.8010   27.8727   -5.1485 N   0  0  0  0  0  0  0  0  0  0  0  0
 18 19  1  0  0  0
 19 20  2  0  0  0
 20 21  1  0  0  0
 21 22  2  0  0  0
 22 23  1  0  0  0
 23 24  2  0  0  0
 24 14  1  0  0  0
 14 15  1  0  0  0
 15 16  2  0  0  0
 15 10  1  0  0  0
 10 11  1  0  0  0
 11 12  1  0  0  0
 12 13  1  0  0  0
 12  1  1  0  0  0
  1  2  2  0  0  0
  2  3  1  0  0  0
  3  4  2  0  0  0
  4  5  1  0  0  0
  5  6  2  0  0  0
  6  7  1  0  0  0
  7  8  1  0  0  0
  8  9  2  0  0  0
  6 25  1  0  0  0
 25 26  2  0  0  0
 25 27  1  0  0  0
 27 29  1  0  0  0
 29 30  1  0  0  0
 29 31  1  0  0  0
 29 32  1  0  0  0
 32 33  2  0  0  0
 33 34  1  0  0  0
 34 35  2  0  0  0
 35 36  1  0  0  0
 36 37  2  0  0  0
 24 19  1  0  0  0
 13 10  1  0  0  0
  9  1  1  0  0  0
 37 32  1  0  0  0
  8  4  1  0  0  0
 14 17  1  0  0  0
 27 28  1  0  0  0
M  END
> <minimizedAffinity>
4.63360

> <CNNscore>
0.3735498786

> <CNNaffinity>
6.9187407494

> <CNN_VS>
2.5844948292

> <CNNaffinity_variance>
0.7265619040

$$$$
[H]c1nc(C(N([H])C(=O)c2nc3c([H])c([H])c(N4C([H])([H])C([H])(C(=O)N([H])c5c(C([H])([H])[H])nc([H])c([H])c5[H])C4([H])[H])c([H])c3o2)(C([H])([H])[H])C([H])([H])[H])c([H])c([H])c1[H]


 37 41  0  0  0  0  0  0  0  0999 V2000
   13.6998   25.8137   -3.0932 C   0  0  0  0  0  0  0  0  0  0  0  0
   14.6501   24.8534   -3.4762 C   0  0  0  0  0  0  0  0  0  0  0  0
   14.7856   23.6429   -2.8111 C   0  0  0  0  0  0  0  0  0  0  0  0
   14.0006   23.3113   -1.7258 C   0  0  0  0  0  0  0  0  0  0  0  0
   13.9099   22.2608   -0.9036 N   0  0  0  0  0  0  0  0  0  0  0  0
   12.9506   22.5134   -0.0201 C   0  0  0  0  0  0  0  0  0  0  0  0
   12.4715   23.6899   -0.3111 O   0  0  0  0  0  0  0  0  0  0  0  0
   13.0566   24.2349   -1.3274 C   0  0  0  0  0  0  0  0  0  0  0  0
   12.9553   25.4107   -2.0017 C   0  0  0  0  0  0  0  0  0  0  0  0
   13.0224   28.9186   -3.4776 C   0  0  0  0  0  0  0  0  0  0  0  0
   14.3332   28.2594   -3.8372 C   0  0  0  0  0  0  0  0  0  0  0  0
   13.4877   27.0476   -3.6775 N   0  0  0  0  0  0  0  0  0  0  0  0
   12.5418   27.8485   -4.3857 C   0  0  0  0  0  0  0  0  0  0  0  0
   11.5612   30.7439   -4.3745 N   0  0  0  0  0  0  0  0  0  0  0  0
   12.7832   30.3634   -3.8371 C   0  0  0  0  0  0  0  0  0  0  0  0
   13.7089   31.0810   -3.6381 O   0  0  0  0  0  0  0  0  0  0  0  0
   12.1146   31.9614   -4.6482 H   0  0  0  0  0  0  0  0  0  0  0  0
    9.3505   29.7776   -3.0881 C   0  0  0  0  0  0  0  0  0  0  0  0
    9.2052   30.5511   -4.3860 C   0  0  0  0  0  0  0  0  0  0  0  0
    8.0105   30.7364   -4.9624 N   0  0  0  0  0  0  0  0  0  0  0  0
    7.8439   31.4633   -6.0430 C   0  0  0  0  0  0  0  0  0  0  0  0
    8.9950   32.0660   -6.6029 C   0  0  0  0  0  0  0  0  0  0  0  0
   10.2022   31.8904   -6.0448 C   0  0  0  0  0  0  0  0  0  0  0  0
   10.3982   31.1222   -4.8908 C   0  0  0  0  0  0  0  0  0  0  0  0
   12.4865   21.7037    1.0933 C   0  0  0  0  0  0  0  0  0  0  0  0
   12.9636   20.6245    1.4557 O   0  0  0  0  0  0  0  0  0  0  0  0
   11.3661   22.2346    1.8431 N   0  0  0  0  0  0  0  0  0  0  0  0
   10.9216   23.1631    1.4606 H   0  0  0  0  0  0  0  0  0  0  0  0
   10.7559   21.7179    3.0136 C   0  0  0  0  0  0  0  0  0  0  0  0
   11.8229   21.3516    4.0354 C   0  0  0  0  0  0  0  0  0  0  0  0
   10.3441   20.2297    2.5304 C   0  0  0  0  0  0  0  0  0  0  0  0
    9.5226   22.2981    3.4522 C   0  0  0  0  0  0  0  0  0  0  0  0
    9.4314   23.0741    4.6043 C   0  0  0  0  0  0  0  0  0  0  0  0
    8.2175   23.5813    4.9791 C   0  0  0  0  0  0  0  0  0  0  0  0
    7.0981   23.3346    4.2499 C   0  0  0  0  0  0  0  0  0  0  0  0
    7.1880   22.5444    3.0939 C   0  0  0  0  0  0  0  0  0  0  0  0
    8.3588   22.0675    2.7349 N   0  0  0  0  0  0  0  0  0  0  0  0
 18 19  1  0  0  0
 19 20  2  0  0  0
 20 21  1  0  0  0
 21 22  2  0  0  0
 22 23  1  0  0  0
 23 24  2  0  0  0
 24 14  1  0  0  0
 14 15  1  0  0  0
 15 16  2  0  0  0
 15 10  1  0  0  0
 10 11  1  0  0  0
 11 12  1  0  0  0
 12 13  1  0  0  0
 12  1  1  0  0  0
  1  2  2  0  0  0
  2  3  1  0  0  0
  3  4  2  0  0  0
  4  5  1  0  0  0
  5  6  2  0  0  0
  6  7  1  0  0  0
  7  8  1  0  0  0
  8  9  2  0  0  0
  6 25  1  0  0  0
 25 26  2  0  0  0
 25 27  1  0  0  0
 27 29  1  0  0  0
 29 30  1  0  0  0
 29 31  1  0  0  0
 29 32  1  0  0  0
 32 33  2  0  0  0
 33 34  1  0  0  0
 34 35  2  0  0  0
 35 36  1  0  0  0
 36 37  2  0  0  0
 24 19  1  0  0  0
 13 10  1  0  0  0
  9  1  1  0  0  0
 37 32  1  0  0  0
  8  4  1  0  0  0
 14 17  1  0  0  0
 27 28  1  0  0  0
M  END
> <minimizedAffinity>
22.76147

> <CNNscore>
0.3665177822

> <CNNaffinity>
6.8461694717

> <CNN_VS>
2.5092427731

> <CNNaffinity_variance>
1.1291167736

$$$$
[H]c1nc(C(N([H])C(=O)c2nc3c([H])c([H])c(N4C([H])([H])C([H])(C(=O)N([H])c5c(C([H])([H])[H])nc([H])c([H])c5[H])C4([H])[H])c([H])c3o2)(C([H])([H])[H])C([H])([H])[H])c([H])c([H])c1[H]


 37 41  0  0  0  0  0  0  0  0999 V2000
   12.7822   27.9823   -4.3295 C   0  0  0  0  0  0  0  0  0  0  0  0
   13.7853   28.2300   -5.2805 C   0  0  0  0  0  0  0  0  0  0  0  0
   15.0475   27.6606   -5.1873 C   0  0  0  0  0  0  0  0  0  0  0  0
   15.3984   26.8223   -4.1490 C   0  0  0  0  0  0  0  0  0  0  0  0
   16.5025   26.1553   -3.7971 N   0  0  0  0  0  0  0  0  0  0  0  0
   16.2446   25.5015   -2.6699 C   0  0  0  0  0  0  0  0  0  0  0  0
   15.0079   25.7666   -2.3556 O   0  0  0  0  0  0  0  0  0  0  0  0
   14.4325   26.5592   -3.1999 C   0  0  0  0  0  0  0  0  0  0  0  0
   13.2086   27.1375   -3.3233 C   0  0  0  0  0  0  0  0  0  0  0  0
   10.2246   29.7734   -5.0347 C   0  0  0  0  0  0  0  0  0  0  0  0
   10.3031   28.2709   -5.1701 C   0  0  0  0  0  0  0  0  0  0  0  0
   11.5018   28.5013   -4.3224 N   0  0  0  0  0  0  0  0  0  0  0  0
   10.6191   29.4020   -3.6537 C   0  0  0  0  0  0  0  0  0  0  0  0
    7.8795   30.3327   -4.3574 N   0  0  0  0  0  0  0  0  0  0  0  0
    8.9148   30.4827   -5.2698 C   0  0  0  0  0  0  0  0  0  0  0  0
    8.8730   31.1227   -6.2698 O   0  0  0  0  0  0  0  0  0  0  0  0
    7.0624   30.9588   -5.2540 H   0  0  0  0  0  0  0  0  0  0  0  0
    5.9761   28.5016   -5.0637 C   0  0  0  0  0  0  0  0  0  0  0  0
    5.7744   29.3863   -3.8469 C   0  0  0  0  0  0  0  0  0  0  0  0
    4.6495   29.3361   -3.1216 N   0  0  0  0  0  0  0  0  0  0  0  0
    4.4767   30.0333   -2.0225 C   0  0  0  0  0  0  0  0  0  0  0  0
    5.5426   30.8670   -1.6093 C   0  0  0  0  0  0  0  0  0  0  0  0
    6.6765   30.9361   -2.3227 C   0  0  0  0  0  0  0  0  0  0  0  0
    6.8799   30.1973   -3.4944 C   0  0  0  0  0  0  0  0  0  0  0  0
   17.1196   24.6601   -1.8715 C   0  0  0  0  0  0  0  0  0  0  0  0
   18.2527   24.2850   -2.1861 O   0  0  0  0  0  0  0  0  0  0  0  0
   16.6009   24.2423   -0.5848 N   0  0  0  0  0  0  0  0  0  0  0  0
   15.5676   24.5371   -0.3584 H   0  0  0  0  0  0  0  0  0  0  0  0
   17.2468   23.4978    0.4340 C   0  0  0  0  0  0  0  0  0  0  0  0
   17.8369   24.4428    1.4711 C   0  0  0  0  0  0  0  0  0  0  0  0
   18.6122   23.0522   -0.3110 C   0  0  0  0  0  0  0  0  0  0  0  0
   16.6570   22.2624    0.8535 C   0  0  0  0  0  0  0  0  0  0  0  0
   15.5917   21.6764    0.1754 C   0  0  0  0  0  0  0  0  0  0  0  0
   15.0603   20.5054    0.6419 C   0  0  0  0  0  0  0  0  0  0  0  0
   15.5499   19.9083    1.7597 C   0  0  0  0  0  0  0  0  0  0  0  0
   16.6173   20.5038    2.4488 C   0  0  0  0  0  0  0  0  0  0  0  0
   17.1287   21.6243    1.9903 N   0  0  0  0  0  0  0  0  0  0  0  0
 18 19  1  0  0  0
 19 20  2  0  0  0
 20 21  1  0  0  0
 21 22  2  0  0  0
 22 23  1  0  0  0
 23 24  2  0  0  0
 24 14  1  0  0  0
 14 15  1  0  0  0
 15 16  2  0  0  0
 15 10  1  0  0  0
 10 11  1  0  0  0
 11 12  1  0  0  0
 12 13  1  0  0  0
 12  1  1  0  0  0
  1  2  2  0  0  0
  2  3  1  0  0  0
  3  4  2  0  0  0
  4  5  1  0  0  0
  5  6  2  0  0  0
  6  7  1  0  0  0
  7  8  1  0  0  0
  8  9  2  0  0  0
  6 25  1  0  0  0
 25 26  2  0  0  0
 25 27  1  0  0  0
 27 29  1  0  0  0
 29 30  1  0  0  0
 29 31  1  0  0  0
 29 32  1  0  0  0
 32 33  2  0  0  0
 33 34  1  0  0  0
 34 35  2  0  0  0
 35 36  1  0  0  0
 36 37  2  0  0  0
 24 19  1  0  0  0
 13 10  1  0  0  0
  9  1  1  0  0  0
 37 32  1  0  0  0
  8  4  1  0  0  0
 14 17  1  0  0  0
 27 28  1  0  0  0
M  END
> <minimizedAffinity>
36.67277

> <CNNscore>
0.3643793166

> <CNNaffinity>
6.2023034096

> <CNN_VS>
2.2599911690

> <CNNaffinity_variance>
0.4926787019

$$$$
[H]c1nc(C(N([H])C(=O)c2nc3c([H])c([H])c(N4C([H])([H])C([H])(C(=O)N([H])c5c(C([H])([H])[H])nc([H])c([H])c5[H])C4([H])[H])c([H])c3o2)(C([H])([H])[H])C([H])([H])[H])c([H])c([H])c1[H]


 37 41  0  0  0  0  0  0  0  0999 V2000
   14.6111   24.4476   -3.4507 C   0  0  0  0  0  0  0  0  0  0  0  0
   15.5358   23.5439   -3.9985 C   0  0  0  0  0  0  0  0  0  0  0  0
   16.2226   23.8125   -5.1742 C   0  0  0  0  0  0  0  0  0  0  0  0
   16.0327   24.9810   -5.8831 C   0  0  0  0  0  0  0  0  0  0  0  0
   16.5247   25.4976   -7.0140 N   0  0  0  0  0  0  0  0  0  0  0  0
   15.9535   26.6813   -7.2064 C   0  0  0  0  0  0  0  0  0  0  0  0
   15.1394   26.8731   -6.2069 O   0  0  0  0  0  0  0  0  0  0  0  0
   15.1310   25.8890   -5.3681 C   0  0  0  0  0  0  0  0  0  0  0  0
   14.4753   25.5896   -4.2157 C   0  0  0  0  0  0  0  0  0  0  0  0
   13.2367   23.1009   -0.8925 C   0  0  0  0  0  0  0  0  0  0  0  0
   14.2242   24.2433   -0.8536 C   0  0  0  0  0  0  0  0  0  0  0  0
   13.8707   24.2770   -2.2967 N   0  0  0  0  0  0  0  0  0  0  0  0
   12.5549   24.0724   -1.7825 C   0  0  0  0  0  0  0  0  0  0  0  0
   11.1794   22.4880    0.3970 N   0  0  0  0  0  0  0  0  0  0  0  0
   12.5579   22.6495    0.3761 C   0  0  0  0  0  0  0  0  0  0  0  0
   13.2916   22.4813    1.2952 O   0  0  0  0  0  0  0  0  0  0  0  0
   11.2643   22.3473    1.7522 H   0  0  0  0  0  0  0  0  0  0  0  0
    9.8436   24.2463    2.0092 C   0  0  0  0  0  0  0  0  0  0  0  0
    9.1044   23.0942    1.3533 C   0  0  0  0  0  0  0  0  0  0  0  0
    7.8033   22.8740    1.5828 N   0  0  0  0  0  0  0  0  0  0  0  0
    7.1198   21.9331    0.9734 C   0  0  0  0  0  0  0  0  0  0  0  0
    7.8139   21.1303    0.0376 C   0  0  0  0  0  0  0  0  0  0  0  0
    9.1181   21.3303   -0.2047 C   0  0  0  0  0  0  0  0  0  0  0  0
    9.8617   22.3309    0.4325 C   0  0  0  0  0  0  0  0  0  0  0  0
   16.1277   27.6221   -8.2998 C   0  0  0  0  0  0  0  0  0  0  0  0
   15.5403   27.5919   -9.3850 O   0  0  0  0  0  0  0  0  0  0  0  0
   17.0745   28.6949   -8.0718 N   0  0  0  0  0  0  0  0  0  0  0  0
   17.6285   28.6610   -7.1243 H   0  0  0  0  0  0  0  0  0  0  0  0
   17.3899   29.7941   -8.9094 C   0  0  0  0  0  0  0  0  0  0  0  0
   16.6295   31.0302   -8.4503 C   0  0  0  0  0  0  0  0  0  0  0  0
   16.5307   29.4441  -10.2351 C   0  0  0  0  0  0  0  0  0  0  0  0
   18.7336   29.9239   -9.3865 C   0  0  0  0  0  0  0  0  0  0  0  0
   19.6529   30.7896   -8.8004 C   0  0  0  0  0  0  0  0  0  0  0  0
   20.9153   30.8815   -9.3191 C   0  0  0  0  0  0  0  0  0  0  0  0
   21.2850   30.1476  -10.4009 C   0  0  0  0  0  0  0  0  0  0  0  0
   20.3557   29.2822  -10.9979 C   0  0  0  0  0  0  0  0  0  0  0  0
   19.1472   29.1924  -10.4891 N   0  0  0  0  0  0  0  0  0  0  0  0
 18 19  1  0  0  0
 19 20  2  0  0  0
 20 21  1  0  0  0
 21 22  2  0  0  0
 22 23  1  0  0  0
 23 24  2  0  0  0
 24 14  1  0  0  0
 14 15  1  0  0  0
 15 16  2  0  0  0
 15 10  1  0  0  0
 10 11  1  0  0  0
 11 12  1  0  0  0
 12 13  1  0  0  0
 12  1  1  0  0  0
  1  2  2  0  0  0
  2  3  1  0  0  0
  3  4  2  0  0  0
  4  5  1  0  0  0
  5  6  2  0  0  0
  6  7  1  0  0  0
  7  8  1  0  0  0
  8  9  2  0  0  0
  6 25  1  0  0  0
 25 26  2  0  0  0
 25 27  1  0  0  0
 27 29  1  0  0  0
 29 30  1  0  0  0
 29 31  1  0  0  0
 29 32  1  0  0  0
 32 33  2  0  0  0
 33 34  1  0  0  0
 34 35  2  0  0  0
 35 36  1  0  0  0
 36 37  2  0  0  0
 24 19  1  0  0  0
 13 10  1  0  0  0
  9  1  1  0  0  0
 37 32  1  0  0  0
  8  4  1  0  0  0
 14 17  1  0  0  0
 27 28  1  0  0  0
M  END
> <minimizedAffinity>
54.79716

> <CNNscore>
0.3395396471

> <CNNaffinity>
6.9387922287

> <CNN_VS>
2.3559951782

> <CNNaffinity_variance>
0.2285443544

$$$$
[H]c1nc(C(N([H])C(=O)c2nc3c([H])c([H])c(N4C([H])([H])C([H])(C(=O)N([H])c5c(C([H])([H])[H])nc([H])c([H])c5[H])C4([H])[H])c([H])c3o2)(C([H])([H])[H])C([H])([H])[H])c([H])c([H])c1[H]


 37 41  0  0  0  0  0  0  0  0999 V2000
   15.2165   24.4736   -0.9209 C   0  0  0  0  0  0  0  0  0  0  0  0
   13.9991   23.7936   -0.7559 C   0  0  0  0  0  0  0  0  0  0  0  0
   12.8369   24.1937   -1.4003 C   0  0  0  0  0  0  0  0  0  0  0  0
   12.8033   25.2907   -2.2366 C   0  0  0  0  0  0  0  0  0  0  0  0
   11.8632   25.9039   -2.9632 N   0  0  0  0  0  0  0  0  0  0  0  0
   12.4283   26.9382   -3.5759 C   0  0  0  0  0  0  0  0  0  0  0  0
   13.6844   26.9411   -3.2281 O   0  0  0  0  0  0  0  0  0  0  0  0
   13.9853   25.9780   -2.4194 C   0  0  0  0  0  0  0  0  0  0  0  0
   15.1025   25.5578   -1.7692 C   0  0  0  0  0  0  0  0  0  0  0  0
   17.6878   24.4732    1.1136 C   0  0  0  0  0  0  0  0  0  0  0  0
   16.8061   23.2848    0.8100 C   0  0  0  0  0  0  0  0  0  0  0  0
   16.4239   24.1667   -0.3236 N   0  0  0  0  0  0  0  0  0  0  0  0
   17.8307   24.4058   -0.3614 C   0  0  0  0  0  0  0  0  0  0  0  0
   18.8259   23.5151    3.1281 N   0  0  0  0  0  0  0  0  0  0  0  0
   18.9044   24.3035    1.9883 C   0  0  0  0  0  0  0  0  0  0  0  0
   19.8634   24.9005    1.6207 O   0  0  0  0  0  0  0  0  0  0  0  0
   20.0536   23.9931    3.4854 H   0  0  0  0  0  0  0  0  0  0  0  0
   17.1128   21.3890    2.9856 C   0  0  0  0  0  0  0  0  0  0  0  0
   17.7967   21.7359    4.2956 C   0  0  0  0  0  0  0  0  0  0  0  0
   17.5452   21.0537    5.4205 N   0  0  0  0  0  0  0  0  0  0  0  0
   18.1755   21.2811    6.5496 C   0  0  0  0  0  0  0  0  0  0  0  0
   19.1591   22.2981    6.5497 C   0  0  0  0  0  0  0  0  0  0  0  0
   19.4242   22.9969    5.4356 C   0  0  0  0  0  0  0  0  0  0  0  0
   18.7652   22.7658    4.2222 C   0  0  0  0  0  0  0  0  0  0  0  0
   11.8296   27.9297   -4.4530 C   0  0  0  0  0  0  0  0  0  0  0  0
   12.1990   28.2048   -5.5982 O   0  0  0  0  0  0  0  0  0  0  0  0
   10.6865   28.6432   -3.9205 N   0  0  0  0  0  0  0  0  0  0  0  0
   10.4193   28.4242   -2.8781 H   0  0  0  0  0  0  0  0  0  0  0  0
    9.8556   29.5952   -4.5630 C   0  0  0  0  0  0  0  0  0  0  0  0
   10.6654   30.3869   -5.5800 C   0  0  0  0  0  0  0  0  0  0  0  0
    9.7146   30.7254   -3.4138 C   0  0  0  0  0  0  0  0  0  0  0  0
    8.5042   29.2287   -4.8621 C   0  0  0  0  0  0  0  0  0  0  0  0
    8.1694   28.4509   -5.9671 C   0  0  0  0  0  0  0  0  0  0  0  0
    6.8558   28.1545   -6.2075 C   0  0  0  0  0  0  0  0  0  0  0  0
    5.8717   28.6122   -5.3903 C   0  0  0  0  0  0  0  0  0  0  0  0
    6.2081   29.4042   -4.2820 C   0  0  0  0  0  0  0  0  0  0  0  0
    7.4727   29.6780   -4.0520 N   0  0  0  0  0  0  0  0  0  0  0  0
 18 19  1  0  0  0
 19 20  2  0  0  0
 20 21  1  0  0  0
 21 22  2  0  0  0
 22 23  1  0  0  0
 23 24  2  0  0  0
 24 14  1  0  0  0
 14 15  1  0  0  0
 15 16  2  0  0  0
 15 10  1  0  0  0
 10 11  1  0  0  0
 11 12  1  0  0  0
 12 13  1  0  0  0
 12  1  1  0  0  0
  1  2  2  0  0  0
  2  3  1  0  0  0
  3  4  2  0  0  0
  4  5  1  0  0  0
  5  6  2  0  0  0
  6  7  1  0  0  0
  7  8  1  0  0  0
  8  9  2  0  0  0
  6 25  1  0  0  0
 25 26  2  0  0  0
 25 27  1  0  0  0
 27 29  1  0  0  0
 29 30  1  0  0  0
 29 31  1  0  0  0
 29 32  1  0  0  0
 32 33  2  0  0  0
 33 34  1  0  0  0
 34 35  2  0  0  0
 35 36  1  0  0  0
 36 37  2  0  0  0
 24 19  1  0  0  0
 13 10  1  0  0  0
  9  1  1  0  0  0
 37 32  1  0  0  0
  8  4  1  0  0  0
 14 17  1  0  0  0
 27 28  1  0  0  0
M  END
> <minimizedAffinity>
61.48685

> <CNNscore>
0.2605719268

> <CNNaffinity>
6.2069401741

> <CNN_VS>
1.6173543930

> <CNNaffinity_variance>
0.7132179737

$$$$
[H]c1c([H])c(N(C([H])([H])C([H])([H])C([H])([H])[H])C([H])([H])C([H])([H])C([H])([H])[H])c(Cl)c([H])c1-c1c([H])c([N+](=O)[O-])nc2c1c(C(=O)N([H])[H])nn2C([H])([H])[H]


 32 34  0  0  0  0  0  0  0  0999 V2000
   13.1741   24.9451   -1.8346 C   0  0  0  0  0  0  0  0  0  0  0  0
   12.6732   25.6701   -2.9403 C   0  0  0  0  0  0  0  0  0  0  0  0
   13.5278   26.3826   -3.7110 C   0  0  0  0  0  0  0  0  0  0  0  0
   14.8532   26.4233   -3.4557 N   0  0  0  0  0  0  0  0  0  0  0  0
   15.3460   25.7530   -2.4306 C   0  0  0  0  0  0  0  0  0  0  0  0
   16.5875   25.6220   -1.9600 N   0  0  0  0  0  0  0  0  0  0  0  0
   17.7670   26.2530   -2.5331 C   0  0  0  0  0  0  0  0  0  0  0  0
   16.5835   24.8585   -0.9313 N   0  0  0  0  0  0  0  0  0  0  0  0
   15.2985   24.4180   -0.6434 C   0  0  0  0  0  0  0  0  0  0  0  0
   14.5049   24.9950   -1.5988 C   0  0  0  0  0  0  0  0  0  0  0  0
   10.3132   23.1787    0.6812 C   0  0  0  0  0  0  0  0  0  0  0  0
   10.9084   24.3774    1.0549 C   0  0  0  0  0  0  0  0  0  0  0  0
   11.8625   24.9321    0.2132 C   0  0  0  0  0  0  0  0  0  0  0  0
   12.2143   24.3129   -0.9654 C   0  0  0  0  0  0  0  0  0  0  0  0
   11.6001   23.1301   -1.2938 C   0  0  0  0  0  0  0  0  0  0  0  0
   10.6374   22.5306   -0.4860 C   0  0  0  0  0  0  0  0  0  0  0  0
    9.8946   21.0025   -0.9679 Cl  0  0  0  0  0  0  0  0  0  0  0  0
    9.3048   22.5575    1.5180 N   0  0  0  0  0  0  0  0  0  0  0  0
    8.0047   23.1359    1.6422 C   0  0  0  0  0  0  0  0  0  0  0  0
    7.9219   25.3047    2.9741 C   0  0  0  0  0  0  0  0  0  0  0  0
    7.6669   23.8328    2.9120 C   0  0  0  0  0  0  0  0  0  0  0  0
    9.6676   21.3513    2.2077 C   0  0  0  0  0  0  0  0  0  0  0  0
   10.9133   21.6436    3.0480 C   0  0  0  0  0  0  0  0  0  0  0  0
   12.0132   20.6689    2.6460 C   0  0  0  0  0  0  0  0  0  0  0  0
   15.0669   23.5343    0.4708 C   0  0  0  0  0  0  0  0  0  0  0  0
   14.9731   22.1404    0.1954 N   0  0  0  0  0  0  0  0  0  0  0  0
   14.9445   23.8732    1.6344 O   0  0  0  0  0  0  0  0  0  0  0  0
   14.1513   21.8473   -0.3619 H   0  0  0  0  0  0  0  0  0  0  0  0
   15.6463   21.4188    0.5015 H   0  0  0  0  0  0  0  0  0  0  0  0
   13.0521   27.1216   -4.8267 N   0  0  0  0  0  0  0  0  0  0  0  0
   13.7047   27.1619   -6.0293 O   0  0  0  0  0  0  0  0  0  0  0  0
   11.9954   27.7631   -4.7104 O   0  0  0  0  0  0  0  0  0  0  0  0
 20 21  1  0  0  0
 21 19  1  0  0  0
 19 18  1  0  0  0
 18 22  1  0  0  0
 22 23  1  0  0  0
 23 24  1  0  0  0
 18 11  1  0  0  0
 11 12  2  0  0  0
 12 13  1  0  0  0
 13 14  2  0  0  0
 14 15  1  0  0  0
 15 16  2  0  0  0
 16 17  1  0  0  0
 14  1  1  0  0  0
  1  2  2  0  0  0
  2  3  1  0  0  0
  3  4  2  0  0  0
  4  5  1  0  0  0
  5  6  1  0  0  0
  6  7  1  0  0  0
  6  8  1  0  0  0
  8  9  2  0  0  0
  9 25  1  0  0  0
 25 26  1  0  0  0
 25 27  2  0  0  0
  9 10  1  0  0  0
  3 30  1  0  0  0
 30 31  1  0  0  0
 30 32  2  0  0  0
 16 11  1  0  0  0
 10  1  1  0  0  0
 10  5  2  0  0  0
 26 28  1  0  0  0
 26 29  1  0  0  0
M  CHG 1  30   1
M  CHG 1  31  -1
M  END
> <minimizedAffinity>
-4.55506

> <CNNscore>
0.5309160352

> <CNNaffinity>
7.6665906906

> <CNN_VS>
4.0703158379

> <CNNaffinity_variance>
0.3840143979

$$$$
[H]c1c([H])c(N(C([H])([H])C([H])([H])C([H])([H])[H])C([H])([H])C([H])([H])C([H])([H])[H])c(Cl)c([H])c1-c1c([H])c([N+](=O)[O-])nc2c1c(C(=O)N([H])[H])nn2C([H])([H])[H]


 32 34  0  0  0  0  0  0  0  0999 V2000
   12.9677   24.6984   -1.7819 C   0  0  0  0  0  0  0  0  0  0  0  0
   12.5477   25.5032   -2.8659 C   0  0  0  0  0  0  0  0  0  0  0  0
   13.4630   26.2285   -3.5498 C   0  0  0  0  0  0  0  0  0  0  0  0
   14.7742   26.2081   -3.2276 N   0  0  0  0  0  0  0  0  0  0  0  0
   15.1921   25.4629   -2.2211 C   0  0  0  0  0  0  0  0  0  0  0  0
   16.4031   25.2616   -1.6985 N   0  0  0  0  0  0  0  0  0  0  0  0
   17.6299   25.8829   -2.1743 C   0  0  0  0  0  0  0  0  0  0  0  0
   16.3218   24.4406   -0.7185 N   0  0  0  0  0  0  0  0  0  0  0  0
   15.0103   24.0294   -0.5209 C   0  0  0  0  0  0  0  0  0  0  0  0
   14.2856   24.6880   -1.4783 C   0  0  0  0  0  0  0  0  0  0  0  0
   10.0540   22.7426    0.5244 C   0  0  0  0  0  0  0  0  0  0  0  0
   10.5736   22.1142   -0.6007 C   0  0  0  0  0  0  0  0  0  0  0  0
   11.5238   22.7888   -1.3547 C   0  0  0  0  0  0  0  0  0  0  0  0
   11.9448   24.0511   -1.0002 C   0  0  0  0  0  0  0  0  0  0  0  0
   11.4038   24.6328    0.1193 C   0  0  0  0  0  0  0  0  0  0  0  0
   10.4482   24.0009    0.9104 C   0  0  0  0  0  0  0  0  0  0  0  0
    9.7890   24.8136    2.3330 Cl  0  0  0  0  0  0  0  0  0  0  0  0
    9.0643   22.0821    1.3536 N   0  0  0  0  0  0  0  0  0  0  0  0
    7.6925   22.0426    0.9577 C   0  0  0  0  0  0  0  0  0  0  0  0
    7.7537   20.0673   -0.6482 C   0  0  0  0  0  0  0  0  0  0  0  0
    7.1241   20.7358    0.5318 C   0  0  0  0  0  0  0  0  0  0  0  0
    9.5195   21.4786    2.5745 C   0  0  0  0  0  0  0  0  0  0  0  0
   11.0220   21.2182    2.4419 C   0  0  0  0  0  0  0  0  0  0  0  0
   11.3983   20.0553    3.3515 C   0  0  0  0  0  0  0  0  0  0  0  0
   14.6937   23.0916    0.5261 C   0  0  0  0  0  0  0  0  0  0  0  0
   14.9791   21.7173    0.2856 N   0  0  0  0  0  0  0  0  0  0  0  0
   14.2021   23.3692    1.6055 O   0  0  0  0  0  0  0  0  0  0  0  0
   14.4145   21.2645   -0.4546 H   0  0  0  0  0  0  0  0  0  0  0  0
   15.6891   21.1535    0.7811 H   0  0  0  0  0  0  0  0  0  0  0  0
   13.0690   27.0469   -4.6418 N   0  0  0  0  0  0  0  0  0  0  0  0
   13.7482   27.0855   -5.8297 O   0  0  0  0  0  0  0  0  0  0  0  0
   12.0624   27.7630   -4.5176 O   0  0  0  0  0  0  0  0  0  0  0  0
 20 21  1  0  0  0
 21 19  1  0  0  0
 19 18  1  0  0  0
 18 22  1  0  0  0
 22 23  1  0  0  0
 23 24  1  0  0  0
 18 11  1  0  0  0
 11 12  2  0  0  0
 12 13  1  0  0  0
 13 14  2  0  0  0
 14 15  1  0  0  0
 15 16  2  0  0  0
 16 17  1  0  0  0
 14  1  1  0  0  0
  1  2  2  0  0  0
  2  3  1  0  0  0
  3  4  2  0  0  0
  4  5  1  0  0  0
  5  6  1  0  0  0
  6  7  1  0  0  0
  6  8  1  0  0  0
  8  9  2  0  0  0
  9 25  1  0  0  0
 25 26  1  0  0  0
 25 27  2  0  0  0
  9 10  1  0  0  0
  3 30  1  0  0  0
 30 31  1  0  0  0
 30 32  2  0  0  0
 16 11  1  0  0  0
 10  1  1  0  0  0
 10  5  2  0  0  0
 26 28  1  0  0  0
 26 29  1  0  0  0
M  CHG 1  30   1
M  CHG 1  31  -1
M  END
> <minimizedAffinity>
-4.88702

> <CNNscore>
0.5303311348

> <CNNaffinity>
7.7713570595

> <CNN_VS>
4.1213927269

> <CNNaffinity_variance>
0.4682818353

$$$$
[H]c1c([H])c(N(C([H])([H])C([H])([H])C([H])([H])[H])C([H])([H])C([H])([H])C([H])([H])[H])c(Cl)c([H])c1-c1c([H])c([N+](=O)[O-])nc2c1c(C(=O)N([H])[H])nn2C([H])([H])[H]


 32 34  0  0  0  0  0  0  0  0999 V2000
   14.6478   24.9456   -3.2016 C   0  0  0  0  0  0  0  0  0  0  0  0
   14.3110   25.1562   -4.5586 C   0  0  0  0  0  0  0  0  0  0  0  0
   15.0529   26.0084   -5.3037 C   0  0  0  0  0  0  0  0  0  0  0  0
   16.1123   26.6686   -4.7886 N   0  0  0  0  0  0  0  0  0  0  0  0
   16.4487   26.4874   -3.5250 C   0  0  0  0  0  0  0  0  0  0  0  0
   17.4263   27.0009   -2.7762 N   0  0  0  0  0  0  0  0  0  0  0  0
   18.4167   27.9601   -3.2419 C   0  0  0  0  0  0  0  0  0  0  0  0
   17.3612   26.5225   -1.5896 N   0  0  0  0  0  0  0  0  0  0  0  0
   16.3034   25.6309   -1.4697 C   0  0  0  0  0  0  0  0  0  0  0  0
   15.7150   25.6126   -2.7063 C   0  0  0  0  0  0  0  0  0  0  0  0
   11.9728   22.5918   -0.9794 C   0  0  0  0  0  0  0  0  0  0  0  0
   11.6475   23.9112   -1.2694 C   0  0  0  0  0  0  0  0  0  0  0  0
   12.5560   24.6723   -1.9917 C   0  0  0  0  0  0  0  0  0  0  0  0
   13.7527   24.1371   -2.4132 C   0  0  0  0  0  0  0  0  0  0  0  0
   14.0317   22.8292   -2.1036 C   0  0  0  0  0  0  0  0  0  0  0  0
   13.1564   22.0220   -1.3819 C   0  0  0  0  0  0  0  0  0  0  0  0
   13.5852   20.3491   -1.0122 Cl  0  0  0  0  0  0  0  0  0  0  0  0
   11.0584   21.7478   -0.2346 N   0  0  0  0  0  0  0  0  0  0  0  0
   10.0425   21.0033   -0.9082 C   0  0  0  0  0  0  0  0  0  0  0  0
    7.6709   20.0774   -0.9602 C   0  0  0  0  0  0  0  0  0  0  0  0
    8.7408   20.8095   -0.2152 C   0  0  0  0  0  0  0  0  0  0  0  0
   11.2177   21.6959    1.1916 C   0  0  0  0  0  0  0  0  0  0  0  0
   11.2116   23.1323    1.7208 C   0  0  0  0  0  0  0  0  0  0  0  0
    9.7998   23.4787    2.1769 C   0  0  0  0  0  0  0  0  0  0  0  0
   16.0547   24.9640   -0.2170 C   0  0  0  0  0  0  0  0  0  0  0  0
   17.1175   24.1987    0.3421 N   0  0  0  0  0  0  0  0  0  0  0  0
   15.0120   24.9965    0.4119 O   0  0  0  0  0  0  0  0  0  0  0  0
   17.3907   23.3539   -0.1903 H   0  0  0  0  0  0  0  0  0  0  0  0
   17.6233   24.4179    1.2160 H   0  0  0  0  0  0  0  0  0  0  0  0
   14.7364   26.2403   -6.6687 N   0  0  0  0  0  0  0  0  0  0  0  0
   15.3389   25.5709   -7.6995 O   0  0  0  0  0  0  0  0  0  0  0  0
   13.8737   27.0894   -6.9448 O   0  0  0  0  0  0  0  0  0  0  0  0
 20 21  1  0  0  0
 21 19  1  0  0  0
 19 18  1  0  0  0
 18 22  1  0  0  0
 22 23  1  0  0  0
 23 24  1  0  0  0
 18 11  1  0  0  0
 11 12  2  0  0  0
 12 13  1  0  0  0
 13 14  2  0  0  0
 14 15  1  0  0  0
 15 16  2  0  0  0
 16 17  1  0  0  0
 14  1  1  0  0  0
  1  2  2  0  0  0
  2  3  1  0  0  0
  3  4  2  0  0  0
  4  5  1  0  0  0
  5  6  1  0  0  0
  6  7  1  0  0  0
  6  8  1  0  0  0
  8  9  2  0  0  0
  9 25  1  0  0  0
 25 26  1  0  0  0
 25 27  2  0  0  0
  9 10  1  0  0  0
  3 30  1  0  0  0
 30 31  1  0  0  0
 30 32  2  0  0  0
 16 11  1  0  0  0
 10  1  1  0  0  0
 10  5  2  0  0  0
 26 28  1  0  0  0
 26 29  1  0  0  0
M  CHG 1  30   1
M  CHG 1  31  -1
M  END
> <minimizedAffinity>
-5.45626

> <CNNscore>
0.5247045159

> <CNNaffinity>
7.9000253677

> <CNN_VS>
4.1451787949

> <CNNaffinity_variance>
0.3701175451

$$$$
[H]c1c([H])c(N(C([H])([H])C([H])([H])C([H])([H])[H])C([H])([H])C([H])([H])C([H])([H])[H])c(Cl)c([H])c1-c1c([H])c([N+](=O)[O-])nc2c1c(C(=O)N([H])[H])nn2C([H])([H])[H]


 32 34  0  0  0  0  0  0  0  0999 V2000
   13.8366   25.1119   -2.0421 C   0  0  0  0  0  0  0  0  0  0  0  0
   13.1887   25.6554   -3.1752 C   0  0  0  0  0  0  0  0  0  0  0  0
   13.8798   26.4628   -4.0132 C   0  0  0  0  0  0  0  0  0  0  0  0
   15.1778   26.7681   -3.8001 N   0  0  0  0  0  0  0  0  0  0  0  0
   15.8061   26.2713   -2.7506 C   0  0  0  0  0  0  0  0  0  0  0  0
   17.0580   26.4068   -2.3096 N   0  0  0  0  0  0  0  0  0  0  0  0
   18.0869   27.2083   -2.9551 C   0  0  0  0  0  0  0  0  0  0  0  0
   17.2161   25.7258   -1.2361 N   0  0  0  0  0  0  0  0  0  0  0  0
   16.0427   25.0723   -0.8838 C   0  0  0  0  0  0  0  0  0  0  0  0
   15.1379   25.4258   -1.8492 C   0  0  0  0  0  0  0  0  0  0  0  0
   11.3998   22.9914    0.6411 C   0  0  0  0  0  0  0  0  0  0  0  0
   11.4864   24.3748    0.7397 C   0  0  0  0  0  0  0  0  0  0  0  0
   12.3112   25.0502   -0.1492 C   0  0  0  0  0  0  0  0  0  0  0  0
   13.0287   24.3699   -1.1077 C   0  0  0  0  0  0  0  0  0  0  0  0
   12.9121   23.0036   -1.1677 C   0  0  0  0  0  0  0  0  0  0  0  0
   12.0998   22.2773   -0.3010 C   0  0  0  0  0  0  0  0  0  0  0  0
   12.0049   20.5186   -0.4307 Cl  0  0  0  0  0  0  0  0  0  0  0  0
   10.5479   22.2348    1.5383 N   0  0  0  0  0  0  0  0  0  0  0  0
   11.0064   21.8674    2.8402 C   0  0  0  0  0  0  0  0  0  0  0  0
   11.2351   19.8568    4.3862 C   0  0  0  0  0  0  0  0  0  0  0  0
   11.4834   20.4739    3.0471 C   0  0  0  0  0  0  0  0  0  0  0  0
    9.2407   21.8755    1.0648 C   0  0  0  0  0  0  0  0  0  0  0  0
    8.2245   22.8086    1.7281 C   0  0  0  0  0  0  0  0  0  0  0  0
    7.2135   21.9642    2.4938 C   0  0  0  0  0  0  0  0  0  0  0  0
   16.0014   24.2366    0.2892 C   0  0  0  0  0  0  0  0  0  0  0  0
   17.2279   23.6635    0.7310 N   0  0  0  0  0  0  0  0  0  0  0  0
   15.0069   23.9751    0.9422 O   0  0  0  0  0  0  0  0  0  0  0  0
   17.6482   22.9601    0.0984 H   0  0  0  0  0  0  0  0  0  0  0  0
   17.7169   23.8916    1.6121 H   0  0  0  0  0  0  0  0  0  0  0  0
   13.2538   27.0241   -5.1580 N   0  0  0  0  0  0  0  0  0  0  0  0
   13.8263   27.0172   -6.4014 O   0  0  0  0  0  0  0  0  0  0  0  0
   12.1351   27.5471   -5.0297 O   0  0  0  0  0  0  0  0  0  0  0  0
 20 21  1  0  0  0
 21 19  1  0  0  0
 19 18  1  0  0  0
 18 22  1  0  0  0
 22 23  1  0  0  0
 23 24  1  0  0  0
 18 11  1  0  0  0
 11 12  2  0  0  0
 12 13  1  0  0  0
 13 14  2  0  0  0
 14 15  1  0  0  0
 15 16  2  0  0  0
 16 17  1  0  0  0
 14  1  1  0  0  0
  1  2  2  0  0  0
  2  3  1  0  0  0
  3  4  2  0  0  0
  4  5  1  0  0  0
  5  6  1  0  0  0
  6  7  1  0  0  0
  6  8  1  0  0  0
  8  9  2  0  0  0
  9 25  1  0  0  0
 25 26  1  0  0  0
 25 27  2  0  0  0
  9 10  1  0  0  0
  3 30  1  0  0  0
 30 31  1  0  0  0
 30 32  2  0  0  0
 16 11  1  0  0  0
 10  1  1  0  0  0
 10  5  2  0  0  0
 26 28  1  0  0  0
 26 29  1  0  0  0
M  CHG 1  30   1
M  CHG 1  31  -1
M  END
> <minimizedAffinity>
-4.87288

> <CNNscore>
0.4953482449

> <CNNaffinity>
7.6247239113

> <CNN_VS>
3.7768936157

> <CNNaffinity_variance>
0.2974426150

$$$$
[H]c1c([H])c(N(C([H])([H])C([H])([H])C([H])([H])[H])C([H])([H])C([H])([H])C([H])([H])[H])c(Cl)c([H])c1-c1c([H])c([N+](=O)[O-])nc2c1c(C(=O)N([H])[H])nn2C([H])([H])[H]


 32 34  0  0  0  0  0  0  0  0999 V2000
   14.7393   24.9843   -3.2427 C   0  0  0  0  0  0  0  0  0  0  0  0
   14.3591   25.1698   -4.5919 C   0  0  0  0  0  0  0  0  0  0  0  0
   15.0616   26.0264   -5.3693 C   0  0  0  0  0  0  0  0  0  0  0  0
   16.1220   26.7144   -4.8941 N   0  0  0  0  0  0  0  0  0  0  0  0
   16.4985   26.5570   -3.6386 C   0  0  0  0  0  0  0  0  0  0  0  0
   17.4869   27.0999   -2.9255 N   0  0  0  0  0  0  0  0  0  0  0  0
   18.4437   28.0721   -3.4324 C   0  0  0  0  0  0  0  0  0  0  0  0
   17.4659   26.6363   -1.7314 N   0  0  0  0  0  0  0  0  0  0  0  0
   16.4302   25.7256   -1.5691 C   0  0  0  0  0  0  0  0  0  0  0  0
   15.8067   25.6789   -2.7875 C   0  0  0  0  0  0  0  0  0  0  0  0
   12.1770   22.6103   -0.9119 C   0  0  0  0  0  0  0  0  0  0  0  0
   11.8326   23.9289   -1.1830 C   0  0  0  0  0  0  0  0  0  0  0  0
   12.7045   24.6968   -1.9424 C   0  0  0  0  0  0  0  0  0  0  0  0
   13.8840   24.1688   -2.4181 C   0  0  0  0  0  0  0  0  0  0  0  0
   14.1829   22.8615   -2.1253 C   0  0  0  0  0  0  0  0  0  0  0  0
   13.3444   22.0477   -1.3682 C   0  0  0  0  0  0  0  0  0  0  0  0
   13.7974   20.3760   -1.0231 Cl  0  0  0  0  0  0  0  0  0  0  0  0
   11.3007   21.7595   -0.1300 N   0  0  0  0  0  0  0  0  0  0  0  0
   11.3443   21.7857    1.2974 C   0  0  0  0  0  0  0  0  0  0  0  0
   11.6489   20.1584    3.2323 C   0  0  0  0  0  0  0  0  0  0  0  0
   12.1980   20.7840    1.9903 C   0  0  0  0  0  0  0  0  0  0  0  0
   10.3999   20.9003   -0.8460 C   0  0  0  0  0  0  0  0  0  0  0  0
    9.0378   20.9579   -0.1500 C   0  0  0  0  0  0  0  0  0  0  0  0
    8.0552   20.0909   -0.9273 C   0  0  0  0  0  0  0  0  0  0  0  0
   16.2316   25.0709   -0.3011 C   0  0  0  0  0  0  0  0  0  0  0  0
   17.3063   24.2887    0.2099 N   0  0  0  0  0  0  0  0  0  0  0  0
   15.2222   25.1270    0.3784 O   0  0  0  0  0  0  0  0  0  0  0  0
   17.5368   23.4358   -0.3297 H   0  0  0  0  0  0  0  0  0  0  0  0
   17.8589   24.5033    1.0561 H   0  0  0  0  0  0  0  0  0  0  0  0
   14.7010   26.2335   -6.7274 N   0  0  0  0  0  0  0  0  0  0  0  0
   15.2718   25.5471   -7.7651 O   0  0  0  0  0  0  0  0  0  0  0  0
   13.8278   27.0760   -6.9906 O   0  0  0  0  0  0  0  0  0  0  0  0
 20 21  1  0  0  0
 21 19  1  0  0  0
 19 18  1  0  0  0
 18 22  1  0  0  0
 22 23  1  0  0  0
 23 24  1  0  0  0
 18 11  1  0  0  0
 11 12  2  0  0  0
 12 13  1  0  0  0
 13 14  2  0  0  0
 14 15  1  0  0  0
 15 16  2  0  0  0
 16 17  1  0  0  0
 14  1  1  0  0  0
  1  2  2  0  0  0
  2  3  1  0  0  0
  3  4  2  0  0  0
  4  5  1  0  0  0
  5  6  1  0  0  0
  6  7  1  0  0  0
  6  8  1  0  0  0
  8  9  2  0  0  0
  9 25  1  0  0  0
 25 26  1  0  0  0
 25 27  2  0  0  0
  9 10  1  0  0  0
  3 30  1  0  0  0
 30 31  1  0  0  0
 30 32  2  0  0  0
 16 11  1  0  0  0
 10  1  1  0  0  0
 10  5  2  0  0  0
 26 28  1  0  0  0
 26 29  1  0  0  0
M  CHG 1  30   1
M  CHG 1  31  -1
M  END
> <minimizedAffinity>
-5.61075

> <CNNscore>
0.4916988015

> <CNNaffinity>
7.8977670670

> <CNN_VS>
3.8833227158

> <CNNaffinity_variance>
0.3029316962

$$$$
[H]c1c([H])c(N(C([H])([H])C([H])([H])C([H])([H])[H])C([H])([H])C([H])([H])C([H])([H])[H])c(Cl)c([H])c1-c1c([H])c([N+](=O)[O-])nc2c1c(C(=O)N([H])[H])nn2C([H])([H])[H]


 32 34  0  0  0  0  0  0  0  0999 V2000
   12.6744   24.0751   -1.4531 C   0  0  0  0  0  0  0  0  0  0  0  0
   12.4523   24.9906   -2.5075 C   0  0  0  0  0  0  0  0  0  0  0  0
   13.4801   25.7456   -2.9607 C   0  0  0  0  0  0  0  0  0  0  0  0
   14.7200   25.6517   -2.4341 N   0  0  0  0  0  0  0  0  0  0  0  0
   14.9537   24.8028   -1.4504 C   0  0  0  0  0  0  0  0  0  0  0  0
   16.0587   24.5137   -0.7608 N   0  0  0  0  0  0  0  0  0  0  0  0
   17.3578   25.1355   -0.9693 C   0  0  0  0  0  0  0  0  0  0  0  0
   15.8032   23.6084    0.1088 N   0  0  0  0  0  0  0  0  0  0  0  0
   14.4701   23.2244    0.0507 C   0  0  0  0  0  0  0  0  0  0  0  0
   13.9241   23.9928   -0.9428 C   0  0  0  0  0  0  0  0  0  0  0  0
    9.3885   22.0296    0.1757 C   0  0  0  0  0  0  0  0  0  0  0  0
   10.2868   21.3480   -0.6362 C   0  0  0  0  0  0  0  0  0  0  0  0
   11.3555   22.0510   -1.1749 C   0  0  0  0  0  0  0  0  0  0  0  0
   11.5258   23.3923   -0.9138 C   0  0  0  0  0  0  0  0  0  0  0  0
   10.6134   24.0244   -0.1063 C   0  0  0  0  0  0  0  0  0  0  0  0
    9.5241   23.3670    0.4592 C   0  0  0  0  0  0  0  0  0  0  0  0
    8.3844   24.2465    1.4824 Cl  0  0  0  0  0  0  0  0  0  0  0  0
    8.2580   21.3441    0.7716 N   0  0  0  0  0  0  0  0  0  0  0  0
    7.1234   20.9878   -0.0196 C   0  0  0  0  0  0  0  0  0  0  0  0
    7.3630   19.6929   -2.1992 C   0  0  0  0  0  0  0  0  0  0  0  0
    7.1427   19.6760   -0.7204 C   0  0  0  0  0  0  0  0  0  0  0  0
    8.3293   21.0445    2.1742 C   0  0  0  0  0  0  0  0  0  0  0  0
    7.1230   21.6929    2.8581 C   0  0  0  0  0  0  0  0  0  0  0  0
    7.3690   21.7174    4.3615 C   0  0  0  0  0  0  0  0  0  0  0  0
   13.9694   22.2044    0.9366 C   0  0  0  0  0  0  0  0  0  0  0  0
   14.6362   20.9462    0.9334 N   0  0  0  0  0  0  0  0  0  0  0  0
   13.0224   22.3216    1.6938 O   0  0  0  0  0  0  0  0  0  0  0  0
   14.5533   20.3965    0.0600 H   0  0  0  0  0  0  0  0  0  0  0  0
   15.1826   20.5515    1.7165 H   0  0  0  0  0  0  0  0  0  0  0  0
   13.2852   26.6745   -4.0173 N   0  0  0  0  0  0  0  0  0  0  0  0
   14.0013   26.6404   -5.1835 O   0  0  0  0  0  0  0  0  0  0  0  0
   12.4267   27.5610   -3.8812 O   0  0  0  0  0  0  0  0  0  0  0  0
 20 21  1  0  0  0
 21 19  1  0  0  0
 19 18  1  0  0  0
 18 22  1  0  0  0
 22 23  1  0  0  0
 23 24  1  0  0  0
 18 11  1  0  0  0
 11 12  2  0  0  0
 12 13  1  0  0  0
 13 14  2  0  0  0
 14 15  1  0  0  0
 15 16  2  0  0  0
 16 17  1  0  0  0
 14  1  1  0  0  0
  1  2  2  0  0  0
  2  3  1  0  0  0
  3  4  2  0  0  0
  4  5  1  0  0  0
  5  6  1  0  0  0
  6  7  1  0  0  0
  6  8  1  0  0  0
  8  9  2  0  0  0
  9 25  1  0  0  0
 25 26  1  0  0  0
 25 27  2  0  0  0
  9 10  1  0  0  0
  3 30  1  0  0  0
 30 31  1  0  0  0
 30 32  2  0  0  0
 16 11  1  0  0  0
 10  1  1  0  0  0
 10  5  2  0  0  0
 26 28  1  0  0  0
 26 29  1  0  0  0
M  CHG 1  30   1
M  CHG 1  31  -1
M  END
> <minimizedAffinity>
-5.70202

> <CNNscore>
0.4698554277

> <CNNaffinity>
7.5915551186

> <CNN_VS>
3.5669333935

> <CNNaffinity_variance>
0.3961673379

$$$$
[H]c1c([H])c(N(C([H])([H])C([H])([H])C([H])([H])[H])C([H])([H])C([H])([H])C([H])([H])[H])c(Cl)c([H])c1-c1c([H])c([N+](=O)[O-])nc2c1c(C(=O)N([H])[H])nn2C([H])([H])[H]


 32 34  0  0  0  0  0  0  0  0999 V2000
   12.6074   24.3659   -1.6307 C   0  0  0  0  0  0  0  0  0  0  0  0
   12.3354   25.2678   -2.6852 C   0  0  0  0  0  0  0  0  0  0  0  0
   13.3457   25.9961   -3.2150 C   0  0  0  0  0  0  0  0  0  0  0  0
   14.6144   25.8881   -2.7653 N   0  0  0  0  0  0  0  0  0  0  0  0
   14.8947   25.0514   -1.7834 C   0  0  0  0  0  0  0  0  0  0  0  0
   16.0356   24.7535   -1.1592 N   0  0  0  0  0  0  0  0  0  0  0  0
   17.3296   25.3476   -1.4593 C   0  0  0  0  0  0  0  0  0  0  0  0
   15.8196   23.8675   -0.2594 N   0  0  0  0  0  0  0  0  0  0  0  0
   14.4790   23.5072   -0.2273 C   0  0  0  0  0  0  0  0  0  0  0  0
   13.8851   24.2690   -1.1981 C   0  0  0  0  0  0  0  0  0  0  0  0
    9.3949   22.4005    0.2268 C   0  0  0  0  0  0  0  0  0  0  0  0
   10.1411   21.7344   -0.7377 C   0  0  0  0  0  0  0  0  0  0  0  0
   11.1876   22.4119   -1.3478 C   0  0  0  0  0  0  0  0  0  0  0  0
   11.4832   23.7134   -1.0087 C   0  0  0  0  0  0  0  0  0  0  0  0
   10.7190   24.3314   -0.0505 C   0  0  0  0  0  0  0  0  0  0  0  0
    9.6584   23.6984    0.5921 C   0  0  0  0  0  0  0  0  0  0  0  0
    8.7120   24.5585    1.8100 Cl  0  0  0  0  0  0  0  0  0  0  0  0
    8.2950   21.7394    0.9024 N   0  0  0  0  0  0  0  0  0  0  0  0
    8.3892   21.4006    2.2868 C   0  0  0  0  0  0  0  0  0  0  0  0
   10.0021   21.9145    4.1892 C   0  0  0  0  0  0  0  0  0  0  0  0
    9.7448   21.2430    2.8783 C   0  0  0  0  0  0  0  0  0  0  0  0
    7.1231   21.4438    0.1270 C   0  0  0  0  0  0  0  0  0  0  0  0
    7.1327   19.9469   -0.1928 C   0  0  0  0  0  0  0  0  0  0  0  0
    7.1230   19.7708   -1.7062 C   0  0  0  0  0  0  0  0  0  0  0  0
   14.0172   22.5114    0.7061 C   0  0  0  0  0  0  0  0  0  0  0  0
   14.6768   21.2494    0.7001 N   0  0  0  0  0  0  0  0  0  0  0  0
   13.1091   22.6522    1.5057 O   0  0  0  0  0  0  0  0  0  0  0  0
   14.5484   20.6799   -0.1548 H   0  0  0  0  0  0  0  0  0  0  0  0
   15.2590   20.8699    1.4647 H   0  0  0  0  0  0  0  0  0  0  0  0
   13.1010   26.9108   -4.2736 N   0  0  0  0  0  0  0  0  0  0  0  0
   12.0107   27.7378   -4.3095 O   0  0  0  0  0  0  0  0  0  0  0  0
   13.9110   26.9662   -5.2130 O   0  0  0  0  0  0  0  0  0  0  0  0
 20 21  1  0  0  0
 21 19  1  0  0  0
 19 18  1  0  0  0
 18 22  1  0  0  0
 22 23  1  0  0  0
 23 24  1  0  0  0
 18 11  1  0  0  0
 11 12  2  0  0  0
 12 13  1  0  0  0
 13 14  2  0  0  0
 14 15  1  0  0  0
 15 16  2  0  0  0
 16 17  1  0  0  0
 14  1  1  0  0  0
  1  2  2  0  0  0
  2  3  1  0  0  0
  3  4  2  0  0  0
  4  5  1  0  0  0
  5  6  1  0  0  0
  6  7  1  0  0  0
  6  8  1  0  0  0
  8  9  2  0  0  0
  9 25  1  0  0  0
 25 26  1  0  0  0
 25 27  2  0  0  0
  9 10  1  0  0  0
  3 30  1  0  0  0
 30 31  1  0  0  0
 30 32  2  0  0  0
 16 11  1  0  0  0
 10  1  1  0  0  0
 10  5  2  0  0  0
 26 28  1  0  0  0
 26 29  1  0  0  0
M  CHG 1  30   1
M  CHG 1  31  -1
M  END
> <minimizedAffinity>
-5.67358

> <CNNscore>
0.4650146365

> <CNNaffinity>
7.6209473610

> <CNN_VS>
3.5438520908

> <CNNaffinity_variance>
0.5858455896

$$$$
[H]c1c([H])c(N(C([H])([H])C([H])([H])C([H])([H])[H])C([H])([H])C([H])([H])C([H])([H])[H])c(Cl)c([H])c1-c1c([H])c([N+](=O)[O-])nc2c1c(C(=O)N([H])[H])nn2C([H])([H])[H]


 32 34  0  0  0  0  0  0  0  0999 V2000
   13.9294   22.6025   -2.3399 C   0  0  0  0  0  0  0  0  0  0  0  0
   14.2810   21.6144   -3.2883 C   0  0  0  0  0  0  0  0  0  0  0  0
   15.1157   21.9346   -4.3044 C   0  0  0  0  0  0  0  0  0  0  0  0
   15.6272   23.1768   -4.4424 N   0  0  0  0  0  0  0  0  0  0  0  0
   15.3161   24.1164   -3.5688 C   0  0  0  0  0  0  0  0  0  0  0  0
   15.6701   25.3990   -3.4692 N   0  0  0  0  0  0  0  0  0  0  0  0
   16.5549   26.0935   -4.3925 C   0  0  0  0  0  0  0  0  0  0  0  0
   15.1153   25.9238   -2.4407 N   0  0  0  0  0  0  0  0  0  0  0  0
   14.3330   24.9942   -1.7683 C   0  0  0  0  0  0  0  0  0  0  0  0
   14.4560   23.8388   -2.4931 C   0  0  0  0  0  0  0  0  0  0  0  0
   10.9887   21.5287    0.4588 C   0  0  0  0  0  0  0  0  0  0  0  0
   10.6303   22.2636   -0.6647 C   0  0  0  0  0  0  0  0  0  0  0  0
   11.6239   22.6193   -1.5662 C   0  0  0  0  0  0  0  0  0  0  0  0
   12.9352   22.2549   -1.3564 C   0  0  0  0  0  0  0  0  0  0  0  0
   13.2427   21.5292   -0.2326 C   0  0  0  0  0  0  0  0  0  0  0  0
   12.2855   21.1466    0.7032 C   0  0  0  0  0  0  0  0  0  0  0  0
   12.7549   20.2202    2.1316 Cl  0  0  0  0  0  0  0  0  0  0  0  0
    9.9911   21.1230    1.4302 N   0  0  0  0  0  0  0  0  0  0  0  0
    9.1770   19.9721    1.2001 C   0  0  0  0  0  0  0  0  0  0  0  0
    7.1609   20.2167   -0.3362 C   0  0  0  0  0  0  0  0  0  0  0  0
    8.5831   19.7936   -0.1518 C   0  0  0  0  0  0  0  0  0  0  0  0
    9.8599   21.9203    2.6172 C   0  0  0  0  0  0  0  0  0  0  0  0
    8.8385   23.0248    2.3345 C   0  0  0  0  0  0  0  0  0  0  0  0
    9.5185   24.3764    2.5143 C   0  0  0  0  0  0  0  0  0  0  0  0
   13.6264   25.3711   -0.5706 C   0  0  0  0  0  0  0  0  0  0  0  0
   12.6539   26.4056   -0.6795 N   0  0  0  0  0  0  0  0  0  0  0  0
   13.7852   24.8814    0.5334 O   0  0  0  0  0  0  0  0  0  0  0  0
   13.0230   27.3471   -0.9012 H   0  0  0  0  0  0  0  0  0  0  0  0
   11.6345   26.2898   -0.5576 H   0  0  0  0  0  0  0  0  0  0  0  0
   15.4843   20.9627   -5.2722 N   0  0  0  0  0  0  0  0  0  0  0  0
   16.7017   20.3368   -5.2763 O   0  0  0  0  0  0  0  0  0  0  0  0
   14.6675   20.6638   -6.1582 O   0  0  0  0  0  0  0  0  0  0  0  0
 20 21  1  0  0  0
 21 19  1  0  0  0
 19 18  1  0  0  0
 18 22  1  0  0  0
 22 23  1  0  0  0
 23 24  1  0  0  0
 18 11  1  0  0  0
 11 12  2  0  0  0
 12 13  1  0  0  0
 13 14  2  0  0  0
 14 15  1  0  0  0
 15 16  2  0  0  0
 16 17  1  0  0  0
 14  1  1  0  0  0
  1  2  2  0  0  0
  2  3  1  0  0  0
  3  4  2  0  0  0
  4  5  1  0  0  0
  5  6  1  0  0  0
  6  7  1  0  0  0
  6  8  1  0  0  0
  8  9  2  0  0  0
  9 25  1  0  0  0
 25 26  1  0  0  0
 25 27  2  0  0  0
  9 10  1  0  0  0
  3 30  1  0  0  0
 30 31  1  0  0  0
 30 32  2  0  0  0
 16 11  1  0  0  0
 10  1  1  0  0  0
 10  5  2  0  0  0
 26 28  1  0  0  0
 26 29  1  0  0  0
M  CHG 1  30   1
M  CHG 1  31  -1
M  END
> <minimizedAffinity>
3.45375

> <CNNscore>
0.3879352212

> <CNNaffinity>
7.2378778458

> <CNN_VS>
2.8078277111

> <CNNaffinity_variance>
1.2215144634

$$$$
[H]c1c([H])c(N(C([H])([H])C([H])([H])C([H])([H])[H])C([H])([H])C([H])([H])C([H])([H])[H])c(Cl)c([H])c1-c1c([H])c([N+](=O)[O-])nc2c1c(C(=O)N([H])[H])nn2C([H])([H])[H]


 32 34  0  0  0  0  0  0  0  0999 V2000
   11.9089   23.8877    0.8633 C   0  0  0  0  0  0  0  0  0  0  0  0
   10.8660   24.7289    1.3148 C   0  0  0  0  0  0  0  0  0  0  0  0
   10.0110   24.2785    2.2624 C   0  0  0  0  0  0  0  0  0  0  0  0
   10.1230   23.0423    2.7941 N   0  0  0  0  0  0  0  0  0  0  0  0
   11.0898   22.2386    2.3911 C   0  0  0  0  0  0  0  0  0  0  0  0
   11.4236   20.9947    2.7395 N   0  0  0  0  0  0  0  0  0  0  0  0
   10.7226   20.1896    3.7284 C   0  0  0  0  0  0  0  0  0  0  0  0
   12.4516   20.6186    2.0739 N   0  0  0  0  0  0  0  0  0  0  0  0
   12.8817   21.6205    1.2140 C   0  0  0  0  0  0  0  0  0  0  0  0
   12.0069   22.6554    1.4118 C   0  0  0  0  0  0  0  0  0  0  0  0
   14.2021   25.3455   -2.3383 C   0  0  0  0  0  0  0  0  0  0  0  0
   12.8217   25.2550   -2.4688 C   0  0  0  0  0  0  0  0  0  0  0  0
   12.0885   24.7549   -1.4016 C   0  0  0  0  0  0  0  0  0  0  0  0
   12.7098   24.3566   -0.2391 C   0  0  0  0  0  0  0  0  0  0  0  0
   14.0757   24.4641   -0.1552 C   0  0  0  0  0  0  0  0  0  0  0  0
   14.8584   24.9582   -1.1952 C   0  0  0  0  0  0  0  0  0  0  0  0
   16.6129   25.0601   -1.0205 Cl  0  0  0  0  0  0  0  0  0  0  0  0
   15.0175   25.8673   -3.4181 N   0  0  0  0  0  0  0  0  0  0  0  0
   14.5105   25.9218   -4.7523 C   0  0  0  0  0  0  0  0  0  0  0  0
   15.5911   26.2422   -7.0358 C   0  0  0  0  0  0  0  0  0  0  0  0
   15.3546   25.3692   -5.8451 C   0  0  0  0  0  0  0  0  0  0  0  0
   16.3403   26.3198   -3.0900 C   0  0  0  0  0  0  0  0  0  0  0  0
   16.5354   27.7035   -3.7149 C   0  0  0  0  0  0  0  0  0  0  0  0
   18.0242   28.0270   -3.7300 C   0  0  0  0  0  0  0  0  0  0  0  0
   14.0362   21.4126    0.3773 C   0  0  0  0  0  0  0  0  0  0  0  0
   13.8067   21.0714   -0.9860 N   0  0  0  0  0  0  0  0  0  0  0  0
   15.1979   21.5040    0.7320 O   0  0  0  0  0  0  0  0  0  0  0  0
   13.3725   20.1460   -1.1502 H   0  0  0  0  0  0  0  0  0  0  0  0
   14.0344   21.6629   -1.8020 H   0  0  0  0  0  0  0  0  0  0  0  0
    8.9532   25.1012    2.7332 N   0  0  0  0  0  0  0  0  0  0  0  0
    7.6375   24.8704    2.4342 O   0  0  0  0  0  0  0  0  0  0  0  0
    9.2302   26.0768    3.4494 O   0  0  0  0  0  0  0  0  0  0  0  0
 20 21  1  0  0  0
 21 19  1  0  0  0
 19 18  1  0  0  0
 18 22  1  0  0  0
 22 23  1  0  0  0
 23 24  1  0  0  0
 18 11  1  0  0  0
 11 12  2  0  0  0
 12 13  1  0  0  0
 13 14  2  0  0  0
 14 15  1  0  0  0
 15 16  2  0  0  0
 16 17  1  0  0  0
 14  1  1  0  0  0
  1  2  2  0  0  0
  2  3  1  0  0  0
  3  4  2  0  0  0
  4  5  1  0  0  0
  5  6  1  0  0  0
  6  7  1  0  0  0
  6  8  1  0  0  0
  8  9  2  0  0  0
  9 25  1  0  0  0
 25 26  1  0  0  0
 25 27  2  0  0  0
  9 10  1  0  0  0
  3 30  1  0  0  0
 30 31  1  0  0  0
 30 32  2  0  0  0
 16 11  1  0  0  0
 10  1  1  0  0  0
 10  5  2  0  0  0
 26 28  1  0  0  0
 26 29  1  0  0  0
M  CHG 1  30   1
M  CHG 1  31  -1
M  END
> <minimizedAffinity>
-9.05844

> <CNNscore>
0.3514081240

> <CNNaffinity>
7.5881285667

> <CNN_VS>
2.6665301323

> <CNNaffinity_variance>
0.0471717678

$$$$
[H]OC([H])([H])[C@]1([H])C(=O)N([H])C([H])([H])c2c([H])c([H])c([H])c(Oc3c([H])c([H])c(C#N)c([H])c3[H])c2C(=O)N(c2nc(N(C([H])([H])[H])C([H])([H])[H])c([H])c(C([H])([H])[H])n2)C1([H])[H]


 38 41  0  0  0  0  0  0  0  0999 V2000
   13.7563   23.8067    0.7789 N   0  0  0  0  0  0  0  0  0  0  0  0
   13.3190   22.8282    1.7517 C   0  0  0  0  0  0  0  0  0  0  0  0
   13.2249   21.4227    1.2169 C   0  0  0  0  0  0  0  0  0  0  0  0
   14.4755   20.6456    1.2824 C   0  0  0  0  0  0  0  0  0  0  0  0
   14.3606   19.3664    1.4365 O   0  0  0  0  0  0  0  0  0  0  0  0
   15.7908   21.1074    1.1987 N   0  0  0  0  0  0  0  0  0  0  0  0
   16.4305   22.1620    1.9400 C   0  0  0  0  0  0  0  0  0  0  0  0
   16.9834   23.1016    0.8952 C   0  0  0  0  0  0  0  0  0  0  0  0
   18.2649   22.7632    0.5138 C   0  0  0  0  0  0  0  0  0  0  0  0
   18.9657   23.4995   -0.4178 C   0  0  0  0  0  0  0  0  0  0  0  0
   18.3657   24.5824   -0.9624 C   0  0  0  0  0  0  0  0  0  0  0  0
   17.0525   24.9490   -0.5862 C   0  0  0  0  0  0  0  0  0  0  0  0
   16.3337   24.1839    0.3725 C   0  0  0  0  0  0  0  0  0  0  0  0
   14.9522   24.5363    0.6846 C   0  0  0  0  0  0  0  0  0  0  0  0
   14.7906   25.7979    0.9254 O   0  0  0  0  0  0  0  0  0  0  0  0
   16.4229   20.6061    0.4834 H   0  0  0  0  0  0  0  0  0  0  0  0
   10.5003   23.5057   -0.8485 C   0  0  0  0  0  0  0  0  0  0  0  0
   10.6662   24.3804   -1.9115 C   0  0  0  0  0  0  0  0  0  0  0  0
   11.8386   25.0812   -2.1186 C   0  0  0  0  0  0  0  0  0  0  0  0
   12.0135   26.0219   -3.2501 C   0  0  0  0  0  0  0  0  0  0  0  0
   12.8255   24.8677   -1.2223 N   0  0  0  0  0  0  0  0  0  0  0  0
   12.6867   24.0389   -0.2039 C   0  0  0  0  0  0  0  0  0  0  0  0
   11.5480   23.3624   -0.0081 N   0  0  0  0  0  0  0  0  0  0  0  0
    9.1212   21.4806   -1.2188 C   0  0  0  0  0  0  0  0  0  0  0  0
    9.2891   22.8035   -0.6747 N   0  0  0  0  0  0  0  0  0  0  0  0
    8.2118   23.4170    0.0623 C   0  0  0  0  0  0  0  0  0  0  0  0
   12.1332   20.6440    1.9925 C   0  0  0  0  0  0  0  0  0  0  0  0
   12.3035   20.7220    3.3450 O   0  0  0  0  0  0  0  0  0  0  0  0
   12.4755   21.6232    3.7017 H   0  0  0  0  0  0  0  0  0  0  0  0
   16.5961   26.0342   -1.2110 O   0  0  0  0  0  0  0  0  0  0  0  0
   16.4965   26.6996   -2.3497 C   0  0  0  0  0  0  0  0  0  0  0  0
   15.4351   26.3947   -3.2273 C   0  0  0  0  0  0  0  0  0  0  0  0
   15.2613   27.0421   -4.4221 C   0  0  0  0  0  0  0  0  0  0  0  0
   16.1407   28.0286   -4.8033 C   0  0  0  0  0  0  0  0  0  0  0  0
   17.1988   28.3458   -3.9502 C   0  0  0  0  0  0  0  0  0  0  0  0
   17.3826   27.7101   -2.7597 C   0  0  0  0  0  0  0  0  0  0  0  0
   15.9898   28.7325   -6.0486 C   0  0  0  0  0  0  0  0  0  0  0  0
   15.8798   29.2972   -7.0647 N   0  0  0  0  0  0  0  0  0  0  0  0
 24 25  1  0  0  0
 25 26  1  0  0  0
 25 17  1  0  0  0
 17 18  2  0  0  0
 18 19  1  0  0  0
 19 20  1  0  0  0
 19 21  2  0  0  0
 21 22  1  0  0  0
 22 23  2  0  0  0
 22  1  1  0  0  0
  1  2  1  0  0  0
  2  3  1  0  0  0
  3 27  1  0  0  0
 27 28  1  0  0  0
  3  4  1  0  0  0
  4  5  2  0  0  0
  4  6  1  0  0  0
  6  7  1  0  0  0
  7  8  1  0  0  0
  8  9  2  0  0  0
  9 10  1  0  0  0
 10 11  2  0  0  0
 11 12  1  0  0  0
 12 30  1  0  0  0
 30 31  1  0  0  0
 31 32  2  0  0  0
 32 33  1  0  0  0
 33 34  2  0  0  0
 34 35  1  0  0  0
 35 36  2  0  0  0
 34 37  1  0  0  0
 37 38  3  0  0  0
 12 13  2  0  0  0
 13 14  1  0  0  0
 14 15  2  0  0  0
 23 17  1  0  0  0
 14  1  1  0  0  0
 13  8  1  0  0  0
 36 31  1  0  0  0
 28 29  1  0  0  0
  6 16  1  0  0  0
M  END
> <minimizedAffinity>
9.92954

> <CNNscore>
0.6686607599

> <CNNaffinity>
7.5758004189

> <CNN_VS>
5.0656404495

> <CNNaffinity_variance>
0.8913055658

$$$$
[H]OC([H])([H])[C@]1([H])C(=O)N([H])C([H])([H])c2c([H])c([H])c([H])c(Oc3c([H])c([H])c(C#N)c([H])c3[H])c2C(=O)N(c2nc(N(C([H])([H])[H])C([H])([H])[H])c([H])c(C([H])([H])[H])n2)C1([H])[H]


 38 41  0  0  0  0  0  0  0  0999 V2000
   12.5648   24.4856   -0.5744 N   0  0  0  0  0  0  0  0  0  0  0  0
   11.1368   24.3644   -0.3709 C   0  0  0  0  0  0  0  0  0  0  0  0
   10.4668   23.3568   -1.2686 C   0  0  0  0  0  0  0  0  0  0  0  0
   10.4625   21.9737   -0.7596 C   0  0  0  0  0  0  0  0  0  0  0  0
    9.4604   21.2296   -1.0993 O   0  0  0  0  0  0  0  0  0  0  0  0
   11.4079   21.3439    0.0527 N   0  0  0  0  0  0  0  0  0  0  0  0
   11.9629   21.7825    1.3059 C   0  0  0  0  0  0  0  0  0  0  0  0
   13.4587   21.7793    1.0996 C   0  0  0  0  0  0  0  0  0  0  0  0
   14.0275   20.5636    1.4169 C   0  0  0  0  0  0  0  0  0  0  0  0
   15.3855   20.3470    1.3176 C   0  0  0  0  0  0  0  0  0  0  0  0
   16.1684   21.3664    0.8970 C   0  0  0  0  0  0  0  0  0  0  0  0
   15.6076   22.6221    0.5666 C   0  0  0  0  0  0  0  0  0  0  0  0
   14.2061   22.8385    0.6678 C   0  0  0  0  0  0  0  0  0  0  0  0
   13.6434   24.1171    0.2456 C   0  0  0  0  0  0  0  0  0  0  0  0
   14.2768   25.1369    0.7297 O   0  0  0  0  0  0  0  0  0  0  0  0
   11.7756   20.3937   -0.2999 H   0  0  0  0  0  0  0  0  0  0  0  0
   14.0655   25.1232   -3.8427 C   0  0  0  0  0  0  0  0  0  0  0  0
   13.3848   26.2726   -4.2145 C   0  0  0  0  0  0  0  0  0  0  0  0
   12.4283   26.8606   -3.4095 C   0  0  0  0  0  0  0  0  0  0  0  0
   11.6952   28.0845   -3.8099 C   0  0  0  0  0  0  0  0  0  0  0  0
   12.1884   26.2515   -2.2288 N   0  0  0  0  0  0  0  0  0  0  0  0
   12.8262   25.1568   -1.8570 C   0  0  0  0  0  0  0  0  0  0  0  0
   13.7521   24.5911   -2.6414 N   0  0  0  0  0  0  0  0  0  0  0  0
   15.5086   23.2112   -4.4765 C   0  0  0  0  0  0  0  0  0  0  0  0
   15.0401   24.5563   -4.6906 N   0  0  0  0  0  0  0  0  0  0  0  0
   15.5659   25.3320   -5.7869 C   0  0  0  0  0  0  0  0  0  0  0  0
    8.9985   23.7815   -1.5208 C   0  0  0  0  0  0  0  0  0  0  0  0
    8.2673   23.8270   -0.3686 O   0  0  0  0  0  0  0  0  0  0  0  0
    8.6906   24.2956    0.3866 H   0  0  0  0  0  0  0  0  0  0  0  0
   16.5035   23.5235    0.1651 O   0  0  0  0  0  0  0  0  0  0  0  0
   16.7959   24.4964   -0.6818 C   0  0  0  0  0  0  0  0  0  0  0  0
   16.3719   25.8088   -0.3858 C   0  0  0  0  0  0  0  0  0  0  0  0
   16.6394   26.8702   -1.2096 C   0  0  0  0  0  0  0  0  0  0  0  0
   17.3449   26.6753   -2.3742 C   0  0  0  0  0  0  0  0  0  0  0  0
   17.7735   25.3844   -2.6870 C   0  0  0  0  0  0  0  0  0  0  0  0
   17.5144   24.3208   -1.8764 C   0  0  0  0  0  0  0  0  0  0  0  0
   17.6474   27.7648   -3.2633 C   0  0  0  0  0  0  0  0  0  0  0  0
   17.8980   28.6573   -3.9732 N   0  0  0  0  0  0  0  0  0  0  0  0
 24 25  1  0  0  0
 25 26  1  0  0  0
 25 17  1  0  0  0
 17 18  2  0  0  0
 18 19  1  0  0  0
 19 20  1  0  0  0
 19 21  2  0  0  0
 21 22  1  0  0  0
 22 23  2  0  0  0
 22  1  1  0  0  0
  1  2  1  0  0  0
  2  3  1  0  0  0
  3 27  1  0  0  0
 27 28  1  0  0  0
  3  4  1  0  0  0
  4  5  2  0  0  0
  4  6  1  0  0  0
  6  7  1  0  0  0
  7  8  1  0  0  0
  8  9  2  0  0  0
  9 10  1  0  0  0
 10 11  2  0  0  0
 11 12  1  0  0  0
 12 30  1  0  0  0
 30 31  1  0  0  0
 31 32  2  0  0  0
 32 33  1  0  0  0
 33 34  2  0  0  0
 34 35  1  0  0  0
 35 36  2  0  0  0
 34 37  1  0  0  0
 37 38  3  0  0  0
 12 13  2  0  0  0
 13 14  1  0  0  0
 14 15  2  0  0  0
 23 17  1  0  0  0
 14  1  1  0  0  0
 13  8  1  0  0  0
 36 31  1  0  0  0
 28 29  1  0  0  0
  6 16  1  0  0  0
M  END
> <minimizedAffinity>
7.24299

> <CNNscore>
0.6098395586

> <CNNaffinity>
7.4273386002

> <CNN_VS>
4.5294847488

> <CNNaffinity_variance>
0.5528885126

$$$$
[H]OC([H])([H])[C@]1([H])C(=O)N([H])C([H])([H])c2c([H])c([H])c([H])c(Oc3c([H])c([H])c(C#N)c([H])c3[H])c2C(=O)N(c2nc(N(C([H])([H])[H])C([H])([H])[H])c([H])c(C([H])([H])[H])n2)C1([H])[H]


 38 41  0  0  0  0  0  0  0  0999 V2000
   10.8394   23.4085    2.0734 N   0  0  0  0  0  0  0  0  0  0  0  0
   10.3052   24.1001    3.2273 C   0  0  0  0  0  0  0  0  0  0  0  0
    9.2631   25.1379    2.8996 C   0  0  0  0  0  0  0  0  0  0  0  0
    7.8834   24.6283    2.8066 C   0  0  0  0  0  0  0  0  0  0  0  0
    6.9359   25.4447    3.1370 O   0  0  0  0  0  0  0  0  0  0  0  0
    7.4495   23.3637    2.4032 N   0  0  0  0  0  0  0  0  0  0  0  0
    7.8756   22.0689    2.8647 C   0  0  0  0  0  0  0  0  0  0  0  0
    8.3103   21.3288    1.6224 C   0  0  0  0  0  0  0  0  0  0  0  0
    7.2709   20.6383    1.0349 C   0  0  0  0  0  0  0  0  0  0  0  0
    7.4514   19.8797   -0.1022 C   0  0  0  0  0  0  0  0  0  0  0  0
    8.6893   19.8203   -0.6437 C   0  0  0  0  0  0  0  0  0  0  0  0
    9.7705   20.5196   -0.0584 C   0  0  0  0  0  0  0  0  0  0  0  0
    9.5775   21.3028    1.1123 C   0  0  0  0  0  0  0  0  0  0  0  0
   10.6908   22.0778    1.6508 C   0  0  0  0  0  0  0  0  0  0  0  0
   11.7824   21.3912    1.7620 O   0  0  0  0  0  0  0  0  0  0  0  0
    6.6858   23.3467    1.6424 H   0  0  0  0  0  0  0  0  0  0  0  0
   12.0957   25.3196   -0.7744 C   0  0  0  0  0  0  0  0  0  0  0  0
   13.1800   25.9587   -0.1924 C   0  0  0  0  0  0  0  0  0  0  0  0
   13.5222   25.7785    1.1338 C   0  0  0  0  0  0  0  0  0  0  0  0
   14.6762   26.4673    1.7579 C   0  0  0  0  0  0  0  0  0  0  0  0
   12.7376   24.9383    1.8417 N   0  0  0  0  0  0  0  0  0  0  0  0
   11.7011   24.3205    1.3055 C   0  0  0  0  0  0  0  0  0  0  0  0
   11.3740   24.4991    0.0196 N   0  0  0  0  0  0  0  0  0  0  0  0
   12.6807   26.2514   -2.9946 C   0  0  0  0  0  0  0  0  0  0  0  0
   11.7822   25.5253   -2.1344 N   0  0  0  0  0  0  0  0  0  0  0  0
   10.5514   24.9954   -2.6678 C   0  0  0  0  0  0  0  0  0  0  0  0
    9.2915   26.2581    3.9693 C   0  0  0  0  0  0  0  0  0  0  0  0
    8.7361   27.4205    3.5168 O   0  0  0  0  0  0  0  0  0  0  0  0
    7.8677   27.3293    3.0623 H   0  0  0  0  0  0  0  0  0  0  0  0
   10.9249   20.3675   -0.7071 O   0  0  0  0  0  0  0  0  0  0  0  0
   11.9790   20.9545   -1.2487 C   0  0  0  0  0  0  0  0  0  0  0  0
   13.2460   20.3524   -1.1010 C   0  0  0  0  0  0  0  0  0  0  0  0
   14.3841   20.8957   -1.6362 C   0  0  0  0  0  0  0  0  0  0  0  0
   14.3156   22.0712   -2.3472 C   0  0  0  0  0  0  0  0  0  0  0  0
   13.0718   22.6844   -2.5049 C   0  0  0  0  0  0  0  0  0  0  0  0
   11.9329   22.1545   -1.9782 C   0  0  0  0  0  0  0  0  0  0  0  0
   15.4877   22.6710   -2.9262 C   0  0  0  0  0  0  0  0  0  0  0  0
   16.4443   23.1611   -3.3824 N   0  0  0  0  0  0  0  0  0  0  0  0
 24 25  1  0  0  0
 25 26  1  0  0  0
 25 17  1  0  0  0
 17 18  2  0  0  0
 18 19  1  0  0  0
 19 20  1  0  0  0
 19 21  2  0  0  0
 21 22  1  0  0  0
 22 23  2  0  0  0
 22  1  1  0  0  0
  1  2  1  0  0  0
  2  3  1  0  0  0
  3 27  1  0  0  0
 27 28  1  0  0  0
  3  4  1  0  0  0
  4  5  2  0  0  0
  4  6  1  0  0  0
  6  7  1  0  0  0
  7  8  1  0  0  0
  8  9  2  0  0  0
  9 10  1  0  0  0
 10 11  2  0  0  0
 11 12  1  0  0  0
 12 30  1  0  0  0
 30 31  1  0  0  0
 31 32  2  0  0  0
 32 33  1  0  0  0
 33 34  2  0  0  0
 34 35  1  0  0  0
 35 36  2  0  0  0
 34 37  1  0  0  0
 37 38  3  0  0  0
 12 13  2  0  0  0
 13 14  1  0  0  0
 14 15  2  0  0  0
 23 17  1  0  0  0
 14  1  1  0  0  0
 13  8  1  0  0  0
 36 31  1  0  0  0
 28 29  1  0  0  0
  6 16  1  0  0  0
M  END
> <minimizedAffinity>
5.48426

> <CNNscore>
0.5454137325

> <CNNaffinity>
6.8540391922

> <CNN_VS>
3.7382872105

> <CNNaffinity_variance>
0.4665080011

$$$$
[H]OC([H])([H])[C@]1([H])C(=O)N([H])C([H])([H])c2c([H])c([H])c([H])c(Oc3c([H])c([H])c(C#N)c([H])c3[H])c2C(=O)N(c2nc(N(C([H])([H])[H])C([H])([H])[H])c([H])c(C([H])([H])[H])n2)C1([H])[H]


 38 41  0  0  0  0  0  0  0  0999 V2000
   11.0974   22.1762   -0.8529 N   0  0  0  0  0  0  0  0  0  0  0  0
   10.2136   21.0305   -0.8176 C   0  0  0  0  0  0  0  0  0  0  0  0
   10.4655   20.0894    0.3318 C   0  0  0  0  0  0  0  0  0  0  0  0
    9.7617   20.4288    1.5814 C   0  0  0  0  0  0  0  0  0  0  0  0
    9.4274   19.4431    2.3495 O   0  0  0  0  0  0  0  0  0  0  0  0
    9.4000   21.6900    2.0599 N   0  0  0  0  0  0  0  0  0  0  0  0
    8.6791   22.7409    1.3915 C   0  0  0  0  0  0  0  0  0  0  0  0
    9.5741   23.9539    1.4804 C   0  0  0  0  0  0  0  0  0  0  0  0
    9.3420   24.6921    2.6221 C   0  0  0  0  0  0  0  0  0  0  0  0
   10.0380   25.8508    2.8940 C   0  0  0  0  0  0  0  0  0  0  0  0
   10.9704   26.2624    2.0050 C   0  0  0  0  0  0  0  0  0  0  0  0
   11.2252   25.5220    0.8271 C   0  0  0  0  0  0  0  0  0  0  0  0
   10.5066   24.3262    0.5538 C   0  0  0  0  0  0  0  0  0  0  0  0
   10.8435   23.5387   -0.6279 C   0  0  0  0  0  0  0  0  0  0  0  0
   10.9301   24.2499   -1.7059 O   0  0  0  0  0  0  0  0  0  0  0  0
    9.6955   21.9137    3.0723 H   0  0  0  0  0  0  0  0  0  0  0  0
   14.5874   21.1636   -0.4853 C   0  0  0  0  0  0  0  0  0  0  0  0
   14.9322   20.9554   -1.8122 C   0  0  0  0  0  0  0  0  0  0  0  0
   14.0377   21.1420   -2.8484 C   0  0  0  0  0  0  0  0  0  0  0  0
   14.4036   20.9121   -4.2658 C   0  0  0  0  0  0  0  0  0  0  0  0
   12.7968   21.5422   -2.4983 N   0  0  0  0  0  0  0  0  0  0  0  0
   12.4495   21.7458   -1.2407 C   0  0  0  0  0  0  0  0  0  0  0  0
   13.3206   21.5632   -0.2405 N   0  0  0  0  0  0  0  0  0  0  0  0
   16.0014   19.6460    0.8701 C   0  0  0  0  0  0  0  0  0  0  0  0
   15.5317   20.9680    0.5443 N   0  0  0  0  0  0  0  0  0  0  0  0
   16.0356   22.1067    1.2720 C   0  0  0  0  0  0  0  0  0  0  0  0
   10.0572   18.6515   -0.0753 C   0  0  0  0  0  0  0  0  0  0  0  0
    8.7844   18.5940   -0.5663 O   0  0  0  0  0  0  0  0  0  0  0  0
    8.5556   19.2756   -1.2386 H   0  0  0  0  0  0  0  0  0  0  0  0
   12.1729   26.0503    0.0531 O   0  0  0  0  0  0  0  0  0  0  0  0
   12.9213   25.9209   -1.0297 C   0  0  0  0  0  0  0  0  0  0  0  0
   12.5225   26.5711   -2.2162 C   0  0  0  0  0  0  0  0  0  0  0  0
   13.2457   26.4895   -3.3769 C   0  0  0  0  0  0  0  0  0  0  0  0
   14.4063   25.7522   -3.4128 C   0  0  0  0  0  0  0  0  0  0  0  0
   14.8190   25.0998   -2.2501 C   0  0  0  0  0  0  0  0  0  0  0  0
   14.1094   25.1732   -1.0898 C   0  0  0  0  0  0  0  0  0  0  0  0
   15.1940   25.6448   -4.6116 C   0  0  0  0  0  0  0  0  0  0  0  0
   15.8441   25.5504   -5.5770 N   0  0  0  0  0  0  0  0  0  0  0  0
 24 25  1  0  0  0
 25 26  1  0  0  0
 25 17  1  0  0  0
 17 18  2  0  0  0
 18 19  1  0  0  0
 19 20  1  0  0  0
 19 21  2  0  0  0
 21 22  1  0  0  0
 22 23  2  0  0  0
 22  1  1  0  0  0
  1  2  1  0  0  0
  2  3  1  0  0  0
  3 27  1  0  0  0
 27 28  1  0  0  0
  3  4  1  0  0  0
  4  5  2  0  0  0
  4  6  1  0  0  0
  6  7  1  0  0  0
  7  8  1  0  0  0
  8  9  2  0  0  0
  9 10  1  0  0  0
 10 11  2  0  0  0
 11 12  1  0  0  0
 12 30  1  0  0  0
 30 31  1  0  0  0
 31 32  2  0  0  0
 32 33  1  0  0  0
 33 34  2  0  0  0
 34 35  1  0  0  0
 35 36  2  0  0  0
 34 37  1  0  0  0
 37 38  3  0  0  0
 12 13  2  0  0  0
 13 14  1  0  0  0
 14 15  2  0  0  0
 23 17  1  0  0  0
 14  1  1  0  0  0
 13  8  1  0  0  0
 36 31  1  0  0  0
 28 29  1  0  0  0
  6 16  1  0  0  0
M  END
> <minimizedAffinity>
8.06207

> <CNNscore>
0.5440243483

> <CNNaffinity>
7.1346764565

> <CNN_VS>
3.8814377785

> <CNNaffinity_variance>
0.7603554130

$$$$
[H]OC([H])([H])[C@]1([H])C(=O)N([H])C([H])([H])c2c([H])c([H])c([H])c(Oc3c([H])c([H])c(C#N)c([H])c3[H])c2C(=O)N(c2nc(N(C([H])([H])[H])C([H])([H])[H])c([H])c(C([H])([H])[H])n2)C1([H])[H]


 38 41  0  0  0  0  0  0  0  0999 V2000
   10.7716   23.4226    2.0611 N   0  0  0  0  0  0  0  0  0  0  0  0
   10.2385   24.2025    3.1578 C   0  0  0  0  0  0  0  0  0  0  0  0
    9.2529   25.2634    2.7414 C   0  0  0  0  0  0  0  0  0  0  0  0
    7.8547   24.8092    2.6376 C   0  0  0  0  0  0  0  0  0  0  0  0
    6.9363   25.6836    2.8933 O   0  0  0  0  0  0  0  0  0  0  0  0
    7.3756   23.5432    2.2944 N   0  0  0  0  0  0  0  0  0  0  0  0
    7.7310   22.2603    2.8410 C   0  0  0  0  0  0  0  0  0  0  0  0
    8.1649   21.4311    1.6560 C   0  0  0  0  0  0  0  0  0  0  0  0
    7.1116   20.7531    1.0788 C   0  0  0  0  0  0  0  0  0  0  0  0
    7.2881   19.9226   -0.0075 C   0  0  0  0  0  0  0  0  0  0  0  0
    8.5360   19.7784   -0.5085 C   0  0  0  0  0  0  0  0  0  0  0  0
    9.6315   20.4633    0.0671 C   0  0  0  0  0  0  0  0  0  0  0  0
    9.4428   21.3208    1.1852 C   0  0  0  0  0  0  0  0  0  0  0  0
   10.5749   22.0772    1.7108 C   0  0  0  0  0  0  0  0  0  0  0  0
   11.6314   21.3518    1.8926 O   0  0  0  0  0  0  0  0  0  0  0  0
    6.6323   23.5149    1.5139 H   0  0  0  0  0  0  0  0  0  0  0  0
   12.1037   25.2398   -0.8135 C   0  0  0  0  0  0  0  0  0  0  0  0
   13.2752   25.7470   -0.2723 C   0  0  0  0  0  0  0  0  0  0  0  0
   13.6530   25.5060    1.0345 C   0  0  0  0  0  0  0  0  0  0  0  0
   14.9011   26.0543    1.6155 C   0  0  0  0  0  0  0  0  0  0  0  0
   12.8131   24.7424    1.7654 N   0  0  0  0  0  0  0  0  0  0  0  0
   11.6934   24.2503    1.2679 C   0  0  0  0  0  0  0  0  0  0  0  0
   11.3322   24.4873    0.0007 N   0  0  0  0  0  0  0  0  0  0  0  0
   10.5133   25.0214   -2.7011 C   0  0  0  0  0  0  0  0  0  0  0  0
   11.7558   25.5036   -2.1550 N   0  0  0  0  0  0  0  0  0  0  0  0
   12.6528   26.2707   -2.9839 C   0  0  0  0  0  0  0  0  0  0  0  0
    9.3030   26.4417    3.7459 C   0  0  0  0  0  0  0  0  0  0  0  0
    9.1399   26.0287    5.0372 O   0  0  0  0  0  0  0  0  0  0  0  0
    9.6830   25.2539    5.3087 H   0  0  0  0  0  0  0  0  0  0  0  0
   10.7947   20.2241   -0.5380 O   0  0  0  0  0  0  0  0  0  0  0  0
   11.8898   20.7325   -1.0778 C   0  0  0  0  0  0  0  0  0  0  0  0
   11.7962   21.9387   -1.8031 C   0  0  0  0  0  0  0  0  0  0  0  0
   12.8848   22.5306   -2.3875 C   0  0  0  0  0  0  0  0  0  0  0  0
   14.1254   21.9467   -2.2782 C   0  0  0  0  0  0  0  0  0  0  0  0
   14.2407   20.7523   -1.5655 C   0  0  0  0  0  0  0  0  0  0  0  0
   13.1665   20.1539   -0.9797 C   0  0  0  0  0  0  0  0  0  0  0  0
   15.2923   22.5390   -2.8756 C   0  0  0  0  0  0  0  0  0  0  0  0
   16.2318   23.0215   -3.3734 N   0  0  0  0  0  0  0  0  0  0  0  0
 24 25  1  0  0  0
 25 26  1  0  0  0
 25 17  1  0  0  0
 17 18  2  0  0  0
 18 19  1  0  0  0
 19 20  1  0  0  0
 19 21  2  0  0  0
 21 22  1  0  0  0
 22 23  2  0  0  0
 22  1  1  0  0  0
  1  2  1  0  0  0
  2  3  1  0  0  0
  3 27  1  0  0  0
 27 28  1  0  0  0
  3  4  1  0  0  0
  4  5  2  0  0  0
  4  6  1  0  0  0
  6  7  1  0  0  0
  7  8  1  0  0  0
  8  9  2  0  0  0
  9 10  1  0  0  0
 10 11  2  0  0  0
 11 12  1  0  0  0
 12 30  1  0  0  0
 30 31  1  0  0  0
 31 32  2  0  0  0
 32 33  1  0  0  0
 33 34  2  0  0  0
 34 35  1  0  0  0
 35 36  2  0  0  0
 34 37  1  0  0  0
 37 38  3  0  0  0
 12 13  2  0  0  0
 13 14  1  0  0  0
 14 15  2  0  0  0
 23 17  1  0  0  0
 14  1  1  0  0  0
 13  8  1  0  0  0
 36 31  1  0  0  0
 28 29  1  0  0  0
  6 16  1  0  0  0
M  END
> <minimizedAffinity>
4.24626

> <CNNscore>
0.5337623954

> <CNNaffinity>
6.9095001221

> <CNN_VS>
3.6880314350

> <CNNaffinity_variance>
0.5694189668

$$$$
[H]OC([H])([H])[C@]1([H])C(=O)N([H])C([H])([H])c2c([H])c([H])c([H])c(Oc3c([H])c([H])c(C#N)c([H])c3[H])c2C(=O)N(c2nc(N(C([H])([H])[H])C([H])([H])[H])c([H])c(C([H])([H])[H])n2)C1([H])[H]


 38 41  0  0  0  0  0  0  0  0999 V2000
   12.6838   22.3349    0.8936 N   0  0  0  0  0  0  0  0  0  0  0  0
   12.0190   21.2253    1.5431 C   0  0  0  0  0  0  0  0  0  0  0  0
   10.6421   20.9292    1.0078 C   0  0  0  0  0  0  0  0  0  0  0  0
   10.6062   20.0214   -0.1527 C   0  0  0  0  0  0  0  0  0  0  0  0
    9.5612   19.2686   -0.2730 O   0  0  0  0  0  0  0  0  0  0  0  0
   11.5610   19.8593   -1.1589 N   0  0  0  0  0  0  0  0  0  0  0  0
   12.9742   19.6161   -1.0372 C   0  0  0  0  0  0  0  0  0  0  0  0
   13.6356   20.7192   -1.8283 C   0  0  0  0  0  0  0  0  0  0  0  0
   13.8179   20.3763   -3.1517 C   0  0  0  0  0  0  0  0  0  0  0  0
   14.4205   21.2320   -4.0493 C   0  0  0  0  0  0  0  0  0  0  0  0
   14.8404   22.4377   -3.6030 C   0  0  0  0  0  0  0  0  0  0  0  0
   14.6647   22.8109   -2.2501 C   0  0  0  0  0  0  0  0  0  0  0  0
   14.0397   21.9255   -1.3300 C   0  0  0  0  0  0  0  0  0  0  0  0
   13.7987   22.3651    0.0407 C   0  0  0  0  0  0  0  0  0  0  0  0
   14.8384   22.9032    0.5929 O   0  0  0  0  0  0  0  0  0  0  0  0
   11.1954   19.9198   -2.1713 H   0  0  0  0  0  0  0  0  0  0  0  0
   10.2184   24.5830    2.3798 C   0  0  0  0  0  0  0  0  0  0  0  0
   10.7801   25.8133    2.0739 C   0  0  0  0  0  0  0  0  0  0  0  0
   11.9677   25.9335    1.3785 C   0  0  0  0  0  0  0  0  0  0  0  0
   12.5722   27.2479    1.0583 C   0  0  0  0  0  0  0  0  0  0  0  0
   12.5597   24.7780    1.0079 N   0  0  0  0  0  0  0  0  0  0  0  0
   12.0404   23.5971    1.2897 C   0  0  0  0  0  0  0  0  0  0  0  0
   10.8891   23.4867    1.9641 N   0  0  0  0  0  0  0  0  0  0  0  0
    7.7467   24.7534    2.4233 C   0  0  0  0  0  0  0  0  0  0  0  0
    9.0002   24.5022    3.0867 N   0  0  0  0  0  0  0  0  0  0  0  0
    9.0130   24.1571    4.4870 C   0  0  0  0  0  0  0  0  0  0  0  0
    9.7707   20.3110    2.1296 C   0  0  0  0  0  0  0  0  0  0  0  0
    8.7854   21.1592    2.5469 O   0  0  0  0  0  0  0  0  0  0  0  0
    8.2632   21.5903    1.8325 H   0  0  0  0  0  0  0  0  0  0  0  0
   15.1250   24.0283   -1.9628 O   0  0  0  0  0  0  0  0  0  0  0  0
   15.8316   25.0711   -2.3659 C   0  0  0  0  0  0  0  0  0  0  0  0
   15.4484   25.7392   -3.5476 C   0  0  0  0  0  0  0  0  0  0  0  0
   16.1257   26.8290   -4.0276 C   0  0  0  0  0  0  0  0  0  0  0  0
   17.2234   27.3083   -3.3514 C   0  0  0  0  0  0  0  0  0  0  0  0
   17.6206   26.6617   -2.1800 C   0  0  0  0  0  0  0  0  0  0  0  0
   16.9557   25.5777   -1.6920 C   0  0  0  0  0  0  0  0  0  0  0  0
   17.9586   28.4514   -3.8223 C   0  0  0  0  0  0  0  0  0  0  0  0
   18.5681   29.3710   -4.2047 N   0  0  0  0  0  0  0  0  0  0  0  0
 24 25  1  0  0  0
 25 26  1  0  0  0
 25 17  1  0  0  0
 17 18  2  0  0  0
 18 19  1  0  0  0
 19 20  1  0  0  0
 19 21  2  0  0  0
 21 22  1  0  0  0
 22 23  2  0  0  0
 22  1  1  0  0  0
  1  2  1  0  0  0
  2  3  1  0  0  0
  3 27  1  0  0  0
 27 28  1  0  0  0
  3  4  1  0  0  0
  4  5  2  0  0  0
  4  6  1  0  0  0
  6  7  1  0  0  0
  7  8  1  0  0  0
  8  9  2  0  0  0
  9 10  1  0  0  0
 10 11  2  0  0  0
 11 12  1  0  0  0
 12 30  1  0  0  0
 30 31  1  0  0  0
 31 32  2  0  0  0
 32 33  1  0  0  0
 33 34  2  0  0  0
 34 35  1  0  0  0
 35 36  2  0  0  0
 34 37  1  0  0  0
 37 38  3  0  0  0
 12 13  2  0  0  0
 13 14  1  0  0  0
 14 15  2  0  0  0
 23 17  1  0  0  0
 14  1  1  0  0  0
 13  8  1  0  0  0
 36 31  1  0  0  0
 28 29  1  0  0  0
  6 16  1  0  0  0
M  END
> <minimizedAffinity>
5.57650

> <CNNscore>
0.5238606334

> <CNNaffinity>
7.3201341629

> <CNN_VS>
3.8347301483

> <CNNaffinity_variance>
0.9070976973

$$$$
[H]OC([H])([H])[C@]1([H])C(=O)N([H])C([H])([H])c2c([H])c([H])c([H])c(Oc3c([H])c([H])c(C#N)c([H])c3[H])c2C(=O)N(c2nc(N(C([H])([H])[H])C([H])([H])[H])c([H])c(C([H])([H])[H])n2)C1([H])[H]


 38 41  0  0  0  0  0  0  0  0999 V2000
   10.9717   23.2851    1.7189 N   0  0  0  0  0  0  0  0  0  0  0  0
   10.3806   24.0462    2.7989 C   0  0  0  0  0  0  0  0  0  0  0  0
    9.2892   24.9904    2.3659 C   0  0  0  0  0  0  0  0  0  0  0  0
    7.9412   24.3981    2.3025 C   0  0  0  0  0  0  0  0  0  0  0  0
    6.9450   25.1865    2.5461 O   0  0  0  0  0  0  0  0  0  0  0  0
    7.5842   23.0802    2.0097 N   0  0  0  0  0  0  0  0  0  0  0  0
    8.0724   21.8578    2.5915 C   0  0  0  0  0  0  0  0  0  0  0  0
    8.5682   21.0349    1.4265 C   0  0  0  0  0  0  0  0  0  0  0  0
    7.5785   20.2375    0.8911 C   0  0  0  0  0  0  0  0  0  0  0  0
    7.8198   19.3914   -0.1705 C   0  0  0  0  0  0  0  0  0  0  0  0
    9.0682   19.3532   -0.6891 C   0  0  0  0  0  0  0  0  0  0  0  0
   10.0993   20.1615   -0.1562 C   0  0  0  0  0  0  0  0  0  0  0  0
    9.8436   21.0343    0.9365 C   0  0  0  0  0  0  0  0  0  0  0  0
   10.9034   21.9156    1.4164 C   0  0  0  0  0  0  0  0  0  0  0  0
   12.0288   21.3039    1.6027 O   0  0  0  0  0  0  0  0  0  0  0  0
    6.8357   22.9524    1.2442 H   0  0  0  0  0  0  0  0  0  0  0  0
   13.8124   25.3470    0.7093 C   0  0  0  0  0  0  0  0  0  0  0  0
   13.3873   25.7697   -0.5410 C   0  0  0  0  0  0  0  0  0  0  0  0
   12.1706   25.3936   -1.0765 C   0  0  0  0  0  0  0  0  0  0  0  0
   11.7195   25.8389   -2.4158 C   0  0  0  0  0  0  0  0  0  0  0  0
   11.4083   24.5843   -0.3105 N   0  0  0  0  0  0  0  0  0  0  0  0
   11.7955   24.1714    0.8824 C   0  0  0  0  0  0  0  0  0  0  0  0
   12.9759   24.5390    1.3962 N   0  0  0  0  0  0  0  0  0  0  0  0
   16.2848   25.1832    0.7303 C   0  0  0  0  0  0  0  0  0  0  0  0
   15.0599   25.7582    1.2239 N   0  0  0  0  0  0  0  0  0  0  0  0
   15.1063   26.7705    2.2502 C   0  0  0  0  0  0  0  0  0  0  0  0
    9.2378   26.2017    3.3303 C   0  0  0  0  0  0  0  0  0  0  0  0
   10.4045   26.9112    3.3334 O   0  0  0  0  0  0  0  0  0  0  0  0
   10.7747   27.1265    2.4471 H   0  0  0  0  0  0  0  0  0  0  0  0
   11.2713   20.0169   -0.7742 O   0  0  0  0  0  0  0  0  0  0  0  0
   12.2540   20.5999   -1.4402 C   0  0  0  0  0  0  0  0  0  0  0  0
   12.9785   21.6377   -0.8174 C   0  0  0  0  0  0  0  0  0  0  0  0
   14.0122   22.2871   -1.4390 C   0  0  0  0  0  0  0  0  0  0  0  0
   14.3759   21.9336   -2.7176 C   0  0  0  0  0  0  0  0  0  0  0  0
   13.6719   20.9097   -3.3530 C   0  0  0  0  0  0  0  0  0  0  0  0
   12.6425   20.2560   -2.7460 C   0  0  0  0  0  0  0  0  0  0  0  0
   15.4573   22.5903   -3.4021 C   0  0  0  0  0  0  0  0  0  0  0  0
   16.3306   23.1365   -3.9521 N   0  0  0  0  0  0  0  0  0  0  0  0
 24 25  1  0  0  0
 25 26  1  0  0  0
 25 17  1  0  0  0
 17 18  2  0  0  0
 18 19  1  0  0  0
 19 20  1  0  0  0
 19 21  2  0  0  0
 21 22  1  0  0  0
 22 23  2  0  0  0
 22  1  1  0  0  0
  1  2  1  0  0  0
  2  3  1  0  0  0
  3 27  1  0  0  0
 27 28  1  0  0  0
  3  4  1  0  0  0
  4  5  2  0  0  0
  4  6  1  0  0  0
  6  7  1  0  0  0
  7  8  1  0  0  0
  8  9  2  0  0  0
  9 10  1  0  0  0
 10 11  2  0  0  0
 11 12  1  0  0  0
 12 30  1  0  0  0
 30 31  1  0  0  0
 31 32  2  0  0  0
 32 33  1  0  0  0
 33 34  2  0  0  0
 34 35  1  0  0  0
 35 36  2  0  0  0
 34 37  1  0  0  0
 37 38  3  0  0  0
 12 13  2  0  0  0
 13 14  1  0  0  0
 14 15  2  0  0  0
 23 17  1  0  0  0
 14  1  1  0  0  0
 13  8  1  0  0  0
 36 31  1  0  0  0
 28 29  1  0  0  0
  6 16  1  0  0  0
M  END
> <minimizedAffinity>
6.90255

> <CNNscore>
0.5158614516

> <CNNaffinity>
7.0140848160

> <CNN_VS>
3.6182959080

> <CNNaffinity_variance>
1.0799478292

$$$$
[H]OC([H])([H])[C@]1([H])C(=O)N([H])C([H])([H])c2c([H])c([H])c([H])c(Oc3c([H])c([H])c(C#N)c([H])c3[H])c2C(=O)N(c2nc(N(C([H])([H])[H])C([H])([H])[H])c([H])c(C([H])([H])[H])n2)C1([H])[H]


 38 41  0  0  0  0  0  0  0  0999 V2000
   13.0986   21.7814   -0.7057 N   0  0  0  0  0  0  0  0  0  0  0  0
   13.5050   20.4570   -0.2865 C   0  0  0  0  0  0  0  0  0  0  0  0
   13.9059   20.3620    1.1628 C   0  0  0  0  0  0  0  0  0  0  0  0
   12.7977   20.1095    2.1010 C   0  0  0  0  0  0  0  0  0  0  0  0
   13.0794   19.4380    3.1702 O   0  0  0  0  0  0  0  0  0  0  0  0
   11.4619   20.5025    1.9939 N   0  0  0  0  0  0  0  0  0  0  0  0
   10.5485   20.3209    0.8968 C   0  0  0  0  0  0  0  0  0  0  0  0
   10.0480   21.7062    0.5644 C   0  0  0  0  0  0  0  0  0  0  0  0
    8.9200   22.0410    1.2841 C   0  0  0  0  0  0  0  0  0  0  0  0
    8.2873   23.2554    1.1228 C   0  0  0  0  0  0  0  0  0  0  0  0
    8.7991   24.1314    0.2285 C   0  0  0  0  0  0  0  0  0  0  0  0
    9.9545   23.8097   -0.5212 C   0  0  0  0  0  0  0  0  0  0  0  0
   10.6045   22.5572   -0.3482 C   0  0  0  0  0  0  0  0  0  0  0  0
   11.8396   22.2813   -1.0751 C   0  0  0  0  0  0  0  0  0  0  0  0
   11.7608   22.5597   -2.3368 O   0  0  0  0  0  0  0  0  0  0  0  0
   11.0488   21.0105    2.8504 H   0  0  0  0  0  0  0  0  0  0  0  0
   15.6525   23.9613   -2.1431 C   0  0  0  0  0  0  0  0  0  0  0  0
   16.3804   24.2824   -1.0074 C   0  0  0  0  0  0  0  0  0  0  0  0
   16.0551   23.7951    0.2437 C   0  0  0  0  0  0  0  0  0  0  0  0
   16.8282   24.1442    1.4587 C   0  0  0  0  0  0  0  0  0  0  0  0
   14.9799   22.9808    0.3039 N   0  0  0  0  0  0  0  0  0  0  0  0
   14.2744   22.6634   -0.7661 C   0  0  0  0  0  0  0  0  0  0  0  0
   14.5941   23.1388   -1.9761 N   0  0  0  0  0  0  0  0  0  0  0  0
   15.4963   23.8969   -4.6152 C   0  0  0  0  0  0  0  0  0  0  0  0
   16.0204   24.4748   -3.4045 N   0  0  0  0  0  0  0  0  0  0  0  0
   16.9259   25.5949   -3.4790 C   0  0  0  0  0  0  0  0  0  0  0  0
   14.9525   19.2336    1.3393 C   0  0  0  0  0  0  0  0  0  0  0  0
   16.1989   19.6151    0.9327 O   0  0  0  0  0  0  0  0  0  0  0  0
   16.5039   20.4922    1.2592 H   0  0  0  0  0  0  0  0  0  0  0  0
   10.3403   24.7737   -1.3570 O   0  0  0  0  0  0  0  0  0  0  0  0
   11.3496   25.3987   -1.9398 C   0  0  0  0  0  0  0  0  0  0  0  0
   11.2322   25.7664   -3.2965 C   0  0  0  0  0  0  0  0  0  0  0  0
   12.2309   26.4199   -3.9693 C   0  0  0  0  0  0  0  0  0  0  0  0
   13.4009   26.7397   -3.3207 C   0  0  0  0  0  0  0  0  0  0  0  0
   13.5386   26.3845   -1.9780 C   0  0  0  0  0  0  0  0  0  0  0  0
   12.5533   25.7350   -1.2978 C   0  0  0  0  0  0  0  0  0  0  0  0
   14.4710   27.4276   -3.9923 C   0  0  0  0  0  0  0  0  0  0  0  0
   15.3477   27.9856   -4.5247 N   0  0  0  0  0  0  0  0  0  0  0  0
 24 25  1  0  0  0
 25 26  1  0  0  0
 25 17  1  0  0  0
 17 18  2  0  0  0
 18 19  1  0  0  0
 19 20  1  0  0  0
 19 21  2  0  0  0
 21 22  1  0  0  0
 22 23  2  0  0  0
 22  1  1  0  0  0
  1  2  1  0  0  0
  2  3  1  0  0  0
  3 27  1  0  0  0
 27 28  1  0  0  0
  3  4  1  0  0  0
  4  5  2  0  0  0
  4  6  1  0  0  0
  6  7  1  0  0  0
  7  8  1  0  0  0
  8  9  2  0  0  0
  9 10  1  0  0  0
 10 11  2  0  0  0
 11 12  1  0  0  0
 12 30  1  0  0  0
 30 31  1  0  0  0
 31 32  2  0  0  0
 32 33  1  0  0  0
 33 34  2  0  0  0
 34 35  1  0  0  0
 35 36  2  0  0  0
 34 37  1  0  0  0
 37 38  3  0  0  0
 12 13  2  0  0  0
 13 14  1  0  0  0
 14 15  2  0  0  0
 23 17  1  0  0  0
 14  1  1  0  0  0
 13  8  1  0  0  0
 36 31  1  0  0  0
 28 29  1  0  0  0
  6 16  1  0  0  0
M  END
> <minimizedAffinity>
7.93837

> <CNNscore>
0.5040889382

> <CNNaffinity>
7.4093260765

> <CNN_VS>
3.7349593639

> <CNNaffinity_variance>
0.6365197301

$$$$
[H]OC([H])([H])[C@]1([H])C(=O)N([H])C([H])([H])c2c([H])c([H])c([H])c(Oc3c([H])c([H])c(C#N)c([H])c3[H])c2C(=O)N(c2nc(N(C([H])([H])[H])C([H])([H])[H])c([H])c(C([H])([H])[H])n2)C1([H])[H]


 38 41  0  0  0  0  0  0  0  0999 V2000
   12.8491   21.6844   -0.8360 N   0  0  0  0  0  0  0  0  0  0  0  0
   13.1370   20.3638   -0.3180 C   0  0  0  0  0  0  0  0  0  0  0  0
   13.6353   20.3516    1.1038 C   0  0  0  0  0  0  0  0  0  0  0  0
   12.5814   20.3157    2.1335 C   0  0  0  0  0  0  0  0  0  0  0  0
   12.8683   19.7135    3.2419 O   0  0  0  0  0  0  0  0  0  0  0  0
   11.2933   20.8522    2.0775 N   0  0  0  0  0  0  0  0  0  0  0  0
   10.2836   20.6826    1.0663 C   0  0  0  0  0  0  0  0  0  0  0  0
    9.9159   22.0822    0.6348 C   0  0  0  0  0  0  0  0  0  0  0  0
    8.8910   22.6102    1.3917 C   0  0  0  0  0  0  0  0  0  0  0  0
    8.3865   23.8715    1.1555 C   0  0  0  0  0  0  0  0  0  0  0  0
    8.9220   24.5981    0.1484 C   0  0  0  0  0  0  0  0  0  0  0  0
    9.9734   24.0772   -0.6415 C   0  0  0  0  0  0  0  0  0  0  0  0
   10.4916   22.7772   -0.3911 C   0  0  0  0  0  0  0  0  0  0  0  0
   11.6287   22.2942   -1.1680 C   0  0  0  0  0  0  0  0  0  0  0  0
   11.4844   22.4667   -2.4427 O   0  0  0  0  0  0  0  0  0  0  0  0
   11.0064   21.4794    2.9062 H   0  0  0  0  0  0  0  0  0  0  0  0
   16.0939   23.1882   -0.0939 C   0  0  0  0  0  0  0  0  0  0  0  0
   16.4243   23.7049   -1.3374 C   0  0  0  0  0  0  0  0  0  0  0  0
   15.5984   23.5751   -2.4372 C   0  0  0  0  0  0  0  0  0  0  0  0
   15.9548   24.1205   -3.7681 C   0  0  0  0  0  0  0  0  0  0  0  0
   14.4397   22.9119   -2.2361 N   0  0  0  0  0  0  0  0  0  0  0  0
   14.1074   22.4129   -1.0597 C   0  0  0  0  0  0  0  0  0  0  0  0
   14.9119   22.5415    0.0027 N   0  0  0  0  0  0  0  0  0  0  0  0
   16.9906   22.3728    2.0674 C   0  0  0  0  0  0  0  0  0  0  0  0
   16.9619   23.3469    1.0068 N   0  0  0  0  0  0  0  0  0  0  0  0
   17.8338   24.4943    1.0642 C   0  0  0  0  0  0  0  0  0  0  0  0
   14.5606   19.1279    1.3193 C   0  0  0  0  0  0  0  0  0  0  0  0
   15.8482   19.3792    0.9406 O   0  0  0  0  0  0  0  0  0  0  0  0
   16.2303   20.2262    1.2653 H   0  0  0  0  0  0  0  0  0  0  0  0
   10.3983   24.9109   -1.5906 O   0  0  0  0  0  0  0  0  0  0  0  0
   11.4321   25.4946   -2.1733 C   0  0  0  0  0  0  0  0  0  0  0  0
   11.2825   25.9986   -3.4822 C   0  0  0  0  0  0  0  0  0  0  0  0
   12.3040   26.6200   -4.1510 C   0  0  0  0  0  0  0  0  0  0  0  0
   13.5303   26.7697   -3.5463 C   0  0  0  0  0  0  0  0  0  0  0  0
   13.7006   26.2775   -2.2514 C   0  0  0  0  0  0  0  0  0  0  0  0
   12.6932   25.6581   -1.5755 C   0  0  0  0  0  0  0  0  0  0  0  0
   14.6261   27.4186   -4.2151 C   0  0  0  0  0  0  0  0  0  0  0  0
   15.5242   27.9430   -4.7458 N   0  0  0  0  0  0  0  0  0  0  0  0
 24 25  1  0  0  0
 25 26  1  0  0  0
 25 17  1  0  0  0
 17 18  2  0  0  0
 18 19  1  0  0  0
 19 20  1  0  0  0
 19 21  2  0  0  0
 21 22  1  0  0  0
 22 23  2  0  0  0
 22  1  1  0  0  0
  1  2  1  0  0  0
  2  3  1  0  0  0
  3 27  1  0  0  0
 27 28  1  0  0  0
  3  4  1  0  0  0
  4  5  2  0  0  0
  4  6  1  0  0  0
  6  7  1  0  0  0
  7  8  1  0  0  0
  8  9  2  0  0  0
  9 10  1  0  0  0
 10 11  2  0  0  0
 11 12  1  0  0  0
 12 30  1  0  0  0
 30 31  1  0  0  0
 31 32  2  0  0  0
 32 33  1  0  0  0
 33 34  2  0  0  0
 34 35  1  0  0  0
 35 36  2  0  0  0
 34 37  1  0  0  0
 37 38  3  0  0  0
 12 13  2  0  0  0
 13 14  1  0  0  0
 14 15  2  0  0  0
 23 17  1  0  0  0
 14  1  1  0  0  0
 13  8  1  0  0  0
 36 31  1  0  0  0
 28 29  1  0  0  0
  6 16  1  0  0  0
M  END
> <minimizedAffinity>
11.42036

> <CNNscore>
0.5000743866

> <CNNaffinity>
7.3761854172

> <CNN_VS>
3.6886413097

> <CNNaffinity_variance>
1.0018918514

$$$$
[H]c1nc(OC([H])([H])[H])c([H])c([H])c1C1=NN(C(=O)N(C([H])([H])[H])C([H])([H])[H])C([H])(c2c([H])c([H])c([H])c([H])c2[H])C1([H])c1c([H])c([H])c([H])c([H])c1[H]


 30 33  0  0  0  0  0  0  0  0999 V2000
   15.8884   24.4881   -2.1449 C   0  0  0  0  0  0  0  0  0  0  0  0
   15.6804   23.3822   -2.7611 N   0  0  0  0  0  0  0  0  0  0  0  0
   14.9926   23.5470   -3.9475 N   0  0  0  0  0  0  0  0  0  0  0  0
   14.6593   24.9519   -4.0869 C   0  0  0  0  0  0  0  0  0  0  0  0
   15.3235   25.5708   -2.9269 C   0  0  0  0  0  0  0  0  0  0  0  0
   14.6674   22.5083   -4.8706 C   0  0  0  0  0  0  0  0  0  0  0  0
   14.0207   22.8222   -5.9266 O   0  0  0  0  0  0  0  0  0  0  0  0
   15.0258   21.1555   -4.6722 N   0  0  0  0  0  0  0  0  0  0  0  0
   15.7541   20.6964   -3.5177 C   0  0  0  0  0  0  0  0  0  0  0  0
   14.6541   20.1633   -5.6638 C   0  0  0  0  0  0  0  0  0  0  0  0
   17.9618   24.5514    1.5245 C   0  0  0  0  0  0  0  0  0  0  0  0
   18.5835   24.0393    0.4324 C   0  0  0  0  0  0  0  0  0  0  0  0
   17.8780   24.0301   -0.7736 C   0  0  0  0  0  0  0  0  0  0  0  0
   16.6021   24.5173   -0.8667 C   0  0  0  0  0  0  0  0  0  0  0  0
   16.0142   25.0233    0.2562 C   0  0  0  0  0  0  0  0  0  0  0  0
   16.7110   25.0263    1.4219 N   0  0  0  0  0  0  0  0  0  0  0  0
   20.0084   24.8979    2.7807 C   0  0  0  0  0  0  0  0  0  0  0  0
   18.6403   24.5717    2.7311 O   0  0  0  0  0  0  0  0  0  0  0  0
   16.2417   26.6777   -3.2421 C   0  0  0  0  0  0  0  0  0  0  0  0
   15.7891   27.6996   -4.0866 C   0  0  0  0  0  0  0  0  0  0  0  0
   16.5788   28.7812   -4.4183 C   0  0  0  0  0  0  0  0  0  0  0  0
   17.8535   28.8696   -3.9094 C   0  0  0  0  0  0  0  0  0  0  0  0
   18.2762   27.8515   -3.0806 C   0  0  0  0  0  0  0  0  0  0  0  0
   17.4984   26.7644   -2.7400 C   0  0  0  0  0  0  0  0  0  0  0  0
   15.0111   25.4584   -5.4147 C   0  0  0  0  0  0  0  0  0  0  0  0
   16.1596   25.0926   -6.0532 C   0  0  0  0  0  0  0  0  0  0  0  0
   16.5022   25.5732   -7.3043 C   0  0  0  0  0  0  0  0  0  0  0  0
   15.6596   26.4517   -7.9344 C   0  0  0  0  0  0  0  0  0  0  0  0
   14.5057   26.8384   -7.3281 C   0  0  0  0  0  0  0  0  0  0  0  0
   14.1733   26.3402   -6.0562 C   0  0  0  0  0  0  0  0  0  0  0  0
 17 18  1  0  0  0
 18 11  1  0  0  0
 11 12  2  0  0  0
 12 13  1  0  0  0
 13 14  2  0  0  0
 14 15  1  0  0  0
 15 16  2  0  0  0
 14  1  1  0  0  0
  1  2  2  0  0  0
  2  3  1  0  0  0
  3  4  1  0  0  0
  4  5  1  0  0  0
  5 19  1  0  0  0
 19 20  2  0  0  0
 20 21  1  0  0  0
 21 22  2  0  0  0
 22 23  1  0  0  0
 23 24  2  0  0  0
  4 25  1  0  0  0
 25 26  2  0  0  0
 26 27  1  0  0  0
 27 28  2  0  0  0
 28 29  1  0  0  0
 29 30  2  0  0  0
  3  6  1  0  0  0
  6  7  2  0  0  0
  6  8  1  0  0  0
  8  9  1  0  0  0
  8 10  1  0  0  0
 16 11  1  0  0  0
  5  1  1  0  0  0
 24 19  1  0  0  0
 30 25  1  0  0  0
M  END
> <minimizedAffinity>
23.78888

> <CNNscore>
0.5726129413

> <CNNaffinity>
7.1596398354

> <CNN_VS>
4.0997023582

> <CNNaffinity_variance>
1.2319563627

$$$$
[H]c1nc(OC([H])([H])[H])c([H])c([H])c1C1=NN(C(=O)N(C([H])([H])[H])C([H])([H])[H])C([H])(c2c([H])c([H])c([H])c([H])c2[H])C1([H])c1c([H])c([H])c([H])c([H])c1[H]


 30 33  0  0  0  0  0  0  0  0999 V2000
   13.9526   23.8330   -1.5461 C   0  0  0  0  0  0  0  0  0  0  0  0
   14.9387   23.7894   -0.7266 N   0  0  0  0  0  0  0  0  0  0  0  0
   16.1269   24.2130   -1.2893 N   0  0  0  0  0  0  0  0  0  0  0  0
   15.8833   24.5178   -2.6865 C   0  0  0  0  0  0  0  0  0  0  0  0
   14.4279   24.3347   -2.8210 C   0  0  0  0  0  0  0  0  0  0  0  0
   17.3755   24.3261   -0.6076 C   0  0  0  0  0  0  0  0  0  0  0  0
   18.3891   24.7312   -1.2711 O   0  0  0  0  0  0  0  0  0  0  0  0
   17.5422   24.0124    0.7605 N   0  0  0  0  0  0  0  0  0  0  0  0
   16.4660   23.5482    1.5974 C   0  0  0  0  0  0  0  0  0  0  0  0
   18.8493   24.1567    1.3743 C   0  0  0  0  0  0  0  0  0  0  0  0
   10.0868   22.6679   -0.3355 C   0  0  0  0  0  0  0  0  0  0  0  0
   10.5711   23.8626    0.0886 C   0  0  0  0  0  0  0  0  0  0  0  0
   11.8539   24.2292   -0.3265 C   0  0  0  0  0  0  0  0  0  0  0  0
   12.6094   23.4215   -1.1333 C   0  0  0  0  0  0  0  0  0  0  0  0
   12.0839   22.2283   -1.5366 C   0  0  0  0  0  0  0  0  0  0  0  0
   10.8359   21.8842   -1.1262 N   0  0  0  0  0  0  0  0  0  0  0  0
    8.0518   23.1014    0.9127 C   0  0  0  0  0  0  0  0  0  0  0  0
    8.8181   22.2825    0.0623 O   0  0  0  0  0  0  0  0  0  0  0  0
   13.6946   25.4889   -3.3668 C   0  0  0  0  0  0  0  0  0  0  0  0
   13.9990   25.9191   -4.6646 C   0  0  0  0  0  0  0  0  0  0  0  0
   13.3472   26.9808   -5.2575 C   0  0  0  0  0  0  0  0  0  0  0  0
   12.3651   27.6460   -4.5614 C   0  0  0  0  0  0  0  0  0  0  0  0
   12.0836   27.2038   -3.2857 C   0  0  0  0  0  0  0  0  0  0  0  0
   12.7263   26.1442   -2.6799 C   0  0  0  0  0  0  0  0  0  0  0  0
   16.4358   25.8223   -3.0560 C   0  0  0  0  0  0  0  0  0  0  0  0
   16.7253   26.7800   -2.1288 C   0  0  0  0  0  0  0  0  0  0  0  0
   17.2399   28.0174   -2.4712 C   0  0  0  0  0  0  0  0  0  0  0  0
   17.4714   28.3005   -3.7923 C   0  0  0  0  0  0  0  0  0  0  0  0
   17.1949   27.3699   -4.7441 C   0  0  0  0  0  0  0  0  0  0  0  0
   16.6720   26.1173   -4.3782 C   0  0  0  0  0  0  0  0  0  0  0  0
 17 18  1  0  0  0
 18 11  1  0  0  0
 11 12  2  0  0  0
 12 13  1  0  0  0
 13 14  2  0  0  0
 14 15  1  0  0  0
 15 16  2  0  0  0
 14  1  1  0  0  0
  1  2  2  0  0  0
  2  3  1  0  0  0
  3  4  1  0  0  0
  4  5  1  0  0  0
  5 19  1  0  0  0
 19 20  2  0  0  0
 20 21  1  0  0  0
 21 22  2  0  0  0
 22 23  1  0  0  0
 23 24  2  0  0  0
  4 25  1  0  0  0
 25 26  2  0  0  0
 26 27  1  0  0  0
 27 28  2  0  0  0
 28 29  1  0  0  0
 29 30  2  0  0  0
  3  6  1  0  0  0
  6  7  2  0  0  0
  6  8  1  0  0  0
  8  9  1  0  0  0
  8 10  1  0  0  0
 16 11  1  0  0  0
  5  1  1  0  0  0
 24 19  1  0  0  0
 30 25  1  0  0  0
M  END
> <minimizedAffinity>
1.98542

> <CNNscore>
0.5271217227

> <CNNaffinity>
7.2985968590

> <CNN_VS>
3.8472490311

> <CNNaffinity_variance>
0.6575514078

$$$$
[H]c1nc(OC([H])([H])[H])c([H])c([H])c1C1=NN(C(=O)N(C([H])([H])[H])C([H])([H])[H])C([H])(c2c([H])c([H])c([H])c([H])c2[H])C1([H])c1c([H])c([H])c([H])c([H])c1[H]


 30 33  0  0  0  0  0  0  0  0999 V2000
   12.7912   24.5120   -0.2826 C   0  0  0  0  0  0  0  0  0  0  0  0
   12.5939   25.3564   -1.2281 N   0  0  0  0  0  0  0  0  0  0  0  0
   13.6568   25.4410   -2.1061 N   0  0  0  0  0  0  0  0  0  0  0  0
   14.7124   24.5699   -1.6252 C   0  0  0  0  0  0  0  0  0  0  0  0
   14.0965   23.9066   -0.4631 C   0  0  0  0  0  0  0  0  0  0  0  0
   13.7020   26.2504   -3.2806 C   0  0  0  0  0  0  0  0  0  0  0  0
   14.7635   26.2219   -3.9908 O   0  0  0  0  0  0  0  0  0  0  0  0
   12.6327   27.0778   -3.6928 N   0  0  0  0  0  0  0  0  0  0  0  0
   11.3943   27.1827   -2.9652 C   0  0  0  0  0  0  0  0  0  0  0  0
   12.7641   27.8687   -4.9024 C   0  0  0  0  0  0  0  0  0  0  0  0
    9.8706   23.8817    2.6907 C   0  0  0  0  0  0  0  0  0  0  0  0
    9.9966   25.1209    2.1521 C   0  0  0  0  0  0  0  0  0  0  0  0
   10.9699   25.3064    1.1669 C   0  0  0  0  0  0  0  0  0  0  0  0
   11.7770   24.2829    0.7485 C   0  0  0  0  0  0  0  0  0  0  0  0
   11.6168   23.0525    1.3168 C   0  0  0  0  0  0  0  0  0  0  0  0
   10.6670   22.8857    2.2731 N   0  0  0  0  0  0  0  0  0  0  0  0
    9.1722   22.8190    4.7571 C   0  0  0  0  0  0  0  0  0  0  0  0
    8.9132   23.6728    3.6686 O   0  0  0  0  0  0  0  0  0  0  0  0
   14.1196   22.4348   -0.4912 C   0  0  0  0  0  0  0  0  0  0  0  0
   15.1368   21.7704    0.2060 C   0  0  0  0  0  0  0  0  0  0  0  0
   15.2213   20.3939    0.2454 C   0  0  0  0  0  0  0  0  0  0  0  0
   14.2819   19.6391   -0.4176 C   0  0  0  0  0  0  0  0  0  0  0  0
   13.2906   20.3160   -1.0966 C   0  0  0  0  0  0  0  0  0  0  0  0
   13.1931   21.6911   -1.1450 C   0  0  0  0  0  0  0  0  0  0  0  0
   15.2310   23.7138   -2.6936 C   0  0  0  0  0  0  0  0  0  0  0  0
   14.6374   22.5340   -3.0346 C   0  0  0  0  0  0  0  0  0  0  0  0
   15.1263   21.7163   -4.0376 C   0  0  0  0  0  0  0  0  0  0  0  0
   16.2511   22.0996   -4.7208 C   0  0  0  0  0  0  0  0  0  0  0  0
   16.8692   23.2695   -4.4081 C   0  0  0  0  0  0  0  0  0  0  0  0
   16.3587   24.0882   -3.3857 C   0  0  0  0  0  0  0  0  0  0  0  0
 17 18  1  0  0  0
 18 11  1  0  0  0
 11 12  2  0  0  0
 12 13  1  0  0  0
 13 14  2  0  0  0
 14 15  1  0  0  0
 15 16  2  0  0  0
 14  1  1  0  0  0
  1  2  2  0  0  0
  2  3  1  0  0  0
  3  4  1  0  0  0
  4  5  1  0  0  0
  5 19  1  0  0  0
 19 20  2  0  0  0
 20 21  1  0  0  0
 21 22  2  0  0  0
 22 23  1  0  0  0
 23 24  2  0  0  0
  4 25  1  0  0  0
 25 26  2  0  0  0
 26 27  1  0  0  0
 27 28  2  0  0  0
 28 29  1  0  0  0
 29 30  2  0  0  0
  3  6  1  0  0  0
  6  7  2  0  0  0
  6  8  1  0  0  0
  8  9  1  0  0  0
  8 10  1  0  0  0
 16 11  1  0  0  0
  5  1  1  0  0  0
 24 19  1  0  0  0
 30 25  1  0  0  0
M  END
> <minimizedAffinity>
7.03398

> <CNNscore>
0.5174794197

> <CNNaffinity>
7.1990575790

> <CNN_VS>
3.7253642082

> <CNNaffinity_variance>
0.8258978128

$$$$
[H]c1nc(OC([H])([H])[H])c([H])c([H])c1C1=NN(C(=O)N(C([H])([H])[H])C([H])([H])[H])C([H])(c2c([H])c([H])c([H])c([H])c2[H])C1([H])c1c([H])c([H])c([H])c([H])c1[H]


 30 33  0  0  0  0  0  0  0  0999 V2000
   11.6165   22.9387   -0.2530 C   0  0  0  0  0  0  0  0  0  0  0  0
   12.4435   22.0793    0.2195 N   0  0  0  0  0  0  0  0  0  0  0  0
   13.4434   21.7456   -0.6730 N   0  0  0  0  0  0  0  0  0  0  0  0
   13.1916   22.4458   -1.9183 C   0  0  0  0  0  0  0  0  0  0  0  0
   12.0255   23.2876   -1.5999 C   0  0  0  0  0  0  0  0  0  0  0  0
   14.5319   20.8612   -0.4089 C   0  0  0  0  0  0  0  0  0  0  0  0
   15.3767   20.6504   -1.3437 O   0  0  0  0  0  0  0  0  0  0  0  0
   14.7181   20.2111    0.8323 N   0  0  0  0  0  0  0  0  0  0  0  0
   13.8254   20.3797    1.9498 C   0  0  0  0  0  0  0  0  0  0  0  0
   15.8545   19.3271    1.0145 C   0  0  0  0  0  0  0  0  0  0  0  0
    8.3765   24.3076    2.0699 C   0  0  0  0  0  0  0  0  0  0  0  0
    9.6054   24.2372    2.6413 C   0  0  0  0  0  0  0  0  0  0  0  0
   10.6649   23.7824    1.8521 C   0  0  0  0  0  0  0  0  0  0  0  0
   10.4857   23.4163    0.5453 C   0  0  0  0  0  0  0  0  0  0  0  0
    9.2332   23.5025    0.0102 C   0  0  0  0  0  0  0  0  0  0  0  0
    8.2122   23.9463    0.7881 N   0  0  0  0  0  0  0  0  0  0  0  0
    7.3421   26.0267    3.4343 C   0  0  0  0  0  0  0  0  0  0  0  0
    7.3106   24.7553    2.8314 O   0  0  0  0  0  0  0  0  0  0  0  0
   12.1951   24.7261   -1.8635 C   0  0  0  0  0  0  0  0  0  0  0  0
   12.3912   25.5850   -0.7745 C   0  0  0  0  0  0  0  0  0  0  0  0
   12.5757   26.9429   -0.9347 C   0  0  0  0  0  0  0  0  0  0  0  0
   12.5687   27.4820   -2.2000 C   0  0  0  0  0  0  0  0  0  0  0  0
   12.3738   26.6163   -3.2558 C   0  0  0  0  0  0  0  0  0  0  0  0
   12.1882   25.2571   -3.1113 C   0  0  0  0  0  0  0  0  0  0  0  0
   14.3955   23.1192   -2.4088 C   0  0  0  0  0  0  0  0  0  0  0  0
   14.8493   22.9618   -3.6855 C   0  0  0  0  0  0  0  0  0  0  0  0
   15.9902   23.5886   -4.1535 C   0  0  0  0  0  0  0  0  0  0  0  0
   16.6984   24.4018   -3.3074 C   0  0  0  0  0  0  0  0  0  0  0  0
   16.2757   24.5822   -2.0279 C   0  0  0  0  0  0  0  0  0  0  0  0
   15.1139   23.9373   -1.5689 C   0  0  0  0  0  0  0  0  0  0  0  0
 17 18  1  0  0  0
 18 11  1  0  0  0
 11 12  2  0  0  0
 12 13  1  0  0  0
 13 14  2  0  0  0
 14 15  1  0  0  0
 15 16  2  0  0  0
 14  1  1  0  0  0
  1  2  2  0  0  0
  2  3  1  0  0  0
  3  4  1  0  0  0
  4  5  1  0  0  0
  5 19  1  0  0  0
 19 20  2  0  0  0
 20 21  1  0  0  0
 21 22  2  0  0  0
 22 23  1  0  0  0
 23 24  2  0  0  0
  4 25  1  0  0  0
 25 26  2  0  0  0
 26 27  1  0  0  0
 27 28  2  0  0  0
 28 29  1  0  0  0
 29 30  2  0  0  0
  3  6  1  0  0  0
  6  7  2  0  0  0
  6  8  1  0  0  0
  8  9  1  0  0  0
  8 10  1  0  0  0
 16 11  1  0  0  0
  5  1  1  0  0  0
 24 19  1  0  0  0
 30 25  1  0  0  0
M  END
> <minimizedAffinity>
5.54858

> <CNNscore>
0.5097476244

> <CNNaffinity>
6.9681763649

> <CNN_VS>
3.5520112514

> <CNNaffinity_variance>
0.7341000438

$$$$
[H]c1nc(OC([H])([H])[H])c([H])c([H])c1C1=NN(C(=O)N(C([H])([H])[H])C([H])([H])[H])C([H])(c2c([H])c([H])c([H])c([H])c2[H])C1([H])c1c([H])c([H])c([H])c([H])c1[H]


 30 33  0  0  0  0  0  0  0  0999 V2000
   13.4719   24.9952   -2.2373 C   0  0  0  0  0  0  0  0  0  0  0  0
   14.0645   24.1300   -2.9764 N   0  0  0  0  0  0  0  0  0  0  0  0
   14.4108   22.9819   -2.2910 N   0  0  0  0  0  0  0  0  0  0  0  0
   14.0408   23.1559   -0.8992 C   0  0  0  0  0  0  0  0  0  0  0  0
   13.3536   24.4588   -0.8952 C   0  0  0  0  0  0  0  0  0  0  0  0
   15.0285   21.8284   -2.8607 C   0  0  0  0  0  0  0  0  0  0  0  0
   15.2908   20.8437   -2.0904 O   0  0  0  0  0  0  0  0  0  0  0  0
   15.3619   21.7251   -4.2304 N   0  0  0  0  0  0  0  0  0  0  0  0
   15.1095   22.7759   -5.1824 C   0  0  0  0  0  0  0  0  0  0  0  0
   15.9887   20.5136   -4.7256 C   0  0  0  0  0  0  0  0  0  0  0  0
   12.1812   28.6958   -3.7887 C   0  0  0  0  0  0  0  0  0  0  0  0
   12.1850   28.5178   -2.4433 C   0  0  0  0  0  0  0  0  0  0  0  0
   12.6184   27.2840   -1.9514 C   0  0  0  0  0  0  0  0  0  0  0  0
   13.0284   26.2786   -2.7851 C   0  0  0  0  0  0  0  0  0  0  0  0
   13.0085   26.4999   -4.1317 C   0  0  0  0  0  0  0  0  0  0  0  0
   12.5851   27.7035   -4.5967 N   0  0  0  0  0  0  0  0  0  0  0  0
   11.7231   31.0596   -3.4894 C   0  0  0  0  0  0  0  0  0  0  0  0
   11.7561   29.9099   -4.3005 O   0  0  0  0  0  0  0  0  0  0  0  0
   11.9955   24.4540   -0.3267 C   0  0  0  0  0  0  0  0  0  0  0  0
   11.8335   24.8179    1.0162 C   0  0  0  0  0  0  0  0  0  0  0  0
   10.5944   24.8566    1.6217 C   0  0  0  0  0  0  0  0  0  0  0  0
    9.4747   24.5294    0.8931 C   0  0  0  0  0  0  0  0  0  0  0  0
    9.6599   24.1745   -0.4267 C   0  0  0  0  0  0  0  0  0  0  0  0
   10.8919   24.1313   -1.0456 C   0  0  0  0  0  0  0  0  0  0  0  0
   13.2983   22.0004   -0.3922 C   0  0  0  0  0  0  0  0  0  0  0  0
   13.5368   21.4644    0.8392 C   0  0  0  0  0  0  0  0  0  0  0  0
   12.8447   20.3680    1.3214 C   0  0  0  0  0  0  0  0  0  0  0  0
   11.8793   19.7917    0.5374 C   0  0  0  0  0  0  0  0  0  0  0  0
   11.6145   20.2994   -0.6957 C   0  0  0  0  0  0  0  0  0  0  0  0
   12.3276   21.4142   -1.1701 C   0  0  0  0  0  0  0  0  0  0  0  0
 17 18  1  0  0  0
 18 11  1  0  0  0
 11 12  2  0  0  0
 12 13  1  0  0  0
 13 14  2  0  0  0
 14 15  1  0  0  0
 15 16  2  0  0  0
 14  1  1  0  0  0
  1  2  2  0  0  0
  2  3  1  0  0  0
  3  4  1  0  0  0
  4  5  1  0  0  0
  5 19  1  0  0  0
 19 20  2  0  0  0
 20 21  1  0  0  0
 21 22  2  0  0  0
 22 23  1  0  0  0
 23 24  2  0  0  0
  4 25  1  0  0  0
 25 26  2  0  0  0
 26 27  1  0  0  0
 27 28  2  0  0  0
 28 29  1  0  0  0
 29 30  2  0  0  0
  3  6  1  0  0  0
  6  7  2  0  0  0
  6  8  1  0  0  0
  8  9  1  0  0  0
  8 10  1  0  0  0
 16 11  1  0  0  0
  5  1  1  0  0  0
 24 19  1  0  0  0
 30 25  1  0  0  0
M  END
> <minimizedAffinity>
15.39383

> <CNNscore>
0.4679389596

> <CNNaffinity>
6.6968894005

> <CNN_VS>
3.1337354183

> <CNNaffinity_variance>
0.8683426976

$$$$
[H]c1nc(OC([H])([H])[H])c([H])c([H])c1C1=NN(C(=O)N(C([H])([H])[H])C([H])([H])[H])C([H])(c2c([H])c([H])c([H])c([H])c2[H])C1([H])c1c([H])c([H])c([H])c([H])c1[H]


 30 33  0  0  0  0  0  0  0  0999 V2000
   14.9612   24.4065   -0.8575 C   0  0  0  0  0  0  0  0  0  0  0  0
   15.4211   23.2903   -0.4232 N   0  0  0  0  0  0  0  0  0  0  0  0
   14.5592   22.6546    0.4490 N   0  0  0  0  0  0  0  0  0  0  0  0
   13.4054   23.5105    0.6505 C   0  0  0  0  0  0  0  0  0  0  0  0
   13.6507   24.6279   -0.2774 C   0  0  0  0  0  0  0  0  0  0  0  0
   14.7751   21.3769    1.0470 C   0  0  0  0  0  0  0  0  0  0  0  0
   13.8810   20.9243    1.8393 O   0  0  0  0  0  0  0  0  0  0  0  0
   15.9259   20.5927    0.8047 N   0  0  0  0  0  0  0  0  0  0  0  0
   16.9914   21.0097   -0.0699 C   0  0  0  0  0  0  0  0  0  0  0  0
   16.0639   19.3031    1.4557 C   0  0  0  0  0  0  0  0  0  0  0  0
   17.1789   26.7943   -3.5309 C   0  0  0  0  0  0  0  0  0  0  0  0
   17.0857   27.1814   -2.2335 C   0  0  0  0  0  0  0  0  0  0  0  0
   16.3472   26.3738   -1.3649 C   0  0  0  0  0  0  0  0  0  0  0  0
   15.7323   25.2280   -1.7926 C   0  0  0  0  0  0  0  0  0  0  0  0
   15.8515   24.8756   -3.1057 C   0  0  0  0  0  0  0  0  0  0  0  0
   16.5723   25.6693   -3.9393 N   0  0  0  0  0  0  0  0  0  0  0  0
   18.8259   28.5298   -3.9341 C   0  0  0  0  0  0  0  0  0  0  0  0
   17.9054   27.5779   -4.4111 O   0  0  0  0  0  0  0  0  0  0  0  0
   12.5664   24.9024   -1.2349 C   0  0  0  0  0  0  0  0  0  0  0  0
   11.2874   24.4048   -0.9546 C   0  0  0  0  0  0  0  0  0  0  0  0
   10.2126   24.6311   -1.7895 C   0  0  0  0  0  0  0  0  0  0  0  0
   10.3908   25.3677   -2.9372 C   0  0  0  0  0  0  0  0  0  0  0  0
   11.6589   25.8467   -3.1914 C   0  0  0  0  0  0  0  0  0  0  0  0
   12.7427   25.6288   -2.3663 C   0  0  0  0  0  0  0  0  0  0  0  0
   12.1527   22.7686    0.4964 C   0  0  0  0  0  0  0  0  0  0  0  0
   11.1082   22.9149    1.3614 C   0  0  0  0  0  0  0  0  0  0  0  0
    9.9248   22.2115    1.2266 C   0  0  0  0  0  0  0  0  0  0  0  0
    9.7880   21.3308    0.1852 C   0  0  0  0  0  0  0  0  0  0  0  0
   10.8084   21.1593   -0.6968 C   0  0  0  0  0  0  0  0  0  0  0  0
   12.0043   21.8824   -0.5446 C   0  0  0  0  0  0  0  0  0  0  0  0
 17 18  1  0  0  0
 18 11  1  0  0  0
 11 12  2  0  0  0
 12 13  1  0  0  0
 13 14  2  0  0  0
 14 15  1  0  0  0
 15 16  2  0  0  0
 14  1  1  0  0  0
  1  2  2  0  0  0
  2  3  1  0  0  0
  3  4  1  0  0  0
  4  5  1  0  0  0
  5 19  1  0  0  0
 19 20  2  0  0  0
 20 21  1  0  0  0
 21 22  2  0  0  0
 22 23  1  0  0  0
 23 24  2  0  0  0
  4 25  1  0  0  0
 25 26  2  0  0  0
 26 27  1  0  0  0
 27 28  2  0  0  0
 28 29  1  0  0  0
 29 30  2  0  0  0
  3  6  1  0  0  0
  6  7  2  0  0  0
  6  8  1  0  0  0
  8  9  1  0  0  0
  8 10  1  0  0  0
 16 11  1  0  0  0
  5  1  1  0  0  0
 24 19  1  0  0  0
 30 25  1  0  0  0
M  END
> <minimizedAffinity>
10.80847

> <CNNscore>
0.4611950815

> <CNNaffinity>
7.1986703873

> <CNN_VS>
3.3199913502

> <CNNaffinity_variance>
1.5660636425

$$$$
[H]c1nc(OC([H])([H])[H])c([H])c([H])c1C1=NN(C(=O)N(C([H])([H])[H])C([H])([H])[H])C([H])(c2c([H])c([H])c([H])c([H])c2[H])C1([H])c1c([H])c([H])c([H])c([H])c1[H]


 30 33  0  0  0  0  0  0  0  0999 V2000
   11.8732   24.3322   -0.6730 C   0  0  0  0  0  0  0  0  0  0  0  0
   11.8046   25.1359   -1.6707 N   0  0  0  0  0  0  0  0  0  0  0  0
   13.0198   25.7140   -1.9822 N   0  0  0  0  0  0  0  0  0  0  0  0
   13.9984   25.2632   -1.0109 C   0  0  0  0  0  0  0  0  0  0  0  0
   13.2434   24.2927   -0.1997 C   0  0  0  0  0  0  0  0  0  0  0  0
   13.2620   26.6029   -3.0721 C   0  0  0  0  0  0  0  0  0  0  0  0
   14.4456   27.0582   -3.2258 O   0  0  0  0  0  0  0  0  0  0  0  0
   12.2588   27.0008   -3.9848 N   0  0  0  0  0  0  0  0  0  0  0  0
   10.8948   26.5463   -3.9011 C   0  0  0  0  0  0  0  0  0  0  0  0
   12.5935   27.9093   -5.0658 C   0  0  0  0  0  0  0  0  0  0  0  0
    8.4573   22.3055    0.7381 C   0  0  0  0  0  0  0  0  0  0  0  0
    8.8412   23.4489    1.3602 C   0  0  0  0  0  0  0  0  0  0  0  0
    9.9752   24.1049    0.8744 C   0  0  0  0  0  0  0  0  0  0  0  0
   10.6859   23.6232   -0.1918 C   0  0  0  0  0  0  0  0  0  0  0  0
   10.2651   22.4700   -0.7881 C   0  0  0  0  0  0  0  0  0  0  0  0
    9.1613   21.8424   -0.3061 N   0  0  0  0  0  0  0  0  0  0  0  0
    7.3118   21.0875    2.4963 C   0  0  0  0  0  0  0  0  0  0  0  0
    7.3367   21.6373    1.2010 O   0  0  0  0  0  0  0  0  0  0  0  0
   13.8453   22.9530   -0.0967 C   0  0  0  0  0  0  0  0  0  0  0  0
   14.8487   22.7444    0.8581 C   0  0  0  0  0  0  0  0  0  0  0  0
   15.4523   21.5160    1.0320 C   0  0  0  0  0  0  0  0  0  0  0  0
   15.0644   20.4545    0.2481 C   0  0  0  0  0  0  0  0  0  0  0  0
   14.0749   20.6848   -0.6846 C   0  0  0  0  0  0  0  0  0  0  0  0
   13.4624   21.9068   -0.8698 C   0  0  0  0  0  0  0  0  0  0  0  0
   15.2224   24.7911   -1.6609 C   0  0  0  0  0  0  0  0  0  0  0  0
   16.4637   25.0889   -1.1805 C   0  0  0  0  0  0  0  0  0  0  0  0
   17.6245   24.6530   -1.7938 C   0  0  0  0  0  0  0  0  0  0  0  0
   17.5324   23.8910   -2.9294 C   0  0  0  0  0  0  0  0  0  0  0  0
   16.3115   23.5744   -3.4369 C   0  0  0  0  0  0  0  0  0  0  0  0
   15.1420   24.0260   -2.8007 C   0  0  0  0  0  0  0  0  0  0  0  0
 17 18  1  0  0  0
 18 11  1  0  0  0
 11 12  2  0  0  0
 12 13  1  0  0  0
 13 14  2  0  0  0
 14 15  1  0  0  0
 15 16  2  0  0  0
 14  1  1  0  0  0
  1  2  2  0  0  0
  2  3  1  0  0  0
  3  4  1  0  0  0
  4  5  1  0  0  0
  5 19  1  0  0  0
 19 20  2  0  0  0
 20 21  1  0  0  0
 21 22  2  0  0  0
 22 23  1  0  0  0
 23 24  2  0  0  0
  4 25  1  0  0  0
 25 26  2  0  0  0
 26 27  1  0  0  0
 27 28  2  0  0  0
 28 29  1  0  0  0
 29 30  2  0  0  0
  3  6  1  0  0  0
  6  7  2  0  0  0
  6  8  1  0  0  0
  8  9  1  0  0  0
  8 10  1  0  0  0
 16 11  1  0  0  0
  5  1  1  0  0  0
 24 19  1  0  0  0
 30 25  1  0  0  0
M  END
> <minimizedAffinity>
6.66547

> <CNNscore>
0.4439133406

> <CNNaffinity>
7.1770119667

> <CNN_VS>
3.1859712601

> <CNNaffinity_variance>
0.7794885635

$$$$
[H]c1nc(OC([H])([H])[H])c([H])c([H])c1C1=NN(C(=O)N(C([H])([H])[H])C([H])([H])[H])C([H])(c2c([H])c([H])c([H])c([H])c2[H])C1([H])c1c([H])c([H])c([H])c([H])c1[H]


 30 33  0  0  0  0  0  0  0  0999 V2000
   12.6319   23.9229   -1.0595 C   0  0  0  0  0  0  0  0  0  0  0  0
   12.8759   24.7944   -1.9688 N   0  0  0  0  0  0  0  0  0  0  0  0
   14.0476   25.4914   -1.7473 N   0  0  0  0  0  0  0  0  0  0  0  0
   14.6083   25.0461   -0.4856 C   0  0  0  0  0  0  0  0  0  0  0  0
   13.7023   23.9570   -0.0819 C   0  0  0  0  0  0  0  0  0  0  0  0
   14.6030   26.4800   -2.6139 C   0  0  0  0  0  0  0  0  0  0  0  0
   15.6969   27.0400   -2.2652 O   0  0  0  0  0  0  0  0  0  0  0  0
   14.0024   26.8662   -3.8338 N   0  0  0  0  0  0  0  0  0  0  0  0
   12.7711   26.2979   -4.3184 C   0  0  0  0  0  0  0  0  0  0  0  0
   14.6367   27.8809   -4.6546 C   0  0  0  0  0  0  0  0  0  0  0  0
    9.1727   21.5186   -1.2055 C   0  0  0  0  0  0  0  0  0  0  0  0
    9.2321   22.5219   -0.2937 C   0  0  0  0  0  0  0  0  0  0  0  0
   10.3874   23.3072   -0.2644 C   0  0  0  0  0  0  0  0  0  0  0  0
   11.4327   23.0847   -1.1198 C   0  0  0  0  0  0  0  0  0  0  0  0
   11.3315   22.0650   -2.0212 C   0  0  0  0  0  0  0  0  0  0  0  0
   10.2032   21.3094   -2.0392 N   0  0  0  0  0  0  0  0  0  0  0  0
    8.0698   19.3971   -0.7937 C   0  0  0  0  0  0  0  0  0  0  0  0
    8.0383   20.7267   -1.2541 O   0  0  0  0  0  0  0  0  0  0  0  0
   14.3530   22.6663    0.1982 C   0  0  0  0  0  0  0  0  0  0  0  0
   14.0623   21.5784   -0.6349 C   0  0  0  0  0  0  0  0  0  0  0  0
   14.6416   20.3395   -0.4530 C   0  0  0  0  0  0  0  0  0  0  0  0
   15.5348   20.1547    0.5763 C   0  0  0  0  0  0  0  0  0  0  0  0
   15.8047   21.2406    1.3827 C   0  0  0  0  0  0  0  0  0  0  0  0
   15.2337   22.4848    1.2132 C   0  0  0  0  0  0  0  0  0  0  0  0
   16.0314   24.7270   -0.6130 C   0  0  0  0  0  0  0  0  0  0  0  0
   16.6246   24.5128   -1.8225 C   0  0  0  0  0  0  0  0  0  0  0  0
   17.9668   24.2032   -1.9499 C   0  0  0  0  0  0  0  0  0  0  0  0
   18.7383   24.1062   -0.8211 C   0  0  0  0  0  0  0  0  0  0  0  0
   18.1809   24.3134    0.4015 C   0  0  0  0  0  0  0  0  0  0  0  0
   16.8150   24.6270    0.5125 C   0  0  0  0  0  0  0  0  0  0  0  0
 17 18  1  0  0  0
 18 11  1  0  0  0
 11 12  2  0  0  0
 12 13  1  0  0  0
 13 14  2  0  0  0
 14 15  1  0  0  0
 15 16  2  0  0  0
 14  1  1  0  0  0
  1  2  2  0  0  0
  2  3  1  0  0  0
  3  4  1  0  0  0
  4  5  1  0  0  0
  5 19  1  0  0  0
 19 20  2  0  0  0
 20 21  1  0  0  0
 21 22  2  0  0  0
 22 23  1  0  0  0
 23 24  2  0  0  0
  4 25  1  0  0  0
 25 26  2  0  0  0
 26 27  1  0  0  0
 27 28  2  0  0  0
 28 29  1  0  0  0
 29 30  2  0  0  0
  3  6  1  0  0  0
  6  7  2  0  0  0
  6  8  1  0  0  0
  8  9  1  0  0  0
  8 10  1  0  0  0
 16 11  1  0  0  0
  5  1  1  0  0  0
 24 19  1  0  0  0
 30 25  1  0  0  0
M  END
> <minimizedAffinity>
5.84187

> <CNNscore>
0.4433242679

> <CNNaffinity>
7.0729155540

> <CNN_VS>
3.1355950832

> <CNNaffinity_variance>
0.5693608522

$$$$
[H]c1nc(OC([H])([H])[H])c([H])c([H])c1C1=NN(C(=O)N(C([H])([H])[H])C([H])([H])[H])C([H])(c2c([H])c([H])c([H])c([H])c2[H])C1([H])c1c([H])c([H])c([H])c([H])c1[H]


 30 33  0  0  0  0  0  0  0  0999 V2000
   12.9484   22.9077   -0.8086 C   0  0  0  0  0  0  0  0  0  0  0  0
   13.4812   22.2678   -1.7846 N   0  0  0  0  0  0  0  0  0  0  0  0
   13.9582   23.0998   -2.7786 N   0  0  0  0  0  0  0  0  0  0  0  0
   13.6347   24.4674   -2.4190 C   0  0  0  0  0  0  0  0  0  0  0  0
   13.0361   24.3295   -1.0802 C   0  0  0  0  0  0  0  0  0  0  0  0
   14.6473   22.6785   -3.9553 C   0  0  0  0  0  0  0  0  0  0  0  0
   15.0236   23.5735   -4.7855 O   0  0  0  0  0  0  0  0  0  0  0  0
   14.9316   21.3243   -4.2434 N   0  0  0  0  0  0  0  0  0  0  0  0
   14.5520   20.2395   -3.3755 C   0  0  0  0  0  0  0  0  0  0  0  0
   15.6381   20.9848   -5.4647 C   0  0  0  0  0  0  0  0  0  0  0  0
   11.3011   20.8824    2.5007 C   0  0  0  0  0  0  0  0  0  0  0  0
   10.4866   21.6518    1.7350 C   0  0  0  0  0  0  0  0  0  0  0  0
   11.0538   22.3124    0.6422 C   0  0  0  0  0  0  0  0  0  0  0  0
   12.3842   22.1978    0.3410 C   0  0  0  0  0  0  0  0  0  0  0  0
   13.1675   21.4138    1.1375 C   0  0  0  0  0  0  0  0  0  0  0  0
   12.6037   20.7771    2.1964 N   0  0  0  0  0  0  0  0  0  0  0  0
   10.7874   20.7991    4.8706 C   0  0  0  0  0  0  0  0  0  0  0  0
   10.7626   20.2176    3.5891 O   0  0  0  0  0  0  0  0  0  0  0  0
   13.6587   25.1444   -0.0238 C   0  0  0  0  0  0  0  0  0  0  0  0
   12.9625   26.2622    0.4537 C   0  0  0  0  0  0  0  0  0  0  0  0
   13.4661   27.0684    1.4536 C   0  0  0  0  0  0  0  0  0  0  0  0
   14.6905   26.7750    2.0071 C   0  0  0  0  0  0  0  0  0  0  0  0
   15.3566   25.6697    1.5204 C   0  0  0  0  0  0  0  0  0  0  0  0
   14.8659   24.8545    0.5216 C   0  0  0  0  0  0  0  0  0  0  0  0
   14.7978   25.3469   -2.5502 C   0  0  0  0  0  0  0  0  0  0  0  0
   14.7641   26.4944   -3.2868 C   0  0  0  0  0  0  0  0  0  0  0  0
   15.8613   27.3259   -3.4216 C   0  0  0  0  0  0  0  0  0  0  0  0
   17.0326   26.9909   -2.7933 C   0  0  0  0  0  0  0  0  0  0  0  0
   17.1029   25.8544   -2.0504 C   0  0  0  0  0  0  0  0  0  0  0  0
   15.9780   25.0207   -1.9243 C   0  0  0  0  0  0  0  0  0  0  0  0
 17 18  1  0  0  0
 18 11  1  0  0  0
 11 12  2  0  0  0
 12 13  1  0  0  0
 13 14  2  0  0  0
 14 15  1  0  0  0
 15 16  2  0  0  0
 14  1  1  0  0  0
  1  2  2  0  0  0
  2  3  1  0  0  0
  3  4  1  0  0  0
  4  5  1  0  0  0
  5 19  1  0  0  0
 19 20  2  0  0  0
 20 21  1  0  0  0
 21 22  2  0  0  0
 22 23  1  0  0  0
 23 24  2  0  0  0
  4 25  1  0  0  0
 25 26  2  0  0  0
 26 27  1  0  0  0
 27 28  2  0  0  0
 28 29  1  0  0  0
 29 30  2  0  0  0
  3  6  1  0  0  0
  6  7  2  0  0  0
  6  8  1  0  0  0
  8  9  1  0  0  0
  8 10  1  0  0  0
 16 11  1  0  0  0
  5  1  1  0  0  0
 24 19  1  0  0  0
 30 25  1  0  0  0
M  END
> <minimizedAffinity>
6.27948

> <CNNscore>
0.4202275276

> <CNNaffinity>
7.1554512978

> <CNN_VS>
3.0069177151

> <CNNaffinity_variance>
0.9249839783

$$$$
[H]c1nc(C(=O)N([H])[H])c([H])c([H])c1-c1c([H])c([H])c2c(nc3n2C([H])([H])C([H])(N([H])C(=O)N([H])c2c([H])c([H])c([H])c([H])c2C([H])([H])[H])C([H])([H])C3([H])[H])c1[H]


 37 41  0  0  0  0  0  0  0  0999 V2000
   11.5030   21.1876   -0.1634 C   0  0  0  0  0  0  0  0  0  0  0  0
   12.5628   20.2274   -0.7433 C   0  0  0  0  0  0  0  0  0  0  0  0
   13.9443   20.7051   -0.4801 C   0  0  0  0  0  0  0  0  0  0  0  0
   14.0647   21.9960   -1.2610 C   0  0  0  0  0  0  0  0  0  0  0  0
   14.9628   22.4751   -2.1066 N   0  0  0  0  0  0  0  0  0  0  0  0
   14.5538   23.7078   -2.5387 C   0  0  0  0  0  0  0  0  0  0  0  0
   15.1397   24.5896   -3.4101 C   0  0  0  0  0  0  0  0  0  0  0  0
   14.4851   25.7957   -3.6682 C   0  0  0  0  0  0  0  0  0  0  0  0
   13.2977   26.0414   -3.0394 C   0  0  0  0  0  0  0  0  0  0  0  0
   12.7382   25.1373   -2.1702 C   0  0  0  0  0  0  0  0  0  0  0  0
   13.3603   23.9197   -1.8900 C   0  0  0  0  0  0  0  0  0  0  0  0
   13.0407   22.8679   -1.0947 N   0  0  0  0  0  0  0  0  0  0  0  0
   11.9249   22.6135   -0.2452 C   0  0  0  0  0  0  0  0  0  0  0  0
    9.5268   21.1950    2.9234 N   0  0  0  0  0  0  0  0  0  0  0  0
   10.6895   20.5165    2.3890 C   0  0  0  0  0  0  0  0  0  0  0  0
   11.2584   19.6516    3.1132 O   0  0  0  0  0  0  0  0  0  0  0  0
   11.0983   20.8539    1.1061 N   0  0  0  0  0  0  0  0  0  0  0  0
    9.0709   21.8454    2.2037 H   0  0  0  0  0  0  0  0  0  0  0  0
   12.0647   19.8902    1.1990 H   0  0  0  0  0  0  0  0  0  0  0  0
    6.6974   21.1411    3.1639 C   0  0  0  0  0  0  0  0  0  0  0  0
    7.5840   21.1252    4.3253 C   0  0  0  0  0  0  0  0  0  0  0  0
    7.0023   21.1284    5.5773 C   0  0  0  0  0  0  0  0  0  0  0  0
    7.7224   21.0944    6.7376 C   0  0  0  0  0  0  0  0  0  0  0  0
    9.1041   21.0570    6.6124 C   0  0  0  0  0  0  0  0  0  0  0  0
    9.6917   21.0552    5.3535 C   0  0  0  0  0  0  0  0  0  0  0  0
    8.9749   21.0908    4.1902 C   0  0  0  0  0  0  0  0  0  0  0  0
   15.0291   26.7670   -4.5761 C   0  0  0  0  0  0  0  0  0  0  0  0
   15.5458   27.9615   -4.1659 C   0  0  0  0  0  0  0  0  0  0  0  0
   16.0354   28.8778   -5.0970 C   0  0  0  0  0  0  0  0  0  0  0  0
   15.9946   28.5709   -6.4249 C   0  0  0  0  0  0  0  0  0  0  0  0
   15.4716   27.3698   -6.7812 N   0  0  0  0  0  0  0  0  0  0  0  0
   14.9967   26.4762   -5.9193 C   0  0  0  0  0  0  0  0  0  0  0  0
   16.4713   29.4914   -7.4833 C   0  0  0  0  0  0  0  0  0  0  0  0
   16.3555   30.8704   -7.2567 N   0  0  0  0  0  0  0  0  0  0  0  0
   16.9568   29.0490   -8.5290 O   0  0  0  0  0  0  0  0  0  0  0  0
   17.1898   31.4547   -7.1222 H   0  0  0  0  0  0  0  0  0  0  0  0
   15.4140   31.3094   -7.2284 H   0  0  0  0  0  0  0  0  0  0  0  0
 20 21  1  0  0  0
 21 22  2  0  0  0
 22 23  1  0  0  0
 23 24  2  0  0  0
 24 25  1  0  0  0
 25 26  2  0  0  0
 26 14  1  0  0  0
 14 15  1  0  0  0
 15 16  2  0  0  0
 15 17  1  0  0  0
 17  1  1  0  0  0
  1  2  1  0  0  0
  2  3  1  0  0  0
  3  4  1  0  0  0
  4  5  2  0  0  0
  5  6  1  0  0  0
  6  7  2  0  0  0
  7  8  1  0  0  0
  8  9  2  0  0  0
  9 10  1  0  0  0
 10 11  2  0  0  0
 11 12  1  0  0  0
 12 13  1  0  0  0
  8 27  1  0  0  0
 27 28  2  0  0  0
 28 29  1  0  0  0
 29 30  2  0  0  0
 30 31  1  0  0  0
 31 32  2  0  0  0
 30 33  1  0  0  0
 33 34  1  0  0  0
 33 35  2  0  0  0
 26 21  1  0  0  0
 13  1  1  0  0  0
 32 27  1  0  0  0
 12  4  1  0  0  0
 11  6  1  0  0  0
 14 18  1  0  0  0
 17 19  1  0  0  0
 34 36  1  0  0  0
 34 37  1  0  0  0
M  END
> <minimizedAffinity>
0.26675

> <CNNscore>
0.4611213803

> <CNNaffinity>
7.0277686119

> <CNN_VS>
3.2406544685

> <CNNaffinity_variance>
0.2347739637

$$$$
[H]c1nc(C(=O)N([H])[H])c([H])c([H])c1-c1c([H])c([H])c2c(nc3n2C([H])([H])C([H])(N([H])C(=O)N([H])c2c([H])c([H])c([H])c([H])c2C([H])([H])[H])C([H])([H])C3([H])[H])c1[H]


 37 41  0  0  0  0  0  0  0  0999 V2000
    9.4570   22.7197    1.8969 C   0  0  0  0  0  0  0  0  0  0  0  0
   10.7483   22.0119    2.3585 C   0  0  0  0  0  0  0  0  0  0  0  0
   11.8455   22.9786    2.6191 C   0  0  0  0  0  0  0  0  0  0  0  0
   12.1530   23.5907    1.2694 C   0  0  0  0  0  0  0  0  0  0  0  0
   13.2696   23.7966    0.5897 N   0  0  0  0  0  0  0  0  0  0  0  0
   12.9593   24.3790   -0.6095 C   0  0  0  0  0  0  0  0  0  0  0  0
   13.7651   24.7791   -1.6444 C   0  0  0  0  0  0  0  0  0  0  0  0
   13.1630   25.3548   -2.7651 C   0  0  0  0  0  0  0  0  0  0  0  0
   11.8044   25.4954   -2.7761 C   0  0  0  0  0  0  0  0  0  0  0  0
   11.0256   25.0855   -1.7219 C   0  0  0  0  0  0  0  0  0  0  0  0
   11.5902   24.5024   -0.5865 C   0  0  0  0  0  0  0  0  0  0  0  0
   11.0733   24.0172    0.5704 N   0  0  0  0  0  0  0  0  0  0  0  0
    9.7364   23.9152    1.0539 C   0  0  0  0  0  0  0  0  0  0  0  0
    6.6389   24.2299    3.6887 N   0  0  0  0  0  0  0  0  0  0  0  0
    7.7314   23.3209    3.9675 C   0  0  0  0  0  0  0  0  0  0  0  0
    7.8277   22.8474    5.1348 O   0  0  0  0  0  0  0  0  0  0  0  0
    8.5986   23.0188    2.9267 N   0  0  0  0  0  0  0  0  0  0  0  0
    6.5973   24.5084    2.6545 H   0  0  0  0  0  0  0  0  0  0  0  0
    9.2439   22.1502    3.7637 H   0  0  0  0  0  0  0  0  0  0  0  0
    5.7921   26.9196    3.3496 C   0  0  0  0  0  0  0  0  0  0  0  0
    5.3185   26.0805    4.4481 C   0  0  0  0  0  0  0  0  0  0  0  0
    4.4618   26.6507    5.3684 C   0  0  0  0  0  0  0  0  0  0  0  0
    3.9355   25.9653    6.4263 C   0  0  0  0  0  0  0  0  0  0  0  0
    4.3037   24.6329    6.5507 C   0  0  0  0  0  0  0  0  0  0  0  0
    5.1667   24.0575    5.6265 C   0  0  0  0  0  0  0  0  0  0  0  0
    5.6968   24.7401    4.5676 C   0  0  0  0  0  0  0  0  0  0  0  0
   13.9373   25.7904   -3.8939 C   0  0  0  0  0  0  0  0  0  0  0  0
   14.0060   27.0943   -4.2905 C   0  0  0  0  0  0  0  0  0  0  0  0
   14.7531   27.4543   -5.4124 C   0  0  0  0  0  0  0  0  0  0  0  0
   15.4171   26.4911   -6.1128 C   0  0  0  0  0  0  0  0  0  0  0  0
   15.3174   25.2093   -5.6770 N   0  0  0  0  0  0  0  0  0  0  0  0
   14.6138   24.8342   -4.6134 C   0  0  0  0  0  0  0  0  0  0  0  0
   16.2152   26.7790   -7.3272 C   0  0  0  0  0  0  0  0  0  0  0  0
   17.0360   25.7600   -7.8316 N   0  0  0  0  0  0  0  0  0  0  0  0
   16.1516   27.8846   -7.8736 O   0  0  0  0  0  0  0  0  0  0  0  0
   16.8250   25.3091   -8.7304 H   0  0  0  0  0  0  0  0  0  0  0  0
   17.8717   25.4588   -7.2924 H   0  0  0  0  0  0  0  0  0  0  0  0
 20 21  1  0  0  0
 21 22  2  0  0  0
 22 23  1  0  0  0
 23 24  2  0  0  0
 24 25  1  0  0  0
 25 26  2  0  0  0
 26 14  1  0  0  0
 14 15  1  0  0  0
 15 16  2  0  0  0
 15 17  1  0  0  0
 17  1  1  0  0  0
  1  2  1  0  0  0
  2  3  1  0  0  0
  3  4  1  0  0  0
  4  5  2  0  0  0
  5  6  1  0  0  0
  6  7  2  0  0  0
  7  8  1  0  0  0
  8  9  2  0  0  0
  9 10  1  0  0  0
 10 11  2  0  0  0
 11 12  1  0  0  0
 12 13  1  0  0  0
  8 27  1  0  0  0
 27 28  2  0  0  0
 28 29  1  0  0  0
 29 30  2  0  0  0
 30 31  1  0  0  0
 31 32  2  0  0  0
 30 33  1  0  0  0
 33 34  1  0  0  0
 33 35  2  0  0  0
 26 21  1  0  0  0
 13  1  1  0  0  0
 32 27  1  0  0  0
 12  4  1  0  0  0
 11  6  1  0  0  0
 14 18  1  0  0  0
 17 19  1  0  0  0
 34 36  1  0  0  0
 34 37  1  0  0  0
M  END
> <minimizedAffinity>
-1.16560

> <CNNscore>
0.4549868703

> <CNNaffinity>
6.7834978104

> <CNN_VS>
3.0864024162

> <CNNaffinity_variance>
0.7028418183

$$$$
[H]c1nc(C(=O)N([H])[H])c([H])c([H])c1-c1c([H])c([H])c2c(nc3n2C([H])([H])C([H])(N([H])C(=O)N([H])c2c([H])c([H])c([H])c([H])c2C([H])([H])[H])C([H])([H])C3([H])[H])c1[H]


 37 41  0  0  0  0  0  0  0  0999 V2000
   10.8061   20.2015   -0.3893 C   0  0  0  0  0  0  0  0  0  0  0  0
   11.5663   20.1875    0.9537 C   0  0  0  0  0  0  0  0  0  0  0  0
   11.6024   21.5327    1.5823 C   0  0  0  0  0  0  0  0  0  0  0  0
   12.4230   22.3822    0.6358 C   0  0  0  0  0  0  0  0  0  0  0  0
   13.4456   23.2064    0.7969 N   0  0  0  0  0  0  0  0  0  0  0  0
   13.8155   23.7006   -0.4248 C   0  0  0  0  0  0  0  0  0  0  0  0
   14.8096   24.5796   -0.7702 C   0  0  0  0  0  0  0  0  0  0  0  0
   14.9583   24.9111   -2.1185 C   0  0  0  0  0  0  0  0  0  0  0  0
   14.1067   24.3491   -3.0265 C   0  0  0  0  0  0  0  0  0  0  0  0
   13.1195   23.4729   -2.6473 C   0  0  0  0  0  0  0  0  0  0  0  0
   12.9423   23.1142   -1.3102 C   0  0  0  0  0  0  0  0  0  0  0  0
   12.0728   22.2924   -0.6702 N   0  0  0  0  0  0  0  0  0  0  0  0
   11.0074   21.4710   -1.1413 C   0  0  0  0  0  0  0  0  0  0  0  0
    7.6452   18.3965   -0.8184 N   0  0  0  0  0  0  0  0  0  0  0  0
    8.1256   19.5842   -0.1430 C   0  0  0  0  0  0  0  0  0  0  0  0
    7.2973   20.2633    0.5270 O   0  0  0  0  0  0  0  0  0  0  0  0
    9.4729   19.8944   -0.2669 N   0  0  0  0  0  0  0  0  0  0  0  0
    8.4380   17.8487   -1.2878 H   0  0  0  0  0  0  0  0  0  0  0  0
    9.2731   20.9445    0.5867 H   0  0  0  0  0  0  0  0  0  0  0  0
    7.1214   15.7256   -0.0070 C   0  0  0  0  0  0  0  0  0  0  0  0
    6.0881   16.5913   -0.5707 C   0  0  0  0  0  0  0  0  0  0  0  0
    4.8278   16.0560   -0.7470 C   0  0  0  0  0  0  0  0  0  0  0  0
    3.7744   16.7689   -1.2450 C   0  0  0  0  0  0  0  0  0  0  0  0
    4.0213   18.0927   -1.5809 C   0  0  0  0  0  0  0  0  0  0  0  0
    5.2891   18.6331   -1.4057 C   0  0  0  0  0  0  0  0  0  0  0  0
    6.3461   17.9228   -0.9091 C   0  0  0  0  0  0  0  0  0  0  0  0
   15.9818   25.8165   -2.5614 C   0  0  0  0  0  0  0  0  0  0  0  0
   17.0923   26.1033   -1.8222 C   0  0  0  0  0  0  0  0  0  0  0  0
   18.0401   27.0128   -2.2924 C   0  0  0  0  0  0  0  0  0  0  0  0
   17.8490   27.6154   -3.5005 C   0  0  0  0  0  0  0  0  0  0  0  0
   16.7286   27.2957   -4.1973 N   0  0  0  0  0  0  0  0  0  0  0  0
   15.8073   26.4347   -3.7768 C   0  0  0  0  0  0  0  0  0  0  0  0
   18.7907   28.6088   -4.0672 C   0  0  0  0  0  0  0  0  0  0  0  0
   18.2678   29.8316   -4.5121 N   0  0  0  0  0  0  0  0  0  0  0  0
   19.9982   28.3601   -4.1396 O   0  0  0  0  0  0  0  0  0  0  0  0
   18.4827   30.7074   -4.0198 H   0  0  0  0  0  0  0  0  0  0  0  0
   17.6583   29.8543   -5.3534 H   0  0  0  0  0  0  0  0  0  0  0  0
 20 21  1  0  0  0
 21 22  2  0  0  0
 22 23  1  0  0  0
 23 24  2  0  0  0
 24 25  1  0  0  0
 25 26  2  0  0  0
 26 14  1  0  0  0
 14 15  1  0  0  0
 15 16  2  0  0  0
 15 17  1  0  0  0
 17  1  1  0  0  0
  1  2  1  0  0  0
  2  3  1  0  0  0
  3  4  1  0  0  0
  4  5  2  0  0  0
  5  6  1  0  0  0
  6  7  2  0  0  0
  7  8  1  0  0  0
  8  9  2  0  0  0
  9 10  1  0  0  0
 10 11  2  0  0  0
 11 12  1  0  0  0
 12 13  1  0  0  0
  8 27  1  0  0  0
 27 28  2  0  0  0
 28 29  1  0  0  0
 29 30  2  0  0  0
 30 31  1  0  0  0
 31 32  2  0  0  0
 30 33  1  0  0  0
 33 34  1  0  0  0
 33 35  2  0  0  0
 26 21  1  0  0  0
 13  1  1  0  0  0
 32 27  1  0  0  0
 12  4  1  0  0  0
 11  6  1  0  0  0
 14 18  1  0  0  0
 17 19  1  0  0  0
 34 36  1  0  0  0
 34 37  1  0  0  0
M  END
> <minimizedAffinity>
0.11931

> <CNNscore>
0.4527200460

> <CNNaffinity>
7.2014794350

> <CNN_VS>
3.2602541447

> <CNNaffinity_variance>
0.8508034945

$$$$
[H]c1nc(C(=O)N([H])[H])c([H])c([H])c1-c1c([H])c([H])c2c(nc3n2C([H])([H])C([H])(N([H])C(=O)N([H])c2c([H])c([H])c([H])c([H])c2C([H])([H])[H])C([H])([H])C3([H])[H])c1[H]


 37 41  0  0  0  0  0  0  0  0999 V2000
   12.7416   25.5092   -4.3846 C   0  0  0  0  0  0  0  0  0  0  0  0
   12.1443   26.6982   -3.6030 C   0  0  0  0  0  0  0  0  0  0  0  0
   12.8223   26.8971   -2.2965 C   0  0  0  0  0  0  0  0  0  0  0  0
   12.4976   25.6538   -1.4967 C   0  0  0  0  0  0  0  0  0  0  0  0
   12.0397   25.4453   -0.2728 N   0  0  0  0  0  0  0  0  0  0  0  0
   11.9110   24.0978   -0.0696 C   0  0  0  0  0  0  0  0  0  0  0  0
   11.4807   23.3959    1.0269 C   0  0  0  0  0  0  0  0  0  0  0  0
   11.4545   22.0019    0.9496 C   0  0  0  0  0  0  0  0  0  0  0  0
   11.8611   21.4048   -0.2096 C   0  0  0  0  0  0  0  0  0  0  0  0
   12.2884   22.1372   -1.2899 C   0  0  0  0  0  0  0  0  0  0  0  0
   12.3250   23.5319   -1.2522 C   0  0  0  0  0  0  0  0  0  0  0  0
   12.6910   24.4820   -2.1491 N   0  0  0  0  0  0  0  0  0  0  0  0
   13.1721   24.4006   -3.4883 C   0  0  0  0  0  0  0  0  0  0  0  0
   14.9179   27.6497   -6.4132 N   0  0  0  0  0  0  0  0  0  0  0  0
   14.7527   26.2388   -6.1309 C   0  0  0  0  0  0  0  0  0  0  0  0
   15.5413   25.4245   -6.6889 O   0  0  0  0  0  0  0  0  0  0  0  0
   13.7418   25.8722   -5.2532 N   0  0  0  0  0  0  0  0  0  0  0  0
   14.2573   28.2597   -5.8298 H   0  0  0  0  0  0  0  0  0  0  0  0
   14.1655   24.5761   -5.3627 H   0  0  0  0  0  0  0  0  0  0  0  0
   15.9471   30.2154   -5.7615 C   0  0  0  0  0  0  0  0  0  0  0  0
   16.2572   29.5423   -7.0208 C   0  0  0  0  0  0  0  0  0  0  0  0
   17.0465   30.2158   -7.9315 C   0  0  0  0  0  0  0  0  0  0  0  0
   17.4220   29.6858   -9.1331 C   0  0  0  0  0  0  0  0  0  0  0  0
   16.9675   28.4058   -9.4188 C   0  0  0  0  0  0  0  0  0  0  0  0
   16.1720   27.7268   -8.5045 C   0  0  0  0  0  0  0  0  0  0  0  0
   15.7928   28.2541   -7.3018 C   0  0  0  0  0  0  0  0  0  0  0  0
   11.0076   21.1962    2.0517 C   0  0  0  0  0  0  0  0  0  0  0  0
   10.0332   20.2482    1.9333 C   0  0  0  0  0  0  0  0  0  0  0  0
    9.6206   19.5147    3.0460 C   0  0  0  0  0  0  0  0  0  0  0  0
   10.1997   19.7518    4.2574 C   0  0  0  0  0  0  0  0  0  0  0  0
   11.1646   20.7045    4.3222 N   0  0  0  0  0  0  0  0  0  0  0  0
   11.5791   21.4204    3.2817 C   0  0  0  0  0  0  0  0  0  0  0  0
    9.8092   19.0368    5.4948 C   0  0  0  0  0  0  0  0  0  0  0  0
    8.6562   19.4673    6.1671 N   0  0  0  0  0  0  0  0  0  0  0  0
   10.4830   18.0901    5.9129 O   0  0  0  0  0  0  0  0  0  0  0  0
    7.8153   18.8780    6.2023 H   0  0  0  0  0  0  0  0  0  0  0  0
    8.6523   20.3925    6.6401 H   0  0  0  0  0  0  0  0  0  0  0  0
 20 21  1  0  0  0
 21 22  2  0  0  0
 22 23  1  0  0  0
 23 24  2  0  0  0
 24 25  1  0  0  0
 25 26  2  0  0  0
 26 14  1  0  0  0
 14 15  1  0  0  0
 15 16  2  0  0  0
 15 17  1  0  0  0
 17  1  1  0  0  0
  1  2  1  0  0  0
  2  3  1  0  0  0
  3  4  1  0  0  0
  4  5  2  0  0  0
  5  6  1  0  0  0
  6  7  2  0  0  0
  7  8  1  0  0  0
  8  9  2  0  0  0
  9 10  1  0  0  0
 10 11  2  0  0  0
 11 12  1  0  0  0
 12 13  1  0  0  0
  8 27  1  0  0  0
 27 28  2  0  0  0
 28 29  1  0  0  0
 29 30  2  0  0  0
 30 31  1  0  0  0
 31 32  2  0  0  0
 30 33  1  0  0  0
 33 34  1  0  0  0
 33 35  2  0  0  0
 26 21  1  0  0  0
 13  1  1  0  0  0
 32 27  1  0  0  0
 12  4  1  0  0  0
 11  6  1  0  0  0
 14 18  1  0  0  0
 17 19  1  0  0  0
 34 36  1  0  0  0
 34 37  1  0  0  0
M  END
> <minimizedAffinity>
33.82026

> <CNNscore>
0.3634639084

> <CNNaffinity>
6.4560737610

> <CNN_VS>
2.3465497494

> <CNNaffinity_variance>
0.4414743781

$$$$
[H]c1nc(C(=O)N([H])[H])c([H])c([H])c1-c1c([H])c([H])c2c(nc3n2C([H])([H])C([H])(N([H])C(=O)N([H])c2c([H])c([H])c([H])c([H])c2C([H])([H])[H])C([H])([H])C3([H])[H])c1[H]


 37 41  0  0  0  0  0  0  0  0999 V2000
   14.4944   23.5817   -1.9584 C   0  0  0  0  0  0  0  0  0  0  0  0
   15.1596   22.3024   -1.4084 C   0  0  0  0  0  0  0  0  0  0  0  0
   14.3227   21.0985   -1.6458 C   0  0  0  0  0  0  0  0  0  0  0  0
   13.0761   21.3219   -0.8169 C   0  0  0  0  0  0  0  0  0  0  0  0
   12.4077   20.5797    0.0511 N   0  0  0  0  0  0  0  0  0  0  0  0
   11.3448   21.2995    0.5263 C   0  0  0  0  0  0  0  0  0  0  0  0
   10.3723   20.9651    1.4332 C   0  0  0  0  0  0  0  0  0  0  0  0
    9.3937   21.9154    1.7320 C   0  0  0  0  0  0  0  0  0  0  0  0
    9.4490   23.1281    1.1060 C   0  0  0  0  0  0  0  0  0  0  0  0
   10.4361   23.4311    0.2006 C   0  0  0  0  0  0  0  0  0  0  0  0
   11.4334   22.5092   -0.1210 C   0  0  0  0  0  0  0  0  0  0  0  0
   12.5020   22.5414   -0.9566 N   0  0  0  0  0  0  0  0  0  0  0  0
   13.0117   23.5533   -1.8213 C   0  0  0  0  0  0  0  0  0  0  0  0
   15.6536   25.5655   -4.8139 N   0  0  0  0  0  0  0  0  0  0  0  0
   15.2615   24.1987   -4.5386 C   0  0  0  0  0  0  0  0  0  0  0  0
   15.3020   23.3658   -5.4877 O   0  0  0  0  0  0  0  0  0  0  0  0
   14.8759   23.8887   -3.2417 N   0  0  0  0  0  0  0  0  0  0  0  0
   15.6639   26.1701   -3.9289 H   0  0  0  0  0  0  0  0  0  0  0  0
   14.7465   22.5834   -3.6301 H   0  0  0  0  0  0  0  0  0  0  0  0
   15.0824   28.3163   -5.2301 C   0  0  0  0  0  0  0  0  0  0  0  0
   15.6691   27.4710   -6.2677 C   0  0  0  0  0  0  0  0  0  0  0  0
   15.9057   28.0410   -7.5026 C   0  0  0  0  0  0  0  0  0  0  0  0
   16.4678   27.3614   -8.5456 C   0  0  0  0  0  0  0  0  0  0  0  0
   16.8030   26.0342   -8.3161 C   0  0  0  0  0  0  0  0  0  0  0  0
   16.5645   25.4582   -7.0747 C   0  0  0  0  0  0  0  0  0  0  0  0
   16.0008   26.1342   -6.0289 C   0  0  0  0  0  0  0  0  0  0  0  0
    8.3475   21.6450    2.6784 C   0  0  0  0  0  0  0  0  0  0  0  0
    7.1040   22.2002    2.5917 C   0  0  0  0  0  0  0  0  0  0  0  0
    6.1357   21.9217    3.5567 C   0  0  0  0  0  0  0  0  0  0  0  0
    6.4410   21.0875    4.5912 C   0  0  0  0  0  0  0  0  0  0  0  0
    7.6914   20.5605    4.6317 N   0  0  0  0  0  0  0  0  0  0  0  0
    8.6357   20.8066    3.7290 C   0  0  0  0  0  0  0  0  0  0  0  0
    5.4834   20.7538    5.6712 C   0  0  0  0  0  0  0  0  0  0  0  0
    5.6985   19.5752    6.4000 N   0  0  0  0  0  0  0  0  0  0  0  0
    4.5290   21.4979    5.9170 O   0  0  0  0  0  0  0  0  0  0  0  0
    5.9738   19.6096    7.3892 H   0  0  0  0  0  0  0  0  0  0  0  0
    5.5740   18.6539    5.9358 H   0  0  0  0  0  0  0  0  0  0  0  0
 20 21  1  0  0  0
 21 22  2  0  0  0
 22 23  1  0  0  0
 23 24  2  0  0  0
 24 25  1  0  0  0
 25 26  2  0  0  0
 26 14  1  0  0  0
 14 15  1  0  0  0
 15 16  2  0  0  0
 15 17  1  0  0  0
 17  1  1  0  0  0
  1  2  1  0  0  0
  2  3  1  0  0  0
  3  4  1  0  0  0
  4  5  2  0  0  0
  5  6  1  0  0  0
  6  7  2  0  0  0
  7  8  1  0  0  0
  8  9  2  0  0  0
  9 10  1  0  0  0
 10 11  2  0  0  0
 11 12  1  0  0  0
 12 13  1  0  0  0
  8 27  1  0  0  0
 27 28  2  0  0  0
 28 29  1  0  0  0
 29 30  2  0  0  0
 30 31  1  0  0  0
 31 32  2  0  0  0
 30 33  1  0  0  0
 33 34  1  0  0  0
 33 35  2  0  0  0
 26 21  1  0  0  0
 13  1  1  0  0  0
 32 27  1  0  0  0
 12  4  1  0  0  0
 11  6  1  0  0  0
 14 18  1  0  0  0
 17 19  1  0  0  0
 34 36  1  0  0  0
 34 37  1  0  0  0
M  END
> <minimizedAffinity>
3.40887

> <CNNscore>
0.3382844627

> <CNNaffinity>
6.8201456070

> <CNN_VS>
2.3071494102

> <CNNaffinity_variance>
1.0130919218

$$$$
[H]c1nc(C(=O)N([H])[H])c([H])c([H])c1-c1c([H])c([H])c2c(nc3n2C([H])([H])C([H])(N([H])C(=O)N([H])c2c([H])c([H])c([H])c([H])c2C([H])([H])[H])C([H])([H])C3([H])[H])c1[H]


 37 41  0  0  0  0  0  0  0  0999 V2000
    8.4178   23.5154    1.7591 C   0  0  0  0  0  0  0  0  0  0  0  0
    8.6965   21.9985    1.8150 C   0  0  0  0  0  0  0  0  0  0  0  0
    9.8176   21.6762    2.7345 C   0  0  0  0  0  0  0  0  0  0  0  0
   11.0360   22.3113    2.0996 C   0  0  0  0  0  0  0  0  0  0  0  0
   12.2540   21.8772    1.8185 N   0  0  0  0  0  0  0  0  0  0  0  0
   12.9575   22.8852    1.2163 C   0  0  0  0  0  0  0  0  0  0  0  0
   14.2455   22.9202    0.7472 C   0  0  0  0  0  0  0  0  0  0  0  0
   14.7058   24.1059    0.1707 C   0  0  0  0  0  0  0  0  0  0  0  0
   13.8555   25.1727    0.1050 C   0  0  0  0  0  0  0  0  0  0  0  0
   12.5710   25.1053    0.5861 C   0  0  0  0  0  0  0  0  0  0  0  0
   12.0736   23.9370    1.1653 C   0  0  0  0  0  0  0  0  0  0  0  0
   10.8766   23.5985    1.7072 N   0  0  0  0  0  0  0  0  0  0  0  0
    9.6621   24.3250    1.8770 C   0  0  0  0  0  0  0  0  0  0  0  0
    6.2375   25.7695    3.6561 N   0  0  0  0  0  0  0  0  0  0  0  0
    6.4935   24.3474    3.5567 C   0  0  0  0  0  0  0  0  0  0  0  0
    5.8178   23.5692    4.2874 O   0  0  0  0  0  0  0  0  0  0  0  0
    7.4607   23.9294    2.6532 N   0  0  0  0  0  0  0  0  0  0  0  0
    6.8006   26.3336    2.9394 H   0  0  0  0  0  0  0  0  0  0  0  0
    7.1521   22.6363    2.9757 H   0  0  0  0  0  0  0  0  0  0  0  0
    4.6651   27.9057    2.6409 C   0  0  0  0  0  0  0  0  0  0  0  0
    4.6546   27.5252    4.0517 C   0  0  0  0  0  0  0  0  0  0  0  0
    3.8773   28.2738    4.9128 C   0  0  0  0  0  0  0  0  0  0  0  0
    3.7687   28.0060    6.2479 C   0  0  0  0  0  0  0  0  0  0  0  0
    4.4906   26.9215    6.7265 C   0  0  0  0  0  0  0  0  0  0  0  0
    5.2745   26.1677    5.8620 C   0  0  0  0  0  0  0  0  0  0  0  0
    5.3872   26.4332    4.5259 C   0  0  0  0  0  0  0  0  0  0  0  0
   16.0387   24.2192   -0.3527 C   0  0  0  0  0  0  0  0  0  0  0  0
   16.3079   24.6733   -1.6111 C   0  0  0  0  0  0  0  0  0  0  0  0
   17.6221   24.7356   -2.0750 C   0  0  0  0  0  0  0  0  0  0  0  0
   18.6402   24.3384   -1.2596 C   0  0  0  0  0  0  0  0  0  0  0  0
   18.3200   23.8953   -0.0170 N   0  0  0  0  0  0  0  0  0  0  0  0
   17.0791   23.8232    0.4540 C   0  0  0  0  0  0  0  0  0  0  0  0
   20.0619   24.3496   -1.6761 C   0  0  0  0  0  0  0  0  0  0  0  0
   20.8578   25.4303   -1.2698 N   0  0  0  0  0  0  0  0  0  0  0  0
   20.5242   23.4298   -2.3583 O   0  0  0  0  0  0  0  0  0  0  0  0
   21.6162   25.3002   -0.5891 H   0  0  0  0  0  0  0  0  0  0  0  0
   20.6821   26.3753   -1.6649 H   0  0  0  0  0  0  0  0  0  0  0  0
 20 21  1  0  0  0
 21 22  2  0  0  0
 22 23  1  0  0  0
 23 24  2  0  0  0
 24 25  1  0  0  0
 25 26  2  0  0  0
 26 14  1  0  0  0
 14 15  1  0  0  0
 15 16  2  0  0  0
 15 17  1  0  0  0
 17  1  1  0  0  0
  1  2  1  0  0  0
  2  3  1  0  0  0
  3  4  1  0  0  0
  4  5  2  0  0  0
  5  6  1  0  0  0
  6  7  2  0  0  0
  7  8  1  0  0  0
  8  9  2  0  0  0
  9 10  1  0  0  0
 10 11  2  0  0  0
 11 12  1  0  0  0
 12 13  1  0  0  0
  8 27  1  0  0  0
 27 28  2  0  0  0
 28 29  1  0  0  0
 29 30  2  0  0  0
 30 31  1  0  0  0
 31 32  2  0  0  0
 30 33  1  0  0  0
 33 34  1  0  0  0
 33 35  2  0  0  0
 26 21  1  0  0  0
 13  1  1  0  0  0
 32 27  1  0  0  0
 12  4  1  0  0  0
 11  6  1  0  0  0
 14 18  1  0  0  0
 17 19  1  0  0  0
 34 36  1  0  0  0
 34 37  1  0  0  0
M  END
> <minimizedAffinity>
17.10939

> <CNNscore>
0.2924494743

> <CNNaffinity>
6.5995941162

> <CNN_VS>
1.9300478697

> <CNNaffinity_variance>
0.6648548245

$$$$
[H]c1nc(C(=O)N([H])[H])c([H])c([H])c1-c1c([H])c([H])c2c(nc3n2C([H])([H])C([H])(N([H])C(=O)N([H])c2c([H])c([H])c([H])c([H])c2C([H])([H])[H])C([H])([H])C3([H])[H])c1[H]


 37 41  0  0  0  0  0  0  0  0999 V2000
   15.6328   24.8378   -2.7357 C   0  0  0  0  0  0  0  0  0  0  0  0
   15.9879   23.3997   -3.1684 C   0  0  0  0  0  0  0  0  0  0  0  0
   14.7889   22.6449   -3.6146 C   0  0  0  0  0  0  0  0  0  0  0  0
   13.9266   22.5181   -2.3771 C   0  0  0  0  0  0  0  0  0  0  0  0
   13.3061   21.5060   -1.7925 N   0  0  0  0  0  0  0  0  0  0  0  0
   12.6752   21.9617   -0.6665 C   0  0  0  0  0  0  0  0  0  0  0  0
   11.9117   21.2998    0.2605 C   0  0  0  0  0  0  0  0  0  0  0  0
   11.3843   22.0329    1.3256 C   0  0  0  0  0  0  0  0  0  0  0  0
   11.6497   23.3711    1.3916 C   0  0  0  0  0  0  0  0  0  0  0  0
   12.4172   24.0045    0.4452 C   0  0  0  0  0  0  0  0  0  0  0  0
   12.9648   23.3052   -0.6314 C   0  0  0  0  0  0  0  0  0  0  0  0
   13.7411   23.6674   -1.6836 N   0  0  0  0  0  0  0  0  0  0  0  0
   14.3002   24.9185   -2.0758 C   0  0  0  0  0  0  0  0  0  0  0  0
   15.5002   28.0590   -4.4791 N   0  0  0  0  0  0  0  0  0  0  0  0
   15.8692   26.6893   -4.7711 C   0  0  0  0  0  0  0  0  0  0  0  0
   16.2867   26.4207   -5.9329 O   0  0  0  0  0  0  0  0  0  0  0  0
   15.7503   25.7588   -3.7480 N   0  0  0  0  0  0  0  0  0  0  0  0
   15.2395   28.1976   -3.4487 H   0  0  0  0  0  0  0  0  0  0  0  0
   16.2857   24.8205   -4.5872 H   0  0  0  0  0  0  0  0  0  0  0  0
   16.5147   27.7303   -7.1115 C   0  0  0  0  0  0  0  0  0  0  0  0
   16.0103   29.0103   -6.6192 C   0  0  0  0  0  0  0  0  0  0  0  0
   16.0795   30.0971   -7.4678 C   0  0  0  0  0  0  0  0  0  0  0  0
   15.6231   31.3398   -7.1316 C   0  0  0  0  0  0  0  0  0  0  0  0
   15.0706   31.4793   -5.8660 C   0  0  0  0  0  0  0  0  0  0  0  0
   15.0011   30.3874   -5.0099 C   0  0  0  0  0  0  0  0  0  0  0  0
   15.4581   29.1426   -5.3418 C   0  0  0  0  0  0  0  0  0  0  0  0
   10.5831   21.4106    2.3426 C   0  0  0  0  0  0  0  0  0  0  0  0
    9.5720   22.0567    2.9924 C   0  0  0  0  0  0  0  0  0  0  0  0
    8.8452   21.4090    3.9918 C   0  0  0  0  0  0  0  0  0  0  0  0
    9.1528   20.1209    4.3163 C   0  0  0  0  0  0  0  0  0  0  0  0
   10.1666   19.5225    3.6402 N   0  0  0  0  0  0  0  0  0  0  0  0
   10.8778   20.1120    2.6844 C   0  0  0  0  0  0  0  0  0  0  0  0
    8.4496   19.3639    5.3780 C   0  0  0  0  0  0  0  0  0  0  0  0
    7.6200   20.0775    6.2550 N   0  0  0  0  0  0  0  0  0  0  0  0
    8.5935   18.1415    5.4787 O   0  0  0  0  0  0  0  0  0  0  0  0
    6.6006   19.9511    6.2369 H   0  0  0  0  0  0  0  0  0  0  0  0
    8.0409   20.7401    6.9360 H   0  0  0  0  0  0  0  0  0  0  0  0
 20 21  1  0  0  0
 21 22  2  0  0  0
 22 23  1  0  0  0
 23 24  2  0  0  0
 24 25  1  0  0  0
 25 26  2  0  0  0
 26 14  1  0  0  0
 14 15  1  0  0  0
 15 16  2  0  0  0
 15 17  1  0  0  0
 17  1  1  0  0  0
  1  2  1  0  0  0
  2  3  1  0  0  0
  3  4  1  0  0  0
  4  5  2  0  0  0
  5  6  1  0  0  0
  6  7  2  0  0  0
  7  8  1  0  0  0
  8  9  2  0  0  0
  9 10  1  0  0  0
 10 11  2  0  0  0
 11 12  1  0  0  0
 12 13  1  0  0  0
  8 27  1  0  0  0
 27 28  2  0  0  0
 28 29  1  0  0  0
 29 30  2  0  0  0
 30 31  1  0  0  0
 31 32  2  0  0  0
 30 33  1  0  0  0
 33 34  1  0  0  0
 33 35  2  0  0  0
 26 21  1  0  0  0
 13  1  1  0  0  0
 32 27  1  0  0  0
 12  4  1  0  0  0
 11  6  1  0  0  0
 14 18  1  0  0  0
 17 19  1  0  0  0
 34 36  1  0  0  0
 34 37  1  0  0  0
M  END
> <minimizedAffinity>
13.96809

> <CNNscore>
0.2099418491

> <CNNaffinity>
6.5196685791

> <CNN_VS>
1.3687512875

> <CNNaffinity_variance>
0.1852996051

$$$$
[H]c1nc(C(=O)N([H])[H])c([H])c([H])c1-c1c([H])c([H])c2c(nc3n2C([H])([H])C([H])(N([H])C(=O)N([H])c2c([H])c([H])c([H])c([H])c2C([H])([H])[H])C([H])([H])C3([H])[H])c1[H]


 37 41  0  0  0  0  0  0  0  0999 V2000
    8.0781   20.7135   -0.2444 C   0  0  0  0  0  0  0  0  0  0  0  0
    8.9293   19.5375   -0.7679 C   0  0  0  0  0  0  0  0  0  0  0  0
   10.2787   19.5130   -0.1476 C   0  0  0  0  0  0  0  0  0  0  0  0
   10.9530   20.7779   -0.6336 C   0  0  0  0  0  0  0  0  0  0  0  0
   12.1315   21.0374   -1.1767 N   0  0  0  0  0  0  0  0  0  0  0  0
   12.2124   22.3773   -1.4447 C   0  0  0  0  0  0  0  0  0  0  0  0
   13.2233   23.1186   -2.0004 C   0  0  0  0  0  0  0  0  0  0  0  0
   13.0260   24.4922   -2.1553 C   0  0  0  0  0  0  0  0  0  0  0  0
   11.8406   25.0318   -1.7438 C   0  0  0  0  0  0  0  0  0  0  0  0
   10.8483   24.2613   -1.1891 C   0  0  0  0  0  0  0  0  0  0  0  0
   11.0068   22.8848   -1.0215 C   0  0  0  0  0  0  0  0  0  0  0  0
   10.2128   21.9069   -0.5171 N   0  0  0  0  0  0  0  0  0  0  0  0
    8.8959   21.9280    0.0278 C   0  0  0  0  0  0  0  0  0  0  0  0
    6.3520   21.0348    2.9728 N   0  0  0  0  0  0  0  0  0  0  0  0
    6.4980   20.0498    1.9211 C   0  0  0  0  0  0  0  0  0  0  0  0
    5.8886   18.9503    2.0474 O   0  0  0  0  0  0  0  0  0  0  0  0
    7.2922   20.3835    0.8328 N   0  0  0  0  0  0  0  0  0  0  0  0
    6.8384   21.9592    2.7326 H   0  0  0  0  0  0  0  0  0  0  0  0
    6.9517   19.1875    0.2627 H   0  0  0  0  0  0  0  0  0  0  0  0
    7.6932   21.8352    5.3450 C   0  0  0  0  0  0  0  0  0  0  0  0
    6.3562   21.2460    5.3603 C   0  0  0  0  0  0  0  0  0  0  0  0
    5.7595   21.0396    6.5881 C   0  0  0  0  0  0  0  0  0  0  0  0
    4.5063   20.5156    6.7329 C   0  0  0  0  0  0  0  0  0  0  0  0
    3.8307   20.1849    5.5665 C   0  0  0  0  0  0  0  0  0  0  0  0
    4.4297   20.3904    4.3301 C   0  0  0  0  0  0  0  0  0  0  0  0
    5.6840   20.9129    4.1808 C   0  0  0  0  0  0  0  0  0  0  0  0
   14.0327   25.3353   -2.7378 C   0  0  0  0  0  0  0  0  0  0  0  0
   15.3617   25.2123   -2.4537 C   0  0  0  0  0  0  0  0  0  0  0  0
   16.2915   26.0786   -3.0294 C   0  0  0  0  0  0  0  0  0  0  0  0
   15.8622   27.0526   -3.8815 C   0  0  0  0  0  0  0  0  0  0  0  0
   14.5303   27.1327   -4.1319 N   0  0  0  0  0  0  0  0  0  0  0  0
   13.6198   26.3238   -3.5992 C   0  0  0  0  0  0  0  0  0  0  0  0
   16.7751   28.0289   -4.5204 C   0  0  0  0  0  0  0  0  0  0  0  0
   17.9061   28.4404   -3.8006 N   0  0  0  0  0  0  0  0  0  0  0  0
   16.5407   28.4602   -5.6536 O   0  0  0  0  0  0  0  0  0  0  0  0
   18.8504   28.1718   -4.1034 H   0  0  0  0  0  0  0  0  0  0  0  0
   17.7894   29.0285   -2.9519 H   0  0  0  0  0  0  0  0  0  0  0  0
 20 21  1  0  0  0
 21 22  2  0  0  0
 22 23  1  0  0  0
 23 24  2  0  0  0
 24 25  1  0  0  0
 25 26  2  0  0  0
 26 14  1  0  0  0
 14 15  1  0  0  0
 15 16  2  0  0  0
 15 17  1  0  0  0
 17  1  1  0  0  0
  1  2  1  0  0  0
  2  3  1  0  0  0
  3  4  1  0  0  0
  4  5  2  0  0  0
  5  6  1  0  0  0
  6  7  2  0  0  0
  7  8  1  0  0  0
  8  9  2  0  0  0
  9 10  1  0  0  0
 10 11  2  0  0  0
 11 12  1  0  0  0
 12 13  1  0  0  0
  8 27  1  0  0  0
 27 28  2  0  0  0
 28 29  1  0  0  0
 29 30  2  0  0  0
 30 31  1  0  0  0
 31 32  2  0  0  0
 30 33  1  0  0  0
 33 34  1  0  0  0
 33 35  2  0  0  0
 26 21  1  0  0  0
 13  1  1  0  0  0
 32 27  1  0  0  0
 12  4  1  0  0  0
 11  6  1  0  0  0
 14 18  1  0  0  0
 17 19  1  0  0  0
 34 36  1  0  0  0
 34 37  1  0  0  0
M  END
> <minimizedAffinity>
-7.64302

> <CNNscore>
0.1862392426

> <CNNaffinity>
6.7219266891

> <CNN_VS>
1.2518864870

> <CNNaffinity_variance>
0.2191625386

$$$$
[H]c1nc(C(=O)N([H])[H])c([H])c([H])c1-c1c([H])c([H])c2c(nc3n2C([H])([H])C([H])(N([H])C(=O)N([H])c2c([H])c([H])c([H])c([H])c2C([H])([H])[H])C([H])([H])C3([H])[H])c1[H]


 37 41  0  0  0  0  0  0  0  0999 V2000
    9.7713   22.3443   -4.5514 C   0  0  0  0  0  0  0  0  0  0  0  0
    9.0043   21.1799   -3.8901 C   0  0  0  0  0  0  0  0  0  0  0  0
    8.7420   21.4375   -2.4510 C   0  0  0  0  0  0  0  0  0  0  0  0
   10.1108   21.4683   -1.8058 C   0  0  0  0  0  0  0  0  0  0  0  0
   10.6345   20.8854   -0.7395 N   0  0  0  0  0  0  0  0  0  0  0  0
   11.9473   21.2567   -0.6292 C   0  0  0  0  0  0  0  0  0  0  0  0
   12.8972   20.9187    0.3002 C   0  0  0  0  0  0  0  0  0  0  0  0
   14.1775   21.4585    0.1616 C   0  0  0  0  0  0  0  0  0  0  0  0
   14.4217   22.2983   -0.8876 C   0  0  0  0  0  0  0  0  0  0  0  0
   13.4471   22.6183   -1.8007 C   0  0  0  0  0  0  0  0  0  0  0  0
   12.1570   22.0958   -1.6979 C   0  0  0  0  0  0  0  0  0  0  0  0
   11.0294   22.2372   -2.4393 N   0  0  0  0  0  0  0  0  0  0  0  0
   10.7483   22.9788   -3.6235 C   0  0  0  0  0  0  0  0  0  0  0  0
    8.0567   25.5343   -5.1148 N   0  0  0  0  0  0  0  0  0  0  0  0
    8.1219   24.2226   -5.7254 C   0  0  0  0  0  0  0  0  0  0  0  0
    7.4315   24.0146   -6.7628 O   0  0  0  0  0  0  0  0  0  0  0  0
    8.9510   23.2786   -5.1352 N   0  0  0  0  0  0  0  0  0  0  0  0
    8.7386   25.6334   -4.2938 H   0  0  0  0  0  0  0  0  0  0  0  0
    8.6363   22.4189   -6.1516 H   0  0  0  0  0  0  0  0  0  0  0  0
    7.1206   25.7043   -7.7909 C   0  0  0  0  0  0  0  0  0  0  0  0
    6.8403   26.7357   -6.7946 C   0  0  0  0  0  0  0  0  0  0  0  0
    6.1293   27.8465   -7.2029 C   0  0  0  0  0  0  0  0  0  0  0  0
    5.7879   28.8676   -6.3622 C   0  0  0  0  0  0  0  0  0  0  0  0
    6.1942   28.7486   -5.0404 C   0  0  0  0  0  0  0  0  0  0  0  0
    6.9109   27.6324   -4.6277 C   0  0  0  0  0  0  0  0  0  0  0  0
    7.2559   26.6093   -5.4659 C   0  0  0  0  0  0  0  0  0  0  0  0
   15.2297   21.1451    1.0880 C   0  0  0  0  0  0  0  0  0  0  0  0
   16.1844   22.0455    1.4621 C   0  0  0  0  0  0  0  0  0  0  0  0
   17.1989   21.6754    2.3453 C   0  0  0  0  0  0  0  0  0  0  0  0
   17.2305   20.4031    2.8346 C   0  0  0  0  0  0  0  0  0  0  0  0
   16.2578   19.5458    2.4323 N   0  0  0  0  0  0  0  0  0  0  0  0
   15.2790   19.8672    1.5924 C   0  0  0  0  0  0  0  0  0  0  0  0
   18.2818   19.9173    3.7585 C   0  0  0  0  0  0  0  0  0  0  0  0
   18.0447   20.0199    5.1368 N   0  0  0  0  0  0  0  0  0  0  0  0
   19.3308   19.4359    3.3195 O   0  0  0  0  0  0  0  0  0  0  0  0
   17.9057   19.1801    5.7120 H   0  0  0  0  0  0  0  0  0  0  0  0
   18.0132   20.9571    5.5846 H   0  0  0  0  0  0  0  0  0  0  0  0
 20 21  1  0  0  0
 21 22  2  0  0  0
 22 23  1  0  0  0
 23 24  2  0  0  0
 24 25  1  0  0  0
 25 26  2  0  0  0
 26 14  1  0  0  0
 14 15  1  0  0  0
 15 16  2  0  0  0
 15 17  1  0  0  0
 17  1  1  0  0  0
  1  2  1  0  0  0
  2  3  1  0  0  0
  3  4  1  0  0  0
  4  5  2  0  0  0
  5  6  1  0  0  0
  6  7  2  0  0  0
  7  8  1  0  0  0
  8  9  2  0  0  0
  9 10  1  0  0  0
 10 11  2  0  0  0
 11 12  1  0  0  0
 12 13  1  0  0  0
  8 27  1  0  0  0
 27 28  2  0  0  0
 28 29  1  0  0  0
 29 30  2  0  0  0
 30 31  1  0  0  0
 31 32  2  0  0  0
 30 33  1  0  0  0
 33 34  1  0  0  0
 33 35  2  0  0  0
 26 21  1  0  0  0
 13  1  1  0  0  0
 32 27  1  0  0  0
 12  4  1  0  0  0
 11  6  1  0  0  0
 14 18  1  0  0  0
 17 19  1  0  0  0
 34 36  1  0  0  0
 34 37  1  0  0  0
M  END
> <minimizedAffinity>
97.68140

> <CNNscore>
0.1753871441

> <CNNaffinity>
5.3175439835

> <CNN_VS>
0.9326288700

> <CNNaffinity_variance>
1.3640284538

$$$$
