[H]c1c([H])c(N2C([H])([H])C([H])([H])C([H])(C([H])([H])OC([H])([H])[H])C2([H])[H])c([H])c([H])c1C(=O)SC([H])([H])F


 19 20  0  0  0  0  0  0  0  0999 V2000
   13.6538   23.8589   -1.9572 C   0  0  0  0  0  0  0  0  0  0  0  0
   14.7506   23.6664   -2.7619 C   0  0  0  0  0  0  0  0  0  0  0  0
   15.0978   24.6221   -3.6840 C   0  0  0  0  0  0  0  0  0  0  0  0
   14.3890   25.8108   -3.8624 C   0  0  0  0  0  0  0  0  0  0  0  0
   13.3037   25.9853   -3.0556 C   0  0  0  0  0  0  0  0  0  0  0  0
   12.9363   25.0172   -2.1082 C   0  0  0  0  0  0  0  0  0  0  0  0
   12.0681   21.1656   -0.1572 C   0  0  0  0  0  0  0  0  0  0  0  0
   13.4244   21.0526    0.5000 C   0  0  0  0  0  0  0  0  0  0  0  0
   14.2555   21.9303   -0.4350 C   0  0  0  0  0  0  0  0  0  0  0  0
   13.3141   22.8638   -1.0153 N   0  0  0  0  0  0  0  0  0  0  0  0
   11.9576   22.6023   -0.4629 C   0  0  0  0  0  0  0  0  0  0  0  0
   10.9687   20.4240    0.4567 C   0  0  0  0  0  0  0  0  0  0  0  0
    9.0139   20.2047   -0.8058 C   0  0  0  0  0  0  0  0  0  0  0  0
   10.1263   19.6660   -0.2406 O   0  0  0  0  0  0  0  0  0  0  0  0
   14.7989   26.7872   -4.8488 C   0  0  0  0  0  0  0  0  0  0  0  0
   13.8961   26.9400   -5.8007 O   0  0  0  0  0  0  0  0  0  0  0  0
   16.2202   27.7600   -4.9954 S   0  0  0  0  0  0  0  0  0  0  0  0
   17.3257   27.9752   -3.6539 C   0  0  0  0  0  0  0  0  0  0  0  0
   17.1969   26.9457   -2.7009 F   0  0  0  0  0  0  0  0  0  0  0  0
 13 14  1  0  0  0
 14 12  1  0  0  0
 12  7  1  0  0  0
  7  8  1  0  0  0
  8  9  1  0  0  0
  9 10  1  0  0  0
 10 11  1  0  0  0
 10  1  1  0  0  0
  1  2  2  0  0  0
  2  3  1  0  0  0
  3  4  2  0  0  0
  4  5  1  0  0  0
  5  6  2  0  0  0
  4 15  1  0  0  0
 15 16  2  0  0  0
 15 17  1  0  0  0
 17 18  1  0  0  0
 18 19  1  0  0  0
 11  7  1  0  0  0
  6  1  1  0  0  0
M  END
> <minimizedAffinity>
-7.60048

> <CNNscore>
0.9038212895

> <CNNaffinity>
6.3805217743

> <CNN_VS>
5.7668514252

> <CNNaffinity_variance>
0.0638176352

$$$$
[H]c1c([H])c(N2C([H])([H])C([H])([H])C([H])(C([H])([H])OC([H])([H])[H])C2([H])[H])c([H])c([H])c1C(=O)SC([H])([H])F


 19 20  0  0  0  0  0  0  0  0999 V2000
   13.5016   23.9453   -1.8950 C   0  0  0  0  0  0  0  0  0  0  0  0
   14.6075   23.7103   -2.6754 C   0  0  0  0  0  0  0  0  0  0  0  0
   14.9946   24.6385   -3.6096 C   0  0  0  0  0  0  0  0  0  0  0  0
   14.3183   25.8401   -3.8245 C   0  0  0  0  0  0  0  0  0  0  0  0
   13.2233   26.0569   -3.0414 C   0  0  0  0  0  0  0  0  0  0  0  0
   12.8154   25.1172   -2.0821 C   0  0  0  0  0  0  0  0  0  0  0  0
   11.9864   22.1868    0.8655 C   0  0  0  0  0  0  0  0  0  0  0  0
   12.4188   20.9667    0.0854 C   0  0  0  0  0  0  0  0  0  0  0  0
   12.7698   21.6098   -1.2557 C   0  0  0  0  0  0  0  0  0  0  0  0
   13.1207   22.9778   -0.9401 N   0  0  0  0  0  0  0  0  0  0  0  0
   13.0143   23.1868    0.5291 C   0  0  0  0  0  0  0  0  0  0  0  0
   11.5441   21.9728    2.2418 C   0  0  0  0  0  0  0  0  0  0  0  0
   11.3290   20.6171    4.1337 C   0  0  0  0  0  0  0  0  0  0  0  0
   11.9873   20.9726    2.9991 O   0  0  0  0  0  0  0  0  0  0  0  0
   14.7696   26.7862   -4.8223 C   0  0  0  0  0  0  0  0  0  0  0  0
   13.8813   26.9532   -5.7853 O   0  0  0  0  0  0  0  0  0  0  0  0
   16.2238   27.7090   -4.9703 S   0  0  0  0  0  0  0  0  0  0  0  0
   17.2993   27.9491   -3.6088 C   0  0  0  0  0  0  0  0  0  0  0  0
   17.2481   26.8687   -2.7061 F   0  0  0  0  0  0  0  0  0  0  0  0
 13 14  1  0  0  0
 14 12  1  0  0  0
 12  7  1  0  0  0
  7  8  1  0  0  0
  8  9  1  0  0  0
  9 10  1  0  0  0
 10 11  1  0  0  0
 10  1  1  0  0  0
  1  2  2  0  0  0
  2  3  1  0  0  0
  3  4  2  0  0  0
  4  5  1  0  0  0
  5  6  2  0  0  0
  4 15  1  0  0  0
 15 16  2  0  0  0
 15 17  1  0  0  0
 17 18  1  0  0  0
 18 19  1  0  0  0
 11  7  1  0  0  0
  6  1  1  0  0  0
M  END
> <minimizedAffinity>
-7.44717

> <CNNscore>
0.8605309725

> <CNNaffinity>
6.1372961998

> <CNN_VS>
5.2813334465

> <CNNaffinity_variance>
0.1542168707

$$$$
[H]c1c([H])c(N2C([H])([H])C([H])([H])C([H])(C([H])([H])OC([H])([H])[H])C2([H])[H])c([H])c([H])c1C(=O)SC([H])([H])F


 19 20  0  0  0  0  0  0  0  0999 V2000
   13.9524   23.7187   -2.2198 C   0  0  0  0  0  0  0  0  0  0  0  0
   13.2488   24.8987   -2.2252 C   0  0  0  0  0  0  0  0  0  0  0  0
   13.5762   25.8856   -3.1213 C   0  0  0  0  0  0  0  0  0  0  0  0
   14.6069   25.7648   -4.0543 C   0  0  0  0  0  0  0  0  0  0  0  0
   15.2945   24.5874   -4.0349 C   0  0  0  0  0  0  0  0  0  0  0  0
   14.9714   23.5693   -3.1245 C   0  0  0  0  0  0  0  0  0  0  0  0
   12.1882   21.5493    0.0581 C   0  0  0  0  0  0  0  0  0  0  0  0
   13.3758   20.6441   -0.1752 C   0  0  0  0  0  0  0  0  0  0  0  0
   14.0113   21.3324   -1.3826 C   0  0  0  0  0  0  0  0  0  0  0  0
   13.5994   22.7167   -1.2901 N   0  0  0  0  0  0  0  0  0  0  0  0
   12.7594   22.9003   -0.0760 C   0  0  0  0  0  0  0  0  0  0  0  0
   11.2927   21.1995    1.1588 C   0  0  0  0  0  0  0  0  0  0  0  0
    9.1475   21.1162    0.2343 C   0  0  0  0  0  0  0  0  0  0  0  0
   10.1388   20.5615    0.9805 O   0  0  0  0  0  0  0  0  0  0  0  0
   14.9103   26.8359   -4.9789 C   0  0  0  0  0  0  0  0  0  0  0  0
   14.0590   26.8764   -5.9879 O   0  0  0  0  0  0  0  0  0  0  0  0
   16.1540   28.0364   -4.9940 S   0  0  0  0  0  0  0  0  0  0  0  0
   17.4427   28.0356   -3.8077 C   0  0  0  0  0  0  0  0  0  0  0  0
   17.2009   27.1088   -2.7747 F   0  0  0  0  0  0  0  0  0  0  0  0
 13 14  1  0  0  0
 14 12  1  0  0  0
 12  7  1  0  0  0
  7  8  1  0  0  0
  8  9  1  0  0  0
  9 10  1  0  0  0
 10 11  1  0  0  0
 10  1  1  0  0  0
  1  2  2  0  0  0
  2  3  1  0  0  0
  3  4  2  0  0  0
  4  5  1  0  0  0
  5  6  2  0  0  0
  4 15  1  0  0  0
 15 16  2  0  0  0
 15 17  1  0  0  0
 17 18  1  0  0  0
 18 19  1  0  0  0
 11  7  1  0  0  0
  6  1  1  0  0  0
M  END
> <minimizedAffinity>
-7.37257

> <CNNscore>
0.8586665988

> <CNNaffinity>
6.3152427673

> <CNN_VS>
5.4226880074

> <CNNaffinity_variance>
0.0651257113

$$$$
[H]c1c([H])c(N2C([H])([H])C([H])([H])C([H])(C([H])([H])OC([H])([H])[H])C2([H])[H])c([H])c([H])c1C(=O)SC([H])([H])F


 19 20  0  0  0  0  0  0  0  0999 V2000
   13.3826   23.8676   -1.8709 C   0  0  0  0  0  0  0  0  0  0  0  0
   12.7396   25.0723   -2.0214 C   0  0  0  0  0  0  0  0  0  0  0  0
   13.2022   25.9843   -2.9370 C   0  0  0  0  0  0  0  0  0  0  0  0
   14.3154   25.7610   -3.7485 C   0  0  0  0  0  0  0  0  0  0  0  0
   14.9412   24.5604   -3.5860 C   0  0  0  0  0  0  0  0  0  0  0  0
   14.4798   23.6180   -2.6539 C   0  0  0  0  0  0  0  0  0  0  0  0
   11.3920   22.1139    0.5725 C   0  0  0  0  0  0  0  0  0  0  0  0
   12.2599   20.9443    0.1686 C   0  0  0  0  0  0  0  0  0  0  0  0
   12.9058   21.5071   -1.0969 C   0  0  0  0  0  0  0  0  0  0  0  0
   12.8903   22.9438   -0.9237 N   0  0  0  0  0  0  0  0  0  0  0  0
   12.2811   23.2744    0.3927 C   0  0  0  0  0  0  0  0  0  0  0  0
   10.5745   21.9510    1.7728 C   0  0  0  0  0  0  0  0  0  0  0  0
    9.7882   23.8292    2.9206 C   0  0  0  0  0  0  0  0  0  0  0  0
   10.6416   22.7768    2.8138 O   0  0  0  0  0  0  0  0  0  0  0  0
   14.7610   26.7561   -4.7001 C   0  0  0  0  0  0  0  0  0  0  0  0
   13.8522   26.9979   -5.6275 O   0  0  0  0  0  0  0  0  0  0  0  0
   16.2301   27.6574   -4.8318 S   0  0  0  0  0  0  0  0  0  0  0  0
   17.2933   27.8827   -3.4581 C   0  0  0  0  0  0  0  0  0  0  0  0
   17.1700   26.8345   -2.5251 F   0  0  0  0  0  0  0  0  0  0  0  0
 13 14  1  0  0  0
 14 12  1  0  0  0
 12  7  1  0  0  0
  7  8  1  0  0  0
  8  9  1  0  0  0
  9 10  1  0  0  0
 10 11  1  0  0  0
 10  1  1  0  0  0
  1  2  2  0  0  0
  2  3  1  0  0  0
  3  4  2  0  0  0
  4  5  1  0  0  0
  5  6  2  0  0  0
  4 15  1  0  0  0
 15 16  2  0  0  0
 15 17  1  0  0  0
 17 18  1  0  0  0
 18 19  1  0  0  0
 11  7  1  0  0  0
  6  1  1  0  0  0
M  END
> <minimizedAffinity>
-7.29790

> <CNNscore>
0.8187264800

> <CNNaffinity>
6.0028681755

> <CNN_VS>
4.9147071838

> <CNNaffinity_variance>
0.2083878219

$$$$
[H]c1c([H])c(N2C([H])([H])C([H])([H])C([H])(C([H])([H])OC([H])([H])[H])C2([H])[H])c([H])c([H])c1C(=O)SC([H])([H])F


 19 20  0  0  0  0  0  0  0  0999 V2000
   13.6780   23.6508   -1.2756 C   0  0  0  0  0  0  0  0  0  0  0  0
   12.7955   24.7030   -1.3163 C   0  0  0  0  0  0  0  0  0  0  0  0
   12.9160   25.6586   -2.2943 C   0  0  0  0  0  0  0  0  0  0  0  0
   13.9050   25.6301   -3.2784 C   0  0  0  0  0  0  0  0  0  0  0  0
   14.7719   24.5791   -3.2231 C   0  0  0  0  0  0  0  0  0  0  0  0
   14.6614   23.5944   -2.2291 C   0  0  0  0  0  0  0  0  0  0  0  0
   12.3902   21.3103    1.1475 C   0  0  0  0  0  0  0  0  0  0  0  0
   13.7813   20.7275    1.0502 C   0  0  0  0  0  0  0  0  0  0  0  0
   14.2924   21.4464   -0.1977 C   0  0  0  0  0  0  0  0  0  0  0  0
   13.5363   22.6788   -0.2618 N   0  0  0  0  0  0  0  0  0  0  0  0
   12.6052   22.7458    0.8966 C   0  0  0  0  0  0  0  0  0  0  0  0
   11.5484   20.8399    2.2456 C   0  0  0  0  0  0  0  0  0  0  0  0
   11.2964   20.5844    4.5552 C   0  0  0  0  0  0  0  0  0  0  0  0
   11.6083   21.3468    3.4742 O   0  0  0  0  0  0  0  0  0  0  0  0
   13.9869   26.6628   -4.2889 C   0  0  0  0  0  0  0  0  0  0  0  0
   12.8246   27.2591   -4.4844 O   0  0  0  0  0  0  0  0  0  0  0  0
   15.2999   27.2365   -5.2559 S   0  0  0  0  0  0  0  0  0  0  0  0
   15.6554   26.5411   -6.8237 C   0  0  0  0  0  0  0  0  0  0  0  0
   15.5297   25.1380   -6.8132 F   0  0  0  0  0  0  0  0  0  0  0  0
 13 14  1  0  0  0
 14 12  1  0  0  0
 12  7  1  0  0  0
  7  8  1  0  0  0
  8  9  1  0  0  0
  9 10  1  0  0  0
 10 11  1  0  0  0
 10  1  1  0  0  0
  1  2  2  0  0  0
  2  3  1  0  0  0
  3  4  2  0  0  0
  4  5  1  0  0  0
  5  6  2  0  0  0
  4 15  1  0  0  0
 15 16  2  0  0  0
 15 17  1  0  0  0
 17 18  1  0  0  0
 18 19  1  0  0  0
 11  7  1  0  0  0
  6  1  1  0  0  0
M  END
> <minimizedAffinity>
-7.20495

> <CNNscore>
0.7048864961

> <CNNaffinity>
5.9878244400

> <CNN_VS>
4.2207365036

> <CNNaffinity_variance>
0.1093047485

$$$$
[H]c1c([H])c(N2C([H])([H])C([H])([H])C([H])(C([H])([H])OC([H])([H])[H])C2([H])[H])c([H])c([H])c1C(=O)SC([H])([H])F


 19 20  0  0  0  0  0  0  0  0999 V2000
   13.0012   24.2607   -1.7073 C   0  0  0  0  0  0  0  0  0  0  0  0
   12.6464   25.4904   -2.2066 C   0  0  0  0  0  0  0  0  0  0  0  0
   13.3845   26.0573   -3.2156 C   0  0  0  0  0  0  0  0  0  0  0  0
   14.5042   25.4481   -3.7837 C   0  0  0  0  0  0  0  0  0  0  0  0
   14.8419   24.2283   -3.2763 C   0  0  0  0  0  0  0  0  0  0  0  0
   14.0968   23.6362   -2.2447 C   0  0  0  0  0  0  0  0  0  0  0  0
   10.7828   22.2043    0.2569 C   0  0  0  0  0  0  0  0  0  0  0  0
   11.5355   22.8200    1.4139 C   0  0  0  0  0  0  0  0  0  0  0  0
   12.7142   23.4472    0.6706 C   0  0  0  0  0  0  0  0  0  0  0  0
   12.2285   23.6954   -0.6698 N   0  0  0  0  0  0  0  0  0  0  0  0
   10.8082   23.2632   -0.7666 C   0  0  0  0  0  0  0  0  0  0  0  0
    9.5585   21.4725    0.5752 C   0  0  0  0  0  0  0  0  0  0  0  0
    8.5856   20.0781   -1.0286 C   0  0  0  0  0  0  0  0  0  0  0  0
    8.6012   21.2367   -0.3182 O   0  0  0  0  0  0  0  0  0  0  0  0
   15.2471   26.0887   -4.8476 C   0  0  0  0  0  0  0  0  0  0  0  0
   15.3032   25.3399   -5.9342 O   0  0  0  0  0  0  0  0  0  0  0  0
   16.0496   27.6167   -4.9435 S   0  0  0  0  0  0  0  0  0  0  0  0
   17.3664   28.0294   -3.8647 C   0  0  0  0  0  0  0  0  0  0  0  0
   17.3733   27.2163   -2.7142 F   0  0  0  0  0  0  0  0  0  0  0  0
 13 14  1  0  0  0
 14 12  1  0  0  0
 12  7  1  0  0  0
  7  8  1  0  0  0
  8  9  1  0  0  0
  9 10  1  0  0  0
 10 11  1  0  0  0
 10  1  1  0  0  0
  1  2  2  0  0  0
  2  3  1  0  0  0
  3  4  2  0  0  0
  4  5  1  0  0  0
  5  6  2  0  0  0
  4 15  1  0  0  0
 15 16  2  0  0  0
 15 17  1  0  0  0
 17 18  1  0  0  0
 18 19  1  0  0  0
 11  7  1  0  0  0
  6  1  1  0  0  0
M  END
> <minimizedAffinity>
-6.94912

> <CNNscore>
0.6730866432

> <CNNaffinity>
5.9421920776

> <CNN_VS>
3.9996101856

> <CNNaffinity_variance>
0.0870743990

$$$$
[H]c1c([H])c(N2C([H])([H])C([H])([H])C([H])(C([H])([H])OC([H])([H])[H])C2([H])[H])c([H])c([H])c1C(=O)SC([H])([H])F


 19 20  0  0  0  0  0  0  0  0999 V2000
   13.1425   23.7289   -1.0475 C   0  0  0  0  0  0  0  0  0  0  0  0
   12.2675   24.7569   -1.3023 C   0  0  0  0  0  0  0  0  0  0  0  0
   12.5295   25.6413   -2.3189 C   0  0  0  0  0  0  0  0  0  0  0  0
   13.6594   25.5619   -3.1340 C   0  0  0  0  0  0  0  0  0  0  0  0
   14.5168   24.5358   -2.8672 C   0  0  0  0  0  0  0  0  0  0  0  0
   14.2624   23.6237   -1.8312 C   0  0  0  0  0  0  0  0  0  0  0  0
   11.5127   21.7086    1.4565 C   0  0  0  0  0  0  0  0  0  0  0  0
   12.7988   20.9175    1.3905 C   0  0  0  0  0  0  0  0  0  0  0  0
   13.4138   21.5008    0.1189 C   0  0  0  0  0  0  0  0  0  0  0  0
   12.8543   22.8303    0.0024 N   0  0  0  0  0  0  0  0  0  0  0  0
   11.9438   23.0836    1.1515 C   0  0  0  0  0  0  0  0  0  0  0  0
   10.6087   21.4152    2.5666 C   0  0  0  0  0  0  0  0  0  0  0  0
    8.6944   21.4862    1.2274 C   0  0  0  0  0  0  0  0  0  0  0  0
    9.3084   21.1865    2.4023 O   0  0  0  0  0  0  0  0  0  0  0  0
   13.8876   26.5201   -4.1943 C   0  0  0  0  0  0  0  0  0  0  0  0
   12.8475   27.3130   -4.3788 O   0  0  0  0  0  0  0  0  0  0  0  0
   15.2423   26.8010   -5.2305 S   0  0  0  0  0  0  0  0  0  0  0  0
   15.4216   25.9552   -6.7539 C   0  0  0  0  0  0  0  0  0  0  0  0
   16.1751   26.7025   -7.6804 F   0  0  0  0  0  0  0  0  0  0  0  0
 13 14  1  0  0  0
 14 12  1  0  0  0
 12  7  1  0  0  0
  7  8  1  0  0  0
  8  9  1  0  0  0
  9 10  1  0  0  0
 10 11  1  0  0  0
 10  1  1  0  0  0
  1  2  2  0  0  0
  2  3  1  0  0  0
  3  4  2  0  0  0
  4  5  1  0  0  0
  5  6  2  0  0  0
  4 15  1  0  0  0
 15 16  2  0  0  0
 15 17  1  0  0  0
 17 18  1  0  0  0
 18 19  1  0  0  0
 11  7  1  0  0  0
  6  1  1  0  0  0
M  END
> <minimizedAffinity>
-7.12433

> <CNNscore>
0.6449504495

> <CNNaffinity>
5.9395165443

> <CNN_VS>
3.8306939602

> <CNNaffinity_variance>
0.0589461215

$$$$
[H]c1c([H])c(N2C([H])([H])C([H])([H])C([H])(C([H])([H])OC([H])([H])[H])C2([H])[H])c([H])c([H])c1C(=O)SC([H])([H])F


 19 20  0  0  0  0  0  0  0  0999 V2000
   12.5961   24.0230   -1.5373 C   0  0  0  0  0  0  0  0  0  0  0  0
   12.3492   25.2721   -2.0534 C   0  0  0  0  0  0  0  0  0  0  0  0
   13.3513   25.9571   -2.6943 C   0  0  0  0  0  0  0  0  0  0  0  0
   14.6418   25.4527   -2.8607 C   0  0  0  0  0  0  0  0  0  0  0  0
   14.8691   24.2121   -2.3426 C   0  0  0  0  0  0  0  0  0  0  0  0
   13.8545   23.4997   -1.6846 C   0  0  0  0  0  0  0  0  0  0  0  0
    9.4796   23.0989    0.0252 C   0  0  0  0  0  0  0  0  0  0  0  0
    9.9682   21.6962   -0.2543 C   0  0  0  0  0  0  0  0  0  0  0  0
   11.1210   21.9940   -1.2123 C   0  0  0  0  0  0  0  0  0  0  0  0
   11.5516   23.3356   -0.8821 N   0  0  0  0  0  0  0  0  0  0  0  0
   10.7249   23.8557    0.2401 C   0  0  0  0  0  0  0  0  0  0  0  0
    8.3326   23.2366    0.9202 C   0  0  0  0  0  0  0  0  0  0  0  0
    8.0542   24.4190    2.9171 C   0  0  0  0  0  0  0  0  0  0  0  0
    8.0425   24.3671    1.5590 O   0  0  0  0  0  0  0  0  0  0  0  0
   15.6622   26.2160   -3.5466 C   0  0  0  0  0  0  0  0  0  0  0  0
   16.8265   26.1584   -2.9255 O   0  0  0  0  0  0  0  0  0  0  0  0
   15.6262   27.1614   -4.9933 S   0  0  0  0  0  0  0  0  0  0  0  0
   15.1217   26.4753   -6.5239 C   0  0  0  0  0  0  0  0  0  0  0  0
   16.1515   26.5265   -7.4838 F   0  0  0  0  0  0  0  0  0  0  0  0
 13 14  1  0  0  0
 14 12  1  0  0  0
 12  7  1  0  0  0
  7  8  1  0  0  0
  8  9  1  0  0  0
  9 10  1  0  0  0
 10 11  1  0  0  0
 10  1  1  0  0  0
  1  2  2  0  0  0
  2  3  1  0  0  0
  3  4  2  0  0  0
  4  5  1  0  0  0
  5  6  2  0  0  0
  4 15  1  0  0  0
 15 16  2  0  0  0
 15 17  1  0  0  0
 17 18  1  0  0  0
 18 19  1  0  0  0
 11  7  1  0  0  0
  6  1  1  0  0  0
M  END
> <minimizedAffinity>
-6.60691

> <CNNscore>
0.6108139753

> <CNNaffinity>
5.6604857445

> <CNN_VS>
3.4575037956

> <CNNaffinity_variance>
0.1975109875

$$$$
[H]c1c([H])c(N2C([H])([H])C([H])([H])C([H])(C([H])([H])OC([H])([H])[H])C2([H])[H])c([H])c([H])c1C(=O)SC([H])([H])F


 19 20  0  0  0  0  0  0  0  0999 V2000
   13.2172   24.5898   -1.5750 C   0  0  0  0  0  0  0  0  0  0  0  0
   12.8181   25.5104   -2.5135 C   0  0  0  0  0  0  0  0  0  0  0  0
   13.7586   26.2056   -3.2321 C   0  0  0  0  0  0  0  0  0  0  0  0
   15.1335   26.0331   -3.0667 C   0  0  0  0  0  0  0  0  0  0  0  0
   15.5117   25.1157   -2.1314 C   0  0  0  0  0  0  0  0  0  0  0  0
   14.5617   24.3973   -1.3890 C   0  0  0  0  0  0  0  0  0  0  0  0
   11.2235   23.0847    1.0265 C   0  0  0  0  0  0  0  0  0  0  0  0
   10.1647   23.0642   -0.0517 C   0  0  0  0  0  0  0  0  0  0  0  0
   10.8101   23.9852   -1.0865 C   0  0  0  0  0  0  0  0  0  0  0  0
   12.2338   23.8856   -0.8471 N   0  0  0  0  0  0  0  0  0  0  0  0
   12.4797   22.9362    0.2717 C   0  0  0  0  0  0  0  0  0  0  0  0
   10.9565   22.3068    2.2345 C   0  0  0  0  0  0  0  0  0  0  0  0
    8.9405   22.0042    3.3780 C   0  0  0  0  0  0  0  0  0  0  0  0
   10.0933   22.6934    3.1703 O   0  0  0  0  0  0  0  0  0  0  0  0
   16.0838   26.7910   -3.8520 C   0  0  0  0  0  0  0  0  0  0  0  0
   17.2233   26.9749   -3.2100 O   0  0  0  0  0  0  0  0  0  0  0  0
   15.9924   27.4772   -5.4360 S   0  0  0  0  0  0  0  0  0  0  0  0
   15.4396   26.5413   -6.8095 C   0  0  0  0  0  0  0  0  0  0  0  0
   15.3768   25.1656   -6.5127 F   0  0  0  0  0  0  0  0  0  0  0  0
 13 14  1  0  0  0
 14 12  1  0  0  0
 12  7  1  0  0  0
  7  8  1  0  0  0
  8  9  1  0  0  0
  9 10  1  0  0  0
 10 11  1  0  0  0
 10  1  1  0  0  0
  1  2  2  0  0  0
  2  3  1  0  0  0
  3  4  2  0  0  0
  4  5  1  0  0  0
  5  6  2  0  0  0
  4 15  1  0  0  0
 15 16  2  0  0  0
 15 17  1  0  0  0
 17 18  1  0  0  0
 18 19  1  0  0  0
 11  7  1  0  0  0
  6  1  1  0  0  0
M  END
> <minimizedAffinity>
-6.51088

> <CNNscore>
0.5685622692

> <CNNaffinity>
5.7342805862

> <CNN_VS>
3.2602956295

> <CNNaffinity_variance>
0.1443357170

$$$$
[H]Oc1c([H])c([H])c([H])c(OC([H])([H])C(=O)OC2([H])C([H])([H])C([H])([H])C([H])([H])C2(C([H])([H])[H])C([H])([H])[H])c1C(=O)N([H])C([H])([H])C([H])([H])N(C([H])([H])C([H])([H])[H])C([H])([H])C([H])([H])[H]


 31 32  0  0  0  0  0  0  0  0999 V2000
   13.9071   22.5328    0.7476 C   0  0  0  0  0  0  0  0  0  0  0  0
   15.1512   21.9547    0.7695 C   0  0  0  0  0  0  0  0  0  0  0  0
   15.3642   20.5755    0.8273 O   0  0  0  0  0  0  0  0  0  0  0  0
   16.2748   22.7989    0.7309 C   0  0  0  0  0  0  0  0  0  0  0  0
   16.1596   24.1632    0.6728 C   0  0  0  0  0  0  0  0  0  0  0  0
   14.9137   24.6985    0.6529 C   0  0  0  0  0  0  0  0  0  0  0  0
   13.7783   23.9320    0.6883 C   0  0  0  0  0  0  0  0  0  0  0  0
   16.2586   20.1573    0.8446 H   0  0  0  0  0  0  0  0  0  0  0  0
   11.9972   21.1211   -0.2462 N   0  0  0  0  0  0  0  0  0  0  0  0
   12.7065   21.7368    0.7932 C   0  0  0  0  0  0  0  0  0  0  0  0
   12.1992   21.5562    1.9675 O   0  0  0  0  0  0  0  0  0  0  0  0
   12.2906   21.1701   -1.2158 H   0  0  0  0  0  0  0  0  0  0  0  0
   10.8049   20.3690    0.0637 C   0  0  0  0  0  0  0  0  0  0  0  0
    9.6327   20.5633   -0.7987 C   0  0  0  0  0  0  0  0  0  0  0  0
    8.4072   21.0001   -0.2761 N   0  0  0  0  0  0  0  0  0  0  0  0
    8.3180   23.1201    0.8271 C   0  0  0  0  0  0  0  0  0  0  0  0
    8.3870   21.6063    1.0114 C   0  0  0  0  0  0  0  0  0  0  0  0
    7.2867   20.1314   -0.5283 C   0  0  0  0  0  0  0  0  0  0  0  0
    7.3452   19.6787   -1.9658 C   0  0  0  0  0  0  0  0  0  0  0  0
   12.5012   24.5309    0.6658 O   0  0  0  0  0  0  0  0  0  0  0  0
   12.1598   25.2721   -0.4638 C   0  0  0  0  0  0  0  0  0  0  0  0
   12.5520   24.6429   -1.7332 C   0  0  0  0  0  0  0  0  0  0  0  0
   12.1714   23.5367   -2.1555 O   0  0  0  0  0  0  0  0  0  0  0  0
   13.4326   25.3507   -2.5430 O   0  0  0  0  0  0  0  0  0  0  0  0
   14.2193   24.7342   -3.5481 C   0  0  0  0  0  0  0  0  0  0  0  0
   15.4975   24.1543   -3.0297 C   0  0  0  0  0  0  0  0  0  0  0  0
   16.3496   25.3610   -2.7447 C   0  0  0  0  0  0  0  0  0  0  0  0
   15.7161   26.5358   -3.4195 C   0  0  0  0  0  0  0  0  0  0  0  0
   14.7525   25.9023   -4.3962 C   0  0  0  0  0  0  0  0  0  0  0  0
   15.3934   25.4321   -5.6618 C   0  0  0  0  0  0  0  0  0  0  0  0
   13.6382   26.8947   -4.6531 C   0  0  0  0  0  0  0  0  0  0  0  0
 16 17  1  0  0  0
 17 15  1  0  0  0
 15 18  1  0  0  0
 18 19  1  0  0  0
 15 14  1  0  0  0
 14 13  1  0  0  0
 13  9  1  0  0  0
  9 10  1  0  0  0
 10 11  2  0  0  0
 10  1  1  0  0  0
  1  2  2  0  0  0
  2  3  1  0  0  0
  2  4  1  0  0  0
  4  5  2  0  0  0
  5  6  1  0  0  0
  6  7  2  0  0  0
  7 20  1  0  0  0
 20 21  1  0  0  0
 21 22  1  0  0  0
 22 23  2  0  0  0
 22 24  1  0  0  0
 24 25  1  0  0  0
 25 26  1  0  0  0
 26 27  1  0  0  0
 27 28  1  0  0  0
 28 29  1  0  0  0
 29 30  1  0  0  0
 29 31  1  0  0  0
  7  1  1  0  0  0
 29 25  1  0  0  0
  9 12  1  0  0  0
  3  8  1  0  0  0
M  END
> <minimizedAffinity>
-6.81576

> <CNNscore>
0.5787215233

> <CNNaffinity>
7.1508240700

> <CNN_VS>
4.1383357048

> <CNNaffinity_variance>
0.0777769685

$$$$
[H]Oc1c([H])c([H])c([H])c(OC([H])([H])C(=O)OC2([H])C([H])([H])C([H])([H])C([H])([H])C2(C([H])([H])[H])C([H])([H])[H])c1C(=O)N([H])C([H])([H])C([H])([H])N(C([H])([H])C([H])([H])[H])C([H])([H])C([H])([H])[H]


 31 32  0  0  0  0  0  0  0  0999 V2000
   12.2642   21.9442    0.6090 C   0  0  0  0  0  0  0  0  0  0  0  0
   13.2812   21.0876    0.9472 C   0  0  0  0  0  0  0  0  0  0  0  0
   13.5022   20.6205    2.2447 O   0  0  0  0  0  0  0  0  0  0  0  0
   14.1495   20.6556   -0.0708 C   0  0  0  0  0  0  0  0  0  0  0  0
   14.0070   21.0626   -1.3716 C   0  0  0  0  0  0  0  0  0  0  0  0
   12.9901   21.9096   -1.6678 C   0  0  0  0  0  0  0  0  0  0  0  0
   12.1096   22.3679   -0.7231 C   0  0  0  0  0  0  0  0  0  0  0  0
   14.2343   20.0052    2.4907 H   0  0  0  0  0  0  0  0  0  0  0  0
   10.7335   23.6980    1.7087 N   0  0  0  0  0  0  0  0  0  0  0  0
   11.3378   22.4392    1.5960 C   0  0  0  0  0  0  0  0  0  0  0  0
   11.0065   21.6017    2.5221 O   0  0  0  0  0  0  0  0  0  0  0  0
   10.8938   24.4460    1.0429 H   0  0  0  0  0  0  0  0  0  0  0  0
    9.8299   23.9498    2.8059 C   0  0  0  0  0  0  0  0  0  0  0  0
    8.3904   23.8257    2.5458 C   0  0  0  0  0  0  0  0  0  0  0  0
    7.8182   22.5986    2.1814 N   0  0  0  0  0  0  0  0  0  0  0  0
    8.2526   21.2257    0.2721 C   0  0  0  0  0  0  0  0  0  0  0  0
    7.4398   22.3936    0.8249 C   0  0  0  0  0  0  0  0  0  0  0  0
    6.8912   22.0455    3.1345 C   0  0  0  0  0  0  0  0  0  0  0  0
    7.6551   21.1632    4.0898 C   0  0  0  0  0  0  0  0  0  0  0  0
   11.0655   23.2486   -1.0753 O   0  0  0  0  0  0  0  0  0  0  0  0
   11.4043   24.3865   -1.8051 C   0  0  0  0  0  0  0  0  0  0  0  0
   12.4264   25.2260   -1.1635 C   0  0  0  0  0  0  0  0  0  0  0  0
   12.4438   25.5847    0.0273 O   0  0  0  0  0  0  0  0  0  0  0  0
   13.4775   25.6619   -1.9619 O   0  0  0  0  0  0  0  0  0  0  0  0
   14.1954   24.7996   -2.8281 C   0  0  0  0  0  0  0  0  0  0  0  0
   15.4911   24.3227   -2.2515 C   0  0  0  0  0  0  0  0  0  0  0  0
   16.3781   25.5365   -2.3090 C   0  0  0  0  0  0  0  0  0  0  0  0
   15.7270   26.5341   -3.2133 C   0  0  0  0  0  0  0  0  0  0  0  0
   14.6990   25.7145   -3.9584 C   0  0  0  0  0  0  0  0  0  0  0  0
   15.2591   24.9363   -5.1048 C   0  0  0  0  0  0  0  0  0  0  0  0
   13.5887   26.6494   -4.3891 C   0  0  0  0  0  0  0  0  0  0  0  0
 16 17  1  0  0  0
 17 15  1  0  0  0
 15 18  1  0  0  0
 18 19  1  0  0  0
 15 14  1  0  0  0
 14 13  1  0  0  0
 13  9  1  0  0  0
  9 10  1  0  0  0
 10 11  2  0  0  0
 10  1  1  0  0  0
  1  2  2  0  0  0
  2  3  1  0  0  0
  2  4  1  0  0  0
  4  5  2  0  0  0
  5  6  1  0  0  0
  6  7  2  0  0  0
  7 20  1  0  0  0
 20 21  1  0  0  0
 21 22  1  0  0  0
 22 23  2  0  0  0
 22 24  1  0  0  0
 24 25  1  0  0  0
 25 26  1  0  0  0
 26 27  1  0  0  0
 27 28  1  0  0  0
 28 29  1  0  0  0
 29 30  1  0  0  0
 29 31  1  0  0  0
  7  1  1  0  0  0
 29 25  1  0  0  0
  9 12  1  0  0  0
  3  8  1  0  0  0
M  END
> <minimizedAffinity>
-7.01467

> <CNNscore>
0.5123311281

> <CNNaffinity>
6.6945457458

> <CNN_VS>
3.4298241138

> <CNNaffinity_variance>
0.2469712198

$$$$
[H]Oc1c([H])c([H])c([H])c(OC([H])([H])C(=O)OC2([H])C([H])([H])C([H])([H])C([H])([H])C2(C([H])([H])[H])C([H])([H])[H])c1C(=O)N([H])C([H])([H])C([H])([H])N(C([H])([H])C([H])([H])[H])C([H])([H])C([H])([H])[H]


 31 32  0  0  0  0  0  0  0  0999 V2000
   12.0894   21.9556    0.7062 C   0  0  0  0  0  0  0  0  0  0  0  0
   13.0734   21.0919    1.1163 C   0  0  0  0  0  0  0  0  0  0  0  0
   13.2244   20.6589    2.4356 O   0  0  0  0  0  0  0  0  0  0  0  0
   13.9804   20.6156    0.1533 C   0  0  0  0  0  0  0  0  0  0  0  0
   13.9067   20.9870   -1.1637 C   0  0  0  0  0  0  0  0  0  0  0  0
   12.9208   21.8424   -1.5317 C   0  0  0  0  0  0  0  0  0  0  0  0
   12.0055   22.3429   -0.6432 C   0  0  0  0  0  0  0  0  0  0  0  0
   13.9327   20.0385    2.7333 H   0  0  0  0  0  0  0  0  0  0  0  0
   10.6687   23.8096    1.7890 N   0  0  0  0  0  0  0  0  0  0  0  0
   11.1270   22.4949    1.6337 C   0  0  0  0  0  0  0  0  0  0  0  0
   10.5994   21.6442    2.4503 O   0  0  0  0  0  0  0  0  0  0  0  0
   10.9885   24.5754    1.2061 H   0  0  0  0  0  0  0  0  0  0  0  0
    9.6878   24.0976    2.8080 C   0  0  0  0  0  0  0  0  0  0  0  0
    9.4192   25.5076    3.1167 C   0  0  0  0  0  0  0  0  0  0  0  0
    8.5523   25.8743    4.1558 N   0  0  0  0  0  0  0  0  0  0  0  0
    7.1136   24.4465    5.4249 C   0  0  0  0  0  0  0  0  0  0  0  0
    8.5047   25.0672    5.3271 C   0  0  0  0  0  0  0  0  0  0  0  0
    7.2666   26.3701    3.7377 C   0  0  0  0  0  0  0  0  0  0  0  0
    7.4060   27.8312    3.3907 C   0  0  0  0  0  0  0  0  0  0  0  0
   10.9956   23.2309   -1.0694 O   0  0  0  0  0  0  0  0  0  0  0  0
   11.3917   24.3525   -1.7955 C   0  0  0  0  0  0  0  0  0  0  0  0
   12.4068   25.1740   -1.1205 C   0  0  0  0  0  0  0  0  0  0  0  0
   12.3921   25.5318    0.0706 O   0  0  0  0  0  0  0  0  0  0  0  0
   13.4903   25.5923   -1.8843 O   0  0  0  0  0  0  0  0  0  0  0  0
   14.2012   24.7255   -2.7518 C   0  0  0  0  0  0  0  0  0  0  0  0
   15.5004   24.2496   -2.1823 C   0  0  0  0  0  0  0  0  0  0  0  0
   16.3882   25.4622   -2.2513 C   0  0  0  0  0  0  0  0  0  0  0  0
   15.7319   26.4566   -3.1553 C   0  0  0  0  0  0  0  0  0  0  0  0
   14.6978   25.6349   -3.8895 C   0  0  0  0  0  0  0  0  0  0  0  0
   15.2489   24.8511   -5.0365 C   0  0  0  0  0  0  0  0  0  0  0  0
   13.5854   26.5691   -4.3164 C   0  0  0  0  0  0  0  0  0  0  0  0
 16 17  1  0  0  0
 17 15  1  0  0  0
 15 18  1  0  0  0
 18 19  1  0  0  0
 15 14  1  0  0  0
 14 13  1  0  0  0
 13  9  1  0  0  0
  9 10  1  0  0  0
 10 11  2  0  0  0
 10  1  1  0  0  0
  1  2  2  0  0  0
  2  3  1  0  0  0
  2  4  1  0  0  0
  4  5  2  0  0  0
  5  6  1  0  0  0
  6  7  2  0  0  0
  7 20  1  0  0  0
 20 21  1  0  0  0
 21 22  1  0  0  0
 22 23  2  0  0  0
 22 24  1  0  0  0
 24 25  1  0  0  0
 25 26  1  0  0  0
 26 27  1  0  0  0
 27 28  1  0  0  0
 28 29  1  0  0  0
 29 30  1  0  0  0
 29 31  1  0  0  0
  7  1  1  0  0  0
 29 25  1  0  0  0
  9 12  1  0  0  0
  3  8  1  0  0  0
M  END
> <minimizedAffinity>
-7.46376

> <CNNscore>
0.5047224164

> <CNNaffinity>
6.6573586464

> <CNN_VS>
3.3601181507

> <CNNaffinity_variance>
0.2077082843

$$$$
[H]Oc1c([H])c([H])c([H])c(OC([H])([H])C(=O)OC2([H])C([H])([H])C([H])([H])C([H])([H])C2(C([H])([H])[H])C([H])([H])[H])c1C(=O)N([H])C([H])([H])C([H])([H])N(C([H])([H])C([H])([H])[H])C([H])([H])C([H])([H])[H]


 31 32  0  0  0  0  0  0  0  0999 V2000
   11.7213   22.2258    0.9710 C   0  0  0  0  0  0  0  0  0  0  0  0
   12.6196   21.2967    1.4318 C   0  0  0  0  0  0  0  0  0  0  0  0
   12.7501   20.9455    2.7773 O   0  0  0  0  0  0  0  0  0  0  0  0
   13.4553   20.6623    0.4960 C   0  0  0  0  0  0  0  0  0  0  0  0
   13.3955   20.9446   -0.8437 C   0  0  0  0  0  0  0  0  0  0  0  0
   12.4952   21.8686   -1.2619 C   0  0  0  0  0  0  0  0  0  0  0  0
   11.6523   22.5227   -0.4020 C   0  0  0  0  0  0  0  0  0  0  0  0
   13.3969   20.2782    3.1114 H   0  0  0  0  0  0  0  0  0  0  0  0
   10.4151   24.2620    1.8518 N   0  0  0  0  0  0  0  0  0  0  0  0
   10.8362   22.9260    1.8674 C   0  0  0  0  0  0  0  0  0  0  0  0
   10.3504   22.2231    2.8363 O   0  0  0  0  0  0  0  0  0  0  0  0
   10.7083   24.9222    1.1400 H   0  0  0  0  0  0  0  0  0  0  0  0
    9.5131   24.7281    2.8778 C   0  0  0  0  0  0  0  0  0  0  0  0
    8.0971   24.8827    2.5220 C   0  0  0  0  0  0  0  0  0  0  0  0
    7.0791   24.6155    3.4483 N   0  0  0  0  0  0  0  0  0  0  0  0
    6.6263   26.9573    3.2750 C   0  0  0  0  0  0  0  0  0  0  0  0
    6.4714   25.7047    4.1336 C   0  0  0  0  0  0  0  0  0  0  0  0
    7.2869   23.4525    4.2716 C   0  0  0  0  0  0  0  0  0  0  0  0
    6.8721   22.2313    3.4898 C   0  0  0  0  0  0  0  0  0  0  0  0
   10.7304   23.4773   -0.8803 O   0  0  0  0  0  0  0  0  0  0  0  0
   11.2198   24.4801   -1.7152 C   0  0  0  0  0  0  0  0  0  0  0  0
   12.3004   25.2795   -1.1198 C   0  0  0  0  0  0  0  0  0  0  0  0
   12.3644   25.6694    0.0595 O   0  0  0  0  0  0  0  0  0  0  0  0
   13.3552   25.6347   -1.9526 O   0  0  0  0  0  0  0  0  0  0  0  0
   14.0601   24.6950   -2.7458 C   0  0  0  0  0  0  0  0  0  0  0  0
   15.2747   24.1402   -2.0707 C   0  0  0  0  0  0  0  0  0  0  0  0
   16.2541   25.2819   -2.0989 C   0  0  0  0  0  0  0  0  0  0  0  0
   15.7423   26.2973   -3.0704 C   0  0  0  0  0  0  0  0  0  0  0  0
   14.7056   25.5345   -3.8623 C   0  0  0  0  0  0  0  0  0  0  0  0
   15.2783   24.6818   -4.9479 C   0  0  0  0  0  0  0  0  0  0  0  0
   13.7010   26.5363   -4.3910 C   0  0  0  0  0  0  0  0  0  0  0  0
 16 17  1  0  0  0
 17 15  1  0  0  0
 15 18  1  0  0  0
 18 19  1  0  0  0
 15 14  1  0  0  0
 14 13  1  0  0  0
 13  9  1  0  0  0
  9 10  1  0  0  0
 10 11  2  0  0  0
 10  1  1  0  0  0
  1  2  2  0  0  0
  2  3  1  0  0  0
  2  4  1  0  0  0
  4  5  2  0  0  0
  5  6  1  0  0  0
  6  7  2  0  0  0
  7 20  1  0  0  0
 20 21  1  0  0  0
 21 22  1  0  0  0
 22 23  2  0  0  0
 22 24  1  0  0  0
 24 25  1  0  0  0
 25 26  1  0  0  0
 26 27  1  0  0  0
 27 28  1  0  0  0
 28 29  1  0  0  0
 29 30  1  0  0  0
 29 31  1  0  0  0
  7  1  1  0  0  0
 29 25  1  0  0  0
  9 12  1  0  0  0
  3  8  1  0  0  0
M  END
> <minimizedAffinity>
-7.50130

> <CNNscore>
0.4792124927

> <CNNaffinity>
6.4577512741

> <CNN_VS>
3.0946350098

> <CNNaffinity_variance>
0.2020410746

$$$$
[H]Oc1c([H])c([H])c([H])c(OC([H])([H])C(=O)OC2([H])C([H])([H])C([H])([H])C([H])([H])C2(C([H])([H])[H])C([H])([H])[H])c1C(=O)N([H])C([H])([H])C([H])([H])N(C([H])([H])C([H])([H])[H])C([H])([H])C([H])([H])[H]


 31 32  0  0  0  0  0  0  0  0999 V2000
   14.1782   22.5910   -0.1244 C   0  0  0  0  0  0  0  0  0  0  0  0
   14.6430   21.6481    0.7572 C   0  0  0  0  0  0  0  0  0  0  0  0
   15.8767   21.7352    1.4063 O   0  0  0  0  0  0  0  0  0  0  0  0
   13.8307   20.5316    1.0223 C   0  0  0  0  0  0  0  0  0  0  0  0
   12.6057   20.3648    0.4311 C   0  0  0  0  0  0  0  0  0  0  0  0
   12.1797   21.3175   -0.4349 C   0  0  0  0  0  0  0  0  0  0  0  0
   12.9224   22.4289   -0.7365 C   0  0  0  0  0  0  0  0  0  0  0  0
   16.2139   21.0571    2.0400 H   0  0  0  0  0  0  0  0  0  0  0  0
   15.3471   24.2516   -1.7070 N   0  0  0  0  0  0  0  0  0  0  0  0
   14.9547   23.7592   -0.4556 C   0  0  0  0  0  0  0  0  0  0  0  0
   15.3538   24.4685    0.5477 O   0  0  0  0  0  0  0  0  0  0  0  0
   15.0918   23.8014   -2.5792 H   0  0  0  0  0  0  0  0  0  0  0  0
   16.1356   25.4588   -1.7732 C   0  0  0  0  0  0  0  0  0  0  0  0
   16.4149   26.0188   -3.1012 C   0  0  0  0  0  0  0  0  0  0  0  0
   15.4215   26.6795   -3.8377 N   0  0  0  0  0  0  0  0  0  0  0  0
   13.0586   26.5661   -3.4869 C   0  0  0  0  0  0  0  0  0  0  0  0
   14.2541   25.9589   -4.2164 C   0  0  0  0  0  0  0  0  0  0  0  0
   15.9049   27.5797   -4.8525 C   0  0  0  0  0  0  0  0  0  0  0  0
   15.6234   26.9736   -6.2045 C   0  0  0  0  0  0  0  0  0  0  0  0
   12.4405   23.3956   -1.6438 O   0  0  0  0  0  0  0  0  0  0  0  0
   11.2520   24.0460   -1.3174 C   0  0  0  0  0  0  0  0  0  0  0  0
   11.2327   24.6111    0.0396 C   0  0  0  0  0  0  0  0  0  0  0  0
   12.0898   25.3627    0.5369 O   0  0  0  0  0  0  0  0  0  0  0  0
   10.1523   24.2759    0.8476 O   0  0  0  0  0  0  0  0  0  0  0  0
   10.2701   23.4297    1.9787 C   0  0  0  0  0  0  0  0  0  0  0  0
    9.6930   22.0662    1.7630 C   0  0  0  0  0  0  0  0  0  0  0  0
    8.2068   22.2995    1.7740 C   0  0  0  0  0  0  0  0  0  0  0  0
    7.9638   23.6631    2.3382 C   0  0  0  0  0  0  0  0  0  0  0  0
    9.2769   24.0076    3.0022 C   0  0  0  0  0  0  0  0  0  0  0  0
    9.4487   23.4010    4.3572 C   0  0  0  0  0  0  0  0  0  0  0  0
    9.3964   25.5167    3.0311 C   0  0  0  0  0  0  0  0  0  0  0  0
 16 17  1  0  0  0
 17 15  1  0  0  0
 15 18  1  0  0  0
 18 19  1  0  0  0
 15 14  1  0  0  0
 14 13  1  0  0  0
 13  9  1  0  0  0
  9 10  1  0  0  0
 10 11  2  0  0  0
 10  1  1  0  0  0
  1  2  2  0  0  0
  2  3  1  0  0  0
  2  4  1  0  0  0
  4  5  2  0  0  0
  5  6  1  0  0  0
  6  7  2  0  0  0
  7 20  1  0  0  0
 20 21  1  0  0  0
 21 22  1  0  0  0
 22 23  2  0  0  0
 22 24  1  0  0  0
 24 25  1  0  0  0
 25 26  1  0  0  0
 26 27  1  0  0  0
 27 28  1  0  0  0
 28 29  1  0  0  0
 29 30  1  0  0  0
 29 31  1  0  0  0
  7  1  1  0  0  0
 29 25  1  0  0  0
  9 12  1  0  0  0
  3  8  1  0  0  0
M  END
> <minimizedAffinity>
-7.35567

> <CNNscore>
0.4385895729

> <CNNaffinity>
7.1640024185

> <CNN_VS>
3.1420567036

> <CNNaffinity_variance>
0.1077842861

$$$$
[H]Oc1c([H])c([H])c([H])c(OC([H])([H])C(=O)OC2([H])C([H])([H])C([H])([H])C([H])([H])C2(C([H])([H])[H])C([H])([H])[H])c1C(=O)N([H])C([H])([H])C([H])([H])N(C([H])([H])C([H])([H])[H])C([H])([H])C([H])([H])[H]


 31 32  0  0  0  0  0  0  0  0999 V2000
   13.5527   25.6002   -2.7898 C   0  0  0  0  0  0  0  0  0  0  0  0
   13.3632   26.4452   -3.8540 C   0  0  0  0  0  0  0  0  0  0  0  0
   12.1676   27.1234   -4.1021 O   0  0  0  0  0  0  0  0  0  0  0  0
   14.4338   26.6395   -4.7444 C   0  0  0  0  0  0  0  0  0  0  0  0
   15.6425   26.0155   -4.5780 C   0  0  0  0  0  0  0  0  0  0  0  0
   15.7924   25.1874   -3.5146 C   0  0  0  0  0  0  0  0  0  0  0  0
   14.7894   24.9550   -2.6103 C   0  0  0  0  0  0  0  0  0  0  0  0
   12.0285   27.7308   -4.8681 H   0  0  0  0  0  0  0  0  0  0  0  0
   11.3818   24.5068   -1.9411 N   0  0  0  0  0  0  0  0  0  0  0  0
   12.5019   25.3417   -1.8377 C   0  0  0  0  0  0  0  0  0  0  0  0
   12.5990   25.9701   -0.7131 O   0  0  0  0  0  0  0  0  0  0  0  0
   11.1895   23.9449   -2.7633 H   0  0  0  0  0  0  0  0  0  0  0  0
   10.4624   24.4213   -0.8318 C   0  0  0  0  0  0  0  0  0  0  0  0
    9.9041   23.1023   -0.5091 C   0  0  0  0  0  0  0  0  0  0  0  0
    8.9352   22.9456    0.4922 N   0  0  0  0  0  0  0  0  0  0  0  0
    8.1891   24.4335    2.2094 C   0  0  0  0  0  0  0  0  0  0  0  0
    9.2319   23.3926    1.8104 C   0  0  0  0  0  0  0  0  0  0  0  0
    8.2007   21.7078    0.4486 C   0  0  0  0  0  0  0  0  0  0  0  0
    9.0194   20.6910   -0.3068 C   0  0  0  0  0  0  0  0  0  0  0  0
   14.9887   24.0852   -1.5178 O   0  0  0  0  0  0  0  0  0  0  0  0
   15.6171   24.6067   -0.3885 C   0  0  0  0  0  0  0  0  0  0  0  0
   15.9933   23.5937    0.6081 C   0  0  0  0  0  0  0  0  0  0  0  0
   17.0889   23.5037    1.1898 O   0  0  0  0  0  0  0  0  0  0  0  0
   15.0331   22.6433    0.9354 O   0  0  0  0  0  0  0  0  0  0  0  0
   13.8196   22.4959    0.2179 C   0  0  0  0  0  0  0  0  0  0  0  0
   12.6031   22.7659    1.0461 C   0  0  0  0  0  0  0  0  0  0  0  0
   12.5109   21.5669    1.9501 C   0  0  0  0  0  0  0  0  0  0  0  0
   13.4140   20.5100    1.3987 C   0  0  0  0  0  0  0  0  0  0  0  0
   13.6848   20.9802   -0.0117 C   0  0  0  0  0  0  0  0  0  0  0  0
   12.5946   20.6526   -0.9800 C   0  0  0  0  0  0  0  0  0  0  0  0
   15.0206   20.4096   -0.4390 C   0  0  0  0  0  0  0  0  0  0  0  0
 16 17  1  0  0  0
 17 15  1  0  0  0
 15 18  1  0  0  0
 18 19  1  0  0  0
 15 14  1  0  0  0
 14 13  1  0  0  0
 13  9  1  0  0  0
  9 10  1  0  0  0
 10 11  2  0  0  0
 10  1  1  0  0  0
  1  2  2  0  0  0
  2  3  1  0  0  0
  2  4  1  0  0  0
  4  5  2  0  0  0
  5  6  1  0  0  0
  6  7  2  0  0  0
  7 20  1  0  0  0
 20 21  1  0  0  0
 21 22  1  0  0  0
 22 23  2  0  0  0
 22 24  1  0  0  0
 24 25  1  0  0  0
 25 26  1  0  0  0
 26 27  1  0  0  0
 27 28  1  0  0  0
 28 29  1  0  0  0
 29 30  1  0  0  0
 29 31  1  0  0  0
  7  1  1  0  0  0
 29 25  1  0  0  0
  9 12  1  0  0  0
  3  8  1  0  0  0
M  END
> <minimizedAffinity>
-5.82125

> <CNNscore>
0.3850847781

> <CNNaffinity>
6.9040040970

> <CNN_VS>
2.6586267948

> <CNNaffinity_variance>
0.1558907032

$$$$
[H]Oc1c([H])c([H])c([H])c(OC([H])([H])C(=O)OC2([H])C([H])([H])C([H])([H])C([H])([H])C2(C([H])([H])[H])C([H])([H])[H])c1C(=O)N([H])C([H])([H])C([H])([H])N(C([H])([H])C([H])([H])[H])C([H])([H])C([H])([H])[H]


 31 32  0  0  0  0  0  0  0  0999 V2000
   12.1796   21.9163    0.5528 C   0  0  0  0  0  0  0  0  0  0  0  0
   13.1887   21.1192    1.0312 C   0  0  0  0  0  0  0  0  0  0  0  0
   13.2503   20.6518    2.3459 O   0  0  0  0  0  0  0  0  0  0  0  0
   14.2184   20.7521    0.1471 C   0  0  0  0  0  0  0  0  0  0  0  0
   14.2385   21.1642   -1.1597 C   0  0  0  0  0  0  0  0  0  0  0  0
   13.2241   21.9512   -1.5966 C   0  0  0  0  0  0  0  0  0  0  0  0
   12.1911   22.3446   -0.7867 C   0  0  0  0  0  0  0  0  0  0  0  0
   13.9763   20.0793    2.6927 H   0  0  0  0  0  0  0  0  0  0  0  0
   10.6927   23.6353    1.7621 N   0  0  0  0  0  0  0  0  0  0  0  0
   11.0929   22.3432    1.3980 C   0  0  0  0  0  0  0  0  0  0  0  0
   10.3705   21.3976    1.9009 O   0  0  0  0  0  0  0  0  0  0  0  0
   11.1622   24.4703    1.4289 H   0  0  0  0  0  0  0  0  0  0  0  0
    9.5557   23.8005    2.6357 C   0  0  0  0  0  0  0  0  0  0  0  0
    9.3265   25.1310    3.2125 C   0  0  0  0  0  0  0  0  0  0  0  0
    9.0305   25.2949    4.5731 N   0  0  0  0  0  0  0  0  0  0  0  0
    7.0196   24.3157    5.4195 C   0  0  0  0  0  0  0  0  0  0  0  0
    8.5359   24.1805    5.3071 C   0  0  0  0  0  0  0  0  0  0  0  0
    8.4046   26.5446    4.9198 C   0  0  0  0  0  0  0  0  0  0  0  0
    8.0850   27.2898    3.6481 C   0  0  0  0  0  0  0  0  0  0  0  0
   11.1558   23.1643   -1.2829 O   0  0  0  0  0  0  0  0  0  0  0  0
   11.5103   24.4193   -1.7741 C   0  0  0  0  0  0  0  0  0  0  0  0
   12.6522   25.0324   -1.0804 C   0  0  0  0  0  0  0  0  0  0  0  0
   12.6141   25.6472    0.0001 O   0  0  0  0  0  0  0  0  0  0  0  0
   13.8971   24.9142   -1.6874 O   0  0  0  0  0  0  0  0  0  0  0  0
   14.4663   25.9399   -2.4831 C   0  0  0  0  0  0  0  0  0  0  0  0
   14.1325   25.8186   -3.9366 C   0  0  0  0  0  0  0  0  0  0  0  0
   14.9598   24.6501   -4.3987 C   0  0  0  0  0  0  0  0  0  0  0  0
   15.9823   24.3703   -3.3438 C   0  0  0  0  0  0  0  0  0  0  0  0
   15.9727   25.6262   -2.5033 C   0  0  0  0  0  0  0  0  0  0  0  0
   16.7734   26.7483   -3.0807 C   0  0  0  0  0  0  0  0  0  0  0  0
   16.4332   25.2518   -1.1104 C   0  0  0  0  0  0  0  0  0  0  0  0
 16 17  1  0  0  0
 17 15  1  0  0  0
 15 18  1  0  0  0
 18 19  1  0  0  0
 15 14  1  0  0  0
 14 13  1  0  0  0
 13  9  1  0  0  0
  9 10  1  0  0  0
 10 11  2  0  0  0
 10  1  1  0  0  0
  1  2  2  0  0  0
  2  3  1  0  0  0
  2  4  1  0  0  0
  4  5  2  0  0  0
  5  6  1  0  0  0
  6  7  2  0  0  0
  7 20  1  0  0  0
 20 21  1  0  0  0
 21 22  1  0  0  0
 22 23  2  0  0  0
 22 24  1  0  0  0
 24 25  1  0  0  0
 25 26  1  0  0  0
 26 27  1  0  0  0
 27 28  1  0  0  0
 28 29  1  0  0  0
 29 30  1  0  0  0
 29 31  1  0  0  0
  7  1  1  0  0  0
 29 25  1  0  0  0
  9 12  1  0  0  0
  3  8  1  0  0  0
M  END
> <minimizedAffinity>
-7.42200

> <CNNscore>
0.3813782632

> <CNNaffinity>
6.5908064842

> <CNN_VS>
2.5135903358

> <CNNaffinity_variance>
0.2752516866

$$$$
[H]Oc1c([H])c([H])c([H])c(OC([H])([H])C(=O)OC2([H])C([H])([H])C([H])([H])C([H])([H])C2(C([H])([H])[H])C([H])([H])[H])c1C(=O)N([H])C([H])([H])C([H])([H])N(C([H])([H])C([H])([H])[H])C([H])([H])C([H])([H])[H]


 31 32  0  0  0  0  0  0  0  0999 V2000
   13.5892   25.3564   -3.1065 C   0  0  0  0  0  0  0  0  0  0  0  0
   13.4866   26.3557   -4.0411 C   0  0  0  0  0  0  0  0  0  0  0  0
   12.4996   27.3435   -4.0146 O   0  0  0  0  0  0  0  0  0  0  0  0
   14.4292   26.3868   -5.0838 C   0  0  0  0  0  0  0  0  0  0  0  0
   15.4319   25.4584   -5.1879 C   0  0  0  0  0  0  0  0  0  0  0  0
   15.5013   24.4855   -4.2457 C   0  0  0  0  0  0  0  0  0  0  0  0
   14.6145   24.3987   -3.2046 C   0  0  0  0  0  0  0  0  0  0  0  0
   12.4230   28.0628   -4.6869 H   0  0  0  0  0  0  0  0  0  0  0  0
   11.7771   24.2124   -1.6798 N   0  0  0  0  0  0  0  0  0  0  0  0
   12.6568   25.2505   -2.0126 C   0  0  0  0  0  0  0  0  0  0  0  0
   12.6196   26.2617   -1.2094 O   0  0  0  0  0  0  0  0  0  0  0  0
   11.7121   23.3542   -2.2162 H   0  0  0  0  0  0  0  0  0  0  0  0
   10.9323   24.3505   -0.5176 C   0  0  0  0  0  0  0  0  0  0  0  0
    9.6429   23.6486   -0.5246 C   0  0  0  0  0  0  0  0  0  0  0  0
    9.1052   23.0992    0.6480 N   0  0  0  0  0  0  0  0  0  0  0  0
    7.1812   21.7816    1.1785 C   0  0  0  0  0  0  0  0  0  0  0  0
    8.5994   21.7694    0.6138 C   0  0  0  0  0  0  0  0  0  0  0  0
    8.3150   24.0025    1.4438 C   0  0  0  0  0  0  0  0  0  0  0  0
    9.1781   24.5407    2.5574 C   0  0  0  0  0  0  0  0  0  0  0  0
   14.7237   23.3694   -2.2462 O   0  0  0  0  0  0  0  0  0  0  0  0
   15.5674   23.5913   -1.1594 C   0  0  0  0  0  0  0  0  0  0  0  0
   14.8609   23.8135    0.1105 C   0  0  0  0  0  0  0  0  0  0  0  0
   15.0843   24.7236    0.9283 O   0  0  0  0  0  0  0  0  0  0  0  0
   13.8431   22.9226    0.4309 O   0  0  0  0  0  0  0  0  0  0  0  0
   14.0897   21.6170    0.9245 C   0  0  0  0  0  0  0  0  0  0  0  0
   14.4887   20.6448   -0.1406 C   0  0  0  0  0  0  0  0  0  0  0  0
   13.2112   20.3942   -0.8947 C   0  0  0  0  0  0  0  0  0  0  0  0
   12.0817   20.9124   -0.0625 C   0  0  0  0  0  0  0  0  0  0  0  0
   12.7004   21.0764    1.3064 C   0  0  0  0  0  0  0  0  0  0  0  0
   12.7866   19.8062    2.0890 C   0  0  0  0  0  0  0  0  0  0  0  0
   11.9211   22.1483    2.0386 C   0  0  0  0  0  0  0  0  0  0  0  0
 16 17  1  0  0  0
 17 15  1  0  0  0
 15 18  1  0  0  0
 18 19  1  0  0  0
 15 14  1  0  0  0
 14 13  1  0  0  0
 13  9  1  0  0  0
  9 10  1  0  0  0
 10 11  2  0  0  0
 10  1  1  0  0  0
  1  2  2  0  0  0
  2  3  1  0  0  0
  2  4  1  0  0  0
  4  5  2  0  0  0
  5  6  1  0  0  0
  6  7  2  0  0  0
  7 20  1  0  0  0
 20 21  1  0  0  0
 21 22  1  0  0  0
 22 23  2  0  0  0
 22 24  1  0  0  0
 24 25  1  0  0  0
 25 26  1  0  0  0
 26 27  1  0  0  0
 27 28  1  0  0  0
 28 29  1  0  0  0
 29 30  1  0  0  0
 29 31  1  0  0  0
  7  1  1  0  0  0
 29 25  1  0  0  0
  9 12  1  0  0  0
  3  8  1  0  0  0
M  END
> <minimizedAffinity>
-6.18580

> <CNNscore>
0.3585019410

> <CNNaffinity>
6.8868474960

> <CNN_VS>
2.4689481258

> <CNNaffinity_variance>
0.0779189914

$$$$
[H]Oc1c([H])c([H])c([H])c(OC([H])([H])C(=O)OC2([H])C([H])([H])C([H])([H])C([H])([H])C2(C([H])([H])[H])C([H])([H])[H])c1C(=O)N([H])C([H])([H])C([H])([H])N(C([H])([H])C([H])([H])[H])C([H])([H])C([H])([H])[H]


 31 32  0  0  0  0  0  0  0  0999 V2000
   12.7837   22.0992    1.1469 C   0  0  0  0  0  0  0  0  0  0  0  0
   13.2089   20.8581    1.5487 C   0  0  0  0  0  0  0  0  0  0  0  0
   14.4207   20.2879    1.1523 O   0  0  0  0  0  0  0  0  0  0  0  0
   12.3775   20.1193    2.4087 C   0  0  0  0  0  0  0  0  0  0  0  0
   11.1721   20.6008    2.8484 C   0  0  0  0  0  0  0  0  0  0  0  0
   10.7851   21.8314    2.4299 C   0  0  0  0  0  0  0  0  0  0  0  0
   11.5482   22.6022    1.5924 C   0  0  0  0  0  0  0  0  0  0  0  0
   14.7281   19.3944    1.4390 H   0  0  0  0  0  0  0  0  0  0  0  0
   13.8261   22.7663   -1.1107 N   0  0  0  0  0  0  0  0  0  0  0  0
   13.5741   22.9146    0.2593 C   0  0  0  0  0  0  0  0  0  0  0  0
   14.1401   23.9426    0.7994 O   0  0  0  0  0  0  0  0  0  0  0  0
   13.4341   22.0114   -1.6629 H   0  0  0  0  0  0  0  0  0  0  0  0
   14.6652   23.7308   -1.7808 C   0  0  0  0  0  0  0  0  0  0  0  0
   14.0063   24.7529   -2.6034 C   0  0  0  0  0  0  0  0  0  0  0  0
   14.7290   25.8164   -3.1624 N   0  0  0  0  0  0  0  0  0  0  0  0
   12.8217   26.9994   -3.9882 C   0  0  0  0  0  0  0  0  0  0  0  0
   14.2124   26.4643   -4.3195 C   0  0  0  0  0  0  0  0  0  0  0  0
   16.1588   25.6459   -3.1801 C   0  0  0  0  0  0  0  0  0  0  0  0
   16.8048   27.0071   -3.1113 C   0  0  0  0  0  0  0  0  0  0  0  0
   11.1069   23.8775    1.1818 O   0  0  0  0  0  0  0  0  0  0  0  0
    9.9492   23.9378    0.4084 C   0  0  0  0  0  0  0  0  0  0  0  0
    8.7067   23.9708    1.1933 C   0  0  0  0  0  0  0  0  0  0  0  0
    7.6243   23.4432    0.8818 O   0  0  0  0  0  0  0  0  0  0  0  0
    8.7417   24.6563    2.4021 O   0  0  0  0  0  0  0  0  0  0  0  0
    7.6101   25.3124    2.9483 C   0  0  0  0  0  0  0  0  0  0  0  0
    7.8054   26.7853    3.1253 C   0  0  0  0  0  0  0  0  0  0  0  0
    8.7460   26.8847    4.2952 C   0  0  0  0  0  0  0  0  0  0  0  0
    8.7781   25.5497    4.9687 C   0  0  0  0  0  0  0  0  0  0  0  0
    7.5604   24.8472    4.4143 C   0  0  0  0  0  0  0  0  0  0  0  0
    6.2809   25.2323    5.0837 C   0  0  0  0  0  0  0  0  0  0  0  0
    7.8170   23.3566    4.4840 C   0  0  0  0  0  0  0  0  0  0  0  0
 16 17  1  0  0  0
 17 15  1  0  0  0
 15 18  1  0  0  0
 18 19  1  0  0  0
 15 14  1  0  0  0
 14 13  1  0  0  0
 13  9  1  0  0  0
  9 10  1  0  0  0
 10 11  2  0  0  0
 10  1  1  0  0  0
  1  2  2  0  0  0
  2  3  1  0  0  0
  2  4  1  0  0  0
  4  5  2  0  0  0
  5  6  1  0  0  0
  6  7  2  0  0  0
  7 20  1  0  0  0
 20 21  1  0  0  0
 21 22  1  0  0  0
 22 23  2  0  0  0
 22 24  1  0  0  0
 24 25  1  0  0  0
 25 26  1  0  0  0
 26 27  1  0  0  0
 27 28  1  0  0  0
 28 29  1  0  0  0
 29 30  1  0  0  0
 29 31  1  0  0  0
  7  1  1  0  0  0
 29 25  1  0  0  0
  9 12  1  0  0  0
  3  8  1  0  0  0
M  END
> <minimizedAffinity>
-6.81368

> <CNNscore>
0.3513885736

> <CNNaffinity>
6.5169305801

> <CNN_VS>
2.2899749279

> <CNNaffinity_variance>
0.1522978991

$$$$
[H]c1nc(N2C([H])([H])C([H])([H])N(C([H])([H])c3sc(N([H])c4c([H])c([H])c(N5C([H])([H])C([H])([H])C([H])([H])C([H])([H])C5([H])[H])c([H])c4[H])nc3C([H])([H])[H])C([H])([H])C2(C([H])([H])[H])C([H])([H])[H])c(C#N)c([H])c1[H]


 37 41  0  0  0  0  0  0  0  0999 V2000
    9.8607   24.5758    2.1978 C   0  0  0  0  0  0  0  0  0  0  0  0
   10.7496   23.4241    1.7544 C   0  0  0  0  0  0  0  0  0  0  0  0
   11.9265   23.5906    1.2729 N   0  0  0  0  0  0  0  0  0  0  0  0
   12.6836   22.5855    0.8955 C   0  0  0  0  0  0  0  0  0  0  0  0
   11.6169   21.2492    1.2599 S   0  0  0  0  0  0  0  0  0  0  0  0
   10.2912   22.1310    1.8671 C   0  0  0  0  0  0  0  0  0  0  0  0
   13.9805   22.5013    0.3476 N   0  0  0  0  0  0  0  0  0  0  0  0
   14.6207   21.7613    0.7605 H   0  0  0  0  0  0  0  0  0  0  0  0
   14.4863   23.2930   -0.6759 C   0  0  0  0  0  0  0  0  0  0  0  0
   14.2062   23.1291   -2.0030 C   0  0  0  0  0  0  0  0  0  0  0  0
   14.7342   23.9647   -2.9840 C   0  0  0  0  0  0  0  0  0  0  0  0
   15.5826   25.0213   -2.6769 C   0  0  0  0  0  0  0  0  0  0  0  0
   15.8638   25.1845   -1.3415 C   0  0  0  0  0  0  0  0  0  0  0  0
   15.3493   24.3683   -0.3680 C   0  0  0  0  0  0  0  0  0  0  0  0
   16.0990   25.8365   -3.6970 N   0  0  0  0  0  0  0  0  0  0  0  0
   16.8619   27.0266   -3.3340 C   0  0  0  0  0  0  0  0  0  0  0  0
   16.9601   27.9537   -4.5301 C   0  0  0  0  0  0  0  0  0  0  0  0
   15.5919   28.0306   -5.1757 C   0  0  0  0  0  0  0  0  0  0  0  0
   15.1063   26.7117   -5.6864 C   0  0  0  0  0  0  0  0  0  0  0  0
   15.9198   25.5632   -5.0781 C   0  0  0  0  0  0  0  0  0  0  0  0
    8.9413   21.7043    2.3807 C   0  0  0  0  0  0  0  0  0  0  0  0
    8.1277   21.0631    1.4324 N   0  0  0  0  0  0  0  0  0  0  0  0
    6.8133   20.8214    1.8611 C   0  0  0  0  0  0  0  0  0  0  0  0
    6.0216   19.9009    0.9526 C   0  0  0  0  0  0  0  0  0  0  0  0
    6.4778   19.9656   -0.4041 N   0  0  0  0  0  0  0  0  0  0  0  0
    7.8851   20.0963   -0.7181 C   0  0  0  0  0  0  0  0  0  0  0  0
    8.6795   18.9301   -0.1333 C   0  0  0  0  0  0  0  0  0  0  0  0
    8.1581   20.2035   -2.1782 C   0  0  0  0  0  0  0  0  0  0  0  0
    8.3485   21.3407    0.0572 C   0  0  0  0  0  0  0  0  0  0  0  0
    5.5448   19.9141   -1.4681 C   0  0  0  0  0  0  0  0  0  0  0  0
    5.2076   21.1295   -2.0003 N   0  0  0  0  0  0  0  0  0  0  0  0
    4.3318   21.2374   -3.0019 C   0  0  0  0  0  0  0  0  0  0  0  0
    3.7480   20.1028   -3.5188 C   0  0  0  0  0  0  0  0  0  0  0  0
    4.0714   18.8724   -3.0006 C   0  0  0  0  0  0  0  0  0  0  0  0
    4.9769   18.7868   -1.9686 C   0  0  0  0  0  0  0  0  0  0  0  0
    5.3506   17.5098   -1.4011 C   0  0  0  0  0  0  0  0  0  0  0  0
    5.6374   16.4732   -0.9632 N   0  0  0  0  0  0  0  0  0  0  0  0
  1  2  1  0  0  0
  2  3  1  0  0  0
  3  4  2  0  0  0
  4  7  1  0  0  0
  7  9  1  0  0  0
  9 10  2  0  0  0
 10 11  1  0  0  0
 11 12  2  0  0  0
 12 13  1  0  0  0
 13 14  2  0  0  0
 12 15  1  0  0  0
 15 16  1  0  0  0
 16 17  1  0  0  0
 17 18  1  0  0  0
 18 19  1  0  0  0
 19 20  1  0  0  0
  4  5  1  0  0  0
  5  6  1  0  0  0
  6 21  1  0  0  0
 21 22  1  0  0  0
 22 23  1  0  0  0
 23 24  1  0  0  0
 24 25  1  0  0  0
 25 30  1  0  0  0
 30 31  2  0  0  0
 31 32  1  0  0  0
 32 33  2  0  0  0
 33 34  1  0  0  0
 34 35  2  0  0  0
 35 36  1  0  0  0
 36 37  3  0  0  0
 25 26  1  0  0  0
 26 27  1  0  0  0
 26 28  1  0  0  0
 26 29  1  0  0  0
  6  2  2  0  0  0
 29 22  1  0  0  0
 14  9  1  0  0  0
 20 15  1  0  0  0
 35 30  1  0  0  0
  7  8  1  0  0  0
M  END
> <minimizedAffinity>
-8.28034

> <CNNscore>
0.2915767431

> <CNNaffinity>
7.4583954811

> <CNN_VS>
2.1746947765

> <CNNaffinity_variance>
0.2234946191

$$$$
[H]c1nc(N2C([H])([H])C([H])([H])N(C([H])([H])c3sc(N([H])c4c([H])c([H])c(N5C([H])([H])C([H])([H])C([H])([H])C([H])([H])C5([H])[H])c([H])c4[H])nc3C([H])([H])[H])C([H])([H])C2(C([H])([H])[H])C([H])([H])[H])c(C#N)c([H])c1[H]


 37 41  0  0  0  0  0  0  0  0999 V2000
   13.5288   20.0327    1.4347 C   0  0  0  0  0  0  0  0  0  0  0  0
   13.1984   21.5016    1.2193 C   0  0  0  0  0  0  0  0  0  0  0  0
   14.0241   22.3394    0.7083 N   0  0  0  0  0  0  0  0  0  0  0  0
   13.7238   23.6054    0.5268 C   0  0  0  0  0  0  0  0  0  0  0  0
   12.0893   23.6209    1.1468 S   0  0  0  0  0  0  0  0  0  0  0  0
   11.9587   21.9783    1.5809 C   0  0  0  0  0  0  0  0  0  0  0  0
   14.4341   24.7041   -0.0001 N   0  0  0  0  0  0  0  0  0  0  0  0
   14.8995   25.3477    0.7049 H   0  0  0  0  0  0  0  0  0  0  0  0
   14.5772   25.0123   -1.3472 C   0  0  0  0  0  0  0  0  0  0  0  0
   15.7339   24.8781   -2.0617 C   0  0  0  0  0  0  0  0  0  0  0  0
   15.8127   25.1917   -3.4163 C   0  0  0  0  0  0  0  0  0  0  0  0
   14.7184   25.6631   -4.1309 C   0  0  0  0  0  0  0  0  0  0  0  0
   13.5557   25.7979   -3.4106 C   0  0  0  0  0  0  0  0  0  0  0  0
   13.4670   25.4919   -2.0775 C   0  0  0  0  0  0  0  0  0  0  0  0
   14.8417   25.9742   -5.4947 N   0  0  0  0  0  0  0  0  0  0  0  0
   15.4349   24.9898   -6.3943 C   0  0  0  0  0  0  0  0  0  0  0  0
   15.8440   25.6642   -7.6896 C   0  0  0  0  0  0  0  0  0  0  0  0
   16.5341   26.9668   -7.3408 C   0  0  0  0  0  0  0  0  0  0  0  0
   15.6485   27.9261   -6.6118 C   0  0  0  0  0  0  0  0  0  0  0  0
   14.4148   27.2068   -6.0540 C   0  0  0  0  0  0  0  0  0  0  0  0
   10.8475   21.1840    2.2153 C   0  0  0  0  0  0  0  0  0  0  0  0
    9.6092   21.2784    1.5593 N   0  0  0  0  0  0  0  0  0  0  0  0
    9.6942   21.3266    0.1592 C   0  0  0  0  0  0  0  0  0  0  0  0
    8.3952   21.6953   -0.5310 C   0  0  0  0  0  0  0  0  0  0  0  0
    7.2510   21.3114    0.2413 N   0  0  0  0  0  0  0  0  0  0  0  0
    7.2468   21.4236    1.6847 C   0  0  0  0  0  0  0  0  0  0  0  0
    7.4950   22.8680    2.1149 C   0  0  0  0  0  0  0  0  0  0  0  0
    5.9923   20.9245    2.3133 C   0  0  0  0  0  0  0  0  0  0  0  0
    8.4854   20.6376    2.1454 C   0  0  0  0  0  0  0  0  0  0  0  0
    6.0998   20.7994   -0.4052 C   0  0  0  0  0  0  0  0  0  0  0  0
    5.0782   21.6969   -0.5625 N   0  0  0  0  0  0  0  0  0  0  0  0
    3.9273   21.3536   -1.1452 C   0  0  0  0  0  0  0  0  0  0  0  0
    3.7548   20.0666   -1.6024 C   0  0  0  0  0  0  0  0  0  0  0  0
    4.7665   19.1490   -1.4555 C   0  0  0  0  0  0  0  0  0  0  0  0
    5.9435   19.5267   -0.8518 C   0  0  0  0  0  0  0  0  0  0  0  0
    7.0359   18.5930   -0.6859 C   0  0  0  0  0  0  0  0  0  0  0  0
    7.9151   17.8422   -0.5773 N   0  0  0  0  0  0  0  0  0  0  0  0
  1  2  1  0  0  0
  2  3  1  0  0  0
  3  4  2  0  0  0
  4  7  1  0  0  0
  7  9  1  0  0  0
  9 10  2  0  0  0
 10 11  1  0  0  0
 11 12  2  0  0  0
 12 13  1  0  0  0
 13 14  2  0  0  0
 12 15  1  0  0  0
 15 16  1  0  0  0
 16 17  1  0  0  0
 17 18  1  0  0  0
 18 19  1  0  0  0
 19 20  1  0  0  0
  4  5  1  0  0  0
  5  6  1  0  0  0
  6 21  1  0  0  0
 21 22  1  0  0  0
 22 23  1  0  0  0
 23 24  1  0  0  0
 24 25  1  0  0  0
 25 30  1  0  0  0
 30 31  2  0  0  0
 31 32  1  0  0  0
 32 33  2  0  0  0
 33 34  1  0  0  0
 34 35  2  0  0  0
 35 36  1  0  0  0
 36 37  3  0  0  0
 25 26  1  0  0  0
 26 27  1  0  0  0
 26 28  1  0  0  0
 26 29  1  0  0  0
  6  2  2  0  0  0
 29 22  1  0  0  0
 14  9  1  0  0  0
 20 15  1  0  0  0
 35 30  1  0  0  0
  7  8  1  0  0  0
M  END
> <minimizedAffinity>
-5.40698

> <CNNscore>
0.2470528930

> <CNNaffinity>
7.4778685570

> <CNN_VS>
1.8474290371

> <CNNaffinity_variance>
0.2829203308

$$$$
[H]c1nc(N2C([H])([H])C([H])([H])N(C([H])([H])c3sc(N([H])c4c([H])c([H])c(N5C([H])([H])C([H])([H])C([H])([H])C([H])([H])C5([H])[H])c([H])c4[H])nc3C([H])([H])[H])C([H])([H])C2(C([H])([H])[H])C([H])([H])[H])c(C#N)c([H])c1[H]


 37 41  0  0  0  0  0  0  0  0999 V2000
   12.7080   20.3587    2.6159 C   0  0  0  0  0  0  0  0  0  0  0  0
   12.5676   20.5112    1.1092 C   0  0  0  0  0  0  0  0  0  0  0  0
   13.5337   20.8722    0.3469 N   0  0  0  0  0  0  0  0  0  0  0  0
   13.3977   20.9981   -0.9537 C   0  0  0  0  0  0  0  0  0  0  0  0
   11.7147   20.5574   -1.1263 S   0  0  0  0  0  0  0  0  0  0  0  0
   11.3547   20.2531    0.5113 C   0  0  0  0  0  0  0  0  0  0  0  0
   14.2799   21.3713   -1.9888 N   0  0  0  0  0  0  0  0  0  0  0  0
   14.7327   20.5791   -2.5322 H   0  0  0  0  0  0  0  0  0  0  0  0
   14.6024   22.6718   -2.3560 C   0  0  0  0  0  0  0  0  0  0  0  0
   14.3882   23.7785   -1.5841 C   0  0  0  0  0  0  0  0  0  0  0  0
   14.7458   25.0580   -2.0018 C   0  0  0  0  0  0  0  0  0  0  0  0
   15.3443   25.2934   -3.2334 C   0  0  0  0  0  0  0  0  0  0  0  0
   15.5587   24.1791   -4.0089 C   0  0  0  0  0  0  0  0  0  0  0  0
   15.2110   22.9155   -3.6074 C   0  0  0  0  0  0  0  0  0  0  0  0
   15.6833   26.6002   -3.6197 N   0  0  0  0  0  0  0  0  0  0  0  0
   15.1546   27.1272   -4.8738 C   0  0  0  0  0  0  0  0  0  0  0  0
   15.9520   28.3481   -5.2901 C   0  0  0  0  0  0  0  0  0  0  0  0
   17.4213   28.0359   -5.0946 C   0  0  0  0  0  0  0  0  0  0  0  0
   17.7783   27.7480   -3.6714 C   0  0  0  0  0  0  0  0  0  0  0  0
   16.5202   27.4479   -2.8481 C   0  0  0  0  0  0  0  0  0  0  0  0
   10.0856   19.8404    1.2092 C   0  0  0  0  0  0  0  0  0  0  0  0
    9.3233   20.9038    1.7195 N   0  0  0  0  0  0  0  0  0  0  0  0
    9.3599   21.0284    3.1171 C   0  0  0  0  0  0  0  0  0  0  0  0
    8.3376   21.9950    3.6828 C   0  0  0  0  0  0  0  0  0  0  0  0
    7.9942   23.0213    2.7438 N   0  0  0  0  0  0  0  0  0  0  0  0
    7.8697   22.7351    1.3301 C   0  0  0  0  0  0  0  0  0  0  0  0
    6.8079   21.6644    1.0872 C   0  0  0  0  0  0  0  0  0  0  0  0
    7.5624   23.9381    0.5076 C   0  0  0  0  0  0  0  0  0  0  0  0
    9.2074   22.0851    0.9397 C   0  0  0  0  0  0  0  0  0  0  0  0
    7.7816   24.3480    3.1912 C   0  0  0  0  0  0  0  0  0  0  0  0
    6.5855   24.5603    3.8223 N   0  0  0  0  0  0  0  0  0  0  0  0
    6.2429   25.7633    4.2883 C   0  0  0  0  0  0  0  0  0  0  0  0
    7.1082   26.8230    4.1347 C   0  0  0  0  0  0  0  0  0  0  0  0
    8.3141   26.6333    3.5047 C   0  0  0  0  0  0  0  0  0  0  0  0
    8.6449   25.3841    3.0331 C   0  0  0  0  0  0  0  0  0  0  0  0
    9.9084   25.1411    2.3720 C   0  0  0  0  0  0  0  0  0  0  0  0
   10.9319   24.9663    1.8521 N   0  0  0  0  0  0  0  0  0  0  0  0
  1  2  1  0  0  0
  2  3  1  0  0  0
  3  4  2  0  0  0
  4  7  1  0  0  0
  7  9  1  0  0  0
  9 10  2  0  0  0
 10 11  1  0  0  0
 11 12  2  0  0  0
 12 13  1  0  0  0
 13 14  2  0  0  0
 12 15  1  0  0  0
 15 16  1  0  0  0
 16 17  1  0  0  0
 17 18  1  0  0  0
 18 19  1  0  0  0
 19 20  1  0  0  0
  4  5  1  0  0  0
  5  6  1  0  0  0
  6 21  1  0  0  0
 21 22  1  0  0  0
 22 23  1  0  0  0
 23 24  1  0  0  0
 24 25  1  0  0  0
 25 30  1  0  0  0
 30 31  2  0  0  0
 31 32  1  0  0  0
 32 33  2  0  0  0
 33 34  1  0  0  0
 34 35  2  0  0  0
 35 36  1  0  0  0
 36 37  3  0  0  0
 25 26  1  0  0  0
 26 27  1  0  0  0
 26 28  1  0  0  0
 26 29  1  0  0  0
  6  2  2  0  0  0
 29 22  1  0  0  0
 14  9  1  0  0  0
 20 15  1  0  0  0
 35 30  1  0  0  0
  7  8  1  0  0  0
M  END
> <minimizedAffinity>
-5.45271

> <CNNscore>
0.1871325672

> <CNNaffinity>
7.1369080544

> <CNN_VS>
1.3355479240

> <CNNaffinity_variance>
0.0809434876

$$$$
[H]c1nc(N2C([H])([H])C([H])([H])N(C([H])([H])c3sc(N([H])c4c([H])c([H])c(N5C([H])([H])C([H])([H])C([H])([H])C([H])([H])C5([H])[H])c([H])c4[H])nc3C([H])([H])[H])C([H])([H])C2(C([H])([H])[H])C([H])([H])[H])c(C#N)c([H])c1[H]


 37 41  0  0  0  0  0  0  0  0999 V2000
   14.8963   20.4272    0.8645 C   0  0  0  0  0  0  0  0  0  0  0  0
   13.8871   21.5644    0.8997 C   0  0  0  0  0  0  0  0  0  0  0  0
   14.0682   22.6828    0.2988 N   0  0  0  0  0  0  0  0  0  0  0  0
   13.1864   23.6558    0.3369 C   0  0  0  0  0  0  0  0  0  0  0  0
   11.9580   22.9123    1.3343 S   0  0  0  0  0  0  0  0  0  0  0  0
   12.7139   21.4089    1.6029 C   0  0  0  0  0  0  0  0  0  0  0  0
   13.1461   24.9499   -0.2224 N   0  0  0  0  0  0  0  0  0  0  0  0
   12.7842   25.7254    0.4066 H   0  0  0  0  0  0  0  0  0  0  0  0
   13.5366   25.2940   -1.5105 C   0  0  0  0  0  0  0  0  0  0  0  0
   14.7244   24.9440   -2.0876 C   0  0  0  0  0  0  0  0  0  0  0  0
   15.0549   25.3082   -3.3905 C   0  0  0  0  0  0  0  0  0  0  0  0
   14.1970   26.0533   -4.1901 C   0  0  0  0  0  0  0  0  0  0  0  0
   13.0027   26.4049   -3.6080 C   0  0  0  0  0  0  0  0  0  0  0  0
   12.6673   26.0515   -2.3269 C   0  0  0  0  0  0  0  0  0  0  0  0
   14.5713   26.4055   -5.4969 N   0  0  0  0  0  0  0  0  0  0  0  0
   14.7361   25.3526   -6.4940 C   0  0  0  0  0  0  0  0  0  0  0  0
   15.5218   25.8879   -7.6756 C   0  0  0  0  0  0  0  0  0  0  0  0
   16.6901   26.6875   -7.1366 C   0  0  0  0  0  0  0  0  0  0  0  0
   16.2698   27.8692   -6.3225 C   0  0  0  0  0  0  0  0  0  0  0  0
   14.7991   27.7449   -5.9074 C   0  0  0  0  0  0  0  0  0  0  0  0
   12.3036   20.1969    2.3971 C   0  0  0  0  0  0  0  0  0  0  0  0
   11.1538   20.3720    3.1844 N   0  0  0  0  0  0  0  0  0  0  0  0
   10.0508   20.8993    2.4950 C   0  0  0  0  0  0  0  0  0  0  0  0
    8.9076   21.3357    3.3906 C   0  0  0  0  0  0  0  0  0  0  0  0
    8.8721   20.5914    4.6145 N   0  0  0  0  0  0  0  0  0  0  0  0
   10.0904   20.2084    5.2964 C   0  0  0  0  0  0  0  0  0  0  0  0
   10.9184   21.4405    5.6560 C   0  0  0  0  0  0  0  0  0  0  0  0
    9.8525   19.3929    6.5197 C   0  0  0  0  0  0  0  0  0  0  0  0
   10.9132   19.4527    4.2399 C   0  0  0  0  0  0  0  0  0  0  0  0
    7.6292   20.2058    5.1729 C   0  0  0  0  0  0  0  0  0  0  0  0
    7.1894   18.9638    4.8016 N   0  0  0  0  0  0  0  0  0  0  0  0
    6.0293   18.4708    5.2410 C   0  0  0  0  0  0  0  0  0  0  0  0
    5.2491   19.2238    6.0894 C   0  0  0  0  0  0  0  0  0  0  0  0
    5.6705   20.4729    6.4755 C   0  0  0  0  0  0  0  0  0  0  0  0
    6.8700   20.9592    6.0094 C   0  0  0  0  0  0  0  0  0  0  0  0
    7.3532   22.2658    6.3992 C   0  0  0  0  0  0  0  0  0  0  0  0
    7.7512   23.3045    6.7322 N   0  0  0  0  0  0  0  0  0  0  0  0
  1  2  1  0  0  0
  2  3  1  0  0  0
  3  4  2  0  0  0
  4  7  1  0  0  0
  7  9  1  0  0  0
  9 10  2  0  0  0
 10 11  1  0  0  0
 11 12  2  0  0  0
 12 13  1  0  0  0
 13 14  2  0  0  0
 12 15  1  0  0  0
 15 16  1  0  0  0
 16 17  1  0  0  0
 17 18  1  0  0  0
 18 19  1  0  0  0
 19 20  1  0  0  0
  4  5  1  0  0  0
  5  6  1  0  0  0
  6 21  1  0  0  0
 21 22  1  0  0  0
 22 23  1  0  0  0
 23 24  1  0  0  0
 24 25  1  0  0  0
 25 30  1  0  0  0
 30 31  2  0  0  0
 31 32  1  0  0  0
 32 33  2  0  0  0
 33 34  1  0  0  0
 34 35  2  0  0  0
 35 36  1  0  0  0
 36 37  3  0  0  0
 25 26  1  0  0  0
 26 27  1  0  0  0
 26 28  1  0  0  0
 26 29  1  0  0  0
  6  2  2  0  0  0
 29 22  1  0  0  0
 14  9  1  0  0  0
 20 15  1  0  0  0
 35 30  1  0  0  0
  7  8  1  0  0  0
M  END
> <minimizedAffinity>
-5.24861

> <CNNscore>
0.1868234128

> <CNNaffinity>
7.1548042297

> <CNN_VS>
1.3366849422

> <CNNaffinity_variance>
0.1781663746

$$$$
[H]c1nc(N2C([H])([H])C([H])([H])N(C([H])([H])c3sc(N([H])c4c([H])c([H])c(N5C([H])([H])C([H])([H])C([H])([H])C([H])([H])C5([H])[H])c([H])c4[H])nc3C([H])([H])[H])C([H])([H])C2(C([H])([H])[H])C([H])([H])[H])c(C#N)c([H])c1[H]


 37 41  0  0  0  0  0  0  0  0999 V2000
   10.5705   19.9401   -0.1563 C   0  0  0  0  0  0  0  0  0  0  0  0
   10.5904   20.6316    1.1981 C   0  0  0  0  0  0  0  0  0  0  0  0
    9.5270   20.9863    1.8211 N   0  0  0  0  0  0  0  0  0  0  0  0
    9.5599   21.5816    2.9917 C   0  0  0  0  0  0  0  0  0  0  0  0
   11.2879   21.6511    3.2478 S   0  0  0  0  0  0  0  0  0  0  0  0
   11.7964   20.8988    1.8059 C   0  0  0  0  0  0  0  0  0  0  0  0
    8.5604   22.0618    3.8633 N   0  0  0  0  0  0  0  0  0  0  0  0
    8.2386   21.3961    4.6256 H   0  0  0  0  0  0  0  0  0  0  0  0
    7.9687   23.3178    3.8122 C   0  0  0  0  0  0  0  0  0  0  0  0
    6.8974   23.7089    4.5644 C   0  0  0  0  0  0  0  0  0  0  0  0
    6.3550   24.9887    4.4784 C   0  0  0  0  0  0  0  0  0  0  0  0
    6.8684   25.9531    3.6200 C   0  0  0  0  0  0  0  0  0  0  0  0
    7.9457   25.5579    2.8638 C   0  0  0  0  0  0  0  0  0  0  0  0
    8.4875   24.3013    2.9408 C   0  0  0  0  0  0  0  0  0  0  0  0
    6.2877   27.2303    3.5588 N   0  0  0  0  0  0  0  0  0  0  0  0
    4.8638   27.3748    3.8444 C   0  0  0  0  0  0  0  0  0  0  0  0
    4.3739   28.7143    3.3289 C   0  0  0  0  0  0  0  0  0  0  0  0
    4.9504   28.9214    1.9435 C   0  0  0  0  0  0  0  0  0  0  0  0
    6.4448   28.9697    1.9282 C   0  0  0  0  0  0  0  0  0  0  0  0
    7.0179   28.4028    3.2324 C   0  0  0  0  0  0  0  0  0  0  0  0
   13.1625   20.5930    1.2506 C   0  0  0  0  0  0  0  0  0  0  0  0
   13.6739   21.5679    0.3785 N   0  0  0  0  0  0  0  0  0  0  0  0
   13.6564   21.2035   -0.9768 C   0  0  0  0  0  0  0  0  0  0  0  0
   14.4449   22.1310   -1.8810 C   0  0  0  0  0  0  0  0  0  0  0  0
   14.5088   23.4630   -1.3568 N   0  0  0  0  0  0  0  0  0  0  0  0
   14.6486   23.7054    0.0637 C   0  0  0  0  0  0  0  0  0  0  0  0
   15.9212   23.0531    0.6002 C   0  0  0  0  0  0  0  0  0  0  0  0
   14.6404   25.1512    0.4209 C   0  0  0  0  0  0  0  0  0  0  0  0
   13.4860   22.9356    0.7118 C   0  0  0  0  0  0  0  0  0  0  0  0
   14.4225   24.5731   -2.2317 C   0  0  0  0  0  0  0  0  0  0  0  0
   15.6038   24.9395   -2.8185 N   0  0  0  0  0  0  0  0  0  0  0  0
   15.6776   25.9743   -3.6585 C   0  0  0  0  0  0  0  0  0  0  0  0
   14.5420   26.6970   -3.9476 C   0  0  0  0  0  0  0  0  0  0  0  0
   13.3455   26.3473   -3.3705 C   0  0  0  0  0  0  0  0  0  0  0  0
   13.2945   25.2768   -2.5081 C   0  0  0  0  0  0  0  0  0  0  0  0
   12.0528   24.8713   -1.8866 C   0  0  0  0  0  0  0  0  0  0  0  0
   11.0656   24.5232   -1.3839 N   0  0  0  0  0  0  0  0  0  0  0  0
  1  2  1  0  0  0
  2  3  1  0  0  0
  3  4  2  0  0  0
  4  7  1  0  0  0
  7  9  1  0  0  0
  9 10  2  0  0  0
 10 11  1  0  0  0
 11 12  2  0  0  0
 12 13  1  0  0  0
 13 14  2  0  0  0
 12 15  1  0  0  0
 15 16  1  0  0  0
 16 17  1  0  0  0
 17 18  1  0  0  0
 18 19  1  0  0  0
 19 20  1  0  0  0
  4  5  1  0  0  0
  5  6  1  0  0  0
  6 21  1  0  0  0
 21 22  1  0  0  0
 22 23  1  0  0  0
 23 24  1  0  0  0
 24 25  1  0  0  0
 25 30  1  0  0  0
 30 31  2  0  0  0
 31 32  1  0  0  0
 32 33  2  0  0  0
 33 34  1  0  0  0
 34 35  2  0  0  0
 35 36  1  0  0  0
 36 37  3  0  0  0
 25 26  1  0  0  0
 26 27  1  0  0  0
 26 28  1  0  0  0
 26 29  1  0  0  0
  6  2  2  0  0  0
 29 22  1  0  0  0
 14  9  1  0  0  0
 20 15  1  0  0  0
 35 30  1  0  0  0
  7  8  1  0  0  0
M  END
> <minimizedAffinity>
-9.34041

> <CNNscore>
0.1529885978

> <CNNaffinity>
7.1749825478

> <CNN_VS>
1.0976904631

> <CNNaffinity_variance>
0.4555057585

$$$$
[H]c1nc(N2C([H])([H])C([H])([H])N(C([H])([H])c3sc(N([H])c4c([H])c([H])c(N5C([H])([H])C([H])([H])C([H])([H])C([H])([H])C5([H])[H])c([H])c4[H])nc3C([H])([H])[H])C([H])([H])C2(C([H])([H])[H])C([H])([H])[H])c(C#N)c([H])c1[H]


 37 41  0  0  0  0  0  0  0  0999 V2000
    9.5380   24.3181    2.0162 C   0  0  0  0  0  0  0  0  0  0  0  0
   10.6767   23.4472    1.5085 C   0  0  0  0  0  0  0  0  0  0  0  0
   11.7576   23.9247    1.0101 N   0  0  0  0  0  0  0  0  0  0  0  0
   12.7336   23.1595    0.5769 C   0  0  0  0  0  0  0  0  0  0  0  0
   12.0532   21.5837    0.9088 S   0  0  0  0  0  0  0  0  0  0  0  0
   10.5658   22.0768    1.5783 C   0  0  0  0  0  0  0  0  0  0  0  0
   13.9922   23.4277   -0.0004 N   0  0  0  0  0  0  0  0  0  0  0  0
   14.8415   23.0874    0.5388 H   0  0  0  0  0  0  0  0  0  0  0  0
   14.2139   24.0896   -1.2016 C   0  0  0  0  0  0  0  0  0  0  0  0
   15.3566   23.9996   -1.9450 C   0  0  0  0  0  0  0  0  0  0  0  0
   15.5157   24.6783   -3.1506 C   0  0  0  0  0  0  0  0  0  0  0  0
   14.5213   25.4935   -3.6770 C   0  0  0  0  0  0  0  0  0  0  0  0
   13.3726   25.5833   -2.9277 C   0  0  0  0  0  0  0  0  0  0  0  0
   13.2054   24.9194   -1.7403 C   0  0  0  0  0  0  0  0  0  0  0  0
   14.7243   26.1659   -4.8929 N   0  0  0  0  0  0  0  0  0  0  0  0
   15.2250   25.4167   -6.0410 C   0  0  0  0  0  0  0  0  0  0  0  0
   15.7525   26.3794   -7.0872 C   0  0  0  0  0  0  0  0  0  0  0  0
   16.5808   27.4316   -6.3791 C   0  0  0  0  0  0  0  0  0  0  0  0
   15.7924   28.2421   -5.4006 C   0  0  0  0  0  0  0  0  0  0  0  0
   14.4648   27.5500   -5.0702 C   0  0  0  0  0  0  0  0  0  0  0  0
    9.3848   21.3026    2.1018 C   0  0  0  0  0  0  0  0  0  0  0  0
    8.4367   20.9479    1.1283 N   0  0  0  0  0  0  0  0  0  0  0  0
    8.9478   20.1808    0.0699 C   0  0  0  0  0  0  0  0  0  0  0  0
    7.9985   20.0272   -1.1026 C   0  0  0  0  0  0  0  0  0  0  0  0
    6.6272   20.1129   -0.6961 N   0  0  0  0  0  0  0  0  0  0  0  0
    6.2055   21.0391    0.3337 C   0  0  0  0  0  0  0  0  0  0  0  0
    6.5483   22.4751   -0.0580 C   0  0  0  0  0  0  0  0  0  0  0  0
    4.7550   20.9433    0.6577 C   0  0  0  0  0  0  0  0  0  0  0  0
    7.0982   20.7175    1.5436 C   0  0  0  0  0  0  0  0  0  0  0  0
    5.6572   19.2733   -1.2955 C   0  0  0  0  0  0  0  0  0  0  0  0
    5.1487   19.7325   -2.4807 N   0  0  0  0  0  0  0  0  0  0  0  0
    4.2189   19.0521   -3.1548 C   0  0  0  0  0  0  0  0  0  0  0  0
    3.7538   17.8575   -2.6528 C   0  0  0  0  0  0  0  0  0  0  0  0
    4.2498   17.3773   -1.4652 C   0  0  0  0  0  0  0  0  0  0  0  0
    5.2078   18.0964   -0.7889 C   0  0  0  0  0  0  0  0  0  0  0  0
    5.7617   17.6209    0.4600 C   0  0  0  0  0  0  0  0  0  0  0  0
    6.1844   17.2290    1.4680 N   0  0  0  0  0  0  0  0  0  0  0  0
  1  2  1  0  0  0
  2  3  1  0  0  0
  3  4  2  0  0  0
  4  7  1  0  0  0
  7  9  1  0  0  0
  9 10  2  0  0  0
 10 11  1  0  0  0
 11 12  2  0  0  0
 12 13  1  0  0  0
 13 14  2  0  0  0
 12 15  1  0  0  0
 15 16  1  0  0  0
 16 17  1  0  0  0
 17 18  1  0  0  0
 18 19  1  0  0  0
 19 20  1  0  0  0
  4  5  1  0  0  0
  5  6  1  0  0  0
  6 21  1  0  0  0
 21 22  1  0  0  0
 22 23  1  0  0  0
 23 24  1  0  0  0
 24 25  1  0  0  0
 25 30  1  0  0  0
 30 31  2  0  0  0
 31 32  1  0  0  0
 32 33  2  0  0  0
 33 34  1  0  0  0
 34 35  2  0  0  0
 35 36  1  0  0  0
 36 37  3  0  0  0
 25 26  1  0  0  0
 26 27  1  0  0  0
 26 28  1  0  0  0
 26 29  1  0  0  0
  6  2  2  0  0  0
 29 22  1  0  0  0
 14  9  1  0  0  0
 20 15  1  0  0  0
 35 30  1  0  0  0
  7  8  1  0  0  0
M  END
> <minimizedAffinity>
-7.14609

> <CNNscore>
0.1477163732

> <CNNaffinity>
7.0285353661

> <CNN_VS>
1.0382297039

> <CNNaffinity_variance>
0.3100544512

$$$$
[H]c1nc(N2C([H])([H])C([H])([H])N(C([H])([H])c3sc(N([H])c4c([H])c([H])c(N5C([H])([H])C([H])([H])C([H])([H])C([H])([H])C5([H])[H])c([H])c4[H])nc3C([H])([H])[H])C([H])([H])C2(C([H])([H])[H])C([H])([H])[H])c(C#N)c([H])c1[H]


 37 41  0  0  0  0  0  0  0  0999 V2000
   10.8774   19.1185    4.8655 C   0  0  0  0  0  0  0  0  0  0  0  0
   11.2458   20.1269    3.7883 C   0  0  0  0  0  0  0  0  0  0  0  0
   12.0793   19.8755    2.8466 N   0  0  0  0  0  0  0  0  0  0  0  0
   12.3865   20.7565    1.9218 C   0  0  0  0  0  0  0  0  0  0  0  0
   11.3868   22.0957    2.4352 S   0  0  0  0  0  0  0  0  0  0  0  0
   10.6683   21.3765    3.8026 C   0  0  0  0  0  0  0  0  0  0  0  0
   13.2509   20.7308    0.8076 N   0  0  0  0  0  0  0  0  0  0  0  0
   13.7226   19.8029    0.5969 H   0  0  0  0  0  0  0  0  0  0  0  0
   13.5338   21.8026   -0.0299 C   0  0  0  0  0  0  0  0  0  0  0  0
   13.8570   21.6972   -1.3532 C   0  0  0  0  0  0  0  0  0  0  0  0
   14.1180   22.8115   -2.1466 C   0  0  0  0  0  0  0  0  0  0  0  0
   14.0674   24.1056   -1.6435 C   0  0  0  0  0  0  0  0  0  0  0  0
   13.7425   24.2099   -0.3122 C   0  0  0  0  0  0  0  0  0  0  0  0
   13.4835   23.1200    0.4776 C   0  0  0  0  0  0  0  0  0  0  0  0
   14.3440   25.2022   -2.4760 N   0  0  0  0  0  0  0  0  0  0  0  0
   13.2361   26.0164   -2.9656 C   0  0  0  0  0  0  0  0  0  0  0  0
   13.7005   26.8558   -4.1402 C   0  0  0  0  0  0  0  0  0  0  0  0
   14.5231   25.9692   -5.0523 C   0  0  0  0  0  0  0  0  0  0  0  0
   15.7506   25.4247   -4.3946 C   0  0  0  0  0  0  0  0  0  0  0  0
   15.6572   25.5683   -2.8710 C   0  0  0  0  0  0  0  0  0  0  0  0
    9.6860   21.8939    4.8203 C   0  0  0  0  0  0  0  0  0  0  0  0
    8.9158   22.9869    4.3906 N   0  0  0  0  0  0  0  0  0  0  0  0
    7.7007   22.6389    3.7804 C   0  0  0  0  0  0  0  0  0  0  0  0
    7.0021   23.7903    3.0833 C   0  0  0  0  0  0  0  0  0  0  0  0
    7.3271   25.0527    3.6780 N   0  0  0  0  0  0  0  0  0  0  0  0
    8.6616   25.3326    4.1647 C   0  0  0  0  0  0  0  0  0  0  0  0
    9.6861   25.1978    3.0399 C   0  0  0  0  0  0  0  0  0  0  0  0
    8.7909   26.6738    4.7991 C   0  0  0  0  0  0  0  0  0  0  0  0
    8.9723   24.1891    5.1446 C   0  0  0  0  0  0  0  0  0  0  0  0
    6.3310   26.0506    3.8100 C   0  0  0  0  0  0  0  0  0  0  0  0
    6.3007   26.9739    2.7997 N   0  0  0  0  0  0  0  0  0  0  0  0
    5.4221   27.9789    2.7949 C   0  0  0  0  0  0  0  0  0  0  0  0
    4.5200   28.0974    3.8281 C   0  0  0  0  0  0  0  0  0  0  0  0
    4.5319   27.1823    4.8525 C   0  0  0  0  0  0  0  0  0  0  0  0
    5.4468   26.1551    4.8351 C   0  0  0  0  0  0  0  0  0  0  0  0
    5.4862   25.1663    5.8903 C   0  0  0  0  0  0  0  0  0  0  0  0
    5.5425   24.3741    6.7374 N   0  0  0  0  0  0  0  0  0  0  0  0
  1  2  1  0  0  0
  2  3  1  0  0  0
  3  4  2  0  0  0
  4  7  1  0  0  0
  7  9  1  0  0  0
  9 10  2  0  0  0
 10 11  1  0  0  0
 11 12  2  0  0  0
 12 13  1  0  0  0
 13 14  2  0  0  0
 12 15  1  0  0  0
 15 16  1  0  0  0
 16 17  1  0  0  0
 17 18  1  0  0  0
 18 19  1  0  0  0
 19 20  1  0  0  0
  4  5  1  0  0  0
  5  6  1  0  0  0
  6 21  1  0  0  0
 21 22  1  0  0  0
 22 23  1  0  0  0
 23 24  1  0  0  0
 24 25  1  0  0  0
 25 30  1  0  0  0
 30 31  2  0  0  0
 31 32  1  0  0  0
 32 33  2  0  0  0
 33 34  1  0  0  0
 34 35  2  0  0  0
 35 36  1  0  0  0
 36 37  3  0  0  0
 25 26  1  0  0  0
 26 27  1  0  0  0
 26 28  1  0  0  0
 26 29  1  0  0  0
  6  2  2  0  0  0
 29 22  1  0  0  0
 14  9  1  0  0  0
 20 15  1  0  0  0
 35 30  1  0  0  0
  7  8  1  0  0  0
M  END
> <minimizedAffinity>
-8.95426

> <CNNscore>
0.1151987240

> <CNNaffinity>
6.7042021751

> <CNN_VS>
0.7723155618

> <CNNaffinity_variance>
0.7468312979

$$$$
[H]c1nc(N2C([H])([H])C([H])([H])N(C([H])([H])c3sc(N([H])c4c([H])c([H])c(N5C([H])([H])C([H])([H])C([H])([H])C([H])([H])C5([H])[H])c([H])c4[H])nc3C([H])([H])[H])C([H])([H])C2(C([H])([H])[H])C([H])([H])[H])c(C#N)c([H])c1[H]


 37 41  0  0  0  0  0  0  0  0999 V2000
   12.7318   20.4789    1.7268 C   0  0  0  0  0  0  0  0  0  0  0  0
   11.8801   21.7246    1.5376 C   0  0  0  0  0  0  0  0  0  0  0  0
   10.6094   21.7393    1.7102 N   0  0  0  0  0  0  0  0  0  0  0  0
    9.8869   22.8239    1.5445 C   0  0  0  0  0  0  0  0  0  0  0  0
   11.1398   23.9566    1.0934 S   0  0  0  0  0  0  0  0  0  0  0  0
   12.4798   22.9063    1.1648 C   0  0  0  0  0  0  0  0  0  0  0  0
    8.5089   23.0987    1.6672 N   0  0  0  0  0  0  0  0  0  0  0  0
    8.1674   24.0052    1.2318 H   0  0  0  0  0  0  0  0  0  0  0  0
    7.5700   22.2936    2.2999 C   0  0  0  0  0  0  0  0  0  0  0  0
    7.2529   22.3568    3.6273 C   0  0  0  0  0  0  0  0  0  0  0  0
    6.2913   21.5303    4.2031 C   0  0  0  0  0  0  0  0  0  0  0  0
    5.5905   20.5851    3.4641 C   0  0  0  0  0  0  0  0  0  0  0  0
    5.9110   20.5225    2.1292 C   0  0  0  0  0  0  0  0  0  0  0  0
    6.8554   21.3312    1.5523 C   0  0  0  0  0  0  0  0  0  0  0  0
    4.6332   19.7663    4.0846 N   0  0  0  0  0  0  0  0  0  0  0  0
    4.5173   19.7903    5.5393 C   0  0  0  0  0  0  0  0  0  0  0  0
    3.7480   18.5710    6.0096 C   0  0  0  0  0  0  0  0  0  0  0  0
    4.2738   17.3669    5.2556 C   0  0  0  0  0  0  0  0  0  0  0  0
    4.0733   17.4639    3.7770 C   0  0  0  0  0  0  0  0  0  0  0  0
    3.7601   18.9077    3.3670 C   0  0  0  0  0  0  0  0  0  0  0  0
   13.9453   23.1145    0.8873 C   0  0  0  0  0  0  0  0  0  0  0  0
   14.2233   23.9711   -0.1903 N   0  0  0  0  0  0  0  0  0  0  0  0
   15.5893   24.2097   -0.4072 C   0  0  0  0  0  0  0  0  0  0  0  0
   15.8775   25.3313   -1.3862 C   0  0  0  0  0  0  0  0  0  0  0  0
   14.8214   25.4932   -2.3409 N   0  0  0  0  0  0  0  0  0  0  0  0
   13.4336   25.3363   -1.9598 C   0  0  0  0  0  0  0  0  0  0  0  0
   13.0629   26.3207   -0.8524 C   0  0  0  0  0  0  0  0  0  0  0  0
   12.4863   25.4872   -3.0991 C   0  0  0  0  0  0  0  0  0  0  0  0
   13.3565   23.9424   -1.3150 C   0  0  0  0  0  0  0  0  0  0  0  0
   15.1267   25.8007   -3.6891 C   0  0  0  0  0  0  0  0  0  0  0  0
   15.2214   27.1373   -3.9697 N   0  0  0  0  0  0  0  0  0  0  0  0
   15.4933   27.5774   -5.2003 C   0  0  0  0  0  0  0  0  0  0  0  0
   15.6847   26.6712   -6.2190 C   0  0  0  0  0  0  0  0  0  0  0  0
   15.5945   25.3251   -5.9605 C   0  0  0  0  0  0  0  0  0  0  0  0
   15.3134   24.8959   -4.6841 C   0  0  0  0  0  0  0  0  0  0  0  0
   15.2186   23.4872   -4.3692 C   0  0  0  0  0  0  0  0  0  0  0  0
   15.1648   22.3529   -4.1266 N   0  0  0  0  0  0  0  0  0  0  0  0
  1  2  1  0  0  0
  2  3  1  0  0  0
  3  4  2  0  0  0
  4  7  1  0  0  0
  7  9  1  0  0  0
  9 10  2  0  0  0
 10 11  1  0  0  0
 11 12  2  0  0  0
 12 13  1  0  0  0
 13 14  2  0  0  0
 12 15  1  0  0  0
 15 16  1  0  0  0
 16 17  1  0  0  0
 17 18  1  0  0  0
 18 19  1  0  0  0
 19 20  1  0  0  0
  4  5  1  0  0  0
  5  6  1  0  0  0
  6 21  1  0  0  0
 21 22  1  0  0  0
 22 23  1  0  0  0
 23 24  1  0  0  0
 24 25  1  0  0  0
 25 30  1  0  0  0
 30 31  2  0  0  0
 31 32  1  0  0  0
 32 33  2  0  0  0
 33 34  1  0  0  0
 34 35  2  0  0  0
 35 36  1  0  0  0
 36 37  3  0  0  0
 25 26  1  0  0  0
 26 27  1  0  0  0
 26 28  1  0  0  0
 26 29  1  0  0  0
  6  2  2  0  0  0
 29 22  1  0  0  0
 14  9  1  0  0  0
 20 15  1  0  0  0
 35 30  1  0  0  0
  7  8  1  0  0  0
M  END
> <minimizedAffinity>
-5.70239

> <CNNscore>
0.1135325283

> <CNNaffinity>
7.0641174316

> <CNN_VS>
0.8020071387

> <CNNaffinity_variance>
0.0073830471

$$$$
[H]c1nc(N2C([H])([H])C([H])([H])N(C([H])([H])c3sc(N([H])c4c([H])c([H])c(N5C([H])([H])C([H])([H])C([H])([H])C([H])([H])C5([H])[H])c([H])c4[H])nc3C([H])([H])[H])C([H])([H])C2(C([H])([H])[H])C([H])([H])[H])c(C#N)c([H])c1[H]


 37 41  0  0  0  0  0  0  0  0999 V2000
   11.7972   19.8310    3.5722 C   0  0  0  0  0  0  0  0  0  0  0  0
   11.0495   21.1475    3.4275 C   0  0  0  0  0  0  0  0  0  0  0  0
   10.4073   21.6997    4.3905 N   0  0  0  0  0  0  0  0  0  0  0  0
    9.7672   22.8384    4.2509 C   0  0  0  0  0  0  0  0  0  0  0  0
   10.1075   23.1730    2.5690 S   0  0  0  0  0  0  0  0  0  0  0  0
   11.0490   21.7977    2.2142 C   0  0  0  0  0  0  0  0  0  0  0  0
    9.0038   23.6353    5.1293 N   0  0  0  0  0  0  0  0  0  0  0  0
    9.0456   23.3769    6.1585 H   0  0  0  0  0  0  0  0  0  0  0  0
    8.2122   24.7184    4.7681 C   0  0  0  0  0  0  0  0  0  0  0  0
    6.8461   24.7245    4.7720 C   0  0  0  0  0  0  0  0  0  0  0  0
    6.1057   25.8475    4.4113 C   0  0  0  0  0  0  0  0  0  0  0  0
    6.7090   27.0372    4.0224 C   0  0  0  0  0  0  0  0  0  0  0  0
    8.0833   27.0292    4.0186 C   0  0  0  0  0  0  0  0  0  0  0  0
    8.8216   25.9298    4.3721 C   0  0  0  0  0  0  0  0  0  0  0  0
    5.9257   28.1449    3.6598 N   0  0  0  0  0  0  0  0  0  0  0  0
    4.5962   27.9192    3.1017 C   0  0  0  0  0  0  0  0  0  0  0  0
    4.1112   29.1808    2.4139 C   0  0  0  0  0  0  0  0  0  0  0  0
    5.2558   29.7336    1.5899 C   0  0  0  0  0  0  0  0  0  0  0  0
    6.4437   30.1165    2.4134 C   0  0  0  0  0  0  0  0  0  0  0  0
    6.3597   29.4879    3.8093 C   0  0  0  0  0  0  0  0  0  0  0  0
   11.7138   21.3250    0.9482 C   0  0  0  0  0  0  0  0  0  0  0  0
   12.4774   22.3002    0.2862 N   0  0  0  0  0  0  0  0  0  0  0  0
   13.8642   22.0911    0.3426 C   0  0  0  0  0  0  0  0  0  0  0  0
   14.6912   23.2697   -0.1333 C   0  0  0  0  0  0  0  0  0  0  0  0
   13.9869   24.0642   -1.0955 N   0  0  0  0  0  0  0  0  0  0  0  0
   12.5647   24.3060   -0.9736 C   0  0  0  0  0  0  0  0  0  0  0  0
   12.2452   24.9922    0.3531 C   0  0  0  0  0  0  0  0  0  0  0  0
   12.0020   25.1056   -2.0970 C   0  0  0  0  0  0  0  0  0  0  0  0
   11.9334   22.9073   -0.8768 C   0  0  0  0  0  0  0  0  0  0  0  0
   14.6799   24.6198   -2.1984 C   0  0  0  0  0  0  0  0  0  0  0  0
   14.8889   25.9709   -2.1284 N   0  0  0  0  0  0  0  0  0  0  0  0
   15.5194   26.6338   -3.1005 C   0  0  0  0  0  0  0  0  0  0  0  0
   15.9743   25.9493   -4.2050 C   0  0  0  0  0  0  0  0  0  0  0  0
   15.7760   24.5931   -4.2966 C   0  0  0  0  0  0  0  0  0  0  0  0
   15.1236   23.9320   -3.2818 C   0  0  0  0  0  0  0  0  0  0  0  0
   14.9026   22.5035   -3.3363 C   0  0  0  0  0  0  0  0  0  0  0  0
   14.7318   21.3569   -3.4039 N   0  0  0  0  0  0  0  0  0  0  0  0
  1  2  1  0  0  0
  2  3  1  0  0  0
  3  4  2  0  0  0
  4  7  1  0  0  0
  7  9  1  0  0  0
  9 10  2  0  0  0
 10 11  1  0  0  0
 11 12  2  0  0  0
 12 13  1  0  0  0
 13 14  2  0  0  0
 12 15  1  0  0  0
 15 16  1  0  0  0
 16 17  1  0  0  0
 17 18  1  0  0  0
 18 19  1  0  0  0
 19 20  1  0  0  0
  4  5  1  0  0  0
  5  6  1  0  0  0
  6 21  1  0  0  0
 21 22  1  0  0  0
 22 23  1  0  0  0
 23 24  1  0  0  0
 24 25  1  0  0  0
 25 30  1  0  0  0
 30 31  2  0  0  0
 31 32  1  0  0  0
 32 33  2  0  0  0
 33 34  1  0  0  0
 34 35  2  0  0  0
 35 36  1  0  0  0
 36 37  3  0  0  0
 25 26  1  0  0  0
 26 27  1  0  0  0
 26 28  1  0  0  0
 26 29  1  0  0  0
  6  2  2  0  0  0
 29 22  1  0  0  0
 14  9  1  0  0  0
 20 15  1  0  0  0
 35 30  1  0  0  0
  7  8  1  0  0  0
M  END
> <minimizedAffinity>
-8.79663

> <CNNscore>
0.1078344956

> <CNNaffinity>
7.1207313538

> <CNN_VS>
0.7678604722

> <CNNaffinity_variance>
0.1986784339

$$$$
[H]c1c([H])c(N2C(=O)C(C([H])([H])[H])=C(C([H])([H])N3C([H])([H])C([H])([H])N(c4c([H])c([H])c5c([H])c([H])c([H])c([H])c5c4[H])C([H])([H])C3([H])[H])C2=O)c([H])c([H])c1Cl


 32 36  0  0  0  0  0  0  0  0999 V2000
   12.5287   22.4592    1.1346 C   0  0  0  0  0  0  0  0  0  0  0  0
   13.6453   20.3060   -0.8878 C   0  0  0  0  0  0  0  0  0  0  0  0
   13.6984   21.8005   -1.0055 C   0  0  0  0  0  0  0  0  0  0  0  0
   13.2353   22.6857   -0.1676 C   0  0  0  0  0  0  0  0  0  0  0  0
   13.5315   24.0368   -0.6991 C   0  0  0  0  0  0  0  0  0  0  0  0
   13.2090   25.0976   -0.1147 O   0  0  0  0  0  0  0  0  0  0  0  0
   14.2240   23.8955   -1.9460 N   0  0  0  0  0  0  0  0  0  0  0  0
   14.3290   22.4933   -2.1397 C   0  0  0  0  0  0  0  0  0  0  0  0
   14.8792   21.9522   -3.1325 O   0  0  0  0  0  0  0  0  0  0  0  0
   14.6830   24.9780   -2.7317 C   0  0  0  0  0  0  0  0  0  0  0  0
   13.8463   25.5737   -3.6356 C   0  0  0  0  0  0  0  0  0  0  0  0
   14.2889   26.6352   -4.4141 C   0  0  0  0  0  0  0  0  0  0  0  0
   15.5979   27.0879   -4.2652 C   0  0  0  0  0  0  0  0  0  0  0  0
   16.1400   28.4299   -5.2566 Cl  0  0  0  0  0  0  0  0  0  0  0  0
   16.4457   26.4946   -3.3586 C   0  0  0  0  0  0  0  0  0  0  0  0
   15.9624   25.4327   -2.5957 C   0  0  0  0  0  0  0  0  0  0  0  0
   11.2817   21.7383    0.9045 N   0  0  0  0  0  0  0  0  0  0  0  0
   10.2584   22.5547    0.3304 C   0  0  0  0  0  0  0  0  0  0  0  0
    9.5831   23.5251    1.2063 C   0  0  0  0  0  0  0  0  0  0  0  0
    9.6166   23.2293    2.6240 N   0  0  0  0  0  0  0  0  0  0  0  0
   10.3771   22.1521    3.1792 C   0  0  0  0  0  0  0  0  0  0  0  0
   10.8093   21.1442    2.1550 C   0  0  0  0  0  0  0  0  0  0  0  0
    8.8479   24.0879    3.4648 C   0  0  0  0  0  0  0  0  0  0  0  0
    8.8194   23.9989    4.8398 C   0  0  0  0  0  0  0  0  0  0  0  0
    8.0528   24.8778    5.6090 C   0  0  0  0  0  0  0  0  0  0  0  0
    7.2905   25.8750    5.0168 C   0  0  0  0  0  0  0  0  0  0  0  0
    6.5194   26.7697    5.7634 C   0  0  0  0  0  0  0  0  0  0  0  0
    5.7779   27.7507    5.1278 C   0  0  0  0  0  0  0  0  0  0  0  0
    5.8076   27.8355    3.7514 C   0  0  0  0  0  0  0  0  0  0  0  0
    6.5610   26.9616    3.0137 C   0  0  0  0  0  0  0  0  0  0  0  0
    7.3152   25.9656    3.6533 C   0  0  0  0  0  0  0  0  0  0  0  0
    8.0659   25.1049    2.9088 C   0  0  0  0  0  0  0  0  0  0  0  0
  2  3  1  0  0  0
  3  4  2  0  0  0
  4  1  1  0  0  0
  1 17  1  0  0  0
 17 18  1  0  0  0
 18 19  1  0  0  0
 19 20  1  0  0  0
 20 21  1  0  0  0
 21 22  1  0  0  0
 20 23  1  0  0  0
 23 24  2  0  0  0
 24 25  1  0  0  0
 25 26  2  0  0  0
 26 27  1  0  0  0
 27 28  2  0  0  0
 28 29  1  0  0  0
 29 30  2  0  0  0
 30 31  1  0  0  0
 31 32  2  0  0  0
  4  5  1  0  0  0
  5  6  2  0  0  0
  5  7  1  0  0  0
  7 10  1  0  0  0
 10 11  2  0  0  0
 11 12  1  0  0  0
 12 13  2  0  0  0
 13 14  1  0  0  0
 13 15  1  0  0  0
 15 16  2  0  0  0
  7  8  1  0  0  0
  8  9  2  0  0  0
  8  3  1  0  0  0
 22 17  1  0  0  0
 32 23  1  0  0  0
 16 10  1  0  0  0
 31 26  1  0  0  0
M  END
> <minimizedAffinity>
-10.77600

> <CNNscore>
0.4602596164

> <CNNaffinity>
6.9478597641

> <CNN_VS>
3.1978192329

> <CNNaffinity_variance>
0.0896528214

$$$$
[H]c1c([H])c(N2C(=O)C(C([H])([H])[H])=C(C([H])([H])N3C([H])([H])C([H])([H])N(c4c([H])c([H])c5c([H])c([H])c([H])c([H])c5c4[H])C([H])([H])C3([H])[H])C2=O)c([H])c([H])c1Cl


 32 36  0  0  0  0  0  0  0  0999 V2000
   12.3983   22.4960    1.1740 C   0  0  0  0  0  0  0  0  0  0  0  0
   13.6011   20.3168   -0.7696 C   0  0  0  0  0  0  0  0  0  0  0  0
   13.6355   21.8090   -0.9187 C   0  0  0  0  0  0  0  0  0  0  0  0
   13.1368   22.7051   -0.1134 C   0  0  0  0  0  0  0  0  0  0  0  0
   13.4277   24.0486   -0.6663 C   0  0  0  0  0  0  0  0  0  0  0  0
   13.0739   25.1169   -0.1144 O   0  0  0  0  0  0  0  0  0  0  0  0
   14.1559   23.8910   -1.8907 N   0  0  0  0  0  0  0  0  0  0  0  0
   14.2866   22.4866   -2.0505 C   0  0  0  0  0  0  0  0  0  0  0  0
   14.8716   21.9326   -3.0160 O   0  0  0  0  0  0  0  0  0  0  0  0
   14.6204   24.9630   -2.6874 C   0  0  0  0  0  0  0  0  0  0  0  0
   13.7747   25.5810   -3.5676 C   0  0  0  0  0  0  0  0  0  0  0  0
   14.2224   26.6325   -4.3567 C   0  0  0  0  0  0  0  0  0  0  0  0
   15.5458   27.0521   -4.2429 C   0  0  0  0  0  0  0  0  0  0  0  0
   16.0942   28.3819   -5.2472 Cl  0  0  0  0  0  0  0  0  0  0  0  0
   16.4028   26.4363   -3.3603 C   0  0  0  0  0  0  0  0  0  0  0  0
   15.9140   25.3855   -2.5857 C   0  0  0  0  0  0  0  0  0  0  0  0
   11.1082   21.8686    0.9106 N   0  0  0  0  0  0  0  0  0  0  0  0
   10.1831   22.7395    0.2554 C   0  0  0  0  0  0  0  0  0  0  0  0
    9.5503   23.7973    1.0587 C   0  0  0  0  0  0  0  0  0  0  0  0
    9.4939   23.5605    2.4867 N   0  0  0  0  0  0  0  0  0  0  0  0
   10.1368   22.4501    3.1200 C   0  0  0  0  0  0  0  0  0  0  0  0
   10.5313   21.3682    2.1582 C   0  0  0  0  0  0  0  0  0  0  0  0
    8.7606   24.5131    3.2546 C   0  0  0  0  0  0  0  0  0  0  0  0
    9.1216   25.8360    3.3927 C   0  0  0  0  0  0  0  0  0  0  0  0
    8.3542   26.7229    4.1518 C   0  0  0  0  0  0  0  0  0  0  0  0
    7.1980   26.3050    4.7958 C   0  0  0  0  0  0  0  0  0  0  0  0
    6.4103   27.1729    5.5565 C   0  0  0  0  0  0  0  0  0  0  0  0
    5.2629   26.7104    6.1777 C   0  0  0  0  0  0  0  0  0  0  0  0
    4.9059   25.3854    6.0385 C   0  0  0  0  0  0  0  0  0  0  0  0
    5.6736   24.5294    5.2947 C   0  0  0  0  0  0  0  0  0  0  0  0
    6.8375   24.9934    4.6623 C   0  0  0  0  0  0  0  0  0  0  0  0
    7.5908   24.1333    3.9196 C   0  0  0  0  0  0  0  0  0  0  0  0
  2  3  1  0  0  0
  3  4  2  0  0  0
  4  1  1  0  0  0
  1 17  1  0  0  0
 17 18  1  0  0  0
 18 19  1  0  0  0
 19 20  1  0  0  0
 20 21  1  0  0  0
 21 22  1  0  0  0
 20 23  1  0  0  0
 23 24  2  0  0  0
 24 25  1  0  0  0
 25 26  2  0  0  0
 26 27  1  0  0  0
 27 28  2  0  0  0
 28 29  1  0  0  0
 29 30  2  0  0  0
 30 31  1  0  0  0
 31 32  2  0  0  0
  4  5  1  0  0  0
  5  6  2  0  0  0
  5  7  1  0  0  0
  7 10  1  0  0  0
 10 11  2  0  0  0
 11 12  1  0  0  0
 12 13  2  0  0  0
 13 14  1  0  0  0
 13 15  1  0  0  0
 15 16  2  0  0  0
  7  8  1  0  0  0
  8  9  2  0  0  0
  8  3  1  0  0  0
 22 17  1  0  0  0
 32 23  1  0  0  0
 16 10  1  0  0  0
 31 26  1  0  0  0
M  END
> <minimizedAffinity>
-10.50932

> <CNNscore>
0.4575453997

> <CNNaffinity>
6.8512916565

> <CNN_VS>
3.1347770691

> <CNNaffinity_variance>
0.1221880913

$$$$
[H]c1c([H])c(N2C(=O)C(C([H])([H])[H])=C(C([H])([H])N3C([H])([H])C([H])([H])N(c4c([H])c([H])c5c([H])c([H])c([H])c([H])c5c4[H])C([H])([H])C3([H])[H])C2=O)c([H])c([H])c1Cl


 32 36  0  0  0  0  0  0  0  0999 V2000
   14.9998   27.7322   -4.9032 C   0  0  0  0  0  0  0  0  0  0  0  0
   15.5128   24.7123   -5.6718 C   0  0  0  0  0  0  0  0  0  0  0  0
   14.6555   25.2523   -4.5656 C   0  0  0  0  0  0  0  0  0  0  0  0
   14.4472   26.5006   -4.2518 C   0  0  0  0  0  0  0  0  0  0  0  0
   13.5182   26.5471   -3.0984 C   0  0  0  0  0  0  0  0  0  0  0  0
   13.1268   27.6121   -2.5660 O   0  0  0  0  0  0  0  0  0  0  0  0
   13.1742   25.2041   -2.7344 N   0  0  0  0  0  0  0  0  0  0  0  0
   13.8873   24.3909   -3.6536 C   0  0  0  0  0  0  0  0  0  0  0  0
   13.8518   23.1340   -3.6666 O   0  0  0  0  0  0  0  0  0  0  0  0
   12.2901   24.8627   -1.6849 C   0  0  0  0  0  0  0  0  0  0  0  0
   11.1323   24.1857   -1.9555 C   0  0  0  0  0  0  0  0  0  0  0  0
   10.2560   23.8488   -0.9320 C   0  0  0  0  0  0  0  0  0  0  0  0
   10.5687   24.2093    0.3767 C   0  0  0  0  0  0  0  0  0  0  0  0
    9.4505   23.7755    1.6570 Cl  0  0  0  0  0  0  0  0  0  0  0  0
   11.7308   24.8900    0.6575 C   0  0  0  0  0  0  0  0  0  0  0  0
   12.5840   25.2084   -0.3979 C   0  0  0  0  0  0  0  0  0  0  0  0
   16.4169   27.8687   -4.5860 N   0  0  0  0  0  0  0  0  0  0  0  0
   17.1500   26.6530   -4.7534 C   0  0  0  0  0  0  0  0  0  0  0  0
   16.9814   25.6047   -3.7349 C   0  0  0  0  0  0  0  0  0  0  0  0
   16.5371   26.0536   -2.4312 N   0  0  0  0  0  0  0  0  0  0  0  0
   16.1361   27.4008   -2.1641 C   0  0  0  0  0  0  0  0  0  0  0  0
   16.5779   28.3697   -3.2211 C   0  0  0  0  0  0  0  0  0  0  0  0
   16.5050   25.0660   -1.4023 C   0  0  0  0  0  0  0  0  0  0  0  0
   17.2632   25.1237   -0.2528 C   0  0  0  0  0  0  0  0  0  0  0  0
   17.1788   24.1281    0.7237 C   0  0  0  0  0  0  0  0  0  0  0  0
   16.3273   23.0426    0.5730 C   0  0  0  0  0  0  0  0  0  0  0  0
   16.2205   22.0365    1.5368 C   0  0  0  0  0  0  0  0  0  0  0  0
   15.3539   20.9745    1.3437 C   0  0  0  0  0  0  0  0  0  0  0  0
   14.5981   20.9194    0.1912 C   0  0  0  0  0  0  0  0  0  0  0  0
   14.6982   21.9020   -0.7575 C   0  0  0  0  0  0  0  0  0  0  0  0
   15.5748   22.9813   -0.5663 C   0  0  0  0  0  0  0  0  0  0  0  0
   15.6617   23.9565   -1.5150 C   0  0  0  0  0  0  0  0  0  0  0  0
  2  3  1  0  0  0
  3  4  2  0  0  0
  4  1  1  0  0  0
  1 17  1  0  0  0
 17 18  1  0  0  0
 18 19  1  0  0  0
 19 20  1  0  0  0
 20 21  1  0  0  0
 21 22  1  0  0  0
 20 23  1  0  0  0
 23 24  2  0  0  0
 24 25  1  0  0  0
 25 26  2  0  0  0
 26 27  1  0  0  0
 27 28  2  0  0  0
 28 29  1  0  0  0
 29 30  2  0  0  0
 30 31  1  0  0  0
 31 32  2  0  0  0
  4  5  1  0  0  0
  5  6  2  0  0  0
  5  7  1  0  0  0
  7 10  1  0  0  0
 10 11  2  0  0  0
 11 12  1  0  0  0
 12 13  2  0  0  0
 13 14  1  0  0  0
 13 15  1  0  0  0
 15 16  2  0  0  0
  7  8  1  0  0  0
  8  9  2  0  0  0
  8  3  1  0  0  0
 22 17  1  0  0  0
 32 23  1  0  0  0
 16 10  1  0  0  0
 31 26  1  0  0  0
M  END
> <minimizedAffinity>
4.19754

> <CNNscore>
0.4563328624

> <CNNaffinity>
7.4979844093

> <CNN_VS>
3.4215767384

> <CNNaffinity_variance>
0.3347910047

$$$$
[H]c1c([H])c(N2C(=O)C(C([H])([H])[H])=C(C([H])([H])N3C([H])([H])C([H])([H])N(c4c([H])c([H])c5c([H])c([H])c([H])c([H])c5c4[H])C([H])([H])C3([H])[H])C2=O)c([H])c([H])c1Cl


 32 36  0  0  0  0  0  0  0  0999 V2000
   14.5646   27.1556   -6.0174 C   0  0  0  0  0  0  0  0  0  0  0  0
   12.1882   28.1393   -4.1849 C   0  0  0  0  0  0  0  0  0  0  0  0
   12.9355   26.8408   -4.1124 C   0  0  0  0  0  0  0  0  0  0  0  0
   13.9161   26.4388   -4.8719 C   0  0  0  0  0  0  0  0  0  0  0  0
   14.3452   25.0961   -4.4151 C   0  0  0  0  0  0  0  0  0  0  0  0
   15.2729   24.4453   -4.9507 O   0  0  0  0  0  0  0  0  0  0  0  0
   13.5328   24.7122   -3.2985 N   0  0  0  0  0  0  0  0  0  0  0  0
   12.6478   25.8054   -3.1077 C   0  0  0  0  0  0  0  0  0  0  0  0
   11.7652   25.8576   -2.2136 O   0  0  0  0  0  0  0  0  0  0  0  0
   13.6717   23.4959   -2.5906 C   0  0  0  0  0  0  0  0  0  0  0  0
   14.7267   22.6654   -2.8531 C   0  0  0  0  0  0  0  0  0  0  0  0
   14.8698   21.4672   -2.1655 C   0  0  0  0  0  0  0  0  0  0  0  0
   13.9247   21.1185   -1.2034 C   0  0  0  0  0  0  0  0  0  0  0  0
   14.1213   19.6016   -0.3444 Cl  0  0  0  0  0  0  0  0  0  0  0  0
   12.8609   21.9480   -0.9332 C   0  0  0  0  0  0  0  0  0  0  0  0
   12.7540   23.1420   -1.6446 C   0  0  0  0  0  0  0  0  0  0  0  0
   15.5508   28.1055   -5.5149 N   0  0  0  0  0  0  0  0  0  0  0  0
   16.8801   27.5801   -5.4992 C   0  0  0  0  0  0  0  0  0  0  0  0
   17.2210   26.6081   -4.4485 C   0  0  0  0  0  0  0  0  0  0  0  0
   16.4066   26.6574   -3.2515 N   0  0  0  0  0  0  0  0  0  0  0  0
   15.2451   27.4840   -3.1308 C   0  0  0  0  0  0  0  0  0  0  0  0
   15.1725   28.5580   -4.1762 C   0  0  0  0  0  0  0  0  0  0  0  0
   16.8171   25.8156   -2.1755 C   0  0  0  0  0  0  0  0  0  0  0  0
   18.1305   25.5055   -1.8955 C   0  0  0  0  0  0  0  0  0  0  0  0
   18.4688   24.6819   -0.8189 C   0  0  0  0  0  0  0  0  0  0  0  0
   17.4941   24.1447    0.0102 C   0  0  0  0  0  0  0  0  0  0  0  0
   17.8061   23.3226    1.0962 C   0  0  0  0  0  0  0  0  0  0  0  0
   16.7991   22.8129    1.8976 C   0  0  0  0  0  0  0  0  0  0  0  0
   15.4858   23.1241    1.6131 C   0  0  0  0  0  0  0  0  0  0  0  0
   15.1730   23.9290    0.5501 C   0  0  0  0  0  0  0  0  0  0  0  0
   16.1904   24.4489   -0.2650 C   0  0  0  0  0  0  0  0  0  0  0  0
   15.8673   25.2537   -1.3170 C   0  0  0  0  0  0  0  0  0  0  0  0
  2  3  1  0  0  0
  3  4  2  0  0  0
  4  1  1  0  0  0
  1 17  1  0  0  0
 17 18  1  0  0  0
 18 19  1  0  0  0
 19 20  1  0  0  0
 20 21  1  0  0  0
 21 22  1  0  0  0
 20 23  1  0  0  0
 23 24  2  0  0  0
 24 25  1  0  0  0
 25 26  2  0  0  0
 26 27  1  0  0  0
 27 28  2  0  0  0
 28 29  1  0  0  0
 29 30  2  0  0  0
 30 31  1  0  0  0
 31 32  2  0  0  0
  4  5  1  0  0  0
  5  6  2  0  0  0
  5  7  1  0  0  0
  7 10  1  0  0  0
 10 11  2  0  0  0
 11 12  1  0  0  0
 12 13  2  0  0  0
 13 14  1  0  0  0
 13 15  1  0  0  0
 15 16  2  0  0  0
  7  8  1  0  0  0
  8  9  2  0  0  0
  8  3  1  0  0  0
 22 17  1  0  0  0
 32 23  1  0  0  0
 16 10  1  0  0  0
 31 26  1  0  0  0
M  END
> <minimizedAffinity>
10.38607

> <CNNscore>
0.4554832578

> <CNNaffinity>
7.4276046753

> <CNN_VS>
3.3831496239

> <CNNaffinity_variance>
0.8181017041

$$$$
[H]c1c([H])c(N2C(=O)C(C([H])([H])[H])=C(C([H])([H])N3C([H])([H])C([H])([H])N(c4c([H])c([H])c5c([H])c([H])c([H])c([H])c5c4[H])C([H])([H])C3([H])[H])C2=O)c([H])c([H])c1Cl


 32 36  0  0  0  0  0  0  0  0999 V2000
   11.8937   22.8185    1.3308 C   0  0  0  0  0  0  0  0  0  0  0  0
   13.1974   20.4878   -0.3549 C   0  0  0  0  0  0  0  0  0  0  0  0
   13.2610   21.9639   -0.6140 C   0  0  0  0  0  0  0  0  0  0  0  0
   12.7205   22.9228    0.0850 C   0  0  0  0  0  0  0  0  0  0  0  0
   13.0654   24.2178   -0.5470 C   0  0  0  0  0  0  0  0  0  0  0  0
   12.6888   25.3279   -0.1032 O   0  0  0  0  0  0  0  0  0  0  0  0
   13.8729   23.9614   -1.7030 N   0  0  0  0  0  0  0  0  0  0  0  0
   13.9961   22.5479   -1.7465 C   0  0  0  0  0  0  0  0  0  0  0  0
   14.6380   21.9172   -2.6248 O   0  0  0  0  0  0  0  0  0  0  0  0
   14.4041   24.9657   -2.5449 C   0  0  0  0  0  0  0  0  0  0  0  0
   15.7360   25.2740   -2.4900 C   0  0  0  0  0  0  0  0  0  0  0  0
   16.2664   26.2611   -3.3104 C   0  0  0  0  0  0  0  0  0  0  0  0
   15.4255   26.9366   -4.1919 C   0  0  0  0  0  0  0  0  0  0  0  0
   16.1125   28.1803   -5.2209 Cl  0  0  0  0  0  0  0  0  0  0  0  0
   14.0852   26.6328   -4.2535 C   0  0  0  0  0  0  0  0  0  0  0  0
   13.5924   25.6350   -3.4141 C   0  0  0  0  0  0  0  0  0  0  0  0
   10.7159   21.9962    1.0782 N   0  0  0  0  0  0  0  0  0  0  0  0
    9.7116   22.6715    0.3175 C   0  0  0  0  0  0  0  0  0  0  0  0
    8.9025   23.6917    1.0025 C   0  0  0  0  0  0  0  0  0  0  0  0
    8.8123   23.5666    2.4429 N   0  0  0  0  0  0  0  0  0  0  0  0
    9.5712   22.6134    3.1930 C   0  0  0  0  0  0  0  0  0  0  0  0
   10.1554   21.5230    2.3438 C   0  0  0  0  0  0  0  0  0  0  0  0
    7.9198   24.4659    3.0985 C   0  0  0  0  0  0  0  0  0  0  0  0
    7.0472   24.0954    4.0989 C   0  0  0  0  0  0  0  0  0  0  0  0
    6.2043   25.0273    4.7095 C   0  0  0  0  0  0  0  0  0  0  0  0
    6.2140   26.3627    4.3315 C   0  0  0  0  0  0  0  0  0  0  0  0
    5.3850   27.3153    4.9296 C   0  0  0  0  0  0  0  0  0  0  0  0
    5.4331   28.6371    4.5212 C   0  0  0  0  0  0  0  0  0  0  0  0
    6.3065   29.0036    3.5185 C   0  0  0  0  0  0  0  0  0  0  0  0
    7.1215   28.0749    2.9279 C   0  0  0  0  0  0  0  0  0  0  0  0
    7.0772   26.7336    3.3388 C   0  0  0  0  0  0  0  0  0  0  0  0
    7.8974   25.8191    2.7476 C   0  0  0  0  0  0  0  0  0  0  0  0
  2  3  1  0  0  0
  3  4  2  0  0  0
  4  1  1  0  0  0
  1 17  1  0  0  0
 17 18  1  0  0  0
 18 19  1  0  0  0
 19 20  1  0  0  0
 20 21  1  0  0  0
 21 22  1  0  0  0
 20 23  1  0  0  0
 23 24  2  0  0  0
 24 25  1  0  0  0
 25 26  2  0  0  0
 26 27  1  0  0  0
 27 28  2  0  0  0
 28 29  1  0  0  0
 29 30  2  0  0  0
 30 31  1  0  0  0
 31 32  2  0  0  0
  4  5  1  0  0  0
  5  6  2  0  0  0
  5  7  1  0  0  0
  7 10  1  0  0  0
 10 11  2  0  0  0
 11 12  1  0  0  0
 12 13  2  0  0  0
 13 14  1  0  0  0
 13 15  1  0  0  0
 15 16  2  0  0  0
  7  8  1  0  0  0
  8  9  2  0  0  0
  8  3  1  0  0  0
 22 17  1  0  0  0
 32 23  1  0  0  0
 16 10  1  0  0  0
 31 26  1  0  0  0
M  END
> <minimizedAffinity>
-11.05619

> <CNNscore>
0.4391338527

> <CNNaffinity>
6.7147369385

> <CNN_VS>
2.9486682415

> <CNNaffinity_variance>
0.3079414964

$$$$
[H]c1c([H])c(N2C(=O)C(C([H])([H])[H])=C(C([H])([H])N3C([H])([H])C([H])([H])N(c4c([H])c([H])c5c([H])c([H])c([H])c([H])c5c4[H])C([H])([H])C3([H])[H])C2=O)c([H])c([H])c1Cl


 32 36  0  0  0  0  0  0  0  0999 V2000
   10.5130   23.1349    0.6660 C   0  0  0  0  0  0  0  0  0  0  0  0
   11.7902   20.2844    0.2005 C   0  0  0  0  0  0  0  0  0  0  0  0
   12.4115   21.6275   -0.0449 C   0  0  0  0  0  0  0  0  0  0  0  0
   11.8797   22.8022    0.1485 C   0  0  0  0  0  0  0  0  0  0  0  0
   12.8749   23.8359   -0.2210 C   0  0  0  0  0  0  0  0  0  0  0  0
   12.6565   25.0676   -0.1434 O   0  0  0  0  0  0  0  0  0  0  0  0
   14.0723   23.1813   -0.6594 N   0  0  0  0  0  0  0  0  0  0  0  0
   13.7829   21.7960   -0.5499 C   0  0  0  0  0  0  0  0  0  0  0  0
   14.5883   20.8763   -0.8441 O   0  0  0  0  0  0  0  0  0  0  0  0
   15.2450   23.8547   -1.0727 C   0  0  0  0  0  0  0  0  0  0  0  0
   16.0888   24.3978   -0.1427 C   0  0  0  0  0  0  0  0  0  0  0  0
   17.2412   25.0639   -0.5388 C   0  0  0  0  0  0  0  0  0  0  0  0
   17.5296   25.1743   -1.8972 C   0  0  0  0  0  0  0  0  0  0  0  0
   18.9897   26.0187   -2.3796 Cl  0  0  0  0  0  0  0  0  0  0  0  0
   16.6867   24.6310   -2.8389 C   0  0  0  0  0  0  0  0  0  0  0  0
   15.5408   23.9695   -2.4000 C   0  0  0  0  0  0  0  0  0  0  0  0
    9.8004   21.9099    1.0109 N   0  0  0  0  0  0  0  0  0  0  0  0
    8.4081   21.9604    0.6911 C   0  0  0  0  0  0  0  0  0  0  0  0
    7.5333   22.7623    1.5607 C   0  0  0  0  0  0  0  0  0  0  0  0
    8.0145   22.9882    2.9083 N   0  0  0  0  0  0  0  0  0  0  0  0
    9.3190   22.5976    3.3473 C   0  0  0  0  0  0  0  0  0  0  0  0
    9.9799   21.6099    2.4314 C   0  0  0  0  0  0  0  0  0  0  0  0
    7.1123   23.6441    3.7976 C   0  0  0  0  0  0  0  0  0  0  0  0
    6.4103   23.0040    4.7961 C   0  0  0  0  0  0  0  0  0  0  0  0
    5.5481   23.7057    5.6423 C   0  0  0  0  0  0  0  0  0  0  0  0
    5.3659   25.0751    5.5093 C   0  0  0  0  0  0  0  0  0  0  0  0
    4.5136   25.8009    6.3456 C   0  0  0  0  0  0  0  0  0  0  0  0
    4.3672   27.1669    6.1767 C   0  0  0  0  0  0  0  0  0  0  0  0
    5.0701   27.8036    5.1752 C   0  0  0  0  0  0  0  0  0  0  0  0
    5.9068   27.0982    4.3518 C   0  0  0  0  0  0  0  0  0  0  0  0
    6.0594   25.7131    4.5194 C   0  0  0  0  0  0  0  0  0  0  0  0
    6.8995   25.0224    3.6974 C   0  0  0  0  0  0  0  0  0  0  0  0
  2  3  1  0  0  0
  3  4  2  0  0  0
  4  1  1  0  0  0
  1 17  1  0  0  0
 17 18  1  0  0  0
 18 19  1  0  0  0
 19 20  1  0  0  0
 20 21  1  0  0  0
 21 22  1  0  0  0
 20 23  1  0  0  0
 23 24  2  0  0  0
 24 25  1  0  0  0
 25 26  2  0  0  0
 26 27  1  0  0  0
 27 28  2  0  0  0
 28 29  1  0  0  0
 29 30  2  0  0  0
 30 31  1  0  0  0
 31 32  2  0  0  0
  4  5  1  0  0  0
  5  6  2  0  0  0
  5  7  1  0  0  0
  7 10  1  0  0  0
 10 11  2  0  0  0
 11 12  1  0  0  0
 12 13  2  0  0  0
 13 14  1  0  0  0
 13 15  1  0  0  0
 15 16  2  0  0  0
  7  8  1  0  0  0
  8  9  2  0  0  0
  8  3  1  0  0  0
 22 17  1  0  0  0
 32 23  1  0  0  0
 16 10  1  0  0  0
 31 26  1  0  0  0
M  END
> <minimizedAffinity>
-0.72465

> <CNNscore>
0.3945496380

> <CNNaffinity>
6.5250692368

> <CNN_VS>
2.5744636059

> <CNNaffinity_variance>
0.7993696928

$$$$
[H]c1c([H])c(N2C(=O)C(C([H])([H])[H])=C(C([H])([H])N3C([H])([H])C([H])([H])N(c4c([H])c([H])c5c([H])c([H])c([H])c([H])c5c4[H])C([H])([H])C3([H])[H])C2=O)c([H])c([H])c1Cl


 32 36  0  0  0  0  0  0  0  0999 V2000
   13.0168   22.8635    0.6496 C   0  0  0  0  0  0  0  0  0  0  0  0
   15.7393   24.2508    1.4473 C   0  0  0  0  0  0  0  0  0  0  0  0
   15.1038   24.1728    0.0908 C   0  0  0  0  0  0  0  0  0  0  0  0
   13.9793   23.5982   -0.2338 C   0  0  0  0  0  0  0  0  0  0  0  0
   13.7539   23.7916   -1.6854 C   0  0  0  0  0  0  0  0  0  0  0  0
   12.7519   23.3512   -2.2961 O   0  0  0  0  0  0  0  0  0  0  0  0
   14.8500   24.5434   -2.2218 N   0  0  0  0  0  0  0  0  0  0  0  0
   15.6978   24.7828   -1.1088 C   0  0  0  0  0  0  0  0  0  0  0  0
   16.7810   25.4191   -1.1644 O   0  0  0  0  0  0  0  0  0  0  0  0
   14.9640   24.9335   -3.5762 C   0  0  0  0  0  0  0  0  0  0  0  0
   15.5726   24.1061   -4.4801 C   0  0  0  0  0  0  0  0  0  0  0  0
   15.6924   24.4818   -5.8117 C   0  0  0  0  0  0  0  0  0  0  0  0
   15.1855   25.7138   -6.2186 C   0  0  0  0  0  0  0  0  0  0  0  0
   15.3453   26.1720   -7.9045 Cl  0  0  0  0  0  0  0  0  0  0  0  0
   14.5720   26.5517   -5.3163 C   0  0  0  0  0  0  0  0  0  0  0  0
   14.4711   26.1371   -3.9893 C   0  0  0  0  0  0  0  0  0  0  0  0
   11.7342   22.7146   -0.0288 N   0  0  0  0  0  0  0  0  0  0  0  0
   11.0158   23.9446   -0.1490 C   0  0  0  0  0  0  0  0  0  0  0  0
   10.3623   24.4778    1.0565 C   0  0  0  0  0  0  0  0  0  0  0  0
   10.0497   23.5102    2.0882 N   0  0  0  0  0  0  0  0  0  0  0  0
   10.4718   22.1443    2.0314 C   0  0  0  0  0  0  0  0  0  0  0  0
   10.9153   21.7190    0.6626 C   0  0  0  0  0  0  0  0  0  0  0  0
    9.2933   23.9937    3.1968 C   0  0  0  0  0  0  0  0  0  0  0  0
    9.2652   23.3891    4.4350 C   0  0  0  0  0  0  0  0  0  0  0  0
    8.5111   23.9187    5.4851 C   0  0  0  0  0  0  0  0  0  0  0  0
    7.7612   25.0749    5.3209 C   0  0  0  0  0  0  0  0  0  0  0  0
    7.0027   25.6277    6.3561 C   0  0  0  0  0  0  0  0  0  0  0  0
    6.2734   26.7852    6.1454 C   0  0  0  0  0  0  0  0  0  0  0  0
    6.3027   27.3865    4.9044 C   0  0  0  0  0  0  0  0  0  0  0  0
    7.0437   26.8497    3.8854 C   0  0  0  0  0  0  0  0  0  0  0  0
    7.7855   25.6767    4.0939 C   0  0  0  0  0  0  0  0  0  0  0  0
    8.5240   25.1548    3.0737 C   0  0  0  0  0  0  0  0  0  0  0  0
  2  3  1  0  0  0
  3  4  2  0  0  0
  4  1  1  0  0  0
  1 17  1  0  0  0
 17 18  1  0  0  0
 18 19  1  0  0  0
 19 20  1  0  0  0
 20 21  1  0  0  0
 21 22  1  0  0  0
 20 23  1  0  0  0
 23 24  2  0  0  0
 24 25  1  0  0  0
 25 26  2  0  0  0
 26 27  1  0  0  0
 27 28  2  0  0  0
 28 29  1  0  0  0
 29 30  2  0  0  0
 30 31  1  0  0  0
 31 32  2  0  0  0
  4  5  1  0  0  0
  5  6  2  0  0  0
  5  7  1  0  0  0
  7 10  1  0  0  0
 10 11  2  0  0  0
 11 12  1  0  0  0
 12 13  2  0  0  0
 13 14  1  0  0  0
 13 15  1  0  0  0
 15 16  2  0  0  0
  7  8  1  0  0  0
  8  9  2  0  0  0
  8  3  1  0  0  0
 22 17  1  0  0  0
 32 23  1  0  0  0
 16 10  1  0  0  0
 31 26  1  0  0  0
M  END
> <minimizedAffinity>
-7.70363

> <CNNscore>
0.3749696612

> <CNNaffinity>
6.9811615944

> <CNN_VS>
2.6177237034

> <CNNaffinity_variance>
0.0870715752

$$$$
[H]c1c([H])c(N2C(=O)C(C([H])([H])[H])=C(C([H])([H])N3C([H])([H])C([H])([H])N(c4c([H])c([H])c5c([H])c([H])c([H])c([H])c5c4[H])C([H])([H])C3([H])[H])C2=O)c([H])c([H])c1Cl


 32 36  0  0  0  0  0  0  0  0999 V2000
   15.6722   23.3057   -2.5167 C   0  0  0  0  0  0  0  0  0  0  0  0
   14.8307   24.2982    0.3608 C   0  0  0  0  0  0  0  0  0  0  0  0
   14.4481   24.8813   -0.9672 C   0  0  0  0  0  0  0  0  0  0  0  0
   14.7986   24.4681   -2.1531 C   0  0  0  0  0  0  0  0  0  0  0  0
   14.1662   25.3477   -3.1640 C   0  0  0  0  0  0  0  0  0  0  0  0
   14.3157   25.2027   -4.3999 O   0  0  0  0  0  0  0  0  0  0  0  0
   13.3906   26.3423   -2.4830 N   0  0  0  0  0  0  0  0  0  0  0  0
   13.5668   26.0512   -1.1049 C   0  0  0  0  0  0  0  0  0  0  0  0
   13.0418   26.7048   -0.1677 O   0  0  0  0  0  0  0  0  0  0  0  0
   12.6301   27.3434   -3.1303 C   0  0  0  0  0  0  0  0  0  0  0  0
   12.6196   28.6212   -2.6414 C   0  0  0  0  0  0  0  0  0  0  0  0
   11.8732   29.6106   -3.2682 C   0  0  0  0  0  0  0  0  0  0  0  0
   11.1326   29.2872   -4.4028 C   0  0  0  0  0  0  0  0  0  0  0  0
   10.1958   30.5494   -5.1819 Cl  0  0  0  0  0  0  0  0  0  0  0  0
   11.1377   28.0049   -4.9010 C   0  0  0  0  0  0  0  0  0  0  0  0
   11.9006   27.0413   -4.2433 C   0  0  0  0  0  0  0  0  0  0  0  0
   14.8509   22.1921   -2.9781 N   0  0  0  0  0  0  0  0  0  0  0  0
   13.4487   22.4600   -2.9053 C   0  0  0  0  0  0  0  0  0  0  0  0
   12.8131   22.4321   -1.5787 C   0  0  0  0  0  0  0  0  0  0  0  0
   13.4933   21.6501   -0.5666 N   0  0  0  0  0  0  0  0  0  0  0  0
   14.7787   21.0562   -0.7718 C   0  0  0  0  0  0  0  0  0  0  0  0
   15.1728   20.9846   -2.2178 C   0  0  0  0  0  0  0  0  0  0  0  0
   12.8134   21.5042    0.6790 C   0  0  0  0  0  0  0  0  0  0  0  0
   13.0894   20.5150    1.5981 C   0  0  0  0  0  0  0  0  0  0  0  0
   12.3937   20.4318    2.8067 C   0  0  0  0  0  0  0  0  0  0  0  0
   11.3975   21.3432    3.1279 C   0  0  0  0  0  0  0  0  0  0  0  0
   10.6905   21.2851    4.3318 C   0  0  0  0  0  0  0  0  0  0  0  0
    9.7075   22.2193    4.6094 C   0  0  0  0  0  0  0  0  0  0  0  0
    9.4330   23.2067    3.6863 C   0  0  0  0  0  0  0  0  0  0  0  0
   10.1219   23.2692    2.5044 C   0  0  0  0  0  0  0  0  0  0  0  0
   11.1201   22.3249    2.2183 C   0  0  0  0  0  0  0  0  0  0  0  0
   11.8032   22.4006    1.0409 C   0  0  0  0  0  0  0  0  0  0  0  0
  2  3  1  0  0  0
  3  4  2  0  0  0
  4  1  1  0  0  0
  1 17  1  0  0  0
 17 18  1  0  0  0
 18 19  1  0  0  0
 19 20  1  0  0  0
 20 21  1  0  0  0
 21 22  1  0  0  0
 20 23  1  0  0  0
 23 24  2  0  0  0
 24 25  1  0  0  0
 25 26  2  0  0  0
 26 27  1  0  0  0
 27 28  2  0  0  0
 28 29  1  0  0  0
 29 30  2  0  0  0
 30 31  1  0  0  0
 31 32  2  0  0  0
  4  5  1  0  0  0
  5  6  2  0  0  0
  5  7  1  0  0  0
  7 10  1  0  0  0
 10 11  2  0  0  0
 11 12  1  0  0  0
 12 13  2  0  0  0
 13 14  1  0  0  0
 13 15  1  0  0  0
 15 16  2  0  0  0
  7  8  1  0  0  0
  8  9  2  0  0  0
  8  3  1  0  0  0
 22 17  1  0  0  0
 32 23  1  0  0  0
 16 10  1  0  0  0
 31 26  1  0  0  0
M  END
> <minimizedAffinity>
17.58756

> <CNNscore>
0.3523396552

> <CNNaffinity>
6.9007239342

> <CNN_VS>
2.4313986301

> <CNNaffinity_variance>
0.9585101008

$$$$
[H]c1c([H])c(N2C(=O)C(C([H])([H])[H])=C(C([H])([H])N3C([H])([H])C([H])([H])N(c4c([H])c([H])c5c([H])c([H])c([H])c([H])c5c4[H])C([H])([H])C3([H])[H])C2=O)c([H])c([H])c1Cl


 32 36  0  0  0  0  0  0  0  0999 V2000
   15.3107   28.0555   -4.5226 C   0  0  0  0  0  0  0  0  0  0  0  0
   17.4034   27.2519   -2.2981 C   0  0  0  0  0  0  0  0  0  0  0  0
   15.9775   26.8054   -2.4310 C   0  0  0  0  0  0  0  0  0  0  0  0
   15.1169   27.1405   -3.3513 C   0  0  0  0  0  0  0  0  0  0  0  0
   13.8399   26.4401   -3.0789 C   0  0  0  0  0  0  0  0  0  0  0  0
   12.8170   26.5607   -3.7931 O   0  0  0  0  0  0  0  0  0  0  0  0
   14.0002   25.6396   -1.9008 N   0  0  0  0  0  0  0  0  0  0  0  0
   15.3405   25.8681   -1.4931 C   0  0  0  0  0  0  0  0  0  0  0  0
   15.8764   25.3407   -0.4852 O   0  0  0  0  0  0  0  0  0  0  0  0
   12.9904   24.8161   -1.3514 C   0  0  0  0  0  0  0  0  0  0  0  0
   13.0942   23.4544   -1.4346 C   0  0  0  0  0  0  0  0  0  0  0  0
   12.1060   22.6373   -0.9009 C   0  0  0  0  0  0  0  0  0  0  0  0
   11.0045   23.2205   -0.2789 C   0  0  0  0  0  0  0  0  0  0  0  0
    9.7660   22.1732    0.3897 Cl  0  0  0  0  0  0  0  0  0  0  0  0
   10.8924   24.5888   -0.1908 C   0  0  0  0  0  0  0  0  0  0  0  0
   11.9062   25.3735   -0.7382 C   0  0  0  0  0  0  0  0  0  0  0  0
   16.1519   27.4096   -5.5239 N   0  0  0  0  0  0  0  0  0  0  0  0
   15.4105   26.6164   -6.4537 C   0  0  0  0  0  0  0  0  0  0  0  0
   14.8955   25.3184   -5.9901 C   0  0  0  0  0  0  0  0  0  0  0  0
   15.5922   24.7248   -4.8673 N   0  0  0  0  0  0  0  0  0  0  0  0
   16.6216   25.4024   -4.1404 C   0  0  0  0  0  0  0  0  0  0  0  0
   17.1732   26.5932   -4.8678 C   0  0  0  0  0  0  0  0  0  0  0  0
   15.1889   23.4063   -4.5016 C   0  0  0  0  0  0  0  0  0  0  0  0
   15.2321   22.9146   -3.2147 C   0  0  0  0  0  0  0  0  0  0  0  0
   14.8124   21.6152   -2.9192 C   0  0  0  0  0  0  0  0  0  0  0  0
   14.3356   20.7698   -3.9111 C   0  0  0  0  0  0  0  0  0  0  0  0
   13.9052   19.4681   -3.6412 C   0  0  0  0  0  0  0  0  0  0  0  0
   13.4338   18.6629   -4.6637 C   0  0  0  0  0  0  0  0  0  0  0  0
   13.3937   19.1580   -5.9504 C   0  0  0  0  0  0  0  0  0  0  0  0
   13.8143   20.4327   -6.2220 C   0  0  0  0  0  0  0  0  0  0  0  0
   14.2925   21.2535   -5.1887 C   0  0  0  0  0  0  0  0  0  0  0  0
   14.7031   22.5227   -5.4701 C   0  0  0  0  0  0  0  0  0  0  0  0
  2  3  1  0  0  0
  3  4  2  0  0  0
  4  1  1  0  0  0
  1 17  1  0  0  0
 17 18  1  0  0  0
 18 19  1  0  0  0
 19 20  1  0  0  0
 20 21  1  0  0  0
 21 22  1  0  0  0
 20 23  1  0  0  0
 23 24  2  0  0  0
 24 25  1  0  0  0
 25 26  2  0  0  0
 26 27  1  0  0  0
 27 28  2  0  0  0
 28 29  1  0  0  0
 29 30  2  0  0  0
 30 31  1  0  0  0
 31 32  2  0  0  0
  4  5  1  0  0  0
  5  6  2  0  0  0
  5  7  1  0  0  0
  7 10  1  0  0  0
 10 11  2  0  0  0
 11 12  1  0  0  0
 12 13  2  0  0  0
 13 14  1  0  0  0
 13 15  1  0  0  0
 15 16  2  0  0  0
  7  8  1  0  0  0
  8  9  2  0  0  0
  8  3  1  0  0  0
 22 17  1  0  0  0
 32 23  1  0  0  0
 16 10  1  0  0  0
 31 26  1  0  0  0
M  END
> <minimizedAffinity>
20.01475

> <CNNscore>
0.3484770656

> <CNNaffinity>
7.1001405716

> <CNN_VS>
2.4742362499

> <CNNaffinity_variance>
0.5280202627

$$$$
[H]OC1=C(C(=O)N([H])C([H])([H])C(C([H])([H])[H])(C([H])([H])[H])C([H])([H])[H])C(=O)N(C([H])([H])c2c([H])c([H])c(Oc3c([H])c([H])c(C([H])([H])[H])c([H])c3[H])c([H])c2[H])C([H])([H])C1([H])[H]


 33 35  0  0  0  0  0  0  0  0999 V2000
   11.0230   21.9795    0.1735 N   0  0  0  0  0  0  0  0  0  0  0  0
   10.4350   20.8037    0.7177 C   0  0  0  0  0  0  0  0  0  0  0  0
   11.0996   20.3893    1.9752 C   0  0  0  0  0  0  0  0  0  0  0  0
   12.5689   20.5240    1.9634 C   0  0  0  0  0  0  0  0  0  0  0  0
   13.2500   19.7264    2.8971 O   0  0  0  0  0  0  0  0  0  0  0  0
   13.2679   21.3087    1.1702 C   0  0  0  0  0  0  0  0  0  0  0  0
   12.4489   22.0891    0.2126 C   0  0  0  0  0  0  0  0  0  0  0  0
   13.0496   22.8611   -0.5750 O   0  0  0  0  0  0  0  0  0  0  0  0
   13.2232   19.9371    3.9036 H   0  0  0  0  0  0  0  0  0  0  0  0
   14.7120   21.4484    1.1527 C   0  0  0  0  0  0  0  0  0  0  0  0
   15.3647   20.3578    0.8867 O   0  0  0  0  0  0  0  0  0  0  0  0
   15.4852   22.5720    1.3787 N   0  0  0  0  0  0  0  0  0  0  0  0
   15.1220   23.5012    1.5987 H   0  0  0  0  0  0  0  0  0  0  0  0
   16.9437   22.4619    1.3058 C   0  0  0  0  0  0  0  0  0  0  0  0
   17.5759   23.7331    0.8415 C   0  0  0  0  0  0  0  0  0  0  0  0
   18.3783   23.5422   -0.4239 C   0  0  0  0  0  0  0  0  0  0  0  0
   18.5168   24.2864    1.8918 C   0  0  0  0  0  0  0  0  0  0  0  0
   16.4711   24.7257    0.5199 C   0  0  0  0  0  0  0  0  0  0  0  0
   10.3255   23.0670   -0.4404 C   0  0  0  0  0  0  0  0  0  0  0  0
   12.6297   26.2091   -2.1007 C   0  0  0  0  0  0  0  0  0  0  0  0
   12.0552   25.2608   -2.9147 C   0  0  0  0  0  0  0  0  0  0  0  0
   11.2909   24.2177   -2.3656 C   0  0  0  0  0  0  0  0  0  0  0  0
   11.1139   24.1424   -0.9985 C   0  0  0  0  0  0  0  0  0  0  0  0
   11.6981   25.0990   -0.2201 C   0  0  0  0  0  0  0  0  0  0  0  0
   12.4417   26.1167   -0.7450 C   0  0  0  0  0  0  0  0  0  0  0  0
   13.3979   27.2596   -2.6401 O   0  0  0  0  0  0  0  0  0  0  0  0
   16.2467   26.4334   -7.4549 C   0  0  0  0  0  0  0  0  0  0  0  0
   15.4963   26.6540   -6.1766 C   0  0  0  0  0  0  0  0  0  0  0  0
   14.1162   26.6500   -6.1540 C   0  0  0  0  0  0  0  0  0  0  0  0
   13.3808   26.8500   -4.9871 C   0  0  0  0  0  0  0  0  0  0  0  0
   14.0689   27.0586   -3.8161 C   0  0  0  0  0  0  0  0  0  0  0  0
   15.4632   27.0610   -3.8479 C   0  0  0  0  0  0  0  0  0  0  0  0
   16.1907   26.8646   -4.9957 C   0  0  0  0  0  0  0  0  0  0  0  0
 27 28  1  0  0  0
 28 29  2  0  0  0
 29 30  1  0  0  0
 30 31  2  0  0  0
 31 26  1  0  0  0
 26 20  1  0  0  0
 20 21  2  0  0  0
 21 22  1  0  0  0
 22 23  2  0  0  0
 23 19  1  0  0  0
 19  1  1  0  0  0
  1  2  1  0  0  0
  2  3  1  0  0  0
  3  4  1  0  0  0
  4  5  1  0  0  0
  4  6  2  0  0  0
  6 10  1  0  0  0
 10 11  2  0  0  0
 10 12  1  0  0  0
 12 14  1  0  0  0
 14 15  1  0  0  0
 15 16  1  0  0  0
 15 17  1  0  0  0
 15 18  1  0  0  0
  6  7  1  0  0  0
  7  8  2  0  0  0
 23 24  1  0  0  0
 24 25  2  0  0  0
 31 32  1  0  0  0
 32 33  2  0  0  0
 33 28  1  0  0  0
 25 20  1  0  0  0
  7  1  1  0  0  0
  5  9  1  0  0  0
 12 13  1  0  0  0
M  END
> <minimizedAffinity>
2.50129

> <CNNscore>
0.6480174661

> <CNNaffinity>
7.0680909157

> <CNN_VS>
4.5802464485

> <CNNaffinity_variance>
0.3955616057

$$$$
[H]OC1=C(C(=O)N([H])C([H])([H])C(C([H])([H])[H])(C([H])([H])[H])C([H])([H])[H])C(=O)N(C([H])([H])c2c([H])c([H])c(Oc3c([H])c([H])c(C([H])([H])[H])c([H])c3[H])c([H])c2[H])C([H])([H])C1([H])[H]


 33 35  0  0  0  0  0  0  0  0999 V2000
    9.0391   22.5269    1.0768 N   0  0  0  0  0  0  0  0  0  0  0  0
    8.0167   21.9591    1.8871 C   0  0  0  0  0  0  0  0  0  0  0  0
    8.5346   21.5394    3.2101 C   0  0  0  0  0  0  0  0  0  0  0  0
    9.8647   20.9016    3.1717 C   0  0  0  0  0  0  0  0  0  0  0  0
   10.1684   20.0855    4.2733 O   0  0  0  0  0  0  0  0  0  0  0  0
   10.7592   21.0341    2.2148 C   0  0  0  0  0  0  0  0  0  0  0  0
   10.3254   21.9010    1.0937 C   0  0  0  0  0  0  0  0  0  0  0  0
   11.1298   22.0741    0.1449 O   0  0  0  0  0  0  0  0  0  0  0  0
   10.3702   20.4867    5.1988 H   0  0  0  0  0  0  0  0  0  0  0  0
   12.0693   20.4121    2.1696 C   0  0  0  0  0  0  0  0  0  0  0  0
   12.2581   19.4684    3.0413 O   0  0  0  0  0  0  0  0  0  0  0  0
   13.1378   20.6821    1.3348 N   0  0  0  0  0  0  0  0  0  0  0  0
   13.1454   21.3923    0.6004 H   0  0  0  0  0  0  0  0  0  0  0  0
   14.3735   19.9104    1.4839 C   0  0  0  0  0  0  0  0  0  0  0  0
   15.4440   20.3885    0.5582 C   0  0  0  0  0  0  0  0  0  0  0  0
   14.8796   20.9471   -0.7266 C   0  0  0  0  0  0  0  0  0  0  0  0
   16.3821   19.2594    0.1843 C   0  0  0  0  0  0  0  0  0  0  0  0
   16.1949   21.5196    1.2409 C   0  0  0  0  0  0  0  0  0  0  0  0
    8.9029   23.6606    0.2152 C   0  0  0  0  0  0  0  0  0  0  0  0
   12.4383   25.5672   -1.1281 C   0  0  0  0  0  0  0  0  0  0  0  0
   11.5763   24.9837   -2.0272 C   0  0  0  0  0  0  0  0  0  0  0  0
   10.4034   24.3506   -1.5834 C   0  0  0  0  0  0  0  0  0  0  0  0
   10.1119   24.3129   -0.2344 C   0  0  0  0  0  0  0  0  0  0  0  0
   10.9887   24.9009    0.6302 C   0  0  0  0  0  0  0  0  0  0  0  0
   12.1305   25.5192    0.2079 C   0  0  0  0  0  0  0  0  0  0  0  0
   13.6172   26.2050   -1.5616 O   0  0  0  0  0  0  0  0  0  0  0  0
   15.4122   25.3829   -6.8609 C   0  0  0  0  0  0  0  0  0  0  0  0
   14.9330   25.6044   -5.4583 C   0  0  0  0  0  0  0  0  0  0  0  0
   15.2874   24.7399   -4.4424 C   0  0  0  0  0  0  0  0  0  0  0  0
   14.8643   24.9106   -3.1255 C   0  0  0  0  0  0  0  0  0  0  0  0
   14.0614   25.9880   -2.8380 C   0  0  0  0  0  0  0  0  0  0  0  0
   13.7081   26.8565   -3.8705 C   0  0  0  0  0  0  0  0  0  0  0  0
   14.1229   26.6912   -5.1689 C   0  0  0  0  0  0  0  0  0  0  0  0
 27 28  1  0  0  0
 28 29  2  0  0  0
 29 30  1  0  0  0
 30 31  2  0  0  0
 31 26  1  0  0  0
 26 20  1  0  0  0
 20 21  2  0  0  0
 21 22  1  0  0  0
 22 23  2  0  0  0
 23 19  1  0  0  0
 19  1  1  0  0  0
  1  2  1  0  0  0
  2  3  1  0  0  0
  3  4  1  0  0  0
  4  5  1  0  0  0
  4  6  2  0  0  0
  6 10  1  0  0  0
 10 11  2  0  0  0
 10 12  1  0  0  0
 12 14  1  0  0  0
 14 15  1  0  0  0
 15 16  1  0  0  0
 15 17  1  0  0  0
 15 18  1  0  0  0
  6  7  1  0  0  0
  7  8  2  0  0  0
 23 24  1  0  0  0
 24 25  2  0  0  0
 31 32  1  0  0  0
 32 33  2  0  0  0
 33 28  1  0  0  0
 25 20  1  0  0  0
  7  1  1  0  0  0
  5  9  1  0  0  0
 12 13  1  0  0  0
M  END
> <minimizedAffinity>
-2.76205

> <CNNscore>
0.5626887083

> <CNNaffinity>
6.8909349442

> <CNN_VS>
3.8774511814

> <CNNaffinity_variance>
0.4686290622

$$$$
[H]OC1=C(C(=O)N([H])C([H])([H])C(C([H])([H])[H])(C([H])([H])[H])C([H])([H])[H])C(=O)N(C([H])([H])c2c([H])c([H])c(Oc3c([H])c([H])c(C([H])([H])[H])c([H])c3[H])c([H])c2[H])C([H])([H])C1([H])[H]


 33 35  0  0  0  0  0  0  0  0999 V2000
   10.0224   22.6964   -0.3497 N   0  0  0  0  0  0  0  0  0  0  0  0
    8.8530   22.1173    0.2170 C   0  0  0  0  0  0  0  0  0  0  0  0
    9.0130   21.8660    1.6682 C   0  0  0  0  0  0  0  0  0  0  0  0
   10.3383   21.3460    2.0562 C   0  0  0  0  0  0  0  0  0  0  0  0
   10.3770   20.6628    3.2823 O   0  0  0  0  0  0  0  0  0  0  0  0
   11.4511   21.4689    1.3633 C   0  0  0  0  0  0  0  0  0  0  0  0
   11.2899   22.1894    0.0782 C   0  0  0  0  0  0  0  0  0  0  0  0
   12.3115   22.3454   -0.6354 O   0  0  0  0  0  0  0  0  0  0  0  0
   10.2936   21.1622    4.1777 H   0  0  0  0  0  0  0  0  0  0  0  0
   12.7582   20.9622    1.7377 C   0  0  0  0  0  0  0  0  0  0  0  0
   12.7621   19.7529    2.2106 O   0  0  0  0  0  0  0  0  0  0  0  0
   13.9915   21.5825    1.6627 N   0  0  0  0  0  0  0  0  0  0  0  0
   14.1533   22.5293    1.3146 H   0  0  0  0  0  0  0  0  0  0  0  0
   15.1838   20.8578    2.1078 C   0  0  0  0  0  0  0  0  0  0  0  0
   16.0298   20.4178    0.9581 C   0  0  0  0  0  0  0  0  0  0  0  0
   17.4523   20.9119    1.0744 C   0  0  0  0  0  0  0  0  0  0  0  0
   15.4779   20.9395   -0.3527 C   0  0  0  0  0  0  0  0  0  0  0  0
   16.0868   18.8992    0.9613 C   0  0  0  0  0  0  0  0  0  0  0  0
   10.0600   23.7312   -1.3367 C   0  0  0  0  0  0  0  0  0  0  0  0
   13.8430   25.2681   -2.4618 C   0  0  0  0  0  0  0  0  0  0  0  0
   12.7836   26.1169   -2.2404 C   0  0  0  0  0  0  0  0  0  0  0  0
   11.5280   25.6088   -1.8675 C   0  0  0  0  0  0  0  0  0  0  0  0
   11.3543   24.2470   -1.7215 C   0  0  0  0  0  0  0  0  0  0  0  0
   12.4259   23.4333   -1.9494 C   0  0  0  0  0  0  0  0  0  0  0  0
   13.6499   23.9183   -2.3113 C   0  0  0  0  0  0  0  0  0  0  0  0
   15.1066   25.7662   -2.8360 O   0  0  0  0  0  0  0  0  0  0  0  0
   16.1066   26.7605   -8.3124 C   0  0  0  0  0  0  0  0  0  0  0  0
   15.8411   26.4918   -6.8622 C   0  0  0  0  0  0  0  0  0  0  0  0
   16.0628   27.4642   -5.9080 C   0  0  0  0  0  0  0  0  0  0  0  0
   15.8279   27.2553   -4.5502 C   0  0  0  0  0  0  0  0  0  0  0  0
   15.3557   26.0264   -4.1565 C   0  0  0  0  0  0  0  0  0  0  0  0
   15.1346   25.0497   -5.1271 C   0  0  0  0  0  0  0  0  0  0  0  0
   15.3652   25.2520   -6.4655 C   0  0  0  0  0  0  0  0  0  0  0  0
 27 28  1  0  0  0
 28 29  2  0  0  0
 29 30  1  0  0  0
 30 31  2  0  0  0
 31 26  1  0  0  0
 26 20  1  0  0  0
 20 21  2  0  0  0
 21 22  1  0  0  0
 22 23  2  0  0  0
 23 19  1  0  0  0
 19  1  1  0  0  0
  1  2  1  0  0  0
  2  3  1  0  0  0
  3  4  1  0  0  0
  4  5  1  0  0  0
  4  6  2  0  0  0
  6 10  1  0  0  0
 10 11  2  0  0  0
 10 12  1  0  0  0
 12 14  1  0  0  0
 14 15  1  0  0  0
 15 16  1  0  0  0
 15 17  1  0  0  0
 15 18  1  0  0  0
  6  7  1  0  0  0
  7  8  2  0  0  0
 23 24  1  0  0  0
 24 25  2  0  0  0
 31 32  1  0  0  0
 32 33  2  0  0  0
 33 28  1  0  0  0
 25 20  1  0  0  0
  7  1  1  0  0  0
  5  9  1  0  0  0
 12 13  1  0  0  0
M  END
> <minimizedAffinity>
6.01102

> <CNNscore>
0.5275785327

> <CNNaffinity>
7.0194573402

> <CNN_VS>
3.7033150196

> <CNNaffinity_variance>
0.7841060758

$$$$
[H]OC1=C(C(=O)N([H])C([H])([H])C(C([H])([H])[H])(C([H])([H])[H])C([H])([H])[H])C(=O)N(C([H])([H])c2c([H])c([H])c(Oc3c([H])c([H])c(C([H])([H])[H])c([H])c3[H])c([H])c2[H])C([H])([H])C1([H])[H]


 33 35  0  0  0  0  0  0  0  0999 V2000
    9.8486   24.4866   -0.6423 N   0  0  0  0  0  0  0  0  0  0  0  0
    8.7147   25.0123    0.0374 C   0  0  0  0  0  0  0  0  0  0  0  0
    8.8718   24.9344    1.5084 C   0  0  0  0  0  0  0  0  0  0  0  0
    9.4896   23.6847    1.9920 C   0  0  0  0  0  0  0  0  0  0  0  0
    9.2249   23.3673    3.3340 O   0  0  0  0  0  0  0  0  0  0  0  0
   10.2449   22.8706    1.2848 C   0  0  0  0  0  0  0  0  0  0  0  0
   10.4413   23.2929   -0.1222 C   0  0  0  0  0  0  0  0  0  0  0  0
   11.1532   22.5638   -0.8563 O   0  0  0  0  0  0  0  0  0  0  0  0
    9.6539   23.8960    4.1051 H   0  0  0  0  0  0  0  0  0  0  0  0
   10.8572   21.6411    1.7524 C   0  0  0  0  0  0  0  0  0  0  0  0
   12.0665   21.4348    1.3265 O   0  0  0  0  0  0  0  0  0  0  0  0
   10.3370   20.6647    2.5816 N   0  0  0  0  0  0  0  0  0  0  0  0
    9.4037   20.6819    2.9967 H   0  0  0  0  0  0  0  0  0  0  0  0
   11.1580   19.4985    2.9144 C   0  0  0  0  0  0  0  0  0  0  0  0
   11.5603   19.4926    4.3529 C   0  0  0  0  0  0  0  0  0  0  0  0
   10.5767   18.7397    5.2173 C   0  0  0  0  0  0  0  0  0  0  0  0
   11.6495   20.9035    4.8972 C   0  0  0  0  0  0  0  0  0  0  0  0
   12.8946   18.7752    4.4723 C   0  0  0  0  0  0  0  0  0  0  0  0
   10.4494   25.0232   -1.8244 C   0  0  0  0  0  0  0  0  0  0  0  0
   14.6754   24.9926   -2.1045 C   0  0  0  0  0  0  0  0  0  0  0  0
   13.9055   25.2663   -3.2110 C   0  0  0  0  0  0  0  0  0  0  0  0
   12.5036   25.2765   -3.1199 C   0  0  0  0  0  0  0  0  0  0  0  0
   11.8922   25.0101   -1.9111 C   0  0  0  0  0  0  0  0  0  0  0  0
   12.6856   24.7420   -0.8337 C   0  0  0  0  0  0  0  0  0  0  0  0
   14.0487   24.7308   -0.9126 C   0  0  0  0  0  0  0  0  0  0  0  0
   16.0819   24.9798   -2.1838 O   0  0  0  0  0  0  0  0  0  0  0  0
   19.1701   24.1425    2.4790 C   0  0  0  0  0  0  0  0  0  0  0  0
   18.3557   24.3625    1.2404 C   0  0  0  0  0  0  0  0  0  0  0  0
   17.0051   24.6361    1.3183 C   0  0  0  0  0  0  0  0  0  0  0  0
   16.2127   24.8479    0.1914 C   0  0  0  0  0  0  0  0  0  0  0  0
   16.8117   24.7793   -1.0433 C   0  0  0  0  0  0  0  0  0  0  0  0
   18.1768   24.5023   -1.1129 C   0  0  0  0  0  0  0  0  0  0  0  0
   18.9603   24.2929   -0.0049 C   0  0  0  0  0  0  0  0  0  0  0  0
 27 28  1  0  0  0
 28 29  2  0  0  0
 29 30  1  0  0  0
 30 31  2  0  0  0
 31 26  1  0  0  0
 26 20  1  0  0  0
 20 21  2  0  0  0
 21 22  1  0  0  0
 22 23  2  0  0  0
 23 19  1  0  0  0
 19  1  1  0  0  0
  1  2  1  0  0  0
  2  3  1  0  0  0
  3  4  1  0  0  0
  4  5  1  0  0  0
  4  6  2  0  0  0
  6 10  1  0  0  0
 10 11  2  0  0  0
 10 12  1  0  0  0
 12 14  1  0  0  0
 14 15  1  0  0  0
 15 16  1  0  0  0
 15 17  1  0  0  0
 15 18  1  0  0  0
  6  7  1  0  0  0
  7  8  2  0  0  0
 23 24  1  0  0  0
 24 25  2  0  0  0
 31 32  1  0  0  0
 32 33  2  0  0  0
 33 28  1  0  0  0
 25 20  1  0  0  0
  7  1  1  0  0  0
  5  9  1  0  0  0
 12 13  1  0  0  0
M  END
> <minimizedAffinity>
9.91434

> <CNNscore>
0.5215561986

> <CNNaffinity>
6.8218131065

> <CNN_VS>
3.5579588413

> <CNNaffinity_variance>
1.9032735825

$$$$
[H]OC1=C(C(=O)N([H])C([H])([H])C(C([H])([H])[H])(C([H])([H])[H])C([H])([H])[H])C(=O)N(C([H])([H])c2c([H])c([H])c(Oc3c([H])c([H])c(C([H])([H])[H])c([H])c3[H])c([H])c2[H])C([H])([H])C1([H])[H]


 33 35  0  0  0  0  0  0  0  0999 V2000
   12.5499   23.8142    1.1355 N   0  0  0  0  0  0  0  0  0  0  0  0
   12.2664   25.1582    1.5062 C   0  0  0  0  0  0  0  0  0  0  0  0
   11.0624   25.2484    2.3648 C   0  0  0  0  0  0  0  0  0  0  0  0
    9.9552   24.3609    1.9603 C   0  0  0  0  0  0  0  0  0  0  0  0
    8.6840   24.7446    2.4172 O   0  0  0  0  0  0  0  0  0  0  0  0
   10.0638   23.2726    1.2273 C   0  0  0  0  0  0  0  0  0  0  0  0
   11.4463   22.9744    0.7841 C   0  0  0  0  0  0  0  0  0  0  0  0
   11.6254   21.9489    0.0817 O   0  0  0  0  0  0  0  0  0  0  0  0
    8.4186   24.6506    3.4066 H   0  0  0  0  0  0  0  0  0  0  0  0
    8.9812   22.3938    0.8262 C   0  0  0  0  0  0  0  0  0  0  0  0
    8.6109   21.5346    1.7266 O   0  0  0  0  0  0  0  0  0  0  0  0
    8.2939   22.3428   -0.3723 N   0  0  0  0  0  0  0  0  0  0  0  0
    8.4666   22.9501   -1.1755 H   0  0  0  0  0  0  0  0  0  0  0  0
    7.2270   21.3541   -0.5424 C   0  0  0  0  0  0  0  0  0  0  0  0
    7.7391   20.0759   -1.1214 C   0  0  0  0  0  0  0  0  0  0  0  0
    9.2410   20.0833   -1.2811 C   0  0  0  0  0  0  0  0  0  0  0  0
    7.1423   19.8229   -2.4906 C   0  0  0  0  0  0  0  0  0  0  0  0
    7.4013   18.9478   -0.1609 C   0  0  0  0  0  0  0  0  0  0  0  0
   13.8466   23.2159    1.0526 C   0  0  0  0  0  0  0  0  0  0  0  0
   16.7829   25.1424   -1.3150 C   0  0  0  0  0  0  0  0  0  0  0  0
   17.1533   24.3497   -0.2538 C   0  0  0  0  0  0  0  0  0  0  0  0
   16.1806   23.7102    0.5328 C   0  0  0  0  0  0  0  0  0  0  0  0
   14.8420   23.8775    0.2396 C   0  0  0  0  0  0  0  0  0  0  0  0
   14.5093   24.6710   -0.8195 C   0  0  0  0  0  0  0  0  0  0  0  0
   15.4476   25.2956   -1.5900 C   0  0  0  0  0  0  0  0  0  0  0  0
   17.7493   25.7884   -2.1108 O   0  0  0  0  0  0  0  0  0  0  0  0
   16.0730   29.2714   -6.2386 C   0  0  0  0  0  0  0  0  0  0  0  0
   16.5177   28.3526   -5.1414 C   0  0  0  0  0  0  0  0  0  0  0  0
   16.3789   26.9846   -5.2614 C   0  0  0  0  0  0  0  0  0  0  0  0
   16.7804   26.0960   -4.2655 C   0  0  0  0  0  0  0  0  0  0  0  0
   17.3365   26.6146   -3.1210 C   0  0  0  0  0  0  0  0  0  0  0  0
   17.4729   27.9979   -3.0080 C   0  0  0  0  0  0  0  0  0  0  0  0
   17.0783   28.8762   -3.9869 C   0  0  0  0  0  0  0  0  0  0  0  0
 27 28  1  0  0  0
 28 29  2  0  0  0
 29 30  1  0  0  0
 30 31  2  0  0  0
 31 26  1  0  0  0
 26 20  1  0  0  0
 20 21  2  0  0  0
 21 22  1  0  0  0
 22 23  2  0  0  0
 23 19  1  0  0  0
 19  1  1  0  0  0
  1  2  1  0  0  0
  2  3  1  0  0  0
  3  4  1  0  0  0
  4  5  1  0  0  0
  4  6  2  0  0  0
  6 10  1  0  0  0
 10 11  2  0  0  0
 10 12  1  0  0  0
 12 14  1  0  0  0
 14 15  1  0  0  0
 15 16  1  0  0  0
 15 17  1  0  0  0
 15 18  1  0  0  0
  6  7  1  0  0  0
  7  8  2  0  0  0
 23 24  1  0  0  0
 24 25  2  0  0  0
 31 32  1  0  0  0
 32 33  2  0  0  0
 33 28  1  0  0  0
 25 20  1  0  0  0
  7  1  1  0  0  0
  5  9  1  0  0  0
 12 13  1  0  0  0
M  END
> <minimizedAffinity>
1.56951

> <CNNscore>
0.5027005672

> <CNNaffinity>
6.8214530945

> <CNN_VS>
3.4291484356

> <CNNaffinity_variance>
0.9263887405

$$$$
[H]OC1=C(C(=O)N([H])C([H])([H])C(C([H])([H])[H])(C([H])([H])[H])C([H])([H])[H])C(=O)N(C([H])([H])c2c([H])c([H])c(Oc3c([H])c([H])c(C([H])([H])[H])c([H])c3[H])c([H])c2[H])C([H])([H])C1([H])[H]


 33 35  0  0  0  0  0  0  0  0999 V2000
    8.7209   24.8381    0.9453 N   0  0  0  0  0  0  0  0  0  0  0  0
    7.7596   25.4289    1.8120 C   0  0  0  0  0  0  0  0  0  0  0  0
    8.0685   25.1636    3.2364 C   0  0  0  0  0  0  0  0  0  0  0  0
    8.5482   23.7959    3.5136 C   0  0  0  0  0  0  0  0  0  0  0  0
    8.3930   23.3655    4.8411 O   0  0  0  0  0  0  0  0  0  0  0  0
    9.0922   22.9746    2.6401 C   0  0  0  0  0  0  0  0  0  0  0  0
    9.1883   23.5248    1.2672 C   0  0  0  0  0  0  0  0  0  0  0  0
    9.6989   22.7961    0.3810 O   0  0  0  0  0  0  0  0  0  0  0  0
    8.9785   23.7412    5.5989 H   0  0  0  0  0  0  0  0  0  0  0  0
    9.5677   21.6295    2.9041 C   0  0  0  0  0  0  0  0  0  0  0  0
    8.8739   20.9648    3.7776 O   0  0  0  0  0  0  0  0  0  0  0  0
   10.6488   20.9611    2.3603 N   0  0  0  0  0  0  0  0  0  0  0  0
   11.2887   21.3467    1.6635 H   0  0  0  0  0  0  0  0  0  0  0  0
   10.9319   19.5905    2.7918 C   0  0  0  0  0  0  0  0  0  0  0  0
   11.5231   19.5489    4.1629 C   0  0  0  0  0  0  0  0  0  0  0  0
   10.6162   18.8594    5.1545 C   0  0  0  0  0  0  0  0  0  0  0  0
   11.7808   20.9472    4.6853 C   0  0  0  0  0  0  0  0  0  0  0  0
   12.8095   18.7419    4.1036 C   0  0  0  0  0  0  0  0  0  0  0  0
    9.2564   25.4214   -0.2460 C   0  0  0  0  0  0  0  0  0  0  0  0
   13.3297   24.7051   -1.1589 C   0  0  0  0  0  0  0  0  0  0  0  0
   12.6734   25.7852   -1.7014 C   0  0  0  0  0  0  0  0  0  0  0  0
   11.3222   26.0241   -1.4000 C   0  0  0  0  0  0  0  0  0  0  0  0
   10.6463   25.1691   -0.5526 C   0  0  0  0  0  0  0  0  0  0  0  0
   11.3272   24.1071   -0.0324 C   0  0  0  0  0  0  0  0  0  0  0  0
   12.6404   23.8676   -0.3190 C   0  0  0  0  0  0  0  0  0  0  0  0
   14.6845   24.4556   -1.4539 O   0  0  0  0  0  0  0  0  0  0  0  0
   16.6780   25.8136   -6.5688 C   0  0  0  0  0  0  0  0  0  0  0  0
   16.1494   25.4589   -5.2121 C   0  0  0  0  0  0  0  0  0  0  0  0
   15.7335   24.1743   -4.9260 C   0  0  0  0  0  0  0  0  0  0  0  0
   15.2370   23.8032   -3.6777 C   0  0  0  0  0  0  0  0  0  0  0  0
   15.1631   24.7643   -2.6985 C   0  0  0  0  0  0  0  0  0  0  0  0
   15.5854   26.0598   -2.9962 C   0  0  0  0  0  0  0  0  0  0  0  0
   16.0747   26.4289   -4.2248 C   0  0  0  0  0  0  0  0  0  0  0  0
 27 28  1  0  0  0
 28 29  2  0  0  0
 29 30  1  0  0  0
 30 31  2  0  0  0
 31 26  1  0  0  0
 26 20  1  0  0  0
 20 21  2  0  0  0
 21 22  1  0  0  0
 22 23  2  0  0  0
 23 19  1  0  0  0
 19  1  1  0  0  0
  1  2  1  0  0  0
  2  3  1  0  0  0
  3  4  1  0  0  0
  4  5  1  0  0  0
  4  6  2  0  0  0
  6 10  1  0  0  0
 10 11  2  0  0  0
 10 12  1  0  0  0
 12 14  1  0  0  0
 14 15  1  0  0  0
 15 16  1  0  0  0
 15 17  1  0  0  0
 15 18  1  0  0  0
  6  7  1  0  0  0
  7  8  2  0  0  0
 23 24  1  0  0  0
 24 25  2  0  0  0
 31 32  1  0  0  0
 32 33  2  0  0  0
 33 28  1  0  0  0
 25 20  1  0  0  0
  7  1  1  0  0  0
  5  9  1  0  0  0
 12 13  1  0  0  0
M  END
> <minimizedAffinity>
7.98305

> <CNNscore>
0.5015998483

> <CNNaffinity>
6.5786819458

> <CNN_VS>
3.2998659611

> <CNNaffinity_variance>
1.4032933712

$$$$
[H]OC1=C(C(=O)N([H])C([H])([H])C(C([H])([H])[H])(C([H])([H])[H])C([H])([H])[H])C(=O)N(C([H])([H])c2c([H])c([H])c(Oc3c([H])c([H])c(C([H])([H])[H])c([H])c3[H])c([H])c2[H])C([H])([H])C1([H])[H]


 33 35  0  0  0  0  0  0  0  0999 V2000
   13.5367   22.1924   -0.5120 N   0  0  0  0  0  0  0  0  0  0  0  0
   12.9998   20.9921   -1.0555 C   0  0  0  0  0  0  0  0  0  0  0  0
   11.5303   21.0750   -1.2237 C   0  0  0  0  0  0  0  0  0  0  0  0
   10.8248   21.7456   -0.1146 C   0  0  0  0  0  0  0  0  0  0  0  0
    9.4616   21.4306    0.0041 O   0  0  0  0  0  0  0  0  0  0  0  0
   11.3581   22.5887    0.7446 C   0  0  0  0  0  0  0  0  0  0  0  0
   12.8054   22.8324    0.5379 C   0  0  0  0  0  0  0  0  0  0  0  0
   13.3807   23.6281    1.3207 O   0  0  0  0  0  0  0  0  0  0  0  0
    8.7689   21.7826   -0.6700 H   0  0  0  0  0  0  0  0  0  0  0  0
   10.6719   23.2534    1.8367 C   0  0  0  0  0  0  0  0  0  0  0  0
   10.4588   24.5218    1.6586 O   0  0  0  0  0  0  0  0  0  0  0  0
   10.2170   22.7292    3.0324 N   0  0  0  0  0  0  0  0  0  0  0  0
   10.3084   21.7529    3.3191 H   0  0  0  0  0  0  0  0  0  0  0  0
    9.5460   23.6113    3.9897 C   0  0  0  0  0  0  0  0  0  0  0  0
    8.2172   23.0719    4.4076 C   0  0  0  0  0  0  0  0  0  0  0  0
    7.4579   22.4663    3.2510 C   0  0  0  0  0  0  0  0  0  0  0  0
    7.3477   24.1651    4.9937 C   0  0  0  0  0  0  0  0  0  0  0  0
    8.4498   21.9590    5.4160 C   0  0  0  0  0  0  0  0  0  0  0  0
   14.7636   22.8195   -0.8963 C   0  0  0  0  0  0  0  0  0  0  0  0
   14.5049   26.2657   -3.3450 C   0  0  0  0  0  0  0  0  0  0  0  0
   13.3681   25.5816   -2.9820 C   0  0  0  0  0  0  0  0  0  0  0  0
   13.4521   24.4381   -2.1702 C   0  0  0  0  0  0  0  0  0  0  0  0
   14.6846   23.9962   -1.7321 C   0  0  0  0  0  0  0  0  0  0  0  0
   15.7919   24.6978   -2.1112 C   0  0  0  0  0  0  0  0  0  0  0  0
   15.7198   25.8105   -2.8991 C   0  0  0  0  0  0  0  0  0  0  0  0
   14.4329   27.4136   -4.1585 O   0  0  0  0  0  0  0  0  0  0  0  0
    9.6186   30.3791   -4.2500 C   0  0  0  0  0  0  0  0  0  0  0  0
   10.8921   29.5895   -4.2289 C   0  0  0  0  0  0  0  0  0  0  0  0
   12.0633   30.1442   -3.7538 C   0  0  0  0  0  0  0  0  0  0  0  0
   13.2679   29.4442   -3.7160 C   0  0  0  0  0  0  0  0  0  0  0  0
   13.2781   28.1484   -4.1731 C   0  0  0  0  0  0  0  0  0  0  0  0
   12.0904   27.5958   -4.6514 C   0  0  0  0  0  0  0  0  0  0  0  0
   10.9021   28.2826   -4.6903 C   0  0  0  0  0  0  0  0  0  0  0  0
 27 28  1  0  0  0
 28 29  2  0  0  0
 29 30  1  0  0  0
 30 31  2  0  0  0
 31 26  1  0  0  0
 26 20  1  0  0  0
 20 21  2  0  0  0
 21 22  1  0  0  0
 22 23  2  0  0  0
 23 19  1  0  0  0
 19  1  1  0  0  0
  1  2  1  0  0  0
  2  3  1  0  0  0
  3  4  1  0  0  0
  4  5  1  0  0  0
  4  6  2  0  0  0
  6 10  1  0  0  0
 10 11  2  0  0  0
 10 12  1  0  0  0
 12 14  1  0  0  0
 14 15  1  0  0  0
 15 16  1  0  0  0
 15 17  1  0  0  0
 15 18  1  0  0  0
  6  7  1  0  0  0
  7  8  2  0  0  0
 23 24  1  0  0  0
 24 25  2  0  0  0
 31 32  1  0  0  0
 32 33  2  0  0  0
 33 28  1  0  0  0
 25 20  1  0  0  0
  7  1  1  0  0  0
  5  9  1  0  0  0
 12 13  1  0  0  0
M  END
> <minimizedAffinity>
7.03536

> <CNNscore>
0.4903299809

> <CNNaffinity>
6.9283189774

> <CNN_VS>
3.3971624374

> <CNNaffinity_variance>
0.8012850881

$$$$
[H]OC1=C(C(=O)N([H])C([H])([H])C(C([H])([H])[H])(C([H])([H])[H])C([H])([H])[H])C(=O)N(C([H])([H])c2c([H])c([H])c(Oc3c([H])c([H])c(C([H])([H])[H])c([H])c3[H])c([H])c2[H])C([H])([H])C1([H])[H]


 33 35  0  0  0  0  0  0  0  0999 V2000
   13.5838   25.9349   -2.6909 N   0  0  0  0  0  0  0  0  0  0  0  0
   14.3292   26.5264   -3.7486 C   0  0  0  0  0  0  0  0  0  0  0  0
   14.6501   25.5441   -4.8101 C   0  0  0  0  0  0  0  0  0  0  0  0
   15.0355   24.2097   -4.3120 C   0  0  0  0  0  0  0  0  0  0  0  0
   15.7847   23.4304   -5.2082 O   0  0  0  0  0  0  0  0  0  0  0  0
   14.7411   23.7100   -3.1300 C   0  0  0  0  0  0  0  0  0  0  0  0
   13.9656   24.6253   -2.2597 C   0  0  0  0  0  0  0  0  0  0  0  0
   13.6477   24.2139   -1.1166 O   0  0  0  0  0  0  0  0  0  0  0  0
   15.3551   23.0115   -6.0437 H   0  0  0  0  0  0  0  0  0  0  0  0
   15.1147   22.3991   -2.6327 C   0  0  0  0  0  0  0  0  0  0  0  0
   15.9309   21.7363   -3.3946 O   0  0  0  0  0  0  0  0  0  0  0  0
   14.7254   21.7608   -1.4697 N   0  0  0  0  0  0  0  0  0  0  0  0
   14.0904   22.1493   -0.7701 H   0  0  0  0  0  0  0  0  0  0  0  0
   15.2428   20.4212   -1.1826 C   0  0  0  0  0  0  0  0  0  0  0  0
   15.4850   20.2185    0.2774 C   0  0  0  0  0  0  0  0  0  0  0  0
   14.1980   20.0708    1.0541 C   0  0  0  0  0  0  0  0  0  0  0  0
   16.2365   21.3924    0.8707 C   0  0  0  0  0  0  0  0  0  0  0  0
   16.2618   18.9249    0.4572 C   0  0  0  0  0  0  0  0  0  0  0  0
   12.4923   26.5350   -1.9876 C   0  0  0  0  0  0  0  0  0  0  0  0
   10.2518   24.0721    0.6303 C   0  0  0  0  0  0  0  0  0  0  0  0
   10.0862   23.9738   -0.7316 C   0  0  0  0  0  0  0  0  0  0  0  0
   10.8282   24.7902   -1.6014 C   0  0  0  0  0  0  0  0  0  0  0  0
   11.7314   25.6988   -1.0869 C   0  0  0  0  0  0  0  0  0  0  0  0
   11.8705   25.7709    0.2687 C   0  0  0  0  0  0  0  0  0  0  0  0
   11.1543   24.9810    1.1216 C   0  0  0  0  0  0  0  0  0  0  0  0
    9.5134   23.2586    1.5121 O   0  0  0  0  0  0  0  0  0  0  0  0
   12.0409   18.8710    4.0302 C   0  0  0  0  0  0  0  0  0  0  0  0
   11.3718   20.0366    3.3673 C   0  0  0  0  0  0  0  0  0  0  0  0
   11.1462   20.0453    2.0056 C   0  0  0  0  0  0  0  0  0  0  0  0
   10.5266   21.1083    1.3510 C   0  0  0  0  0  0  0  0  0  0  0  0
   10.1276   22.1873    2.1025 C   0  0  0  0  0  0  0  0  0  0  0  0
   10.3595   22.1703    3.4776 C   0  0  0  0  0  0  0  0  0  0  0  0
   10.9698   21.1249    4.1257 C   0  0  0  0  0  0  0  0  0  0  0  0
 27 28  1  0  0  0
 28 29  2  0  0  0
 29 30  1  0  0  0
 30 31  2  0  0  0
 31 26  1  0  0  0
 26 20  1  0  0  0
 20 21  2  0  0  0
 21 22  1  0  0  0
 22 23  2  0  0  0
 23 19  1  0  0  0
 19  1  1  0  0  0
  1  2  1  0  0  0
  2  3  1  0  0  0
  3  4  1  0  0  0
  4  5  1  0  0  0
  4  6  2  0  0  0
  6 10  1  0  0  0
 10 11  2  0  0  0
 10 12  1  0  0  0
 12 14  1  0  0  0
 14 15  1  0  0  0
 15 16  1  0  0  0
 15 17  1  0  0  0
 15 18  1  0  0  0
  6  7  1  0  0  0
  7  8  2  0  0  0
 23 24  1  0  0  0
 24 25  2  0  0  0
 31 32  1  0  0  0
 32 33  2  0  0  0
 33 28  1  0  0  0
 25 20  1  0  0  0
  7  1  1  0  0  0
  5  9  1  0  0  0
 12 13  1  0  0  0
M  END
> <minimizedAffinity>
2.35171

> <CNNscore>
0.4841245711

> <CNNaffinity>
7.0065002441

> <CNN_VS>
3.3920190334

> <CNNaffinity_variance>
0.8814254999

$$$$
[H]OC1=C(C(=O)N([H])C([H])([H])C(C([H])([H])[H])(C([H])([H])[H])C([H])([H])[H])C(=O)N(C([H])([H])c2c([H])c([H])c(Oc3c([H])c([H])c(C([H])([H])[H])c([H])c3[H])c([H])c2[H])C([H])([H])C1([H])[H]


 33 35  0  0  0  0  0  0  0  0999 V2000
   11.3778   22.7439   -1.4513 N   0  0  0  0  0  0  0  0  0  0  0  0
   11.4633   21.3605   -1.7723 C   0  0  0  0  0  0  0  0  0  0  0  0
   10.1932   20.6521   -1.4901 C   0  0  0  0  0  0  0  0  0  0  0  0
    9.5280   21.0645   -0.2392 C   0  0  0  0  0  0  0  0  0  0  0  0
    8.6275   20.1291    0.2955 O   0  0  0  0  0  0  0  0  0  0  0  0
    9.7084   22.2047    0.3939 C   0  0  0  0  0  0  0  0  0  0  0  0
   10.6941   23.1064   -0.2481 C   0  0  0  0  0  0  0  0  0  0  0  0
   10.9158   24.2139    0.3009 O   0  0  0  0  0  0  0  0  0  0  0  0
    7.7169   19.9473   -0.1471 H   0  0  0  0  0  0  0  0  0  0  0  0
    9.0579   22.6187    1.6230 C   0  0  0  0  0  0  0  0  0  0  0  0
    9.8379   22.6893    2.6587 O   0  0  0  0  0  0  0  0  0  0  0  0
    7.7330   22.9456    1.8446 N   0  0  0  0  0  0  0  0  0  0  0  0
    6.9990   22.9389    1.1341 H   0  0  0  0  0  0  0  0  0  0  0  0
    7.3094   23.3375    3.1906 C   0  0  0  0  0  0  0  0  0  0  0  0
    8.0216   22.5585    4.2476 C   0  0  0  0  0  0  0  0  0  0  0  0
    7.1267   22.2398    5.4219 C   0  0  0  0  0  0  0  0  0  0  0  0
    9.2092   23.3310    4.7837 C   0  0  0  0  0  0  0  0  0  0  0  0
    8.4576   21.2311    3.6499 C   0  0  0  0  0  0  0  0  0  0  0  0
   11.9359   23.8229   -2.2066 C   0  0  0  0  0  0  0  0  0  0  0  0
   16.1152   24.4599   -1.9499 C   0  0  0  0  0  0  0  0  0  0  0  0
   15.5833   23.7354   -2.9911 C   0  0  0  0  0  0  0  0  0  0  0  0
   14.1973   23.5229   -3.0776 C   0  0  0  0  0  0  0  0  0  0  0  0
   13.3611   24.0447   -2.1109 C   0  0  0  0  0  0  0  0  0  0  0  0
   13.9218   24.7578   -1.0915 C   0  0  0  0  0  0  0  0  0  0  0  0
   15.2674   24.9701   -0.9998 C   0  0  0  0  0  0  0  0  0  0  0  0
   17.5034   24.6795   -1.8529 O   0  0  0  0  0  0  0  0  0  0  0  0
   19.9061   24.4221    3.2599 C   0  0  0  0  0  0  0  0  0  0  0  0
   19.2650   24.4924    1.9072 C   0  0  0  0  0  0  0  0  0  0  0  0
   20.0094   24.3132    0.7588 C   0  0  0  0  0  0  0  0  0  0  0  0
   19.4519   24.3697   -0.5173 C   0  0  0  0  0  0  0  0  0  0  0  0
   18.1040   24.6143   -0.6247 C   0  0  0  0  0  0  0  0  0  0  0  0
   17.3594   24.7941    0.5407 C   0  0  0  0  0  0  0  0  0  0  0  0
   17.9054   24.7394    1.7994 C   0  0  0  0  0  0  0  0  0  0  0  0
 27 28  1  0  0  0
 28 29  2  0  0  0
 29 30  1  0  0  0
 30 31  2  0  0  0
 31 26  1  0  0  0
 26 20  1  0  0  0
 20 21  2  0  0  0
 21 22  1  0  0  0
 22 23  2  0  0  0
 23 19  1  0  0  0
 19  1  1  0  0  0
  1  2  1  0  0  0
  2  3  1  0  0  0
  3  4  1  0  0  0
  4  5  1  0  0  0
  4  6  2  0  0  0
  6 10  1  0  0  0
 10 11  2  0  0  0
 10 12  1  0  0  0
 12 14  1  0  0  0
 14 15  1  0  0  0
 15 16  1  0  0  0
 15 17  1  0  0  0
 15 18  1  0  0  0
  6  7  1  0  0  0
  7  8  2  0  0  0
 23 24  1  0  0  0
 24 25  2  0  0  0
 31 32  1  0  0  0
 32 33  2  0  0  0
 33 28  1  0  0  0
 25 20  1  0  0  0
  7  1  1  0  0  0
  5  9  1  0  0  0
 12 13  1  0  0  0
M  END
> <minimizedAffinity>
8.90997

> <CNNscore>
0.4670062065

> <CNNaffinity>
6.6493239403

> <CNN_VS>
3.1052756310

> <CNNaffinity_variance>
0.7270379066

$$$$
[H]c1c([H])c(S(=O)(=O)N([H])[C@]([H])(C(=O)N2C([H])([H])C([H])([H])N(c3c([H])c([H])c(Cl)c([H])c3N3C(=O)OC(C([H])([H])[H])(C([H])([H])C([H])([H])[H])C3=O)C([H])([H])C2([H])[H])C([H])([H])[H])c([H])c([H])c1F


 39 42  0  0  0  0  0  0  0  0999 V2000
   13.8618   23.5890   -1.1251 N   0  0  0  0  0  0  0  0  0  0  0  0
   13.4683   22.4015   -1.8521 C   0  0  0  0  0  0  0  0  0  0  0  0
   12.1227   21.9017   -1.3782 C   0  0  0  0  0  0  0  0  0  0  0  0
   11.4154   22.8945   -0.6051 N   0  0  0  0  0  0  0  0  0  0  0  0
   11.4763   24.2557   -1.0422 C   0  0  0  0  0  0  0  0  0  0  0  0
   12.9281   24.6851   -0.9994 C   0  0  0  0  0  0  0  0  0  0  0  0
   10.6703   22.5162    0.5240 C   0  0  0  0  0  0  0  0  0  0  0  0
   10.6370   21.2525    0.8036 O   0  0  0  0  0  0  0  0  0  0  0  0
   16.1078   24.4777   -1.1502 C   0  0  0  0  0  0  0  0  0  0  0  0
   17.3441   24.5846   -0.4843 C   0  0  0  0  0  0  0  0  0  0  0  0
   17.5926   24.0163    0.7217 C   0  0  0  0  0  0  0  0  0  0  0  0
   19.1685   24.2248    1.4396 Cl  0  0  0  0  0  0  0  0  0  0  0  0
   16.5980   23.2965    1.3385 C   0  0  0  0  0  0  0  0  0  0  0  0
   15.3662   23.1524    0.7430 C   0  0  0  0  0  0  0  0  0  0  0  0
   15.1398   23.7525   -0.5062 C   0  0  0  0  0  0  0  0  0  0  0  0
   15.0143   25.6353   -4.5378 C   0  0  0  0  0  0  0  0  0  0  0  0
   15.2799   25.2849   -5.9610 C   0  0  0  0  0  0  0  0  0  0  0  0
   15.8785   26.6637   -4.0974 O   0  0  0  0  0  0  0  0  0  0  0  0
   16.2262   26.4514   -2.7557 C   0  0  0  0  0  0  0  0  0  0  0  0
   16.7237   27.3468   -2.0183 O   0  0  0  0  0  0  0  0  0  0  0  0
   15.9282   25.1107   -2.4033 N   0  0  0  0  0  0  0  0  0  0  0  0
   15.3899   24.5308   -3.5819 C   0  0  0  0  0  0  0  0  0  0  0  0
   15.2614   23.2937   -3.7647 O   0  0  0  0  0  0  0  0  0  0  0  0
   13.3656   27.5121   -4.3572 C   0  0  0  0  0  0  0  0  0  0  0  0
   13.5673   26.0340   -4.3280 C   0  0  0  0  0  0  0  0  0  0  0  0
    9.9279   23.4595    1.4011 C   0  0  0  0  0  0  0  0  0  0  0  0
   10.6864   24.7769    1.4544 C   0  0  0  0  0  0  0  0  0  0  0  0
    9.8828   22.8686    2.7322 N   0  0  0  0  0  0  0  0  0  0  0  0
   10.1956   21.8977    2.7358 H   0  0  0  0  0  0  0  0  0  0  0  0
    8.4458   23.2201    3.5761 S   0  0  0  0  0  0  0  0  0  0  0  0
    8.6467   22.7946    5.0203 O   0  0  0  0  0  0  0  0  0  0  0  0
    7.2846   22.5283    2.9681 O   0  0  0  0  0  0  0  0  0  0  0  0
    8.1126   24.9324    3.5861 C   0  0  0  0  0  0  0  0  0  0  0  0
    7.1174   25.5185    2.8347 C   0  0  0  0  0  0  0  0  0  0  0  0
    6.8721   26.8903    2.8626 C   0  0  0  0  0  0  0  0  0  0  0  0
    7.6401   27.6981    3.6608 C   0  0  0  0  0  0  0  0  0  0  0  0
    7.4060   29.0408    3.6934 F   0  0  0  0  0  0  0  0  0  0  0  0
    8.6396   27.1407    4.4204 C   0  0  0  0  0  0  0  0  0  0  0  0
    8.8697   25.7894    4.3832 C   0  0  0  0  0  0  0  0  0  0  0  0
 24 25  1  0  0  0
 25 16  1  0  0  0
 16 17  1  0  0  0
 16 18  1  0  0  0
 18 19  1  0  0  0
 19 20  2  0  0  0
 19 21  1  0  0  0
 21 22  1  0  0  0
 22 23  2  0  0  0
 21  9  1  0  0  0
  9 10  2  0  0  0
 10 11  1  0  0  0
 11 12  1  0  0  0
 11 13  2  0  0  0
 13 14  1  0  0  0
 14 15  2  0  0  0
 15  1  1  0  0  0
  1  2  1  0  0  0
  2  3  1  0  0  0
  3  4  1  0  0  0
  4  5  1  0  0  0
  5  6  1  0  0  0
  4  7  1  0  0  0
  7  8  2  0  0  0
  7 26  1  0  0  0
 26 27  1  0  0  0
 26 28  1  0  0  0
 28 30  1  0  0  0
 30 31  2  0  0  0
 30 32  2  0  0  0
 30 33  1  0  0  0
 33 34  2  0  0  0
 34 35  1  0  0  0
 35 36  2  0  0  0
 36 37  1  0  0  0
 36 38  1  0  0  0
 38 39  2  0  0  0
 22 16  1  0  0  0
 15  9  1  0  0  0
  6  1  1  0  0  0
 39 33  1  0  0  0
 28 29  1  0  0  0
M  END
> <minimizedAffinity>
-5.15418

> <CNNscore>
0.6320058703

> <CNNaffinity>
7.9592971802

> <CNN_VS>
5.0303225517

> <CNNaffinity_variance>
0.1742312908

$$$$
[H]c1c([H])c(S(=O)(=O)N([H])[C@]([H])(C(=O)N2C([H])([H])C([H])([H])N(c3c([H])c([H])c(Cl)c([H])c3N3C(=O)OC(C([H])([H])[H])(C([H])([H])C([H])([H])[H])C3=O)C([H])([H])C2([H])[H])C([H])([H])[H])c([H])c([H])c1F


 39 42  0  0  0  0  0  0  0  0999 V2000
   13.8042   23.7806   -1.2559 N   0  0  0  0  0  0  0  0  0  0  0  0
   13.4861   22.7060   -2.1710 C   0  0  0  0  0  0  0  0  0  0  0  0
   12.1701   22.0588   -1.8043 C   0  0  0  0  0  0  0  0  0  0  0  0
   11.4007   22.8705   -0.8917 N   0  0  0  0  0  0  0  0  0  0  0  0
   11.3826   24.2857   -1.1022 C   0  0  0  0  0  0  0  0  0  0  0  0
   12.8061   24.7859   -0.9688 C   0  0  0  0  0  0  0  0  0  0  0  0
   10.6733   22.2716    0.1502 C   0  0  0  0  0  0  0  0  0  0  0  0
   10.7140   20.9795    0.2215 O   0  0  0  0  0  0  0  0  0  0  0  0
   16.0705   24.6153   -1.2163 C   0  0  0  0  0  0  0  0  0  0  0  0
   17.2887   24.6947   -0.5141 C   0  0  0  0  0  0  0  0  0  0  0  0
   17.4875   24.1243    0.7002 C   0  0  0  0  0  0  0  0  0  0  0  0
   19.0459   24.2973    1.4642 Cl  0  0  0  0  0  0  0  0  0  0  0  0
   16.4581   23.4305    1.2888 C   0  0  0  0  0  0  0  0  0  0  0  0
   15.2414   23.3139    0.6572 C   0  0  0  0  0  0  0  0  0  0  0  0
   15.0668   23.9155   -0.5996 C   0  0  0  0  0  0  0  0  0  0  0  0
   15.1492   25.7440   -4.6642 C   0  0  0  0  0  0  0  0  0  0  0  0
   15.5266   25.4186   -6.0679 C   0  0  0  0  0  0  0  0  0  0  0  0
   15.9292   26.8106   -4.1621 O   0  0  0  0  0  0  0  0  0  0  0  0
   16.1966   26.6052   -2.8010 C   0  0  0  0  0  0  0  0  0  0  0  0
   16.5981   27.5184   -2.0277 O   0  0  0  0  0  0  0  0  0  0  0  0
   15.9436   25.2486   -2.4756 N   0  0  0  0  0  0  0  0  0  0  0  0
   15.5151   24.6519   -3.6904 C   0  0  0  0  0  0  0  0  0  0  0  0
   15.4614   23.4115   -3.8871 O   0  0  0  0  0  0  0  0  0  0  0  0
   13.4228   27.4666   -4.0936 C   0  0  0  0  0  0  0  0  0  0  0  0
   13.6732   26.0684   -4.5502 C   0  0  0  0  0  0  0  0  0  0  0  0
    9.8713   23.0155    1.1569 C   0  0  0  0  0  0  0  0  0  0  0  0
   10.7385   24.1097    1.7607 C   0  0  0  0  0  0  0  0  0  0  0  0
    9.4910   22.0662    2.1948 N   0  0  0  0  0  0  0  0  0  0  0  0
   10.1395   21.2814    2.2584 H   0  0  0  0  0  0  0  0  0  0  0  0
    7.8285   21.6961    2.1917 S   0  0  0  0  0  0  0  0  0  0  0  0
    7.0680   23.0020    2.3439 O   0  0  0  0  0  0  0  0  0  0  0  0
    7.4892   20.7462    3.2775 O   0  0  0  0  0  0  0  0  0  0  0  0
    7.3342   20.9867    0.6765 C   0  0  0  0  0  0  0  0  0  0  0  0
    6.5679   21.6471   -0.2590 C   0  0  0  0  0  0  0  0  0  0  0  0
    6.1879   21.0562   -1.4628 C   0  0  0  0  0  0  0  0  0  0  0  0
    6.5826   19.7730   -1.7401 C   0  0  0  0  0  0  0  0  0  0  0  0
    6.2149   19.1884   -2.9156 F   0  0  0  0  0  0  0  0  0  0  0  0
    7.3470   19.0906   -0.8253 C   0  0  0  0  0  0  0  0  0  0  0  0
    7.7137   19.6845    0.3550 C   0  0  0  0  0  0  0  0  0  0  0  0
 24 25  1  0  0  0
 25 16  1  0  0  0
 16 17  1  0  0  0
 16 18  1  0  0  0
 18 19  1  0  0  0
 19 20  2  0  0  0
 19 21  1  0  0  0
 21 22  1  0  0  0
 22 23  2  0  0  0
 21  9  1  0  0  0
  9 10  2  0  0  0
 10 11  1  0  0  0
 11 12  1  0  0  0
 11 13  2  0  0  0
 13 14  1  0  0  0
 14 15  2  0  0  0
 15  1  1  0  0  0
  1  2  1  0  0  0
  2  3  1  0  0  0
  3  4  1  0  0  0
  4  5  1  0  0  0
  5  6  1  0  0  0
  4  7  1  0  0  0
  7  8  2  0  0  0
  7 26  1  0  0  0
 26 27  1  0  0  0
 26 28  1  0  0  0
 28 30  1  0  0  0
 30 31  2  0  0  0
 30 32  2  0  0  0
 30 33  1  0  0  0
 33 34  2  0  0  0
 34 35  1  0  0  0
 35 36  2  0  0  0
 36 37  1  0  0  0
 36 38  1  0  0  0
 38 39  2  0  0  0
 22 16  1  0  0  0
 15  9  1  0  0  0
  6  1  1  0  0  0
 39 33  1  0  0  0
 28 29  1  0  0  0
M  END
> <minimizedAffinity>
-4.11462

> <CNNscore>
0.5472419262

> <CNNaffinity>
7.9082307816

> <CNN_VS>
4.3277153969

> <CNNaffinity_variance>
0.3621806204

$$$$
[H]c1c([H])c(S(=O)(=O)N([H])[C@]([H])(C(=O)N2C([H])([H])C([H])([H])N(c3c([H])c([H])c(Cl)c([H])c3N3C(=O)OC(C([H])([H])[H])(C([H])([H])C([H])([H])[H])C3=O)C([H])([H])C2([H])[H])C([H])([H])[H])c([H])c([H])c1F


 39 42  0  0  0  0  0  0  0  0999 V2000
   12.6768   24.7417   -0.7358 N   0  0  0  0  0  0  0  0  0  0  0  0
   12.1366   24.4808   -2.0525 C   0  0  0  0  0  0  0  0  0  0  0  0
   10.9146   23.5951   -1.9669 C   0  0  0  0  0  0  0  0  0  0  0  0
   10.3860   23.5261   -0.6254 N   0  0  0  0  0  0  0  0  0  0  0  0
   10.3623   24.7281    0.1504 C   0  0  0  0  0  0  0  0  0  0  0  0
   11.7940   25.1940    0.3156 C   0  0  0  0  0  0  0  0  0  0  0  0
    9.8869   22.3139   -0.1208 C   0  0  0  0  0  0  0  0  0  0  0  0
    9.9058   21.2973   -0.9223 O   0  0  0  0  0  0  0  0  0  0  0  0
   15.0049   24.6934   -1.3781 C   0  0  0  0  0  0  0  0  0  0  0  0
   16.3396   24.5041   -0.9707 C   0  0  0  0  0  0  0  0  0  0  0  0
   16.6959   24.2215    0.3070 C   0  0  0  0  0  0  0  0  0  0  0  0
   18.3866   24.0104    0.6801 Cl  0  0  0  0  0  0  0  0  0  0  0  0
   15.7169   24.1109    1.2645 C   0  0  0  0  0  0  0  0  0  0  0  0
   14.3924   24.2837    0.9345 C   0  0  0  0  0  0  0  0  0  0  0  0
   14.0554   24.5752   -0.3971 C   0  0  0  0  0  0  0  0  0  0  0  0
   14.4811   26.2401   -4.7462 C   0  0  0  0  0  0  0  0  0  0  0  0
   13.3913   26.9438   -5.4783 C   0  0  0  0  0  0  0  0  0  0  0  0
   14.4568   24.8515   -5.0101 O   0  0  0  0  0  0  0  0  0  0  0  0
   14.8235   24.1416   -3.8579 C   0  0  0  0  0  0  0  0  0  0  0  0
   15.1827   22.9316   -3.8739 O   0  0  0  0  0  0  0  0  0  0  0  0
   14.7199   24.9958   -2.7310 N   0  0  0  0  0  0  0  0  0  0  0  0
   14.2790   26.2407   -3.2516 C   0  0  0  0  0  0  0  0  0  0  0  0
   13.8035   27.1701   -2.5513 O   0  0  0  0  0  0  0  0  0  0  0  0
   15.9593   27.2035   -6.5238 C   0  0  0  0  0  0  0  0  0  0  0  0
   15.8392   26.8199   -5.0870 C   0  0  0  0  0  0  0  0  0  0  0  0
    9.3450   22.1292    1.2512 C   0  0  0  0  0  0  0  0  0  0  0  0
    8.2497   23.1581    1.4865 C   0  0  0  0  0  0  0  0  0  0  0  0
   10.4402   22.3608    2.1840 N   0  0  0  0  0  0  0  0  0  0  0  0
   10.9108   23.2501    2.0158 H   0  0  0  0  0  0  0  0  0  0  0  0
   11.4305   20.9941    2.4117 S   0  0  0  0  0  0  0  0  0  0  0  0
   10.5663   19.7623    2.2045 O   0  0  0  0  0  0  0  0  0  0  0  0
   12.0473   20.9980    3.7593 O   0  0  0  0  0  0  0  0  0  0  0  0
   12.7115   20.9284    1.2292 C   0  0  0  0  0  0  0  0  0  0  0  0
   14.0420   20.7821    1.5558 C   0  0  0  0  0  0  0  0  0  0  0  0
   15.0455   20.7316    0.5899 C   0  0  0  0  0  0  0  0  0  0  0  0
   14.7126   20.8299   -0.7364 C   0  0  0  0  0  0  0  0  0  0  0  0
   15.6886   20.7812   -1.6869 F   0  0  0  0  0  0  0  0  0  0  0  0
   13.3936   20.9767   -1.0908 C   0  0  0  0  0  0  0  0  0  0  0  0
   12.4168   21.0247   -0.1298 C   0  0  0  0  0  0  0  0  0  0  0  0
 24 25  1  0  0  0
 25 16  1  0  0  0
 16 17  1  0  0  0
 16 18  1  0  0  0
 18 19  1  0  0  0
 19 20  2  0  0  0
 19 21  1  0  0  0
 21 22  1  0  0  0
 22 23  2  0  0  0
 21  9  1  0  0  0
  9 10  2  0  0  0
 10 11  1  0  0  0
 11 12  1  0  0  0
 11 13  2  0  0  0
 13 14  1  0  0  0
 14 15  2  0  0  0
 15  1  1  0  0  0
  1  2  1  0  0  0
  2  3  1  0  0  0
  3  4  1  0  0  0
  4  5  1  0  0  0
  5  6  1  0  0  0
  4  7  1  0  0  0
  7  8  2  0  0  0
  7 26  1  0  0  0
 26 27  1  0  0  0
 26 28  1  0  0  0
 28 30  1  0  0  0
 30 31  2  0  0  0
 30 32  2  0  0  0
 30 33  1  0  0  0
 33 34  2  0  0  0
 34 35  1  0  0  0
 35 36  2  0  0  0
 36 37  1  0  0  0
 36 38  1  0  0  0
 38 39  2  0  0  0
 22 16  1  0  0  0
 15  9  1  0  0  0
  6  1  1  0  0  0
 39 33  1  0  0  0
 28 29  1  0  0  0
M  END
> <minimizedAffinity>
-2.47863

> <CNNscore>
0.5153484941

> <CNNaffinity>
7.8560400009

> <CNN_VS>
4.0485982895

> <CNNaffinity_variance>
0.2985522747

$$$$
[H]c1c([H])c(S(=O)(=O)N([H])[C@]([H])(C(=O)N2C([H])([H])C([H])([H])N(c3c([H])c([H])c(Cl)c([H])c3N3C(=O)OC(C([H])([H])[H])(C([H])([H])C([H])([H])[H])C3=O)C([H])([H])C2([H])[H])C([H])([H])[H])c([H])c([H])c1F


 39 42  0  0  0  0  0  0  0  0999 V2000
   10.7852   21.2812    2.3954 N   0  0  0  0  0  0  0  0  0  0  0  0
   10.2087   20.6322    1.2378 C   0  0  0  0  0  0  0  0  0  0  0  0
   11.1964   20.5955    0.0940 C   0  0  0  0  0  0  0  0  0  0  0  0
   12.5439   20.8748    0.5300 N   0  0  0  0  0  0  0  0  0  0  0  0
   12.9790   20.3116    1.7714 C   0  0  0  0  0  0  0  0  0  0  0  0
   12.0892   20.8688    2.8631 C   0  0  0  0  0  0  0  0  0  0  0  0
   13.4000   21.6541   -0.2654 C   0  0  0  0  0  0  0  0  0  0  0  0
   12.9259   22.0718   -1.3954 O   0  0  0  0  0  0  0  0  0  0  0  0
    9.5492   23.3562    2.4323 C   0  0  0  0  0  0  0  0  0  0  0  0
    8.9425   24.3567    3.2161 C   0  0  0  0  0  0  0  0  0  0  0  0
    8.9249   24.3330    4.5720 C   0  0  0  0  0  0  0  0  0  0  0  0
    8.1387   25.6358    5.4245 Cl  0  0  0  0  0  0  0  0  0  0  0  0
    9.5250   23.2865    5.2295 C   0  0  0  0  0  0  0  0  0  0  0  0
   10.1364   22.2753    4.5246 C   0  0  0  0  0  0  0  0  0  0  0  0
   10.1380   22.3286    3.1215 C   0  0  0  0  0  0  0  0  0  0  0  0
   10.2280   23.3764   -1.2487 C   0  0  0  0  0  0  0  0  0  0  0  0
   10.7425   24.3317   -2.2692 C   0  0  0  0  0  0  0  0  0  0  0  0
    8.8175   23.4273   -1.1699 O   0  0  0  0  0  0  0  0  0  0  0  0
    8.4079   23.2425    0.1583 C   0  0  0  0  0  0  0  0  0  0  0  0
    7.2271   22.9374    0.4837 O   0  0  0  0  0  0  0  0  0  0  0  0
    9.5135   23.4521    1.0207 N   0  0  0  0  0  0  0  0  0  0  0  0
   10.5975   23.7679    0.1602 C   0  0  0  0  0  0  0  0  0  0  0  0
   11.6755   24.2881    0.5445 O   0  0  0  0  0  0  0  0  0  0  0  0
    9.7388   21.2046   -2.3965 C   0  0  0  0  0  0  0  0  0  0  0  0
   10.6914   21.9618   -1.5331 C   0  0  0  0  0  0  0  0  0  0  0  0
   14.7933   22.0205    0.1014 C   0  0  0  0  0  0  0  0  0  0  0  0
   15.4335   20.8451    0.8240 C   0  0  0  0  0  0  0  0  0  0  0  0
   14.7176   23.1638    1.0016 N   0  0  0  0  0  0  0  0  0  0  0  0
   13.7739   23.3137    1.3589 H   0  0  0  0  0  0  0  0  0  0  0  0
   15.5507   24.5320    0.4232 S   0  0  0  0  0  0  0  0  0  0  0  0
   17.0313   24.3090    0.6789 O   0  0  0  0  0  0  0  0  0  0  0  0
   15.0714   25.7696    1.0829 O   0  0  0  0  0  0  0  0  0  0  0  0
   15.3493   24.7226   -1.2991 C   0  0  0  0  0  0  0  0  0  0  0  0
   16.3492   24.4757   -2.2142 C   0  0  0  0  0  0  0  0  0  0  0  0
   16.1604   24.6353   -3.5860 C   0  0  0  0  0  0  0  0  0  0  0  0
   14.9422   25.0524   -4.0565 C   0  0  0  0  0  0  0  0  0  0  0  0
   14.7500   25.2106   -5.3969 F   0  0  0  0  0  0  0  0  0  0  0  0
   13.9271   25.3062   -3.1665 C   0  0  0  0  0  0  0  0  0  0  0  0
   14.1270   25.1448   -1.8196 C   0  0  0  0  0  0  0  0  0  0  0  0
 24 25  1  0  0  0
 25 16  1  0  0  0
 16 17  1  0  0  0
 16 18  1  0  0  0
 18 19  1  0  0  0
 19 20  2  0  0  0
 19 21  1  0  0  0
 21 22  1  0  0  0
 22 23  2  0  0  0
 21  9  1  0  0  0
  9 10  2  0  0  0
 10 11  1  0  0  0
 11 12  1  0  0  0
 11 13  2  0  0  0
 13 14  1  0  0  0
 14 15  2  0  0  0
 15  1  1  0  0  0
  1  2  1  0  0  0
  2  3  1  0  0  0
  3  4  1  0  0  0
  4  5  1  0  0  0
  5  6  1  0  0  0
  4  7  1  0  0  0
  7  8  2  0  0  0
  7 26  1  0  0  0
 26 27  1  0  0  0
 26 28  1  0  0  0
 28 30  1  0  0  0
 30 31  2  0  0  0
 30 32  2  0  0  0
 30 33  1  0  0  0
 33 34  2  0  0  0
 34 35  1  0  0  0
 35 36  2  0  0  0
 36 37  1  0  0  0
 36 38  1  0  0  0
 38 39  2  0  0  0
 22 16  1  0  0  0
 15  9  1  0  0  0
  6  1  1  0  0  0
 39 33  1  0  0  0
 28 29  1  0  0  0
M  END
> <minimizedAffinity>
-5.30754

> <CNNscore>
0.4571773708

> <CNNaffinity>
7.6419153214

> <CNN_VS>
3.4937107563

> <CNNaffinity_variance>
0.2386375219

$$$$
[H]c1c([H])c(S(=O)(=O)N([H])[C@]([H])(C(=O)N2C([H])([H])C([H])([H])N(c3c([H])c([H])c(Cl)c([H])c3N3C(=O)OC(C([H])([H])[H])(C([H])([H])C([H])([H])[H])C3=O)C([H])([H])C2([H])[H])C([H])([H])[H])c([H])c([H])c1F


 39 42  0  0  0  0  0  0  0  0999 V2000
   13.0187   22.9686   -1.0186 N   0  0  0  0  0  0  0  0  0  0  0  0
   12.7425   21.7587   -1.7626 C   0  0  0  0  0  0  0  0  0  0  0  0
   11.5454   21.0357   -1.1887 C   0  0  0  0  0  0  0  0  0  0  0  0
   10.7746   21.8769   -0.3044 N   0  0  0  0  0  0  0  0  0  0  0  0
   10.5794   23.2443   -0.6780 C   0  0  0  0  0  0  0  0  0  0  0  0
   11.9440   23.8974   -0.7517 C   0  0  0  0  0  0  0  0  0  0  0  0
   10.2151   21.3473    0.8701 C   0  0  0  0  0  0  0  0  0  0  0  0
   10.4065   20.0857    1.0893 O   0  0  0  0  0  0  0  0  0  0  0  0
   15.1091   24.1582   -1.2418 C   0  0  0  0  0  0  0  0  0  0  0  0
   16.3732   24.4406   -0.6888 C   0  0  0  0  0  0  0  0  0  0  0  0
   16.8042   23.9231    0.4883 C   0  0  0  0  0  0  0  0  0  0  0  0
   18.3938   24.3534    1.0630 Cl  0  0  0  0  0  0  0  0  0  0  0  0
   15.9775   23.0787    1.1893 C   0  0  0  0  0  0  0  0  0  0  0  0
   14.7293   22.7606    0.7059 C   0  0  0  0  0  0  0  0  0  0  0  0
   14.3119   23.3124   -0.5160 C   0  0  0  0  0  0  0  0  0  0  0  0
   14.1655   26.4120   -4.0774 C   0  0  0  0  0  0  0  0  0  0  0  0
   12.9254   27.0175   -4.6382 C   0  0  0  0  0  0  0  0  0  0  0  0
   14.4646   25.1851   -4.7126 O   0  0  0  0  0  0  0  0  0  0  0  0
   15.0123   24.2892   -3.7835 C   0  0  0  0  0  0  0  0  0  0  0  0
   15.6468   23.2492   -4.1139 O   0  0  0  0  0  0  0  0  0  0  0  0
   14.7330   24.7489   -2.4717 N   0  0  0  0  0  0  0  0  0  0  0  0
   13.9998   25.9513   -2.6509 C   0  0  0  0  0  0  0  0  0  0  0  0
   13.3327   26.5129   -1.7454 O   0  0  0  0  0  0  0  0  0  0  0  0
   15.9075   27.4299   -5.5615 C   0  0  0  0  0  0  0  0  0  0  0  0
   15.3409   27.3629   -4.1829 C   0  0  0  0  0  0  0  0  0  0  0  0
    9.4281   22.1306    1.8587 C   0  0  0  0  0  0  0  0  0  0  0  0
   10.3840   22.9838    2.6784 C   0  0  0  0  0  0  0  0  0  0  0  0
    8.7559   21.1763    2.7308 N   0  0  0  0  0  0  0  0  0  0  0  0
    9.2905   20.3154    2.8479 H   0  0  0  0  0  0  0  0  0  0  0  0
    7.0939   21.0138    2.3964 S   0  0  0  0  0  0  0  0  0  0  0  0
    6.4462   22.3689    2.6232 O   0  0  0  0  0  0  0  0  0  0  0  0
    6.4750   19.9722    3.2499 O   0  0  0  0  0  0  0  0  0  0  0  0
    6.8162   20.5838    0.7287 C   0  0  0  0  0  0  0  0  0  0  0  0
    6.3992   21.4818   -0.2296 C   0  0  0  0  0  0  0  0  0  0  0  0
    6.1859   21.1110   -1.5561 C   0  0  0  0  0  0  0  0  0  0  0  0
    6.3939   19.8104   -1.9362 C   0  0  0  0  0  0  0  0  0  0  0  0
    6.1875   19.4403   -3.2319 F   0  0  0  0  0  0  0  0  0  0  0  0
    6.8096   18.8936   -1.0015 C   0  0  0  0  0  0  0  0  0  0  0  0
    7.0156   19.2725    0.3001 C   0  0  0  0  0  0  0  0  0  0  0  0
 24 25  1  0  0  0
 25 16  1  0  0  0
 16 17  1  0  0  0
 16 18  1  0  0  0
 18 19  1  0  0  0
 19 20  2  0  0  0
 19 21  1  0  0  0
 21 22  1  0  0  0
 22 23  2  0  0  0
 21  9  1  0  0  0
  9 10  2  0  0  0
 10 11  1  0  0  0
 11 12  1  0  0  0
 11 13  2  0  0  0
 13 14  1  0  0  0
 14 15  2  0  0  0
 15  1  1  0  0  0
  1  2  1  0  0  0
  2  3  1  0  0  0
  3  4  1  0  0  0
  4  5  1  0  0  0
  5  6  1  0  0  0
  4  7  1  0  0  0
  7  8  2  0  0  0
  7 26  1  0  0  0
 26 27  1  0  0  0
 26 28  1  0  0  0
 28 30  1  0  0  0
 30 31  2  0  0  0
 30 32  2  0  0  0
 30 33  1  0  0  0
 33 34  2  0  0  0
 34 35  1  0  0  0
 35 36  2  0  0  0
 36 37  1  0  0  0
 36 38  1  0  0  0
 38 39  2  0  0  0
 22 16  1  0  0  0
 15  9  1  0  0  0
  6  1  1  0  0  0
 39 33  1  0  0  0
 28 29  1  0  0  0
M  END
> <minimizedAffinity>
-5.44907

> <CNNscore>
0.4481632113

> <CNNaffinity>
7.5710387230

> <CNN_VS>
3.3930609226

> <CNNaffinity_variance>
0.2100235671

$$$$
[H]c1c([H])c(S(=O)(=O)N([H])[C@]([H])(C(=O)N2C([H])([H])C([H])([H])N(c3c([H])c([H])c(Cl)c([H])c3N3C(=O)OC(C([H])([H])[H])(C([H])([H])C([H])([H])[H])C3=O)C([H])([H])C2([H])[H])C([H])([H])[H])c([H])c([H])c1F


 39 42  0  0  0  0  0  0  0  0999 V2000
   13.9392   23.2571   -1.2435 N   0  0  0  0  0  0  0  0  0  0  0  0
   13.7210   22.0454   -2.0034 C   0  0  0  0  0  0  0  0  0  0  0  0
   12.4007   21.4087   -1.6336 C   0  0  0  0  0  0  0  0  0  0  0  0
   11.5427   22.3170   -0.9108 N   0  0  0  0  0  0  0  0  0  0  0  0
   11.4993   23.6826   -1.3358 C   0  0  0  0  0  0  0  0  0  0  0  0
   12.8939   24.2535   -1.1828 C   0  0  0  0  0  0  0  0  0  0  0  0
   10.7578   21.8530    0.1578 C   0  0  0  0  0  0  0  0  0  0  0  0
   10.8305   20.5890    0.4283 O   0  0  0  0  0  0  0  0  0  0  0  0
   16.0752   24.3748   -1.0914 C   0  0  0  0  0  0  0  0  0  0  0  0
   17.2425   24.5953   -0.3351 C   0  0  0  0  0  0  0  0  0  0  0  0
   17.4624   24.0302    0.8780 C   0  0  0  0  0  0  0  0  0  0  0  0
   18.9522   24.3859    1.7125 Cl  0  0  0  0  0  0  0  0  0  0  0  0
   16.5075   23.1979    1.4101 C   0  0  0  0  0  0  0  0  0  0  0  0
   15.3435   22.9393    0.7238 C   0  0  0  0  0  0  0  0  0  0  0  0
   15.1453   23.5393   -0.5302 C   0  0  0  0  0  0  0  0  0  0  0  0
   15.0634   25.5291   -4.5053 C   0  0  0  0  0  0  0  0  0  0  0  0
   15.3849   25.1966   -5.9213 C   0  0  0  0  0  0  0  0  0  0  0  0
   15.8851   26.5764   -4.0297 O   0  0  0  0  0  0  0  0  0  0  0  0
   16.1939   26.3631   -2.6787 C   0  0  0  0  0  0  0  0  0  0  0  0
   16.6431   27.2656   -1.9192 O   0  0  0  0  0  0  0  0  0  0  0  0
   15.9202   25.0124   -2.3454 N   0  0  0  0  0  0  0  0  0  0  0  0
   15.4365   24.4275   -3.5451 C   0  0  0  0  0  0  0  0  0  0  0  0
   15.3469   23.1889   -3.7404 O   0  0  0  0  0  0  0  0  0  0  0  0
   13.3591   27.3600   -4.3774 C   0  0  0  0  0  0  0  0  0  0  0  0
   13.6002   25.8881   -4.3408 C   0  0  0  0  0  0  0  0  0  0  0  0
    9.8623   22.7072    0.9814 C   0  0  0  0  0  0  0  0  0  0  0  0
    9.9844   24.1462    0.5037 C   0  0  0  0  0  0  0  0  0  0  0  0
   10.3206   22.6108    2.3612 N   0  0  0  0  0  0  0  0  0  0  0  0
   10.8849   21.7769    2.5246 H   0  0  0  0  0  0  0  0  0  0  0  0
    9.1020   22.9541    3.5005 S   0  0  0  0  0  0  0  0  0  0  0  0
    8.0769   23.8452    2.8207 O   0  0  0  0  0  0  0  0  0  0  0  0
    9.6648   23.6052    4.7071 O   0  0  0  0  0  0  0  0  0  0  0  0
    8.2708   21.5053    4.0039 C   0  0  0  0  0  0  0  0  0  0  0  0
    8.6985   20.7032    5.0393 C   0  0  0  0  0  0  0  0  0  0  0  0
    8.0139   19.5507    5.4213 C   0  0  0  0  0  0  0  0  0  0  0  0
    6.8731   19.1893    4.7525 C   0  0  0  0  0  0  0  0  0  0  0  0
    6.1980   18.0635    5.1206 F   0  0  0  0  0  0  0  0  0  0  0  0
    6.4237   19.9704    3.7158 C   0  0  0  0  0  0  0  0  0  0  0  0
    7.1073   21.1017    3.3508 C   0  0  0  0  0  0  0  0  0  0  0  0
 24 25  1  0  0  0
 25 16  1  0  0  0
 16 17  1  0  0  0
 16 18  1  0  0  0
 18 19  1  0  0  0
 19 20  2  0  0  0
 19 21  1  0  0  0
 21 22  1  0  0  0
 22 23  2  0  0  0
 21  9  1  0  0  0
  9 10  2  0  0  0
 10 11  1  0  0  0
 11 12  1  0  0  0
 11 13  2  0  0  0
 13 14  1  0  0  0
 14 15  2  0  0  0
 15  1  1  0  0  0
  1  2  1  0  0  0
  2  3  1  0  0  0
  3  4  1  0  0  0
  4  5  1  0  0  0
  5  6  1  0  0  0
  4  7  1  0  0  0
  7  8  2  0  0  0
  7 26  1  0  0  0
 26 27  1  0  0  0
 26 28  1  0  0  0
 28 30  1  0  0  0
 30 31  2  0  0  0
 30 32  2  0  0  0
 30 33  1  0  0  0
 33 34  2  0  0  0
 34 35  1  0  0  0
 35 36  2  0  0  0
 36 37  1  0  0  0
 36 38  1  0  0  0
 38 39  2  0  0  0
 22 16  1  0  0  0
 15  9  1  0  0  0
  6  1  1  0  0  0
 39 33  1  0  0  0
 28 29  1  0  0  0
M  END
> <minimizedAffinity>
-4.13368

> <CNNscore>
0.4319788218

> <CNNaffinity>
7.7268042564

> <CNN_VS>
3.3378157616

> <CNNaffinity_variance>
0.2026418000

$$$$
[H]c1c([H])c(S(=O)(=O)N([H])[C@]([H])(C(=O)N2C([H])([H])C([H])([H])N(c3c([H])c([H])c(Cl)c([H])c3N3C(=O)OC(C([H])([H])[H])(C([H])([H])C([H])([H])[H])C3=O)C([H])([H])C2([H])[H])C([H])([H])[H])c([H])c([H])c1F


 39 42  0  0  0  0  0  0  0  0999 V2000
   13.1788   24.9372   -0.6152 N   0  0  0  0  0  0  0  0  0  0  0  0
   12.6019   25.1769   -1.9202 C   0  0  0  0  0  0  0  0  0  0  0  0
   11.4376   24.2466   -2.1730 C   0  0  0  0  0  0  0  0  0  0  0  0
   10.9683   23.6208   -0.9598 N   0  0  0  0  0  0  0  0  0  0  0  0
   10.9065   24.4175    0.2271 C   0  0  0  0  0  0  0  0  0  0  0  0
   12.3145   24.8788    0.5419 C   0  0  0  0  0  0  0  0  0  0  0  0
   10.5608   22.2766   -0.9665 C   0  0  0  0  0  0  0  0  0  0  0  0
   10.6060   21.6596   -2.1038 O   0  0  0  0  0  0  0  0  0  0  0  0
   15.4360   24.7610   -1.4570 C   0  0  0  0  0  0  0  0  0  0  0  0
   16.7964   24.5543   -1.1573 C   0  0  0  0  0  0  0  0  0  0  0  0
   17.2598   24.3511    0.1009 C   0  0  0  0  0  0  0  0  0  0  0  0
   18.9708   24.1076    0.3365 Cl  0  0  0  0  0  0  0  0  0  0  0  0
   16.3697   24.3437    1.1475 C   0  0  0  0  0  0  0  0  0  0  0  0
   15.0261   24.5392    0.9249 C   0  0  0  0  0  0  0  0  0  0  0  0
   14.5772   24.7467   -0.3893 C   0  0  0  0  0  0  0  0  0  0  0  0
   14.7509   26.0431   -4.9064 C   0  0  0  0  0  0  0  0  0  0  0  0
   13.7041   26.8487   -5.5949 C   0  0  0  0  0  0  0  0  0  0  0  0
   14.4746   24.6602   -5.0042 O   0  0  0  0  0  0  0  0  0  0  0  0
   14.8641   24.0122   -3.8233 C   0  0  0  0  0  0  0  0  0  0  0  0
   15.0224   22.7629   -3.7376 O   0  0  0  0  0  0  0  0  0  0  0  0
   15.0372   24.9760   -2.7979 N   0  0  0  0  0  0  0  0  0  0  0  0
   14.7381   26.2220   -3.4088 C   0  0  0  0  0  0  0  0  0  0  0  0
   14.5061   27.2818   -2.7739 O   0  0  0  0  0  0  0  0  0  0  0  0
   16.0921   26.9281   -6.8277 C   0  0  0  0  0  0  0  0  0  0  0  0
   16.1310   26.3471   -5.4539 C   0  0  0  0  0  0  0  0  0  0  0  0
   10.0863   21.5317    0.2295 C   0  0  0  0  0  0  0  0  0  0  0  0
   10.1510   20.0410   -0.0659 C   0  0  0  0  0  0  0  0  0  0  0  0
    8.7021   21.9231    0.4622 N   0  0  0  0  0  0  0  0  0  0  0  0
    8.4565   22.7857   -0.0238 H   0  0  0  0  0  0  0  0  0  0  0  0
    8.2323   21.7957    2.0943 S   0  0  0  0  0  0  0  0  0  0  0  0
    9.1624   20.7980    2.7625 O   0  0  0  0  0  0  0  0  0  0  0  0
    6.8164   21.3740    2.2128 O   0  0  0  0  0  0  0  0  0  0  0  0
    8.4180   23.3138    2.9336 C   0  0  0  0  0  0  0  0  0  0  0  0
    8.9345   23.4215    4.2064 C   0  0  0  0  0  0  0  0  0  0  0  0
    9.0728   24.6483    4.8534 C   0  0  0  0  0  0  0  0  0  0  0  0
    8.6853   25.7972    4.2137 C   0  0  0  0  0  0  0  0  0  0  0  0
    8.8177   27.0008    4.8402 F   0  0  0  0  0  0  0  0  0  0  0  0
    8.1666   25.7194    2.9442 C   0  0  0  0  0  0  0  0  0  0  0  0
    8.0364   24.5057    2.3197 C   0  0  0  0  0  0  0  0  0  0  0  0
 24 25  1  0  0  0
 25 16  1  0  0  0
 16 17  1  0  0  0
 16 18  1  0  0  0
 18 19  1  0  0  0
 19 20  2  0  0  0
 19 21  1  0  0  0
 21 22  1  0  0  0
 22 23  2  0  0  0
 21  9  1  0  0  0
  9 10  2  0  0  0
 10 11  1  0  0  0
 11 12  1  0  0  0
 11 13  2  0  0  0
 13 14  1  0  0  0
 14 15  2  0  0  0
 15  1  1  0  0  0
  1  2  1  0  0  0
  2  3  1  0  0  0
  3  4  1  0  0  0
  4  5  1  0  0  0
  5  6  1  0  0  0
  4  7  1  0  0  0
  7  8  2  0  0  0
  7 26  1  0  0  0
 26 27  1  0  0  0
 26 28  1  0  0  0
 28 30  1  0  0  0
 30 31  2  0  0  0
 30 32  2  0  0  0
 30 33  1  0  0  0
 33 34  2  0  0  0
 34 35  1  0  0  0
 35 36  2  0  0  0
 36 37  1  0  0  0
 36 38  1  0  0  0
 38 39  2  0  0  0
 22 16  1  0  0  0
 15  9  1  0  0  0
  6  1  1  0  0  0
 39 33  1  0  0  0
 28 29  1  0  0  0
M  END
> <minimizedAffinity>
-3.34195

> <CNNscore>
0.4190929830

> <CNNaffinity>
7.6272177696

> <CNN_VS>
3.1965134144

> <CNNaffinity_variance>
0.1344247609

$$$$
[H]c1c([H])c(S(=O)(=O)N([H])[C@]([H])(C(=O)N2C([H])([H])C([H])([H])N(c3c([H])c([H])c(Cl)c([H])c3N3C(=O)OC(C([H])([H])[H])(C([H])([H])C([H])([H])[H])C3=O)C([H])([H])C2([H])[H])C([H])([H])[H])c([H])c([H])c1F


 39 42  0  0  0  0  0  0  0  0999 V2000
   13.1721   22.5730   -1.1498 N   0  0  0  0  0  0  0  0  0  0  0  0
   12.9741   21.2402   -1.6771 C   0  0  0  0  0  0  0  0  0  0  0  0
   11.7072   20.6265   -1.1264 C   0  0  0  0  0  0  0  0  0  0  0  0
   10.8444   21.6122   -0.5201 N   0  0  0  0  0  0  0  0  0  0  0  0
   10.7130   22.8807   -1.1691 C   0  0  0  0  0  0  0  0  0  0  0  0
   12.0842   23.5234   -1.1987 C   0  0  0  0  0  0  0  0  0  0  0  0
   10.1391   21.3104    0.6565 C   0  0  0  0  0  0  0  0  0  0  0  0
   10.2868   20.1162    1.1344 O   0  0  0  0  0  0  0  0  0  0  0  0
   15.1238   23.9953   -1.2024 C   0  0  0  0  0  0  0  0  0  0  0  0
   16.3259   24.3761   -0.5753 C   0  0  0  0  0  0  0  0  0  0  0  0
   16.7657   23.8315    0.5863 C   0  0  0  0  0  0  0  0  0  0  0  0
   18.2737   24.3931    1.2591 Cl  0  0  0  0  0  0  0  0  0  0  0  0
   16.0117   22.8575    1.1948 C   0  0  0  0  0  0  0  0  0  0  0  0
   14.8265   22.4383    0.6357 C   0  0  0  0  0  0  0  0  0  0  0  0
   14.3982   23.0214   -0.5678 C   0  0  0  0  0  0  0  0  0  0  0  0
   14.1648   26.3333   -3.9637 C   0  0  0  0  0  0  0  0  0  0  0  0
   12.9257   26.9780   -4.4813 C   0  0  0  0  0  0  0  0  0  0  0  0
   14.4219   25.1151   -4.6331 O   0  0  0  0  0  0  0  0  0  0  0  0
   14.9711   24.1865   -3.7375 C   0  0  0  0  0  0  0  0  0  0  0  0
   15.5746   23.1409   -4.1060 O   0  0  0  0  0  0  0  0  0  0  0  0
   14.7324   24.6220   -2.4095 N   0  0  0  0  0  0  0  0  0  0  0  0
   14.0221   25.8436   -2.5443 C   0  0  0  0  0  0  0  0  0  0  0  0
   13.3886   26.3986   -1.6110 O   0  0  0  0  0  0  0  0  0  0  0  0
   15.8580   27.3923   -5.4753 C   0  0  0  0  0  0  0  0  0  0  0  0
   15.3581   27.2608   -4.0756 C   0  0  0  0  0  0  0  0  0  0  0  0
    9.2467   22.2590    1.3734 C   0  0  0  0  0  0  0  0  0  0  0  0
    9.0196   23.4775    0.4916 C   0  0  0  0  0  0  0  0  0  0  0  0
    9.9336   22.6614    2.5938 N   0  0  0  0  0  0  0  0  0  0  0  0
   10.7441   22.0751    2.7934 H   0  0  0  0  0  0  0  0  0  0  0  0
    8.8739   22.9807    3.8883 S   0  0  0  0  0  0  0  0  0  0  0  0
    9.6613   22.8149    5.1766 O   0  0  0  0  0  0  0  0  0  0  0  0
    7.7000   22.0766    3.8552 O   0  0  0  0  0  0  0  0  0  0  0  0
    8.2931   24.6252    3.8486 C   0  0  0  0  0  0  0  0  0  0  0  0
    6.9592   24.9632    3.9185 C   0  0  0  0  0  0  0  0  0  0  0  0
    6.5228   26.2865    3.8855 C   0  0  0  0  0  0  0  0  0  0  0  0
    7.4413   27.2987    3.7800 C   0  0  0  0  0  0  0  0  0  0  0  0
    7.0220   28.5955    3.7473 F   0  0  0  0  0  0  0  0  0  0  0  0
    8.7780   26.9907    3.7082 C   0  0  0  0  0  0  0  0  0  0  0  0
    9.1932   25.6843    3.7418 C   0  0  0  0  0  0  0  0  0  0  0  0
 24 25  1  0  0  0
 25 16  1  0  0  0
 16 17  1  0  0  0
 16 18  1  0  0  0
 18 19  1  0  0  0
 19 20  2  0  0  0
 19 21  1  0  0  0
 21 22  1  0  0  0
 22 23  2  0  0  0
 21  9  1  0  0  0
  9 10  2  0  0  0
 10 11  1  0  0  0
 11 12  1  0  0  0
 11 13  2  0  0  0
 13 14  1  0  0  0
 14 15  2  0  0  0
 15  1  1  0  0  0
  1  2  1  0  0  0
  2  3  1  0  0  0
  3  4  1  0  0  0
  4  5  1  0  0  0
  5  6  1  0  0  0
  4  7  1  0  0  0
  7  8  2  0  0  0
  7 26  1  0  0  0
 26 27  1  0  0  0
 26 28  1  0  0  0
 28 30  1  0  0  0
 30 31  2  0  0  0
 30 32  2  0  0  0
 30 33  1  0  0  0
 33 34  2  0  0  0
 34 35  1  0  0  0
 35 36  2  0  0  0
 36 37  1  0  0  0
 36 38  1  0  0  0
 38 39  2  0  0  0
 22 16  1  0  0  0
 15  9  1  0  0  0
  6  1  1  0  0  0
 39 33  1  0  0  0
 28 29  1  0  0  0
M  END
> <minimizedAffinity>
-6.61002

> <CNNscore>
0.4166590571

> <CNNaffinity>
7.6946158409

> <CNN_VS>
3.2060313225

> <CNNaffinity_variance>
0.0639015362

$$$$
[H]c1c([H])c(S(=O)(=O)N([H])[C@]([H])(C(=O)N2C([H])([H])C([H])([H])N(c3c([H])c([H])c(Cl)c([H])c3N3C(=O)OC(C([H])([H])[H])(C([H])([H])C([H])([H])[H])C3=O)C([H])([H])C2([H])[H])C([H])([H])[H])c([H])c([H])c1F


 39 42  0  0  0  0  0  0  0  0999 V2000
   13.0191   22.8139   -0.7508 N   0  0  0  0  0  0  0  0  0  0  0  0
   13.8607   22.7052    0.4210 C   0  0  0  0  0  0  0  0  0  0  0  0
   13.1057   22.0750    1.5691 C   0  0  0  0  0  0  0  0  0  0  0  0
   11.8937   21.4248    1.1311 N   0  0  0  0  0  0  0  0  0  0  0  0
   11.9322   20.6857   -0.0936 C   0  0  0  0  0  0  0  0  0  0  0  0
   12.2803   21.6567   -1.2027 C   0  0  0  0  0  0  0  0  0  0  0  0
   10.7267   21.5004    1.9092 C   0  0  0  0  0  0  0  0  0  0  0  0
   10.8122   22.1494    3.0262 O   0  0  0  0  0  0  0  0  0  0  0  0
   13.9477   24.8333   -1.6965 C   0  0  0  0  0  0  0  0  0  0  0  0
   13.7141   26.0063   -2.4402 C   0  0  0  0  0  0  0  0  0  0  0  0
   12.5017   26.3359   -2.9506 C   0  0  0  0  0  0  0  0  0  0  0  0
   12.3463   27.8195   -3.8546 Cl  0  0  0  0  0  0  0  0  0  0  0  0
   11.4370   25.4934   -2.7405 C   0  0  0  0  0  0  0  0  0  0  0  0
   11.5957   24.3307   -2.0222 C   0  0  0  0  0  0  0  0  0  0  0  0
   12.8635   24.0173   -1.5063 C   0  0  0  0  0  0  0  0  0  0  0  0
   16.9869   23.8155    0.2371 C   0  0  0  0  0  0  0  0  0  0  0  0
   17.8923   24.4094    1.2598 C   0  0  0  0  0  0  0  0  0  0  0  0
   17.4813   24.0352   -1.0689 O   0  0  0  0  0  0  0  0  0  0  0  0
   16.4137   24.2497   -1.9523 C   0  0  0  0  0  0  0  0  0  0  0  0
   16.5247   24.1682   -3.2069 O   0  0  0  0  0  0  0  0  0  0  0  0
   15.2474   24.5591   -1.2078 N   0  0  0  0  0  0  0  0  0  0  0  0
   15.6566   24.5209    0.1510 C   0  0  0  0  0  0  0  0  0  0  0  0
   14.9927   25.0058    1.1020 O   0  0  0  0  0  0  0  0  0  0  0  0
   16.8437   21.9714    1.9259 C   0  0  0  0  0  0  0  0  0  0  0  0
   16.7747   22.3347    0.4804 C   0  0  0  0  0  0  0  0  0  0  0  0
    9.4230   20.8898    1.5382 C   0  0  0  0  0  0  0  0  0  0  0  0
    8.7798   21.7352    0.4495 C   0  0  0  0  0  0  0  0  0  0  0  0
    8.5829   20.9063    2.7287 N   0  0  0  0  0  0  0  0  0  0  0  0
    8.3076   19.9687    3.0215 H   0  0  0  0  0  0  0  0  0  0  0  0
    7.3579   22.0882    2.6715 S   0  0  0  0  0  0  0  0  0  0  0  0
    6.1923   21.5807    3.5027 O   0  0  0  0  0  0  0  0  0  0  0  0
    6.9436   22.3632    1.2753 O   0  0  0  0  0  0  0  0  0  0  0  0
    7.8843   23.5897    3.3867 C   0  0  0  0  0  0  0  0  0  0  0  0
    8.1793   24.7192    2.6548 C   0  0  0  0  0  0  0  0  0  0  0  0
    8.5972   25.9069    3.2527 C   0  0  0  0  0  0  0  0  0  0  0  0
    8.7242   25.9689    4.6163 C   0  0  0  0  0  0  0  0  0  0  0  0
    9.1322   27.1273    5.2083 F   0  0  0  0  0  0  0  0  0  0  0  0
    8.4370   24.8577    5.3710 C   0  0  0  0  0  0  0  0  0  0  0  0
    8.0268   23.6959    4.7693 C   0  0  0  0  0  0  0  0  0  0  0  0
 24 25  1  0  0  0
 25 16  1  0  0  0
 16 17  1  0  0  0
 16 18  1  0  0  0
 18 19  1  0  0  0
 19 20  2  0  0  0
 19 21  1  0  0  0
 21 22  1  0  0  0
 22 23  2  0  0  0
 21  9  1  0  0  0
  9 10  2  0  0  0
 10 11  1  0  0  0
 11 12  1  0  0  0
 11 13  2  0  0  0
 13 14  1  0  0  0
 14 15  2  0  0  0
 15  1  1  0  0  0
  1  2  1  0  0  0
  2  3  1  0  0  0
  3  4  1  0  0  0
  4  5  1  0  0  0
  5  6  1  0  0  0
  4  7  1  0  0  0
  7  8  2  0  0  0
  7 26  1  0  0  0
 26 27  1  0  0  0
 26 28  1  0  0  0
 28 30  1  0  0  0
 30 31  2  0  0  0
 30 32  2  0  0  0
 30 33  1  0  0  0
 33 34  2  0  0  0
 34 35  1  0  0  0
 35 36  2  0  0  0
 36 37  1  0  0  0
 36 38  1  0  0  0
 38 39  2  0  0  0
 22 16  1  0  0  0
 15  9  1  0  0  0
  6  1  1  0  0  0
 39 33  1  0  0  0
 28 29  1  0  0  0
M  END
> <minimizedAffinity>
0.27936

> <CNNscore>
0.4098812342

> <CNNaffinity>
7.5360388756

> <CNN_VS>
3.0888810158

> <CNNaffinity_variance>
0.4077629447

$$$$
[H]c1nc(N2C([H])([H])C([H])([H])C([H])(n3c(=O)n(C([H])([H])[H])c(=O)c4c(OC([H])([H])[H])c([H])c([H])c([H])c43)C([H])([H])C2([H])[H])c([H])c([H])c1N(C([H])([H])C([H])([H])[H])C(C([H])([H])[H])(C([H])([H])[H])C([H])([H])[H]


 34 37  0  0  0  0  0  0  0  0999 V2000
   10.4819   21.8376   -0.6487 N   0  0  0  0  0  0  0  0  0  0  0  0
   10.6090   23.1142   -0.0169 C   0  0  0  0  0  0  0  0  0  0  0  0
   12.1175   23.3223    0.2693 C   0  0  0  0  0  0  0  0  0  0  0  0
   12.7546   23.4272   -1.0968 C   0  0  0  0  0  0  0  0  0  0  0  0
   12.7535   22.0240   -1.6551 C   0  0  0  0  0  0  0  0  0  0  0  0
   11.4976   21.2639   -1.4903 C   0  0  0  0  0  0  0  0  0  0  0  0
   14.0383   24.0393   -1.1406 N   0  0  0  0  0  0  0  0  0  0  0  0
   14.3007   24.9197   -2.1558 C   0  0  0  0  0  0  0  0  0  0  0  0
   13.4031   25.2344   -3.1263 C   0  0  0  0  0  0  0  0  0  0  0  0
   13.7224   26.1262   -4.1352 C   0  0  0  0  0  0  0  0  0  0  0  0
   14.9566   26.7371   -4.2094 C   0  0  0  0  0  0  0  0  0  0  0  0
   15.8864   26.4232   -3.2209 C   0  0  0  0  0  0  0  0  0  0  0  0
   15.5577   25.5353   -2.2229 C   0  0  0  0  0  0  0  0  0  0  0  0
   16.4963   25.2380   -1.2643 C   0  0  0  0  0  0  0  0  0  0  0  0
   17.6192   25.7883   -1.3230 O   0  0  0  0  0  0  0  0  0  0  0  0
   16.1966   24.3682   -0.2859 N   0  0  0  0  0  0  0  0  0  0  0  0
   17.1758   24.0617    0.7144 C   0  0  0  0  0  0  0  0  0  0  0  0
   14.9707   23.7704   -0.2253 C   0  0  0  0  0  0  0  0  0  0  0  0
   14.7472   22.9726    0.6986 O   0  0  0  0  0  0  0  0  0  0  0  0
   17.1521   26.9831   -3.2077 O   0  0  0  0  0  0  0  0  0  0  0  0
   17.6150   27.9921   -4.0495 C   0  0  0  0  0  0  0  0  0  0  0  0
    7.0031   19.6285    0.0586 C   0  0  0  0  0  0  0  0  0  0  0  0
    7.4742   19.7109   -1.2299 C   0  0  0  0  0  0  0  0  0  0  0  0
    8.6261   20.4417   -1.4790 C   0  0  0  0  0  0  0  0  0  0  0  0
    9.2890   21.0756   -0.4538 C   0  0  0  0  0  0  0  0  0  0  0  0
    8.8006   20.9723    0.7846 N   0  0  0  0  0  0  0  0  0  0  0  0
    7.6980   20.2772    1.0487 C   0  0  0  0  0  0  0  0  0  0  0  0
    5.8266   18.9013    0.3906 N   0  0  0  0  0  0  0  0  0  0  0  0
    5.6209   17.6056   -0.1888 C   0  0  0  0  0  0  0  0  0  0  0  0
    4.8799   17.6204   -1.4936 C   0  0  0  0  0  0  0  0  0  0  0  0
    4.8769   16.6773    0.7525 C   0  0  0  0  0  0  0  0  0  0  0  0
    6.9737   16.9493   -0.4288 C   0  0  0  0  0  0  0  0  0  0  0  0
    5.0367   19.0975    2.7189 C   0  0  0  0  0  0  0  0  0  0  0  0
    4.8730   19.4831    1.2925 C   0  0  0  0  0  0  0  0  0  0  0  0
 33 34  1  0  0  0
 34 28  1  0  0  0
 28 22  1  0  0  0
 22 23  2  0  0  0
 23 24  1  0  0  0
 24 25  2  0  0  0
 25 26  1  0  0  0
 26 27  2  0  0  0
 25  1  1  0  0  0
  1  2  1  0  0  0
  2  3  1  0  0  0
  3  4  1  0  0  0
  4  5  1  0  0  0
  5  6  1  0  0  0
  4  7  1  0  0  0
  7  8  1  0  0  0
  8  9  2  0  0  0
  9 10  1  0  0  0
 10 11  2  0  0  0
 11 12  1  0  0  0
 12 20  1  0  0  0
 20 21  1  0  0  0
 12 13  2  0  0  0
 13 14  1  0  0  0
 14 15  2  0  0  0
 14 16  1  0  0  0
 16 17  1  0  0  0
 16 18  1  0  0  0
 18 19  2  0  0  0
 28 29  1  0  0  0
 29 30  1  0  0  0
 29 31  1  0  0  0
 29 32  1  0  0  0
 27 22  1  0  0  0
  6  1  1  0  0  0
 18  7  1  0  0  0
 13  8  1  0  0  0
M  END
> <minimizedAffinity>
-6.88321

> <CNNscore>
0.5297223330

> <CNNaffinity>
7.4840750694

> <CNN_VS>
3.9644815922

> <CNNaffinity_variance>
0.3119302392

$$$$
[H]c1nc(N2C([H])([H])C([H])([H])C([H])(n3c(=O)n(C([H])([H])[H])c(=O)c4c(OC([H])([H])[H])c([H])c([H])c([H])c43)C([H])([H])C2([H])[H])c([H])c([H])c1N(C([H])([H])C([H])([H])[H])C(C([H])([H])[H])(C([H])([H])[H])C([H])([H])[H]


 34 37  0  0  0  0  0  0  0  0999 V2000
   12.7541   24.2425    0.2020 N   0  0  0  0  0  0  0  0  0  0  0  0
   12.5199   23.9296   -1.1736 C   0  0  0  0  0  0  0  0  0  0  0  0
   13.0884   25.1087   -2.0026 C   0  0  0  0  0  0  0  0  0  0  0  0
   14.5808   25.0527   -1.7728 C   0  0  0  0  0  0  0  0  0  0  0  0
   14.7947   25.5550   -0.3647 C   0  0  0  0  0  0  0  0  0  0  0  0
   13.8763   25.0173    0.6598 C   0  0  0  0  0  0  0  0  0  0  0  0
   15.3848   25.7312   -2.7306 N   0  0  0  0  0  0  0  0  0  0  0  0
   15.2367   25.3994   -4.0507 C   0  0  0  0  0  0  0  0  0  0  0  0
   14.3680   24.4528   -4.4931 C   0  0  0  0  0  0  0  0  0  0  0  0
   14.2629   24.1504   -5.8394 C   0  0  0  0  0  0  0  0  0  0  0  0
   15.0267   24.7870   -6.7950 C   0  0  0  0  0  0  0  0  0  0  0  0
   15.9217   25.7595   -6.3551 C   0  0  0  0  0  0  0  0  0  0  0  0
   16.0175   26.0516   -5.0143 C   0  0  0  0  0  0  0  0  0  0  0  0
   16.9136   27.0104   -4.6069 C   0  0  0  0  0  0  0  0  0  0  0  0
   17.6108   27.5942   -5.4673 O   0  0  0  0  0  0  0  0  0  0  0  0
   17.0267   27.3046   -3.3015 N   0  0  0  0  0  0  0  0  0  0  0  0
   17.9598   28.3067   -2.8790 C   0  0  0  0  0  0  0  0  0  0  0  0
   16.2643   26.6658   -2.3663 C   0  0  0  0  0  0  0  0  0  0  0  0
   16.4106   26.9744   -1.1732 O   0  0  0  0  0  0  0  0  0  0  0  0
   16.7326   26.4543   -7.2356 O   0  0  0  0  0  0  0  0  0  0  0  0
   16.7406   26.3272   -8.6230 C   0  0  0  0  0  0  0  0  0  0  0  0
   10.1665   22.7365    3.1207 C   0  0  0  0  0  0  0  0  0  0  0  0
    9.8135   23.8939    2.4688 C   0  0  0  0  0  0  0  0  0  0  0  0
   10.6633   24.4054    1.4997 C   0  0  0  0  0  0  0  0  0  0  0  0
   11.8423   23.7661    1.1935 C   0  0  0  0  0  0  0  0  0  0  0  0
   12.1505   22.6440    1.8484 N   0  0  0  0  0  0  0  0  0  0  0  0
   11.3521   22.1338    2.7816 C   0  0  0  0  0  0  0  0  0  0  0  0
    9.3487   22.1545    4.1284 N   0  0  0  0  0  0  0  0  0  0  0  0
    8.6169   20.9582    3.8278 C   0  0  0  0  0  0  0  0  0  0  0  0
    9.1490   19.7223    4.4923 C   0  0  0  0  0  0  0  0  0  0  0  0
    8.5602   20.6903    2.3358 C   0  0  0  0  0  0  0  0  0  0  0  0
    7.1705   21.1379    4.2681 C   0  0  0  0  0  0  0  0  0  0  0  0
    8.9663   24.2348    5.3970 C   0  0  0  0  0  0  0  0  0  0  0  0
    9.2723   22.7800    5.4184 C   0  0  0  0  0  0  0  0  0  0  0  0
 33 34  1  0  0  0
 34 28  1  0  0  0
 28 22  1  0  0  0
 22 23  2  0  0  0
 23 24  1  0  0  0
 24 25  2  0  0  0
 25 26  1  0  0  0
 26 27  2  0  0  0
 25  1  1  0  0  0
  1  2  1  0  0  0
  2  3  1  0  0  0
  3  4  1  0  0  0
  4  5  1  0  0  0
  5  6  1  0  0  0
  4  7  1  0  0  0
  7  8  1  0  0  0
  8  9  2  0  0  0
  9 10  1  0  0  0
 10 11  2  0  0  0
 11 12  1  0  0  0
 12 20  1  0  0  0
 20 21  1  0  0  0
 12 13  2  0  0  0
 13 14  1  0  0  0
 14 15  2  0  0  0
 14 16  1  0  0  0
 16 17  1  0  0  0
 16 18  1  0  0  0
 18 19  2  0  0  0
 28 29  1  0  0  0
 29 30  1  0  0  0
 29 31  1  0  0  0
 29 32  1  0  0  0
 27 22  1  0  0  0
  6  1  1  0  0  0
 18  7  1  0  0  0
 13  8  1  0  0  0
M  END
> <minimizedAffinity>
6.91899

> <CNNscore>
0.5062729120

> <CNNaffinity>
7.3491425514

> <CNN_VS>
3.7206718922

> <CNNaffinity_variance>
0.8914979100

$$$$
[H]c1nc(N2C([H])([H])C([H])([H])C([H])(n3c(=O)n(C([H])([H])[H])c(=O)c4c(OC([H])([H])[H])c([H])c([H])c([H])c43)C([H])([H])C2([H])[H])c([H])c([H])c1N(C([H])([H])C([H])([H])[H])C(C([H])([H])[H])(C([H])([H])[H])C([H])([H])[H]


 34 37  0  0  0  0  0  0  0  0999 V2000
    9.9306   23.4361    1.0896 N   0  0  0  0  0  0  0  0  0  0  0  0
   10.8276   24.4166    1.6178 C   0  0  0  0  0  0  0  0  0  0  0  0
   12.1354   24.3156    0.7929 C   0  0  0  0  0  0  0  0  0  0  0  0
   11.7453   24.7604   -0.5975 C   0  0  0  0  0  0  0  0  0  0  0  0
   10.9435   23.6205   -1.1793 C   0  0  0  0  0  0  0  0  0  0  0  0
    9.9255   23.0260   -0.2892 C   0  0  0  0  0  0  0  0  0  0  0  0
   12.8130   25.1738   -1.4422 N   0  0  0  0  0  0  0  0  0  0  0  0
   14.0951   25.0152   -0.9885 C   0  0  0  0  0  0  0  0  0  0  0  0
   14.4009   24.4905    0.2271 C   0  0  0  0  0  0  0  0  0  0  0  0
   15.7151   24.3590    0.6403 C   0  0  0  0  0  0  0  0  0  0  0  0
   16.7745   24.7498   -0.1514 C   0  0  0  0  0  0  0  0  0  0  0  0
   16.4751   25.2897   -1.4001 C   0  0  0  0  0  0  0  0  0  0  0  0
   15.1649   25.4155   -1.8001 C   0  0  0  0  0  0  0  0  0  0  0  0
   14.8975   25.9579   -3.0340 C   0  0  0  0  0  0  0  0  0  0  0  0
   15.8528   26.3148   -3.7601 O   0  0  0  0  0  0  0  0  0  0  0  0
   13.6246   26.0954   -3.4394 N   0  0  0  0  0  0  0  0  0  0  0  0
   13.3480   26.6587   -4.7276 C   0  0  0  0  0  0  0  0  0  0  0  0
   12.5855   25.7046   -2.6447 C   0  0  0  0  0  0  0  0  0  0  0  0
   11.4286   25.8565   -3.0671 O   0  0  0  0  0  0  0  0  0  0  0  0
   17.4674   25.7118   -2.2677 O   0  0  0  0  0  0  0  0  0  0  0  0
   17.6466   27.0081   -2.7458 C   0  0  0  0  0  0  0  0  0  0  0  0
    7.2372   21.6152    3.7187 C   0  0  0  0  0  0  0  0  0  0  0  0
    6.7790   22.0128    2.4855 C   0  0  0  0  0  0  0  0  0  0  0  0
    7.6612   22.6196    1.6042 C   0  0  0  0  0  0  0  0  0  0  0  0
    8.9755   22.8216    1.9566 C   0  0  0  0  0  0  0  0  0  0  0  0
    9.3832   22.4215    3.1635 N   0  0  0  0  0  0  0  0  0  0  0  0
    8.5564   21.8374    4.0259 C   0  0  0  0  0  0  0  0  0  0  0  0
    6.3913   20.9906    4.6765 N   0  0  0  0  0  0  0  0  0  0  0  0
    6.2837   19.5604    4.6842 C   0  0  0  0  0  0  0  0  0  0  0  0
    6.0444   18.9494    3.3346 C   0  0  0  0  0  0  0  0  0  0  0  0
    5.1799   19.0818    5.6082 C   0  0  0  0  0  0  0  0  0  0  0  0
    7.5713   18.9692    5.2417 C   0  0  0  0  0  0  0  0  0  0  0  0
    5.5302   23.2359    5.2243 C   0  0  0  0  0  0  0  0  0  0  0  0
    5.6634   21.8057    5.6076 C   0  0  0  0  0  0  0  0  0  0  0  0
 33 34  1  0  0  0
 34 28  1  0  0  0
 28 22  1  0  0  0
 22 23  2  0  0  0
 23 24  1  0  0  0
 24 25  2  0  0  0
 25 26  1  0  0  0
 26 27  2  0  0  0
 25  1  1  0  0  0
  1  2  1  0  0  0
  2  3  1  0  0  0
  3  4  1  0  0  0
  4  5  1  0  0  0
  5  6  1  0  0  0
  4  7  1  0  0  0
  7  8  1  0  0  0
  8  9  2  0  0  0
  9 10  1  0  0  0
 10 11  2  0  0  0
 11 12  1  0  0  0
 12 20  1  0  0  0
 20 21  1  0  0  0
 12 13  2  0  0  0
 13 14  1  0  0  0
 14 15  2  0  0  0
 14 16  1  0  0  0
 16 17  1  0  0  0
 16 18  1  0  0  0
 18 19  2  0  0  0
 28 29  1  0  0  0
 29 30  1  0  0  0
 29 31  1  0  0  0
 29 32  1  0  0  0
 27 22  1  0  0  0
  6  1  1  0  0  0
 18  7  1  0  0  0
 13  8  1  0  0  0
M  END
> <minimizedAffinity>
-4.27917

> <CNNscore>
0.4797414839

> <CNNaffinity>
6.8479180336

> <CNN_VS>
3.2852303982

> <CNNaffinity_variance>
0.3301146626

$$$$
[H]c1nc(N2C([H])([H])C([H])([H])C([H])(n3c(=O)n(C([H])([H])[H])c(=O)c4c(OC([H])([H])[H])c([H])c([H])c([H])c43)C([H])([H])C2([H])[H])c([H])c([H])c1N(C([H])([H])C([H])([H])[H])C(C([H])([H])[H])(C([H])([H])[H])C([H])([H])[H]


 34 37  0  0  0  0  0  0  0  0999 V2000
   11.0055   22.3170   -0.8672 N   0  0  0  0  0  0  0  0  0  0  0  0
   10.9609   23.7171   -1.1553 C   0  0  0  0  0  0  0  0  0  0  0  0
   12.2875   24.3230   -0.6318 C   0  0  0  0  0  0  0  0  0  0  0  0
   13.3575   23.7138   -1.5078 C   0  0  0  0  0  0  0  0  0  0  0  0
   13.4900   22.2805   -1.0509 C   0  0  0  0  0  0  0  0  0  0  0  0
   12.2235   21.5527   -0.8303 C   0  0  0  0  0  0  0  0  0  0  0  0
   14.6025   24.4016   -1.5405 N   0  0  0  0  0  0  0  0  0  0  0  0
   14.8108   25.3149   -2.5391 C   0  0  0  0  0  0  0  0  0  0  0  0
   13.8947   25.5939   -3.5032 C   0  0  0  0  0  0  0  0  0  0  0  0
   14.1591   26.5218   -4.4953 C   0  0  0  0  0  0  0  0  0  0  0  0
   15.3547   27.2062   -4.5584 C   0  0  0  0  0  0  0  0  0  0  0  0
   16.3030   26.9295   -3.5763 C   0  0  0  0  0  0  0  0  0  0  0  0
   16.0290   26.0051   -2.5951 C   0  0  0  0  0  0  0  0  0  0  0  0
   16.9849   25.7462   -1.6425 C   0  0  0  0  0  0  0  0  0  0  0  0
   18.0731   26.3632   -1.6912 O   0  0  0  0  0  0  0  0  0  0  0  0
   16.7388   24.8420   -0.6805 N   0  0  0  0  0  0  0  0  0  0  0  0
   17.7358   24.5754    0.3135 C   0  0  0  0  0  0  0  0  0  0  0  0
   15.5506   24.1715   -0.6307 C   0  0  0  0  0  0  0  0  0  0  0  0
   15.3761   23.3446    0.2781 O   0  0  0  0  0  0  0  0  0  0  0  0
   17.5332   27.5632   -3.5530 O   0  0  0  0  0  0  0  0  0  0  0  0
   18.3780   27.7617   -4.6429 C   0  0  0  0  0  0  0  0  0  0  0  0
    7.4321   20.2401   -0.2353 C   0  0  0  0  0  0  0  0  0  0  0  0
    8.0166   20.8753    0.8342 C   0  0  0  0  0  0  0  0  0  0  0  0
    9.2029   21.5664    0.6391 C   0  0  0  0  0  0  0  0  0  0  0  0
    9.7878   21.6171   -0.6049 C   0  0  0  0  0  0  0  0  0  0  0  0
    9.1898   20.9875   -1.6193 N   0  0  0  0  0  0  0  0  0  0  0  0
    8.0521   20.3183   -1.4574 C   0  0  0  0  0  0  0  0  0  0  0  0
    6.2185   19.5087   -0.1119 N   0  0  0  0  0  0  0  0  0  0  0  0
    5.9091   18.5016   -1.0851 C   0  0  0  0  0  0  0  0  0  0  0  0
    4.9155   17.4767   -0.6223 C   0  0  0  0  0  0  0  0  0  0  0  0
    7.1505   17.7629   -1.5480 C   0  0  0  0  0  0  0  0  0  0  0  0
    5.3421   19.1718   -2.3291 C   0  0  0  0  0  0  0  0  0  0  0  0
    5.6710   21.0174    1.7609 C   0  0  0  0  0  0  0  0  0  0  0  0
    5.3319   19.7990    0.9794 C   0  0  0  0  0  0  0  0  0  0  0  0
 33 34  1  0  0  0
 34 28  1  0  0  0
 28 22  1  0  0  0
 22 23  2  0  0  0
 23 24  1  0  0  0
 24 25  2  0  0  0
 25 26  1  0  0  0
 26 27  2  0  0  0
 25  1  1  0  0  0
  1  2  1  0  0  0
  2  3  1  0  0  0
  3  4  1  0  0  0
  4  5  1  0  0  0
  5  6  1  0  0  0
  4  7  1  0  0  0
  7  8  1  0  0  0
  8  9  2  0  0  0
  9 10  1  0  0  0
 10 11  2  0  0  0
 11 12  1  0  0  0
 12 20  1  0  0  0
 20 21  1  0  0  0
 12 13  2  0  0  0
 13 14  1  0  0  0
 14 15  2  0  0  0
 14 16  1  0  0  0
 16 17  1  0  0  0
 16 18  1  0  0  0
 18 19  2  0  0  0
 28 29  1  0  0  0
 29 30  1  0  0  0
 29 31  1  0  0  0
 29 32  1  0  0  0
 27 22  1  0  0  0
  6  1  1  0  0  0
 18  7  1  0  0  0
 13  8  1  0  0  0
M  END
> <minimizedAffinity>
-4.29153

> <CNNscore>
0.4772996306

> <CNNaffinity>
7.4895248413

> <CNN_VS>
3.5747473240

> <CNNaffinity_variance>
0.1570359766

$$$$
[H]c1nc(N2C([H])([H])C([H])([H])C([H])(n3c(=O)n(C([H])([H])[H])c(=O)c4c(OC([H])([H])[H])c([H])c([H])c([H])c43)C([H])([H])C2([H])[H])c([H])c([H])c1N(C([H])([H])C([H])([H])[H])C(C([H])([H])[H])(C([H])([H])[H])C([H])([H])[H]


 34 37  0  0  0  0  0  0  0  0999 V2000
   11.4953   23.0428   -0.4136 N   0  0  0  0  0  0  0  0  0  0  0  0
   11.2486   24.3580   -0.9182 C   0  0  0  0  0  0  0  0  0  0  0  0
   12.5971   25.1189   -0.8589 C   0  0  0  0  0  0  0  0  0  0  0  0
   13.4808   24.4085   -1.8578 C   0  0  0  0  0  0  0  0  0  0  0  0
   13.8559   23.0975   -1.2088 C   0  0  0  0  0  0  0  0  0  0  0  0
   12.7548   22.3622   -0.5538 C   0  0  0  0  0  0  0  0  0  0  0  0
   14.6099   25.1395   -2.3215 N   0  0  0  0  0  0  0  0  0  0  0  0
   14.4514   25.9504   -3.4134 C   0  0  0  0  0  0  0  0  0  0  0  0
   13.2756   26.0886   -4.0804 C   0  0  0  0  0  0  0  0  0  0  0  0
   13.1715   26.9170   -5.1841 C   0  0  0  0  0  0  0  0  0  0  0  0
   14.2448   27.6393   -5.6618 C   0  0  0  0  0  0  0  0  0  0  0  0
   15.4564   27.5066   -4.9874 C   0  0  0  0  0  0  0  0  0  0  0  0
   15.5479   26.6802   -3.8915 C   0  0  0  0  0  0  0  0  0  0  0  0
   16.7569   26.5623   -3.2490 C   0  0  0  0  0  0  0  0  0  0  0  0
   17.7367   27.2147   -3.6750 O   0  0  0  0  0  0  0  0  0  0  0  0
   16.8679   25.7551   -2.1815 N   0  0  0  0  0  0  0  0  0  0  0  0
   18.1288   25.6357   -1.5113 C   0  0  0  0  0  0  0  0  0  0  0  0
   15.7968   25.0454   -1.7200 C   0  0  0  0  0  0  0  0  0  0  0  0
   15.9551   24.3123   -0.7312 O   0  0  0  0  0  0  0  0  0  0  0  0
   16.5916   28.1890   -5.3888 O   0  0  0  0  0  0  0  0  0  0  0  0
   16.6242   29.3886   -6.0966 C   0  0  0  0  0  0  0  0  0  0  0  0
    8.4181   21.1100    1.6546 C   0  0  0  0  0  0  0  0  0  0  0  0
    9.0640   20.4244    0.6538 C   0  0  0  0  0  0  0  0  0  0  0  0
   10.0854   21.0540   -0.0414 C   0  0  0  0  0  0  0  0  0  0  0  0
   10.4486   22.3452    0.2640 C   0  0  0  0  0  0  0  0  0  0  0  0
    9.7976   22.9785    1.2429 N   0  0  0  0  0  0  0  0  0  0  0  0
    8.8150   22.3960    1.9239 C   0  0  0  0  0  0  0  0  0  0  0  0
    7.3591   20.5322    2.4081 N   0  0  0  0  0  0  0  0  0  0  0  0
    6.0787   20.3529    1.7872 C   0  0  0  0  0  0  0  0  0  0  0  0
    5.7260   21.4062    0.7782 C   0  0  0  0  0  0  0  0  0  0  0  0
    4.9580   20.3002    2.8082 C   0  0  0  0  0  0  0  0  0  0  0  0
    6.0546   19.0044    1.0808 C   0  0  0  0  0  0  0  0  0  0  0  0
    9.0078   20.2606    4.2223 C   0  0  0  0  0  0  0  0  0  0  0  0
    7.5958   20.1475    3.7708 C   0  0  0  0  0  0  0  0  0  0  0  0
 33 34  1  0  0  0
 34 28  1  0  0  0
 28 22  1  0  0  0
 22 23  2  0  0  0
 23 24  1  0  0  0
 24 25  2  0  0  0
 25 26  1  0  0  0
 26 27  2  0  0  0
 25  1  1  0  0  0
  1  2  1  0  0  0
  2  3  1  0  0  0
  3  4  1  0  0  0
  4  5  1  0  0  0
  5  6  1  0  0  0
  4  7  1  0  0  0
  7  8  1  0  0  0
  8  9  2  0  0  0
  9 10  1  0  0  0
 10 11  2  0  0  0
 11 12  1  0  0  0
 12 20  1  0  0  0
 20 21  1  0  0  0
 12 13  2  0  0  0
 13 14  1  0  0  0
 14 15  2  0  0  0
 14 16  1  0  0  0
 16 17  1  0  0  0
 16 18  1  0  0  0
 18 19  2  0  0  0
 28 29  1  0  0  0
 29 30  1  0  0  0
 29 31  1  0  0  0
 29 32  1  0  0  0
 27 22  1  0  0  0
  6  1  1  0  0  0
 18  7  1  0  0  0
 13  8  1  0  0  0
M  END
> <minimizedAffinity>
0.73030

> <CNNscore>
0.4686278403

> <CNNaffinity>
7.2740249634

> <CNN_VS>
3.4088106155

> <CNNaffinity_variance>
0.7601535916

$$$$
[H]c1nc(N2C([H])([H])C([H])([H])C([H])(n3c(=O)n(C([H])([H])[H])c(=O)c4c(OC([H])([H])[H])c([H])c([H])c([H])c43)C([H])([H])C2([H])[H])c([H])c([H])c1N(C([H])([H])C([H])([H])[H])C(C([H])([H])[H])(C([H])([H])[H])C([H])([H])[H]


 34 37  0  0  0  0  0  0  0  0999 V2000
   10.7507   22.8075    0.2509 N   0  0  0  0  0  0  0  0  0  0  0  0
   11.9930   22.1012    0.3039 C   0  0  0  0  0  0  0  0  0  0  0  0
   12.8521   22.6199   -0.8766 C   0  0  0  0  0  0  0  0  0  0  0  0
   13.1369   24.0642   -0.5361 C   0  0  0  0  0  0  0  0  0  0  0  0
   11.8400   24.8012   -0.7720 C   0  0  0  0  0  0  0  0  0  0  0  0
   10.6225   24.1519   -0.2445 C   0  0  0  0  0  0  0  0  0  0  0  0
   14.2409   24.6574   -1.2097 N   0  0  0  0  0  0  0  0  0  0  0  0
   13.9913   25.3933   -2.3370 C   0  0  0  0  0  0  0  0  0  0  0  0
   12.7468   25.5813   -2.8494 C   0  0  0  0  0  0  0  0  0  0  0  0
   12.5505   26.3289   -3.9973 C   0  0  0  0  0  0  0  0  0  0  0  0
   13.5968   26.9172   -4.6763 C   0  0  0  0  0  0  0  0  0  0  0  0
   14.8780   26.7321   -4.1620 C   0  0  0  0  0  0  0  0  0  0  0  0
   15.0610   25.9870   -3.0202 C   0  0  0  0  0  0  0  0  0  0  0  0
   16.3362   25.8143   -2.5383 C   0  0  0  0  0  0  0  0  0  0  0  0
   17.2923   26.3453   -3.1476 O   0  0  0  0  0  0  0  0  0  0  0  0
   16.5359   25.0844   -1.4289 N   0  0  0  0  0  0  0  0  0  0  0  0
   17.8662   24.9079   -0.9265 C   0  0  0  0  0  0  0  0  0  0  0  0
   15.4904   24.5072   -0.7672 C   0  0  0  0  0  0  0  0  0  0  0  0
   15.7312   23.8407    0.2516 O   0  0  0  0  0  0  0  0  0  0  0  0
   15.9932   27.2813   -4.7705 O   0  0  0  0  0  0  0  0  0  0  0  0
   15.9947   28.2974   -5.7237 C   0  0  0  0  0  0  0  0  0  0  0  0
    7.2577   21.0297    1.7074 C   0  0  0  0  0  0  0  0  0  0  0  0
    7.9270   20.4096    0.6796 C   0  0  0  0  0  0  0  0  0  0  0  0
    9.0860   20.9892    0.1858 C   0  0  0  0  0  0  0  0  0  0  0  0
    9.5607   22.1669    0.7147 C   0  0  0  0  0  0  0  0  0  0  0  0
    8.8828   22.7394    1.7126 N   0  0  0  0  0  0  0  0  0  0  0  0
    7.7692   22.2030    2.2032 C   0  0  0  0  0  0  0  0  0  0  0  0
    6.0612   20.4980    2.2628 N   0  0  0  0  0  0  0  0  0  0  0  0
    6.0734   20.0163    3.6137 C   0  0  0  0  0  0  0  0  0  0  0  0
    6.1002   18.5211    3.7385 C   0  0  0  0  0  0  0  0  0  0  0  0
    4.8824   20.5228    4.4050 C   0  0  0  0  0  0  0  0  0  0  0  0
    7.3026   20.5654    4.3248 C   0  0  0  0  0  0  0  0  0  0  0  0
    5.0033   21.0587    0.1064 C   0  0  0  0  0  0  0  0  0  0  0  0
    4.8735   20.4521    1.4575 C   0  0  0  0  0  0  0  0  0  0  0  0
 33 34  1  0  0  0
 34 28  1  0  0  0
 28 22  1  0  0  0
 22 23  2  0  0  0
 23 24  1  0  0  0
 24 25  2  0  0  0
 25 26  1  0  0  0
 26 27  2  0  0  0
 25  1  1  0  0  0
  1  2  1  0  0  0
  2  3  1  0  0  0
  3  4  1  0  0  0
  4  5  1  0  0  0
  5  6  1  0  0  0
  4  7  1  0  0  0
  7  8  1  0  0  0
  8  9  2  0  0  0
  9 10  1  0  0  0
 10 11  2  0  0  0
 11 12  1  0  0  0
 12 20  1  0  0  0
 20 21  1  0  0  0
 12 13  2  0  0  0
 13 14  1  0  0  0
 14 15  2  0  0  0
 14 16  1  0  0  0
 16 17  1  0  0  0
 16 18  1  0  0  0
 18 19  2  0  0  0
 28 29  1  0  0  0
 29 30  1  0  0  0
 29 31  1  0  0  0
 29 32  1  0  0  0
 27 22  1  0  0  0
  6  1  1  0  0  0
 18  7  1  0  0  0
 13  8  1  0  0  0
M  END
> <minimizedAffinity>
-5.18001

> <CNNscore>
0.4371845424

> <CNNaffinity>
7.3241415024

> <CNN_VS>
3.2020013332

> <CNNaffinity_variance>
0.6626380682

$$$$
[H]c1nc(N2C([H])([H])C([H])([H])C([H])(n3c(=O)n(C([H])([H])[H])c(=O)c4c(OC([H])([H])[H])c([H])c([H])c([H])c43)C([H])([H])C2([H])[H])c([H])c([H])c1N(C([H])([H])C([H])([H])[H])C(C([H])([H])[H])(C([H])([H])[H])C([H])([H])[H]


 34 37  0  0  0  0  0  0  0  0999 V2000
   12.2969   25.9805   -2.3931 N   0  0  0  0  0  0  0  0  0  0  0  0
   13.6845   25.7331   -2.1514 C   0  0  0  0  0  0  0  0  0  0  0  0
   13.7649   24.8348   -0.8914 C   0  0  0  0  0  0  0  0  0  0  0  0
   13.1382   23.5266   -1.3144 C   0  0  0  0  0  0  0  0  0  0  0  0
   11.6535   23.7924   -1.3901 C   0  0  0  0  0  0  0  0  0  0  0  0
   11.2548   25.0456   -2.0629 C   0  0  0  0  0  0  0  0  0  0  0  0
   13.4577   22.3947   -0.5137 N   0  0  0  0  0  0  0  0  0  0  0  0
   12.6820   22.1405    0.5856 C   0  0  0  0  0  0  0  0  0  0  0  0
   11.6284   22.9149    0.9552 C   0  0  0  0  0  0  0  0  0  0  0  0
   10.8808   22.6171    2.0811 C   0  0  0  0  0  0  0  0  0  0  0  0
   11.1623   21.5292    2.8807 C   0  0  0  0  0  0  0  0  0  0  0  0
   12.2401   20.7270    2.5133 C   0  0  0  0  0  0  0  0  0  0  0  0
   12.9760   21.0329    1.3920 C   0  0  0  0  0  0  0  0  0  0  0  0
   14.0385   20.2287    1.0564 C   0  0  0  0  0  0  0  0  0  0  0  0
   14.3012   19.2385    1.7758 O   0  0  0  0  0  0  0  0  0  0  0  0
   14.7733   20.5150   -0.0307 N   0  0  0  0  0  0  0  0  0  0  0  0
   15.8790   19.6736   -0.3806 C   0  0  0  0  0  0  0  0  0  0  0  0
   14.4833   21.5958   -0.8129 C   0  0  0  0  0  0  0  0  0  0  0  0
   15.1960   21.8161   -1.8046 O   0  0  0  0  0  0  0  0  0  0  0  0
   12.6032   19.6131    3.2503 O   0  0  0  0  0  0  0  0  0  0  0  0
   11.7819   18.8960    4.1175 C   0  0  0  0  0  0  0  0  0  0  0  0
   11.0552   29.5127   -4.2544 C   0  0  0  0  0  0  0  0  0  0  0  0
   12.0174   29.5928   -3.2763 C   0  0  0  0  0  0  0  0  0  0  0  0
   12.4373   28.4292   -2.6496 C   0  0  0  0  0  0  0  0  0  0  0  0
   11.9005   27.2120   -2.9996 C   0  0  0  0  0  0  0  0  0  0  0  0
   10.9678   27.1747   -3.9544 N   0  0  0  0  0  0  0  0  0  0  0  0
   10.5489   28.2765   -4.5700 C   0  0  0  0  0  0  0  0  0  0  0  0
   10.5718   30.6623   -4.9383 N   0  0  0  0  0  0  0  0  0  0  0  0
    9.2423   30.6459   -5.4763 C   0  0  0  0  0  0  0  0  0  0  0  0
    8.9327   29.4495   -6.3275 C   0  0  0  0  0  0  0  0  0  0  0  0
    8.9513   31.8853   -6.3011 C   0  0  0  0  0  0  0  0  0  0  0  0
    8.2425   30.6723   -4.3283 C   0  0  0  0  0  0  0  0  0  0  0  0
   12.6259   31.8099   -4.1989 C   0  0  0  0  0  0  0  0  0  0  0  0
   11.4265   31.8074   -5.0773 C   0  0  0  0  0  0  0  0  0  0  0  0
 33 34  1  0  0  0
 34 28  1  0  0  0
 28 22  1  0  0  0
 22 23  2  0  0  0
 23 24  1  0  0  0
 24 25  2  0  0  0
 25 26  1  0  0  0
 26 27  2  0  0  0
 25  1  1  0  0  0
  1  2  1  0  0  0
  2  3  1  0  0  0
  3  4  1  0  0  0
  4  5  1  0  0  0
  5  6  1  0  0  0
  4  7  1  0  0  0
  7  8  1  0  0  0
  8  9  2  0  0  0
  9 10  1  0  0  0
 10 11  2  0  0  0
 11 12  1  0  0  0
 12 20  1  0  0  0
 20 21  1  0  0  0
 12 13  2  0  0  0
 13 14  1  0  0  0
 14 15  2  0  0  0
 14 16  1  0  0  0
 16 17  1  0  0  0
 16 18  1  0  0  0
 18 19  2  0  0  0
 28 29  1  0  0  0
 29 30  1  0  0  0
 29 31  1  0  0  0
 29 32  1  0  0  0
 27 22  1  0  0  0
  6  1  1  0  0  0
 18  7  1  0  0  0
 13  8  1  0  0  0
M  END
> <minimizedAffinity>
31.03980

> <CNNscore>
0.4244242609

> <CNNaffinity>
6.6096434593

> <CNN_VS>
2.8052930832

> <CNNaffinity_variance>
0.5645163655

$$$$
[H]c1nc(N2C([H])([H])C([H])([H])C([H])(n3c(=O)n(C([H])([H])[H])c(=O)c4c(OC([H])([H])[H])c([H])c([H])c([H])c43)C([H])([H])C2([H])[H])c([H])c([H])c1N(C([H])([H])C([H])([H])[H])C(C([H])([H])[H])(C([H])([H])[H])C([H])([H])[H]


 34 37  0  0  0  0  0  0  0  0999 V2000
   12.1291   23.2219   -0.3837 N   0  0  0  0  0  0  0  0  0  0  0  0
   13.3676   22.5140   -0.4847 C   0  0  0  0  0  0  0  0  0  0  0  0
   13.6983   22.4064   -1.9947 C   0  0  0  0  0  0  0  0  0  0  0  0
   13.9530   23.8300   -2.4323 C   0  0  0  0  0  0  0  0  0  0  0  0
   12.5959   24.4910   -2.4763 C   0  0  0  0  0  0  0  0  0  0  0  0
   11.7110   24.2277   -1.3232 C   0  0  0  0  0  0  0  0  0  0  0  0
   14.6854   23.9887   -3.6417 N   0  0  0  0  0  0  0  0  0  0  0  0
   14.8449   25.2541   -4.1399 C   0  0  0  0  0  0  0  0  0  0  0  0
   14.3355   26.3642   -3.5444 C   0  0  0  0  0  0  0  0  0  0  0  0
   14.5198   27.6206   -4.0946 C   0  0  0  0  0  0  0  0  0  0  0  0
   15.2230   27.8116   -5.2655 C   0  0  0  0  0  0  0  0  0  0  0  0
   15.7503   26.6818   -5.8867 C   0  0  0  0  0  0  0  0  0  0  0  0
   15.5607   25.4380   -5.3304 C   0  0  0  0  0  0  0  0  0  0  0  0
   16.0857   24.3396   -5.9677 C   0  0  0  0  0  0  0  0  0  0  0  0
   16.7263   24.5032   -7.0308 O   0  0  0  0  0  0  0  0  0  0  0  0
   15.9053   23.1162   -5.4439 N   0  0  0  0  0  0  0  0  0  0  0  0
   16.4559   21.9724   -6.1085 C   0  0  0  0  0  0  0  0  0  0  0  0
   15.2062   22.9421   -4.2842 C   0  0  0  0  0  0  0  0  0  0  0  0
   15.0671   21.7897   -3.8452 O   0  0  0  0  0  0  0  0  0  0  0  0
   16.4709   26.7684   -7.0652 O   0  0  0  0  0  0  0  0  0  0  0  0
   15.9439   26.7639   -8.3548 C   0  0  0  0  0  0  0  0  0  0  0  0
    9.5771   22.2531    2.7834 C   0  0  0  0  0  0  0  0  0  0  0  0
    9.6282   23.5602    2.3618 C   0  0  0  0  0  0  0  0  0  0  0  0
   10.4716   23.8957    1.3134 C   0  0  0  0  0  0  0  0  0  0  0  0
   11.2464   22.9369    0.7030 C   0  0  0  0  0  0  0  0  0  0  0  0
   11.1691   21.6778    1.1408 N   0  0  0  0  0  0  0  0  0  0  0  0
   10.3680   21.3312    2.1441 C   0  0  0  0  0  0  0  0  0  0  0  0
    8.7400   21.8341    3.8543 N   0  0  0  0  0  0  0  0  0  0  0  0
    9.1238   20.6933    4.6342 C   0  0  0  0  0  0  0  0  0  0  0  0
   10.3510   20.9002    5.4729 C   0  0  0  0  0  0  0  0  0  0  0  0
    9.3589   19.4701    3.7685 C   0  0  0  0  0  0  0  0  0  0  0  0
    7.9791   20.3225    5.5671 C   0  0  0  0  0  0  0  0  0  0  0  0
    7.0932   23.4822    3.0448 C   0  0  0  0  0  0  0  0  0  0  0  0
    7.5308   22.5592    4.1250 C   0  0  0  0  0  0  0  0  0  0  0  0
 33 34  1  0  0  0
 34 28  1  0  0  0
 28 22  1  0  0  0
 22 23  2  0  0  0
 23 24  1  0  0  0
 24 25  2  0  0  0
 25 26  1  0  0  0
 26 27  2  0  0  0
 25  1  1  0  0  0
  1  2  1  0  0  0
  2  3  1  0  0  0
  3  4  1  0  0  0
  4  5  1  0  0  0
  5  6  1  0  0  0
  4  7  1  0  0  0
  7  8  1  0  0  0
  8  9  2  0  0  0
  9 10  1  0  0  0
 10 11  2  0  0  0
 11 12  1  0  0  0
 12 20  1  0  0  0
 20 21  1  0  0  0
 12 13  2  0  0  0
 13 14  1  0  0  0
 14 15  2  0  0  0
 14 16  1  0  0  0
 16 17  1  0  0  0
 16 18  1  0  0  0
 18 19  2  0  0  0
 28 29  1  0  0  0
 29 30  1  0  0  0
 29 31  1  0  0  0
 29 32  1  0  0  0
 27 22  1  0  0  0
  6  1  1  0  0  0
 18  7  1  0  0  0
 13  8  1  0  0  0
M  END
> <minimizedAffinity>
6.15287

> <CNNscore>
0.4190220237

> <CNNaffinity>
7.0054407120

> <CNN_VS>
2.9354338646

> <CNNaffinity_variance>
0.5606666803

$$$$
[H]c1nc(N2C([H])([H])C([H])([H])C([H])(n3c(=O)n(C([H])([H])[H])c(=O)c4c(OC([H])([H])[H])c([H])c([H])c([H])c43)C([H])([H])C2([H])[H])c([H])c([H])c1N(C([H])([H])C([H])([H])[H])C(C([H])([H])[H])(C([H])([H])[H])C([H])([H])[H]


 34 37  0  0  0  0  0  0  0  0999 V2000
   10.2924   22.7064    0.9879 N   0  0  0  0  0  0  0  0  0  0  0  0
   10.4326   24.1271    0.9030 C   0  0  0  0  0  0  0  0  0  0  0  0
   11.9507   24.4305    0.9677 C   0  0  0  0  0  0  0  0  0  0  0  0
   12.5122   23.8427   -0.3061 C   0  0  0  0  0  0  0  0  0  0  0  0
   12.5039   22.3464   -0.1019 C   0  0  0  0  0  0  0  0  0  0  0  0
   11.2709   21.7808    0.4830 C   0  0  0  0  0  0  0  0  0  0  0  0
   13.7818   24.3384   -0.7145 N   0  0  0  0  0  0  0  0  0  0  0  0
   13.8364   25.1429   -1.8211 C   0  0  0  0  0  0  0  0  0  0  0  0
   12.7443   25.4870   -2.5528 C   0  0  0  0  0  0  0  0  0  0  0  0
   12.8562   26.2981   -3.6685 C   0  0  0  0  0  0  0  0  0  0  0  0
   14.0701   26.7955   -4.0937 C   0  0  0  0  0  0  0  0  0  0  0  0
   15.1980   26.4503   -3.3528 C   0  0  0  0  0  0  0  0  0  0  0  0
   15.0745   25.6433   -2.2456 C   0  0  0  0  0  0  0  0  0  0  0  0
   16.2044   25.3124   -1.5369 C   0  0  0  0  0  0  0  0  0  0  0  0
   17.3107   25.7600   -1.9150 O   0  0  0  0  0  0  0  0  0  0  0  0
   16.1052   24.5200   -0.4572 N   0  0  0  0  0  0  0  0  0  0  0  0
   17.2842   24.1785    0.2821 C   0  0  0  0  0  0  0  0  0  0  0  0
   14.8966   24.0343   -0.0480 C   0  0  0  0  0  0  0  0  0  0  0  0
   14.8618   23.3042    0.9549 O   0  0  0  0  0  0  0  0  0  0  0  0
   16.4612   26.8984   -3.6981 O   0  0  0  0  0  0  0  0  0  0  0  0
   16.7724   27.7479   -4.7576 C   0  0  0  0  0  0  0  0  0  0  0  0
    6.9551   21.0106    2.8504 C   0  0  0  0  0  0  0  0  0  0  0  0
    6.7494   21.8745    1.8015 C   0  0  0  0  0  0  0  0  0  0  0  0
    7.8473   22.4455    1.1757 C   0  0  0  0  0  0  0  0  0  0  0  0
    9.1240   22.1533    1.5965 C   0  0  0  0  0  0  0  0  0  0  0  0
    9.2834   21.3093    2.6188 N   0  0  0  0  0  0  0  0  0  0  0  0
    8.2466   20.7490    3.2349 C   0  0  0  0  0  0  0  0  0  0  0  0
    5.8793   20.3899    3.5436 N   0  0  0  0  0  0  0  0  0  0  0  0
    5.8260   20.4818    4.9739 C   0  0  0  0  0  0  0  0  0  0  0  0
    5.3641   21.8119    5.4929 C   0  0  0  0  0  0  0  0  0  0  0  0
    7.1699   20.1811    5.6099 C   0  0  0  0  0  0  0  0  0  0  0  0
    4.8736   19.4186    5.5039 C   0  0  0  0  0  0  0  0  0  0  0  0
    5.3984   18.6618    1.8508 C   0  0  0  0  0  0  0  0  0  0  0  0
    4.8772   19.6838    2.7964 C   0  0  0  0  0  0  0  0  0  0  0  0
 33 34  1  0  0  0
 34 28  1  0  0  0
 28 22  1  0  0  0
 22 23  2  0  0  0
 23 24  1  0  0  0
 24 25  2  0  0  0
 25 26  1  0  0  0
 26 27  2  0  0  0
 25  1  1  0  0  0
  1  2  1  0  0  0
  2  3  1  0  0  0
  3  4  1  0  0  0
  4  5  1  0  0  0
  5  6  1  0  0  0
  4  7  1  0  0  0
  7  8  1  0  0  0
  8  9  2  0  0  0
  9 10  1  0  0  0
 10 11  2  0  0  0
 11 12  1  0  0  0
 12 20  1  0  0  0
 20 21  1  0  0  0
 12 13  2  0  0  0
 13 14  1  0  0  0
 14 15  2  0  0  0
 14 16  1  0  0  0
 16 17  1  0  0  0
 16 18  1  0  0  0
 18 19  2  0  0  0
 28 29  1  0  0  0
 29 30  1  0  0  0
 29 31  1  0  0  0
 29 32  1  0  0  0
 27 22  1  0  0  0
  6  1  1  0  0  0
 18  7  1  0  0  0
 13  8  1  0  0  0
M  END
> <minimizedAffinity>
-6.90069

> <CNNscore>
0.4117916226

> <CNNaffinity>
7.1912918091

> <CNN_VS>
2.9613137245

> <CNNaffinity_variance>
0.3735739887

$$$$
[H]c1nc(C(=O)N([H])S(=O)(=O)C([H])([H])[H])c([H])nc1Oc1c([H])c([H])c(N([H])C(=O)[C@@]2([H])N(C(=O)N([H])c3c([H])c([H])c(Cl)c([H])c3[H])C([H])([H])C([H])([H])C2([H])[H])c([H])c1[H]


 41 44  0  0  0  0  0  0  0  0999 V2000
   10.4063   22.8755    1.2884 C   0  0  0  0  0  0  0  0  0  0  0  0
   11.3186   23.8025    1.7277 C   0  0  0  0  0  0  0  0  0  0  0  0
   11.7966   24.7764    0.8927 C   0  0  0  0  0  0  0  0  0  0  0  0
   11.3903   24.8866   -0.4461 C   0  0  0  0  0  0  0  0  0  0  0  0
   10.4817   23.9524   -0.8589 C   0  0  0  0  0  0  0  0  0  0  0  0
    9.9877   22.9505   -0.0059 C   0  0  0  0  0  0  0  0  0  0  0  0
   11.9034   25.9291   -1.2527 N   0  0  0  0  0  0  0  0  0  0  0  0
   13.1321   25.9104   -1.9152 C   0  0  0  0  0  0  0  0  0  0  0  0
   13.9214   24.9755   -1.8655 O   0  0  0  0  0  0  0  0  0  0  0  0
   11.2863   26.7957   -1.3558 H   0  0  0  0  0  0  0  0  0  0  0  0
   13.5310   27.0907   -2.7408 C   0  0  0  0  0  0  0  0  0  0  0  0
   12.2646   27.8002   -3.2573 C   0  0  0  0  0  0  0  0  0  0  0  0
   11.8103   26.8116   -4.3135 C   0  0  0  0  0  0  0  0  0  0  0  0
   13.1296   26.2712   -4.8771 C   0  0  0  0  0  0  0  0  0  0  0  0
   14.1488   26.7316   -3.9802 N   0  0  0  0  0  0  0  0  0  0  0  0
   15.5504   26.8208   -4.2629 C   0  0  0  0  0  0  0  0  0  0  0  0
   15.9460   26.4743   -5.3994 O   0  0  0  0  0  0  0  0  0  0  0  0
   16.4649   27.2827   -3.2983 N   0  0  0  0  0  0  0  0  0  0  0  0
   16.0427   27.5697   -2.3312 H   0  0  0  0  0  0  0  0  0  0  0  0
   17.8500   27.4008   -3.4712 C   0  0  0  0  0  0  0  0  0  0  0  0
   18.4293   28.3310   -4.2818 C   0  0  0  0  0  0  0  0  0  0  0  0
   19.8273   28.4088   -4.3863 C   0  0  0  0  0  0  0  0  0  0  0  0
   20.6399   27.5616   -3.6852 C   0  0  0  0  0  0  0  0  0  0  0  0
   22.3980   27.6819   -3.8319 Cl  0  0  0  0  0  0  0  0  0  0  0  0
   20.0766   26.6039   -2.8536 C   0  0  0  0  0  0  0  0  0  0  0  0
   18.7232   26.5625   -2.7809 C   0  0  0  0  0  0  0  0  0  0  0  0
    9.9254   21.8972    2.1239 O   0  0  0  0  0  0  0  0  0  0  0  0
   12.2137   18.8270    3.6794 C   0  0  0  0  0  0  0  0  0  0  0  0
   12.4965   19.3804    2.4581 C   0  0  0  0  0  0  0  0  0  0  0  0
   11.7311   20.3857    1.9685 N   0  0  0  0  0  0  0  0  0  0  0  0
   10.6856   20.8757    2.6385 C   0  0  0  0  0  0  0  0  0  0  0  0
   10.4007   20.3221    3.8616 C   0  0  0  0  0  0  0  0  0  0  0  0
   11.1432   19.3227    4.3736 N   0  0  0  0  0  0  0  0  0  0  0  0
   14.0342   18.0097    5.1805 N   0  0  0  0  0  0  0  0  0  0  0  0
   12.9984   17.7436    4.2622 C   0  0  0  0  0  0  0  0  0  0  0  0
   12.7179   16.5405    3.9147 O   0  0  0  0  0  0  0  0  0  0  0  0
   14.2570   18.9741    5.4529 H   0  0  0  0  0  0  0  0  0  0  0  0
   15.6974   15.7922    4.5426 C   0  0  0  0  0  0  0  0  0  0  0  0
   14.9464   16.7130    5.8609 S   0  0  0  0  0  0  0  0  0  0  0  0
   14.0694   15.8580    6.7288 O   0  0  0  0  0  0  0  0  0  0  0  0
   16.0532   17.2851    6.7260 O   0  0  0  0  0  0  0  0  0  0  0  0
 38 39  1  0  0  0
 39 40  2  0  0  0
 39 41  2  0  0  0
 39 34  1  0  0  0
 34 35  1  0  0  0
 35 36  2  0  0  0
 35 28  1  0  0  0
 28 29  2  0  0  0
 29 30  1  0  0  0
 30 31  2  0  0  0
 31 27  1  0  0  0
 27  1  1  0  0  0
  1  2  2  0  0  0
  2  3  1  0  0  0
  3  4  2  0  0  0
  4  7  1  0  0  0
  7  8  1  0  0  0
  8  9  2  0  0  0
  8 11  1  0  0  0
 11 12  1  0  0  0
 12 13  1  0  0  0
 13 14  1  0  0  0
 14 15  1  0  0  0
 15 16  1  0  0  0
 16 17  2  0  0  0
 16 18  1  0  0  0
 18 20  1  0  0  0
 20 21  2  0  0  0
 21 22  1  0  0  0
 22 23  2  0  0  0
 23 24  1  0  0  0
 23 25  1  0  0  0
 25 26  2  0  0  0
  4  5  1  0  0  0
  5  6  2  0  0  0
 31 32  1  0  0  0
 32 33  2  0  0  0
 33 28  1  0  0  0
  6  1  1  0  0  0
 15 11  1  0  0  0
 26 20  1  0  0  0
 34 37  1  0  0  0
  7 10  1  0  0  0
 18 19  1  0  0  0
M  END
> <minimizedAffinity>
40.50415

> <CNNscore>
0.5296319127

> <CNNaffinity>
6.8195953369

> <CNN_VS>
3.6118752956

> <CNNaffinity_variance>
0.6960626245

$$$$
[H]c1nc(C(=O)N([H])S(=O)(=O)C([H])([H])[H])c([H])nc1Oc1c([H])c([H])c(N([H])C(=O)[C@@]2([H])N(C(=O)N([H])c3c([H])c([H])c(Cl)c([H])c3[H])C([H])([H])C([H])([H])C2([H])[H])c([H])c1[H]


 41 44  0  0  0  0  0  0  0  0999 V2000
    7.9080   25.6643    3.6030 C   0  0  0  0  0  0  0  0  0  0  0  0
    9.0963   26.1968    3.1684 C   0  0  0  0  0  0  0  0  0  0  0  0
   10.0027   25.4368    2.4791 C   0  0  0  0  0  0  0  0  0  0  0  0
    9.7775   24.0846    2.1782 C   0  0  0  0  0  0  0  0  0  0  0  0
    8.5876   23.5785    2.6215 C   0  0  0  0  0  0  0  0  0  0  0  0
    7.6535   24.3542    3.3294 C   0  0  0  0  0  0  0  0  0  0  0  0
   10.7429   23.3582    1.4427 N   0  0  0  0  0  0  0  0  0  0  0  0
   10.4727   22.2887    0.5871 C   0  0  0  0  0  0  0  0  0  0  0  0
    9.3499   21.8464    0.3792 O   0  0  0  0  0  0  0  0  0  0  0  0
   11.7593   23.6674    1.5605 H   0  0  0  0  0  0  0  0  0  0  0  0
   11.6051   21.6269   -0.1296 C   0  0  0  0  0  0  0  0  0  0  0  0
   11.7792   20.1942    0.4098 C   0  0  0  0  0  0  0  0  0  0  0  0
   12.3887   20.4866    1.7670 C   0  0  0  0  0  0  0  0  0  0  0  0
   13.2558   21.7227    1.5020 C   0  0  0  0  0  0  0  0  0  0  0  0
   12.8827   22.1820    0.1963 N   0  0  0  0  0  0  0  0  0  0  0  0
   13.6480   23.0498   -0.6485 C   0  0  0  0  0  0  0  0  0  0  0  0
   14.7566   23.4540   -0.2290 O   0  0  0  0  0  0  0  0  0  0  0  0
   13.1768   23.4432   -1.9147 N   0  0  0  0  0  0  0  0  0  0  0  0
   12.2020   23.0462   -2.2118 H   0  0  0  0  0  0  0  0  0  0  0  0
   13.8417   24.2902   -2.8108 C   0  0  0  0  0  0  0  0  0  0  0  0
   13.4695   25.5811   -3.0411 C   0  0  0  0  0  0  0  0  0  0  0  0
   14.1997   26.3812   -3.9344 C   0  0  0  0  0  0  0  0  0  0  0  0
   15.2941   25.8931   -4.5928 C   0  0  0  0  0  0  0  0  0  0  0  0
   16.1987   26.9222   -5.7107 Cl  0  0  0  0  0  0  0  0  0  0  0  0
   15.6944   24.5817   -4.3781 C   0  0  0  0  0  0  0  0  0  0  0  0
   14.9624   23.8432   -3.5078 C   0  0  0  0  0  0  0  0  0  0  0  0
    6.9971   26.4245    4.2951 O   0  0  0  0  0  0  0  0  0  0  0  0
    4.6346   29.3581    2.5937 C   0  0  0  0  0  0  0  0  0  0  0  0
    4.0859   28.2305    3.1462 C   0  0  0  0  0  0  0  0  0  0  0  0
    4.8812   27.2819    3.6975 N   0  0  0  0  0  0  0  0  0  0  0  0
    6.2107   27.3975    3.7284 C   0  0  0  0  0  0  0  0  0  0  0  0
    6.7618   28.5259    3.1749 C   0  0  0  0  0  0  0  0  0  0  0  0
    5.9972   29.4852    2.6203 N   0  0  0  0  0  0  0  0  0  0  0  0
    4.4451   31.5410    1.3959 N   0  0  0  0  0  0  0  0  0  0  0  0
    3.8342   30.4158    1.9854 C   0  0  0  0  0  0  0  0  0  0  0  0
    2.5570   30.2917    2.0023 O   0  0  0  0  0  0  0  0  0  0  0  0
    5.4672   31.6373    1.3878 H   0  0  0  0  0  0  0  0  0  0  0  0
    2.1815   33.2134    1.8074 C   0  0  0  0  0  0  0  0  0  0  0  0
    3.4795   32.7775    0.6784 S   0  0  0  0  0  0  0  0  0  0  0  0
    2.9524   32.3216   -0.6512 O   0  0  0  0  0  0  0  0  0  0  0  0
    4.3375   34.0073    0.4497 O   0  0  0  0  0  0  0  0  0  0  0  0
 38 39  1  0  0  0
 39 40  2  0  0  0
 39 41  2  0  0  0
 39 34  1  0  0  0
 34 35  1  0  0  0
 35 36  2  0  0  0
 35 28  1  0  0  0
 28 29  2  0  0  0
 29 30  1  0  0  0
 30 31  2  0  0  0
 31 27  1  0  0  0
 27  1  1  0  0  0
  1  2  2  0  0  0
  2  3  1  0  0  0
  3  4  2  0  0  0
  4  7  1  0  0  0
  7  8  1  0  0  0
  8  9  2  0  0  0
  8 11  1  0  0  0
 11 12  1  0  0  0
 12 13  1  0  0  0
 13 14  1  0  0  0
 14 15  1  0  0  0
 15 16  1  0  0  0
 16 17  2  0  0  0
 16 18  1  0  0  0
 18 20  1  0  0  0
 20 21  2  0  0  0
 21 22  1  0  0  0
 22 23  2  0  0  0
 23 24  1  0  0  0
 23 25  1  0  0  0
 25 26  2  0  0  0
  4  5  1  0  0  0
  5  6  2  0  0  0
 31 32  1  0  0  0
 32 33  2  0  0  0
 33 28  1  0  0  0
  6  1  1  0  0  0
 15 11  1  0  0  0
 26 20  1  0  0  0
 34 37  1  0  0  0
  7 10  1  0  0  0
 18 19  1  0  0  0
M  END
> <minimizedAffinity>
-4.18498

> <CNNscore>
0.4351599514

> <CNNaffinity>
6.9760985374

> <CNN_VS>
3.0357186794

> <CNNaffinity_variance>
0.3593237996

$$$$
[H]c1nc(C(=O)N([H])S(=O)(=O)C([H])([H])[H])c([H])nc1Oc1c([H])c([H])c(N([H])C(=O)[C@@]2([H])N(C(=O)N([H])c3c([H])c([H])c(Cl)c([H])c3[H])C([H])([H])C([H])([H])C2([H])[H])c([H])c1[H]


 41 44  0  0  0  0  0  0  0  0999 V2000
   14.3603   23.6168   -1.3041 C   0  0  0  0  0  0  0  0  0  0  0  0
   13.5881   22.5274   -1.6223 C   0  0  0  0  0  0  0  0  0  0  0  0
   12.4329   22.2547   -0.9401 C   0  0  0  0  0  0  0  0  0  0  0  0
   11.9722   23.0601    0.1129 C   0  0  0  0  0  0  0  0  0  0  0  0
   12.7583   24.1383    0.4100 C   0  0  0  0  0  0  0  0  0  0  0  0
   13.9452   24.4228   -0.2872 C   0  0  0  0  0  0  0  0  0  0  0  0
   10.7585   22.7388    0.7642 N   0  0  0  0  0  0  0  0  0  0  0  0
   10.6062   21.7765    1.7641 C   0  0  0  0  0  0  0  0  0  0  0  0
   11.5215   21.0847    2.1922 O   0  0  0  0  0  0  0  0  0  0  0  0
    9.8954   23.2888    0.4559 H   0  0  0  0  0  0  0  0  0  0  0  0
    9.2546   21.5587    2.3639 C   0  0  0  0  0  0  0  0  0  0  0  0
    8.5459   20.4133    1.6158 C   0  0  0  0  0  0  0  0  0  0  0  0
    8.2073   21.1086    0.3115 C   0  0  0  0  0  0  0  0  0  0  0  0
    7.9081   22.5469    0.7494 C   0  0  0  0  0  0  0  0  0  0  0  0
    8.3441   22.6331    2.1123 N   0  0  0  0  0  0  0  0  0  0  0  0
    7.9454   23.6216    3.0696 C   0  0  0  0  0  0  0  0  0  0  0  0
    7.1331   24.5021    2.7046 O   0  0  0  0  0  0  0  0  0  0  0  0
    8.4462   23.6127    4.3846 N   0  0  0  0  0  0  0  0  0  0  0  0
    9.1484   22.8106    4.6283 H   0  0  0  0  0  0  0  0  0  0  0  0
    8.1266   24.5339    5.3904 C   0  0  0  0  0  0  0  0  0  0  0  0
    7.3957   24.2155    6.4960 C   0  0  0  0  0  0  0  0  0  0  0  0
    7.1359   25.1849    7.4780 C   0  0  0  0  0  0  0  0  0  0  0  0
    7.6038   26.4637    7.3544 C   0  0  0  0  0  0  0  0  0  0  0  0
    7.2654   27.6654    8.6067 Cl  0  0  0  0  0  0  0  0  0  0  0  0
    8.3494   26.8156    6.2381 C   0  0  0  0  0  0  0  0  0  0  0  0
    8.5779   25.8500    5.3138 C   0  0  0  0  0  0  0  0  0  0  0  0
   15.5200   23.8923   -1.9866 O   0  0  0  0  0  0  0  0  0  0  0  0
   16.1509   27.3113   -4.2214 C   0  0  0  0  0  0  0  0  0  0  0  0
   15.0640   26.5060   -4.4397 C   0  0  0  0  0  0  0  0  0  0  0  0
   14.8789   25.3893   -3.6947 N   0  0  0  0  0  0  0  0  0  0  0  0
   15.7292   25.0271   -2.7314 C   0  0  0  0  0  0  0  0  0  0  0  0
   16.8186   25.8323   -2.5120 C   0  0  0  0  0  0  0  0  0  0  0  0
   17.0287   26.9477   -3.2361 N   0  0  0  0  0  0  0  0  0  0  0  0
   16.0747   28.6055   -6.3556 N   0  0  0  0  0  0  0  0  0  0  0  0
   16.4071   28.5262   -4.9881 C   0  0  0  0  0  0  0  0  0  0  0  0
   16.9437   29.5213   -4.3809 O   0  0  0  0  0  0  0  0  0  0  0  0
   15.6485   27.8056   -6.8378 H   0  0  0  0  0  0  0  0  0  0  0  0
   15.1166   31.2364   -6.8566 C   0  0  0  0  0  0  0  0  0  0  0  0
   16.3823   30.0534   -7.2418 S   0  0  0  0  0  0  0  0  0  0  0  0
   16.4614   29.7582   -8.7115 O   0  0  0  0  0  0  0  0  0  0  0  0
   17.7150   30.6300   -6.8035 O   0  0  0  0  0  0  0  0  0  0  0  0
 38 39  1  0  0  0
 39 40  2  0  0  0
 39 41  2  0  0  0
 39 34  1  0  0  0
 34 35  1  0  0  0
 35 36  2  0  0  0
 35 28  1  0  0  0
 28 29  2  0  0  0
 29 30  1  0  0  0
 30 31  2  0  0  0
 31 27  1  0  0  0
 27  1  1  0  0  0
  1  2  2  0  0  0
  2  3  1  0  0  0
  3  4  2  0  0  0
  4  7  1  0  0  0
  7  8  1  0  0  0
  8  9  2  0  0  0
  8 11  1  0  0  0
 11 12  1  0  0  0
 12 13  1  0  0  0
 13 14  1  0  0  0
 14 15  1  0  0  0
 15 16  1  0  0  0
 16 17  2  0  0  0
 16 18  1  0  0  0
 18 20  1  0  0  0
 20 21  2  0  0  0
 21 22  1  0  0  0
 22 23  2  0  0  0
 23 24  1  0  0  0
 23 25  1  0  0  0
 25 26  2  0  0  0
  4  5  1  0  0  0
  5  6  2  0  0  0
 31 32  1  0  0  0
 32 33  2  0  0  0
 33 28  1  0  0  0
  6  1  1  0  0  0
 15 11  1  0  0  0
 26 20  1  0  0  0
 34 37  1  0  0  0
  7 10  1  0  0  0
 18 19  1  0  0  0
M  END
> <minimizedAffinity>
9.49708

> <CNNscore>
0.4086630642

> <CNNaffinity>
7.0253190994

> <CNN_VS>
2.8709883690

> <CNNaffinity_variance>
0.2539948523

$$$$
[H]c1nc(C(=O)N([H])S(=O)(=O)C([H])([H])[H])c([H])nc1Oc1c([H])c([H])c(N([H])C(=O)[C@@]2([H])N(C(=O)N([H])c3c([H])c([H])c(Cl)c([H])c3[H])C([H])([H])C([H])([H])C2([H])[H])c([H])c1[H]


 41 44  0  0  0  0  0  0  0  0999 V2000
   13.2494   25.9808   -1.9297 C   0  0  0  0  0  0  0  0  0  0  0  0
   13.6340   24.7245   -2.3276 C   0  0  0  0  0  0  0  0  0  0  0  0
   12.9604   23.6104   -1.9041 C   0  0  0  0  0  0  0  0  0  0  0  0
   11.8503   23.6815   -1.0484 C   0  0  0  0  0  0  0  0  0  0  0  0
   11.4874   24.9430   -0.6670 C   0  0  0  0  0  0  0  0  0  0  0  0
   12.1753   26.0901   -1.0987 C   0  0  0  0  0  0  0  0  0  0  0  0
   11.1821   22.4955   -0.6642 N   0  0  0  0  0  0  0  0  0  0  0  0
   10.4356   22.3286    0.5036 C   0  0  0  0  0  0  0  0  0  0  0  0
   10.2787   23.2038    1.3455 O   0  0  0  0  0  0  0  0  0  0  0  0
   11.2628   21.6676   -1.3356 H   0  0  0  0  0  0  0  0  0  0  0  0
    9.7788   21.0117    0.7647 C   0  0  0  0  0  0  0  0  0  0  0  0
    9.9221   20.1169   -0.4815 C   0  0  0  0  0  0  0  0  0  0  0  0
    8.9316   20.7876   -1.4134 C   0  0  0  0  0  0  0  0  0  0  0  0
    7.8236   21.2597   -0.4649 C   0  0  0  0  0  0  0  0  0  0  0  0
    8.3537   21.0985    0.8571 N   0  0  0  0  0  0  0  0  0  0  0  0
    7.5977   21.0348    2.0723 C   0  0  0  0  0  0  0  0  0  0  0  0
    6.3506   21.1199    1.9961 O   0  0  0  0  0  0  0  0  0  0  0  0
    8.2283   20.8816    3.3210 N   0  0  0  0  0  0  0  0  0  0  0  0
    9.3194   20.8113    3.3054 H   0  0  0  0  0  0  0  0  0  0  0  0
    7.5836   20.8157    4.5630 C   0  0  0  0  0  0  0  0  0  0  0  0
    8.0724   21.3971    5.6948 C   0  0  0  0  0  0  0  0  0  0  0  0
    7.3583   21.3127    6.9008 C   0  0  0  0  0  0  0  0  0  0  0  0
    6.1639   20.6512    6.9738 C   0  0  0  0  0  0  0  0  0  0  0  0
    5.2823   20.5618    8.5041 Cl  0  0  0  0  0  0  0  0  0  0  0  0
    5.6437   20.0487    5.8369 C   0  0  0  0  0  0  0  0  0  0  0  0
    6.3643   20.1538    4.6930 C   0  0  0  0  0  0  0  0  0  0  0  0
   13.9237   27.1001   -2.3527 O   0  0  0  0  0  0  0  0  0  0  0  0
   15.6990   27.4808   -6.0655 C   0  0  0  0  0  0  0  0  0  0  0  0
   15.9460   28.3788   -5.0604 C   0  0  0  0  0  0  0  0  0  0  0  0
   15.3513   28.2336   -3.8515 N   0  0  0  0  0  0  0  0  0  0  0  0
   14.5129   27.2291   -3.5865 C   0  0  0  0  0  0  0  0  0  0  0  0
   14.2641   26.3292   -4.5924 C   0  0  0  0  0  0  0  0  0  0  0  0
   14.8403   26.4476   -5.8033 N   0  0  0  0  0  0  0  0  0  0  0  0
   16.9998   28.7433   -7.7831 N   0  0  0  0  0  0  0  0  0  0  0  0
   16.3073   27.5807   -7.3882 C   0  0  0  0  0  0  0  0  0  0  0  0
   16.1938   26.5788   -8.1820 O   0  0  0  0  0  0  0  0  0  0  0  0
   17.0850   29.5435   -7.1457 H   0  0  0  0  0  0  0  0  0  0  0  0
   16.5433   29.5640  -10.4680 C   0  0  0  0  0  0  0  0  0  0  0  0
   17.7152   28.8381   -9.3501 S   0  0  0  0  0  0  0  0  0  0  0  0
   18.1685   27.4793   -9.7992 O   0  0  0  0  0  0  0  0  0  0  0  0
   18.9299   29.7443   -9.2872 O   0  0  0  0  0  0  0  0  0  0  0  0
 38 39  1  0  0  0
 39 40  2  0  0  0
 39 41  2  0  0  0
 39 34  1  0  0  0
 34 35  1  0  0  0
 35 36  2  0  0  0
 35 28  1  0  0  0
 28 29  2  0  0  0
 29 30  1  0  0  0
 30 31  2  0  0  0
 31 27  1  0  0  0
 27  1  1  0  0  0
  1  2  2  0  0  0
  2  3  1  0  0  0
  3  4  2  0  0  0
  4  7  1  0  0  0
  7  8  1  0  0  0
  8  9  2  0  0  0
  8 11  1  0  0  0
 11 12  1  0  0  0
 12 13  1  0  0  0
 13 14  1  0  0  0
 14 15  1  0  0  0
 15 16  1  0  0  0
 16 17  2  0  0  0
 16 18  1  0  0  0
 18 20  1  0  0  0
 20 21  2  0  0  0
 21 22  1  0  0  0
 22 23  2  0  0  0
 23 24  1  0  0  0
 23 25  1  0  0  0
 25 26  2  0  0  0
  4  5  1  0  0  0
  5  6  2  0  0  0
 31 32  1  0  0  0
 32 33  2  0  0  0
 33 28  1  0  0  0
  6  1  1  0  0  0
 15 11  1  0  0  0
 26 20  1  0  0  0
 34 37  1  0  0  0
  7 10  1  0  0  0
 18 19  1  0  0  0
M  END
> <minimizedAffinity>
25.51184

> <CNNscore>
0.4069791734

> <CNNaffinity>
6.7893114090

> <CNN_VS>
2.7631082535

> <CNNaffinity_variance>
0.4081119001

$$$$
[H]c1nc(C(=O)N([H])S(=O)(=O)C([H])([H])[H])c([H])nc1Oc1c([H])c([H])c(N([H])C(=O)[C@@]2([H])N(C(=O)N([H])c3c([H])c([H])c(Cl)c([H])c3[H])C([H])([H])C([H])([H])C2([H])[H])c([H])c1[H]


 41 44  0  0  0  0  0  0  0  0999 V2000
    7.4638   25.9014    3.4369 C   0  0  0  0  0  0  0  0  0  0  0  0
    8.1598   25.8465    2.2548 C   0  0  0  0  0  0  0  0  0  0  0  0
    8.4668   24.6478    1.6690 C   0  0  0  0  0  0  0  0  0  0  0  0
    8.0952   23.4172    2.2322 C   0  0  0  0  0  0  0  0  0  0  0  0
    7.4032   23.4990    3.4083 C   0  0  0  0  0  0  0  0  0  0  0  0
    7.0853   24.7268    4.0140 C   0  0  0  0  0  0  0  0  0  0  0  0
    8.4220   22.2126    1.5669 N   0  0  0  0  0  0  0  0  0  0  0  0
    9.7112   21.7035    1.4007 C   0  0  0  0  0  0  0  0  0  0  0  0
   10.7230   22.2564    1.8131 O   0  0  0  0  0  0  0  0  0  0  0  0
    7.6027   21.6557    1.1656 H   0  0  0  0  0  0  0  0  0  0  0  0
    9.8937   20.4073    0.6791 C   0  0  0  0  0  0  0  0  0  0  0  0
   11.3952   20.0668    0.6188 C   0  0  0  0  0  0  0  0  0  0  0  0
   11.8615   21.0746   -0.4137 C   0  0  0  0  0  0  0  0  0  0  0  0
   10.6701   21.1684   -1.3738 C   0  0  0  0  0  0  0  0  0  0  0  0
    9.5919   20.4895   -0.7170 N   0  0  0  0  0  0  0  0  0  0  0  0
    8.4078   19.9767   -1.3394 C   0  0  0  0  0  0  0  0  0  0  0  0
    8.2838   20.1183   -2.5775 O   0  0  0  0  0  0  0  0  0  0  0  0
    7.4065   19.3311   -0.5904 N   0  0  0  0  0  0  0  0  0  0  0  0
    7.5887   19.2431    0.4843 H   0  0  0  0  0  0  0  0  0  0  0  0
    6.2133   18.8028   -1.0996 C   0  0  0  0  0  0  0  0  0  0  0  0
    5.4349   19.4492   -2.0129 C   0  0  0  0  0  0  0  0  0  0  0  0
    4.2638   18.8468   -2.5000 C   0  0  0  0  0  0  0  0  0  0  0  0
    3.8742   17.6067   -2.0759 C   0  0  0  0  0  0  0  0  0  0  0  0
    2.3965   16.8684   -2.7069 Cl  0  0  0  0  0  0  0  0  0  0  0  0
    4.6473   16.9266   -1.1453 C   0  0  0  0  0  0  0  0  0  0  0  0
    5.7701   17.5432   -0.7008 C   0  0  0  0  0  0  0  0  0  0  0  0
    7.1548   27.1026    4.0269 O   0  0  0  0  0  0  0  0  0  0  0  0
    4.6377   29.9363    2.3789 C   0  0  0  0  0  0  0  0  0  0  0  0
    4.1502   28.7728    2.9138 C   0  0  0  0  0  0  0  0  0  0  0  0
    4.9954   27.8581    3.4477 N   0  0  0  0  0  0  0  0  0  0  0  0
    6.3172   28.0424    3.4779 C   0  0  0  0  0  0  0  0  0  0  0  0
    6.8071   29.2070    2.9420 C   0  0  0  0  0  0  0  0  0  0  0  0
    5.9919   30.1340    2.4048 N   0  0  0  0  0  0  0  0  0  0  0  0
    4.2609   32.2671    1.5656 N   0  0  0  0  0  0  0  0  0  0  0  0
    3.7815   30.9606    1.7897 C   0  0  0  0  0  0  0  0  0  0  0  0
    2.5786   30.6373    1.4808 O   0  0  0  0  0  0  0  0  0  0  0  0
    5.2230   32.5218    1.8175 H   0  0  0  0  0  0  0  0  0  0  0  0
    1.9547   33.8668    2.0264 C   0  0  0  0  0  0  0  0  0  0  0  0
    3.2326   33.4613    0.8636 S   0  0  0  0  0  0  0  0  0  0  0  0
    2.6820   32.9713   -0.4442 O   0  0  0  0  0  0  0  0  0  0  0  0
    4.0408   34.7165    0.5952 O   0  0  0  0  0  0  0  0  0  0  0  0
 38 39  1  0  0  0
 39 40  2  0  0  0
 39 41  2  0  0  0
 39 34  1  0  0  0
 34 35  1  0  0  0
 35 36  2  0  0  0
 35 28  1  0  0  0
 28 29  2  0  0  0
 29 30  1  0  0  0
 30 31  2  0  0  0
 31 27  1  0  0  0
 27  1  1  0  0  0
  1  2  2  0  0  0
  2  3  1  0  0  0
  3  4  2  0  0  0
  4  7  1  0  0  0
  7  8  1  0  0  0
  8  9  2  0  0  0
  8 11  1  0  0  0
 11 12  1  0  0  0
 12 13  1  0  0  0
 13 14  1  0  0  0
 14 15  1  0  0  0
 15 16  1  0  0  0
 16 17  2  0  0  0
 16 18  1  0  0  0
 18 20  1  0  0  0
 20 21  2  0  0  0
 21 22  1  0  0  0
 22 23  2  0  0  0
 23 24  1  0  0  0
 23 25  1  0  0  0
 25 26  2  0  0  0
  4  5  1  0  0  0
  5  6  2  0  0  0
 31 32  1  0  0  0
 32 33  2  0  0  0
 33 28  1  0  0  0
  6  1  1  0  0  0
 15 11  1  0  0  0
 26 20  1  0  0  0
 34 37  1  0  0  0
  7 10  1  0  0  0
 18 19  1  0  0  0
M  END
> <minimizedAffinity>
-2.13497

> <CNNscore>
0.3740348816

> <CNNaffinity>
5.9193043709

> <CNN_VS>
2.2140262127

> <CNNaffinity_variance>
0.1582889557

$$$$
[H]c1nc(C(=O)N([H])S(=O)(=O)C([H])([H])[H])c([H])nc1Oc1c([H])c([H])c(N([H])C(=O)[C@@]2([H])N(C(=O)N([H])c3c([H])c([H])c(Cl)c([H])c3[H])C([H])([H])C([H])([H])C2([H])[H])c([H])c1[H]


 41 44  0  0  0  0  0  0  0  0999 V2000
   16.1934   27.6178   -5.4183 C   0  0  0  0  0  0  0  0  0  0  0  0
   16.6583   27.1202   -4.2263 C   0  0  0  0  0  0  0  0  0  0  0  0
   15.8240   26.4707   -3.3566 C   0  0  0  0  0  0  0  0  0  0  0  0
   14.4603   26.2757   -3.6249 C   0  0  0  0  0  0  0  0  0  0  0  0
   14.0224   26.7799   -4.8177 C   0  0  0  0  0  0  0  0  0  0  0  0
   14.8745   27.4475   -5.7142 C   0  0  0  0  0  0  0  0  0  0  0  0
   13.6545   25.5763   -2.6965 N   0  0  0  0  0  0  0  0  0  0  0  0
   13.0067   26.1438   -1.5977 C   0  0  0  0  0  0  0  0  0  0  0  0
   13.0705   27.3310   -1.3047 O   0  0  0  0  0  0  0  0  0  0  0  0
   13.5396   24.5271   -2.8650 H   0  0  0  0  0  0  0  0  0  0  0  0
   12.1797   25.2704   -0.7104 C   0  0  0  0  0  0  0  0  0  0  0  0
   11.5193   26.1352    0.3805 C   0  0  0  0  0  0  0  0  0  0  0  0
   12.7208   26.4325    1.2564 C   0  0  0  0  0  0  0  0  0  0  0  0
   13.5495   25.1463    1.1616 C   0  0  0  0  0  0  0  0  0  0  0  0
   12.9598   24.3857    0.0992 N   0  0  0  0  0  0  0  0  0  0  0  0
   13.1172   22.9797   -0.1262 C   0  0  0  0  0  0  0  0  0  0  0  0
   13.8296   22.3304    0.6733 O   0  0  0  0  0  0  0  0  0  0  0  0
   12.4939   22.3369   -1.2118 N   0  0  0  0  0  0  0  0  0  0  0  0
   11.8856   22.9704   -1.8634 H   0  0  0  0  0  0  0  0  0  0  0  0
   12.5894   20.9745   -1.5233 C   0  0  0  0  0  0  0  0  0  0  0  0
   13.5353   20.4594   -2.3587 C   0  0  0  0  0  0  0  0  0  0  0  0
   13.5879   19.0780   -2.6048 C   0  0  0  0  0  0  0  0  0  0  0  0
   12.7002   18.2184   -2.0196 C   0  0  0  0  0  0  0  0  0  0  0  0
   12.7894   16.4822   -2.3435 Cl  0  0  0  0  0  0  0  0  0  0  0  0
   11.7258   18.7160   -1.1658 C   0  0  0  0  0  0  0  0  0  0  0  0
   11.7097   20.0554   -0.9548 C   0  0  0  0  0  0  0  0  0  0  0  0
   17.0282   28.2702   -6.2924 O   0  0  0  0  0  0  0  0  0  0  0  0
   16.1811   28.9119  -10.2864 C   0  0  0  0  0  0  0  0  0  0  0  0
   16.5740   29.9368   -9.4661 C   0  0  0  0  0  0  0  0  0  0  0  0
   16.8453   29.7019   -8.1595 N   0  0  0  0  0  0  0  0  0  0  0  0
   16.7452   28.4854   -7.6189 C   0  0  0  0  0  0  0  0  0  0  0  0
   16.3513   27.4580   -8.4391 C   0  0  0  0  0  0  0  0  0  0  0  0
   16.0752   27.6609   -9.7410 N   0  0  0  0  0  0  0  0  0  0  0  0
   16.8813   29.4561  -12.6208 N   0  0  0  0  0  0  0  0  0  0  0  0
   15.8749   29.0984  -11.7009 C   0  0  0  0  0  0  0  0  0  0  0  0
   14.6620   28.9269  -12.0837 O   0  0  0  0  0  0  0  0  0  0  0  0
   17.8495   29.5954  -12.3093 H   0  0  0  0  0  0  0  0  0  0  0  0
   16.0765   28.0877  -14.9810 C   0  0  0  0  0  0  0  0  0  0  0  0
   16.4976   29.6670  -14.2896 S   0  0  0  0  0  0  0  0  0  0  0  0
   17.6420   30.3199  -15.0090 O   0  0  0  0  0  0  0  0  0  0  0  0
   15.2863   30.5720  -14.4099 O   0  0  0  0  0  0  0  0  0  0  0  0
 38 39  1  0  0  0
 39 40  2  0  0  0
 39 41  2  0  0  0
 39 34  1  0  0  0
 34 35  1  0  0  0
 35 36  2  0  0  0
 35 28  1  0  0  0
 28 29  2  0  0  0
 29 30  1  0  0  0
 30 31  2  0  0  0
 31 27  1  0  0  0
 27  1  1  0  0  0
  1  2  2  0  0  0
  2  3  1  0  0  0
  3  4  2  0  0  0
  4  7  1  0  0  0
  7  8  1  0  0  0
  8  9  2  0  0  0
  8 11  1  0  0  0
 11 12  1  0  0  0
 12 13  1  0  0  0
 13 14  1  0  0  0
 14 15  1  0  0  0
 15 16  1  0  0  0
 16 17  2  0  0  0
 16 18  1  0  0  0
 18 20  1  0  0  0
 20 21  2  0  0  0
 21 22  1  0  0  0
 22 23  2  0  0  0
 23 24  1  0  0  0
 23 25  1  0  0  0
 25 26  2  0  0  0
  4  5  1  0  0  0
  5  6  2  0  0  0
 31 32  1  0  0  0
 32 33  2  0  0  0
 33 28  1  0  0  0
  6  1  1  0  0  0
 15 11  1  0  0  0
 26 20  1  0  0  0
 34 37  1  0  0  0
  7 10  1  0  0  0
 18 19  1  0  0  0
M  END
> <minimizedAffinity>
64.27708

> <CNNscore>
0.3600496948

> <CNNaffinity>
6.3619966507

> <CNN_VS>
2.2906348705

> <CNNaffinity_variance>
0.4852072597

$$$$
[H]c1nc(C(=O)N([H])S(=O)(=O)C([H])([H])[H])c([H])nc1Oc1c([H])c([H])c(N([H])C(=O)[C@@]2([H])N(C(=O)N([H])c3c([H])c([H])c(Cl)c([H])c3[H])C([H])([H])C([H])([H])C2([H])[H])c([H])c1[H]


 41 44  0  0  0  0  0  0  0  0999 V2000
   15.4074   25.8795   -3.8390 C   0  0  0  0  0  0  0  0  0  0  0  0
   16.3179   24.9570   -3.3868 C   0  0  0  0  0  0  0  0  0  0  0  0
   15.9621   23.9982   -2.4767 C   0  0  0  0  0  0  0  0  0  0  0  0
   14.6626   23.8998   -1.9556 C   0  0  0  0  0  0  0  0  0  0  0  0
   13.7751   24.8292   -2.4216 C   0  0  0  0  0  0  0  0  0  0  0  0
   14.1351   25.8156   -3.3560 C   0  0  0  0  0  0  0  0  0  0  0  0
   14.3508   22.8724   -1.0349 N   0  0  0  0  0  0  0  0  0  0  0  0
   13.2671   22.8754   -0.1548 C   0  0  0  0  0  0  0  0  0  0  0  0
   12.4542   23.7877   -0.0744 O   0  0  0  0  0  0  0  0  0  0  0  0
   15.0074   22.0291   -1.0258 H   0  0  0  0  0  0  0  0  0  0  0  0
   13.0655   21.7062    0.7543 C   0  0  0  0  0  0  0  0  0  0  0  0
   13.8681   20.5040    0.2209 C   0  0  0  0  0  0  0  0  0  0  0  0
   13.0232   20.1237   -0.9794 C   0  0  0  0  0  0  0  0  0  0  0  0
   11.5953   20.4299   -0.5130 C   0  0  0  0  0  0  0  0  0  0  0  0
   11.7389   21.1728    0.7045 N   0  0  0  0  0  0  0  0  0  0  0  0
   10.7338   21.3588    1.7084 C   0  0  0  0  0  0  0  0  0  0  0  0
    9.6155   20.8245    1.5292 O   0  0  0  0  0  0  0  0  0  0  0  0
   10.9854   22.1183    2.8660 N   0  0  0  0  0  0  0  0  0  0  0  0
   11.9865   22.5499    2.9521 H   0  0  0  0  0  0  0  0  0  0  0  0
   10.0726   22.3655    3.8995 C   0  0  0  0  0  0  0  0  0  0  0  0
    9.5714   23.6017    4.1794 C   0  0  0  0  0  0  0  0  0  0  0  0
    8.6383   23.7711    5.2148 C   0  0  0  0  0  0  0  0  0  0  0  0
    8.2100   22.7112    5.9648 C   0  0  0  0  0  0  0  0  0  0  0  0
    7.0316   22.9504    7.2614 Cl  0  0  0  0  0  0  0  0  0  0  0  0
    8.7051   21.4415    5.7024 C   0  0  0  0  0  0  0  0  0  0  0  0
    9.6039   21.3212    4.6942 C   0  0  0  0  0  0  0  0  0  0  0  0
   15.7618   26.8427   -4.7517 O   0  0  0  0  0  0  0  0  0  0  0  0
   15.7715   26.2798   -8.8462 C   0  0  0  0  0  0  0  0  0  0  0  0
   15.6488   27.5293   -8.2975 C   0  0  0  0  0  0  0  0  0  0  0  0
   15.6472   27.6887   -6.9518 N   0  0  0  0  0  0  0  0  0  0  0  0
   15.7629   26.6571   -6.1125 C   0  0  0  0  0  0  0  0  0  0  0  0
   15.8854   25.4049   -6.6606 C   0  0  0  0  0  0  0  0  0  0  0  0
   15.8902   25.2156   -7.9935 N   0  0  0  0  0  0  0  0  0  0  0  0
   15.4615   27.0701  -11.1946 N   0  0  0  0  0  0  0  0  0  0  0  0
   15.7805   26.0409  -10.2858 C   0  0  0  0  0  0  0  0  0  0  0  0
   16.0879   24.8661  -10.7008 O   0  0  0  0  0  0  0  0  0  0  0  0
   15.2130   28.0074  -10.8576 H   0  0  0  0  0  0  0  0  0  0  0  0
   15.9185   28.2676  -13.7338 C   0  0  0  0  0  0  0  0  0  0  0  0
   15.4828   26.7667  -12.8928 S   0  0  0  0  0  0  0  0  0  0  0  0
   14.1575   26.2232  -13.3419 O   0  0  0  0  0  0  0  0  0  0  0  0
   16.5466   25.7296  -13.1985 O   0  0  0  0  0  0  0  0  0  0  0  0
 38 39  1  0  0  0
 39 40  2  0  0  0
 39 41  2  0  0  0
 39 34  1  0  0  0
 34 35  1  0  0  0
 35 36  2  0  0  0
 35 28  1  0  0  0
 28 29  2  0  0  0
 29 30  1  0  0  0
 30 31  2  0  0  0
 31 27  1  0  0  0
 27  1  1  0  0  0
  1  2  2  0  0  0
  2  3  1  0  0  0
  3  4  2  0  0  0
  4  7  1  0  0  0
  7  8  1  0  0  0
  8  9  2  0  0  0
  8 11  1  0  0  0
 11 12  1  0  0  0
 12 13  1  0  0  0
 13 14  1  0  0  0
 14 15  1  0  0  0
 15 16  1  0  0  0
 16 17  2  0  0  0
 16 18  1  0  0  0
 18 20  1  0  0  0
 20 21  2  0  0  0
 21 22  1  0  0  0
 22 23  2  0  0  0
 23 24  1  0  0  0
 23 25  1  0  0  0
 25 26  2  0  0  0
  4  5  1  0  0  0
  5  6  2  0  0  0
 31 32  1  0  0  0
 32 33  2  0  0  0
 33 28  1  0  0  0
  6  1  1  0  0  0
 15 11  1  0  0  0
 26 20  1  0  0  0
 34 37  1  0  0  0
  7 10  1  0  0  0
 18 19  1  0  0  0
M  END
> <minimizedAffinity>
38.47434

> <CNNscore>
0.3222428560

> <CNNaffinity>
7.0859518051

> <CNN_VS>
2.2833974361

> <CNNaffinity_variance>
0.1469078213

$$$$
[H]c1nc(C(=O)N([H])S(=O)(=O)C([H])([H])[H])c([H])nc1Oc1c([H])c([H])c(N([H])C(=O)[C@@]2([H])N(C(=O)N([H])c3c([H])c([H])c(Cl)c([H])c3[H])C([H])([H])C([H])([H])C2([H])[H])c([H])c1[H]


 41 44  0  0  0  0  0  0  0  0999 V2000
   13.5626   23.7479   -0.7861 C   0  0  0  0  0  0  0  0  0  0  0  0
   13.3558   22.7078    0.0857 C   0  0  0  0  0  0  0  0  0  0  0  0
   12.1107   22.4431    0.5895 C   0  0  0  0  0  0  0  0  0  0  0  0
   10.9833   23.2076    0.2515 C   0  0  0  0  0  0  0  0  0  0  0  0
   11.2154   24.2366   -0.6180 C   0  0  0  0  0  0  0  0  0  0  0  0
   12.4916   24.5128   -1.1382 C   0  0  0  0  0  0  0  0  0  0  0  0
    9.7188   22.8699    0.7875 N   0  0  0  0  0  0  0  0  0  0  0  0
    9.0212   23.6093    1.7444 C   0  0  0  0  0  0  0  0  0  0  0  0
    9.4366   24.6484    2.2417 O   0  0  0  0  0  0  0  0  0  0  0  0
    9.2718   21.9722    0.4175 H   0  0  0  0  0  0  0  0  0  0  0  0
    7.6849   23.1242    2.2060 C   0  0  0  0  0  0  0  0  0  0  0  0
    7.5537   23.3643    3.7223 C   0  0  0  0  0  0  0  0  0  0  0  0
    8.4828   22.2882    4.2496 C   0  0  0  0  0  0  0  0  0  0  0  0
    8.2902   21.1403    3.2520 C   0  0  0  0  0  0  0  0  0  0  0  0
    7.5523   21.7005    2.1581 N   0  0  0  0  0  0  0  0  0  0  0  0
    6.8061   20.9713    1.1763 C   0  0  0  0  0  0  0  0  0  0  0  0
    6.7762   19.7225    1.2661 O   0  0  0  0  0  0  0  0  0  0  0  0
    6.1231   21.6293    0.1368 N   0  0  0  0  0  0  0  0  0  0  0  0
    6.1938   22.7205    0.1276 H   0  0  0  0  0  0  0  0  0  0  0  0
    5.3741   21.0112   -0.8729 C   0  0  0  0  0  0  0  0  0  0  0  0
    5.9135   20.1712   -1.8010 C   0  0  0  0  0  0  0  0  0  0  0  0
    5.0968   19.5655   -2.7693 C   0  0  0  0  0  0  0  0  0  0  0  0
    3.7501   19.7989   -2.8088 C   0  0  0  0  0  0  0  0  0  0  0  0
    2.7427   19.0213   -4.0366 Cl  0  0  0  0  0  0  0  0  0  0  0  0
    3.1748   20.6510   -1.8767 C   0  0  0  0  0  0  0  0  0  0  0  0
    3.9983   21.2151   -0.9588 C   0  0  0  0  0  0  0  0  0  0  0  0
   14.8108   24.0159   -1.2927 O   0  0  0  0  0  0  0  0  0  0  0  0
   15.5406   26.5442   -4.4796 C   0  0  0  0  0  0  0  0  0  0  0  0
   14.3650   25.8480   -4.3751 C   0  0  0  0  0  0  0  0  0  0  0  0
   14.1490   25.0241   -3.3212 N   0  0  0  0  0  0  0  0  0  0  0  0
   15.0526   24.8541   -2.3533 C   0  0  0  0  0  0  0  0  0  0  0  0
   16.2307   25.5503   -2.4569 C   0  0  0  0  0  0  0  0  0  0  0  0
   16.4735   26.3760   -3.4922 N   0  0  0  0  0  0  0  0  0  0  0  0
   15.9912   28.8312   -5.3753 N   0  0  0  0  0  0  0  0  0  0  0  0
   15.8343   27.4466   -5.5881 C   0  0  0  0  0  0  0  0  0  0  0  0
   15.9461   26.9429   -6.7632 O   0  0  0  0  0  0  0  0  0  0  0  0
   15.8976   29.2298   -4.4340 H   0  0  0  0  0  0  0  0  0  0  0  0
   16.5478   28.8974   -8.1640 C   0  0  0  0  0  0  0  0  0  0  0  0
   16.3427   29.8793   -6.6999 S   0  0  0  0  0  0  0  0  0  0  0  0
   17.5527   30.7145   -6.3968 O   0  0  0  0  0  0  0  0  0  0  0  0
   15.1675   30.8127   -6.9196 O   0  0  0  0  0  0  0  0  0  0  0  0
 38 39  1  0  0  0
 39 40  2  0  0  0
 39 41  2  0  0  0
 39 34  1  0  0  0
 34 35  1  0  0  0
 35 36  2  0  0  0
 35 28  1  0  0  0
 28 29  2  0  0  0
 29 30  1  0  0  0
 30 31  2  0  0  0
 31 27  1  0  0  0
 27  1  1  0  0  0
  1  2  2  0  0  0
  2  3  1  0  0  0
  3  4  2  0  0  0
  4  7  1  0  0  0
  7  8  1  0  0  0
  8  9  2  0  0  0
  8 11  1  0  0  0
 11 12  1  0  0  0
 12 13  1  0  0  0
 13 14  1  0  0  0
 14 15  1  0  0  0
 15 16  1  0  0  0
 16 17  2  0  0  0
 16 18  1  0  0  0
 18 20  1  0  0  0
 20 21  2  0  0  0
 21 22  1  0  0  0
 22 23  2  0  0  0
 23 24  1  0  0  0
 23 25  1  0  0  0
 25 26  2  0  0  0
  4  5  1  0  0  0
  5  6  2  0  0  0
 31 32  1  0  0  0
 32 33  2  0  0  0
 33 28  1  0  0  0
  6  1  1  0  0  0
 15 11  1  0  0  0
 26 20  1  0  0  0
 34 37  1  0  0  0
  7 10  1  0  0  0
 18 19  1  0  0  0
M  END
> <minimizedAffinity>
3.67816

> <CNNscore>
0.2990142107

> <CNNaffinity>
6.9029321671

> <CNN_VS>
2.0640747547

> <CNNaffinity_variance>
0.0954831988

$$$$
[H]c1nc(C(=O)N([H])S(=O)(=O)C([H])([H])[H])c([H])nc1Oc1c([H])c([H])c(N([H])C(=O)[C@@]2([H])N(C(=O)N([H])c3c([H])c([H])c(Cl)c([H])c3[H])C([H])([H])C([H])([H])C2([H])[H])c([H])c1[H]


 41 44  0  0  0  0  0  0  0  0999 V2000
   14.7335   24.0579   -0.8348 C   0  0  0  0  0  0  0  0  0  0  0  0
   14.6539   23.8044    0.5120 C   0  0  0  0  0  0  0  0  0  0  0  0
   13.4481   23.5797    1.1201 C   0  0  0  0  0  0  0  0  0  0  0  0
   12.2347   23.5946    0.4150 C   0  0  0  0  0  0  0  0  0  0  0  0
   12.3409   23.8488   -0.9239 C   0  0  0  0  0  0  0  0  0  0  0  0
   13.5762   24.0802   -1.5532 C   0  0  0  0  0  0  0  0  0  0  0  0
   11.0230   23.3323    1.0960 N   0  0  0  0  0  0  0  0  0  0  0  0
    9.8390   24.0576    0.9505 C   0  0  0  0  0  0  0  0  0  0  0  0
    9.7164   25.0244    0.2091 O   0  0  0  0  0  0  0  0  0  0  0  0
   11.0296   22.5053    1.7731 H   0  0  0  0  0  0  0  0  0  0  0  0
    8.6350   23.6492    1.7362 C   0  0  0  0  0  0  0  0  0  0  0  0
    8.8459   24.0185    3.2171 C   0  0  0  0  0  0  0  0  0  0  0  0
    9.8604   22.9654    3.6184 C   0  0  0  0  0  0  0  0  0  0  0  0
    9.4417   21.7438    2.7921 C   0  0  0  0  0  0  0  0  0  0  0  0
    8.4836   22.2306    1.8434 N   0  0  0  0  0  0  0  0  0  0  0  0
    7.5321   21.4425    1.1182 C   0  0  0  0  0  0  0  0  0  0  0  0
    7.5129   20.2069    1.3212 O   0  0  0  0  0  0  0  0  0  0  0  0
    6.6404   22.0298    0.2016 N   0  0  0  0  0  0  0  0  0  0  0  0
    6.7160   23.1141    0.0816 H   0  0  0  0  0  0  0  0  0  0  0  0
    5.6809   21.3502   -0.5599 C   0  0  0  0  0  0  0  0  0  0  0  0
    5.8709   20.0979   -1.0636 C   0  0  0  0  0  0  0  0  0  0  0  0
    4.8535   19.4663   -1.7967 C   0  0  0  0  0  0  0  0  0  0  0  0
    3.6547   20.0833   -2.0243 C   0  0  0  0  0  0  0  0  0  0  0  0
    2.3882   19.2651   -2.9481 Cl  0  0  0  0  0  0  0  0  0  0  0  0
    3.4349   21.3591   -1.5242 C   0  0  0  0  0  0  0  0  0  0  0  0
    4.4427   21.9333   -0.8218 C   0  0  0  0  0  0  0  0  0  0  0  0
   15.9419   24.2840   -1.4472 O   0  0  0  0  0  0  0  0  0  0  0  0
   16.6713   27.3549   -4.1155 C   0  0  0  0  0  0  0  0  0  0  0  0
   15.9687   27.5662   -2.9582 C   0  0  0  0  0  0  0  0  0  0  0  0
   15.7413   26.5433   -2.0991 N   0  0  0  0  0  0  0  0  0  0  0  0
   16.1818   25.3051   -2.3338 C   0  0  0  0  0  0  0  0  0  0  0  0
   16.8852   25.0918   -3.4928 C   0  0  0  0  0  0  0  0  0  0  0  0
   17.1267   26.0884   -4.3650 N   0  0  0  0  0  0  0  0  0  0  0  0
   15.9036   29.0806   -5.7490 N   0  0  0  0  0  0  0  0  0  0  0  0
   16.9500   28.4131   -5.0809 C   0  0  0  0  0  0  0  0  0  0  0  0
   18.1762   28.7190   -5.3039 O   0  0  0  0  0  0  0  0  0  0  0  0
   14.9243   28.8301   -5.5696 H   0  0  0  0  0  0  0  0  0  0  0  0
   17.5042   31.3892   -6.1951 C   0  0  0  0  0  0  0  0  0  0  0  0
   16.2559   30.3319   -6.8833 S   0  0  0  0  0  0  0  0  0  0  0  0
   15.0043   31.0806   -7.2389 O   0  0  0  0  0  0  0  0  0  0  0  0
   16.8110   29.7109   -8.1509 O   0  0  0  0  0  0  0  0  0  0  0  0
 38 39  1  0  0  0
 39 40  2  0  0  0
 39 41  2  0  0  0
 39 34  1  0  0  0
 34 35  1  0  0  0
 35 36  2  0  0  0
 35 28  1  0  0  0
 28 29  2  0  0  0
 29 30  1  0  0  0
 30 31  2  0  0  0
 31 27  1  0  0  0
 27  1  1  0  0  0
  1  2  2  0  0  0
  2  3  1  0  0  0
  3  4  2  0  0  0
  4  7  1  0  0  0
  7  8  1  0  0  0
  8  9  2  0  0  0
  8 11  1  0  0  0
 11 12  1  0  0  0
 12 13  1  0  0  0
 13 14  1  0  0  0
 14 15  1  0  0  0
 15 16  1  0  0  0
 16 17  2  0  0  0
 16 18  1  0  0  0
 18 20  1  0  0  0
 20 21  2  0  0  0
 21 22  1  0  0  0
 22 23  2  0  0  0
 23 24  1  0  0  0
 23 25  1  0  0  0
 25 26  2  0  0  0
  4  5  1  0  0  0
  5  6  2  0  0  0
 31 32  1  0  0  0
 32 33  2  0  0  0
 33 28  1  0  0  0
  6  1  1  0  0  0
 15 11  1  0  0  0
 26 20  1  0  0  0
 34 37  1  0  0  0
  7 10  1  0  0  0
 18 19  1  0  0  0
M  END
> <minimizedAffinity>
15.75130

> <CNNscore>
0.2930819988

> <CNNaffinity>
6.7048540115

> <CNN_VS>
1.9650720358

> <CNNaffinity_variance>
0.1563572586

$$$$
[H]c1nc2c(S(=O)(=O)N([H])C(C(=O)OC([H])([H])[H])(C([H])([H])[H])C([H])([H])[H])c([H])c([H])c(N([H])C(=O)N3C([H])([H])C([H])([H])N(c4c([H])c([H])c(C(=O)N([H])[H])c([H])c4C([H])([H])[H])C([H])([H])C3([H])[H])c2c([H])c1[H]


 44 47  0  0  0  0  0  0  0  0999 V2000
   15.1277   25.3873   -4.8279 C   0  0  0  0  0  0  0  0  0  0  0  0
   15.4895   24.1698   -4.3195 C   0  0  0  0  0  0  0  0  0  0  0  0
   14.7827   23.5543   -3.2846 C   0  0  0  0  0  0  0  0  0  0  0  0
   13.6825   24.1335   -2.7155 C   0  0  0  0  0  0  0  0  0  0  0  0
   13.2994   25.3867   -3.2294 C   0  0  0  0  0  0  0  0  0  0  0  0
   12.2037   26.0199   -2.7100 C   0  0  0  0  0  0  0  0  0  0  0  0
   11.8452   27.2712   -3.2507 C   0  0  0  0  0  0  0  0  0  0  0  0
   12.5872   27.8160   -4.2658 C   0  0  0  0  0  0  0  0  0  0  0  0
   13.6607   27.1945   -4.7752 N   0  0  0  0  0  0  0  0  0  0  0  0
   14.0204   25.9846   -4.2642 C   0  0  0  0  0  0  0  0  0  0  0  0
   12.9448   23.5610   -1.6350 N   0  0  0  0  0  0  0  0  0  0  0  0
   13.4699   23.0001   -0.4773 C   0  0  0  0  0  0  0  0  0  0  0  0
   14.6981   22.9442   -0.2642 O   0  0  0  0  0  0  0  0  0  0  0  0
   12.6450   22.4553    0.5380 N   0  0  0  0  0  0  0  0  0  0  0  0
   11.2214   22.4184    0.4016 C   0  0  0  0  0  0  0  0  0  0  0  0
   10.6141   21.1679    0.9740 C   0  0  0  0  0  0  0  0  0  0  0  0
   11.2549   20.7470    2.1628 N   0  0  0  0  0  0  0  0  0  0  0  0
   12.7043   20.6917    2.2533 C   0  0  0  0  0  0  0  0  0  0  0  0
   13.2990   21.9569    1.7457 C   0  0  0  0  0  0  0  0  0  0  0  0
   11.8877   23.5768   -1.6868 H   0  0  0  0  0  0  0  0  0  0  0  0
   10.4891   20.3433    3.2974 C   0  0  0  0  0  0  0  0  0  0  0  0
    9.2793   21.0450    3.4414 C   0  0  0  0  0  0  0  0  0  0  0  0
    8.4959   20.7205    4.5238 C   0  0  0  0  0  0  0  0  0  0  0  0
    8.9055   19.7412    5.4175 C   0  0  0  0  0  0  0  0  0  0  0  0
   10.0890   19.0733    5.2525 C   0  0  0  0  0  0  0  0  0  0  0  0
   10.9086   19.3832    4.1572 C   0  0  0  0  0  0  0  0  0  0  0  0
   12.1765   18.6658    3.9532 C   0  0  0  0  0  0  0  0  0  0  0  0
    8.0531   19.4185    6.5616 C   0  0  0  0  0  0  0  0  0  0  0  0
    7.9932   18.0930    7.0564 N   0  0  0  0  0  0  0  0  0  0  0  0
    7.3748   20.2971    7.1104 O   0  0  0  0  0  0  0  0  0  0  0  0
    7.2966   17.4431    6.6858 H   0  0  0  0  0  0  0  0  0  0  0  0
    8.6476   17.7632    7.7950 H   0  0  0  0  0  0  0  0  0  0  0  0
   16.0332   26.1425   -6.1152 S   0  0  0  0  0  0  0  0  0  0  0  0
   15.0446   26.5973   -7.1550 O   0  0  0  0  0  0  0  0  0  0  0  0
   16.7906   24.9968   -6.7886 O   0  0  0  0  0  0  0  0  0  0  0  0
   17.1486   27.2982   -5.6654 N   0  0  0  0  0  0  0  0  0  0  0  0
   17.7540   27.7038   -6.3841 H   0  0  0  0  0  0  0  0  0  0  0  0
   17.0428   27.9748   -4.4406 C   0  0  0  0  0  0  0  0  0  0  0  0
   15.6303   28.1580   -3.9258 C   0  0  0  0  0  0  0  0  0  0  0  0
   17.6638   29.3661   -4.4478 C   0  0  0  0  0  0  0  0  0  0  0  0
   17.8237   27.2018   -3.4238 C   0  0  0  0  0  0  0  0  0  0  0  0
   18.9651   27.5327   -3.1198 O   0  0  0  0  0  0  0  0  0  0  0  0
   16.8132   26.0723   -1.4890 C   0  0  0  0  0  0  0  0  0  0  0  0
   17.2016   26.1078   -2.8500 O   0  0  0  0  0  0  0  0  0  0  0  0
 43 44  1  0  0  0
 44 41  1  0  0  0
 41 42  2  0  0  0
 41 38  1  0  0  0
 38 39  1  0  0  0
 38 40  1  0  0  0
 38 36  1  0  0  0
 36 33  1  0  0  0
 33 34  2  0  0  0
 33 35  2  0  0  0
 33  1  1  0  0  0
  1  2  2  0  0  0
  2  3  1  0  0  0
  3  4  2  0  0  0
  4 11  1  0  0  0
 11 12  1  0  0  0
 12 13  2  0  0  0
 12 14  1  0  0  0
 14 15  1  0  0  0
 15 16  1  0  0  0
 16 17  1  0  0  0
 17 18  1  0  0  0
 18 19  1  0  0  0
 17 21  1  0  0  0
 21 22  2  0  0  0
 22 23  1  0  0  0
 23 24  2  0  0  0
 24 25  1  0  0  0
 25 26  2  0  0  0
 26 27  1  0  0  0
 24 28  1  0  0  0
 28 29  1  0  0  0
 28 30  2  0  0  0
  4  5  1  0  0  0
  5  6  2  0  0  0
  6  7  1  0  0  0
  7  8  2  0  0  0
  8  9  1  0  0  0
  9 10  2  0  0  0
 10  1  1  0  0  0
 19 14  1  0  0  0
 26 21  1  0  0  0
 10  5  1  0  0  0
 36 37  1  0  0  0
 11 20  1  0  0  0
 29 31  1  0  0  0
 29 32  1  0  0  0
M  END
> <minimizedAffinity>
2.59909

> <CNNscore>
0.6524459124

> <CNNaffinity>
7.5205793381

> <CNN_VS>
4.9067711830

> <CNNaffinity_variance>
0.6139785051

$$$$
[H]c1nc2c(S(=O)(=O)N([H])C(C(=O)OC([H])([H])[H])(C([H])([H])[H])C([H])([H])[H])c([H])c([H])c(N([H])C(=O)N3C([H])([H])C([H])([H])N(c4c([H])c([H])c(C(=O)N([H])[H])c([H])c4C([H])([H])[H])C([H])([H])C3([H])[H])c2c([H])c1[H]


 44 47  0  0  0  0  0  0  0  0999 V2000
   15.7819   26.5349   -3.3670 C   0  0  0  0  0  0  0  0  0  0  0  0
   16.4738   25.8430   -2.4108 C   0  0  0  0  0  0  0  0  0  0  0  0
   15.8322   25.1034   -1.4154 C   0  0  0  0  0  0  0  0  0  0  0  0
   14.4693   25.0257   -1.3368 C   0  0  0  0  0  0  0  0  0  0  0  0
   13.7454   25.7331   -2.3149 C   0  0  0  0  0  0  0  0  0  0  0  0
   12.3780   25.6937   -2.2988 C   0  0  0  0  0  0  0  0  0  0  0  0
   11.6843   26.4096   -3.2953 C   0  0  0  0  0  0  0  0  0  0  0  0
   12.3808   27.1157   -4.2408 C   0  0  0  0  0  0  0  0  0  0  0  0
   13.7212   27.1534   -4.2567 N   0  0  0  0  0  0  0  0  0  0  0  0
   14.4066   26.4668   -3.3010 C   0  0  0  0  0  0  0  0  0  0  0  0
   13.7653   24.3099   -0.3211 N   0  0  0  0  0  0  0  0  0  0  0  0
   13.4691   22.9524   -0.3167 C   0  0  0  0  0  0  0  0  0  0  0  0
   13.8108   22.1949   -1.2476 O   0  0  0  0  0  0  0  0  0  0  0  0
   12.7603   22.3385    0.7457 N   0  0  0  0  0  0  0  0  0  0  0  0
   12.2748   23.0998    1.8554 C   0  0  0  0  0  0  0  0  0  0  0  0
   10.9362   22.6235    2.3469 C   0  0  0  0  0  0  0  0  0  0  0  0
   10.8107   21.2151    2.3038 N   0  0  0  0  0  0  0  0  0  0  0  0
   11.2138   20.4628    1.1277 C   0  0  0  0  0  0  0  0  0  0  0  0
   12.5665   20.8918    0.6826 C   0  0  0  0  0  0  0  0  0  0  0  0
   13.4489   24.8412    0.5379 H   0  0  0  0  0  0  0  0  0  0  0  0
   10.2614   20.5004    3.4102 C   0  0  0  0  0  0  0  0  0  0  0  0
   11.0391   19.4013    3.8153 C   0  0  0  0  0  0  0  0  0  0  0  0
   10.5623   18.6544    4.8667 C   0  0  0  0  0  0  0  0  0  0  0  0
    9.3650   18.9928    5.4812 C   0  0  0  0  0  0  0  0  0  0  0  0
    8.6281   20.0691    5.0660 C   0  0  0  0  0  0  0  0  0  0  0  0
    9.0900   20.8494    3.9959 C   0  0  0  0  0  0  0  0  0  0  0  0
    8.3210   22.0196    3.5449 C   0  0  0  0  0  0  0  0  0  0  0  0
    8.8807   18.1787    6.5958 C   0  0  0  0  0  0  0  0  0  0  0  0
    7.5771   18.3777    7.1122 N   0  0  0  0  0  0  0  0  0  0  0  0
    9.6016   17.3078    7.1007 O   0  0  0  0  0  0  0  0  0  0  0  0
    7.4283   19.0429    7.8739 H   0  0  0  0  0  0  0  0  0  0  0  0
    6.7609   17.8575    6.7306 H   0  0  0  0  0  0  0  0  0  0  0  0
   16.6057   27.4617   -4.5958 S   0  0  0  0  0  0  0  0  0  0  0  0
   18.0645   27.0965   -4.5335 O   0  0  0  0  0  0  0  0  0  0  0  0
   16.5558   28.9073   -4.0985 O   0  0  0  0  0  0  0  0  0  0  0  0
   15.9457   27.4248   -6.1272 N   0  0  0  0  0  0  0  0  0  0  0  0
   15.9457   28.2836   -6.6839 H   0  0  0  0  0  0  0  0  0  0  0  0
   15.7251   26.2111   -6.7962 C   0  0  0  0  0  0  0  0  0  0  0  0
   16.5680   25.9966   -8.0360 C   0  0  0  0  0  0  0  0  0  0  0  0
   14.2816   26.0020   -7.2365 C   0  0  0  0  0  0  0  0  0  0  0  0
   16.0058   25.1012   -5.8316 C   0  0  0  0  0  0  0  0  0  0  0  0
   17.1360   24.6400   -5.7117 O   0  0  0  0  0  0  0  0  0  0  0  0
   14.8846   23.3055   -4.5829 C   0  0  0  0  0  0  0  0  0  0  0  0
   14.9391   24.6262   -5.0900 O   0  0  0  0  0  0  0  0  0  0  0  0
 43 44  1  0  0  0
 44 41  1  0  0  0
 41 42  2  0  0  0
 41 38  1  0  0  0
 38 39  1  0  0  0
 38 40  1  0  0  0
 38 36  1  0  0  0
 36 33  1  0  0  0
 33 34  2  0  0  0
 33 35  2  0  0  0
 33  1  1  0  0  0
  1  2  2  0  0  0
  2  3  1  0  0  0
  3  4  2  0  0  0
  4 11  1  0  0  0
 11 12  1  0  0  0
 12 13  2  0  0  0
 12 14  1  0  0  0
 14 15  1  0  0  0
 15 16  1  0  0  0
 16 17  1  0  0  0
 17 18  1  0  0  0
 18 19  1  0  0  0
 17 21  1  0  0  0
 21 22  2  0  0  0
 22 23  1  0  0  0
 23 24  2  0  0  0
 24 25  1  0  0  0
 25 26  2  0  0  0
 26 27  1  0  0  0
 24 28  1  0  0  0
 28 29  1  0  0  0
 28 30  2  0  0  0
  4  5  1  0  0  0
  5  6  2  0  0  0
  6  7  1  0  0  0
  7  8  2  0  0  0
  8  9  1  0  0  0
  9 10  2  0  0  0
 10  1  1  0  0  0
 19 14  1  0  0  0
 26 21  1  0  0  0
 10  5  1  0  0  0
 36 37  1  0  0  0
 11 20  1  0  0  0
 29 31  1  0  0  0
 29 32  1  0  0  0
M  END
> <minimizedAffinity>
1.80791

> <CNNscore>
0.6339314580

> <CNNaffinity>
7.3090195656

> <CNN_VS>
4.6334176064

> <CNNaffinity_variance>
0.4290443063

$$$$
[H]c1nc2c(S(=O)(=O)N([H])C(C(=O)OC([H])([H])[H])(C([H])([H])[H])C([H])([H])[H])c([H])c([H])c(N([H])C(=O)N3C([H])([H])C([H])([H])N(c4c([H])c([H])c(C(=O)N([H])[H])c([H])c4C([H])([H])[H])C([H])([H])C3([H])[H])c2c([H])c1[H]


 44 47  0  0  0  0  0  0  0  0999 V2000
   14.4140   25.8190   -4.5522 C   0  0  0  0  0  0  0  0  0  0  0  0
   13.4649   26.7054   -4.1219 C   0  0  0  0  0  0  0  0  0  0  0  0
   12.5813   26.4055   -3.0833 C   0  0  0  0  0  0  0  0  0  0  0  0
   12.6120   25.2038   -2.4317 C   0  0  0  0  0  0  0  0  0  0  0  0
   13.5839   24.2824   -2.8648 C   0  0  0  0  0  0  0  0  0  0  0  0
   13.6742   23.0626   -2.2522 C   0  0  0  0  0  0  0  0  0  0  0  0
   14.6615   22.1656   -2.7075 C   0  0  0  0  0  0  0  0  0  0  0  0
   15.4940   22.5277   -3.7339 C   0  0  0  0  0  0  0  0  0  0  0  0
   15.4058   23.7239   -4.3336 N   0  0  0  0  0  0  0  0  0  0  0  0
   14.4574   24.6024   -3.9053 C   0  0  0  0  0  0  0  0  0  0  0  0
   11.7110   24.8366   -1.3862 N   0  0  0  0  0  0  0  0  0  0  0  0
   12.0481   24.2847   -0.1564 C   0  0  0  0  0  0  0  0  0  0  0  0
   13.2308   24.0492    0.1643 O   0  0  0  0  0  0  0  0  0  0  0  0
   11.0709   23.9539    0.8151 N   0  0  0  0  0  0  0  0  0  0  0  0
    9.6750   24.1349    0.5594 C   0  0  0  0  0  0  0  0  0  0  0  0
    8.8285   23.0424    1.1511 C   0  0  0  0  0  0  0  0  0  0  0  0
    9.3002   22.6122    2.4135 N   0  0  0  0  0  0  0  0  0  0  0  0
   10.7096   22.3330    2.6311 C   0  0  0  0  0  0  0  0  0  0  0  0
   11.5413   23.4467    2.1019 C   0  0  0  0  0  0  0  0  0  0  0  0
   10.6779   25.0171   -1.5293 H   0  0  0  0  0  0  0  0  0  0  0  0
    8.3954   22.4195    3.5002 C   0  0  0  0  0  0  0  0  0  0  0  0
    7.3004   23.3012    3.4871 C   0  0  0  0  0  0  0  0  0  0  0  0
    6.3945   23.1850    4.5149 C   0  0  0  0  0  0  0  0  0  0  0  0
    6.5778   22.2320    5.5068 C   0  0  0  0  0  0  0  0  0  0  0  0
    7.6537   21.3858    5.4944 C   0  0  0  0  0  0  0  0  0  0  0  0
    8.5940   21.4812    4.4579 C   0  0  0  0  0  0  0  0  0  0  0  0
    9.7486   20.5705    4.4177 C   0  0  0  0  0  0  0  0  0  0  0  0
    5.5994   22.1328    6.5896 C   0  0  0  0  0  0  0  0  0  0  0  0
    5.1860   20.8644    7.0648 N   0  0  0  0  0  0  0  0  0  0  0  0
    5.1214   23.1530    7.1032 O   0  0  0  0  0  0  0  0  0  0  0  0
    4.3778   20.4023    6.6426 H   0  0  0  0  0  0  0  0  0  0  0  0
    5.6905   20.3886    7.8404 H   0  0  0  0  0  0  0  0  0  0  0  0
   15.5013   26.2121   -5.8601 S   0  0  0  0  0  0  0  0  0  0  0  0
   14.6838   26.8546   -6.9483 O   0  0  0  0  0  0  0  0  0  0  0  0
   15.9171   24.8618   -6.4462 O   0  0  0  0  0  0  0  0  0  0  0  0
   16.8898   27.0421   -5.4531 N   0  0  0  0  0  0  0  0  0  0  0  0
   17.4584   27.4469   -6.2017 H   0  0  0  0  0  0  0  0  0  0  0  0
   17.1068   27.5012   -4.1450 C   0  0  0  0  0  0  0  0  0  0  0  0
   18.5272   27.9292   -3.8399 C   0  0  0  0  0  0  0  0  0  0  0  0
   16.7393   26.4897   -3.0664 C   0  0  0  0  0  0  0  0  0  0  0  0
   16.1978   28.6681   -3.9145 C   0  0  0  0  0  0  0  0  0  0  0  0
   15.4482   29.0684   -4.7990 O   0  0  0  0  0  0  0  0  0  0  0  0
   16.3179   30.6694   -2.4929 C   0  0  0  0  0  0  0  0  0  0  0  0
   16.2443   29.2664   -2.6682 O   0  0  0  0  0  0  0  0  0  0  0  0
 43 44  1  0  0  0
 44 41  1  0  0  0
 41 42  2  0  0  0
 41 38  1  0  0  0
 38 39  1  0  0  0
 38 40  1  0  0  0
 38 36  1  0  0  0
 36 33  1  0  0  0
 33 34  2  0  0  0
 33 35  2  0  0  0
 33  1  1  0  0  0
  1  2  2  0  0  0
  2  3  1  0  0  0
  3  4  2  0  0  0
  4 11  1  0  0  0
 11 12  1  0  0  0
 12 13  2  0  0  0
 12 14  1  0  0  0
 14 15  1  0  0  0
 15 16  1  0  0  0
 16 17  1  0  0  0
 17 18  1  0  0  0
 18 19  1  0  0  0
 17 21  1  0  0  0
 21 22  2  0  0  0
 22 23  1  0  0  0
 23 24  2  0  0  0
 24 25  1  0  0  0
 25 26  2  0  0  0
 26 27  1  0  0  0
 24 28  1  0  0  0
 28 29  1  0  0  0
 28 30  2  0  0  0
  4  5  1  0  0  0
  5  6  2  0  0  0
  6  7  1  0  0  0
  7  8  2  0  0  0
  8  9  1  0  0  0
  9 10  2  0  0  0
 10  1  1  0  0  0
 19 14  1  0  0  0
 26 21  1  0  0  0
 10  5  1  0  0  0
 36 37  1  0  0  0
 11 20  1  0  0  0
 29 31  1  0  0  0
 29 32  1  0  0  0
M  END
> <minimizedAffinity>
2.92447

> <CNNscore>
0.6225155592

> <CNNaffinity>
7.4112129211

> <CNN_VS>
4.6135954857

> <CNNaffinity_variance>
0.4020587802

$$$$
[H]c1nc2c(S(=O)(=O)N([H])C(C(=O)OC([H])([H])[H])(C([H])([H])[H])C([H])([H])[H])c([H])c([H])c(N([H])C(=O)N3C([H])([H])C([H])([H])N(c4c([H])c([H])c(C(=O)N([H])[H])c([H])c4C([H])([H])[H])C([H])([H])C3([H])[H])c2c([H])c1[H]


 44 47  0  0  0  0  0  0  0  0999 V2000
   15.0583   25.1991   -4.5607 C   0  0  0  0  0  0  0  0  0  0  0  0
   15.3957   23.9431   -4.1359 C   0  0  0  0  0  0  0  0  0  0  0  0
   14.7133   23.2973   -3.1031 C   0  0  0  0  0  0  0  0  0  0  0  0
   13.6631   23.8833   -2.4525 C   0  0  0  0  0  0  0  0  0  0  0  0
   13.3056   25.1759   -2.8800 C   0  0  0  0  0  0  0  0  0  0  0  0
   12.2597   25.8184   -2.2762 C   0  0  0  0  0  0  0  0  0  0  0  0
   11.9254   27.1097   -2.7316 C   0  0  0  0  0  0  0  0  0  0  0  0
   12.6411   27.6827   -3.7500 C   0  0  0  0  0  0  0  0  0  0  0  0
   13.6658   27.0522   -4.3422 N   0  0  0  0  0  0  0  0  0  0  0  0
   14.0014   25.8037   -3.9142 C   0  0  0  0  0  0  0  0  0  0  0  0
   12.9535   23.2789   -1.3705 N   0  0  0  0  0  0  0  0  0  0  0  0
   11.6591   23.5732   -0.9600 C   0  0  0  0  0  0  0  0  0  0  0  0
   10.9614   24.4364   -1.5304 O   0  0  0  0  0  0  0  0  0  0  0  0
   11.0457   22.9120    0.1330 N   0  0  0  0  0  0  0  0  0  0  0  0
   11.7491   21.9301    0.8996 C   0  0  0  0  0  0  0  0  0  0  0  0
   11.4203   21.9910    2.3654 C   0  0  0  0  0  0  0  0  0  0  0  0
   10.0564   22.2798    2.6052 N   0  0  0  0  0  0  0  0  0  0  0  0
    9.3804   23.3498    1.8911 C   0  0  0  0  0  0  0  0  0  0  0  0
    9.6559   23.2480    0.4331 C   0  0  0  0  0  0  0  0  0  0  0  0
   13.4325   22.5073   -0.8267 H   0  0  0  0  0  0  0  0  0  0  0  0
    9.3164   21.5389    3.5748 C   0  0  0  0  0  0  0  0  0  0  0  0
    9.9874   21.3841    4.8006 C   0  0  0  0  0  0  0  0  0  0  0  0
    9.3409   20.6654    5.7784 C   0  0  0  0  0  0  0  0  0  0  0  0
    8.0841   20.1283    5.5387 C   0  0  0  0  0  0  0  0  0  0  0  0
    7.4536   20.2949    4.3351 C   0  0  0  0  0  0  0  0  0  0  0  0
    8.0890   21.0238    3.3191 C   0  0  0  0  0  0  0  0  0  0  0  0
    7.4216   21.2278    2.0241 C   0  0  0  0  0  0  0  0  0  0  0  0
    7.4211   19.3658    6.5964 C   0  0  0  0  0  0  0  0  0  0  0  0
    6.1712   19.7921    7.1081 N   0  0  0  0  0  0  0  0  0  0  0  0
    7.9422   18.3413    7.0569 O   0  0  0  0  0  0  0  0  0  0  0  0
    6.1397   20.4295    7.9065 H   0  0  0  0  0  0  0  0  0  0  0  0
    5.2772   19.4679    6.6862 H   0  0  0  0  0  0  0  0  0  0  0  0
   15.9330   25.9912   -5.8472 S   0  0  0  0  0  0  0  0  0  0  0  0
   14.9179   26.6381   -6.7506 O   0  0  0  0  0  0  0  0  0  0  0  0
   16.5157   24.8528   -6.6864 O   0  0  0  0  0  0  0  0  0  0  0  0
   17.1915   26.9868   -5.3919 N   0  0  0  0  0  0  0  0  0  0  0  0
   17.8942   27.2424   -6.0907 H   0  0  0  0  0  0  0  0  0  0  0  0
   17.1255   27.7541   -4.2189 C   0  0  0  0  0  0  0  0  0  0  0  0
   16.7373   26.9900   -2.9703 C   0  0  0  0  0  0  0  0  0  0  0  0
   16.1579   28.9282   -4.3025 C   0  0  0  0  0  0  0  0  0  0  0  0
   18.4722   28.3704   -4.0008 C   0  0  0  0  0  0  0  0  0  0  0  0
   18.6513   29.5720   -4.1701 O   0  0  0  0  0  0  0  0  0  0  0  0
   20.8276   27.6706   -4.0563 C   0  0  0  0  0  0  0  0  0  0  0  0
   19.4940   27.5272   -3.6030 O   0  0  0  0  0  0  0  0  0  0  0  0
 43 44  1  0  0  0
 44 41  1  0  0  0
 41 42  2  0  0  0
 41 38  1  0  0  0
 38 39  1  0  0  0
 38 40  1  0  0  0
 38 36  1  0  0  0
 36 33  1  0  0  0
 33 34  2  0  0  0
 33 35  2  0  0  0
 33  1  1  0  0  0
  1  2  2  0  0  0
  2  3  1  0  0  0
  3  4  2  0  0  0
  4 11  1  0  0  0
 11 12  1  0  0  0
 12 13  2  0  0  0
 12 14  1  0  0  0
 14 15  1  0  0  0
 15 16  1  0  0  0
 16 17  1  0  0  0
 17 18  1  0  0  0
 18 19  1  0  0  0
 17 21  1  0  0  0
 21 22  2  0  0  0
 22 23  1  0  0  0
 23 24  2  0  0  0
 24 25  1  0  0  0
 25 26  2  0  0  0
 26 27  1  0  0  0
 24 28  1  0  0  0
 28 29  1  0  0  0
 28 30  2  0  0  0
  4  5  1  0  0  0
  5  6  2  0  0  0
  6  7  1  0  0  0
  7  8  2  0  0  0
  8  9  1  0  0  0
  9 10  2  0  0  0
 10  1  1  0  0  0
 19 14  1  0  0  0
 26 21  1  0  0  0
 10  5  1  0  0  0
 36 37  1  0  0  0
 11 20  1  0  0  0
 29 31  1  0  0  0
 29 32  1  0  0  0
M  END
> <minimizedAffinity>
1.06951

> <CNNscore>
0.5831061602

> <CNNaffinity>
7.2487740517

> <CNN_VS>
4.2268047333

> <CNNaffinity_variance>
0.3677020967

$$$$
[H]c1nc2c(S(=O)(=O)N([H])C(C(=O)OC([H])([H])[H])(C([H])([H])[H])C([H])([H])[H])c([H])c([H])c(N([H])C(=O)N3C([H])([H])C([H])([H])N(c4c([H])c([H])c(C(=O)N([H])[H])c([H])c4C([H])([H])[H])C([H])([H])C3([H])[H])c2c([H])c1[H]


 44 47  0  0  0  0  0  0  0  0999 V2000
   15.1303   26.3192   -2.5831 C   0  0  0  0  0  0  0  0  0  0  0  0
   13.7909   26.5787   -2.6845 C   0  0  0  0  0  0  0  0  0  0  0  0
   12.8536   26.0080   -1.8211 C   0  0  0  0  0  0  0  0  0  0  0  0
   13.2197   25.1530   -0.8189 C   0  0  0  0  0  0  0  0  0  0  0  0
   14.5952   24.8775   -0.7035 C   0  0  0  0  0  0  0  0  0  0  0  0
   15.0318   24.0347    0.2817 C   0  0  0  0  0  0  0  0  0  0  0  0
   16.4159   23.7840    0.3718 C   0  0  0  0  0  0  0  0  0  0  0  0
   17.2780   24.3787   -0.5118 C   0  0  0  0  0  0  0  0  0  0  0  0
   16.8497   25.2054   -1.4769 N   0  0  0  0  0  0  0  0  0  0  0  0
   15.5154   25.4584   -1.5775 C   0  0  0  0  0  0  0  0  0  0  0  0
   12.2984   24.5190    0.0693 N   0  0  0  0  0  0  0  0  0  0  0  0
   10.9867   24.1590   -0.2144 C   0  0  0  0  0  0  0  0  0  0  0  0
   10.4676   24.3660   -1.3301 O   0  0  0  0  0  0  0  0  0  0  0  0
   10.1524   23.5324    0.7444 N   0  0  0  0  0  0  0  0  0  0  0  0
   10.6099   23.2747    2.0751 C   0  0  0  0  0  0  0  0  0  0  0  0
    9.5355   23.4716    3.1082 C   0  0  0  0  0  0  0  0  0  0  0  0
    8.2664   23.0324    2.6636 N   0  0  0  0  0  0  0  0  0  0  0  0
    7.7703   23.3883    1.3449 C   0  0  0  0  0  0  0  0  0  0  0  0
    8.8142   23.1312    0.3171 C   0  0  0  0  0  0  0  0  0  0  0  0
   12.6339   24.2643    1.0404 H   0  0  0  0  0  0  0  0  0  0  0  0
    7.4312   22.2460    3.5125 C   0  0  0  0  0  0  0  0  0  0  0  0
    7.5329   20.8629    3.2815 C   0  0  0  0  0  0  0  0  0  0  0  0
    6.7431   20.0426    4.0522 C   0  0  0  0  0  0  0  0  0  0  0  0
    5.8932   20.5827    5.0070 C   0  0  0  0  0  0  0  0  0  0  0  0
    5.8146   21.9340    5.2109 C   0  0  0  0  0  0  0  0  0  0  0  0
    6.6089   22.7951    4.4395 C   0  0  0  0  0  0  0  0  0  0  0  0
    6.5509   24.2492    4.6542 C   0  0  0  0  0  0  0  0  0  0  0  0
    5.0624   19.6863    5.8106 C   0  0  0  0  0  0  0  0  0  0  0  0
    4.4596   18.5493    5.2194 N   0  0  0  0  0  0  0  0  0  0  0  0
    4.8758   19.9090    7.0142 O   0  0  0  0  0  0  0  0  0  0  0  0
    3.5261   18.6242    4.8100 H   0  0  0  0  0  0  0  0  0  0  0  0
    4.9498   17.6320    5.1926 H   0  0  0  0  0  0  0  0  0  0  0  0
   16.2828   27.0362   -3.6809 S   0  0  0  0  0  0  0  0  0  0  0  0
   17.4261   27.5609   -2.8546 O   0  0  0  0  0  0  0  0  0  0  0  0
   15.5915   28.2931   -4.2120 O   0  0  0  0  0  0  0  0  0  0  0  0
   16.7405   26.1118   -4.9917 N   0  0  0  0  0  0  0  0  0  0  0  0
   17.7323   25.8918   -5.1164 H   0  0  0  0  0  0  0  0  0  0  0  0
   15.8055   25.3464   -5.7052 C   0  0  0  0  0  0  0  0  0  0  0  0
   14.8790   24.5036   -4.8539 C   0  0  0  0  0  0  0  0  0  0  0  0
   16.4309   24.3867   -6.7100 C   0  0  0  0  0  0  0  0  0  0  0  0
   14.9766   26.2864   -6.5241 C   0  0  0  0  0  0  0  0  0  0  0  0
   14.2742   27.1379   -5.9893 O   0  0  0  0  0  0  0  0  0  0  0  0
   14.0521   25.4682   -8.6492 C   0  0  0  0  0  0  0  0  0  0  0  0
   15.0411   26.1489   -7.8990 O   0  0  0  0  0  0  0  0  0  0  0  0
 43 44  1  0  0  0
 44 41  1  0  0  0
 41 42  2  0  0  0
 41 38  1  0  0  0
 38 39  1  0  0  0
 38 40  1  0  0  0
 38 36  1  0  0  0
 36 33  1  0  0  0
 33 34  2  0  0  0
 33 35  2  0  0  0
 33  1  1  0  0  0
  1  2  2  0  0  0
  2  3  1  0  0  0
  3  4  2  0  0  0
  4 11  1  0  0  0
 11 12  1  0  0  0
 12 13  2  0  0  0
 12 14  1  0  0  0
 14 15  1  0  0  0
 15 16  1  0  0  0
 16 17  1  0  0  0
 17 18  1  0  0  0
 18 19  1  0  0  0
 17 21  1  0  0  0
 21 22  2  0  0  0
 22 23  1  0  0  0
 23 24  2  0  0  0
 24 25  1  0  0  0
 25 26  2  0  0  0
 26 27  1  0  0  0
 24 28  1  0  0  0
 28 29  1  0  0  0
 28 30  2  0  0  0
  4  5  1  0  0  0
  5  6  2  0  0  0
  6  7  1  0  0  0
  7  8  2  0  0  0
  8  9  1  0  0  0
  9 10  2  0  0  0
 10  1  1  0  0  0
 19 14  1  0  0  0
 26 21  1  0  0  0
 10  5  1  0  0  0
 36 37  1  0  0  0
 11 20  1  0  0  0
 29 31  1  0  0  0
 29 32  1  0  0  0
M  END
> <minimizedAffinity>
0.95455

> <CNNscore>
0.5783659220

> <CNNaffinity>
7.3276267052

> <CNN_VS>
4.2380495071

> <CNNaffinity_variance>
0.4927863479

$$$$
[H]c1nc2c(S(=O)(=O)N([H])C(C(=O)OC([H])([H])[H])(C([H])([H])[H])C([H])([H])[H])c([H])c([H])c(N([H])C(=O)N3C([H])([H])C([H])([H])N(c4c([H])c([H])c(C(=O)N([H])[H])c([H])c4C([H])([H])[H])C([H])([H])C3([H])[H])c2c([H])c1[H]


 44 47  0  0  0  0  0  0  0  0999 V2000
   15.1895   25.5232   -1.1612 C   0  0  0  0  0  0  0  0  0  0  0  0
   15.3776   24.8277    0.0018 C   0  0  0  0  0  0  0  0  0  0  0  0
   14.3270   24.1979    0.6719 C   0  0  0  0  0  0  0  0  0  0  0  0
   13.0429   24.2383    0.2040 C   0  0  0  0  0  0  0  0  0  0  0  0
   12.8355   24.9508   -0.9921 C   0  0  0  0  0  0  0  0  0  0  0  0
   11.5757   25.0265   -1.5198 C   0  0  0  0  0  0  0  0  0  0  0  0
   11.4040   25.7439   -2.7209 C   0  0  0  0  0  0  0  0  0  0  0  0
   12.4819   26.3383   -3.3229 C   0  0  0  0  0  0  0  0  0  0  0  0
   13.7169   26.2633   -2.8057 N   0  0  0  0  0  0  0  0  0  0  0  0
   13.8999   25.5735   -1.6458 C   0  0  0  0  0  0  0  0  0  0  0  0
   11.9295   23.6386    0.8675 N   0  0  0  0  0  0  0  0  0  0  0  0
   11.3228   22.4313    0.5435 C   0  0  0  0  0  0  0  0  0  0  0  0
   11.7171   21.7231   -0.4051 O   0  0  0  0  0  0  0  0  0  0  0  0
   10.2166   21.9244    1.2698 N   0  0  0  0  0  0  0  0  0  0  0  0
    9.6394   22.6561    2.3551 C   0  0  0  0  0  0  0  0  0  0  0  0
    8.1426   22.5269    2.4134 C   0  0  0  0  0  0  0  0  0  0  0  0
    7.6953   21.2282    2.0753 N   0  0  0  0  0  0  0  0  0  0  0  0
    8.2169   20.5363    0.9088 C   0  0  0  0  0  0  0  0  0  0  0  0
    9.7022   20.6110    0.8891 C   0  0  0  0  0  0  0  0  0  0  0  0
   11.5238   24.1329    1.7109 H   0  0  0  0  0  0  0  0  0  0  0  0
    6.7003   20.5746    2.8624 C   0  0  0  0  0  0  0  0  0  0  0  0
    6.4933   21.1694    4.1194 C   0  0  0  0  0  0  0  0  0  0  0  0
    5.5596   20.5822    4.9405 C   0  0  0  0  0  0  0  0  0  0  0  0
    4.8681   19.4543    4.5218 C   0  0  0  0  0  0  0  0  0  0  0  0
    5.0898   18.8961    3.2917 C   0  0  0  0  0  0  0  0  0  0  0  0
    6.0363   19.4739    2.4328 C   0  0  0  0  0  0  0  0  0  0  0  0
    6.2778   18.8987    1.1006 C   0  0  0  0  0  0  0  0  0  0  0  0
    3.8824   18.8491    5.4172 C   0  0  0  0  0  0  0  0  0  0  0  0
    3.3846   17.5490    5.1574 N   0  0  0  0  0  0  0  0  0  0  0  0
    3.4717   19.4635    6.4107 O   0  0  0  0  0  0  0  0  0  0  0  0
    2.5487   17.4307    4.5810 H   0  0  0  0  0  0  0  0  0  0  0  0
    3.8544   16.7048    5.5434 H   0  0  0  0  0  0  0  0  0  0  0  0
   16.5169   26.3116   -1.9760 S   0  0  0  0  0  0  0  0  0  0  0  0
   17.3831   25.2350   -2.5725 O   0  0  0  0  0  0  0  0  0  0  0  0
   17.3703   26.9060   -0.8543 O   0  0  0  0  0  0  0  0  0  0  0  0
   16.1214   27.5457   -3.0262 N   0  0  0  0  0  0  0  0  0  0  0  0
   15.4670   28.2676   -2.7130 H   0  0  0  0  0  0  0  0  0  0  0  0
   16.9064   27.8197   -4.1566 C   0  0  0  0  0  0  0  0  0  0  0  0
   18.0802   26.8863   -4.3673 C   0  0  0  0  0  0  0  0  0  0  0  0
   17.4889   29.2275   -4.1775 C   0  0  0  0  0  0  0  0  0  0  0  0
   16.0169   27.7453   -5.3584 C   0  0  0  0  0  0  0  0  0  0  0  0
   16.0202   28.6356   -6.2021 O   0  0  0  0  0  0  0  0  0  0  0  0
   15.6759   25.3120   -5.3036 C   0  0  0  0  0  0  0  0  0  0  0  0
   15.1997   26.6348   -5.4695 O   0  0  0  0  0  0  0  0  0  0  0  0
 43 44  1  0  0  0
 44 41  1  0  0  0
 41 42  2  0  0  0
 41 38  1  0  0  0
 38 39  1  0  0  0
 38 40  1  0  0  0
 38 36  1  0  0  0
 36 33  1  0  0  0
 33 34  2  0  0  0
 33 35  2  0  0  0
 33  1  1  0  0  0
  1  2  2  0  0  0
  2  3  1  0  0  0
  3  4  2  0  0  0
  4 11  1  0  0  0
 11 12  1  0  0  0
 12 13  2  0  0  0
 12 14  1  0  0  0
 14 15  1  0  0  0
 15 16  1  0  0  0
 16 17  1  0  0  0
 17 18  1  0  0  0
 18 19  1  0  0  0
 17 21  1  0  0  0
 21 22  2  0  0  0
 22 23  1  0  0  0
 23 24  2  0  0  0
 24 25  1  0  0  0
 25 26  2  0  0  0
 26 27  1  0  0  0
 24 28  1  0  0  0
 28 29  1  0  0  0
 28 30  2  0  0  0
  4  5  1  0  0  0
  5  6  2  0  0  0
  6  7  1  0  0  0
  7  8  2  0  0  0
  8  9  1  0  0  0
  9 10  2  0  0  0
 10  1  1  0  0  0
 19 14  1  0  0  0
 26 21  1  0  0  0
 10  5  1  0  0  0
 36 37  1  0  0  0
 11 20  1  0  0  0
 29 31  1  0  0  0
 29 32  1  0  0  0
M  END
> <minimizedAffinity>
3.58849

> <CNNscore>
0.5520430803

> <CNNaffinity>
6.8716368675

> <CNN_VS>
3.7934396267

> <CNNaffinity_variance>
0.4096538126

$$$$
[H]c1nc2c(S(=O)(=O)N([H])C(C(=O)OC([H])([H])[H])(C([H])([H])[H])C([H])([H])[H])c([H])c([H])c(N([H])C(=O)N3C([H])([H])C([H])([H])N(c4c([H])c([H])c(C(=O)N([H])[H])c([H])c4C([H])([H])[H])C([H])([H])C3([H])[H])c2c([H])c1[H]


 44 47  0  0  0  0  0  0  0  0999 V2000
   14.0630   24.8295   -3.3656 C   0  0  0  0  0  0  0  0  0  0  0  0
   14.0412   23.5225   -2.9617 C   0  0  0  0  0  0  0  0  0  0  0  0
   13.0943   23.0376   -2.0575 C   0  0  0  0  0  0  0  0  0  0  0  0
   12.1285   23.8426   -1.5200 C   0  0  0  0  0  0  0  0  0  0  0  0
   12.1397   25.1899   -1.9273 C   0  0  0  0  0  0  0  0  0  0  0  0
   11.1975   26.0496   -1.4329 C   0  0  0  0  0  0  0  0  0  0  0  0
   11.2346   27.3907   -1.8650 C   0  0  0  0  0  0  0  0  0  0  0  0
   12.1949   27.7968   -2.7543 C   0  0  0  0  0  0  0  0  0  0  0  0
   13.1179   26.9535   -3.2393 N   0  0  0  0  0  0  0  0  0  0  0  0
   13.0956   25.6542   -2.8321 C   0  0  0  0  0  0  0  0  0  0  0  0
   11.1582   23.4034   -0.5685 N   0  0  0  0  0  0  0  0  0  0  0  0
   11.3950   23.0466    0.7533 C   0  0  0  0  0  0  0  0  0  0  0  0
   12.5364   23.0808    1.2564 O   0  0  0  0  0  0  0  0  0  0  0  0
   10.3556   22.6210    1.6173 N   0  0  0  0  0  0  0  0  0  0  0  0
    9.0071   22.4973    1.1561 C   0  0  0  0  0  0  0  0  0  0  0  0
    8.2922   21.3190    1.7568 C   0  0  0  0  0  0  0  0  0  0  0  0
    8.6325   21.1104    3.1140 N   0  0  0  0  0  0  0  0  0  0  0  0
   10.0180   21.1374    3.5515 C   0  0  0  0  0  0  0  0  0  0  0  0
   10.7048   22.3394    3.0078 C   0  0  0  0  0  0  0  0  0  0  0  0
   10.1445   23.3617   -0.8702 H   0  0  0  0  0  0  0  0  0  0  0  0
    7.6204   20.8447    4.0843 C   0  0  0  0  0  0  0  0  0  0  0  0
    6.5134   20.1471    3.5698 C   0  0  0  0  0  0  0  0  0  0  0  0
    5.4895   19.8706    4.4450 C   0  0  0  0  0  0  0  0  0  0  0  0
    5.5716   20.2739    5.7702 C   0  0  0  0  0  0  0  0  0  0  0  0
    6.6622   20.9519    6.2443 C   0  0  0  0  0  0  0  0  0  0  0  0
    7.7220   21.2476    5.3744 C   0  0  0  0  0  0  0  0  0  0  0  0
    8.9099   21.9613    5.8681 C   0  0  0  0  0  0  0  0  0  0  0  0
    4.4662   19.9684    6.6782 C   0  0  0  0  0  0  0  0  0  0  0  0
    4.2267   18.6343    7.0885 N   0  0  0  0  0  0  0  0  0  0  0  0
    3.7278   20.8692    7.0984 O   0  0  0  0  0  0  0  0  0  0  0  0
    3.5996   18.0396    6.5428 H   0  0  0  0  0  0  0  0  0  0  0  0
    4.6784   18.2430    7.9401 H   0  0  0  0  0  0  0  0  0  0  0  0
   15.2634   25.4157   -4.4893 S   0  0  0  0  0  0  0  0  0  0  0  0
   14.9039   26.8364   -4.8324 O   0  0  0  0  0  0  0  0  0  0  0  0
   15.0069   24.6378   -5.7811 O   0  0  0  0  0  0  0  0  0  0  0  0
   16.8599   25.1872   -4.0634 N   0  0  0  0  0  0  0  0  0  0  0  0
   17.5468   25.8975   -4.3299 H   0  0  0  0  0  0  0  0  0  0  0  0
   17.2239   24.2644   -3.0709 C   0  0  0  0  0  0  0  0  0  0  0  0
   18.5526   23.5718   -3.2915 C   0  0  0  0  0  0  0  0  0  0  0  0
   16.2066   23.1497   -2.8608 C   0  0  0  0  0  0  0  0  0  0  0  0
   17.2791   24.9962   -1.7660 C   0  0  0  0  0  0  0  0  0  0  0  0
   16.3892   25.7754   -1.4414 O   0  0  0  0  0  0  0  0  0  0  0  0
   18.2475   24.3323    0.3931 C   0  0  0  0  0  0  0  0  0  0  0  0
   18.3714   24.7529   -0.9530 O   0  0  0  0  0  0  0  0  0  0  0  0
 43 44  1  0  0  0
 44 41  1  0  0  0
 41 42  2  0  0  0
 41 38  1  0  0  0
 38 39  1  0  0  0
 38 40  1  0  0  0
 38 36  1  0  0  0
 36 33  1  0  0  0
 33 34  2  0  0  0
 33 35  2  0  0  0
 33  1  1  0  0  0
  1  2  2  0  0  0
  2  3  1  0  0  0
  3  4  2  0  0  0
  4 11  1  0  0  0
 11 12  1  0  0  0
 12 13  2  0  0  0
 12 14  1  0  0  0
 14 15  1  0  0  0
 15 16  1  0  0  0
 16 17  1  0  0  0
 17 18  1  0  0  0
 18 19  1  0  0  0
 17 21  1  0  0  0
 21 22  2  0  0  0
 22 23  1  0  0  0
 23 24  2  0  0  0
 24 25  1  0  0  0
 25 26  2  0  0  0
 26 27  1  0  0  0
 24 28  1  0  0  0
 28 29  1  0  0  0
 28 30  2  0  0  0
  4  5  1  0  0  0
  5  6  2  0  0  0
  6  7  1  0  0  0
  7  8  2  0  0  0
  8  9  1  0  0  0
  9 10  2  0  0  0
 10  1  1  0  0  0
 19 14  1  0  0  0
 26 21  1  0  0  0
 10  5  1  0  0  0
 36 37  1  0  0  0
 11 20  1  0  0  0
 29 31  1  0  0  0
 29 32  1  0  0  0
M  END
> <minimizedAffinity>
22.52122

> <CNNscore>
0.5058104992

> <CNNaffinity>
7.0444345474

> <CNN_VS>
3.5631489754

> <CNNaffinity_variance>
0.9993165135

$$$$
[H]c1nc2c(S(=O)(=O)N([H])C(C(=O)OC([H])([H])[H])(C([H])([H])[H])C([H])([H])[H])c([H])c([H])c(N([H])C(=O)N3C([H])([H])C([H])([H])N(c4c([H])c([H])c(C(=O)N([H])[H])c([H])c4C([H])([H])[H])C([H])([H])C3([H])[H])c2c([H])c1[H]


 44 47  0  0  0  0  0  0  0  0999 V2000
   15.0947   26.0177   -4.4925 C   0  0  0  0  0  0  0  0  0  0  0  0
   15.5667   24.8039   -4.0735 C   0  0  0  0  0  0  0  0  0  0  0  0
   15.0137   24.1240   -2.9866 C   0  0  0  0  0  0  0  0  0  0  0  0
   13.9634   24.6323   -2.2737 C   0  0  0  0  0  0  0  0  0  0  0  0
   13.4681   25.8808   -2.6945 C   0  0  0  0  0  0  0  0  0  0  0  0
   12.4141   26.4448   -2.0294 C   0  0  0  0  0  0  0  0  0  0  0  0
   11.9402   27.6935   -2.4796 C   0  0  0  0  0  0  0  0  0  0  0  0
   12.5334   28.3039   -3.5535 C   0  0  0  0  0  0  0  0  0  0  0  0
   13.5661   27.7503   -4.2057 N   0  0  0  0  0  0  0  0  0  0  0  0
   14.0359   26.5439   -3.7835 C   0  0  0  0  0  0  0  0  0  0  0  0
   13.3832   23.9924   -1.1364 N   0  0  0  0  0  0  0  0  0  0  0  0
   12.6895   22.7885   -1.1259 C   0  0  0  0  0  0  0  0  0  0  0  0
   12.5020   22.1209   -2.1633 O   0  0  0  0  0  0  0  0  0  0  0  0
   12.1499   22.2393    0.0637 N   0  0  0  0  0  0  0  0  0  0  0  0
   12.2579   22.9229    1.3158 C   0  0  0  0  0  0  0  0  0  0  0  0
   11.0307   22.7692    2.1706 C   0  0  0  0  0  0  0  0  0  0  0  0
   10.4627   21.4769    2.0793 N   0  0  0  0  0  0  0  0  0  0  0  0
   10.2642   20.8352    0.7907 C   0  0  0  0  0  0  0  0  0  0  0  0
   11.5023   20.9329   -0.0276 C   0  0  0  0  0  0  0  0  0  0  0  0
   13.5026   24.4500   -0.1894 H   0  0  0  0  0  0  0  0  0  0  0  0
   10.0486   20.7806    3.2541 C   0  0  0  0  0  0  0  0  0  0  0  0
   10.6258   19.5056    3.3885 C   0  0  0  0  0  0  0  0  0  0  0  0
   10.2592   18.7686    4.4899 C   0  0  0  0  0  0  0  0  0  0  0  0
    9.3583   19.2845    5.4107 C   0  0  0  0  0  0  0  0  0  0  0  0
    8.8116   20.5298    5.2548 C   0  0  0  0  0  0  0  0  0  0  0  0
    9.1675   21.3044    4.1409 C   0  0  0  0  0  0  0  0  0  0  0  0
    8.6035   22.6514    3.9635 C   0  0  0  0  0  0  0  0  0  0  0  0
    8.9843   18.4770    6.5716 C   0  0  0  0  0  0  0  0  0  0  0  0
    7.6751   18.5568    7.1054 N   0  0  0  0  0  0  0  0  0  0  0  0
    9.8049   17.7157    7.1011 O   0  0  0  0  0  0  0  0  0  0  0  0
    7.4658   19.2378    7.8385 H   0  0  0  0  0  0  0  0  0  0  0  0
    6.9153   17.9325    6.7655 H   0  0  0  0  0  0  0  0  0  0  0  0
   15.8091   26.8543   -5.8480 S   0  0  0  0  0  0  0  0  0  0  0  0
   17.2053   27.2498   -5.4485 O   0  0  0  0  0  0  0  0  0  0  0  0
   15.0510   28.1799   -5.9366 O   0  0  0  0  0  0  0  0  0  0  0  0
   15.6986   26.1018   -7.3325 N   0  0  0  0  0  0  0  0  0  0  0  0
   15.0260   26.4589   -8.0163 H   0  0  0  0  0  0  0  0  0  0  0  0
   16.7150   25.2525   -7.7960 C   0  0  0  0  0  0  0  0  0  0  0  0
   16.6493   23.8293   -7.2823 C   0  0  0  0  0  0  0  0  0  0  0  0
   18.1222   25.7423   -7.4775 C   0  0  0  0  0  0  0  0  0  0  0  0
   16.6386   25.2235   -9.2908 C   0  0  0  0  0  0  0  0  0  0  0  0
   15.6443   25.6342   -9.8800 O   0  0  0  0  0  0  0  0  0  0  0  0
   18.8175   25.5232  -10.3876 C   0  0  0  0  0  0  0  0  0  0  0  0
   17.7329   24.7159   -9.9678 O   0  0  0  0  0  0  0  0  0  0  0  0
 43 44  1  0  0  0
 44 41  1  0  0  0
 41 42  2  0  0  0
 41 38  1  0  0  0
 38 39  1  0  0  0
 38 40  1  0  0  0
 38 36  1  0  0  0
 36 33  1  0  0  0
 33 34  2  0  0  0
 33 35  2  0  0  0
 33  1  1  0  0  0
  1  2  2  0  0  0
  2  3  1  0  0  0
  3  4  2  0  0  0
  4 11  1  0  0  0
 11 12  1  0  0  0
 12 13  2  0  0  0
 12 14  1  0  0  0
 14 15  1  0  0  0
 15 16  1  0  0  0
 16 17  1  0  0  0
 17 18  1  0  0  0
 18 19  1  0  0  0
 17 21  1  0  0  0
 21 22  2  0  0  0
 22 23  1  0  0  0
 23 24  2  0  0  0
 24 25  1  0  0  0
 25 26  2  0  0  0
 26 27  1  0  0  0
 24 28  1  0  0  0
 28 29  1  0  0  0
 28 30  2  0  0  0
  4  5  1  0  0  0
  5  6  2  0  0  0
  6  7  1  0  0  0
  7  8  2  0  0  0
  8  9  1  0  0  0
  9 10  2  0  0  0
 10  1  1  0  0  0
 19 14  1  0  0  0
 26 21  1  0  0  0
 10  5  1  0  0  0
 36 37  1  0  0  0
 11 20  1  0  0  0
 29 31  1  0  0  0
 29 32  1  0  0  0
M  END
> <minimizedAffinity>
24.87591

> <CNNscore>
0.5039721727

> <CNNaffinity>
6.9297027588

> <CNN_VS>
3.4923772812

> <CNNaffinity_variance>
0.3015849590

$$$$
[H]c1nc2c(S(=O)(=O)N([H])C(C(=O)OC([H])([H])[H])(C([H])([H])[H])C([H])([H])[H])c([H])c([H])c(N([H])C(=O)N3C([H])([H])C([H])([H])N(c4c([H])c([H])c(C(=O)N([H])[H])c([H])c4C([H])([H])[H])C([H])([H])C3([H])[H])c2c([H])c1[H]


 44 47  0  0  0  0  0  0  0  0999 V2000
    5.6211   19.8738    2.5963 C   0  0  0  0  0  0  0  0  0  0  0  0
    6.7926   20.2030    3.2215 C   0  0  0  0  0  0  0  0  0  0  0  0
    7.7656   20.9971    2.6113 C   0  0  0  0  0  0  0  0  0  0  0  0
    7.6049   21.4952    1.3481 C   0  0  0  0  0  0  0  0  0  0  0  0
    6.4037   21.1638    0.6935 C   0  0  0  0  0  0  0  0  0  0  0  0
    6.1750   21.6340   -0.5707 C   0  0  0  0  0  0  0  0  0  0  0  0
    4.9601   21.2870   -1.1954 C   0  0  0  0  0  0  0  0  0  0  0  0
    4.0513   20.5018   -0.5357 C   0  0  0  0  0  0  0  0  0  0  0  0
    4.2755   20.0418    0.7038 N   0  0  0  0  0  0  0  0  0  0  0  0
    5.4443   20.3682    1.3216 C   0  0  0  0  0  0  0  0  0  0  0  0
    8.5819   22.2844    0.6682 N   0  0  0  0  0  0  0  0  0  0  0  0
    9.6915   21.8155   -0.0242 C   0  0  0  0  0  0  0  0  0  0  0  0
    9.9479   20.5982   -0.1219 O   0  0  0  0  0  0  0  0  0  0  0  0
   10.6046   22.6887   -0.6658 N   0  0  0  0  0  0  0  0  0  0  0  0
   10.4506   24.1093   -0.5969 C   0  0  0  0  0  0  0  0  0  0  0  0
   11.7644   24.8327   -0.4912 C   0  0  0  0  0  0  0  0  0  0  0  0
   12.7789   24.2352   -1.2754 N   0  0  0  0  0  0  0  0  0  0  0  0
   12.9910   22.7977   -1.2570 C   0  0  0  0  0  0  0  0  0  0  0  0
   11.6963   22.0856   -1.4267 C   0  0  0  0  0  0  0  0  0  0  0  0
    8.4555   23.3352    0.6549 H   0  0  0  0  0  0  0  0  0  0  0  0
   13.6358   25.0365   -2.0880 C   0  0  0  0  0  0  0  0  0  0  0  0
   12.9563   25.7601   -3.0837 C   0  0  0  0  0  0  0  0  0  0  0  0
   13.7209   26.5423   -3.9169 C   0  0  0  0  0  0  0  0  0  0  0  0
   15.0986   26.5958   -3.7596 C   0  0  0  0  0  0  0  0  0  0  0  0
   15.7342   25.8804   -2.7807 C   0  0  0  0  0  0  0  0  0  0  0  0
   14.9796   25.0742   -1.9158 C   0  0  0  0  0  0  0  0  0  0  0  0
   15.6420   24.3102   -0.8473 C   0  0  0  0  0  0  0  0  0  0  0  0
   15.8871   27.4343   -4.6622 C   0  0  0  0  0  0  0  0  0  0  0  0
   17.0707   28.0618   -4.2029 N   0  0  0  0  0  0  0  0  0  0  0  0
   15.5313   27.6060   -5.8357 O   0  0  0  0  0  0  0  0  0  0  0  0
   17.0241   28.9977   -3.7945 H   0  0  0  0  0  0  0  0  0  0  0  0
   17.9942   27.5876   -4.2726 H   0  0  0  0  0  0  0  0  0  0  0  0
    4.4236   18.8705    3.3753 S   0  0  0  0  0  0  0  0  0  0  0  0
    3.4865   19.7830    4.1199 O   0  0  0  0  0  0  0  0  0  0  0  0
    5.1854   18.1304    4.4760 O   0  0  0  0  0  0  0  0  0  0  0  0
    3.6690   17.7301    2.4202 N   0  0  0  0  0  0  0  0  0  0  0  0
    2.8239   17.9978    1.9088 H   0  0  0  0  0  0  0  0  0  0  0  0
    4.3332   16.5605    2.0201 C   0  0  0  0  0  0  0  0  0  0  0  0
    3.4753   15.3129    1.9838 C   0  0  0  0  0  0  0  0  0  0  0  0
    5.5382   16.2084    2.8836 C   0  0  0  0  0  0  0  0  0  0  0  0
    4.8881   16.7971    0.6500 C   0  0  0  0  0  0  0  0  0  0  0  0
    4.1611   16.7754   -0.3377 O   0  0  0  0  0  0  0  0  0  0  0  0
    6.9565   16.9524   -0.6683 C   0  0  0  0  0  0  0  0  0  0  0  0
    6.2466   17.0387    0.5536 O   0  0  0  0  0  0  0  0  0  0  0  0
 43 44  1  0  0  0
 44 41  1  0  0  0
 41 42  2  0  0  0
 41 38  1  0  0  0
 38 39  1  0  0  0
 38 40  1  0  0  0
 38 36  1  0  0  0
 36 33  1  0  0  0
 33 34  2  0  0  0
 33 35  2  0  0  0
 33  1  1  0  0  0
  1  2  2  0  0  0
  2  3  1  0  0  0
  3  4  2  0  0  0
  4 11  1  0  0  0
 11 12  1  0  0  0
 12 13  2  0  0  0
 12 14  1  0  0  0
 14 15  1  0  0  0
 15 16  1  0  0  0
 16 17  1  0  0  0
 17 18  1  0  0  0
 18 19  1  0  0  0
 17 21  1  0  0  0
 21 22  2  0  0  0
 22 23  1  0  0  0
 23 24  2  0  0  0
 24 25  1  0  0  0
 25 26  2  0  0  0
 26 27  1  0  0  0
 24 28  1  0  0  0
 28 29  1  0  0  0
 28 30  2  0  0  0
  4  5  1  0  0  0
  5  6  2  0  0  0
  6  7  1  0  0  0
  7  8  2  0  0  0
  8  9  1  0  0  0
  9 10  2  0  0  0
 10  1  1  0  0  0
 19 14  1  0  0  0
 26 21  1  0  0  0
 10  5  1  0  0  0
 36 37  1  0  0  0
 11 20  1  0  0  0
 29 31  1  0  0  0
 29 32  1  0  0  0
M  END
> <minimizedAffinity>
-8.58182

> <CNNscore>
0.4692780674

> <CNNaffinity>
7.0324850082

> <CNN_VS>
3.3001909256

> <CNNaffinity_variance>
0.0859981626

$$$$
[H]OC(=O)c1nc(Oc2c([H])c([H])c3c([H])c([H])c(=O)n([H])c3c2[H])c2c([H])c([H])c(O[H])c([H])c2c1[H]


 29 32  0  0  0  0  0  0  0  0999 V2000
   11.0705   24.2336    1.1279 C   0  0  0  0  0  0  0  0  0  0  0  0
   10.0825   23.2816    1.0296 C   0  0  0  0  0  0  0  0  0  0  0  0
   10.2465   22.1155    0.3173 C   0  0  0  0  0  0  0  0  0  0  0  0
    9.2499   21.1694    0.2076 C   0  0  0  0  0  0  0  0  0  0  0  0
    9.4128   20.0136   -0.5173 C   0  0  0  0  0  0  0  0  0  0  0  0
    8.3806   19.0757   -0.6067 O   0  0  0  0  0  0  0  0  0  0  0  0
   10.5968   19.7677   -1.1639 C   0  0  0  0  0  0  0  0  0  0  0  0
   11.6085   20.6880   -1.0747 C   0  0  0  0  0  0  0  0  0  0  0  0
   11.4408   21.8445   -0.3454 C   0  0  0  0  0  0  0  0  0  0  0  0
   12.4125   22.8071   -0.2320 C   0  0  0  0  0  0  0  0  0  0  0  0
   12.2098   23.9566    0.4863 N   0  0  0  0  0  0  0  0  0  0  0  0
    7.7135   19.1858   -1.3858 H   0  0  0  0  0  0  0  0  0  0  0  0
   11.8166   26.4905    1.8815 O   0  0  0  0  0  0  0  0  0  0  0  0
   10.8828   25.4732    1.8896 C   0  0  0  0  0  0  0  0  0  0  0  0
    9.8523   25.6657    2.5906 O   0  0  0  0  0  0  0  0  0  0  0  0
   12.6968   26.4055    2.3718 H   0  0  0  0  0  0  0  0  0  0  0  0
   13.6463   22.6149   -0.8567 O   0  0  0  0  0  0  0  0  0  0  0  0
   14.4063   23.6213   -1.4156 C   0  0  0  0  0  0  0  0  0  0  0  0
   15.5633   24.1172   -0.8930 C   0  0  0  0  0  0  0  0  0  0  0  0
   16.2739   25.1415   -1.5249 C   0  0  0  0  0  0  0  0  0  0  0  0
   15.7944   25.6636   -2.7051 C   0  0  0  0  0  0  0  0  0  0  0  0
   16.4911   26.6878   -3.3516 C   0  0  0  0  0  0  0  0  0  0  0  0
   15.9718   27.1777   -4.5299 C   0  0  0  0  0  0  0  0  0  0  0  0
   14.8097   26.7000   -5.0820 C   0  0  0  0  0  0  0  0  0  0  0  0
   14.3041   27.1175   -6.1507 O   0  0  0  0  0  0  0  0  0  0  0  0
   14.1558   25.7073   -4.4340 N   0  0  0  0  0  0  0  0  0  0  0  0
   14.6284   25.1923   -3.2698 C   0  0  0  0  0  0  0  0  0  0  0  0
   13.9547   24.1823   -2.6190 C   0  0  0  0  0  0  0  0  0  0  0  0
   13.2671   25.3313   -4.8421 H   0  0  0  0  0  0  0  0  0  0  0  0
 13 14  1  0  0  0
 14 15  2  0  0  0
 14  1  1  0  0  0
  1  2  2  0  0  0
  2  3  1  0  0  0
  3  4  2  0  0  0
  4  5  1  0  0  0
  5  6  1  0  0  0
  5  7  2  0  0  0
  7  8  1  0  0  0
  8  9  2  0  0  0
  9 10  1  0  0  0
 10 17  1  0  0  0
 17 18  1  0  0  0
 18 19  2  0  0  0
 19 20  1  0  0  0
 20 21  2  0  0  0
 21 22  1  0  0  0
 22 23  2  0  0  0
 23 24  1  0  0  0
 24 25  2  0  0  0
 24 26  1  0  0  0
 26 27  1  0  0  0
 27 28  2  0  0  0
 10 11  2  0  0  0
 11  1  1  0  0  0
  9  3  1  0  0  0
 28 18  1  0  0  0
 27 21  1  0  0  0
 13 16  1  0  0  0
  6 12  1  0  0  0
 26 29  1  0  0  0
M  END
> <minimizedAffinity>
-4.21241

> <CNNscore>
0.5283706784

> <CNNaffinity>
6.8678245544

> <CNN_VS>
3.6287570000

> <CNNaffinity_variance>
0.9106078148

$$$$
[H]OC(=O)c1nc(Oc2c([H])c([H])c3c([H])c([H])c(=O)n([H])c3c2[H])c2c([H])c([H])c(O[H])c([H])c2c1[H]


 29 32  0  0  0  0  0  0  0  0999 V2000
   13.4776   26.5676   -3.5272 C   0  0  0  0  0  0  0  0  0  0  0  0
   14.4510   27.4387   -3.9584 C   0  0  0  0  0  0  0  0  0  0  0  0
   15.7765   27.2953   -3.6172 C   0  0  0  0  0  0  0  0  0  0  0  0
   16.7483   28.1777   -4.0381 C   0  0  0  0  0  0  0  0  0  0  0  0
   18.0682   28.0391   -3.6823 C   0  0  0  0  0  0  0  0  0  0  0  0
   19.0272   28.9528   -4.1279 O   0  0  0  0  0  0  0  0  0  0  0  0
   18.4596   26.9969   -2.8818 C   0  0  0  0  0  0  0  0  0  0  0  0
   17.5182   26.1012   -2.4462 C   0  0  0  0  0  0  0  0  0  0  0  0
   16.1964   26.2435   -2.8070 C   0  0  0  0  0  0  0  0  0  0  0  0
   15.2088   25.3863   -2.3901 C   0  0  0  0  0  0  0  0  0  0  0  0
   13.8987   25.5641   -2.7511 N   0  0  0  0  0  0  0  0  0  0  0  0
   19.2022   29.7766   -3.5321 H   0  0  0  0  0  0  0  0  0  0  0  0
   11.6486   27.7006   -4.7880 O   0  0  0  0  0  0  0  0  0  0  0  0
   12.0676   26.7321   -3.8972 C   0  0  0  0  0  0  0  0  0  0  0  0
   11.1693   25.9902   -3.4144 O   0  0  0  0  0  0  0  0  0  0  0  0
   11.6230   28.6788   -4.5335 H   0  0  0  0  0  0  0  0  0  0  0  0
   15.5403   24.2973   -1.5818 O   0  0  0  0  0  0  0  0  0  0  0  0
   14.6649   23.2936   -1.2224 C   0  0  0  0  0  0  0  0  0  0  0  0
   14.5335   22.0969   -1.8615 C   0  0  0  0  0  0  0  0  0  0  0  0
   13.6186   21.1319   -1.4312 C   0  0  0  0  0  0  0  0  0  0  0  0
   12.8295   21.3954   -0.3341 C   0  0  0  0  0  0  0  0  0  0  0  0
   11.9093   20.4429    0.1111 C   0  0  0  0  0  0  0  0  0  0  0  0
   11.1424   20.7523    1.2130 C   0  0  0  0  0  0  0  0  0  0  0  0
   11.2506   21.9476    1.8784 C   0  0  0  0  0  0  0  0  0  0  0  0
   10.5728   22.2679    2.8834 O   0  0  0  0  0  0  0  0  0  0  0  0
   12.1507   22.8516    1.4249 N   0  0  0  0  0  0  0  0  0  0  0  0
   12.9289   22.5922    0.3428 C   0  0  0  0  0  0  0  0  0  0  0  0
   13.8415   23.5196   -0.1098 C   0  0  0  0  0  0  0  0  0  0  0  0
   12.2459   23.7692    1.9216 H   0  0  0  0  0  0  0  0  0  0  0  0
 13 14  1  0  0  0
 14 15  2  0  0  0
 14  1  1  0  0  0
  1  2  2  0  0  0
  2  3  1  0  0  0
  3  4  2  0  0  0
  4  5  1  0  0  0
  5  6  1  0  0  0
  5  7  2  0  0  0
  7  8  1  0  0  0
  8  9  2  0  0  0
  9 10  1  0  0  0
 10 17  1  0  0  0
 17 18  1  0  0  0
 18 19  2  0  0  0
 19 20  1  0  0  0
 20 21  2  0  0  0
 21 22  1  0  0  0
 22 23  2  0  0  0
 23 24  1  0  0  0
 24 25  2  0  0  0
 24 26  1  0  0  0
 26 27  1  0  0  0
 27 28  2  0  0  0
 10 11  2  0  0  0
 11  1  1  0  0  0
  9  3  1  0  0  0
 28 18  1  0  0  0
 27 21  1  0  0  0
 13 16  1  0  0  0
  6 12  1  0  0  0
 26 29  1  0  0  0
M  END
> <minimizedAffinity>
-0.75745

> <CNNscore>
0.4945792556

> <CNNaffinity>
6.6571044922

> <CNN_VS>
3.2924656868

> <CNNaffinity_variance>
1.1382704973

$$$$
[H]OC(=O)c1nc(Oc2c([H])c([H])c3c([H])c([H])c(=O)n([H])c3c2[H])c2c([H])c([H])c(O[H])c([H])c2c1[H]


 29 32  0  0  0  0  0  0  0  0999 V2000
   12.3658   25.2815   -2.6867 C   0  0  0  0  0  0  0  0  0  0  0  0
   11.1235   25.3514   -2.1002 C   0  0  0  0  0  0  0  0  0  0  0  0
   10.5842   24.3085   -1.3822 C   0  0  0  0  0  0  0  0  0  0  0  0
    9.3329   24.3750   -0.8078 C   0  0  0  0  0  0  0  0  0  0  0  0
    8.7923   23.3255   -0.1047 C   0  0  0  0  0  0  0  0  0  0  0  0
    7.5203   23.4281    0.4650 O   0  0  0  0  0  0  0  0  0  0  0  0
    9.4997   22.1605    0.0457 C   0  0  0  0  0  0  0  0  0  0  0  0
   10.7474   22.0617   -0.5129 C   0  0  0  0  0  0  0  0  0  0  0  0
   11.2857   23.1172   -1.2155 C   0  0  0  0  0  0  0  0  0  0  0  0
   12.5231   23.0707   -1.8075 C   0  0  0  0  0  0  0  0  0  0  0  0
   13.0248   24.1313   -2.5159 N   0  0  0  0  0  0  0  0  0  0  0  0
    6.7207   23.1362   -0.1179 H   0  0  0  0  0  0  0  0  0  0  0  0
   14.2899   26.5655   -3.6183 O   0  0  0  0  0  0  0  0  0  0  0  0
   12.9292   26.4001   -3.4505 C   0  0  0  0  0  0  0  0  0  0  0  0
   12.1896   27.2665   -3.9917 O   0  0  0  0  0  0  0  0  0  0  0  0
   14.8830   26.8760   -2.8606 H   0  0  0  0  0  0  0  0  0  0  0  0
   13.3010   21.9179   -1.6839 O   0  0  0  0  0  0  0  0  0  0  0  0
   14.3021   21.7452   -0.7508 C   0  0  0  0  0  0  0  0  0  0  0  0
   14.5686   20.5847   -0.0873 C   0  0  0  0  0  0  0  0  0  0  0  0
   15.6049   20.4948    0.8462 C   0  0  0  0  0  0  0  0  0  0  0  0
   16.3769   21.6055    1.1031 C   0  0  0  0  0  0  0  0  0  0  0  0
   17.4175   21.5348    2.0328 C   0  0  0  0  0  0  0  0  0  0  0  0
   18.1620   22.6724    2.2557 C   0  0  0  0  0  0  0  0  0  0  0  0
   17.9193   23.8556    1.6043 C   0  0  0  0  0  0  0  0  0  0  0  0
   18.5722   24.9118    1.7778 O   0  0  0  0  0  0  0  0  0  0  0  0
   16.9048   23.8949    0.7086 N   0  0  0  0  0  0  0  0  0  0  0  0
   16.1430   22.7997    0.4552 C   0  0  0  0  0  0  0  0  0  0  0  0
   15.1133   22.8512   -0.4583 C   0  0  0  0  0  0  0  0  0  0  0  0
   16.7061   24.7906    0.2026 H   0  0  0  0  0  0  0  0  0  0  0  0
 13 14  1  0  0  0
 14 15  2  0  0  0
 14  1  1  0  0  0
  1  2  2  0  0  0
  2  3  1  0  0  0
  3  4  2  0  0  0
  4  5  1  0  0  0
  5  6  1  0  0  0
  5  7  2  0  0  0
  7  8  1  0  0  0
  8  9  2  0  0  0
  9 10  1  0  0  0
 10 17  1  0  0  0
 17 18  1  0  0  0
 18 19  2  0  0  0
 19 20  1  0  0  0
 20 21  2  0  0  0
 21 22  1  0  0  0
 22 23  2  0  0  0
 23 24  1  0  0  0
 24 25  2  0  0  0
 24 26  1  0  0  0
 26 27  1  0  0  0
 27 28  2  0  0  0
 10 11  2  0  0  0
 11  1  1  0  0  0
  9  3  1  0  0  0
 28 18  1  0  0  0
 27 21  1  0  0  0
 13 16  1  0  0  0
  6 12  1  0  0  0
 26 29  1  0  0  0
M  END
> <minimizedAffinity>
10.28872

> <CNNscore>
0.4944783449

> <CNNaffinity>
6.3108015060

> <CNN_VS>
3.1205546856

> <CNNaffinity_variance>
0.7211275101

$$$$
[H]OC(=O)c1nc(Oc2c([H])c([H])c3c([H])c([H])c(=O)n([H])c3c2[H])c2c([H])c([H])c(O[H])c([H])c2c1[H]


 29 32  0  0  0  0  0  0  0  0999 V2000
   10.7138   23.5964    1.0815 C   0  0  0  0  0  0  0  0  0  0  0  0
   11.4666   22.5449    1.5500 C   0  0  0  0  0  0  0  0  0  0  0  0
   12.5489   22.0452    0.8622 C   0  0  0  0  0  0  0  0  0  0  0  0
   13.2932   20.9817    1.3261 C   0  0  0  0  0  0  0  0  0  0  0  0
   14.3637   20.4763    0.6285 C   0  0  0  0  0  0  0  0  0  0  0  0
   15.0965   19.3968    1.1293 O   0  0  0  0  0  0  0  0  0  0  0  0
   14.7256   21.0295   -0.5729 C   0  0  0  0  0  0  0  0  0  0  0  0
   14.0066   22.0886   -1.0623 C   0  0  0  0  0  0  0  0  0  0  0  0
   12.9351   22.5927   -0.3584 C   0  0  0  0  0  0  0  0  0  0  0  0
   12.1709   23.6415   -0.8053 C   0  0  0  0  0  0  0  0  0  0  0  0
   11.0991   24.1098   -0.0909 N   0  0  0  0  0  0  0  0  0  0  0  0
   14.7821   18.4518    0.8602 H   0  0  0  0  0  0  0  0  0  0  0  0
    8.2629   23.9370    1.3910 O   0  0  0  0  0  0  0  0  0  0  0  0
    9.5615   24.1193    1.8239 C   0  0  0  0  0  0  0  0  0  0  0  0
    9.7077   24.7632    2.8983 O   0  0  0  0  0  0  0  0  0  0  0  0
    7.8928   24.4438    0.5982 H   0  0  0  0  0  0  0  0  0  0  0  0
   12.4913   24.2582   -2.0163 O   0  0  0  0  0  0  0  0  0  0  0  0
   13.6755   24.9188   -2.2694 C   0  0  0  0  0  0  0  0  0  0  0  0
   14.8212   24.7880   -1.5425 C   0  0  0  0  0  0  0  0  0  0  0  0
   15.9811   25.4968   -1.8676 C   0  0  0  0  0  0  0  0  0  0  0  0
   15.9677   26.3488   -2.9490 C   0  0  0  0  0  0  0  0  0  0  0  0
   17.1176   27.0657   -3.2895 C   0  0  0  0  0  0  0  0  0  0  0  0
   17.0553   27.9056   -4.3798 C   0  0  0  0  0  0  0  0  0  0  0  0
   15.9177   28.0594   -5.1318 C   0  0  0  0  0  0  0  0  0  0  0  0
   15.8192   28.8119   -6.1297 O   0  0  0  0  0  0  0  0  0  0  0  0
   14.8184   27.3521   -4.7788 N   0  0  0  0  0  0  0  0  0  0  0  0
   14.8313   26.5119   -3.7122 C   0  0  0  0  0  0  0  0  0  0  0  0
   13.7069   25.7972   -3.3622 C   0  0  0  0  0  0  0  0  0  0  0  0
   13.9416   27.4580   -5.3425 H   0  0  0  0  0  0  0  0  0  0  0  0
 13 14  1  0  0  0
 14 15  2  0  0  0
 14  1  1  0  0  0
  1  2  2  0  0  0
  2  3  1  0  0  0
  3  4  2  0  0  0
  4  5  1  0  0  0
  5  6  1  0  0  0
  5  7  2  0  0  0
  7  8  1  0  0  0
  8  9  2  0  0  0
  9 10  1  0  0  0
 10 17  1  0  0  0
 17 18  1  0  0  0
 18 19  2  0  0  0
 19 20  1  0  0  0
 20 21  2  0  0  0
 21 22  1  0  0  0
 22 23  2  0  0  0
 23 24  1  0  0  0
 24 25  2  0  0  0
 24 26  1  0  0  0
 26 27  1  0  0  0
 27 28  2  0  0  0
 10 11  2  0  0  0
 11  1  1  0  0  0
  9  3  1  0  0  0
 28 18  1  0  0  0
 27 21  1  0  0  0
 13 16  1  0  0  0
  6 12  1  0  0  0
 26 29  1  0  0  0
M  END
> <minimizedAffinity>
-8.43132

> <CNNscore>
0.4833190739

> <CNNaffinity>
6.7843832970

> <CNN_VS>
3.2790217400

> <CNNaffinity_variance>
0.1157343611

$$$$
[H]OC(=O)c1nc(Oc2c([H])c([H])c3c([H])c([H])c(=O)n([H])c3c2[H])c2c([H])c([H])c(O[H])c([H])c2c1[H]


 29 32  0  0  0  0  0  0  0  0999 V2000
   11.6829   24.4817    0.8117 C   0  0  0  0  0  0  0  0  0  0  0  0
   10.5137   23.8072    1.0762 C   0  0  0  0  0  0  0  0  0  0  0  0
   10.2593   22.5465    0.5862 C   0  0  0  0  0  0  0  0  0  0  0  0
    9.0807   21.8782    0.8401 C   0  0  0  0  0  0  0  0  0  0  0  0
    8.8248   20.6258    0.3360 C   0  0  0  0  0  0  0  0  0  0  0  0
    7.6186   19.9773    0.6142 O   0  0  0  0  0  0  0  0  0  0  0  0
    9.7561   19.9964   -0.4495 C   0  0  0  0  0  0  0  0  0  0  0  0
   10.9389   20.6333   -0.7208 C   0  0  0  0  0  0  0  0  0  0  0  0
   11.1914   21.8882   -0.2118 C   0  0  0  0  0  0  0  0  0  0  0  0
   12.3508   22.5792   -0.4610 C   0  0  0  0  0  0  0  0  0  0  0  0
   12.5660   23.8346    0.0449 N   0  0  0  0  0  0  0  0  0  0  0  0
    6.8381   20.1379   -0.0410 H   0  0  0  0  0  0  0  0  0  0  0  0
   13.1020   26.5179    1.0537 O   0  0  0  0  0  0  0  0  0  0  0  0
   11.9417   25.8258    1.3394 C   0  0  0  0  0  0  0  0  0  0  0  0
   11.1090   26.4129    2.0827 O   0  0  0  0  0  0  0  0  0  0  0  0
   13.9876   26.2611    1.4686 H   0  0  0  0  0  0  0  0  0  0  0  0
   13.3459   21.9917   -1.2446 O   0  0  0  0  0  0  0  0  0  0  0  0
   14.0431   22.6417   -2.2417 C   0  0  0  0  0  0  0  0  0  0  0  0
   15.1693   22.1726   -2.8495 C   0  0  0  0  0  0  0  0  0  0  0  0
   15.8166   22.8970   -3.8544 C   0  0  0  0  0  0  0  0  0  0  0  0
   15.3048   24.1152   -4.2412 C   0  0  0  0  0  0  0  0  0  0  0  0
   15.9379   24.8537   -5.2442 C   0  0  0  0  0  0  0  0  0  0  0  0
   15.3881   26.0668   -5.5969 C   0  0  0  0  0  0  0  0  0  0  0  0
   14.2556   26.5667   -5.0045 C   0  0  0  0  0  0  0  0  0  0  0  0
   13.7240   27.6642   -5.2958 O   0  0  0  0  0  0  0  0  0  0  0  0
   13.6632   25.8295   -4.0358 N   0  0  0  0  0  0  0  0  0  0  0  0
   14.1679   24.6281   -3.6538 C   0  0  0  0  0  0  0  0  0  0  0  0
   13.5567   23.8865   -2.6669 C   0  0  0  0  0  0  0  0  0  0  0  0
   12.7978   26.1968   -3.5733 H   0  0  0  0  0  0  0  0  0  0  0  0
 13 14  1  0  0  0
 14 15  2  0  0  0
 14  1  1  0  0  0
  1  2  2  0  0  0
  2  3  1  0  0  0
  3  4  2  0  0  0
  4  5  1  0  0  0
  5  6  1  0  0  0
  5  7  2  0  0  0
  7  8  1  0  0  0
  8  9  2  0  0  0
  9 10  1  0  0  0
 10 17  1  0  0  0
 17 18  1  0  0  0
 18 19  2  0  0  0
 19 20  1  0  0  0
 20 21  2  0  0  0
 21 22  1  0  0  0
 22 23  2  0  0  0
 23 24  1  0  0  0
 24 25  2  0  0  0
 24 26  1  0  0  0
 26 27  1  0  0  0
 27 28  2  0  0  0
 10 11  2  0  0  0
 11  1  1  0  0  0
  9  3  1  0  0  0
 28 18  1  0  0  0
 27 21  1  0  0  0
 13 16  1  0  0  0
  6 12  1  0  0  0
 26 29  1  0  0  0
M  END
> <minimizedAffinity>
-0.98429

> <CNNscore>
0.4798717797

> <CNNaffinity>
6.6930465698

> <CNN_VS>
3.2118041515

> <CNNaffinity_variance>
1.0745414495

$$$$
[H]OC(=O)c1nc(Oc2c([H])c([H])c3c([H])c([H])c(=O)n([H])c3c2[H])c2c([H])c([H])c(O[H])c([H])c2c1[H]


 29 32  0  0  0  0  0  0  0  0999 V2000
   12.9130   27.2833   -3.8456 C   0  0  0  0  0  0  0  0  0  0  0  0
   14.1852   27.7789   -4.0133 C   0  0  0  0  0  0  0  0  0  0  0  0
   15.2965   27.1574   -3.4910 C   0  0  0  0  0  0  0  0  0  0  0  0
   16.5691   27.6635   -3.6475 C   0  0  0  0  0  0  0  0  0  0  0  0
   17.6741   27.0476   -3.1112 C   0  0  0  0  0  0  0  0  0  0  0  0
   18.9501   27.5889   -3.2901 O   0  0  0  0  0  0  0  0  0  0  0  0
   17.5349   25.8891   -2.3910 C   0  0  0  0  0  0  0  0  0  0  0  0
   16.2830   25.3590   -2.2170 C   0  0  0  0  0  0  0  0  0  0  0  0
   15.1785   25.9793   -2.7580 C   0  0  0  0  0  0  0  0  0  0  0  0
   13.9005   25.5026   -2.6050 C   0  0  0  0  0  0  0  0  0  0  0  0
   12.8187   26.1520   -3.1401 N   0  0  0  0  0  0  0  0  0  0  0  0
   19.2777   28.2615   -2.5798 H   0  0  0  0  0  0  0  0  0  0  0  0
   11.4270   29.2685   -4.1089 O   0  0  0  0  0  0  0  0  0  0  0  0
   11.7362   27.9560   -4.4066 C   0  0  0  0  0  0  0  0  0  0  0  0
   10.9493   27.3603   -5.1917 O   0  0  0  0  0  0  0  0  0  0  0  0
   11.0606   29.5344   -3.2049 H   0  0  0  0  0  0  0  0  0  0  0  0
   13.6888   24.3210   -1.8920 O   0  0  0  0  0  0  0  0  0  0  0  0
   12.5039   23.9820   -1.2724 C   0  0  0  0  0  0  0  0  0  0  0  0
   11.6259   23.0378   -1.7147 C   0  0  0  0  0  0  0  0  0  0  0  0
   10.4436   22.7551   -1.0250 C   0  0  0  0  0  0  0  0  0  0  0  0
   10.1572   23.4469    0.1304 C   0  0  0  0  0  0  0  0  0  0  0  0
    8.9802   23.1780    0.8337 C   0  0  0  0  0  0  0  0  0  0  0  0
    8.7377   23.8959    1.9843 C   0  0  0  0  0  0  0  0  0  0  0  0
    9.6012   24.8526    2.4559 C   0  0  0  0  0  0  0  0  0  0  0  0
    9.4182   25.5271    3.4968 O   0  0  0  0  0  0  0  0  0  0  0  0
   10.7340   25.0920    1.7542 N   0  0  0  0  0  0  0  0  0  0  0  0
   11.0166   24.4101    0.6144 C   0  0  0  0  0  0  0  0  0  0  0  0
   12.1723   24.6620   -0.0915 C   0  0  0  0  0  0  0  0  0  0  0  0
   11.4040   25.8193    2.1006 H   0  0  0  0  0  0  0  0  0  0  0  0
 13 14  1  0  0  0
 14 15  2  0  0  0
 14  1  1  0  0  0
  1  2  2  0  0  0
  2  3  1  0  0  0
  3  4  2  0  0  0
  4  5  1  0  0  0
  5  6  1  0  0  0
  5  7  2  0  0  0
  7  8  1  0  0  0
  8  9  2  0  0  0
  9 10  1  0  0  0
 10 17  1  0  0  0
 17 18  1  0  0  0
 18 19  2  0  0  0
 19 20  1  0  0  0
 20 21  2  0  0  0
 21 22  1  0  0  0
 22 23  2  0  0  0
 23 24  1  0  0  0
 24 25  2  0  0  0
 24 26  1  0  0  0
 26 27  1  0  0  0
 27 28  2  0  0  0
 10 11  2  0  0  0
 11  1  1  0  0  0
  9  3  1  0  0  0
 28 18  1  0  0  0
 27 21  1  0  0  0
 13 16  1  0  0  0
  6 12  1  0  0  0
 26 29  1  0  0  0
M  END
> <minimizedAffinity>
1.62953

> <CNNscore>
0.4723516405

> <CNNaffinity>
6.2851614952

> <CNN_VS>
2.9688062668

> <CNNaffinity_variance>
0.7979378104

$$$$
[H]OC(=O)c1nc(Oc2c([H])c([H])c3c([H])c([H])c(=O)n([H])c3c2[H])c2c([H])c([H])c(O[H])c([H])c2c1[H]


 29 32  0  0  0  0  0  0  0  0999 V2000
   15.2168   21.8453    0.7229 C   0  0  0  0  0  0  0  0  0  0  0  0
   14.0156   21.5607    1.3297 C   0  0  0  0  0  0  0  0  0  0  0  0
   12.8561   21.3572    0.6167 C   0  0  0  0  0  0  0  0  0  0  0  0
   11.6502   21.0868    1.2274 C   0  0  0  0  0  0  0  0  0  0  0  0
   10.4920   20.8994    0.5121 C   0  0  0  0  0  0  0  0  0  0  0  0
    9.2866   20.6264    1.1645 O   0  0  0  0  0  0  0  0  0  0  0  0
   10.5078   20.9788   -0.8567 C   0  0  0  0  0  0  0  0  0  0  0  0
   11.6908   21.2458   -1.4951 C   0  0  0  0  0  0  0  0  0  0  0  0
   12.8495   21.4313   -0.7737 C   0  0  0  0  0  0  0  0  0  0  0  0
   14.0590   21.7145   -1.3574 C   0  0  0  0  0  0  0  0  0  0  0  0
   15.1919   21.9120   -0.6118 N   0  0  0  0  0  0  0  0  0  0  0  0
    8.7057   21.4353    1.4336 H   0  0  0  0  0  0  0  0  0  0  0  0
   17.1756   23.2300    1.4042 O   0  0  0  0  0  0  0  0  0  0  0  0
   16.4458   22.0612    1.4944 C   0  0  0  0  0  0  0  0  0  0  0  0
   16.8930   21.1819    2.2801 O   0  0  0  0  0  0  0  0  0  0  0  0
   17.7335   23.4444    0.5887 H   0  0  0  0  0  0  0  0  0  0  0  0
   14.1478   21.7989   -2.7482 O   0  0  0  0  0  0  0  0  0  0  0  0
   14.5359   22.9268   -3.4411 C   0  0  0  0  0  0  0  0  0  0  0  0
   15.5445   22.9807   -4.3564 C   0  0  0  0  0  0  0  0  0  0  0  0
   15.8746   24.1683   -5.0152 C   0  0  0  0  0  0  0  0  0  0  0  0
   15.1639   25.3133   -4.7338 C   0  0  0  0  0  0  0  0  0  0  0  0
   15.4791   26.5100   -5.3825 C   0  0  0  0  0  0  0  0  0  0  0  0
   14.7396   27.6290   -5.0676 C   0  0  0  0  0  0  0  0  0  0  0  0
   13.7183   27.6077   -4.1512 C   0  0  0  0  0  0  0  0  0  0  0  0
   13.0221   28.6019   -3.8366 O   0  0  0  0  0  0  0  0  0  0  0  0
   13.4348   26.4344   -3.5382 N   0  0  0  0  0  0  0  0  0  0  0  0
   14.1358   25.3049   -3.8153 C   0  0  0  0  0  0  0  0  0  0  0  0
   13.8386   24.1164   -3.1854 C   0  0  0  0  0  0  0  0  0  0  0  0
   12.6580   26.4010   -2.8359 H   0  0  0  0  0  0  0  0  0  0  0  0
 13 14  1  0  0  0
 14 15  2  0  0  0
 14  1  1  0  0  0
  1  2  2  0  0  0
  2  3  1  0  0  0
  3  4  2  0  0  0
  4  5  1  0  0  0
  5  6  1  0  0  0
  5  7  2  0  0  0
  7  8  1  0  0  0
  8  9  2  0  0  0
  9 10  1  0  0  0
 10 17  1  0  0  0
 17 18  1  0  0  0
 18 19  2  0  0  0
 19 20  1  0  0  0
 20 21  2  0  0  0
 21 22  1  0  0  0
 22 23  2  0  0  0
 23 24  1  0  0  0
 24 25  2  0  0  0
 24 26  1  0  0  0
 26 27  1  0  0  0
 27 28  2  0  0  0
 10 11  2  0  0  0
 11  1  1  0  0  0
  9  3  1  0  0  0
 28 18  1  0  0  0
 27 21  1  0  0  0
 13 16  1  0  0  0
  6 12  1  0  0  0
 26 29  1  0  0  0
M  END
> <minimizedAffinity>
-0.81505

> <CNNscore>
0.4634052515

> <CNNaffinity>
6.4936423302

> <CNN_VS>
3.0091879368

> <CNNaffinity_variance>
0.5399481654

$$$$
[H]OC(=O)c1nc(Oc2c([H])c([H])c3c([H])c([H])c(=O)n([H])c3c2[H])c2c([H])c([H])c(O[H])c([H])c2c1[H]


 29 32  0  0  0  0  0  0  0  0999 V2000
   13.7997   21.5602    0.5190 C   0  0  0  0  0  0  0  0  0  0  0  0
   12.5950   21.3406    1.1456 C   0  0  0  0  0  0  0  0  0  0  0  0
   11.4507   22.0283    0.8114 C   0  0  0  0  0  0  0  0  0  0  0  0
   10.2477   21.8174    1.4506 C   0  0  0  0  0  0  0  0  0  0  0  0
    9.1113   22.5174    1.1239 C   0  0  0  0  0  0  0  0  0  0  0  0
    7.9081   22.2772    1.7930 O   0  0  0  0  0  0  0  0  0  0  0  0
    9.1470   23.4639    0.1324 C   0  0  0  0  0  0  0  0  0  0  0  0
   10.3275   23.6978   -0.5234 C   0  0  0  0  0  0  0  0  0  0  0  0
   11.4637   22.9923   -0.1933 C   0  0  0  0  0  0  0  0  0  0  0  0
   12.6755   23.1933   -0.8056 C   0  0  0  0  0  0  0  0  0  0  0  0
   13.7934   22.4882   -0.4428 N   0  0  0  0  0  0  0  0  0  0  0  0
    7.7216   22.8386    2.6381 H   0  0  0  0  0  0  0  0  0  0  0  0
   16.0269   21.3927    1.6280 O   0  0  0  0  0  0  0  0  0  0  0  0
   15.0127   20.8210    0.8853 C   0  0  0  0  0  0  0  0  0  0  0  0
   15.1838   19.6215    0.5352 O   0  0  0  0  0  0  0  0  0  0  0  0
   16.6514   22.0812    1.2301 H   0  0  0  0  0  0  0  0  0  0  0  0
   12.7794   24.1348   -1.8313 O   0  0  0  0  0  0  0  0  0  0  0  0
   13.9254   24.8407   -2.1331 C   0  0  0  0  0  0  0  0  0  0  0  0
   15.0982   24.7711   -1.4421 C   0  0  0  0  0  0  0  0  0  0  0  0
   16.2157   25.5229   -1.8158 C   0  0  0  0  0  0  0  0  0  0  0  0
   16.1311   26.3551   -2.9094 C   0  0  0  0  0  0  0  0  0  0  0  0
   17.2377   27.1142   -3.2984 C   0  0  0  0  0  0  0  0  0  0  0  0
   17.1045   27.9321   -4.3991 C   0  0  0  0  0  0  0  0  0  0  0  0
   15.9379   28.0246   -5.1159 C   0  0  0  0  0  0  0  0  0  0  0  0
   15.7753   28.7552   -6.1217 O   0  0  0  0  0  0  0  0  0  0  0  0
   14.8819   27.2774   -4.7162 N   0  0  0  0  0  0  0  0  0  0  0  0
   14.9649   26.4567   -3.6376 C   0  0  0  0  0  0  0  0  0  0  0  0
   13.8840   25.7010   -3.2400 C   0  0  0  0  0  0  0  0  0  0  0  0
   13.9838   27.3363   -5.2526 H   0  0  0  0  0  0  0  0  0  0  0  0
 13 14  1  0  0  0
 14 15  2  0  0  0
 14  1  1  0  0  0
  1  2  2  0  0  0
  2  3  1  0  0  0
  3  4  2  0  0  0
  4  5  1  0  0  0
  5  6  1  0  0  0
  5  7  2  0  0  0
  7  8  1  0  0  0
  8  9  2  0  0  0
  9 10  1  0  0  0
 10 17  1  0  0  0
 17 18  1  0  0  0
 18 19  2  0  0  0
 19 20  1  0  0  0
 20 21  2  0  0  0
 21 22  1  0  0  0
 22 23  2  0  0  0
 23 24  1  0  0  0
 24 25  2  0  0  0
 24 26  1  0  0  0
 26 27  1  0  0  0
 27 28  2  0  0  0
 10 11  2  0  0  0
 11  1  1  0  0  0
  9  3  1  0  0  0
 28 18  1  0  0  0
 27 21  1  0  0  0
 13 16  1  0  0  0
  6 12  1  0  0  0
 26 29  1  0  0  0
M  END
> <minimizedAffinity>
-8.95920

> <CNNscore>
0.4532070756

> <CNNaffinity>
6.8346023560

> <CNN_VS>
3.0974900723

> <CNNaffinity_variance>
0.3328649402

$$$$
[H]OC(=O)c1nc(Oc2c([H])c([H])c3c([H])c([H])c(=O)n([H])c3c2[H])c2c([H])c([H])c(O[H])c([H])c2c1[H]


 29 32  0  0  0  0  0  0  0  0999 V2000
   15.3697   25.4274   -6.4503 C   0  0  0  0  0  0  0  0  0  0  0  0
   14.4970   26.4315   -6.1003 C   0  0  0  0  0  0  0  0  0  0  0  0
   13.9897   26.5608   -4.8275 C   0  0  0  0  0  0  0  0  0  0  0  0
   13.1037   27.5588   -4.4823 C   0  0  0  0  0  0  0  0  0  0  0  0
   12.5878   27.6748   -3.2141 C   0  0  0  0  0  0  0  0  0  0  0  0
   11.6917   28.6999   -2.8991 O   0  0  0  0  0  0  0  0  0  0  0  0
   12.9495   26.7807   -2.2393 C   0  0  0  0  0  0  0  0  0  0  0  0
   13.8290   25.7764   -2.5495 C   0  0  0  0  0  0  0  0  0  0  0  0
   14.3447   25.6653   -3.8220 C   0  0  0  0  0  0  0  0  0  0  0  0
   15.2174   24.6732   -4.1935 C   0  0  0  0  0  0  0  0  0  0  0  0
   15.6997   24.5777   -5.4728 N   0  0  0  0  0  0  0  0  0  0  0  0
   10.6878   28.5015   -3.0300 H   0  0  0  0  0  0  0  0  0  0  0  0
   15.4162   26.0477   -8.8652 O   0  0  0  0  0  0  0  0  0  0  0  0
   15.9028   25.2999   -7.8111 C   0  0  0  0  0  0  0  0  0  0  0  0
   16.8361   24.4955   -8.0799 O   0  0  0  0  0  0  0  0  0  0  0  0
   14.5126   25.8574   -9.2770 H   0  0  0  0  0  0  0  0  0  0  0  0
   15.6354   23.7359   -3.2470 O   0  0  0  0  0  0  0  0  0  0  0  0
   14.7893   22.9110   -2.5352 C   0  0  0  0  0  0  0  0  0  0  0  0
   15.1013   21.6630   -2.0843 C   0  0  0  0  0  0  0  0  0  0  0  0
   14.1824   20.8906   -1.3687 C   0  0  0  0  0  0  0  0  0  0  0  0
   12.9300   21.4018   -1.1117 C   0  0  0  0  0  0  0  0  0  0  0  0
   11.9980   20.6445   -0.3976 C   0  0  0  0  0  0  0  0  0  0  0  0
   10.7583   21.1988   -0.1653 C   0  0  0  0  0  0  0  0  0  0  0  0
   10.4133   22.4520   -0.6055 C   0  0  0  0  0  0  0  0  0  0  0  0
    9.2980   22.9923   -0.4156 O   0  0  0  0  0  0  0  0  0  0  0  0
   11.3364   23.1632   -1.2948 N   0  0  0  0  0  0  0  0  0  0  0  0
   12.5716   22.6592   -1.5486 C   0  0  0  0  0  0  0  0  0  0  0  0
   13.5030   23.3919   -2.2509 C   0  0  0  0  0  0  0  0  0  0  0  0
   11.0891   24.1217   -1.6380 H   0  0  0  0  0  0  0  0  0  0  0  0
 13 14  1  0  0  0
 14 15  2  0  0  0
 14  1  1  0  0  0
  1  2  2  0  0  0
  2  3  1  0  0  0
  3  4  2  0  0  0
  4  5  1  0  0  0
  5  6  1  0  0  0
  5  7  2  0  0  0
  7  8  1  0  0  0
  8  9  2  0  0  0
  9 10  1  0  0  0
 10 17  1  0  0  0
 17 18  1  0  0  0
 18 19  2  0  0  0
 19 20  1  0  0  0
 20 21  2  0  0  0
 21 22  1  0  0  0
 22 23  2  0  0  0
 23 24  1  0  0  0
 24 25  2  0  0  0
 24 26  1  0  0  0
 26 27  1  0  0  0
 27 28  2  0  0  0
 10 11  2  0  0  0
 11  1  1  0  0  0
  9  3  1  0  0  0
 28 18  1  0  0  0
 27 21  1  0  0  0
 13 16  1  0  0  0
  6 12  1  0  0  0
 26 29  1  0  0  0
M  END
> <minimizedAffinity>
2.78152

> <CNNscore>
0.4454040229

> <CNNaffinity>
6.5612001419

> <CNN_VS>
2.9223849773

> <CNNaffinity_variance>
1.2881064415

$$$$
[H]OC(=O)C([H])([H])N([H])C(=O)C1([H])C([H])([H])C([H])([H])N(c2c([H])c([H])c(-c3c([H])nc4c([H])c([H])c([H])c([H])c4c3[H])c([H])c2[H])C([H])([H])C1([H])[H]


 31 34  0  0  0  0  0  0  0  0999 V2000
   11.3603   23.7656   -0.2871 C   0  0  0  0  0  0  0  0  0  0  0  0
   11.1857   24.4634    0.8983 C   0  0  0  0  0  0  0  0  0  0  0  0
   10.1752   24.1580    1.7846 C   0  0  0  0  0  0  0  0  0  0  0  0
    9.3118   23.1366    1.5039 C   0  0  0  0  0  0  0  0  0  0  0  0
    9.4785   22.4327    0.3123 C   0  0  0  0  0  0  0  0  0  0  0  0
   10.4701   22.7382   -0.5508 C   0  0  0  0  0  0  0  0  0  0  0  0
    8.2989   22.8289    2.4958 C   0  0  0  0  0  0  0  0  0  0  0  0
    8.2168   23.5615    3.6573 C   0  0  0  0  0  0  0  0  0  0  0  0
    7.3122   23.2251    4.6240 N   0  0  0  0  0  0  0  0  0  0  0  0
    6.4668   22.1657    4.4660 C   0  0  0  0  0  0  0  0  0  0  0  0
    5.5386   21.8175    5.4458 C   0  0  0  0  0  0  0  0  0  0  0  0
    4.6852   20.7388    5.2906 C   0  0  0  0  0  0  0  0  0  0  0  0
    4.7410   19.9688    4.1184 C   0  0  0  0  0  0  0  0  0  0  0  0
    5.6807   20.3383    3.1507 C   0  0  0  0  0  0  0  0  0  0  0  0
    6.5339   21.4080    3.2915 C   0  0  0  0  0  0  0  0  0  0  0  0
    7.4552   21.7688    2.3384 C   0  0  0  0  0  0  0  0  0  0  0  0
   14.6449   24.5733   -2.9305 C   0  0  0  0  0  0  0  0  0  0  0  0
   14.5425   23.3637   -2.0771 C   0  0  0  0  0  0  0  0  0  0  0  0
   13.1184   22.9807   -1.7567 C   0  0  0  0  0  0  0  0  0  0  0  0
   12.4823   24.1089   -1.0493 N   0  0  0  0  0  0  0  0  0  0  0  0
   13.0635   25.4072   -1.2239 C   0  0  0  0  0  0  0  0  0  0  0  0
   13.4525   25.5169   -2.7061 C   0  0  0  0  0  0  0  0  0  0  0  0
   16.3198   26.3582   -3.4525 N   0  0  0  0  0  0  0  0  0  0  0  0
   15.8423   25.4181   -2.5192 C   0  0  0  0  0  0  0  0  0  0  0  0
   16.2688   25.1916   -1.4052 O   0  0  0  0  0  0  0  0  0  0  0  0
   17.4003   26.6029   -2.6378 H   0  0  0  0  0  0  0  0  0  0  0  0
   16.7763   27.2494   -4.3320 C   0  0  0  0  0  0  0  0  0  0  0  0
   15.7206   29.1884   -5.4571 O   0  0  0  0  0  0  0  0  0  0  0  0
   15.6940   27.8584   -5.1324 C   0  0  0  0  0  0  0  0  0  0  0  0
   14.7457   27.1485   -5.5216 O   0  0  0  0  0  0  0  0  0  0  0  0
   16.5565   29.6198   -5.7971 H   0  0  0  0  0  0  0  0  0  0  0  0
 28 29  1  0  0  0
 29 30  2  0  0  0
 29 27  1  0  0  0
 27 23  1  0  0  0
 23 24  1  0  0  0
 24 25  2  0  0  0
 24 17  1  0  0  0
 17 18  1  0  0  0
 18 19  1  0  0  0
 19 20  1  0  0  0
 20 21  1  0  0  0
 21 22  1  0  0  0
 20  1  1  0  0  0
  1  2  2  0  0  0
  2  3  1  0  0  0
  3  4  2  0  0  0
  4  5  1  0  0  0
  5  6  2  0  0  0
  4  7  1  0  0  0
  7  8  2  0  0  0
  8  9  1  0  0  0
  9 10  2  0  0  0
 10 11  1  0  0  0
 11 12  2  0  0  0
 12 13  1  0  0  0
 13 14  2  0  0  0
 14 15  1  0  0  0
 15 16  2  0  0  0
 22 17  1  0  0  0
  6  1  1  0  0  0
 16  7  1  0  0  0
 15 10  1  0  0  0
 28 31  1  0  0  0
 23 26  1  0  0  0
M  END
> <minimizedAffinity>
-7.85161

> <CNNscore>
0.3550587595

> <CNNaffinity>
6.3627119064

> <CNN_VS>
2.2591366768

> <CNNaffinity_variance>
0.1273441613

$$$$
[H]OC(=O)C([H])([H])N([H])C(=O)C1([H])C([H])([H])C([H])([H])N(c2c([H])c([H])c(-c3c([H])nc4c([H])c([H])c([H])c([H])c4c3[H])c([H])c2[H])C([H])([H])C1([H])[H]


 31 34  0  0  0  0  0  0  0  0999 V2000
   12.7569   22.4605    1.0451 C   0  0  0  0  0  0  0  0  0  0  0  0
   12.7679   23.8470    1.0324 C   0  0  0  0  0  0  0  0  0  0  0  0
   13.4662   24.5641    0.0847 C   0  0  0  0  0  0  0  0  0  0  0  0
   14.1720   23.9042   -0.8817 C   0  0  0  0  0  0  0  0  0  0  0  0
   14.1689   22.5103   -0.8733 C   0  0  0  0  0  0  0  0  0  0  0  0
   13.4831   21.8152    0.0584 C   0  0  0  0  0  0  0  0  0  0  0  0
   14.8471   24.7104   -1.8811 C   0  0  0  0  0  0  0  0  0  0  0  0
   16.1197   25.1803   -1.6528 C   0  0  0  0  0  0  0  0  0  0  0  0
   16.7267   26.0008   -2.5608 N   0  0  0  0  0  0  0  0  0  0  0  0
   16.0972   26.3711   -3.7134 C   0  0  0  0  0  0  0  0  0  0  0  0
   16.7104   27.2052   -4.6468 C   0  0  0  0  0  0  0  0  0  0  0  0
   16.0707   27.5879   -5.8131 C   0  0  0  0  0  0  0  0  0  0  0  0
   14.7717   27.1276   -6.0791 C   0  0  0  0  0  0  0  0  0  0  0  0
   14.1782   26.2922   -5.1272 C   0  0  0  0  0  0  0  0  0  0  0  0
   14.8026   25.9035   -3.9648 C   0  0  0  0  0  0  0  0  0  0  0  0
   14.2170   25.0819   -3.0323 C   0  0  0  0  0  0  0  0  0  0  0  0
   10.5686   20.4403    4.1369 C   0  0  0  0  0  0  0  0  0  0  0  0
   11.0228   19.7932    2.8810 C   0  0  0  0  0  0  0  0  0  0  0  0
   12.2477   20.4438    2.2862 C   0  0  0  0  0  0  0  0  0  0  0  0
   11.9296   21.8557    1.9977 N   0  0  0  0  0  0  0  0  0  0  0  0
   10.8384   22.4447    2.7162 C   0  0  0  0  0  0  0  0  0  0  0  0
   10.9381   21.9321    4.1610 C   0  0  0  0  0  0  0  0  0  0  0  0
    8.3514   20.9226    3.0811 N   0  0  0  0  0  0  0  0  0  0  0  0
    9.0485   20.4546    4.2115 C   0  0  0  0  0  0  0  0  0  0  0  0
    8.5846   20.0501    5.2581 O   0  0  0  0  0  0  0  0  0  0  0  0
    7.1786   20.8757    3.7977 H   0  0  0  0  0  0  0  0  0  0  0  0
    7.6862   21.3649    2.0142 C   0  0  0  0  0  0  0  0  0  0  0  0
    5.3234   21.2089    1.2842 O   0  0  0  0  0  0  0  0  0  0  0  0
    6.2358   21.4912    2.2655 C   0  0  0  0  0  0  0  0  0  0  0  0
    5.8380   21.8551    3.3898 O   0  0  0  0  0  0  0  0  0  0  0  0
    5.4093   20.3869    0.7209 H   0  0  0  0  0  0  0  0  0  0  0  0
 28 29  1  0  0  0
 29 30  2  0  0  0
 29 27  1  0  0  0
 27 23  1  0  0  0
 23 24  1  0  0  0
 24 25  2  0  0  0
 24 17  1  0  0  0
 17 18  1  0  0  0
 18 19  1  0  0  0
 19 20  1  0  0  0
 20 21  1  0  0  0
 21 22  1  0  0  0
 20  1  1  0  0  0
  1  2  2  0  0  0
  2  3  1  0  0  0
  3  4  2  0  0  0
  4  5  1  0  0  0
  5  6  2  0  0  0
  4  7  1  0  0  0
  7  8  2  0  0  0
  8  9  1  0  0  0
  9 10  2  0  0  0
 10 11  1  0  0  0
 11 12  2  0  0  0
 12 13  1  0  0  0
 13 14  2  0  0  0
 14 15  1  0  0  0
 15 16  2  0  0  0
 22 17  1  0  0  0
  6  1  1  0  0  0
 16  7  1  0  0  0
 15 10  1  0  0  0
 28 31  1  0  0  0
 23 26  1  0  0  0
M  END
> <minimizedAffinity>
-7.66850

> <CNNscore>
0.3220923245

> <CNNaffinity>
6.5258803368

> <CNN_VS>
2.1019358635

> <CNNaffinity_variance>
0.0708908215

$$$$
[H]OC(=O)C([H])([H])N([H])C(=O)C1([H])C([H])([H])C([H])([H])N(c2c([H])c([H])c(-c3c([H])nc4c([H])c([H])c([H])c([H])c4c3[H])c([H])c2[H])C([H])([H])C1([H])[H]


 31 34  0  0  0  0  0  0  0  0999 V2000
   11.5109   23.2532   -0.8414 C   0  0  0  0  0  0  0  0  0  0  0  0
   11.2951   21.9623   -1.2991 C   0  0  0  0  0  0  0  0  0  0  0  0
   10.1691   21.2440   -0.9577 C   0  0  0  0  0  0  0  0  0  0  0  0
    9.2244   21.8077   -0.1470 C   0  0  0  0  0  0  0  0  0  0  0  0
    9.4360   23.1038    0.3203 C   0  0  0  0  0  0  0  0  0  0  0  0
   10.5414   23.8004   -0.0179 C   0  0  0  0  0  0  0  0  0  0  0  0
    8.0379   21.0233    0.1386 C   0  0  0  0  0  0  0  0  0  0  0  0
    7.4342   21.0984    1.3724 C   0  0  0  0  0  0  0  0  0  0  0  0
    6.3619   20.3048    1.6665 N   0  0  0  0  0  0  0  0  0  0  0  0
    5.8585   19.4259    0.7521 C   0  0  0  0  0  0  0  0  0  0  0  0
    4.7628   18.6148    1.0426 C   0  0  0  0  0  0  0  0  0  0  0  0
    4.2552   17.7175    0.1190 C   0  0  0  0  0  0  0  0  0  0  0  0
    4.8461   17.6139   -1.1499 C   0  0  0  0  0  0  0  0  0  0  0  0
    5.9441   18.4382   -1.4169 C   0  0  0  0  0  0  0  0  0  0  0  0
    6.4580   19.3347   -0.5090 C   0  0  0  0  0  0  0  0  0  0  0  0
    7.5360   20.1436   -0.7749 C   0  0  0  0  0  0  0  0  0  0  0  0
   14.8487   25.6036   -2.1693 C   0  0  0  0  0  0  0  0  0  0  0  0
   13.5106   25.6228   -2.8107 C   0  0  0  0  0  0  0  0  0  0  0  0
   12.3919   25.2647   -1.8633 C   0  0  0  0  0  0  0  0  0  0  0  0
   12.6423   23.9072   -1.3412 N   0  0  0  0  0  0  0  0  0  0  0  0
   13.9892   23.4204   -1.3922 C   0  0  0  0  0  0  0  0  0  0  0  0
   14.8956   24.5994   -1.0065 C   0  0  0  0  0  0  0  0  0  0  0  0
   15.5948   25.1238   -4.5096 N   0  0  0  0  0  0  0  0  0  0  0  0
   15.8970   25.0702   -3.1353 C   0  0  0  0  0  0  0  0  0  0  0  0
   16.9073   24.6479   -2.6106 O   0  0  0  0  0  0  0  0  0  0  0  0
   16.7255   24.3879   -4.7764 H   0  0  0  0  0  0  0  0  0  0  0  0
   15.3140   25.1715   -5.8115 C   0  0  0  0  0  0  0  0  0  0  0  0
   16.0953   26.7230   -7.5786 O   0  0  0  0  0  0  0  0  0  0  0  0
   15.4736   26.5283   -6.3741 C   0  0  0  0  0  0  0  0  0  0  0  0
   15.0303   27.5089   -5.7444 O   0  0  0  0  0  0  0  0  0  0  0  0
   15.8815   26.1479   -8.3685 H   0  0  0  0  0  0  0  0  0  0  0  0
 28 29  1  0  0  0
 29 30  2  0  0  0
 29 27  1  0  0  0
 27 23  1  0  0  0
 23 24  1  0  0  0
 24 25  2  0  0  0
 24 17  1  0  0  0
 17 18  1  0  0  0
 18 19  1  0  0  0
 19 20  1  0  0  0
 20 21  1  0  0  0
 21 22  1  0  0  0
 20  1  1  0  0  0
  1  2  2  0  0  0
  2  3  1  0  0  0
  3  4  2  0  0  0
  4  5  1  0  0  0
  5  6  2  0  0  0
  4  7  1  0  0  0
  7  8  2  0  0  0
  8  9  1  0  0  0
  9 10  2  0  0  0
 10 11  1  0  0  0
 11 12  2  0  0  0
 12 13  1  0  0  0
 13 14  2  0  0  0
 14 15  1  0  0  0
 15 16  2  0  0  0
 22 17  1  0  0  0
  6  1  1  0  0  0
 16  7  1  0  0  0
 15 10  1  0  0  0
 28 31  1  0  0  0
 23 26  1  0  0  0
M  END
> <minimizedAffinity>
-8.34229

> <CNNscore>
0.2966127694

> <CNNaffinity>
6.4084739685

> <CNN_VS>
1.9008351564

> <CNNaffinity_variance>
0.1686081439

$$$$
[H]OC(=O)C([H])([H])N([H])C(=O)C1([H])C([H])([H])C([H])([H])N(c2c([H])c([H])c(-c3c([H])nc4c([H])c([H])c([H])c([H])c4c3[H])c([H])c2[H])C([H])([H])C1([H])[H]


 31 34  0  0  0  0  0  0  0  0999 V2000
   11.8265   24.0640   -0.5501 C   0  0  0  0  0  0  0  0  0  0  0  0
   11.6900   24.8830    0.5604 C   0  0  0  0  0  0  0  0  0  0  0  0
   10.7145   24.6699    1.5107 C   0  0  0  0  0  0  0  0  0  0  0  0
    9.8491   23.6214    1.3718 C   0  0  0  0  0  0  0  0  0  0  0  0
    9.9776   22.7957    0.2560 C   0  0  0  0  0  0  0  0  0  0  0  0
   10.9349   23.0114   -0.6705 C   0  0  0  0  0  0  0  0  0  0  0  0
    8.8751   23.4172    2.4273 C   0  0  0  0  0  0  0  0  0  0  0  0
    8.5627   22.1459    2.8498 C   0  0  0  0  0  0  0  0  0  0  0  0
    7.5921   21.9493    3.7907 N   0  0  0  0  0  0  0  0  0  0  0  0
    6.9135   22.9985    4.3390 C   0  0  0  0  0  0  0  0  0  0  0  0
    5.9241   22.8072    5.3020 C   0  0  0  0  0  0  0  0  0  0  0  0
    5.2295   23.8696    5.8541 C   0  0  0  0  0  0  0  0  0  0  0  0
    5.5218   25.1806    5.4468 C   0  0  0  0  0  0  0  0  0  0  0  0
    6.5182   25.3461    4.4794 C   0  0  0  0  0  0  0  0  0  0  0  0
    7.2167   24.2997    3.9233 C   0  0  0  0  0  0  0  0  0  0  0  0
    8.1957   24.4660    2.9740 C   0  0  0  0  0  0  0  0  0  0  0  0
   15.0756   24.5204   -3.3184 C   0  0  0  0  0  0  0  0  0  0  0  0
   15.1258   23.6570   -2.1126 C   0  0  0  0  0  0  0  0  0  0  0  0
   13.7681   23.1593   -1.6807 C   0  0  0  0  0  0  0  0  0  0  0  0
   12.9175   24.3285   -1.3852 N   0  0  0  0  0  0  0  0  0  0  0  0
   13.2869   25.5786   -1.9808 C   0  0  0  0  0  0  0  0  0  0  0  0
   13.7341   25.2643   -3.4165 C   0  0  0  0  0  0  0  0  0  0  0  0
   16.0910   26.6173   -4.2325 N   0  0  0  0  0  0  0  0  0  0  0  0
   16.0938   25.6467   -3.2123 C   0  0  0  0  0  0  0  0  0  0  0  0
   16.8157   25.5926   -2.2375 O   0  0  0  0  0  0  0  0  0  0  0  0
   17.2417   27.1574   -3.7076 H   0  0  0  0  0  0  0  0  0  0  0  0
   16.0934   27.5385   -5.1955 C   0  0  0  0  0  0  0  0  0  0  0  0
   16.2523   26.6994   -7.5216 O   0  0  0  0  0  0  0  0  0  0  0  0
   15.4791   27.0489   -6.4468 C   0  0  0  0  0  0  0  0  0  0  0  0
   14.2387   26.9479   -6.5220 O   0  0  0  0  0  0  0  0  0  0  0  0
   17.0705   26.1356   -7.4069 H   0  0  0  0  0  0  0  0  0  0  0  0
 28 29  1  0  0  0
 29 30  2  0  0  0
 29 27  1  0  0  0
 27 23  1  0  0  0
 23 24  1  0  0  0
 24 25  2  0  0  0
 24 17  1  0  0  0
 17 18  1  0  0  0
 18 19  1  0  0  0
 19 20  1  0  0  0
 20 21  1  0  0  0
 21 22  1  0  0  0
 20  1  1  0  0  0
  1  2  2  0  0  0
  2  3  1  0  0  0
  3  4  2  0  0  0
  4  5  1  0  0  0
  5  6  2  0  0  0
  4  7  1  0  0  0
  7  8  2  0  0  0
  8  9  1  0  0  0
  9 10  2  0  0  0
 10 11  1  0  0  0
 11 12  2  0  0  0
 12 13  1  0  0  0
 13 14  2  0  0  0
 14 15  1  0  0  0
 15 16  2  0  0  0
 22 17  1  0  0  0
  6  1  1  0  0  0
 16  7  1  0  0  0
 15 10  1  0  0  0
 28 31  1  0  0  0
 23 26  1  0  0  0
M  END
> <minimizedAffinity>
-8.61018

> <CNNscore>
0.2544643879

> <CNNaffinity>
6.2342863083

> <CNN_VS>
1.5864038467

> <CNNaffinity_variance>
0.0703221336

$$$$
[H]OC(=O)C([H])([H])N([H])C(=O)C1([H])C([H])([H])C([H])([H])N(c2c([H])c([H])c(-c3c([H])nc4c([H])c([H])c([H])c([H])c4c3[H])c([H])c2[H])C([H])([H])C1([H])[H]


 31 34  0  0  0  0  0  0  0  0999 V2000
   11.5826   22.9189    1.5155 C   0  0  0  0  0  0  0  0  0  0  0  0
   11.1406   24.1672    1.1044 C   0  0  0  0  0  0  0  0  0  0  0  0
   11.6631   24.7996   -0.0035 C   0  0  0  0  0  0  0  0  0  0  0  0
   12.6450   24.1901   -0.7328 C   0  0  0  0  0  0  0  0  0  0  0  0
   13.0973   22.9367   -0.3236 C   0  0  0  0  0  0  0  0  0  0  0  0
   12.5811   22.3243    0.7627 C   0  0  0  0  0  0  0  0  0  0  0  0
   13.1220   24.8809   -1.9159 C   0  0  0  0  0  0  0  0  0  0  0  0
   12.5479   26.0680   -2.3079 C   0  0  0  0  0  0  0  0  0  0  0  0
   12.9461   26.6803   -3.4623 N   0  0  0  0  0  0  0  0  0  0  0  0
   13.9201   26.1409   -4.2512 C   0  0  0  0  0  0  0  0  0  0  0  0
   14.3347   26.7606   -5.4289 C   0  0  0  0  0  0  0  0  0  0  0  0
   15.3174   26.2114   -6.2343 C   0  0  0  0  0  0  0  0  0  0  0  0
   15.9252   25.0012   -5.8656 C   0  0  0  0  0  0  0  0  0  0  0  0
   15.4917   24.3992   -4.6799 C   0  0  0  0  0  0  0  0  0  0  0  0
   14.5172   24.9342   -3.8699 C   0  0  0  0  0  0  0  0  0  0  0  0
   14.0944   24.3407   -2.7053 C   0  0  0  0  0  0  0  0  0  0  0  0
    9.8567   21.1800    5.0406 C   0  0  0  0  0  0  0  0  0  0  0  0
   10.6442   20.4198    4.0386 C   0  0  0  0  0  0  0  0  0  0  0  0
   11.6398   21.2739    3.2924 C   0  0  0  0  0  0  0  0  0  0  0  0
   10.9018   22.3446    2.5946 N   0  0  0  0  0  0  0  0  0  0  0  0
    9.6006   22.6799    3.0929 C   0  0  0  0  0  0  0  0  0  0  0  0
    9.6983   22.6516    4.6258 C   0  0  0  0  0  0  0  0  0  0  0  0
    7.4606   21.5150    5.6808 N   0  0  0  0  0  0  0  0  0  0  0  0
    8.4222   20.6735    5.0893 C   0  0  0  0  0  0  0  0  0  0  0  0
    8.2514   19.5753    4.6005 O   0  0  0  0  0  0  0  0  0  0  0  0
    6.5366   20.4998    5.5985 H   0  0  0  0  0  0  0  0  0  0  0  0
    6.5461   22.3071    6.2399 C   0  0  0  0  0  0  0  0  0  0  0  0
    5.4726   24.4963    5.7982 O   0  0  0  0  0  0  0  0  0  0  0  0
    6.0764   23.3638    5.3204 C   0  0  0  0  0  0  0  0  0  0  0  0
    6.2375   23.2235    4.0920 O   0  0  0  0  0  0  0  0  0  0  0  0
    5.8528   24.9938    6.5781 H   0  0  0  0  0  0  0  0  0  0  0  0
 28 29  1  0  0  0
 29 30  2  0  0  0
 29 27  1  0  0  0
 27 23  1  0  0  0
 23 24  1  0  0  0
 24 25  2  0  0  0
 24 17  1  0  0  0
 17 18  1  0  0  0
 18 19  1  0  0  0
 19 20  1  0  0  0
 20 21  1  0  0  0
 21 22  1  0  0  0
 20  1  1  0  0  0
  1  2  2  0  0  0
  2  3  1  0  0  0
  3  4  2  0  0  0
  4  5  1  0  0  0
  5  6  2  0  0  0
  4  7  1  0  0  0
  7  8  2  0  0  0
  8  9  1  0  0  0
  9 10  2  0  0  0
 10 11  1  0  0  0
 11 12  2  0  0  0
 12 13  1  0  0  0
 13 14  2  0  0  0
 14 15  1  0  0  0
 15 16  2  0  0  0
 22 17  1  0  0  0
  6  1  1  0  0  0
 16  7  1  0  0  0
 15 10  1  0  0  0
 28 31  1  0  0  0
 23 26  1  0  0  0
M  END
> <minimizedAffinity>
-8.72309

> <CNNscore>
0.2248771042

> <CNNaffinity>
6.0620870590

> <CNN_VS>
1.3632246256

> <CNNaffinity_variance>
0.1301030219

$$$$
[H]OC(=O)C([H])([H])N([H])C(=O)C1([H])C([H])([H])C([H])([H])N(c2c([H])c([H])c(-c3c([H])nc4c([H])c([H])c([H])c([H])c4c3[H])c([H])c2[H])C([H])([H])C1([H])[H]


 31 34  0  0  0  0  0  0  0  0999 V2000
   10.9434   22.7810    0.3896 C   0  0  0  0  0  0  0  0  0  0  0  0
   10.7890   22.7246    1.7664 C   0  0  0  0  0  0  0  0  0  0  0  0
    9.6710   22.1735    2.3549 C   0  0  0  0  0  0  0  0  0  0  0  0
    8.6759   21.6588    1.5723 C   0  0  0  0  0  0  0  0  0  0  0  0
    8.8222   21.7151    0.1871 C   0  0  0  0  0  0  0  0  0  0  0  0
    9.9196   22.2569   -0.3816 C   0  0  0  0  0  0  0  0  0  0  0  0
    7.5463   21.0479    2.2471 C   0  0  0  0  0  0  0  0  0  0  0  0
    6.4846   20.5579    1.5226 C   0  0  0  0  0  0  0  0  0  0  0  0
    5.3882   20.0505    2.1603 N   0  0  0  0  0  0  0  0  0  0  0  0
    5.3161   20.0097    3.5223 C   0  0  0  0  0  0  0  0  0  0  0  0
    4.2028   19.4908    4.1811 C   0  0  0  0  0  0  0  0  0  0  0  0
    4.1245   19.4552    5.5626 C   0  0  0  0  0  0  0  0  0  0  0  0
    5.1892   19.9466    6.3340 C   0  0  0  0  0  0  0  0  0  0  0  0
    6.2946   20.4621    5.6496 C   0  0  0  0  0  0  0  0  0  0  0  0
    6.3859   20.5027    4.2777 C   0  0  0  0  0  0  0  0  0  0  0  0
    7.4737   21.0089    3.6085 C   0  0  0  0  0  0  0  0  0  0  0  0
   14.8773   24.0968   -0.7157 C   0  0  0  0  0  0  0  0  0  0  0  0
   14.0349   24.7629    0.3084 C   0  0  0  0  0  0  0  0  0  0  0  0
   13.0494   23.8289    0.9670 C   0  0  0  0  0  0  0  0  0  0  0  0
   12.1669   23.2737   -0.0775 N   0  0  0  0  0  0  0  0  0  0  0  0
   12.6519   23.2895   -1.4259 C   0  0  0  0  0  0  0  0  0  0  0  0
   14.1397   22.9123   -1.3604 C   0  0  0  0  0  0  0  0  0  0  0  0
   15.5032   24.4438   -3.1139 N   0  0  0  0  0  0  0  0  0  0  0  0
   15.1317   25.0317   -1.8895 C   0  0  0  0  0  0  0  0  0  0  0  0
   14.9820   26.2115   -1.6446 O   0  0  0  0  0  0  0  0  0  0  0  0
   15.7532   25.6951   -3.6269 H   0  0  0  0  0  0  0  0  0  0  0  0
   15.8555   23.8931   -4.2752 C   0  0  0  0  0  0  0  0  0  0  0  0
   16.1517   21.6176   -5.2104 O   0  0  0  0  0  0  0  0  0  0  0  0
   15.4981   22.4616   -4.3528 C   0  0  0  0  0  0  0  0  0  0  0  0
   14.5913   22.0159   -3.6222 O   0  0  0  0  0  0  0  0  0  0  0  0
   17.1488   21.6312   -5.2876 H   0  0  0  0  0  0  0  0  0  0  0  0
 28 29  1  0  0  0
 29 30  2  0  0  0
 29 27  1  0  0  0
 27 23  1  0  0  0
 23 24  1  0  0  0
 24 25  2  0  0  0
 24 17  1  0  0  0
 17 18  1  0  0  0
 18 19  1  0  0  0
 19 20  1  0  0  0
 20 21  1  0  0  0
 21 22  1  0  0  0
 20  1  1  0  0  0
  1  2  2  0  0  0
  2  3  1  0  0  0
  3  4  2  0  0  0
  4  5  1  0  0  0
  5  6  2  0  0  0
  4  7  1  0  0  0
  7  8  2  0  0  0
  8  9  1  0  0  0
  9 10  2  0  0  0
 10 11  1  0  0  0
 11 12  2  0  0  0
 12 13  1  0  0  0
 13 14  2  0  0  0
 14 15  1  0  0  0
 15 16  2  0  0  0
 22 17  1  0  0  0
  6  1  1  0  0  0
 16  7  1  0  0  0
 15 10  1  0  0  0
 28 31  1  0  0  0
 23 26  1  0  0  0
M  END
> <minimizedAffinity>
-2.01306

> <CNNscore>
0.2089724839

> <CNNaffinity>
5.7633128166

> <CNN_VS>
1.2043738365

> <CNNaffinity_variance>
0.6402633190

$$$$
[H]OC(=O)C([H])([H])N([H])C(=O)C1([H])C([H])([H])C([H])([H])N(c2c([H])c([H])c(-c3c([H])nc4c([H])c([H])c([H])c([H])c4c3[H])c([H])c2[H])C([H])([H])C1([H])[H]


 31 34  0  0  0  0  0  0  0  0999 V2000
   11.6423   24.0918    0.6214 C   0  0  0  0  0  0  0  0  0  0  0  0
   10.8320   22.9788    0.7859 C   0  0  0  0  0  0  0  0  0  0  0  0
    9.7697   22.9710    1.6644 C   0  0  0  0  0  0  0  0  0  0  0  0
    9.4902   24.0874    2.4013 C   0  0  0  0  0  0  0  0  0  0  0  0
   10.3027   25.2092    2.2443 C   0  0  0  0  0  0  0  0  0  0  0  0
   11.3413   25.2088    1.3825 C   0  0  0  0  0  0  0  0  0  0  0  0
    8.3315   24.0375    3.2727 C   0  0  0  0  0  0  0  0  0  0  0  0
    7.5324   22.9182    3.3049 C   0  0  0  0  0  0  0  0  0  0  0  0
    6.4001   22.8991    4.0689 N   0  0  0  0  0  0  0  0  0  0  0  0
    6.0338   23.9776    4.8203 C   0  0  0  0  0  0  0  0  0  0  0  0
    4.8820   23.9656    5.6052 C   0  0  0  0  0  0  0  0  0  0  0  0
    4.5047   25.0611    6.3624 C   0  0  0  0  0  0  0  0  0  0  0  0
    5.2960   26.2204    6.3537 C   0  0  0  0  0  0  0  0  0  0  0  0
    6.4463   26.2075    5.5583 C   0  0  0  0  0  0  0  0  0  0  0  0
    6.8333   25.1258    4.8018 C   0  0  0  0  0  0  0  0  0  0  0  0
    7.9645   25.1163    4.0224 C   0  0  0  0  0  0  0  0  0  0  0  0
   14.5107   23.4292   -2.5030 C   0  0  0  0  0  0  0  0  0  0  0  0
   14.6828   22.9648   -1.1041 C   0  0  0  0  0  0  0  0  0  0  0  0
   13.3741   22.7331   -0.3892 C   0  0  0  0  0  0  0  0  0  0  0  0
   12.6230   24.0033   -0.3726 N   0  0  0  0  0  0  0  0  0  0  0  0
   12.9647   24.9831   -1.3611 C   0  0  0  0  0  0  0  0  0  0  0  0
   13.2023   24.2180   -2.6720 C   0  0  0  0  0  0  0  0  0  0  0  0
   15.5281   25.0125   -4.1527 N   0  0  0  0  0  0  0  0  0  0  0  0
   15.5827   24.4475   -2.8641 C   0  0  0  0  0  0  0  0  0  0  0  0
   16.3887   24.6743   -1.9848 O   0  0  0  0  0  0  0  0  0  0  0  0
   16.7450   25.6131   -3.9297 H   0  0  0  0  0  0  0  0  0  0  0  0
   15.4816   25.5503   -5.3712 C   0  0  0  0  0  0  0  0  0  0  0  0
   13.5570   27.0426   -4.9140 O   0  0  0  0  0  0  0  0  0  0  0  0
   14.8350   26.8787   -5.3778 C   0  0  0  0  0  0  0  0  0  0  0  0
   15.4652   27.8651   -5.8073 O   0  0  0  0  0  0  0  0  0  0  0  0
   13.2628   26.6252   -4.0540 H   0  0  0  0  0  0  0  0  0  0  0  0
 28 29  1  0  0  0
 29 30  2  0  0  0
 29 27  1  0  0  0
 27 23  1  0  0  0
 23 24  1  0  0  0
 24 25  2  0  0  0
 24 17  1  0  0  0
 17 18  1  0  0  0
 18 19  1  0  0  0
 19 20  1  0  0  0
 20 21  1  0  0  0
 21 22  1  0  0  0
 20  1  1  0  0  0
  1  2  2  0  0  0
  2  3  1  0  0  0
  3  4  2  0  0  0
  4  5  1  0  0  0
  5  6  2  0  0  0
  4  7  1  0  0  0
  7  8  2  0  0  0
  8  9  1  0  0  0
  9 10  2  0  0  0
 10 11  1  0  0  0
 11 12  2  0  0  0
 12 13  1  0  0  0
 13 14  2  0  0  0
 14 15  1  0  0  0
 15 16  2  0  0  0
 22 17  1  0  0  0
  6  1  1  0  0  0
 16  7  1  0  0  0
 15 10  1  0  0  0
 28 31  1  0  0  0
 23 26  1  0  0  0
M  END
> <minimizedAffinity>
-6.00096

> <CNNscore>
0.1822842211

> <CNNaffinity>
6.0537366867

> <CNN_VS>
1.1035007238

> <CNNaffinity_variance>
0.0278095715

$$$$
[H]OC(=O)C([H])([H])N([H])C(=O)C1([H])C([H])([H])C([H])([H])N(c2c([H])c([H])c(-c3c([H])nc4c([H])c([H])c([H])c([H])c4c3[H])c([H])c2[H])C([H])([H])C1([H])[H]


 31 34  0  0  0  0  0  0  0  0999 V2000
   10.9312   23.6912    0.9989 C   0  0  0  0  0  0  0  0  0  0  0  0
   11.6961   24.8362    1.1616 C   0  0  0  0  0  0  0  0  0  0  0  0
   12.6308   25.2299    0.2280 C   0  0  0  0  0  0  0  0  0  0  0  0
   12.8197   24.4824   -0.9003 C   0  0  0  0  0  0  0  0  0  0  0  0
   12.0571   23.3278   -1.0692 C   0  0  0  0  0  0  0  0  0  0  0  0
   11.1443   22.9486   -0.1503 C   0  0  0  0  0  0  0  0  0  0  0  0
   13.7813   24.9716   -1.8701 C   0  0  0  0  0  0  0  0  0  0  0  0
   15.1266   24.9605   -1.5831 C   0  0  0  0  0  0  0  0  0  0  0  0
   16.0259   25.4894   -2.4650 N   0  0  0  0  0  0  0  0  0  0  0  0
   15.6211   26.0345   -3.6487 C   0  0  0  0  0  0  0  0  0  0  0  0
   16.5321   26.5733   -4.5557 C   0  0  0  0  0  0  0  0  0  0  0  0
   16.1230   27.1332   -5.7536 C   0  0  0  0  0  0  0  0  0  0  0  0
   14.7581   27.1619   -6.0796 C   0  0  0  0  0  0  0  0  0  0  0  0
   13.8643   26.6153   -5.1531 C   0  0  0  0  0  0  0  0  0  0  0  0
   14.2571   26.0550   -3.9598 C   0  0  0  0  0  0  0  0  0  0  0  0
   13.3765   25.5180   -3.0524 C   0  0  0  0  0  0  0  0  0  0  0  0
    8.2302   22.9921    4.2615 C   0  0  0  0  0  0  0  0  0  0  0  0
    9.0517   21.9351    3.6211 C   0  0  0  0  0  0  0  0  0  0  0  0
   10.3190   22.4643    2.9956 C   0  0  0  0  0  0  0  0  0  0  0  0
    9.9500   23.4580    1.9688 N   0  0  0  0  0  0  0  0  0  0  0  0
    8.6593   24.0708    2.0795 C   0  0  0  0  0  0  0  0  0  0  0  0
    8.4345   24.3512    3.5732 C   0  0  0  0  0  0  0  0  0  0  0  0
    6.3668   21.3787    3.8277 N   0  0  0  0  0  0  0  0  0  0  0  0
    6.7477   22.7149    4.0563 C   0  0  0  0  0  0  0  0  0  0  0  0
    6.0320   23.6939    4.1152 O   0  0  0  0  0  0  0  0  0  0  0  0
    5.0878   21.8015    3.5509 H   0  0  0  0  0  0  0  0  0  0  0  0
    6.0004   20.1158    3.6104 C   0  0  0  0  0  0  0  0  0  0  0  0
    5.5288   18.5792    5.4963 O   0  0  0  0  0  0  0  0  0  0  0  0
    6.4397   19.2069    4.6892 C   0  0  0  0  0  0  0  0  0  0  0  0
    7.6578   19.0053    4.8626 O   0  0  0  0  0  0  0  0  0  0  0  0
    4.7170   18.1385    5.1126 H   0  0  0  0  0  0  0  0  0  0  0  0
 28 29  1  0  0  0
 29 30  2  0  0  0
 29 27  1  0  0  0
 27 23  1  0  0  0
 23 24  1  0  0  0
 24 25  2  0  0  0
 24 17  1  0  0  0
 17 18  1  0  0  0
 18 19  1  0  0  0
 19 20  1  0  0  0
 20 21  1  0  0  0
 21 22  1  0  0  0
 20  1  1  0  0  0
  1  2  2  0  0  0
  2  3  1  0  0  0
  3  4  2  0  0  0
  4  5  1  0  0  0
  5  6  2  0  0  0
  4  7  1  0  0  0
  7  8  2  0  0  0
  8  9  1  0  0  0
  9 10  2  0  0  0
 10 11  1  0  0  0
 11 12  2  0  0  0
 12 13  1  0  0  0
 13 14  2  0  0  0
 14 15  1  0  0  0
 15 16  2  0  0  0
 22 17  1  0  0  0
  6  1  1  0  0  0
 16  7  1  0  0  0
 15 10  1  0  0  0
 28 31  1  0  0  0
 23 26  1  0  0  0
M  END
> <minimizedAffinity>
-7.78155

> <CNNscore>
0.1740554720

> <CNNaffinity>
5.8940134048

> <CNN_VS>
1.0258853436

> <CNNaffinity_variance>
0.1363113075

$$$$
[H]OC(=O)C([H])([H])N([H])C(=O)C1([H])C([H])([H])C([H])([H])N(c2c([H])c([H])c(-c3c([H])nc4c([H])c([H])c([H])c([H])c4c3[H])c([H])c2[H])C([H])([H])C1([H])[H]


 31 34  0  0  0  0  0  0  0  0999 V2000
   11.6271   23.0312   -0.7554 C   0  0  0  0  0  0  0  0  0  0  0  0
   10.8826   23.9360   -0.0139 C   0  0  0  0  0  0  0  0  0  0  0  0
    9.8683   23.5323    0.8278 C   0  0  0  0  0  0  0  0  0  0  0  0
    9.5765   22.2029    0.9501 C   0  0  0  0  0  0  0  0  0  0  0  0
   10.3181   21.2874    0.2051 C   0  0  0  0  0  0  0  0  0  0  0  0
   11.3093   21.6905   -0.6174 C   0  0  0  0  0  0  0  0  0  0  0  0
    8.5323   21.8336    1.8871 C   0  0  0  0  0  0  0  0  0  0  0  0
    7.2077   21.9843    1.5480 C   0  0  0  0  0  0  0  0  0  0  0  0
    6.2259   21.7071    2.4566 N   0  0  0  0  0  0  0  0  0  0  0  0
    6.5265   21.2712    3.7142 C   0  0  0  0  0  0  0  0  0  0  0  0
    5.5311   20.9830    4.6463 C   0  0  0  0  0  0  0  0  0  0  0  0
    5.8341   20.5477    5.9249 C   0  0  0  0  0  0  0  0  0  0  0  0
    7.1749   20.3826    6.3056 C   0  0  0  0  0  0  0  0  0  0  0  0
    8.1549   20.6785    5.3526 C   0  0  0  0  0  0  0  0  0  0  0  0
    7.8679   21.1108    4.0787 C   0  0  0  0  0  0  0  0  0  0  0  0
    8.8330   21.3996    3.1447 C   0  0  0  0  0  0  0  0  0  0  0  0
   14.7663   24.4113   -3.3379 C   0  0  0  0  0  0  0  0  0  0  0  0
   14.8260   23.1511   -2.5567 C   0  0  0  0  0  0  0  0  0  0  0  0
   13.4652   22.5683   -2.2633 C   0  0  0  0  0  0  0  0  0  0  0  0
   12.6913   23.5612   -1.4931 N   0  0  0  0  0  0  0  0  0  0  0  0
   13.0981   24.9319   -1.5901 C   0  0  0  0  0  0  0  0  0  0  0  0
   13.4624   25.1774   -3.0622 C   0  0  0  0  0  0  0  0  0  0  0  0
   16.3328   25.2228   -1.5627 N   0  0  0  0  0  0  0  0  0  0  0  0
   15.8458   25.3792   -2.8747 C   0  0  0  0  0  0  0  0  0  0  0  0
   16.1844   26.2008   -3.7021 O   0  0  0  0  0  0  0  0  0  0  0  0
   17.0402   26.3945   -1.6968 H   0  0  0  0  0  0  0  0  0  0  0  0
   16.7972   25.0799   -0.3217 C   0  0  0  0  0  0  0  0  0  0  0  0
   14.8219   25.3066    1.1572 O   0  0  0  0  0  0  0  0  0  0  0  0
   15.7880   24.5140    0.5971 C   0  0  0  0  0  0  0  0  0  0  0  0
   15.8144   23.2958    0.8613 O   0  0  0  0  0  0  0  0  0  0  0  0
   14.3149   25.9694    0.6059 H   0  0  0  0  0  0  0  0  0  0  0  0
 28 29  1  0  0  0
 29 30  2  0  0  0
 29 27  1  0  0  0
 27 23  1  0  0  0
 23 24  1  0  0  0
 24 25  2  0  0  0
 24 17  1  0  0  0
 17 18  1  0  0  0
 18 19  1  0  0  0
 19 20  1  0  0  0
 20 21  1  0  0  0
 21 22  1  0  0  0
 20  1  1  0  0  0
  1  2  2  0  0  0
  2  3  1  0  0  0
  3  4  2  0  0  0
  4  5  1  0  0  0
  5  6  2  0  0  0
  4  7  1  0  0  0
  7  8  2  0  0  0
  8  9  1  0  0  0
  9 10  2  0  0  0
 10 11  1  0  0  0
 11 12  2  0  0  0
 12 13  1  0  0  0
 13 14  2  0  0  0
 14 15  1  0  0  0
 15 16  2  0  0  0
 22 17  1  0  0  0
  6  1  1  0  0  0
 16  7  1  0  0  0
 15 10  1  0  0  0
 28 31  1  0  0  0
 23 26  1  0  0  0
M  END
> <minimizedAffinity>
-6.51847

> <CNNscore>
0.1719287038

> <CNNaffinity>
6.2630777359

> <CNN_VS>
1.0768028498

> <CNNaffinity_variance>
0.0517919175

$$$$
[H]OC(=O)c1c([H])c([H])c([H])c(N([H])C(=O)N([H])C([H])([H])C([H])([H])N2C([H])([H])C([H])([H])N(c3nc([H])c([H])c4c([H])c(Cl)c([H])nc34)C([H])([H])C2([H])[H])c1[H]


 35 38  0  0  0  0  0  0  0  0999 V2000
   10.9802   24.0017    1.5056 C   0  0  0  0  0  0  0  0  0  0  0  0
   10.7849   23.1256    0.3816 N   0  0  0  0  0  0  0  0  0  0  0  0
   10.4243   23.9235   -0.7610 C   0  0  0  0  0  0  0  0  0  0  0  0
   11.5930   24.7020   -1.3285 C   0  0  0  0  0  0  0  0  0  0  0  0
   12.7786   23.8679   -1.2947 N   0  0  0  0  0  0  0  0  0  0  0  0
   12.5352   22.4206   -1.1994 C   0  0  0  0  0  0  0  0  0  0  0  0
   11.8406   22.2137    0.1376 C   0  0  0  0  0  0  0  0  0  0  0  0
   14.0779   24.4037   -1.3490 C   0  0  0  0  0  0  0  0  0  0  0  0
   14.9149   24.1787   -0.3217 N   0  0  0  0  0  0  0  0  0  0  0  0
   16.1806   24.6784   -0.3332 C   0  0  0  0  0  0  0  0  0  0  0  0
   16.6552   25.4283   -1.3857 C   0  0  0  0  0  0  0  0  0  0  0  0
   15.8151   25.6717   -2.4498 C   0  0  0  0  0  0  0  0  0  0  0  0
   16.2469   26.4155   -3.5218 C   0  0  0  0  0  0  0  0  0  0  0  0
   15.3979   26.6488   -4.5732 C   0  0  0  0  0  0  0  0  0  0  0  0
   15.9176   27.5945   -5.9574 Cl  0  0  0  0  0  0  0  0  0  0  0  0
   14.1280   26.1144   -4.5001 C   0  0  0  0  0  0  0  0  0  0  0  0
   13.7137   25.3839   -3.4401 N   0  0  0  0  0  0  0  0  0  0  0  0
   14.5340   25.1523   -2.4127 C   0  0  0  0  0  0  0  0  0  0  0  0
    9.7353   24.4395    2.1792 C   0  0  0  0  0  0  0  0  0  0  0  0
    8.2404   22.5342    5.0434 N   0  0  0  0  0  0  0  0  0  0  0  0
    8.4208   23.0250    3.7386 C   0  0  0  0  0  0  0  0  0  0  0  0
    7.6437   22.6844    2.8176 O   0  0  0  0  0  0  0  0  0  0  0  0
    9.5115   23.9201    3.4933 N   0  0  0  0  0  0  0  0  0  0  0  0
    8.9802   22.8965    5.7444 H   0  0  0  0  0  0  0  0  0  0  0  0
   10.1151   24.1682    4.2890 H   0  0  0  0  0  0  0  0  0  0  0  0
    6.4890   19.3489    5.6671 C   0  0  0  0  0  0  0  0  0  0  0  0
    5.3606   19.7741    6.2923 C   0  0  0  0  0  0  0  0  0  0  0  0
    5.1323   21.1111    6.5377 C   0  0  0  0  0  0  0  0  0  0  0  0
    6.0993   22.0393    6.1251 C   0  0  0  0  0  0  0  0  0  0  0  0
    7.2402   21.6665    5.4979 C   0  0  0  0  0  0  0  0  0  0  0  0
    7.4053   20.2890    5.2815 C   0  0  0  0  0  0  0  0  0  0  0  0
    7.7525   17.2418    6.0673 O   0  0  0  0  0  0  0  0  0  0  0  0
    6.7604   17.9356    5.3923 C   0  0  0  0  0  0  0  0  0  0  0  0
    6.0975   17.3092    4.5323 O   0  0  0  0  0  0  0  0  0  0  0  0
    8.6486   17.0049    5.6219 H   0  0  0  0  0  0  0  0  0  0  0  0
 32 33  1  0  0  0
 33 34  2  0  0  0
 33 26  1  0  0  0
 26 27  2  0  0  0
 27 28  1  0  0  0
 28 29  2  0  0  0
 29 30  1  0  0  0
 30 20  1  0  0  0
 20 21  1  0  0  0
 21 22  2  0  0  0
 21 23  1  0  0  0
 23 19  1  0  0  0
 19  1  1  0  0  0
  1  2  1  0  0  0
  2  3  1  0  0  0
  3  4  1  0  0  0
  4  5  1  0  0  0
  5  6  1  0  0  0
  6  7  1  0  0  0
  5  8  1  0  0  0
  8  9  2  0  0  0
  9 10  1  0  0  0
 10 11  2  0  0  0
 11 12  1  0  0  0
 12 13  2  0  0  0
 13 14  1  0  0  0
 14 15  1  0  0  0
 14 16  2  0  0  0
 16 17  1  0  0  0
 17 18  2  0  0  0
 30 31  2  0  0  0
 31 26  1  0  0  0
  7  2  1  0  0  0
 18  8  1  0  0  0
 18 12  1  0  0  0
 32 35  1  0  0  0
 20 24  1  0  0  0
 23 25  1  0  0  0
M  END
> <minimizedAffinity>
-7.62376

> <CNNscore>
0.5433418155

> <CNNaffinity>
6.9968338013

> <CNN_VS>
3.8016724586

> <CNNaffinity_variance>
0.6794384718

$$$$
[H]OC(=O)c1c([H])c([H])c([H])c(N([H])C(=O)N([H])C([H])([H])C([H])([H])N2C([H])([H])C([H])([H])N(c3nc([H])c([H])c4c([H])c(Cl)c([H])nc34)C([H])([H])C2([H])[H])c1[H]


 35 38  0  0  0  0  0  0  0  0999 V2000
   12.2288   20.5531   -0.5889 C   0  0  0  0  0  0  0  0  0  0  0  0
   13.5419   20.8130   -0.0621 N   0  0  0  0  0  0  0  0  0  0  0  0
   14.4972   20.6726   -1.1298 C   0  0  0  0  0  0  0  0  0  0  0  0
   14.4561   21.8243   -2.1126 C   0  0  0  0  0  0  0  0  0  0  0  0
   14.2692   23.0632   -1.3827 N   0  0  0  0  0  0  0  0  0  0  0  0
   14.6258   23.0208    0.0435 C   0  0  0  0  0  0  0  0  0  0  0  0
   13.6696   22.0181    0.6707 C   0  0  0  0  0  0  0  0  0  0  0  0
   13.7792   24.2309   -1.9946 C   0  0  0  0  0  0  0  0  0  0  0  0
   12.7901   24.9123   -1.3911 N   0  0  0  0  0  0  0  0  0  0  0  0
   12.2866   26.0471   -1.9483 C   0  0  0  0  0  0  0  0  0  0  0  0
   12.7622   26.5426   -3.1414 C   0  0  0  0  0  0  0  0  0  0  0  0
   13.7758   25.8609   -3.7779 C   0  0  0  0  0  0  0  0  0  0  0  0
   14.2811   26.3195   -4.9710 C   0  0  0  0  0  0  0  0  0  0  0  0
   15.2902   25.6289   -5.5919 C   0  0  0  0  0  0  0  0  0  0  0  0
   15.9578   26.1870   -7.1161 Cl  0  0  0  0  0  0  0  0  0  0  0  0
   15.7565   24.4862   -4.9751 C   0  0  0  0  0  0  0  0  0  0  0  0
   15.2518   24.0443   -3.8009 N   0  0  0  0  0  0  0  0  0  0  0  0
   14.2694   24.7106   -3.1902 C   0  0  0  0  0  0  0  0  0  0  0  0
   11.2327   21.6202   -0.3362 C   0  0  0  0  0  0  0  0  0  0  0  0
    7.6355   20.8858   -1.1041 N   0  0  0  0  0  0  0  0  0  0  0  0
    8.8361   20.9761   -0.3785 C   0  0  0  0  0  0  0  0  0  0  0  0
    8.8878   20.6010    0.8151 O   0  0  0  0  0  0  0  0  0  0  0  0
    9.9916   21.5056   -1.0385 N   0  0  0  0  0  0  0  0  0  0  0  0
    7.7196   21.2480   -2.1199 H   0  0  0  0  0  0  0  0  0  0  0  0
    9.8911   21.7940   -2.0212 H   0  0  0  0  0  0  0  0  0  0  0  0
    4.9156   18.4594   -0.5411 C   0  0  0  0  0  0  0  0  0  0  0  0
    4.0006   19.2201    0.1142 C   0  0  0  0  0  0  0  0  0  0  0  0
    4.2386   20.5472    0.4007 C   0  0  0  0  0  0  0  0  0  0  0  0
    5.4596   21.1076   -0.0017 C   0  0  0  0  0  0  0  0  0  0  0  0
    6.4039   20.3922   -0.6577 C   0  0  0  0  0  0  0  0  0  0  0  0
    6.0931   19.0473   -0.9152 C   0  0  0  0  0  0  0  0  0  0  0  0
    5.4541   16.0430   -0.2829 O   0  0  0  0  0  0  0  0  0  0  0  0
    4.6923   17.0469   -0.8597 C   0  0  0  0  0  0  0  0  0  0  0  0
    3.7988   16.7041   -1.6693 O   0  0  0  0  0  0  0  0  0  0  0  0
    6.1884   15.5492   -0.8069 H   0  0  0  0  0  0  0  0  0  0  0  0
 32 33  1  0  0  0
 33 34  2  0  0  0
 33 26  1  0  0  0
 26 27  2  0  0  0
 27 28  1  0  0  0
 28 29  2  0  0  0
 29 30  1  0  0  0
 30 20  1  0  0  0
 20 21  1  0  0  0
 21 22  2  0  0  0
 21 23  1  0  0  0
 23 19  1  0  0  0
 19  1  1  0  0  0
  1  2  1  0  0  0
  2  3  1  0  0  0
  3  4  1  0  0  0
  4  5  1  0  0  0
  5  6  1  0  0  0
  6  7  1  0  0  0
  5  8  1  0  0  0
  8  9  2  0  0  0
  9 10  1  0  0  0
 10 11  2  0  0  0
 11 12  1  0  0  0
 12 13  2  0  0  0
 13 14  1  0  0  0
 14 15  1  0  0  0
 14 16  2  0  0  0
 16 17  1  0  0  0
 17 18  2  0  0  0
 30 31  2  0  0  0
 31 26  1  0  0  0
  7  2  1  0  0  0
 18  8  1  0  0  0
 18 12  1  0  0  0
 32 35  1  0  0  0
 20 24  1  0  0  0
 23 25  1  0  0  0
M  END
> <minimizedAffinity>
-9.09970

> <CNNscore>
0.4635775983

> <CNNaffinity>
7.4075775146

> <CNN_VS>
3.4339869022

> <CNNaffinity_variance>
0.2715451717

$$$$
[H]OC(=O)c1c([H])c([H])c([H])c(N([H])C(=O)N([H])C([H])([H])C([H])([H])N2C([H])([H])C([H])([H])N(c3nc([H])c([H])c4c([H])c(Cl)c([H])nc34)C([H])([H])C2([H])[H])c1[H]


 35 38  0  0  0  0  0  0  0  0999 V2000
    8.7946   24.1108    1.3982 C   0  0  0  0  0  0  0  0  0  0  0  0
    8.2676   24.2882    2.7248 N   0  0  0  0  0  0  0  0  0  0  0  0
    7.2344   23.3090    2.9394 C   0  0  0  0  0  0  0  0  0  0  0  0
    7.7804   21.9102    3.1379 C   0  0  0  0  0  0  0  0  0  0  0  0
    8.9783   21.9806    3.9520 N   0  0  0  0  0  0  0  0  0  0  0  0
    9.1275   23.2009    4.7592 C   0  0  0  0  0  0  0  0  0  0  0  0
    9.2365   24.3392    3.7564 C   0  0  0  0  0  0  0  0  0  0  0  0
    9.9370   20.9517    3.9713 C   0  0  0  0  0  0  0  0  0  0  0  0
    9.8210   19.9753    4.8877 N   0  0  0  0  0  0  0  0  0  0  0  0
   10.7264   18.9608    4.9417 C   0  0  0  0  0  0  0  0  0  0  0  0
   11.7896   18.8898    4.0701 C   0  0  0  0  0  0  0  0  0  0  0  0
   11.9287   19.8795    3.1223 C   0  0  0  0  0  0  0  0  0  0  0  0
   12.9752   19.8486    2.2318 C   0  0  0  0  0  0  0  0  0  0  0  0
   13.0993   20.8419    1.2944 C   0  0  0  0  0  0  0  0  0  0  0  0
   14.4238   20.8325    0.1429 Cl  0  0  0  0  0  0  0  0  0  0  0  0
   12.1485   21.8416    1.2926 C   0  0  0  0  0  0  0  0  0  0  0  0
   11.1227   21.8618    2.1736 N   0  0  0  0  0  0  0  0  0  0  0  0
   10.9948   20.8988    3.0892 C   0  0  0  0  0  0  0  0  0  0  0  0
   10.1584   24.6515    1.1912 C   0  0  0  0  0  0  0  0  0  0  0  0
   12.6280   24.5740   -1.6308 N   0  0  0  0  0  0  0  0  0  0  0  0
   12.0613   24.8914   -0.3842 C   0  0  0  0  0  0  0  0  0  0  0  0
   12.6751   25.6228    0.4259 O   0  0  0  0  0  0  0  0  0  0  0  0
   10.7701   24.3583   -0.0684 N   0  0  0  0  0  0  0  0  0  0  0  0
   12.0032   23.9300   -2.2348 H   0  0  0  0  0  0  0  0  0  0  0  0
   10.3110   23.7667   -0.7743 H   0  0  0  0  0  0  0  0  0  0  0  0
   15.0105   26.2882   -3.8641 C   0  0  0  0  0  0  0  0  0  0  0  0
   16.2029   25.9212   -3.3268 C   0  0  0  0  0  0  0  0  0  0  0  0
   16.2736   25.1078   -2.2161 C   0  0  0  0  0  0  0  0  0  0  0  0
   15.0758   24.6588   -1.6413 C   0  0  0  0  0  0  0  0  0  0  0  0
   13.8623   24.9957   -2.1391 C   0  0  0  0  0  0  0  0  0  0  0  0
   13.8672   25.8267   -3.2710 C   0  0  0  0  0  0  0  0  0  0  0  0
   15.7587   28.2234   -5.2392 O   0  0  0  0  0  0  0  0  0  0  0  0
   14.9026   27.1512   -5.0430 C   0  0  0  0  0  0  0  0  0  0  0  0
   14.0260   26.9424   -5.9144 O   0  0  0  0  0  0  0  0  0  0  0  0
   15.4546   29.1950   -5.0942 H   0  0  0  0  0  0  0  0  0  0  0  0
 32 33  1  0  0  0
 33 34  2  0  0  0
 33 26  1  0  0  0
 26 27  2  0  0  0
 27 28  1  0  0  0
 28 29  2  0  0  0
 29 30  1  0  0  0
 30 20  1  0  0  0
 20 21  1  0  0  0
 21 22  2  0  0  0
 21 23  1  0  0  0
 23 19  1  0  0  0
 19  1  1  0  0  0
  1  2  1  0  0  0
  2  3  1  0  0  0
  3  4  1  0  0  0
  4  5  1  0  0  0
  5  6  1  0  0  0
  6  7  1  0  0  0
  5  8  1  0  0  0
  8  9  2  0  0  0
  9 10  1  0  0  0
 10 11  2  0  0  0
 11 12  1  0  0  0
 12 13  2  0  0  0
 13 14  1  0  0  0
 14 15  1  0  0  0
 14 16  2  0  0  0
 16 17  1  0  0  0
 17 18  2  0  0  0
 30 31  2  0  0  0
 31 26  1  0  0  0
  7  2  1  0  0  0
 18  8  1  0  0  0
 18 12  1  0  0  0
 32 35  1  0  0  0
 20 24  1  0  0  0
 23 25  1  0  0  0
M  END
> <minimizedAffinity>
-8.72733

> <CNNscore>
0.3715834022

> <CNNaffinity>
6.8567733765

> <CNN_VS>
2.5478632450

> <CNNaffinity_variance>
0.0561728254

$$$$
[H]OC(=O)c1c([H])c([H])c([H])c(N([H])C(=O)N([H])C([H])([H])C([H])([H])N2C([H])([H])C([H])([H])N(c3nc([H])c([H])c4c([H])c(Cl)c([H])nc34)C([H])([H])C2([H])[H])c1[H]


 35 38  0  0  0  0  0  0  0  0999 V2000
   11.9317   20.6214    0.0572 C   0  0  0  0  0  0  0  0  0  0  0  0
   13.3484   20.7014    0.2932 N   0  0  0  0  0  0  0  0  0  0  0  0
   14.0331   20.4006   -0.9368 C   0  0  0  0  0  0  0  0  0  0  0  0
   13.9461   21.5237   -1.9494 C   0  0  0  0  0  0  0  0  0  0  0  0
   14.0854   22.7928   -1.2621 N   0  0  0  0  0  0  0  0  0  0  0  0
   14.7212   22.7318    0.0627 C   0  0  0  0  0  0  0  0  0  0  0  0
   13.7884   21.8919    0.9215 C   0  0  0  0  0  0  0  0  0  0  0  0
   13.6429   24.0048   -1.8219 C   0  0  0  0  0  0  0  0  0  0  0  0
   12.6746   24.6933   -1.1934 N   0  0  0  0  0  0  0  0  0  0  0  0
   12.2169   25.8703   -1.7003 C   0  0  0  0  0  0  0  0  0  0  0  0
   12.7194   26.4027   -2.8662 C   0  0  0  0  0  0  0  0  0  0  0  0
   13.7125   25.7145   -3.5275 C   0  0  0  0  0  0  0  0  0  0  0  0
   14.2433   26.2089   -4.6950 C   0  0  0  0  0  0  0  0  0  0  0  0
   15.2314   25.5113   -5.3412 C   0  0  0  0  0  0  0  0  0  0  0  0
   15.9306   26.1144   -6.8337 Cl  0  0  0  0  0  0  0  0  0  0  0  0
   15.6511   24.3250   -4.7754 C   0  0  0  0  0  0  0  0  0  0  0  0
   15.1216   23.8480   -3.6260 N   0  0  0  0  0  0  0  0  0  0  0  0
   14.1594   24.5210   -2.9909 C   0  0  0  0  0  0  0  0  0  0  0  0
   11.0857   20.8722    1.2473 C   0  0  0  0  0  0  0  0  0  0  0  0
    8.9128   23.8256    2.0373 N   0  0  0  0  0  0  0  0  0  0  0  0
    9.8774   22.8171    2.2054 C   0  0  0  0  0  0  0  0  0  0  0  0
   10.5149   22.7189    3.2787 O   0  0  0  0  0  0  0  0  0  0  0  0
   10.1093   21.9103    1.1214 N   0  0  0  0  0  0  0  0  0  0  0  0
    8.4385   23.8083    1.0654 H   0  0  0  0  0  0  0  0  0  0  0  0
    9.5531   22.0363    0.2648 H   0  0  0  0  0  0  0  0  0  0  0  0
    6.7823   25.5626    4.4963 C   0  0  0  0  0  0  0  0  0  0  0  0
    7.5509   26.6363    4.8153 C   0  0  0  0  0  0  0  0  0  0  0  0
    8.7912   26.8299    4.2460 C   0  0  0  0  0  0  0  0  0  0  0  0
    9.2535   25.8856    3.3178 C   0  0  0  0  0  0  0  0  0  0  0  0
    8.5256   24.7992    2.9659 C   0  0  0  0  0  0  0  0  0  0  0  0
    7.2728   24.6668    3.5858 C   0  0  0  0  0  0  0  0  0  0  0  0
    5.0721   24.0726    5.5215 O   0  0  0  0  0  0  0  0  0  0  0  0
    5.4608   25.3291    5.0842 C   0  0  0  0  0  0  0  0  0  0  0  0
    4.6381   26.2666    5.2092 O   0  0  0  0  0  0  0  0  0  0  0  0
    4.4081   23.4941    4.9904 H   0  0  0  0  0  0  0  0  0  0  0  0
 32 33  1  0  0  0
 33 34  2  0  0  0
 33 26  1  0  0  0
 26 27  2  0  0  0
 27 28  1  0  0  0
 28 29  2  0  0  0
 29 30  1  0  0  0
 30 20  1  0  0  0
 20 21  1  0  0  0
 21 22  2  0  0  0
 21 23  1  0  0  0
 23 19  1  0  0  0
 19  1  1  0  0  0
  1  2  1  0  0  0
  2  3  1  0  0  0
  3  4  1  0  0  0
  4  5  1  0  0  0
  5  6  1  0  0  0
  6  7  1  0  0  0
  5  8  1  0  0  0
  8  9  2  0  0  0
  9 10  1  0  0  0
 10 11  2  0  0  0
 11 12  1  0  0  0
 12 13  2  0  0  0
 13 14  1  0  0  0
 14 15  1  0  0  0
 14 16  2  0  0  0
 16 17  1  0  0  0
 17 18  2  0  0  0
 30 31  2  0  0  0
 31 26  1  0  0  0
  7  2  1  0  0  0
 18  8  1  0  0  0
 18 12  1  0  0  0
 32 35  1  0  0  0
 20 24  1  0  0  0
 23 25  1  0  0  0
M  END
> <minimizedAffinity>
-8.72109

> <CNNscore>
0.3670445979

> <CNNaffinity>
6.8550772667

> <CNN_VS>
2.5161190033

> <CNNaffinity_variance>
0.0865966976

$$$$
[H]OC(=O)c1c([H])c([H])c([H])c(N([H])C(=O)N([H])C([H])([H])C([H])([H])N2C([H])([H])C([H])([H])N(c3nc([H])c([H])c4c([H])c(Cl)c([H])nc34)C([H])([H])C2([H])[H])c1[H]


 35 38  0  0  0  0  0  0  0  0999 V2000
   10.9531   22.7208    2.1294 C   0  0  0  0  0  0  0  0  0  0  0  0
   10.5501   22.3984    0.7867 N   0  0  0  0  0  0  0  0  0  0  0  0
   10.1564   23.6144    0.1245 C   0  0  0  0  0  0  0  0  0  0  0  0
   11.3337   24.4958   -0.2376 C   0  0  0  0  0  0  0  0  0  0  0  0
   12.4227   23.6618   -0.7076 N   0  0  0  0  0  0  0  0  0  0  0  0
   12.0410   22.3191   -1.1707 C   0  0  0  0  0  0  0  0  0  0  0  0
   11.4733   21.6150    0.0520 C   0  0  0  0  0  0  0  0  0  0  0  0
   13.7579   24.1040   -0.7214 C   0  0  0  0  0  0  0  0  0  0  0  0
   14.5366   23.8461    0.3434 N   0  0  0  0  0  0  0  0  0  0  0  0
   15.8340   24.2557    0.3718 C   0  0  0  0  0  0  0  0  0  0  0  0
   16.4007   24.9446   -0.6768 C   0  0  0  0  0  0  0  0  0  0  0  0
   15.6216   25.2200   -1.7788 C   0  0  0  0  0  0  0  0  0  0  0  0
   16.1460   25.9053   -2.8485 C   0  0  0  0  0  0  0  0  0  0  0  0
   15.3568   26.1716   -3.9380 C   0  0  0  0  0  0  0  0  0  0  0  0
   15.9952   27.0445   -5.3203 Cl  0  0  0  0  0  0  0  0  0  0  0  0
   14.0503   25.7293   -3.9043 C   0  0  0  0  0  0  0  0  0  0  0  0
   13.5448   25.0558   -2.8462 N   0  0  0  0  0  0  0  0  0  0  0  0
   14.3065   24.7926   -1.7819 C   0  0  0  0  0  0  0  0  0  0  0  0
    9.8430   22.8331    3.1041 C   0  0  0  0  0  0  0  0  0  0  0  0
    8.0125   26.0394    3.7655 N   0  0  0  0  0  0  0  0  0  0  0  0
    8.2690   24.7437    3.2844 C   0  0  0  0  0  0  0  0  0  0  0  0
    7.4024   24.1274    2.6233 O   0  0  0  0  0  0  0  0  0  0  0  0
    9.5416   24.1519    3.5697 N   0  0  0  0  0  0  0  0  0  0  0  0
    8.8360   26.4597    4.3268 H   0  0  0  0  0  0  0  0  0  0  0  0
   10.2162   24.7067    4.1138 H   0  0  0  0  0  0  0  0  0  0  0  0
    5.7301   28.5177    2.2651 C   0  0  0  0  0  0  0  0  0  0  0  0
    4.6506   28.4282    3.0848 C   0  0  0  0  0  0  0  0  0  0  0  0
    4.6252   27.5547    4.1509 C   0  0  0  0  0  0  0  0  0  0  0  0
    5.7494   26.7478    4.3786 C   0  0  0  0  0  0  0  0  0  0  0  0
    6.8499   26.7996    3.5911 C   0  0  0  0  0  0  0  0  0  0  0  0
    6.8049   27.7118    2.5246 C   0  0  0  0  0  0  0  0  0  0  0  0
    5.7771   30.8106    1.2973 O   0  0  0  0  0  0  0  0  0  0  0  0
    5.7872   29.4354    1.1245 C   0  0  0  0  0  0  0  0  0  0  0  0
    5.8474   28.9991   -0.0492 O   0  0  0  0  0  0  0  0  0  0  0  0
    4.9424   31.3771    1.0972 H   0  0  0  0  0  0  0  0  0  0  0  0
 32 33  1  0  0  0
 33 34  2  0  0  0
 33 26  1  0  0  0
 26 27  2  0  0  0
 27 28  1  0  0  0
 28 29  2  0  0  0
 29 30  1  0  0  0
 30 20  1  0  0  0
 20 21  1  0  0  0
 21 22  2  0  0  0
 21 23  1  0  0  0
 23 19  1  0  0  0
 19  1  1  0  0  0
  1  2  1  0  0  0
  2  3  1  0  0  0
  3  4  1  0  0  0
  4  5  1  0  0  0
  5  6  1  0  0  0
  6  7  1  0  0  0
  5  8  1  0  0  0
  8  9  2  0  0  0
  9 10  1  0  0  0
 10 11  2  0  0  0
 11 12  1  0  0  0
 12 13  2  0  0  0
 13 14  1  0  0  0
 14 15  1  0  0  0
 14 16  2  0  0  0
 16 17  1  0  0  0
 17 18  2  0  0  0
 30 31  2  0  0  0
 31 26  1  0  0  0
  7  2  1  0  0  0
 18  8  1  0  0  0
 18 12  1  0  0  0
 32 35  1  0  0  0
 20 24  1  0  0  0
 23 25  1  0  0  0
M  END
> <minimizedAffinity>
-9.58467

> <CNNscore>
0.3615262508

> <CNNaffinity>
6.8243842125

> <CNN_VS>
2.4671940804

> <CNNaffinity_variance>
0.2182769030

$$$$
[H]OC(=O)c1c([H])c([H])c([H])c(N([H])C(=O)N([H])C([H])([H])C([H])([H])N2C([H])([H])C([H])([H])N(c3nc([H])c([H])c4c([H])c(Cl)c([H])nc34)C([H])([H])C2([H])[H])c1[H]


 35 38  0  0  0  0  0  0  0  0999 V2000
   12.1643   20.8340   -0.2003 C   0  0  0  0  0  0  0  0  0  0  0  0
   11.2929   21.8064   -0.8038 N   0  0  0  0  0  0  0  0  0  0  0  0
    9.9582   21.2677   -0.8307 C   0  0  0  0  0  0  0  0  0  0  0  0
    9.3031   21.2479    0.5347 C   0  0  0  0  0  0  0  0  0  0  0  0
    9.6448   22.4670    1.2415 N   0  0  0  0  0  0  0  0  0  0  0  0
   10.0909   23.5867    0.3988 C   0  0  0  0  0  0  0  0  0  0  0  0
   11.3768   23.1111   -0.2594 C   0  0  0  0  0  0  0  0  0  0  0  0
    9.5568   22.5758    2.6410 C   0  0  0  0  0  0  0  0  0  0  0  0
   10.1697   21.6530    3.4023 N   0  0  0  0  0  0  0  0  0  0  0  0
   10.1101   21.7203    4.7601 C   0  0  0  0  0  0  0  0  0  0  0  0
    9.4271   22.7251    5.4077 C   0  0  0  0  0  0  0  0  0  0  0  0
    8.7912   23.6819    4.6479 C   0  0  0  0  0  0  0  0  0  0  0  0
    8.0976   24.7031    5.2522 C   0  0  0  0  0  0  0  0  0  0  0  0
    7.4699   25.6477    4.4812 C   0  0  0  0  0  0  0  0  0  0  0  0
    6.5759   26.9644    5.2210 Cl  0  0  0  0  0  0  0  0  0  0  0  0
    7.5685   25.5227    3.1108 C   0  0  0  0  0  0  0  0  0  0  0  0
    8.2538   24.5136    2.5269 N   0  0  0  0  0  0  0  0  0  0  0  0
    8.8675   23.5901    3.2702 C   0  0  0  0  0  0  0  0  0  0  0  0
   13.3472   20.4666   -1.0132 C   0  0  0  0  0  0  0  0  0  0  0  0
   14.6589   23.3394   -3.0368 N   0  0  0  0  0  0  0  0  0  0  0  0
   14.3853   22.5306   -1.9201 C   0  0  0  0  0  0  0  0  0  0  0  0
   14.7830   22.8639   -0.7805 O   0  0  0  0  0  0  0  0  0  0  0  0
   13.6435   21.3221   -2.1209 N   0  0  0  0  0  0  0  0  0  0  0  0
   14.2688   22.9389   -3.9627 H   0  0  0  0  0  0  0  0  0  0  0  0
   13.3390   21.1012   -3.0787 H   0  0  0  0  0  0  0  0  0  0  0  0
   15.7413   26.6449   -4.2635 C   0  0  0  0  0  0  0  0  0  0  0  0
   16.6431   27.0078   -3.3147 C   0  0  0  0  0  0  0  0  0  0  0  0
   16.9267   26.1926   -2.2400 C   0  0  0  0  0  0  0  0  0  0  0  0
   16.2584   24.9636   -2.1408 C   0  0  0  0  0  0  0  0  0  0  0  0
   15.3515   24.5558   -3.0601 C   0  0  0  0  0  0  0  0  0  0  0  0
   15.1130   25.4371   -4.1269 C   0  0  0  0  0  0  0  0  0  0  0  0
   15.9502   28.7612   -5.5571 O   0  0  0  0  0  0  0  0  0  0  0  0
   15.4183   27.4891   -5.4165 C   0  0  0  0  0  0  0  0  0  0  0  0
   14.6457   27.0812   -6.3154 O   0  0  0  0  0  0  0  0  0  0  0  0
   15.3890   29.6063   -5.3886 H   0  0  0  0  0  0  0  0  0  0  0  0
 32 33  1  0  0  0
 33 34  2  0  0  0
 33 26  1  0  0  0
 26 27  2  0  0  0
 27 28  1  0  0  0
 28 29  2  0  0  0
 29 30  1  0  0  0
 30 20  1  0  0  0
 20 21  1  0  0  0
 21 22  2  0  0  0
 21 23  1  0  0  0
 23 19  1  0  0  0
 19  1  1  0  0  0
  1  2  1  0  0  0
  2  3  1  0  0  0
  3  4  1  0  0  0
  4  5  1  0  0  0
  5  6  1  0  0  0
  6  7  1  0  0  0
  5  8  1  0  0  0
  8  9  2  0  0  0
  9 10  1  0  0  0
 10 11  2  0  0  0
 11 12  1  0  0  0
 12 13  2  0  0  0
 13 14  1  0  0  0
 14 15  1  0  0  0
 14 16  2  0  0  0
 16 17  1  0  0  0
 17 18  2  0  0  0
 30 31  2  0  0  0
 31 26  1  0  0  0
  7  2  1  0  0  0
 18  8  1  0  0  0
 18 12  1  0  0  0
 32 35  1  0  0  0
 20 24  1  0  0  0
 23 25  1  0  0  0
M  END
> <minimizedAffinity>
-10.09966

> <CNNscore>
0.3326879442

> <CNNaffinity>
7.0120873451

> <CNN_VS>
2.3328368664

> <CNNaffinity_variance>
0.1205485910

$$$$
[H]OC(=O)c1c([H])c([H])c([H])c(N([H])C(=O)N([H])C([H])([H])C([H])([H])N2C([H])([H])C([H])([H])N(c3nc([H])c([H])c4c([H])c(Cl)c([H])nc34)C([H])([H])C2([H])[H])c1[H]


 35 38  0  0  0  0  0  0  0  0999 V2000
   12.7921   21.0097    1.0344 C   0  0  0  0  0  0  0  0  0  0  0  0
   14.2141   21.0683    0.8258 N   0  0  0  0  0  0  0  0  0  0  0  0
   14.5023   20.5672   -0.4925 C   0  0  0  0  0  0  0  0  0  0  0  0
   14.1101   21.5351   -1.5895 C   0  0  0  0  0  0  0  0  0  0  0  0
   14.4402   22.8837   -1.1714 N   0  0  0  0  0  0  0  0  0  0  0  0
   15.4427   22.9898   -0.1006 C   0  0  0  0  0  0  0  0  0  0  0  0
   14.8141   22.3190    1.1109 C   0  0  0  0  0  0  0  0  0  0  0  0
   13.8431   24.0185   -1.7493 C   0  0  0  0  0  0  0  0  0  0  0  0
   12.8036   24.5943   -1.1212 N   0  0  0  0  0  0  0  0  0  0  0  0
   12.1965   25.6937   -1.6451 C   0  0  0  0  0  0  0  0  0  0  0  0
   12.6149   26.2591   -2.8285 C   0  0  0  0  0  0  0  0  0  0  0  0
   13.6786   25.6860   -3.4899 C   0  0  0  0  0  0  0  0  0  0  0  0
   14.1298   26.2172   -4.6745 C   0  0  0  0  0  0  0  0  0  0  0  0
   15.1899   25.6344   -5.3204 C   0  0  0  0  0  0  0  0  0  0  0  0
   15.7909   26.2874   -6.8346 Cl  0  0  0  0  0  0  0  0  0  0  0  0
   15.7612   24.5223   -4.7368 C   0  0  0  0  0  0  0  0  0  0  0  0
   15.3089   24.0082   -3.5707 N   0  0  0  0  0  0  0  0  0  0  0  0
   14.2774   24.5695   -2.9357 C   0  0  0  0  0  0  0  0  0  0  0  0
   12.3734   20.3711    2.3040 C   0  0  0  0  0  0  0  0  0  0  0  0
   10.0830   22.4367    4.4384 N   0  0  0  0  0  0  0  0  0  0  0  0
   10.5065   21.5726    3.4138 C   0  0  0  0  0  0  0  0  0  0  0  0
    9.6816   21.0991    2.5993 O   0  0  0  0  0  0  0  0  0  0  0  0
   11.8994   21.2508    3.3278 N   0  0  0  0  0  0  0  0  0  0  0  0
   10.8883   22.7706    5.0786 H   0  0  0  0  0  0  0  0  0  0  0  0
   12.5316   21.6725    4.0218 H   0  0  0  0  0  0  0  0  0  0  0  0
    6.5806   22.3231    5.5887 C   0  0  0  0  0  0  0  0  0  0  0  0
    6.1424   23.5653    5.2568 C   0  0  0  0  0  0  0  0  0  0  0  0
    6.9722   24.4851    4.6523 C   0  0  0  0  0  0  0  0  0  0  0  0
    8.2966   24.1115    4.3816 C   0  0  0  0  0  0  0  0  0  0  0  0
    8.7815   22.8858    4.6921 C   0  0  0  0  0  0  0  0  0  0  0  0
    7.8800   22.0013    5.3058 C   0  0  0  0  0  0  0  0  0  0  0  0
    6.1061   19.9957    6.3329 O   0  0  0  0  0  0  0  0  0  0  0  0
    5.7235   21.3240    6.2318 C   0  0  0  0  0  0  0  0  0  0  0  0
    4.6112   21.6452    6.7126 O   0  0  0  0  0  0  0  0  0  0  0  0
    5.6942   19.2650    5.7379 H   0  0  0  0  0  0  0  0  0  0  0  0
 32 33  1  0  0  0
 33 34  2  0  0  0
 33 26  1  0  0  0
 26 27  2  0  0  0
 27 28  1  0  0  0
 28 29  2  0  0  0
 29 30  1  0  0  0
 30 20  1  0  0  0
 20 21  1  0  0  0
 21 22  2  0  0  0
 21 23  1  0  0  0
 23 19  1  0  0  0
 19  1  1  0  0  0
  1  2  1  0  0  0
  2  3  1  0  0  0
  3  4  1  0  0  0
  4  5  1  0  0  0
  5  6  1  0  0  0
  6  7  1  0  0  0
  5  8  1  0  0  0
  8  9  2  0  0  0
  9 10  1  0  0  0
 10 11  2  0  0  0
 11 12  1  0  0  0
 12 13  2  0  0  0
 13 14  1  0  0  0
 14 15  1  0  0  0
 14 16  2  0  0  0
 16 17  1  0  0  0
 17 18  2  0  0  0
 30 31  2  0  0  0
 31 26  1  0  0  0
  7  2  1  0  0  0
 18  8  1  0  0  0
 18 12  1  0  0  0
 32 35  1  0  0  0
 20 24  1  0  0  0
 23 25  1  0  0  0
M  END
> <minimizedAffinity>
-7.75510

> <CNNscore>
0.3192960620

> <CNNaffinity>
6.8200330734

> <CNN_VS>
2.1776096821

> <CNNaffinity_variance>
0.0435385033

$$$$
[H]OC(=O)c1c([H])c([H])c([H])c(N([H])C(=O)N([H])C([H])([H])C([H])([H])N2C([H])([H])C([H])([H])N(c3nc([H])c([H])c4c([H])c(Cl)c([H])nc34)C([H])([H])C2([H])[H])c1[H]


 35 38  0  0  0  0  0  0  0  0999 V2000
   13.0245   20.9583    0.9579 C   0  0  0  0  0  0  0  0  0  0  0  0
   14.4440   21.1296    0.8005 N   0  0  0  0  0  0  0  0  0  0  0  0
   14.8157   20.6701   -0.5121 C   0  0  0  0  0  0  0  0  0  0  0  0
   14.3873   21.6195   -1.6118 C   0  0  0  0  0  0  0  0  0  0  0  0
   14.5968   22.9838   -1.1678 N   0  0  0  0  0  0  0  0  0  0  0  0
   15.5505   23.1528   -0.0611 C   0  0  0  0  0  0  0  0  0  0  0  0
   14.9346   22.4190    1.1202 C   0  0  0  0  0  0  0  0  0  0  0  0
   13.9335   24.0767   -1.7542 C   0  0  0  0  0  0  0  0  0  0  0  0
   12.8620   24.5950   -1.1299 N   0  0  0  0  0  0  0  0  0  0  0  0
   12.1908   25.6524   -1.6620 C   0  0  0  0  0  0  0  0  0  0  0  0
   12.5747   26.2320   -2.8503 C   0  0  0  0  0  0  0  0  0  0  0  0
   13.6701   25.7175   -3.5079 C   0  0  0  0  0  0  0  0  0  0  0  0
   14.0887   26.2649   -4.6971 C   0  0  0  0  0  0  0  0  0  0  0  0
   15.1812   25.7406   -5.3393 C   0  0  0  0  0  0  0  0  0  0  0  0
   15.7419   26.4159   -6.8591 Cl  0  0  0  0  0  0  0  0  0  0  0  0
   15.8174   24.6690   -4.7473 C   0  0  0  0  0  0  0  0  0  0  0  0
   15.3967   24.1384   -3.5767 N   0  0  0  0  0  0  0  0  0  0  0  0
   14.3341   24.6429   -2.9454 C   0  0  0  0  0  0  0  0  0  0  0  0
   12.2792   22.1961    1.2857 C   0  0  0  0  0  0  0  0  0  0  0  0
    8.7656   21.8329    0.0244 N   0  0  0  0  0  0  0  0  0  0  0  0
    9.9340   21.5747    0.7620 C   0  0  0  0  0  0  0  0  0  0  0  0
    9.9734   20.6280    1.5806 O   0  0  0  0  0  0  0  0  0  0  0  0
   11.0713   22.4196    0.5524 N   0  0  0  0  0  0  0  0  0  0  0  0
    8.8569   22.6803   -0.6417 H   0  0  0  0  0  0  0  0  0  0  0  0
   10.9824   23.1795   -0.1358 H   0  0  0  0  0  0  0  0  0  0  0  0
    5.6315   20.4837    1.4245 C   0  0  0  0  0  0  0  0  0  0  0  0
    5.1464   19.7713    0.3746 C   0  0  0  0  0  0  0  0  0  0  0  0
    5.8188   19.7092   -0.8271 C   0  0  0  0  0  0  0  0  0  0  0  0
    7.0305   20.4045   -0.9497 C   0  0  0  0  0  0  0  0  0  0  0  0
    7.5566   21.1283    0.0669 C   0  0  0  0  0  0  0  0  0  0  0  0
    6.8173   21.1464    1.2605 C   0  0  0  0  0  0  0  0  0  0  0  0
    3.7011   19.9819    2.9136 O   0  0  0  0  0  0  0  0  0  0  0  0
    4.9405   20.5692    2.7135 C   0  0  0  0  0  0  0  0  0  0  0  0
    5.4549   21.1807    3.6793 O   0  0  0  0  0  0  0  0  0  0  0  0
    2.8371   20.5379    2.9569 H   0  0  0  0  0  0  0  0  0  0  0  0
 32 33  1  0  0  0
 33 34  2  0  0  0
 33 26  1  0  0  0
 26 27  2  0  0  0
 27 28  1  0  0  0
 28 29  2  0  0  0
 29 30  1  0  0  0
 30 20  1  0  0  0
 20 21  1  0  0  0
 21 22  2  0  0  0
 21 23  1  0  0  0
 23 19  1  0  0  0
 19  1  1  0  0  0
  1  2  1  0  0  0
  2  3  1  0  0  0
  3  4  1  0  0  0
  4  5  1  0  0  0
  5  6  1  0  0  0
  6  7  1  0  0  0
  5  8  1  0  0  0
  8  9  2  0  0  0
  9 10  1  0  0  0
 10 11  2  0  0  0
 11 12  1  0  0  0
 12 13  2  0  0  0
 13 14  1  0  0  0
 14 15  1  0  0  0
 14 16  2  0  0  0
 16 17  1  0  0  0
 17 18  2  0  0  0
 30 31  2  0  0  0
 31 26  1  0  0  0
  7  2  1  0  0  0
 18  8  1  0  0  0
 18 12  1  0  0  0
 32 35  1  0  0  0
 20 24  1  0  0  0
 23 25  1  0  0  0
M  END
> <minimizedAffinity>
-8.07890

> <CNNscore>
0.3163201511

> <CNNaffinity>
7.2233629227

> <CNN_VS>
2.2848951817

> <CNNaffinity_variance>
0.0592249446

$$$$
[H]OC(=O)c1c([H])c([H])c([H])c(N([H])C(=O)N([H])C([H])([H])C([H])([H])N2C([H])([H])C([H])([H])N(c3nc([H])c([H])c4c([H])c(Cl)c([H])nc34)C([H])([H])C2([H])[H])c1[H]


 35 38  0  0  0  0  0  0  0  0999 V2000
   11.0697   22.6425    1.7661 C   0  0  0  0  0  0  0  0  0  0  0  0
   10.3384   23.6391    1.0306 N   0  0  0  0  0  0  0  0  0  0  0  0
   11.0204   24.8993    1.1688 C   0  0  0  0  0  0  0  0  0  0  0  0
   12.2997   24.9685    0.3609 C   0  0  0  0  0  0  0  0  0  0  0  0
   12.0851   24.3272   -0.9217 N   0  0  0  0  0  0  0  0  0  0  0  0
   10.6815   24.1997   -1.3418 C   0  0  0  0  0  0  0  0  0  0  0  0
   10.0296   23.2946   -0.3079 C   0  0  0  0  0  0  0  0  0  0  0  0
   13.1467   23.8563   -1.7151 C   0  0  0  0  0  0  0  0  0  0  0  0
   13.6221   22.6188   -1.4930 N   0  0  0  0  0  0  0  0  0  0  0  0
   14.6481   22.1237   -2.2372 C   0  0  0  0  0  0  0  0  0  0  0  0
   15.2386   22.8598   -3.2397 C   0  0  0  0  0  0  0  0  0  0  0  0
   14.7679   24.1307   -3.4853 C   0  0  0  0  0  0  0  0  0  0  0  0
   15.3277   24.9010   -4.4764 C   0  0  0  0  0  0  0  0  0  0  0  0
   14.8474   26.1645   -4.7081 C   0  0  0  0  0  0  0  0  0  0  0  0
   15.5396   27.1742   -5.9657 Cl  0  0  0  0  0  0  0  0  0  0  0  0
   13.8058   26.6071   -3.9188 C   0  0  0  0  0  0  0  0  0  0  0  0
   13.2626   25.8404   -2.9463 N   0  0  0  0  0  0  0  0  0  0  0  0
   13.7244   24.6095   -2.7145 C   0  0  0  0  0  0  0  0  0  0  0  0
   10.4447   22.2257    3.0431 C   0  0  0  0  0  0  0  0  0  0  0  0
    7.2392   23.9549    3.9394 N   0  0  0  0  0  0  0  0  0  0  0  0
    8.6195   23.7149    3.8253 C   0  0  0  0  0  0  0  0  0  0  0  0
    9.4480   24.5398    4.2738 O   0  0  0  0  0  0  0  0  0  0  0  0
    9.0494   22.5077    3.1856 N   0  0  0  0  0  0  0  0  0  0  0  0
    6.6303   23.1723    3.5072 H   0  0  0  0  0  0  0  0  0  0  0  0
    8.3239   21.8649    2.8400 H   0  0  0  0  0  0  0  0  0  0  0  0
    5.9597   27.3965    4.2873 C   0  0  0  0  0  0  0  0  0  0  0  0
    5.4340   27.3685    5.5394 C   0  0  0  0  0  0  0  0  0  0  0  0
    5.4723   26.2277    6.3123 C   0  0  0  0  0  0  0  0  0  0  0  0
    6.0722   25.0791    5.7762 C   0  0  0  0  0  0  0  0  0  0  0  0
    6.6109   25.0557    4.5339 C   0  0  0  0  0  0  0  0  0  0  0  0
    6.5355   26.2530    3.8044 C   0  0  0  0  0  0  0  0  0  0  0  0
    4.8167   28.9304    2.6947 O   0  0  0  0  0  0  0  0  0  0  0  0
    5.9342   28.5927    3.4417 C   0  0  0  0  0  0  0  0  0  0  0  0
    6.9304   29.3502    3.3696 O   0  0  0  0  0  0  0  0  0  0  0  0
    4.7831   28.7950    1.6758 H   0  0  0  0  0  0  0  0  0  0  0  0
 32 33  1  0  0  0
 33 34  2  0  0  0
 33 26  1  0  0  0
 26 27  2  0  0  0
 27 28  1  0  0  0
 28 29  2  0  0  0
 29 30  1  0  0  0
 30 20  1  0  0  0
 20 21  1  0  0  0
 21 22  2  0  0  0
 21 23  1  0  0  0
 23 19  1  0  0  0
 19  1  1  0  0  0
  1  2  1  0  0  0
  2  3  1  0  0  0
  3  4  1  0  0  0
  4  5  1  0  0  0
  5  6  1  0  0  0
  6  7  1  0  0  0
  5  8  1  0  0  0
  8  9  2  0  0  0
  9 10  1  0  0  0
 10 11  2  0  0  0
 11 12  1  0  0  0
 12 13  2  0  0  0
 13 14  1  0  0  0
 14 15  1  0  0  0
 14 16  2  0  0  0
 16 17  1  0  0  0
 17 18  2  0  0  0
 30 31  2  0  0  0
 31 26  1  0  0  0
  7  2  1  0  0  0
 18  8  1  0  0  0
 18 12  1  0  0  0
 32 35  1  0  0  0
 20 24  1  0  0  0
 23 25  1  0  0  0
M  END
> <minimizedAffinity>
-9.00813

> <CNNscore>
0.3068939745

> <CNNaffinity>
6.5442872047

> <CNN_VS>
2.0084023476

> <CNNaffinity_variance>
0.2972557843

$$$$
[H]c1c(C([H])([H])[H])noc1C([H])([H])N1C([H])([H])C([H])([H])N(c2nc(N([H])[H])nc3c2nc([H])n3-c2c([H])c([H])c(Cl)c([H])c2[H])C([H])([H])C1([H])[H]


 32 36  0  0  0  0  0  0  0  0999 V2000
   13.0891   25.1832   -2.7746 C   0  0  0  0  0  0  0  0  0  0  0  0
   11.7589   25.3361   -2.7275 N   0  0  0  0  0  0  0  0  0  0  0  0
   10.9957   24.6039   -1.8605 C   0  0  0  0  0  0  0  0  0  0  0  0
    9.5978   24.8149   -1.8629 N   0  0  0  0  0  0  0  0  0  0  0  0
   11.6287   23.7344   -1.0665 N   0  0  0  0  0  0  0  0  0  0  0  0
   12.9564   23.5331   -1.0634 C   0  0  0  0  0  0  0  0  0  0  0  0
   13.7514   22.7225   -0.3542 N   0  0  0  0  0  0  0  0  0  0  0  0
   15.0035   22.9558   -0.7852 C   0  0  0  0  0  0  0  0  0  0  0  0
   14.9822   23.8948   -1.7445 N   0  0  0  0  0  0  0  0  0  0  0  0
   13.7137   24.2817   -1.9466 C   0  0  0  0  0  0  0  0  0  0  0  0
    9.0011   24.3487   -2.5741 H   0  0  0  0  0  0  0  0  0  0  0  0
    9.1806   25.4379   -1.1493 H   0  0  0  0  0  0  0  0  0  0  0  0
   13.3719   21.7815    0.6717 C   0  0  0  0  0  0  0  0  0  0  0  0
   14.1477   20.6948    0.9886 C   0  0  0  0  0  0  0  0  0  0  0  0
   13.6977   19.8501    1.9914 C   0  0  0  0  0  0  0  0  0  0  0  0
   12.5148   20.0609    2.6716 C   0  0  0  0  0  0  0  0  0  0  0  0
   11.9813   18.9655    3.9376 Cl  0  0  0  0  0  0  0  0  0  0  0  0
   11.7411   21.1695    2.3356 C   0  0  0  0  0  0  0  0  0  0  0  0
   12.1906   22.0066    1.3392 C   0  0  0  0  0  0  0  0  0  0  0  0
   14.8550   27.4807   -5.7291 N   0  0  0  0  0  0  0  0  0  0  0  0
   14.0169   26.3630   -5.9997 C   0  0  0  0  0  0  0  0  0  0  0  0
   14.2607   25.3206   -4.9318 C   0  0  0  0  0  0  0  0  0  0  0  0
   13.8811   25.9386   -3.6724 N   0  0  0  0  0  0  0  0  0  0  0  0
   14.2865   27.2616   -3.3363 C   0  0  0  0  0  0  0  0  0  0  0  0
   14.5515   28.1489   -4.5225 C   0  0  0  0  0  0  0  0  0  0  0  0
   16.2255   27.2832   -6.0538 C   0  0  0  0  0  0  0  0  0  0  0  0
   20.3154   28.2151   -3.1684 C   0  0  0  0  0  0  0  0  0  0  0  0
   18.9408   27.8478   -3.6268 C   0  0  0  0  0  0  0  0  0  0  0  0
   18.4796   27.8467   -4.9413 C   0  0  0  0  0  0  0  0  0  0  0  0
   17.1617   27.4463   -4.9173 C   0  0  0  0  0  0  0  0  0  0  0  0
   16.8681   27.2252   -3.6537 O   0  0  0  0  0  0  0  0  0  0  0  0
   17.8841   27.4520   -2.8934 N   0  0  0  0  0  0  0  0  0  0  0  0
 27 28  1  0  0  0
 28 29  1  0  0  0
 29 30  2  0  0  0
 30 26  1  0  0  0
 26 20  1  0  0  0
 20 21  1  0  0  0
 21 22  1  0  0  0
 22 23  1  0  0  0
 23 24  1  0  0  0
 24 25  1  0  0  0
 23  1  1  0  0  0
  1  2  2  0  0  0
  2  3  1  0  0  0
  3  4  1  0  0  0
  3  5  2  0  0  0
  5  6  1  0  0  0
  6  7  1  0  0  0
  7  8  1  0  0  0
  8  9  2  0  0  0
  9 10  1  0  0  0
  7 13  1  0  0  0
 13 14  2  0  0  0
 14 15  1  0  0  0
 15 16  2  0  0  0
 16 17  1  0  0  0
 16 18  1  0  0  0
 18 19  2  0  0  0
 30 31  1  0  0  0
 31 32  1  0  0  0
 32 28  2  0  0  0
 25 20  1  0  0  0
 10  1  1  0  0  0
 19 13  1  0  0  0
 10  6  2  0  0  0
  4 11  1  0  0  0
  4 12  1  0  0  0
M  END
> <minimizedAffinity>
6.95777

> <CNNscore>
0.4020010531

> <CNNaffinity>
7.2883849144

> <CNN_VS>
2.9299383163

> <CNNaffinity_variance>
1.4675371647

$$$$
[H]c1c(C([H])([H])[H])noc1C([H])([H])N1C([H])([H])C([H])([H])N(c2nc(N([H])[H])nc3c2nc([H])n3-c2c([H])c([H])c(Cl)c([H])c2[H])C([H])([H])C1([H])[H]


 32 36  0  0  0  0  0  0  0  0999 V2000
   12.1448   23.0476   -0.6330 C   0  0  0  0  0  0  0  0  0  0  0  0
   12.0839   24.0600   -1.5083 N   0  0  0  0  0  0  0  0  0  0  0  0
   13.1872   24.8191   -1.7856 C   0  0  0  0  0  0  0  0  0  0  0  0
   13.0531   25.8722   -2.7191 N   0  0  0  0  0  0  0  0  0  0  0  0
   14.3223   24.5103   -1.1505 N   0  0  0  0  0  0  0  0  0  0  0  0
   14.4509   23.5104   -0.2635 C   0  0  0  0  0  0  0  0  0  0  0  0
   15.4861   23.0614    0.4568 N   0  0  0  0  0  0  0  0  0  0  0  0
   15.0195   22.0265    1.1774 C   0  0  0  0  0  0  0  0  0  0  0  0
   13.7179   21.8393    0.9065 N   0  0  0  0  0  0  0  0  0  0  0  0
   13.3252   22.7525    0.0057 C   0  0  0  0  0  0  0  0  0  0  0  0
   12.6618   26.7871   -2.4208 H   0  0  0  0  0  0  0  0  0  0  0  0
   13.3488   25.7181   -3.6991 H   0  0  0  0  0  0  0  0  0  0  0  0
   16.8388   23.5632    0.4756 C   0  0  0  0  0  0  0  0  0  0  0  0
   17.4414   24.0797   -0.6440 C   0  0  0  0  0  0  0  0  0  0  0  0
   18.7438   24.5389   -0.5230 C   0  0  0  0  0  0  0  0  0  0  0  0
   19.4444   24.4955    0.6659 C   0  0  0  0  0  0  0  0  0  0  0  0
   21.0943   25.0896    0.7762 Cl  0  0  0  0  0  0  0  0  0  0  0  0
   18.8156   23.9677    1.7914 C   0  0  0  0  0  0  0  0  0  0  0  0
   17.5222   23.5123    1.6682 C   0  0  0  0  0  0  0  0  0  0  0  0
    8.8989   20.9366    0.8278 N   0  0  0  0  0  0  0  0  0  0  0  0
   10.2022   20.8630    1.3940 C   0  0  0  0  0  0  0  0  0  0  0  0
   11.2107   20.9608    0.2716 C   0  0  0  0  0  0  0  0  0  0  0  0
   11.0038   22.2615   -0.3429 N   0  0  0  0  0  0  0  0  0  0  0  0
    9.7001   22.7440   -0.6513 C   0  0  0  0  0  0  0  0  0  0  0  0
    8.6076   22.1740    0.2125 C   0  0  0  0  0  0  0  0  0  0  0  0
    8.4732   19.7498    0.1698 C   0  0  0  0  0  0  0  0  0  0  0  0
    5.3125   19.9852   -3.8147 C   0  0  0  0  0  0  0  0  0  0  0  0
    5.8768   20.0261   -2.4310 C   0  0  0  0  0  0  0  0  0  0  0  0
    7.1966   19.7682   -2.0677 C   0  0  0  0  0  0  0  0  0  0  0  0
    7.2861   19.9153   -0.7009 C   0  0  0  0  0  0  0  0  0  0  0  0
    6.0803   20.2421   -0.2871 O   0  0  0  0  0  0  0  0  0  0  0  0
    5.2528   20.3109   -1.2731 N   0  0  0  0  0  0  0  0  0  0  0  0
 27 28  1  0  0  0
 28 29  1  0  0  0
 29 30  2  0  0  0
 30 26  1  0  0  0
 26 20  1  0  0  0
 20 21  1  0  0  0
 21 22  1  0  0  0
 22 23  1  0  0  0
 23 24  1  0  0  0
 24 25  1  0  0  0
 23  1  1  0  0  0
  1  2  2  0  0  0
  2  3  1  0  0  0
  3  4  1  0  0  0
  3  5  2  0  0  0
  5  6  1  0  0  0
  6  7  1  0  0  0
  7  8  1  0  0  0
  8  9  2  0  0  0
  9 10  1  0  0  0
  7 13  1  0  0  0
 13 14  2  0  0  0
 14 15  1  0  0  0
 15 16  2  0  0  0
 16 17  1  0  0  0
 16 18  1  0  0  0
 18 19  2  0  0  0
 30 31  1  0  0  0
 31 32  1  0  0  0
 32 28  2  0  0  0
 25 20  1  0  0  0
 10  1  1  0  0  0
 19 13  1  0  0  0
 10  6  2  0  0  0
  4 11  1  0  0  0
  4 12  1  0  0  0
M  END
> <minimizedAffinity>
8.84603

> <CNNscore>
0.3873604238

> <CNNaffinity>
6.8302488327

> <CNN_VS>
2.6457681656

> <CNNaffinity_variance>
1.1454554796

$$$$
[H]c1c(C([H])([H])[H])noc1C([H])([H])N1C([H])([H])C([H])([H])N(c2nc(N([H])[H])nc3c2nc([H])n3-c2c([H])c([H])c(Cl)c([H])c2[H])C([H])([H])C1([H])[H]


 32 36  0  0  0  0  0  0  0  0999 V2000
   14.0435   25.2266   -1.9793 C   0  0  0  0  0  0  0  0  0  0  0  0
   12.8432   25.7731   -1.7437 N   0  0  0  0  0  0  0  0  0  0  0  0
   11.9268   25.1443   -0.9466 C   0  0  0  0  0  0  0  0  0  0  0  0
   10.6793   25.7764   -0.7401 N   0  0  0  0  0  0  0  0  0  0  0  0
   12.2770   23.9686   -0.4154 N   0  0  0  0  0  0  0  0  0  0  0  0
   13.4616   23.3671   -0.6110 C   0  0  0  0  0  0  0  0  0  0  0  0
   13.9794   22.2139   -0.1707 N   0  0  0  0  0  0  0  0  0  0  0  0
   15.2140   22.1331   -0.6973 C   0  0  0  0  0  0  0  0  0  0  0  0
   15.4547   23.2184   -1.4501 N   0  0  0  0  0  0  0  0  0  0  0  0
   14.3769   24.0165   -1.4201 C   0  0  0  0  0  0  0  0  0  0  0  0
    9.9259   25.6882   -1.4498 H   0  0  0  0  0  0  0  0  0  0  0  0
   10.5294   26.3258    0.1244 H   0  0  0  0  0  0  0  0  0  0  0  0
   13.3639   21.2374    0.6950 C   0  0  0  0  0  0  0  0  0  0  0  0
   12.6391   20.1804    0.2040 C   0  0  0  0  0  0  0  0  0  0  0  0
   12.0889   19.2946    1.1175 C   0  0  0  0  0  0  0  0  0  0  0  0
   12.2425   19.4365    2.4822 C   0  0  0  0  0  0  0  0  0  0  0  0
   11.5290   18.2896    3.6060 Cl  0  0  0  0  0  0  0  0  0  0  0  0
   12.9817   20.5157    2.9612 C   0  0  0  0  0  0  0  0  0  0  0  0
   13.5268   21.3939    2.0517 C   0  0  0  0  0  0  0  0  0  0  0  0
   16.5919   27.6701   -4.1383 N   0  0  0  0  0  0  0  0  0  0  0  0
   15.1855   27.8729   -4.0644 C   0  0  0  0  0  0  0  0  0  0  0  0
   14.5150   26.5184   -4.0175 C   0  0  0  0  0  0  0  0  0  0  0  0
   14.9930   25.8746   -2.8054 N   0  0  0  0  0  0  0  0  0  0  0  0
   16.3710   25.8852   -2.4466 C   0  0  0  0  0  0  0  0  0  0  0  0
   17.1454   27.0532   -2.9948 C   0  0  0  0  0  0  0  0  0  0  0  0
   17.0616   27.2508   -5.4135 C   0  0  0  0  0  0  0  0  0  0  0  0
   14.1419   24.2253   -8.2847 C   0  0  0  0  0  0  0  0  0  0  0  0
   14.7161   25.4137   -7.5829 C   0  0  0  0  0  0  0  0  0  0  0  0
   15.8331   25.4233   -6.7506 C   0  0  0  0  0  0  0  0  0  0  0  0
   16.0143   26.7178   -6.3157 C   0  0  0  0  0  0  0  0  0  0  0  0
   15.0523   27.4279   -6.8655 O   0  0  0  0  0  0  0  0  0  0  0  0
   14.2924   26.6910   -7.6012 N   0  0  0  0  0  0  0  0  0  0  0  0
 27 28  1  0  0  0
 28 29  1  0  0  0
 29 30  2  0  0  0
 30 26  1  0  0  0
 26 20  1  0  0  0
 20 21  1  0  0  0
 21 22  1  0  0  0
 22 23  1  0  0  0
 23 24  1  0  0  0
 24 25  1  0  0  0
 23  1  1  0  0  0
  1  2  2  0  0  0
  2  3  1  0  0  0
  3  4  1  0  0  0
  3  5  2  0  0  0
  5  6  1  0  0  0
  6  7  1  0  0  0
  7  8  1  0  0  0
  8  9  2  0  0  0
  9 10  1  0  0  0
  7 13  1  0  0  0
 13 14  2  0  0  0
 14 15  1  0  0  0
 15 16  2  0  0  0
 16 17  1  0  0  0
 16 18  1  0  0  0
 18 19  2  0  0  0
 30 31  1  0  0  0
 31 32  1  0  0  0
 32 28  2  0  0  0
 25 20  1  0  0  0
 10  1  1  0  0  0
 19 13  1  0  0  0
 10  6  2  0  0  0
  4 11  1  0  0  0
  4 12  1  0  0  0
M  END
> <minimizedAffinity>
12.09225

> <CNNscore>
0.3829177320

> <CNNaffinity>
7.1265134811

> <CNN_VS>
2.7288684845

> <CNNaffinity_variance>
0.9564744830

$$$$
[H]c1c(C([H])([H])[H])noc1C([H])([H])N1C([H])([H])C([H])([H])N(c2nc(N([H])[H])nc3c2nc([H])n3-c2c([H])c([H])c(Cl)c([H])c2[H])C([H])([H])C1([H])[H]


 32 36  0  0  0  0  0  0  0  0999 V2000
   11.9820   23.5800    1.0320 C   0  0  0  0  0  0  0  0  0  0  0  0
   12.0215   24.8301    1.5121 N   0  0  0  0  0  0  0  0  0  0  0  0
   12.5467   25.8530    0.7717 C   0  0  0  0  0  0  0  0  0  0  0  0
   12.5576   27.1479    1.3388 N   0  0  0  0  0  0  0  0  0  0  0  0
   13.0162   25.5550   -0.4441 N   0  0  0  0  0  0  0  0  0  0  0  0
   13.0065   24.3254   -0.9837 C   0  0  0  0  0  0  0  0  0  0  0  0
   13.4235   23.8464   -2.1621 N   0  0  0  0  0  0  0  0  0  0  0  0
   13.1551   22.5289   -2.1464 C   0  0  0  0  0  0  0  0  0  0  0  0
   12.5819   22.1998   -0.9779 N   0  0  0  0  0  0  0  0  0  0  0  0
   12.4719   23.3021   -0.2214 C   0  0  0  0  0  0  0  0  0  0  0  0
   13.3080   27.4199    2.0037 H   0  0  0  0  0  0  0  0  0  0  0  0
   11.8102   27.8167    1.0829 H   0  0  0  0  0  0  0  0  0  0  0  0
   14.0371   24.5714   -3.2483 C   0  0  0  0  0  0  0  0  0  0  0  0
   13.5449   25.7722   -3.6945 C   0  0  0  0  0  0  0  0  0  0  0  0
   14.2070   26.3924   -4.7428 C   0  0  0  0  0  0  0  0  0  0  0  0
   15.3265   25.8524   -5.3438 C   0  0  0  0  0  0  0  0  0  0  0  0
   16.1367   26.6724   -6.6700 Cl  0  0  0  0  0  0  0  0  0  0  0  0
   15.8111   24.6327   -4.8768 C   0  0  0  0  0  0  0  0  0  0  0  0
   15.1514   24.0191   -3.8357 C   0  0  0  0  0  0  0  0  0  0  0  0
   10.7614   20.0931    2.8969 N   0  0  0  0  0  0  0  0  0  0  0  0
   10.7482   20.2744    1.4857 C   0  0  0  0  0  0  0  0  0  0  0  0
   10.3887   21.7147    1.1981 C   0  0  0  0  0  0  0  0  0  0  0  0
   11.4404   22.5192    1.7971 N   0  0  0  0  0  0  0  0  0  0  0  0
   11.9212   22.2621    3.1126 C   0  0  0  0  0  0  0  0  0  0  0  0
   11.7610   20.8354    3.5634 C   0  0  0  0  0  0  0  0  0  0  0  0
    9.4730   20.0250    3.4953 C   0  0  0  0  0  0  0  0  0  0  0  0
    7.9726   24.4921    5.4229 C   0  0  0  0  0  0  0  0  0  0  0  0
    8.1448   23.3017    4.5354 C   0  0  0  0  0  0  0  0  0  0  0  0
    8.9557   22.1962    4.7818 C   0  0  0  0  0  0  0  0  0  0  0  0
    8.8205   21.3371    3.7135 C   0  0  0  0  0  0  0  0  0  0  0  0
    7.9742   21.9115    2.8853 O   0  0  0  0  0  0  0  0  0  0  0  0
    7.5731   23.0476    3.3438 N   0  0  0  0  0  0  0  0  0  0  0  0
 27 28  1  0  0  0
 28 29  1  0  0  0
 29 30  2  0  0  0
 30 26  1  0  0  0
 26 20  1  0  0  0
 20 21  1  0  0  0
 21 22  1  0  0  0
 22 23  1  0  0  0
 23 24  1  0  0  0
 24 25  1  0  0  0
 23  1  1  0  0  0
  1  2  2  0  0  0
  2  3  1  0  0  0
  3  4  1  0  0  0
  3  5  2  0  0  0
  5  6  1  0  0  0
  6  7  1  0  0  0
  7  8  1  0  0  0
  8  9  2  0  0  0
  9 10  1  0  0  0
  7 13  1  0  0  0
 13 14  2  0  0  0
 14 15  1  0  0  0
 15 16  2  0  0  0
 16 17  1  0  0  0
 16 18  1  0  0  0
 18 19  2  0  0  0
 30 31  1  0  0  0
 31 32  1  0  0  0
 32 28  2  0  0  0
 25 20  1  0  0  0
 10  1  1  0  0  0
 19 13  1  0  0  0
 10  6  2  0  0  0
  4 11  1  0  0  0
  4 12  1  0  0  0
M  END
> <minimizedAffinity>
-1.86814

> <CNNscore>
0.3034515083

> <CNNaffinity>
6.6536951065

> <CNN_VS>
2.0190737247

> <CNNaffinity_variance>
0.5482981205

$$$$
[H]c1c(C([H])([H])[H])noc1C([H])([H])N1C([H])([H])C([H])([H])N(c2nc(N([H])[H])nc3c2nc([H])n3-c2c([H])c([H])c(Cl)c([H])c2[H])C([H])([H])C1([H])[H]


 32 36  0  0  0  0  0  0  0  0999 V2000
   12.4275   22.5446    0.8908 C   0  0  0  0  0  0  0  0  0  0  0  0
   13.4627   21.6959    0.8367 N   0  0  0  0  0  0  0  0  0  0  0  0
   14.4411   21.8371   -0.1083 C   0  0  0  0  0  0  0  0  0  0  0  0
   15.5051   20.9063   -0.1091 N   0  0  0  0  0  0  0  0  0  0  0  0
   14.3221   22.8517   -0.9707 N   0  0  0  0  0  0  0  0  0  0  0  0
   13.3119   23.7363   -0.9710 C   0  0  0  0  0  0  0  0  0  0  0  0
   13.0307   24.7951   -1.7404 N   0  0  0  0  0  0  0  0  0  0  0  0
   11.8793   25.3048   -1.2690 C   0  0  0  0  0  0  0  0  0  0  0  0
   11.4564   24.5731   -0.2257 N   0  0  0  0  0  0  0  0  0  0  0  0
   12.3305   23.5790   -0.0086 C   0  0  0  0  0  0  0  0  0  0  0  0
   15.3864   19.9786   -0.5612 H   0  0  0  0  0  0  0  0  0  0  0  0
   16.3991   21.1620    0.3458 H   0  0  0  0  0  0  0  0  0  0  0  0
   13.7902   25.3101   -2.8539 C   0  0  0  0  0  0  0  0  0  0  0  0
   13.2947   26.2797   -3.6893 C   0  0  0  0  0  0  0  0  0  0  0  0
   14.1029   26.7106   -4.7299 C   0  0  0  0  0  0  0  0  0  0  0  0
   15.3689   26.2062   -4.9513 C   0  0  0  0  0  0  0  0  0  0  0  0
   16.3615   26.7815   -6.2823 Cl  0  0  0  0  0  0  0  0  0  0  0  0
   15.8544   25.2227   -4.0926 C   0  0  0  0  0  0  0  0  0  0  0  0
   15.0494   24.7966   -3.0601 C   0  0  0  0  0  0  0  0  0  0  0  0
    9.8992   21.7800    4.0766 N   0  0  0  0  0  0  0  0  0  0  0  0
   10.6478   20.7708    3.4089 C   0  0  0  0  0  0  0  0  0  0  0  0
   10.7152   21.1266    1.9407 C   0  0  0  0  0  0  0  0  0  0  0  0
   11.4126   22.3995    1.8669 N   0  0  0  0  0  0  0  0  0  0  0  0
   11.0955   23.4777    2.7413 C   0  0  0  0  0  0  0  0  0  0  0  0
   10.5083   23.0541    4.0605 C   0  0  0  0  0  0  0  0  0  0  0  0
    8.4947   21.7113    3.8638 C   0  0  0  0  0  0  0  0  0  0  0  0
    5.5028   25.5543    5.3475 C   0  0  0  0  0  0  0  0  0  0  0  0
    6.4839   24.7112    4.5986 C   0  0  0  0  0  0  0  0  0  0  0  0
    6.8681   23.4101    4.9149 C   0  0  0  0  0  0  0  0  0  0  0  0
    7.7871   23.0085    3.9706 C   0  0  0  0  0  0  0  0  0  0  0  0
    7.9326   24.0231    3.1451 O   0  0  0  0  0  0  0  0  0  0  0  0
    7.1872   25.0159    3.4923 N   0  0  0  0  0  0  0  0  0  0  0  0
 27 28  1  0  0  0
 28 29  1  0  0  0
 29 30  2  0  0  0
 30 26  1  0  0  0
 26 20  1  0  0  0
 20 21  1  0  0  0
 21 22  1  0  0  0
 22 23  1  0  0  0
 23 24  1  0  0  0
 24 25  1  0  0  0
 23  1  1  0  0  0
  1  2  2  0  0  0
  2  3  1  0  0  0
  3  4  1  0  0  0
  3  5  2  0  0  0
  5  6  1  0  0  0
  6  7  1  0  0  0
  7  8  1  0  0  0
  8  9  2  0  0  0
  9 10  1  0  0  0
  7 13  1  0  0  0
 13 14  2  0  0  0
 14 15  1  0  0  0
 15 16  2  0  0  0
 16 17  1  0  0  0
 16 18  1  0  0  0
 18 19  2  0  0  0
 30 31  1  0  0  0
 31 32  1  0  0  0
 32 28  2  0  0  0
 25 20  1  0  0  0
 10  1  1  0  0  0
 19 13  1  0  0  0
 10  6  2  0  0  0
  4 11  1  0  0  0
  4 12  1  0  0  0
M  END
> <minimizedAffinity>
-6.60102

> <CNNscore>
0.2829232216

> <CNNaffinity>
6.8264312744

> <CNN_VS>
1.9313559532

> <CNNaffinity_variance>
0.4237810969

$$$$
[H]c1c(C([H])([H])[H])noc1C([H])([H])N1C([H])([H])C([H])([H])N(c2nc(N([H])[H])nc3c2nc([H])n3-c2c([H])c([H])c(Cl)c([H])c2[H])C([H])([H])C1([H])[H]


 32 36  0  0  0  0  0  0  0  0999 V2000
   13.5032   23.4163   -2.0316 C   0  0  0  0  0  0  0  0  0  0  0  0
   13.9013   22.3518   -2.7409 N   0  0  0  0  0  0  0  0  0  0  0  0
   14.5539   22.5034   -3.9331 C   0  0  0  0  0  0  0  0  0  0  0  0
   14.9460   21.3377   -4.6304 N   0  0  0  0  0  0  0  0  0  0  0  0
   14.7768   23.7510   -4.3586 N   0  0  0  0  0  0  0  0  0  0  0  0
   14.4048   24.8590   -3.6973 C   0  0  0  0  0  0  0  0  0  0  0  0
   14.5394   26.1642   -3.9622 N   0  0  0  0  0  0  0  0  0  0  0  0
   13.9692   26.8154   -2.9332 C   0  0  0  0  0  0  0  0  0  0  0  0
   13.4906   25.9271   -2.0475 N   0  0  0  0  0  0  0  0  0  0  0  0
   13.7455   24.6878   -2.4931 C   0  0  0  0  0  0  0  0  0  0  0  0
   14.2604   20.8281   -5.2215 H   0  0  0  0  0  0  0  0  0  0  0  0
   15.9211   21.0018   -4.5428 H   0  0  0  0  0  0  0  0  0  0  0  0
   15.1656   26.7777   -5.1082 C   0  0  0  0  0  0  0  0  0  0  0  0
   15.0477   28.1190   -5.3737 C   0  0  0  0  0  0  0  0  0  0  0  0
   15.6892   28.6136   -6.4988 C   0  0  0  0  0  0  0  0  0  0  0  0
   16.4307   27.8164   -7.3477 C   0  0  0  0  0  0  0  0  0  0  0  0
   17.2291   28.4843   -8.7633 Cl  0  0  0  0  0  0  0  0  0  0  0  0
   16.5387   26.4574   -7.0614 C   0  0  0  0  0  0  0  0  0  0  0  0
   15.9005   25.9689   -5.9435 C   0  0  0  0  0  0  0  0  0  0  0  0
   12.1098   23.0103    1.8440 N   0  0  0  0  0  0  0  0  0  0  0  0
   13.1818   22.2414    1.3107 C   0  0  0  0  0  0  0  0  0  0  0  0
   12.8852   21.9645   -0.1460 C   0  0  0  0  0  0  0  0  0  0  0  0
   12.8260   23.2620   -0.7981 N   0  0  0  0  0  0  0  0  0  0  0  0
   12.1118   24.3538   -0.2276 C   0  0  0  0  0  0  0  0  0  0  0  0
   11.9816   24.2945    1.2704 C   0  0  0  0  0  0  0  0  0  0  0  0
   10.9206   22.2714    2.0939 C   0  0  0  0  0  0  0  0  0  0  0  0
   11.8585   18.4941    5.3762 C   0  0  0  0  0  0  0  0  0  0  0  0
   11.5423   19.2678    4.1369 C   0  0  0  0  0  0  0  0  0  0  0  0
   11.4391   20.6528    4.0298 C   0  0  0  0  0  0  0  0  0  0  0  0
   11.1343   20.9452    2.7186 C   0  0  0  0  0  0  0  0  0  0  0  0
   11.0628   19.7901    2.0920 O   0  0  0  0  0  0  0  0  0  0  0  0
   11.2958   18.8096    2.8957 N   0  0  0  0  0  0  0  0  0  0  0  0
 27 28  1  0  0  0
 28 29  1  0  0  0
 29 30  2  0  0  0
 30 26  1  0  0  0
 26 20  1  0  0  0
 20 21  1  0  0  0
 21 22  1  0  0  0
 22 23  1  0  0  0
 23 24  1  0  0  0
 24 25  1  0  0  0
 23  1  1  0  0  0
  1  2  2  0  0  0
  2  3  1  0  0  0
  3  4  1  0  0  0
  3  5  2  0  0  0
  5  6  1  0  0  0
  6  7  1  0  0  0
  7  8  1  0  0  0
  8  9  2  0  0  0
  9 10  1  0  0  0
  7 13  1  0  0  0
 13 14  2  0  0  0
 14 15  1  0  0  0
 15 16  2  0  0  0
 16 17  1  0  0  0
 16 18  1  0  0  0
 18 19  2  0  0  0
 30 31  1  0  0  0
 31 32  1  0  0  0
 32 28  2  0  0  0
 25 20  1  0  0  0
 10  1  1  0  0  0
 19 13  1  0  0  0
 10  6  2  0  0  0
  4 11  1  0  0  0
  4 12  1  0  0  0
M  END
> <minimizedAffinity>
7.70093

> <CNNscore>
0.2710313201

> <CNNaffinity>
6.6261124611

> <CNN_VS>
1.7958840132

> <CNNaffinity_variance>
0.1615031660

$$$$
[H]c1c(C([H])([H])[H])noc1C([H])([H])N1C([H])([H])C([H])([H])N(c2nc(N([H])[H])nc3c2nc([H])n3-c2c([H])c([H])c(Cl)c([H])c2[H])C([H])([H])C1([H])[H]


 32 36  0  0  0  0  0  0  0  0999 V2000
   10.4005   23.2221    0.6407 C   0  0  0  0  0  0  0  0  0  0  0  0
    9.9479   22.2514   -0.1641 N   0  0  0  0  0  0  0  0  0  0  0  0
   10.4108   22.1248   -1.4448 C   0  0  0  0  0  0  0  0  0  0  0  0
    9.8905   21.0784   -2.2403 N   0  0  0  0  0  0  0  0  0  0  0  0
   11.3284   23.0051   -1.8575 N   0  0  0  0  0  0  0  0  0  0  0  0
   11.8232   23.9996   -1.1029 C   0  0  0  0  0  0  0  0  0  0  0  0
   12.7279   24.9573   -1.3402 N   0  0  0  0  0  0  0  0  0  0  0  0
   12.8212   25.6730   -0.2058 C   0  0  0  0  0  0  0  0  0  0  0  0
   11.9882   25.1658    0.7168 N   0  0  0  0  0  0  0  0  0  0  0  0
   11.3442   24.1136    0.1900 C   0  0  0  0  0  0  0  0  0  0  0  0
    8.9776   21.1939   -2.7223 H   0  0  0  0  0  0  0  0  0  0  0  0
   10.4303   20.2001   -2.3340 H   0  0  0  0  0  0  0  0  0  0  0  0
   13.4699   25.1965   -2.5544 C   0  0  0  0  0  0  0  0  0  0  0  0
   14.4921   24.3750   -2.9590 C   0  0  0  0  0  0  0  0  0  0  0  0
   15.1427   24.6882   -4.1425 C   0  0  0  0  0  0  0  0  0  0  0  0
   14.8032   25.7804   -4.9158 C   0  0  0  0  0  0  0  0  0  0  0  0
   15.6533   26.1410   -6.4107 Cl  0  0  0  0  0  0  0  0  0  0  0  0
   13.7628   26.6023   -4.4884 C   0  0  0  0  0  0  0  0  0  0  0  0
   13.1186   26.2889   -3.3127 C   0  0  0  0  0  0  0  0  0  0  0  0
    8.4726   23.3075    4.3016 N   0  0  0  0  0  0  0  0  0  0  0  0
    7.8669   23.7305    3.0854 C   0  0  0  0  0  0  0  0  0  0  0  0
    8.9295   24.3845    2.2313 C   0  0  0  0  0  0  0  0  0  0  0  0
    9.9217   23.3563    1.9660 N   0  0  0  0  0  0  0  0  0  0  0  0
   10.4083   22.5030    2.9969 C   0  0  0  0  0  0  0  0  0  0  0  0
    9.4489   22.3002    4.1384 C   0  0  0  0  0  0  0  0  0  0  0  0
    8.7469   24.3575    5.2208 C   0  0  0  0  0  0  0  0  0  0  0  0
    5.5871   28.2567    4.3643 C   0  0  0  0  0  0  0  0  0  0  0  0
    6.8070   27.3987    4.4660 C   0  0  0  0  0  0  0  0  0  0  0  0
    6.8580   26.0835    4.9220 C   0  0  0  0  0  0  0  0  0  0  0  0
    8.1706   25.6713    4.8515 C   0  0  0  0  0  0  0  0  0  0  0  0
    8.8514   26.6936    4.3787 O   0  0  0  0  0  0  0  0  0  0  0  0
    8.0799   27.7006    4.1500 N   0  0  0  0  0  0  0  0  0  0  0  0
 27 28  1  0  0  0
 28 29  1  0  0  0
 29 30  2  0  0  0
 30 26  1  0  0  0
 26 20  1  0  0  0
 20 21  1  0  0  0
 21 22  1  0  0  0
 22 23  1  0  0  0
 23 24  1  0  0  0
 24 25  1  0  0  0
 23  1  1  0  0  0
  1  2  2  0  0  0
  2  3  1  0  0  0
  3  4  1  0  0  0
  3  5  2  0  0  0
  5  6  1  0  0  0
  6  7  1  0  0  0
  7  8  1  0  0  0
  8  9  2  0  0  0
  9 10  1  0  0  0
  7 13  1  0  0  0
 13 14  2  0  0  0
 14 15  1  0  0  0
 15 16  2  0  0  0
 16 17  1  0  0  0
 16 18  1  0  0  0
 18 19  2  0  0  0
 30 31  1  0  0  0
 31 32  1  0  0  0
 32 28  2  0  0  0
 25 20  1  0  0  0
 10  1  1  0  0  0
 19 13  1  0  0  0
 10  6  2  0  0  0
  4 11  1  0  0  0
  4 12  1  0  0  0
M  END
> <minimizedAffinity>
-9.40422

> <CNNscore>
0.2477834374

> <CNNaffinity>
6.3353033066

> <CNN_VS>
1.5697832108

> <CNNaffinity_variance>
0.4806762338

$$$$
[H]c1c(C([H])([H])[H])noc1C([H])([H])N1C([H])([H])C([H])([H])N(c2nc(N([H])[H])nc3c2nc([H])n3-c2c([H])c([H])c(Cl)c([H])c2[H])C([H])([H])C1([H])[H]


 32 36  0  0  0  0  0  0  0  0999 V2000
   13.8035   24.4397   -1.8726 C   0  0  0  0  0  0  0  0  0  0  0  0
   14.6019   23.6751   -1.1158 N   0  0  0  0  0  0  0  0  0  0  0  0
   14.0919   22.9100   -0.1034 C   0  0  0  0  0  0  0  0  0  0  0  0
   14.9906   22.1268    0.6566 N   0  0  0  0  0  0  0  0  0  0  0  0
   12.7711   22.9566    0.0980 N   0  0  0  0  0  0  0  0  0  0  0  0
   11.9166   23.7002   -0.6231 C   0  0  0  0  0  0  0  0  0  0  0  0
   10.5899   23.8705   -0.5685 N   0  0  0  0  0  0  0  0  0  0  0  0
   10.2840   24.7406   -1.5469 C   0  0  0  0  0  0  0  0  0  0  0  0
   11.4029   25.1016   -2.1950 N   0  0  0  0  0  0  0  0  0  0  0  0
   12.4489   24.4684   -1.6431 C   0  0  0  0  0  0  0  0  0  0  0  0
   15.5307   22.5577    1.4323 H   0  0  0  0  0  0  0  0  0  0  0  0
   15.1015   21.1231    0.4290 H   0  0  0  0  0  0  0  0  0  0  0  0
    9.6528   23.2575    0.3414 C   0  0  0  0  0  0  0  0  0  0  0  0
    8.6766   23.9801    0.9804 C   0  0  0  0  0  0  0  0  0  0  0  0
    7.8228   23.2988    1.8340 C   0  0  0  0  0  0  0  0  0  0  0  0
    7.9190   21.9402    2.0599 C   0  0  0  0  0  0  0  0  0  0  0  0
    6.8150   21.1149    3.1497 Cl  0  0  0  0  0  0  0  0  0  0  0  0
    8.9163   21.2239    1.4020 C   0  0  0  0  0  0  0  0  0  0  0  0
    9.7629   21.9032    0.5550 C   0  0  0  0  0  0  0  0  0  0  0  0
   14.8987   27.1994   -4.7555 N   0  0  0  0  0  0  0  0  0  0  0  0
   13.5555   26.7838   -4.5370 C   0  0  0  0  0  0  0  0  0  0  0  0
   13.5702   25.3204   -4.1563 C   0  0  0  0  0  0  0  0  0  0  0  0
   14.3292   25.2339   -2.9199 N   0  0  0  0  0  0  0  0  0  0  0  0
   15.5658   25.9197   -2.7520 C   0  0  0  0  0  0  0  0  0  0  0  0
   15.7105   27.1540   -3.6006 C   0  0  0  0  0  0  0  0  0  0  0  0
   15.4623   26.7538   -5.9828 C   0  0  0  0  0  0  0  0  0  0  0  0
   16.6688   29.4502  -10.1296 C   0  0  0  0  0  0  0  0  0  0  0  0
   16.3813   29.0442   -8.7200 C   0  0  0  0  0  0  0  0  0  0  0  0
   16.0177   27.7725   -8.2829 C   0  0  0  0  0  0  0  0  0  0  0  0
   15.8483   27.8367   -6.9173 C   0  0  0  0  0  0  0  0  0  0  0  0
   16.0998   29.0821   -6.5743 O   0  0  0  0  0  0  0  0  0  0  0  0
   16.4096   29.7945   -7.6030 N   0  0  0  0  0  0  0  0  0  0  0  0
 27 28  1  0  0  0
 28 29  1  0  0  0
 29 30  2  0  0  0
 30 26  1  0  0  0
 26 20  1  0  0  0
 20 21  1  0  0  0
 21 22  1  0  0  0
 22 23  1  0  0  0
 23 24  1  0  0  0
 24 25  1  0  0  0
 23  1  1  0  0  0
  1  2  2  0  0  0
  2  3  1  0  0  0
  3  4  1  0  0  0
  3  5  2  0  0  0
  5  6  1  0  0  0
  6  7  1  0  0  0
  7  8  1  0  0  0
  8  9  2  0  0  0
  9 10  1  0  0  0
  7 13  1  0  0  0
 13 14  2  0  0  0
 14 15  1  0  0  0
 15 16  2  0  0  0
 16 17  1  0  0  0
 16 18  1  0  0  0
 18 19  2  0  0  0
 30 31  1  0  0  0
 31 32  1  0  0  0
 32 28  2  0  0  0
 25 20  1  0  0  0
 10  1  1  0  0  0
 19 13  1  0  0  0
 10  6  2  0  0  0
  4 11  1  0  0  0
  4 12  1  0  0  0
M  END
> <minimizedAffinity>
14.78415

> <CNNscore>
0.2134049088

> <CNNaffinity>
6.6758089066

> <CNN_VS>
1.4246504307

> <CNNaffinity_variance>
0.1876498163

$$$$
[H]c1c(C([H])([H])[H])noc1C([H])([H])N1C([H])([H])C([H])([H])N(c2nc(N([H])[H])nc3c2nc([H])n3-c2c([H])c([H])c(Cl)c([H])c2[H])C([H])([H])C1([H])[H]


 32 36  0  0  0  0  0  0  0  0999 V2000
   15.7421   25.5907   -1.4985 C   0  0  0  0  0  0  0  0  0  0  0  0
   16.6862   25.0708   -0.7027 N   0  0  0  0  0  0  0  0  0  0  0  0
   16.3557   24.2460    0.3369 C   0  0  0  0  0  0  0  0  0  0  0  0
   17.4015   23.7323    1.1375 N   0  0  0  0  0  0  0  0  0  0  0  0
   15.0587   23.9817    0.5246 N   0  0  0  0  0  0  0  0  0  0  0  0
   14.0645   24.4692   -0.2350 C   0  0  0  0  0  0  0  0  0  0  0  0
   12.7349   24.3176   -0.1993 N   0  0  0  0  0  0  0  0  0  0  0  0
   12.2477   25.0494   -1.2167 C   0  0  0  0  0  0  0  0  0  0  0  0
   13.2594   25.6429   -1.8699 N   0  0  0  0  0  0  0  0  0  0  0  0
   14.4161   25.3020   -1.2823 C   0  0  0  0  0  0  0  0  0  0  0  0
   17.8080   24.3106    1.8987 H   0  0  0  0  0  0  0  0  0  0  0  0
   17.7541   22.7766    0.9540 H   0  0  0  0  0  0  0  0  0  0  0  0
   11.9552   23.5337    0.7277 C   0  0  0  0  0  0  0  0  0  0  0  0
   10.8357   24.0333    1.3447 C   0  0  0  0  0  0  0  0  0  0  0  0
   10.1531   23.2002    2.2175 C   0  0  0  0  0  0  0  0  0  0  0  0
   10.5541   21.9061    2.4833 C   0  0  0  0  0  0  0  0  0  0  0  0
    9.6588   20.8827    3.5963 Cl  0  0  0  0  0  0  0  0  0  0  0  0
   11.6929   21.4170    1.8473 C   0  0  0  0  0  0  0  0  0  0  0  0
   12.3688   22.2467    0.9811 C   0  0  0  0  0  0  0  0  0  0  0  0
   16.2992   28.4979   -4.3906 N   0  0  0  0  0  0  0  0  0  0  0  0
   15.0203   28.0013   -4.0130 C   0  0  0  0  0  0  0  0  0  0  0  0
   15.1604   26.5296   -3.6952 C   0  0  0  0  0  0  0  0  0  0  0  0
   16.0816   26.4460   -2.5742 N   0  0  0  0  0  0  0  0  0  0  0  0
   17.2929   27.1939   -2.5444 C   0  0  0  0  0  0  0  0  0  0  0  0
   17.2595   28.4608   -3.3557 C   0  0  0  0  0  0  0  0  0  0  0  0
   16.7152   28.1239   -5.6981 C   0  0  0  0  0  0  0  0  0  0  0  0
   14.2127   24.7269   -8.5476 C   0  0  0  0  0  0  0  0  0  0  0  0
   14.9912   25.3778   -7.4500 C   0  0  0  0  0  0  0  0  0  0  0  0
   15.3939   26.7103   -7.3988 C   0  0  0  0  0  0  0  0  0  0  0  0
   16.0842   26.8894   -6.2202 C   0  0  0  0  0  0  0  0  0  0  0  0
   16.0849   25.7212   -5.6141 O   0  0  0  0  0  0  0  0  0  0  0  0
   15.4579   24.8356   -6.3099 N   0  0  0  0  0  0  0  0  0  0  0  0
 27 28  1  0  0  0
 28 29  1  0  0  0
 29 30  2  0  0  0
 30 26  1  0  0  0
 26 20  1  0  0  0
 20 21  1  0  0  0
 21 22  1  0  0  0
 22 23  1  0  0  0
 23 24  1  0  0  0
 24 25  1  0  0  0
 23  1  1  0  0  0
  1  2  2  0  0  0
  2  3  1  0  0  0
  3  4  1  0  0  0
  3  5  2  0  0  0
  5  6  1  0  0  0
  6  7  1  0  0  0
  7  8  1  0  0  0
  8  9  2  0  0  0
  9 10  1  0  0  0
  7 13  1  0  0  0
 13 14  2  0  0  0
 14 15  1  0  0  0
 15 16  2  0  0  0
 16 17  1  0  0  0
 16 18  1  0  0  0
 18 19  2  0  0  0
 30 31  1  0  0  0
 31 32  1  0  0  0
 32 28  2  0  0  0
 25 20  1  0  0  0
 10  1  1  0  0  0
 19 13  1  0  0  0
 10  6  2  0  0  0
  4 11  1  0  0  0
  4 12  1  0  0  0
M  END
> <minimizedAffinity>
0.51650

> <CNNscore>
0.1937382370

> <CNNaffinity>
7.2000761032

> <CNN_VS>
1.3949300051

> <CNNaffinity_variance>
0.4919784069

$$$$
[H]OC(=O)C([H])([H])N1C([H])([H])C([H])([H])N(c2nc([H])c(C(=O)N([H])c3c([H])c([H])c4c(c3[H])OC([H])([H])C([H])([H])O4)c([H])c2Cl)C([H])([H])C([H])([H])C1([H])[H]


 33 36  0  0  0  0  0  0  0  0999 V2000
   13.2484   23.3553   -1.5893 C   0  0  0  0  0  0  0  0  0  0  0  0
   13.1775   22.0311   -1.8720 N   0  0  0  0  0  0  0  0  0  0  0  0
   12.0841   21.3072   -1.5783 C   0  0  0  0  0  0  0  0  0  0  0  0
   10.9571   21.8736   -0.9658 C   0  0  0  0  0  0  0  0  0  0  0  0
   11.0114   23.2009   -0.6754 C   0  0  0  0  0  0  0  0  0  0  0  0
   12.1633   23.9316   -0.9922 C   0  0  0  0  0  0  0  0  0  0  0  0
   12.1931   25.6316   -0.6089 Cl  0  0  0  0  0  0  0  0  0  0  0  0
   15.8516   26.5071   -3.2798 N   0  0  0  0  0  0  0  0  0  0  0  0
   16.7513   25.7810   -2.4505 C   0  0  0  0  0  0  0  0  0  0  0  0
   16.1949   25.5075   -1.0667 C   0  0  0  0  0  0  0  0  0  0  0  0
   15.4804   24.1939   -0.9513 C   0  0  0  0  0  0  0  0  0  0  0  0
   14.4160   24.0657   -1.9073 N   0  0  0  0  0  0  0  0  0  0  0  0
   14.4017   24.6163   -3.2582 C   0  0  0  0  0  0  0  0  0  0  0  0
   14.4656   26.1063   -3.1550 C   0  0  0  0  0  0  0  0  0  0  0  0
   16.2417   26.4057   -4.6581 C   0  0  0  0  0  0  0  0  0  0  0  0
   15.7457   28.7785   -5.2214 O   0  0  0  0  0  0  0  0  0  0  0  0
   15.6552   27.4144   -5.5513 C   0  0  0  0  0  0  0  0  0  0  0  0
   15.0659   27.1250   -6.6140 O   0  0  0  0  0  0  0  0  0  0  0  0
   16.6813   29.1238   -5.0567 H   0  0  0  0  0  0  0  0  0  0  0  0
    9.8005   21.0466   -0.6612 C   0  0  0  0  0  0  0  0  0  0  0  0
    9.6371   20.7067    0.5394 O   0  0  0  0  0  0  0  0  0  0  0  0
    8.9180   20.6535   -1.6731 N   0  0  0  0  0  0  0  0  0  0  0  0
    9.1497   20.9894   -2.6549 H   0  0  0  0  0  0  0  0  0  0  0  0
    7.7517   19.8646   -1.5736 C   0  0  0  0  0  0  0  0  0  0  0  0
    6.5992   20.0421   -2.3030 C   0  0  0  0  0  0  0  0  0  0  0  0
    5.4930   19.2039   -2.1080 C   0  0  0  0  0  0  0  0  0  0  0  0
    5.4910   18.1755   -1.1961 C   0  0  0  0  0  0  0  0  0  0  0  0
    4.3901   17.3489   -1.0082 O   0  0  0  0  0  0  0  0  0  0  0  0
    4.3125   16.6350    0.2366 C   0  0  0  0  0  0  0  0  0  0  0  0
    5.6706   15.9510    0.3780 C   0  0  0  0  0  0  0  0  0  0  0  0
    6.6552   16.9500    0.4680 O   0  0  0  0  0  0  0  0  0  0  0  0
    6.6426   17.9983   -0.4679 C   0  0  0  0  0  0  0  0  0  0  0  0
    7.7328   18.8112   -0.6485 C   0  0  0  0  0  0  0  0  0  0  0  0
 16 17  1  0  0  0
 17 18  2  0  0  0
 17 15  1  0  0  0
 15  8  1  0  0  0
  8  9  1  0  0  0
  9 10  1  0  0  0
 10 11  1  0  0  0
 11 12  1  0  0  0
 12 13  1  0  0  0
 13 14  1  0  0  0
 12  1  1  0  0  0
  1  2  2  0  0  0
  2  3  1  0  0  0
  3  4  2  0  0  0
  4  5  1  0  0  0
  5  6  2  0  0  0
  6  7  1  0  0  0
  4 20  1  0  0  0
 20 21  2  0  0  0
 20 22  1  0  0  0
 22 24  1  0  0  0
 24 25  2  0  0  0
 25 26  1  0  0  0
 26 27  2  0  0  0
 27 28  1  0  0  0
 28 29  1  0  0  0
 29 30  1  0  0  0
 30 31  1  0  0  0
 31 32  1  0  0  0
 32 33  2  0  0  0
 14  8  1  0  0  0
  6  1  1  0  0  0
 33 24  1  0  0  0
 32 27  1  0  0  0
 16 19  1  0  0  0
 22 23  1  0  0  0
M  END
> <minimizedAffinity>
-8.79757

> <CNNscore>
0.3770571351

> <CNNaffinity>
6.9301109314

> <CNN_VS>
2.6130478382

> <CNNaffinity_variance>
0.1220308915

$$$$
[H]OC(=O)C([H])([H])N1C([H])([H])C([H])([H])N(c2nc([H])c(C(=O)N([H])c3c([H])c([H])c4c(c3[H])OC([H])([H])C([H])([H])O4)c([H])c2Cl)C([H])([H])C([H])([H])C1([H])[H]


 33 36  0  0  0  0  0  0  0  0999 V2000
   14.0275   25.6477   -2.3291 C   0  0  0  0  0  0  0  0  0  0  0  0
   14.7173   24.8015   -1.5251 N   0  0  0  0  0  0  0  0  0  0  0  0
   14.0998   24.0621   -0.5881 C   0  0  0  0  0  0  0  0  0  0  0  0
   12.7134   24.1202   -0.3864 C   0  0  0  0  0  0  0  0  0  0  0  0
   12.0063   24.9640   -1.1844 C   0  0  0  0  0  0  0  0  0  0  0  0
   12.6750   25.7230   -2.1529 C   0  0  0  0  0  0  0  0  0  0  0  0
   11.7334   26.7894   -3.1599 Cl  0  0  0  0  0  0  0  0  0  0  0  0
   17.3986   27.2257   -4.7195 N   0  0  0  0  0  0  0  0  0  0  0  0
   16.2674   27.7535   -5.4023 C   0  0  0  0  0  0  0  0  0  0  0  0
   15.1913   26.7166   -5.6593 C   0  0  0  0  0  0  0  0  0  0  0  0
   14.1495   26.6472   -4.5826 C   0  0  0  0  0  0  0  0  0  0  0  0
   14.7193   26.4053   -3.2865 N   0  0  0  0  0  0  0  0  0  0  0  0
   16.0122   26.8862   -2.8115 C   0  0  0  0  0  0  0  0  0  0  0  0
   17.0778   26.2823   -3.6687 C   0  0  0  0  0  0  0  0  0  0  0  0
   18.1934   28.2853   -4.1650 C   0  0  0  0  0  0  0  0  0  0  0  0
   20.0447   27.9938   -2.5276 O   0  0  0  0  0  0  0  0  0  0  0  0
   19.5849   27.9290   -3.8551 C   0  0  0  0  0  0  0  0  0  0  0  0
   20.4050   27.5622   -4.7230 O   0  0  0  0  0  0  0  0  0  0  0  0
   19.5090   27.4606   -1.8565 H   0  0  0  0  0  0  0  0  0  0  0  0
   12.0926   23.3056    0.6459 C   0  0  0  0  0  0  0  0  0  0  0  0
   12.8521   22.5820    1.3412 O   0  0  0  0  0  0  0  0  0  0  0  0
   10.7080   23.3366    0.8427 N   0  0  0  0  0  0  0  0  0  0  0  0
   10.1562   23.9770    0.1979 H   0  0  0  0  0  0  0  0  0  0  0  0
    9.9317   22.6291    1.7858 C   0  0  0  0  0  0  0  0  0  0  0  0
    8.6256   22.2336    1.6138 C   0  0  0  0  0  0  0  0  0  0  0  0
    7.9465   21.5472    2.6296 C   0  0  0  0  0  0  0  0  0  0  0  0
    8.5302   21.2336    3.8339 C   0  0  0  0  0  0  0  0  0  0  0  0
    7.8501   20.5530    4.8364 O   0  0  0  0  0  0  0  0  0  0  0  0
    8.3600   20.6778    6.1741 C   0  0  0  0  0  0  0  0  0  0  0  0
    9.8461   20.3465    6.0565 C   0  0  0  0  0  0  0  0  0  0  0  0
   10.4450   21.3142    5.2315 O   0  0  0  0  0  0  0  0  0  0  0  0
    9.8350   21.6285    4.0051 C   0  0  0  0  0  0  0  0  0  0  0  0
   10.5118   22.3010    3.0193 C   0  0  0  0  0  0  0  0  0  0  0  0
 16 17  1  0  0  0
 17 18  2  0  0  0
 17 15  1  0  0  0
 15  8  1  0  0  0
  8  9  1  0  0  0
  9 10  1  0  0  0
 10 11  1  0  0  0
 11 12  1  0  0  0
 12 13  1  0  0  0
 13 14  1  0  0  0
 12  1  1  0  0  0
  1  2  2  0  0  0
  2  3  1  0  0  0
  3  4  2  0  0  0
  4  5  1  0  0  0
  5  6  2  0  0  0
  6  7  1  0  0  0
  4 20  1  0  0  0
 20 21  2  0  0  0
 20 22  1  0  0  0
 22 24  1  0  0  0
 24 25  2  0  0  0
 25 26  1  0  0  0
 26 27  2  0  0  0
 27 28  1  0  0  0
 28 29  1  0  0  0
 29 30  1  0  0  0
 30 31  1  0  0  0
 31 32  1  0  0  0
 32 33  2  0  0  0
 14  8  1  0  0  0
  6  1  1  0  0  0
 33 24  1  0  0  0
 32 27  1  0  0  0
 16 19  1  0  0  0
 22 23  1  0  0  0
M  END
> <minimizedAffinity>
0.54598

> <CNNscore>
0.3430797458

> <CNNaffinity>
6.6959776878

> <CNN_VS>
2.2972543240

> <CNNaffinity_variance>
0.7513813972

$$$$
[H]OC(=O)C([H])([H])N1C([H])([H])C([H])([H])N(c2nc([H])c(C(=O)N([H])c3c([H])c([H])c4c(c3[H])OC([H])([H])C([H])([H])O4)c([H])c2Cl)C([H])([H])C([H])([H])C1([H])[H]


 33 36  0  0  0  0  0  0  0  0999 V2000
    9.7313   22.7476    2.8466 C   0  0  0  0  0  0  0  0  0  0  0  0
   10.8349   21.9648    2.7584 N   0  0  0  0  0  0  0  0  0  0  0  0
   11.7945   22.2025    1.8482 C   0  0  0  0  0  0  0  0  0  0  0  0
   11.7137   23.2681    0.9404 C   0  0  0  0  0  0  0  0  0  0  0  0
   10.6133   24.0633    1.0151 C   0  0  0  0  0  0  0  0  0  0  0  0
    9.6283   23.7928    1.9731 C   0  0  0  0  0  0  0  0  0  0  0  0
    8.2349   24.8377    2.0411 Cl  0  0  0  0  0  0  0  0  0  0  0  0
    7.1509   20.3690    5.5395 N   0  0  0  0  0  0  0  0  0  0  0  0
    6.8985   21.7005    5.9730 C   0  0  0  0  0  0  0  0  0  0  0  0
    8.1647   22.5099    6.1746 C   0  0  0  0  0  0  0  0  0  0  0  0
    8.5833   23.2891    4.9634 C   0  0  0  0  0  0  0  0  0  0  0  0
    8.7528   22.4526    3.8081 N   0  0  0  0  0  0  0  0  0  0  0  0
    7.9782   21.2581    3.4894 C   0  0  0  0  0  0  0  0  0  0  0  0
    8.2155   20.2477    4.5654 C   0  0  0  0  0  0  0  0  0  0  0  0
    5.9583   19.7792    4.9994 C   0  0  0  0  0  0  0  0  0  0  0  0
    6.2043   17.4451    5.8269 O   0  0  0  0  0  0  0  0  0  0  0  0
    6.0318   18.3329    4.7499 C   0  0  0  0  0  0  0  0  0  0  0  0
    5.9479   17.8320    3.6087 O   0  0  0  0  0  0  0  0  0  0  0  0
    5.5202   17.5229    6.5670 H   0  0  0  0  0  0  0  0  0  0  0  0
   12.7749   23.4796   -0.0310 C   0  0  0  0  0  0  0  0  0  0  0  0
   13.5816   22.5316   -0.2165 O   0  0  0  0  0  0  0  0  0  0  0  0
   12.8802   24.6925   -0.7200 N   0  0  0  0  0  0  0  0  0  0  0  0
   12.1517   25.4306   -0.4854 H   0  0  0  0  0  0  0  0  0  0  0  0
   13.8278   25.0793   -1.6920 C   0  0  0  0  0  0  0  0  0  0  0  0
   15.1909   24.9275   -1.5877 C   0  0  0  0  0  0  0  0  0  0  0  0
   16.0399   25.3649   -2.6134 C   0  0  0  0  0  0  0  0  0  0  0  0
   15.5738   25.9595   -3.7616 C   0  0  0  0  0  0  0  0  0  0  0  0
   16.4220   26.3909   -4.7741 O   0  0  0  0  0  0  0  0  0  0  0  0
   15.9080   27.3795   -5.6817 C   0  0  0  0  0  0  0  0  0  0  0  0
   14.5683   26.8169   -6.1517 C   0  0  0  0  0  0  0  0  0  0  0  0
   13.7211   26.7165   -5.0347 O   0  0  0  0  0  0  0  0  0  0  0  0
   14.2121   26.1106   -3.8657 C   0  0  0  0  0  0  0  0  0  0  0  0
   13.3694   25.6871   -2.8694 C   0  0  0  0  0  0  0  0  0  0  0  0
 16 17  1  0  0  0
 17 18  2  0  0  0
 17 15  1  0  0  0
 15  8  1  0  0  0
  8  9  1  0  0  0
  9 10  1  0  0  0
 10 11  1  0  0  0
 11 12  1  0  0  0
 12 13  1  0  0  0
 13 14  1  0  0  0
 12  1  1  0  0  0
  1  2  2  0  0  0
  2  3  1  0  0  0
  3  4  2  0  0  0
  4  5  1  0  0  0
  5  6  2  0  0  0
  6  7  1  0  0  0
  4 20  1  0  0  0
 20 21  2  0  0  0
 20 22  1  0  0  0
 22 24  1  0  0  0
 24 25  2  0  0  0
 25 26  1  0  0  0
 26 27  2  0  0  0
 27 28  1  0  0  0
 28 29  1  0  0  0
 29 30  1  0  0  0
 30 31  1  0  0  0
 31 32  1  0  0  0
 32 33  2  0  0  0
 14  8  1  0  0  0
  6  1  1  0  0  0
 33 24  1  0  0  0
 32 27  1  0  0  0
 16 19  1  0  0  0
 22 23  1  0  0  0
M  END
> <minimizedAffinity>
-7.78678

> <CNNscore>
0.2756400406

> <CNNaffinity>
6.3314352036

> <CNN_VS>
1.7451970577

> <CNNaffinity_variance>
0.3919536173

$$$$
[H]OC(=O)C([H])([H])N1C([H])([H])C([H])([H])N(c2nc([H])c(C(=O)N([H])c3c([H])c([H])c4c(c3[H])OC([H])([H])C([H])([H])O4)c([H])c2Cl)C([H])([H])C([H])([H])C1([H])[H]


 33 36  0  0  0  0  0  0  0  0999 V2000
    8.6883   21.0577   -0.7718 C   0  0  0  0  0  0  0  0  0  0  0  0
    9.8135   20.6655   -1.4186 N   0  0  0  0  0  0  0  0  0  0  0  0
   10.9273   21.4174   -1.4108 C   0  0  0  0  0  0  0  0  0  0  0  0
   10.9931   22.6454   -0.7372 C   0  0  0  0  0  0  0  0  0  0  0  0
    9.8733   23.0540   -0.0831 C   0  0  0  0  0  0  0  0  0  0  0  0
    8.7262   22.2508   -0.1077 C   0  0  0  0  0  0  0  0  0  0  0  0
    7.3121   22.8061    0.7468 Cl  0  0  0  0  0  0  0  0  0  0  0  0
    5.0201   18.9825    0.5721 N   0  0  0  0  0  0  0  0  0  0  0  0
    5.0040   18.7517   -0.8317 C   0  0  0  0  0  0  0  0  0  0  0  0
    5.2647   20.0057   -1.6432 C   0  0  0  0  0  0  0  0  0  0  0  0
    6.7101   20.2154   -1.9840 C   0  0  0  0  0  0  0  0  0  0  0  0
    7.5478   20.2415   -0.8175 N   0  0  0  0  0  0  0  0  0  0  0  0
    7.3466   19.4692    0.4038 C   0  0  0  0  0  0  0  0  0  0  0  0
    6.0518   19.8960    1.0173 C   0  0  0  0  0  0  0  0  0  0  0  0
    5.1574   17.7441    1.2859 C   0  0  0  0  0  0  0  0  0  0  0  0
    4.3117   15.9273   -0.1897 O   0  0  0  0  0  0  0  0  0  0  0  0
    5.3936   16.5604    0.4479 C   0  0  0  0  0  0  0  0  0  0  0  0
    6.5276   16.0702    0.2632 O   0  0  0  0  0  0  0  0  0  0  0  0
    3.7452   16.5236   -0.7772 H   0  0  0  0  0  0  0  0  0  0  0  0
   12.2195   23.4264   -0.7644 C   0  0  0  0  0  0  0  0  0  0  0  0
   12.6721   23.8243    0.3404 O   0  0  0  0  0  0  0  0  0  0  0  0
   12.8549   23.7149   -1.9768 N   0  0  0  0  0  0  0  0  0  0  0  0
   12.3872   23.3370   -2.8537 H   0  0  0  0  0  0  0  0  0  0  0  0
   14.0412   24.4458   -2.2028 C   0  0  0  0  0  0  0  0  0  0  0  0
   15.2348   24.2599   -1.5452 C   0  0  0  0  0  0  0  0  0  0  0  0
   16.3474   25.0586   -1.8426 C   0  0  0  0  0  0  0  0  0  0  0  0
   16.3156   26.0552   -2.7888 C   0  0  0  0  0  0  0  0  0  0  0  0
   17.4228   26.8432   -3.0779 O   0  0  0  0  0  0  0  0  0  0  0  0
   17.1775   28.1092   -3.7122 C   0  0  0  0  0  0  0  0  0  0  0  0
   16.2847   27.7794   -4.9065 C   0  0  0  0  0  0  0  0  0  0  0  0
   15.0760   27.2555   -4.4164 O   0  0  0  0  0  0  0  0  0  0  0  0
   15.1232   26.2403   -3.4458 C   0  0  0  0  0  0  0  0  0  0  0  0
   14.0263   25.4658   -3.1647 C   0  0  0  0  0  0  0  0  0  0  0  0
 16 17  1  0  0  0
 17 18  2  0  0  0
 17 15  1  0  0  0
 15  8  1  0  0  0
  8  9  1  0  0  0
  9 10  1  0  0  0
 10 11  1  0  0  0
 11 12  1  0  0  0
 12 13  1  0  0  0
 13 14  1  0  0  0
 12  1  1  0  0  0
  1  2  2  0  0  0
  2  3  1  0  0  0
  3  4  2  0  0  0
  4  5  1  0  0  0
  5  6  2  0  0  0
  6  7  1  0  0  0
  4 20  1  0  0  0
 20 21  2  0  0  0
 20 22  1  0  0  0
 22 24  1  0  0  0
 24 25  2  0  0  0
 25 26  1  0  0  0
 26 27  2  0  0  0
 27 28  1  0  0  0
 28 29  1  0  0  0
 29 30  1  0  0  0
 30 31  1  0  0  0
 31 32  1  0  0  0
 32 33  2  0  0  0
 14  8  1  0  0  0
  6  1  1  0  0  0
 33 24  1  0  0  0
 32 27  1  0  0  0
 16 19  1  0  0  0
 22 23  1  0  0  0
M  END
> <minimizedAffinity>
-7.60416

> <CNNscore>
0.2562597394

> <CNNaffinity>
6.4539270401

> <CNN_VS>
1.6538816690

> <CNNaffinity_variance>
0.5163389444

$$$$
[H]OC(=O)C([H])([H])N1C([H])([H])C([H])([H])N(c2nc([H])c(C(=O)N([H])c3c([H])c([H])c4c(c3[H])OC([H])([H])C([H])([H])O4)c([H])c2Cl)C([H])([H])C([H])([H])C1([H])[H]


 33 36  0  0  0  0  0  0  0  0999 V2000
   13.6834   23.3679   -0.6164 C   0  0  0  0  0  0  0  0  0  0  0  0
   13.7501   22.0167   -0.5252 N   0  0  0  0  0  0  0  0  0  0  0  0
   12.9036   21.3221    0.2537 C   0  0  0  0  0  0  0  0  0  0  0  0
   11.9058   21.9482    1.0143 C   0  0  0  0  0  0  0  0  0  0  0  0
   11.8249   23.3032    0.9344 C   0  0  0  0  0  0  0  0  0  0  0  0
   12.7199   24.0024    0.1150 C   0  0  0  0  0  0  0  0  0  0  0  0
   12.5813   25.7380    0.0351 Cl  0  0  0  0  0  0  0  0  0  0  0  0
   15.2092   26.1136   -3.7311 N   0  0  0  0  0  0  0  0  0  0  0  0
   16.4014   25.7178   -3.0631 C   0  0  0  0  0  0  0  0  0  0  0  0
   16.2913   25.7986   -1.5530 C   0  0  0  0  0  0  0  0  0  0  0  0
   15.8472   24.5185   -0.9100 C   0  0  0  0  0  0  0  0  0  0  0  0
   14.5962   24.0486   -1.4365 N   0  0  0  0  0  0  0  0  0  0  0  0
   14.1302   24.1987   -2.8109 C   0  0  0  0  0  0  0  0  0  0  0  0
   13.9886   25.6589   -3.0982 C   0  0  0  0  0  0  0  0  0  0  0  0
   15.2207   25.6627   -5.0944 C   0  0  0  0  0  0  0  0  0  0  0  0
   15.8759   26.3091   -7.4066 O   0  0  0  0  0  0  0  0  0  0  0  0
   15.5541   26.6894   -6.0914 C   0  0  0  0  0  0  0  0  0  0  0  0
   15.5690   27.9116   -5.8339 O   0  0  0  0  0  0  0  0  0  0  0  0
   15.1842   25.7402   -7.8752 H   0  0  0  0  0  0  0  0  0  0  0  0
   11.0184   21.1531    1.8479 C   0  0  0  0  0  0  0  0  0  0  0  0
   11.0218   19.9078    1.6662 O   0  0  0  0  0  0  0  0  0  0  0  0
   10.2014   21.7638    2.8052 N   0  0  0  0  0  0  0  0  0  0  0  0
   10.2699   22.8225    2.8746 H   0  0  0  0  0  0  0  0  0  0  0  0
    9.2883   21.1664    3.7007 C   0  0  0  0  0  0  0  0  0  0  0  0
    9.6220   20.4240    4.8094 C   0  0  0  0  0  0  0  0  0  0  0  0
    8.6265   19.8634    5.6211 C   0  0  0  0  0  0  0  0  0  0  0  0
    7.2847   20.0172    5.3655 C   0  0  0  0  0  0  0  0  0  0  0  0
    6.3035   19.4581    6.1749 O   0  0  0  0  0  0  0  0  0  0  0  0
    5.0001   19.2811    5.5960 C   0  0  0  0  0  0  0  0  0  0  0  0
    4.6517   20.6426    4.9984 C   0  0  0  0  0  0  0  0  0  0  0  0
    5.5833   20.9256    3.9847 O   0  0  0  0  0  0  0  0  0  0  0  0
    6.9517   20.7594    4.2582 C   0  0  0  0  0  0  0  0  0  0  0  0
    7.9158   21.3138    3.4549 C   0  0  0  0  0  0  0  0  0  0  0  0
 16 17  1  0  0  0
 17 18  2  0  0  0
 17 15  1  0  0  0
 15  8  1  0  0  0
  8  9  1  0  0  0
  9 10  1  0  0  0
 10 11  1  0  0  0
 11 12  1  0  0  0
 12 13  1  0  0  0
 13 14  1  0  0  0
 12  1  1  0  0  0
  1  2  2  0  0  0
  2  3  1  0  0  0
  3  4  2  0  0  0
  4  5  1  0  0  0
  5  6  2  0  0  0
  6  7  1  0  0  0
  4 20  1  0  0  0
 20 21  2  0  0  0
 20 22  1  0  0  0
 22 24  1  0  0  0
 24 25  2  0  0  0
 25 26  1  0  0  0
 26 27  2  0  0  0
 27 28  1  0  0  0
 28 29  1  0  0  0
 29 30  1  0  0  0
 30 31  1  0  0  0
 31 32  1  0  0  0
 32 33  2  0  0  0
 14  8  1  0  0  0
  6  1  1  0  0  0
 33 24  1  0  0  0
 32 27  1  0  0  0
 16 19  1  0  0  0
 22 23  1  0  0  0
M  END
> <minimizedAffinity>
-8.01701

> <CNNscore>
0.2555099726

> <CNNaffinity>
6.8247480392

> <CNN_VS>
1.7437912226

> <CNNaffinity_variance>
0.1845796406

$$$$
[H]OC(=O)C([H])([H])N1C([H])([H])C([H])([H])N(c2nc([H])c(C(=O)N([H])c3c([H])c([H])c4c(c3[H])OC([H])([H])C([H])([H])O4)c([H])c2Cl)C([H])([H])C([H])([H])C1([H])[H]


 33 36  0  0  0  0  0  0  0  0999 V2000
   10.9005   21.7010    2.9575 C   0  0  0  0  0  0  0  0  0  0  0  0
   10.6357   22.9517    2.5057 N   0  0  0  0  0  0  0  0  0  0  0  0
   11.3063   23.4811    1.4684 C   0  0  0  0  0  0  0  0  0  0  0  0
   12.3139   22.7767    0.7943 C   0  0  0  0  0  0  0  0  0  0  0  0
   12.5923   21.5207    1.2345 C   0  0  0  0  0  0  0  0  0  0  0  0
   11.8782   20.9934    2.3177 C   0  0  0  0  0  0  0  0  0  0  0  0
   12.2604   19.3782    2.8497 Cl  0  0  0  0  0  0  0  0  0  0  0  0
    7.4557   20.3513    5.3823 N   0  0  0  0  0  0  0  0  0  0  0  0
    8.5648   19.9381    6.1719 C   0  0  0  0  0  0  0  0  0  0  0  0
    9.6311   19.2189    5.3688 C   0  0  0  0  0  0  0  0  0  0  0  0
   10.7069   20.1235    4.8459 C   0  0  0  0  0  0  0  0  0  0  0  0
   10.1789   21.1964    4.0501 N   0  0  0  0  0  0  0  0  0  0  0  0
    8.9025   21.8725    4.2553 C   0  0  0  0  0  0  0  0  0  0  0  0
    7.8093   20.8686    4.0768 C   0  0  0  0  0  0  0  0  0  0  0  0
    6.6803   21.3392    6.0785 C   0  0  0  0  0  0  0  0  0  0  0  0
    4.4913   20.9772    4.9513 O   0  0  0  0  0  0  0  0  0  0  0  0
    5.5173   21.8554    5.3435 C   0  0  0  0  0  0  0  0  0  0  0  0
    5.3820   23.0592    5.0385 O   0  0  0  0  0  0  0  0  0  0  0  0
    4.0778   20.4331    5.6961 H   0  0  0  0  0  0  0  0  0  0  0  0
   13.0162   23.3959   -0.3183 C   0  0  0  0  0  0  0  0  0  0  0  0
   14.0090   22.7798   -0.7858 O   0  0  0  0  0  0  0  0  0  0  0  0
   12.5930   24.6258   -0.8335 N   0  0  0  0  0  0  0  0  0  0  0  0
   11.7472   25.0659   -0.3631 H   0  0  0  0  0  0  0  0  0  0  0  0
   13.1370   25.3732   -1.9003 C   0  0  0  0  0  0  0  0  0  0  0  0
   12.4199   25.9495   -2.9228 C   0  0  0  0  0  0  0  0  0  0  0  0
   13.0707   26.6589   -3.9414 C   0  0  0  0  0  0  0  0  0  0  0  0
   14.4353   26.8191   -3.9812 C   0  0  0  0  0  0  0  0  0  0  0  0
   15.0732   27.5236   -4.9948 O   0  0  0  0  0  0  0  0  0  0  0  0
   16.4691   27.2521   -5.2021 C   0  0  0  0  0  0  0  0  0  0  0  0
   17.1014   27.3879   -3.8187 C   0  0  0  0  0  0  0  0  0  0  0  0
   16.5475   26.3998   -2.9866 O   0  0  0  0  0  0  0  0  0  0  0  0
   15.1511   26.2436   -2.9594 C   0  0  0  0  0  0  0  0  0  0  0  0
   14.5272   25.5466   -1.9559 C   0  0  0  0  0  0  0  0  0  0  0  0
 16 17  1  0  0  0
 17 18  2  0  0  0
 17 15  1  0  0  0
 15  8  1  0  0  0
  8  9  1  0  0  0
  9 10  1  0  0  0
 10 11  1  0  0  0
 11 12  1  0  0  0
 12 13  1  0  0  0
 13 14  1  0  0  0
 12  1  1  0  0  0
  1  2  2  0  0  0
  2  3  1  0  0  0
  3  4  2  0  0  0
  4  5  1  0  0  0
  5  6  2  0  0  0
  6  7  1  0  0  0
  4 20  1  0  0  0
 20 21  2  0  0  0
 20 22  1  0  0  0
 22 24  1  0  0  0
 24 25  2  0  0  0
 25 26  1  0  0  0
 26 27  2  0  0  0
 27 28  1  0  0  0
 28 29  1  0  0  0
 29 30  1  0  0  0
 30 31  1  0  0  0
 31 32  1  0  0  0
 32 33  2  0  0  0
 14  8  1  0  0  0
  6  1  1  0  0  0
 33 24  1  0  0  0
 32 27  1  0  0  0
 16 19  1  0  0  0
 22 23  1  0  0  0
M  END
> <minimizedAffinity>
-7.41714

> <CNNscore>
0.2444330305

> <CNNaffinity>
6.4617013931

> <CNN_VS>
1.5794532299

> <CNNaffinity_variance>
0.3068314195

$$$$
[H]OC(=O)C([H])([H])N1C([H])([H])C([H])([H])N(c2nc([H])c(C(=O)N([H])c3c([H])c([H])c4c(c3[H])OC([H])([H])C([H])([H])O4)c([H])c2Cl)C([H])([H])C([H])([H])C1([H])[H]


 33 36  0  0  0  0  0  0  0  0999 V2000
    9.5032   21.7579    0.1454 C   0  0  0  0  0  0  0  0  0  0  0  0
    9.6287   23.0138   -0.3498 N   0  0  0  0  0  0  0  0  0  0  0  0
   10.7782   23.4413   -0.8991 C   0  0  0  0  0  0  0  0  0  0  0  0
   11.9105   22.6196   -0.9934 C   0  0  0  0  0  0  0  0  0  0  0  0
   11.8019   21.3566   -0.5015 C   0  0  0  0  0  0  0  0  0  0  0  0
   10.5922   20.9370    0.0659 C   0  0  0  0  0  0  0  0  0  0  0  0
   10.4904   19.3093    0.6810 Cl  0  0  0  0  0  0  0  0  0  0  0  0
    5.9251   19.2967    0.9869 N   0  0  0  0  0  0  0  0  0  0  0  0
    5.8545   20.2935    1.9997 C   0  0  0  0  0  0  0  0  0  0  0  0
    7.1741   20.5087    2.7148 C   0  0  0  0  0  0  0  0  0  0  0  0
    8.0195   21.5903    2.1108 C   0  0  0  0  0  0  0  0  0  0  0  0
    8.2847   21.3619    0.7177 N   0  0  0  0  0  0  0  0  0  0  0  0
    7.3810   20.7311   -0.2382 C   0  0  0  0  0  0  0  0  0  0  0  0
    7.1433   19.3230    0.2042 C   0  0  0  0  0  0  0  0  0  0  0  0
    4.8010   19.3981    0.0992 C   0  0  0  0  0  0  0  0  0  0  0  0
    4.3963   16.9454   -0.0184 O   0  0  0  0  0  0  0  0  0  0  0  0
    4.5015   18.1850   -0.6742 C   0  0  0  0  0  0  0  0  0  0  0  0
    4.3303   18.1894   -1.9115 O   0  0  0  0  0  0  0  0  0  0  0  0
    3.7305   16.9117    0.7414 H   0  0  0  0  0  0  0  0  0  0  0  0
   13.1341   23.1309   -1.5900 C   0  0  0  0  0  0  0  0  0  0  0  0
   13.8989   22.2953   -2.1384 O   0  0  0  0  0  0  0  0  0  0  0  0
   13.4330   24.4968   -1.5455 N   0  0  0  0  0  0  0  0  0  0  0  0
   12.7233   25.1170   -1.0533 H   0  0  0  0  0  0  0  0  0  0  0  0
   14.5562   25.1748   -2.0663 C   0  0  0  0  0  0  0  0  0  0  0  0
   15.8482   25.0532   -1.6107 C   0  0  0  0  0  0  0  0  0  0  0  0
   16.8858   25.7908   -2.1968 C   0  0  0  0  0  0  0  0  0  0  0  0
   16.6814   26.6622   -3.2400 C   0  0  0  0  0  0  0  0  0  0  0  0
   17.7153   27.3904   -3.8157 O   0  0  0  0  0  0  0  0  0  0  0  0
   17.3539   28.5713   -4.5506 C   0  0  0  0  0  0  0  0  0  0  0  0
   16.2666   28.1096   -5.5185 C   0  0  0  0  0  0  0  0  0  0  0  0
   15.1666   27.6702   -4.7618 O   0  0  0  0  0  0  0  0  0  0  0  0
   15.3906   26.7831   -3.6951 C   0  0  0  0  0  0  0  0  0  0  0  0
   14.3654   26.0672   -3.1307 C   0  0  0  0  0  0  0  0  0  0  0  0
 16 17  1  0  0  0
 17 18  2  0  0  0
 17 15  1  0  0  0
 15  8  1  0  0  0
  8  9  1  0  0  0
  9 10  1  0  0  0
 10 11  1  0  0  0
 11 12  1  0  0  0
 12 13  1  0  0  0
 13 14  1  0  0  0
 12  1  1  0  0  0
  1  2  2  0  0  0
  2  3  1  0  0  0
  3  4  2  0  0  0
  4  5  1  0  0  0
  5  6  2  0  0  0
  6  7  1  0  0  0
  4 20  1  0  0  0
 20 21  2  0  0  0
 20 22  1  0  0  0
 22 24  1  0  0  0
 24 25  2  0  0  0
 25 26  1  0  0  0
 26 27  2  0  0  0
 27 28  1  0  0  0
 28 29  1  0  0  0
 29 30  1  0  0  0
 30 31  1  0  0  0
 31 32  1  0  0  0
 32 33  2  0  0  0
 14  8  1  0  0  0
  6  1  1  0  0  0
 33 24  1  0  0  0
 32 27  1  0  0  0
 16 19  1  0  0  0
 22 23  1  0  0  0
M  END
> <minimizedAffinity>
-5.94863

> <CNNscore>
0.2363297641

> <CNNaffinity>
6.3936901093

> <CNN_VS>
1.5110192299

> <CNNaffinity_variance>
0.5162674785

$$$$
[H]OC(=O)C([H])([H])N1C([H])([H])C([H])([H])N(c2nc([H])c(C(=O)N([H])c3c([H])c([H])c4c(c3[H])OC([H])([H])C([H])([H])O4)c([H])c2Cl)C([H])([H])C([H])([H])C1([H])[H]


 33 36  0  0  0  0  0  0  0  0999 V2000
    8.5457   21.9547    0.4606 C   0  0  0  0  0  0  0  0  0  0  0  0
    8.6281   23.2709    0.7755 N   0  0  0  0  0  0  0  0  0  0  0  0
    9.7133   24.0009    0.4666 C   0  0  0  0  0  0  0  0  0  0  0  0
   10.8191   23.4495   -0.1961 C   0  0  0  0  0  0  0  0  0  0  0  0
   10.7530   22.1304   -0.5193 C   0  0  0  0  0  0  0  0  0  0  0  0
    9.6101   21.3930   -0.1855 C   0  0  0  0  0  0  0  0  0  0  0  0
    9.5607   19.7060   -0.6211 Cl  0  0  0  0  0  0  0  0  0  0  0  0
    5.1242   20.5303    2.8757 N   0  0  0  0  0  0  0  0  0  0  0  0
    4.8520   19.9652    1.5986 C   0  0  0  0  0  0  0  0  0  0  0  0
    4.9959   20.9618    0.4649 C   0  0  0  0  0  0  0  0  0  0  0  0
    6.3622   20.9811   -0.1532 C   0  0  0  0  0  0  0  0  0  0  0  0
    7.3948   21.2332    0.8129 N   0  0  0  0  0  0  0  0  0  0  0  0
    7.3950   20.7985    2.2056 C   0  0  0  0  0  0  0  0  0  0  0  0
    6.2417   21.4510    2.8977 C   0  0  0  0  0  0  0  0  0  0  0  0
    5.3548   19.4973    3.8461 C   0  0  0  0  0  0  0  0  0  0  0  0
    6.5881   19.7850    5.9885 O   0  0  0  0  0  0  0  0  0  0  0  0
    5.4069   19.9500    5.2432 C   0  0  0  0  0  0  0  0  0  0  0  0
    4.4396   20.4866    5.8233 O   0  0  0  0  0  0  0  0  0  0  0  0
    7.4196   20.1877    5.5783 H   0  0  0  0  0  0  0  0  0  0  0  0
   11.9735   24.2793   -0.5018 C   0  0  0  0  0  0  0  0  0  0  0  0
   12.1940   25.2592    0.2565 O   0  0  0  0  0  0  0  0  0  0  0  0
   12.7926   23.9865   -1.5974 N   0  0  0  0  0  0  0  0  0  0  0  0
   12.5156   23.1399   -2.1779 H   0  0  0  0  0  0  0  0  0  0  0  0
   13.9465   24.6643   -2.0464 C   0  0  0  0  0  0  0  0  0  0  0  0
   15.2118   24.5247   -1.5255 C   0  0  0  0  0  0  0  0  0  0  0  0
   16.2841   25.2640   -2.0432 C   0  0  0  0  0  0  0  0  0  0  0  0
   16.1411   26.1546   -3.0804 C   0  0  0  0  0  0  0  0  0  0  0  0
   17.2091   26.8842   -3.5880 O   0  0  0  0  0  0  0  0  0  0  0  0
   16.8954   28.0803   -4.3203 C   0  0  0  0  0  0  0  0  0  0  0  0
   15.8575   27.6438   -5.3520 C   0  0  0  0  0  0  0  0  0  0  0  0
   14.7160   27.2003   -4.6621 O   0  0  0  0  0  0  0  0  0  0  0  0
   14.8771   26.2934   -3.6007 C   0  0  0  0  0  0  0  0  0  0  0  0
   13.8185   25.5762   -3.1037 C   0  0  0  0  0  0  0  0  0  0  0  0
 16 17  1  0  0  0
 17 18  2  0  0  0
 17 15  1  0  0  0
 15  8  1  0  0  0
  8  9  1  0  0  0
  9 10  1  0  0  0
 10 11  1  0  0  0
 11 12  1  0  0  0
 12 13  1  0  0  0
 13 14  1  0  0  0
 12  1  1  0  0  0
  1  2  2  0  0  0
  2  3  1  0  0  0
  3  4  2  0  0  0
  4  5  1  0  0  0
  5  6  2  0  0  0
  6  7  1  0  0  0
  4 20  1  0  0  0
 20 21  2  0  0  0
 20 22  1  0  0  0
 22 24  1  0  0  0
 24 25  2  0  0  0
 25 26  1  0  0  0
 26 27  2  0  0  0
 27 28  1  0  0  0
 28 29  1  0  0  0
 29 30  1  0  0  0
 30 31  1  0  0  0
 31 32  1  0  0  0
 32 33  2  0  0  0
 14  8  1  0  0  0
  6  1  1  0  0  0
 33 24  1  0  0  0
 32 27  1  0  0  0
 16 19  1  0  0  0
 22 23  1  0  0  0
M  END
> <minimizedAffinity>
-7.65779

> <CNNscore>
0.2224293053

> <CNNaffinity>
6.0676183701

> <CNN_VS>
1.3496161699

> <CNNaffinity_variance>
0.1886794269

$$$$
[H]OC(=O)C([H])([H])N1C([H])([H])C([H])([H])N(c2nc([H])c(C(=O)N([H])c3c([H])c([H])c4c(c3[H])OC([H])([H])C([H])([H])O4)c([H])c2Cl)C([H])([H])C([H])([H])C1([H])[H]


 33 36  0  0  0  0  0  0  0  0999 V2000
    9.0788   22.2207    1.5517 C   0  0  0  0  0  0  0  0  0  0  0  0
   10.0680   21.4345    1.0600 N   0  0  0  0  0  0  0  0  0  0  0  0
   11.2259   21.9549    0.6189 C   0  0  0  0  0  0  0  0  0  0  0  0
   11.4799   23.3337    0.6406 C   0  0  0  0  0  0  0  0  0  0  0  0
   10.4982   24.1368    1.1307 C   0  0  0  0  0  0  0  0  0  0  0  0
    9.3013   23.5681    1.5836 C   0  0  0  0  0  0  0  0  0  0  0  0
    8.0687   24.6298    2.2095 Cl  0  0  0  0  0  0  0  0  0  0  0  0
    5.5571   19.5445    1.6176 N   0  0  0  0  0  0  0  0  0  0  0  0
    5.5095   20.1429    2.9077 C   0  0  0  0  0  0  0  0  0  0  0  0
    6.8498   20.1341    3.6167 C   0  0  0  0  0  0  0  0  0  0  0  0
    7.6630   21.3732    3.3873 C   0  0  0  0  0  0  0  0  0  0  0  0
    7.8842   21.6302    1.9915 N   0  0  0  0  0  0  0  0  0  0  0  0
    6.9560   21.3369    0.9048 C   0  0  0  0  0  0  0  0  0  0  0  0
    6.7483   19.8573    0.8557 C   0  0  0  0  0  0  0  0  0  0  0  0
    4.4031   19.9135    0.8469 C   0  0  0  0  0  0  0  0  0  0  0  0
    4.3104   20.1896   -1.6246 O   0  0  0  0  0  0  0  0  0  0  0  0
    4.3423   19.3398   -0.5045 C   0  0  0  0  0  0  0  0  0  0  0  0
    4.3165   18.1103   -0.7236 O   0  0  0  0  0  0  0  0  0  0  0  0
    5.0677   20.8565   -1.6847 H   0  0  0  0  0  0  0  0  0  0  0  0
   12.7462   23.8490    0.1450 C   0  0  0  0  0  0  0  0  0  0  0  0
   13.7363   23.7823    0.9189 O   0  0  0  0  0  0  0  0  0  0  0  0
   12.8409   24.3938   -1.1401 N   0  0  0  0  0  0  0  0  0  0  0  0
   11.9442   24.4084   -1.7113 H   0  0  0  0  0  0  0  0  0  0  0  0
   13.9706   24.9337   -1.7918 C   0  0  0  0  0  0  0  0  0  0  0  0
   15.2809   24.7263   -1.4285 C   0  0  0  0  0  0  0  0  0  0  0  0
   16.3252   25.3289   -2.1430 C   0  0  0  0  0  0  0  0  0  0  0  0
   16.1098   26.1464   -3.2269 C   0  0  0  0  0  0  0  0  0  0  0  0
   17.1506   26.7405   -3.9300 O   0  0  0  0  0  0  0  0  0  0  0  0
   16.8308   27.8994   -4.7173 C   0  0  0  0  0  0  0  0  0  0  0  0
   15.6327   27.4758   -5.5643 C   0  0  0  0  0  0  0  0  0  0  0  0
   14.5655   27.1861   -4.6966 O   0  0  0  0  0  0  0  0  0  0  0  0
   14.8009   26.3529   -3.5897 C   0  0  0  0  0  0  0  0  0  0  0  0
   13.7689   25.7694   -2.8994 C   0  0  0  0  0  0  0  0  0  0  0  0
 16 17  1  0  0  0
 17 18  2  0  0  0
 17 15  1  0  0  0
 15  8  1  0  0  0
  8  9  1  0  0  0
  9 10  1  0  0  0
 10 11  1  0  0  0
 11 12  1  0  0  0
 12 13  1  0  0  0
 13 14  1  0  0  0
 12  1  1  0  0  0
  1  2  2  0  0  0
  2  3  1  0  0  0
  3  4  2  0  0  0
  4  5  1  0  0  0
  5  6  2  0  0  0
  6  7  1  0  0  0
  4 20  1  0  0  0
 20 21  2  0  0  0
 20 22  1  0  0  0
 22 24  1  0  0  0
 24 25  2  0  0  0
 25 26  1  0  0  0
 26 27  2  0  0  0
 27 28  1  0  0  0
 28 29  1  0  0  0
 29 30  1  0  0  0
 30 31  1  0  0  0
 31 32  1  0  0  0
 32 33  2  0  0  0
 14  8  1  0  0  0
  6  1  1  0  0  0
 33 24  1  0  0  0
 32 27  1  0  0  0
 16 19  1  0  0  0
 22 23  1  0  0  0
M  END
> <minimizedAffinity>
-7.63988

> <CNNscore>
0.2065698504

> <CNNaffinity>
6.3128452301

> <CNN_VS>
1.3040435314

> <CNNaffinity_variance>
0.3771620393

$$$$
[H]c1c([H])c([H])c(C([H])([H])N(C(=O)N([H])C([H])([H])C([H])([H])n2c(C([H])(C([H])([H])[H])C([H])([H])[H])nc3c([H])c([H])c([H])c([H])c32)C([H])([H])[H])c([H])c1[H]


 27 29  0  0  0  0  0  0  0  0999 V2000
   11.2526   24.0721   -1.6660 C   0  0  0  0  0  0  0  0  0  0  0  0
   10.2459   23.7809   -0.7008 N   0  0  0  0  0  0  0  0  0  0  0  0
   10.4776   23.6451    0.6910 C   0  0  0  0  0  0  0  0  0  0  0  0
   11.6053   23.7706    1.2365 O   0  0  0  0  0  0  0  0  0  0  0  0
    9.4119   23.3474    1.5947 N   0  0  0  0  0  0  0  0  0  0  0  0
    8.0787   23.1858    1.0549 C   0  0  0  0  0  0  0  0  0  0  0  0
    9.2461   23.6527   -1.0182 H   0  0  0  0  0  0  0  0  0  0  0  0
    9.5917   23.1984    3.0194 C   0  0  0  0  0  0  0  0  0  0  0  0
    9.0082   24.3915    3.7034 C   0  0  0  0  0  0  0  0  0  0  0  0
    9.3126   25.6792    3.3118 C   0  0  0  0  0  0  0  0  0  0  0  0
    8.7537   26.7514    3.9684 C   0  0  0  0  0  0  0  0  0  0  0  0
    7.8789   26.6075    5.0289 C   0  0  0  0  0  0  0  0  0  0  0  0
    7.5711   25.3228    5.4247 C   0  0  0  0  0  0  0  0  0  0  0  0
    8.1336   24.2483    4.7639 C   0  0  0  0  0  0  0  0  0  0  0  0
   12.1823   25.2181   -1.2679 C   0  0  0  0  0  0  0  0  0  0  0  0
   14.5461   24.4332   -1.2830 C   0  0  0  0  0  0  0  0  0  0  0  0
   15.5995   24.6230   -2.1478 N   0  0  0  0  0  0  0  0  0  0  0  0
   15.1774   25.3844   -3.1631 C   0  0  0  0  0  0  0  0  0  0  0  0
   15.8270   25.8708   -4.2977 C   0  0  0  0  0  0  0  0  0  0  0  0
   15.1313   26.6497   -5.1975 C   0  0  0  0  0  0  0  0  0  0  0  0
   13.7871   26.9507   -4.9772 C   0  0  0  0  0  0  0  0  0  0  0  0
   13.1381   26.4746   -3.8596 C   0  0  0  0  0  0  0  0  0  0  0  0
   13.8477   25.6980   -2.9707 C   0  0  0  0  0  0  0  0  0  0  0  0
   13.5133   25.0777   -1.7847 N   0  0  0  0  0  0  0  0  0  0  0  0
   15.9382   23.6133    0.6441 C   0  0  0  0  0  0  0  0  0  0  0  0
   14.6577   23.6188   -0.0787 C   0  0  0  0  0  0  0  0  0  0  0  0
   14.2960   22.1792   -0.4377 C   0  0  0  0  0  0  0  0  0  0  0  0
 25 26  1  0  0  0
 26 27  1  0  0  0
 26 16  1  0  0  0
 16 17  2  0  0  0
 17 18  1  0  0  0
 18 19  2  0  0  0
 19 20  1  0  0  0
 20 21  2  0  0  0
 21 22  1  0  0  0
 22 23  2  0  0  0
 23 24  1  0  0  0
 24 15  1  0  0  0
 15  1  1  0  0  0
  1  2  1  0  0  0
  2  3  1  0  0  0
  3  4  2  0  0  0
  3  5  1  0  0  0
  5  6  1  0  0  0
  5  8  1  0  0  0
  8  9  1  0  0  0
  9 10  2  0  0  0
 10 11  1  0  0  0
 11 12  2  0  0  0
 12 13  1  0  0  0
 13 14  2  0  0  0
 24 16  1  0  0  0
 14  9  1  0  0  0
 23 18  1  0  0  0
  2  7  1  0  0  0
M  END
> <minimizedAffinity>
-7.77581

> <CNNscore>
0.7000268102

> <CNNaffinity>
6.9271659851

> <CNN_VS>
4.8492016792

> <CNNaffinity_variance>
0.1299861073

$$$$
[H]c1c([H])c([H])c(C([H])([H])N(C(=O)N([H])C([H])([H])C([H])([H])n2c(C([H])(C([H])([H])[H])C([H])([H])[H])nc3c([H])c([H])c([H])c([H])c32)C([H])([H])[H])c([H])c1[H]


 27 29  0  0  0  0  0  0  0  0999 V2000
   10.9539   24.3620   -1.3311 C   0  0  0  0  0  0  0  0  0  0  0  0
   10.1285   23.6980   -0.3784 N   0  0  0  0  0  0  0  0  0  0  0  0
   10.0937   23.9971    1.0067 C   0  0  0  0  0  0  0  0  0  0  0  0
   10.7896   24.8913    1.5556 O   0  0  0  0  0  0  0  0  0  0  0  0
    9.2388   23.2803    1.8990 N   0  0  0  0  0  0  0  0  0  0  0  0
    8.4015   22.2326    1.3547 C   0  0  0  0  0  0  0  0  0  0  0  0
    9.4861   22.9233   -0.7009 H   0  0  0  0  0  0  0  0  0  0  0  0
    9.1639   23.5434    3.3166 C   0  0  0  0  0  0  0  0  0  0  0  0
    8.5872   24.9062    3.5211 C   0  0  0  0  0  0  0  0  0  0  0  0
    7.4340   25.3146    2.8826 C   0  0  0  0  0  0  0  0  0  0  0  0
    6.9355   26.5787    3.0983 C   0  0  0  0  0  0  0  0  0  0  0  0
    7.5419   27.4894    3.9431 C   0  0  0  0  0  0  0  0  0  0  0  0
    8.6948   27.0867    4.5839 C   0  0  0  0  0  0  0  0  0  0  0  0
    9.1931   25.8173    4.3656 C   0  0  0  0  0  0  0  0  0  0  0  0
   12.3873   24.5966   -0.8550 C   0  0  0  0  0  0  0  0  0  0  0  0
   13.9348   22.7810   -1.5716 C   0  0  0  0  0  0  0  0  0  0  0  0
   14.8348   22.6595   -2.6053 N   0  0  0  0  0  0  0  0  0  0  0  0
   14.7979   23.7839   -3.3287 C   0  0  0  0  0  0  0  0  0  0  0  0
   15.4956   24.1836   -4.4685 C   0  0  0  0  0  0  0  0  0  0  0  0
   15.2507   25.4254   -5.0145 C   0  0  0  0  0  0  0  0  0  0  0  0
   14.3123   26.2782   -4.4332 C   0  0  0  0  0  0  0  0  0  0  0  0
   13.6190   25.8915   -3.3077 C   0  0  0  0  0  0  0  0  0  0  0  0
   13.8756   24.6478   -2.7749 C   0  0  0  0  0  0  0  0  0  0  0  0
   13.3735   23.9668   -1.6852 N   0  0  0  0  0  0  0  0  0  0  0  0
   14.7899   20.7607   -0.3426 C   0  0  0  0  0  0  0  0  0  0  0  0
   13.7017   21.7139   -0.6057 C   0  0  0  0  0  0  0  0  0  0  0  0
   12.4656   20.9315   -1.0441 C   0  0  0  0  0  0  0  0  0  0  0  0
 25 26  1  0  0  0
 26 27  1  0  0  0
 26 16  1  0  0  0
 16 17  2  0  0  0
 17 18  1  0  0  0
 18 19  2  0  0  0
 19 20  1  0  0  0
 20 21  2  0  0  0
 21 22  1  0  0  0
 22 23  2  0  0  0
 23 24  1  0  0  0
 24 15  1  0  0  0
 15  1  1  0  0  0
  1  2  1  0  0  0
  2  3  1  0  0  0
  3  4  2  0  0  0
  3  5  1  0  0  0
  5  6  1  0  0  0
  5  8  1  0  0  0
  8  9  1  0  0  0
  9 10  2  0  0  0
 10 11  1  0  0  0
 11 12  2  0  0  0
 12 13  1  0  0  0
 13 14  2  0  0  0
 24 16  1  0  0  0
 14  9  1  0  0  0
 23 18  1  0  0  0
  2  7  1  0  0  0
M  END
> <minimizedAffinity>
-8.64963

> <CNNscore>
0.6407062411

> <CNNaffinity>
6.6356863976

> <CNN_VS>
4.2515258789

> <CNNaffinity_variance>
0.1223955378

$$$$
[H]c1c([H])c([H])c(C([H])([H])N(C(=O)N([H])C([H])([H])C([H])([H])n2c(C([H])(C([H])([H])[H])C([H])([H])[H])nc3c([H])c([H])c([H])c([H])c32)C([H])([H])[H])c([H])c1[H]


 27 29  0  0  0  0  0  0  0  0999 V2000
   11.5913   24.8517   -1.3597 C   0  0  0  0  0  0  0  0  0  0  0  0
   10.6295   24.1441   -0.5824 N   0  0  0  0  0  0  0  0  0  0  0  0
   10.5007   24.2413    0.8258 C   0  0  0  0  0  0  0  0  0  0  0  0
   11.2234   24.9709    1.5542 O   0  0  0  0  0  0  0  0  0  0  0  0
    9.5102   23.4934    1.5333 N   0  0  0  0  0  0  0  0  0  0  0  0
    8.6331   22.6265    0.7756 C   0  0  0  0  0  0  0  0  0  0  0  0
    9.9508   23.4939   -1.0655 H   0  0  0  0  0  0  0  0  0  0  0  0
    9.3356   23.5545    2.9651 C   0  0  0  0  0  0  0  0  0  0  0  0
    8.7413   24.8785    3.3193 C   0  0  0  0  0  0  0  0  0  0  0  0
    9.2545   25.6617    4.3329 C   0  0  0  0  0  0  0  0  0  0  0  0
    8.6775   26.8755    4.6278 C   0  0  0  0  0  0  0  0  0  0  0  0
    7.5810   27.3692    3.9463 C   0  0  0  0  0  0  0  0  0  0  0  0
    7.0638   26.5907    2.9322 C   0  0  0  0  0  0  0  0  0  0  0  0
    7.6448   25.3728    2.6383 C   0  0  0  0  0  0  0  0  0  0  0  0
   12.6296   23.9537   -2.0316 C   0  0  0  0  0  0  0  0  0  0  0  0
   14.4696   25.3129   -3.0172 C   0  0  0  0  0  0  0  0  0  0  0  0
   15.7575   25.5898   -2.6195 N   0  0  0  0  0  0  0  0  0  0  0  0
   15.9780   24.9750   -1.4524 C   0  0  0  0  0  0  0  0  0  0  0  0
   17.0973   24.9238   -0.6215 C   0  0  0  0  0  0  0  0  0  0  0  0
   17.0423   24.1970    0.5485 C   0  0  0  0  0  0  0  0  0  0  0  0
   15.8767   23.5167    0.9014 C   0  0  0  0  0  0  0  0  0  0  0  0
   14.7670   23.5620    0.0867 C   0  0  0  0  0  0  0  0  0  0  0  0
   14.8388   24.2925   -1.0785 C   0  0  0  0  0  0  0  0  0  0  0  0
   13.9371   24.5413   -2.0925 N   0  0  0  0  0  0  0  0  0  0  0  0
   14.8052   26.2921   -5.3090 C   0  0  0  0  0  0  0  0  0  0  0  0
   13.8930   25.8569   -4.2410 C   0  0  0  0  0  0  0  0  0  0  0  0
   12.9895   27.0295   -3.8656 C   0  0  0  0  0  0  0  0  0  0  0  0
 25 26  1  0  0  0
 26 27  1  0  0  0
 26 16  1  0  0  0
 16 17  2  0  0  0
 17 18  1  0  0  0
 18 19  2  0  0  0
 19 20  1  0  0  0
 20 21  2  0  0  0
 21 22  1  0  0  0
 22 23  2  0  0  0
 23 24  1  0  0  0
 24 15  1  0  0  0
 15  1  1  0  0  0
  1  2  1  0  0  0
  2  3  1  0  0  0
  3  4  2  0  0  0
  3  5  1  0  0  0
  5  6  1  0  0  0
  5  8  1  0  0  0
  8  9  1  0  0  0
  9 10  2  0  0  0
 10 11  1  0  0  0
 11 12  2  0  0  0
 12 13  1  0  0  0
 13 14  2  0  0  0
 24 16  1  0  0  0
 14  9  1  0  0  0
 23 18  1  0  0  0
  2  7  1  0  0  0
M  END
> <minimizedAffinity>
-6.50912

> <CNNscore>
0.6018362045

> <CNNaffinity>
6.7872176170

> <CNN_VS>
4.0847930908

> <CNNaffinity_variance>
0.1317903399

$$$$
[H]c1c([H])c([H])c(C([H])([H])N(C(=O)N([H])C([H])([H])C([H])([H])n2c(C([H])(C([H])([H])[H])C([H])([H])[H])nc3c([H])c([H])c([H])c([H])c32)C([H])([H])[H])c([H])c1[H]


 27 29  0  0  0  0  0  0  0  0999 V2000
   10.7431   24.5525   -1.3132 C   0  0  0  0  0  0  0  0  0  0  0  0
    9.9543   23.8221   -0.3782 N   0  0  0  0  0  0  0  0  0  0  0  0
    9.9909   24.0070    1.0267 C   0  0  0  0  0  0  0  0  0  0  0  0
   10.7262   24.8451    1.6115 O   0  0  0  0  0  0  0  0  0  0  0  0
    9.1689   23.2293    1.8987 N   0  0  0  0  0  0  0  0  0  0  0  0
    8.2902   22.2396    1.3128 C   0  0  0  0  0  0  0  0  0  0  0  0
    9.2851   23.0840   -0.7306 H   0  0  0  0  0  0  0  0  0  0  0  0
    9.1665   23.3761    3.3349 C   0  0  0  0  0  0  0  0  0  0  0  0
    8.5602   24.6970    3.6806 C   0  0  0  0  0  0  0  0  0  0  0  0
    8.9415   25.4043    4.8024 C   0  0  0  0  0  0  0  0  0  0  0  0
    8.3582   26.6180    5.0852 C   0  0  0  0  0  0  0  0  0  0  0  0
    7.3836   27.1854    4.2859 C   0  0  0  0  0  0  0  0  0  0  0  0
    6.9986   26.4828    3.1634 C   0  0  0  0  0  0  0  0  0  0  0  0
    7.5856   25.2648    2.8818 C   0  0  0  0  0  0  0  0  0  0  0  0
   12.1145   24.9663   -0.7799 C   0  0  0  0  0  0  0  0  0  0  0  0
   14.0446   24.3433   -2.2259 C   0  0  0  0  0  0  0  0  0  0  0  0
   14.8533   23.2322   -2.2957 N   0  0  0  0  0  0  0  0  0  0  0  0
   14.4615   22.3677   -1.3534 C   0  0  0  0  0  0  0  0  0  0  0  0
   14.9307   21.1046   -0.9927 C   0  0  0  0  0  0  0  0  0  0  0  0
   14.3236   20.4239    0.0409 C   0  0  0  0  0  0  0  0  0  0  0  0
   13.2476   20.9921    0.7229 C   0  0  0  0  0  0  0  0  0  0  0  0
   12.7780   22.2388    0.3732 C   0  0  0  0  0  0  0  0  0  0  0  0
   13.3957   22.9052   -0.6617 C   0  0  0  0  0  0  0  0  0  0  0  0
   13.1839   24.1342   -1.2516 N   0  0  0  0  0  0  0  0  0  0  0  0
   13.0225   26.2045   -3.5731 C   0  0  0  0  0  0  0  0  0  0  0  0
   14.2215   25.4977   -3.0989 C   0  0  0  0  0  0  0  0  0  0  0  0
   15.0398   25.0608   -4.3121 C   0  0  0  0  0  0  0  0  0  0  0  0
 25 26  1  0  0  0
 26 27  1  0  0  0
 26 16  1  0  0  0
 16 17  2  0  0  0
 17 18  1  0  0  0
 18 19  2  0  0  0
 19 20  1  0  0  0
 20 21  2  0  0  0
 21 22  1  0  0  0
 22 23  2  0  0  0
 23 24  1  0  0  0
 24 15  1  0  0  0
 15  1  1  0  0  0
  1  2  1  0  0  0
  2  3  1  0  0  0
  3  4  2  0  0  0
  3  5  1  0  0  0
  5  6  1  0  0  0
  5  8  1  0  0  0
  8  9  1  0  0  0
  9 10  2  0  0  0
 10 11  1  0  0  0
 11 12  2  0  0  0
 12 13  1  0  0  0
 13 14  2  0  0  0
 24 16  1  0  0  0
 14  9  1  0  0  0
 23 18  1  0  0  0
  2  7  1  0  0  0
M  END
> <minimizedAffinity>
-7.35131

> <CNNscore>
0.5821493864

> <CNNaffinity>
6.6874909401

> <CNN_VS>
3.8931188583

> <CNNaffinity_variance>
0.0588168502

$$$$
[H]c1c([H])c([H])c(C([H])([H])N(C(=O)N([H])C([H])([H])C([H])([H])n2c(C([H])(C([H])([H])[H])C([H])([H])[H])nc3c([H])c([H])c([H])c([H])c32)C([H])([H])[H])c([H])c1[H]


 27 29  0  0  0  0  0  0  0  0999 V2000
   11.8657   24.7804    0.2340 C   0  0  0  0  0  0  0  0  0  0  0  0
   13.2550   24.8051   -0.0810 N   0  0  0  0  0  0  0  0  0  0  0  0
   13.7982   24.5163   -1.3580 C   0  0  0  0  0  0  0  0  0  0  0  0
   13.1106   24.2067   -2.3662 O   0  0  0  0  0  0  0  0  0  0  0  0
   15.2069   24.5592   -1.5917 N   0  0  0  0  0  0  0  0  0  0  0  0
   16.0759   24.9066   -0.4877 C   0  0  0  0  0  0  0  0  0  0  0  0
   13.9523   25.0541    0.6730 H   0  0  0  0  0  0  0  0  0  0  0  0
   15.8128   24.2742   -2.8708 C   0  0  0  0  0  0  0  0  0  0  0  0
   15.8792   25.5397   -3.6621 C   0  0  0  0  0  0  0  0  0  0  0  0
   16.6392   26.6168   -3.2544 C   0  0  0  0  0  0  0  0  0  0  0  0
   16.6733   27.7647   -4.0122 C   0  0  0  0  0  0  0  0  0  0  0  0
   15.9688   27.9041   -5.1933 C   0  0  0  0  0  0  0  0  0  0  0  0
   15.2074   26.8307   -5.6056 C   0  0  0  0  0  0  0  0  0  0  0  0
   15.1750   25.6797   -4.8431 C   0  0  0  0  0  0  0  0  0  0  0  0
   11.2214   23.4014    0.0949 C   0  0  0  0  0  0  0  0  0  0  0  0
   12.6912   21.5982    0.9851 C   0  0  0  0  0  0  0  0  0  0  0  0
   12.7150   20.8963    2.1685 N   0  0  0  0  0  0  0  0  0  0  0  0
   11.7216   21.3454    2.9432 C   0  0  0  0  0  0  0  0  0  0  0  0
   11.3023   20.9868    4.2244 C   0  0  0  0  0  0  0  0  0  0  0  0
   10.2242   21.6317    4.7918 C   0  0  0  0  0  0  0  0  0  0  0  0
    9.5556   22.6361    4.0919 C   0  0  0  0  0  0  0  0  0  0  0  0
    9.9630   22.9964    2.8265 C   0  0  0  0  0  0  0  0  0  0  0  0
   11.0417   22.3422    2.2742 C   0  0  0  0  0  0  0  0  0  0  0  0
   11.6921   22.4525    1.0626 N   0  0  0  0  0  0  0  0  0  0  0  0
   13.2840   20.5140   -1.2050 C   0  0  0  0  0  0  0  0  0  0  0  0
   13.6652   21.3771   -0.0772 C   0  0  0  0  0  0  0  0  0  0  0  0
   14.9417   20.8213    0.5504 C   0  0  0  0  0  0  0  0  0  0  0  0
 25 26  1  0  0  0
 26 27  1  0  0  0
 26 16  1  0  0  0
 16 17  2  0  0  0
 17 18  1  0  0  0
 18 19  2  0  0  0
 19 20  1  0  0  0
 20 21  2  0  0  0
 21 22  1  0  0  0
 22 23  2  0  0  0
 23 24  1  0  0  0
 24 15  1  0  0  0
 15  1  1  0  0  0
  1  2  1  0  0  0
  2  3  1  0  0  0
  3  4  2  0  0  0
  3  5  1  0  0  0
  5  6  1  0  0  0
  5  8  1  0  0  0
  8  9  1  0  0  0
  9 10  2  0  0  0
 10 11  1  0  0  0
 11 12  2  0  0  0
 12 13  1  0  0  0
 13 14  2  0  0  0
 24 16  1  0  0  0
 14  9  1  0  0  0
 23 18  1  0  0  0
  2  7  1  0  0  0
M  END
> <minimizedAffinity>
-9.09757

> <CNNscore>
0.5293049216

> <CNNaffinity>
7.0941338539

> <CNN_VS>
3.7549600601

> <CNNaffinity_variance>
0.0582924113

$$$$
[H]c1c([H])c([H])c(C([H])([H])N(C(=O)N([H])C([H])([H])C([H])([H])n2c(C([H])(C([H])([H])[H])C([H])([H])[H])nc3c([H])c([H])c([H])c([H])c32)C([H])([H])[H])c([H])c1[H]


 27 29  0  0  0  0  0  0  0  0999 V2000
   10.9919   24.5489   -1.3309 C   0  0  0  0  0  0  0  0  0  0  0  0
   10.2003   23.6069   -0.6126 N   0  0  0  0  0  0  0  0  0  0  0  0
   10.1154   23.5354    0.8005 C   0  0  0  0  0  0  0  0  0  0  0  0
   10.7306   24.3029    1.5865 O   0  0  0  0  0  0  0  0  0  0  0  0
    9.2996   22.5562    1.4459 N   0  0  0  0  0  0  0  0  0  0  0  0
    8.5550   21.6301    0.6196 C   0  0  0  0  0  0  0  0  0  0  0  0
    9.6248   22.9000   -1.1472 H   0  0  0  0  0  0  0  0  0  0  0  0
    9.1769   22.4388    2.8796 C   0  0  0  0  0  0  0  0  0  0  0  0
   10.0352   21.3072    3.3429 C   0  0  0  0  0  0  0  0  0  0  0  0
    9.7327   20.5768    4.4739 C   0  0  0  0  0  0  0  0  0  0  0  0
   10.5495   19.5416    4.8669 C   0  0  0  0  0  0  0  0  0  0  0  0
   11.6892   19.1813    4.1726 C   0  0  0  0  0  0  0  0  0  0  0  0
   11.9964   19.9079    3.0413 C   0  0  0  0  0  0  0  0  0  0  0  0
   11.1748   20.9464    2.6491 C   0  0  0  0  0  0  0  0  0  0  0  0
   12.4275   24.6714   -0.8208 C   0  0  0  0  0  0  0  0  0  0  0  0
   13.9067   22.7920   -1.5164 C   0  0  0  0  0  0  0  0  0  0  0  0
   14.7942   22.6221   -2.5542 N   0  0  0  0  0  0  0  0  0  0  0  0
   14.7900   23.7344   -3.2968 C   0  0  0  0  0  0  0  0  0  0  0  0
   15.4922   24.0903   -4.4483 C   0  0  0  0  0  0  0  0  0  0  0  0
   15.2856   25.3302   -5.0142 C   0  0  0  0  0  0  0  0  0  0  0  0
   14.3812   26.2244   -4.4413 C   0  0  0  0  0  0  0  0  0  0  0  0
   13.6837   25.8811   -3.3043 C   0  0  0  0  0  0  0  0  0  0  0  0
   13.9020   24.6387   -2.7517 C   0  0  0  0  0  0  0  0  0  0  0  0
   13.3853   23.9941   -1.6468 N   0  0  0  0  0  0  0  0  0  0  0  0
   14.7281   20.8117   -0.2021 C   0  0  0  0  0  0  0  0  0  0  0  0
   13.6448   21.7502   -0.5304 C   0  0  0  0  0  0  0  0  0  0  0  0
   12.4297   20.9481   -0.9912 C   0  0  0  0  0  0  0  0  0  0  0  0
 25 26  1  0  0  0
 26 27  1  0  0  0
 26 16  1  0  0  0
 16 17  2  0  0  0
 17 18  1  0  0  0
 18 19  2  0  0  0
 19 20  1  0  0  0
 20 21  2  0  0  0
 21 22  1  0  0  0
 22 23  2  0  0  0
 23 24  1  0  0  0
 24 15  1  0  0  0
 15  1  1  0  0  0
  1  2  1  0  0  0
  2  3  1  0  0  0
  3  4  2  0  0  0
  3  5  1  0  0  0
  5  6  1  0  0  0
  5  8  1  0  0  0
  8  9  1  0  0  0
  9 10  2  0  0  0
 10 11  1  0  0  0
 11 12  2  0  0  0
 12 13  1  0  0  0
 13 14  2  0  0  0
 24 16  1  0  0  0
 14  9  1  0  0  0
 23 18  1  0  0  0
  2  7  1  0  0  0
M  END
> <minimizedAffinity>
-8.67778

> <CNNscore>
0.4890116155

> <CNNaffinity>
6.6749639511

> <CNN_VS>
3.2641348839

> <CNNaffinity_variance>
0.2864635587

$$$$
[H]c1c([H])c([H])c(C([H])([H])N(C(=O)N([H])C([H])([H])C([H])([H])n2c(C([H])(C([H])([H])[H])C([H])([H])[H])nc3c([H])c([H])c([H])c([H])c32)C([H])([H])[H])c([H])c1[H]


 27 29  0  0  0  0  0  0  0  0999 V2000
   11.0327   24.5471   -1.1861 C   0  0  0  0  0  0  0  0  0  0  0  0
   10.3052   23.4664   -0.6095 N   0  0  0  0  0  0  0  0  0  0  0  0
   10.3790   23.0793    0.7521 C   0  0  0  0  0  0  0  0  0  0  0  0
   11.0974   23.6521    1.6129 O   0  0  0  0  0  0  0  0  0  0  0  0
    9.6183   21.9785    1.2526 N   0  0  0  0  0  0  0  0  0  0  0  0
    8.7629   21.2600    0.3322 C   0  0  0  0  0  0  0  0  0  0  0  0
    9.6561   22.8962   -1.2181 H   0  0  0  0  0  0  0  0  0  0  0  0
    9.6558   21.5421    2.6282 C   0  0  0  0  0  0  0  0  0  0  0  0
    8.9004   22.5240    3.4632 C   0  0  0  0  0  0  0  0  0  0  0  0
    7.6223   22.9293    3.1369 C   0  0  0  0  0  0  0  0  0  0  0  0
    6.9607   23.8359    3.9327 C   0  0  0  0  0  0  0  0  0  0  0  0
    7.5200   24.3796    5.0739 C   0  0  0  0  0  0  0  0  0  0  0  0
    8.7972   23.9782    5.4048 C   0  0  0  0  0  0  0  0  0  0  0  0
    9.4591   23.0680    4.6043 C   0  0  0  0  0  0  0  0  0  0  0  0
   12.4830   24.6424   -0.7130 C   0  0  0  0  0  0  0  0  0  0  0  0
   13.9215   22.7599   -1.4818 C   0  0  0  0  0  0  0  0  0  0  0  0
   14.7771   22.5983   -2.5473 N   0  0  0  0  0  0  0  0  0  0  0  0
   14.7636   23.7229   -3.2711 C   0  0  0  0  0  0  0  0  0  0  0  0
   15.4363   24.0908   -4.4363 C   0  0  0  0  0  0  0  0  0  0  0  0
   15.2269   25.3420   -4.9756 C   0  0  0  0  0  0  0  0  0  0  0  0
   14.3489   26.2358   -4.3622 C   0  0  0  0  0  0  0  0  0  0  0  0
   13.6806   25.8806   -3.2114 C   0  0  0  0  0  0  0  0  0  0  0  0
   13.9012   24.6269   -2.6858 C   0  0  0  0  0  0  0  0  0  0  0  0
   13.4095   23.9693   -1.5773 N   0  0  0  0  0  0  0  0  0  0  0  0
   14.8184   20.8988   -0.0481 C   0  0  0  0  0  0  0  0  0  0  0  0
   13.6768   21.7045   -0.5059 C   0  0  0  0  0  0  0  0  0  0  0  0
   12.6145   20.7646   -1.0719 C   0  0  0  0  0  0  0  0  0  0  0  0
 25 26  1  0  0  0
 26 27  1  0  0  0
 26 16  1  0  0  0
 16 17  2  0  0  0
 17 18  1  0  0  0
 18 19  2  0  0  0
 19 20  1  0  0  0
 20 21  2  0  0  0
 21 22  1  0  0  0
 22 23  2  0  0  0
 23 24  1  0  0  0
 24 15  1  0  0  0
 15  1  1  0  0  0
  1  2  1  0  0  0
  2  3  1  0  0  0
  3  4  2  0  0  0
  3  5  1  0  0  0
  5  6  1  0  0  0
  5  8  1  0  0  0
  8  9  1  0  0  0
  9 10  2  0  0  0
 10 11  1  0  0  0
 11 12  2  0  0  0
 12 13  1  0  0  0
 13 14  2  0  0  0
 24 16  1  0  0  0
 14  9  1  0  0  0
 23 18  1  0  0  0
  2  7  1  0  0  0
M  END
> <minimizedAffinity>
-8.02119

> <CNNscore>
0.4572610259

> <CNNaffinity>
6.5916137695

> <CNN_VS>
3.0140881538

> <CNNaffinity_variance>
0.1037960425

$$$$
[H]c1c([H])c([H])c(C([H])([H])N(C(=O)N([H])C([H])([H])C([H])([H])n2c(C([H])(C([H])([H])[H])C([H])([H])[H])nc3c([H])c([H])c([H])c([H])c32)C([H])([H])[H])c([H])c1[H]


 27 29  0  0  0  0  0  0  0  0999 V2000
   14.7266   22.4304    0.1658 C   0  0  0  0  0  0  0  0  0  0  0  0
   14.5083   22.9105   -1.1577 N   0  0  0  0  0  0  0  0  0  0  0  0
   14.2703   24.2665   -1.4953 C   0  0  0  0  0  0  0  0  0  0  0  0
   14.2281   25.2072   -0.6595 O   0  0  0  0  0  0  0  0  0  0  0  0
   14.0561   24.6670   -2.8497 N   0  0  0  0  0  0  0  0  0  0  0  0
   14.0872   23.6504   -3.8796 C   0  0  0  0  0  0  0  0  0  0  0  0
   14.5200   22.2279   -1.9644 H   0  0  0  0  0  0  0  0  0  0  0  0
   13.8095   26.0323   -3.2489 C   0  0  0  0  0  0  0  0  0  0  0  0
   15.1187   26.6900   -3.5410 C   0  0  0  0  0  0  0  0  0  0  0  0
   15.3711   27.3105   -4.7474 C   0  0  0  0  0  0  0  0  0  0  0  0
   16.5907   27.9048   -4.9768 C   0  0  0  0  0  0  0  0  0  0  0  0
   17.6070   27.9159   -4.0399 C   0  0  0  0  0  0  0  0  0  0  0  0
   17.3602   27.2972   -2.8323 C   0  0  0  0  0  0  0  0  0  0  0  0
   16.1353   26.7014   -2.6046 C   0  0  0  0  0  0  0  0  0  0  0  0
   13.6076   22.7804    1.1463 C   0  0  0  0  0  0  0  0  0  0  0  0
   11.4018   23.6535    0.3869 C   0  0  0  0  0  0  0  0  0  0  0  0
   10.2992   23.0642   -0.1878 N   0  0  0  0  0  0  0  0  0  0  0  0
   10.5541   21.7608   -0.3459 C   0  0  0  0  0  0  0  0  0  0  0  0
    9.7917   20.7180   -0.8722 C   0  0  0  0  0  0  0  0  0  0  0  0
   10.3180   19.4445   -0.9124 C   0  0  0  0  0  0  0  0  0  0  0  0
   11.6038   19.1979   -0.4308 C   0  0  0  0  0  0  0  0  0  0  0  0
   12.3633   20.2219    0.0905 C   0  0  0  0  0  0  0  0  0  0  0  0
   11.8225   21.4880    0.1233 C   0  0  0  0  0  0  0  0  0  0  0  0
   12.2976   22.7051    0.5661 N   0  0  0  0  0  0  0  0  0  0  0  0
   12.7618   25.6537    1.0750 C   0  0  0  0  0  0  0  0  0  0  0  0
   11.4690   25.0823    0.6697 C   0  0  0  0  0  0  0  0  0  0  0  0
   10.4351   25.4076    1.7455 C   0  0  0  0  0  0  0  0  0  0  0  0
 25 26  1  0  0  0
 26 27  1  0  0  0
 26 16  1  0  0  0
 16 17  2  0  0  0
 17 18  1  0  0  0
 18 19  2  0  0  0
 19 20  1  0  0  0
 20 21  2  0  0  0
 21 22  1  0  0  0
 22 23  2  0  0  0
 23 24  1  0  0  0
 24 15  1  0  0  0
 15  1  1  0  0  0
  1  2  1  0  0  0
  2  3  1  0  0  0
  3  4  2  0  0  0
  3  5  1  0  0  0
  5  6  1  0  0  0
  5  8  1  0  0  0
  8  9  1  0  0  0
  9 10  2  0  0  0
 10 11  1  0  0  0
 11 12  2  0  0  0
 12 13  1  0  0  0
 13 14  2  0  0  0
 24 16  1  0  0  0
 14  9  1  0  0  0
 23 18  1  0  0  0
  2  7  1  0  0  0
M  END
> <minimizedAffinity>
-0.55288

> <CNNscore>
0.4323177338

> <CNNaffinity>
6.7320203781

> <CNN_VS>
2.9103717804

> <CNNaffinity_variance>
0.3498975635

$$$$
[H]c1c([H])c([H])c(C([H])([H])N(C(=O)N([H])C([H])([H])C([H])([H])n2c(C([H])(C([H])([H])[H])C([H])([H])[H])nc3c([H])c([H])c([H])c([H])c32)C([H])([H])[H])c([H])c1[H]


 27 29  0  0  0  0  0  0  0  0999 V2000
   13.2459   20.9920    0.8784 C   0  0  0  0  0  0  0  0  0  0  0  0
   13.7876   21.5956   -0.2930 N   0  0  0  0  0  0  0  0  0  0  0  0
   14.4015   22.8726   -0.3325 C   0  0  0  0  0  0  0  0  0  0  0  0
   14.5422   23.6219    0.6695 O   0  0  0  0  0  0  0  0  0  0  0  0
   14.9175   23.4100   -1.5515 N   0  0  0  0  0  0  0  0  0  0  0  0
   14.7993   22.6165   -2.7562 C   0  0  0  0  0  0  0  0  0  0  0  0
   13.7421   21.0753   -1.2117 H   0  0  0  0  0  0  0  0  0  0  0  0
   15.5514   24.7035   -1.6483 C   0  0  0  0  0  0  0  0  0  0  0  0
   14.9898   25.4251   -2.8297 C   0  0  0  0  0  0  0  0  0  0  0  0
   13.6942   25.8997   -2.8474 C   0  0  0  0  0  0  0  0  0  0  0  0
   13.2150   26.5593   -3.9557 C   0  0  0  0  0  0  0  0  0  0  0  0
   13.9804   26.7801   -5.0854 C   0  0  0  0  0  0  0  0  0  0  0  0
   15.2761   26.3079   -5.0734 C   0  0  0  0  0  0  0  0  0  0  0  0
   15.7545   25.6461   -3.9596 C   0  0  0  0  0  0  0  0  0  0  0  0
   11.7419   20.7300    0.8038 C   0  0  0  0  0  0  0  0  0  0  0  0
   10.4073   22.8229    1.0112 C   0  0  0  0  0  0  0  0  0  0  0  0
    9.7796   23.4428    2.0672 N   0  0  0  0  0  0  0  0  0  0  0  0
    9.9638   22.6968    3.1619 C   0  0  0  0  0  0  0  0  0  0  0  0
    9.5467   22.8593    4.4830 C   0  0  0  0  0  0  0  0  0  0  0  0
    9.8883   21.9125    5.4248 C   0  0  0  0  0  0  0  0  0  0  0  0
   10.6457   20.7987    5.0617 C   0  0  0  0  0  0  0  0  0  0  0  0
   11.0617   20.6305    3.7595 C   0  0  0  0  0  0  0  0  0  0  0  0
   10.7119   21.5857    2.8312 C   0  0  0  0  0  0  0  0  0  0  0  0
   10.9566   21.7220    1.4804 N   0  0  0  0  0  0  0  0  0  0  0  0
   10.6717   22.4510   -1.4618 C   0  0  0  0  0  0  0  0  0  0  0  0
   10.3753   23.3595   -0.3442 C   0  0  0  0  0  0  0  0  0  0  0  0
   11.3355   24.5450   -0.4137 C   0  0  0  0  0  0  0  0  0  0  0  0
 25 26  1  0  0  0
 26 27  1  0  0  0
 26 16  1  0  0  0
 16 17  2  0  0  0
 17 18  1  0  0  0
 18 19  2  0  0  0
 19 20  1  0  0  0
 20 21  2  0  0  0
 21 22  1  0  0  0
 22 23  2  0  0  0
 23 24  1  0  0  0
 24 15  1  0  0  0
 15  1  1  0  0  0
  1  2  1  0  0  0
  2  3  1  0  0  0
  3  4  2  0  0  0
  3  5  1  0  0  0
  5  6  1  0  0  0
  5  8  1  0  0  0
  8  9  1  0  0  0
  9 10  2  0  0  0
 10 11  1  0  0  0
 11 12  2  0  0  0
 12 13  1  0  0  0
 13 14  2  0  0  0
 24 16  1  0  0  0
 14  9  1  0  0  0
 23 18  1  0  0  0
  2  7  1  0  0  0
M  END
> <minimizedAffinity>
-8.18860

> <CNNscore>
0.4257152975

> <CNNaffinity>
6.9774446487

> <CNN_VS>
2.9704048634

> <CNNaffinity_variance>
0.0157394018

$$$$
[H]OC(=O)c1c([H])c([H])c(-c2c([H])c([H])c(N3C(=O)c4c([H])c([H])c([H])c5c([H])c([H])c([H])c(c45)C3=O)c([H])c2[H])c([H])c1O[H]


 33 37  0  0  0  0  0  0  0  0999 V2000
   13.5831   24.3200   -2.4432 C   0  0  0  0  0  0  0  0  0  0  0  0
   12.8292   25.0501   -1.5478 C   0  0  0  0  0  0  0  0  0  0  0  0
   12.2337   24.4548   -0.4319 C   0  0  0  0  0  0  0  0  0  0  0  0
   12.3876   23.1057   -0.1953 C   0  0  0  0  0  0  0  0  0  0  0  0
   13.1513   22.3889   -1.1100 C   0  0  0  0  0  0  0  0  0  0  0  0
   13.7395   22.9739   -2.2117 C   0  0  0  0  0  0  0  0  0  0  0  0
   11.7811   22.4995    0.9361 N   0  0  0  0  0  0  0  0  0  0  0  0
   12.2710   21.3365    1.5907 C   0  0  0  0  0  0  0  0  0  0  0  0
   13.3053   20.8016    1.1524 O   0  0  0  0  0  0  0  0  0  0  0  0
   11.6162   20.7424    2.7531 C   0  0  0  0  0  0  0  0  0  0  0  0
   12.0949   19.6168    3.3826 C   0  0  0  0  0  0  0  0  0  0  0  0
   11.5118   19.0245    4.4780 C   0  0  0  0  0  0  0  0  0  0  0  0
   10.3482   19.6298    4.9688 C   0  0  0  0  0  0  0  0  0  0  0  0
    9.8472   20.7575    4.3573 C   0  0  0  0  0  0  0  0  0  0  0  0
    8.6857   21.3266    4.8809 C   0  0  0  0  0  0  0  0  0  0  0  0
    8.1559   22.4489    4.3019 C   0  0  0  0  0  0  0  0  0  0  0  0
    8.7878   23.0003    3.2013 C   0  0  0  0  0  0  0  0  0  0  0  0
    9.9361   22.4645    2.6590 C   0  0  0  0  0  0  0  0  0  0  0  0
   10.5845   23.0628    1.4984 C   0  0  0  0  0  0  0  0  0  0  0  0
   10.1239   24.0929    0.9446 O   0  0  0  0  0  0  0  0  0  0  0  0
   10.4545   21.3344    3.2548 C   0  0  0  0  0  0  0  0  0  0  0  0
   15.3772   26.2307   -5.8246 C   0  0  0  0  0  0  0  0  0  0  0  0
   15.3622   24.8577   -5.7024 C   0  0  0  0  0  0  0  0  0  0  0  0
   14.7873   24.2203   -4.6182 C   0  0  0  0  0  0  0  0  0  0  0  0
   14.1977   24.9440   -3.6020 C   0  0  0  0  0  0  0  0  0  0  0  0
   14.2083   26.3150   -3.7162 C   0  0  0  0  0  0  0  0  0  0  0  0
   14.7894   26.9542   -4.8121 C   0  0  0  0  0  0  0  0  0  0  0  0
   14.7777   28.3380   -4.8877 O   0  0  0  0  0  0  0  0  0  0  0  0
   14.3599   28.9183   -4.1706 H   0  0  0  0  0  0  0  0  0  0  0  0
   16.8091   26.2717   -7.8702 O   0  0  0  0  0  0  0  0  0  0  0  0
   15.9848   26.9150   -6.9662 C   0  0  0  0  0  0  0  0  0  0  0  0
   15.7572   28.1358   -7.1434 O   0  0  0  0  0  0  0  0  0  0  0  0
   17.7021   25.8672   -7.5598 H   0  0  0  0  0  0  0  0  0  0  0  0
 30 31  1  0  0  0
 31 32  2  0  0  0
 31 22  1  0  0  0
 22 23  2  0  0  0
 23 24  1  0  0  0
 24 25  2  0  0  0
 25 26  1  0  0  0
 26 27  2  0  0  0
 27 28  1  0  0  0
 25  1  1  0  0  0
  1  2  2  0  0  0
  2  3  1  0  0  0
  3  4  2  0  0  0
  4  5  1  0  0  0
  5  6  2  0  0  0
  4  7  1  0  0  0
  7  8  1  0  0  0
  8  9  2  0  0  0
  8 10  1  0  0  0
 10 11  2  0  0  0
 11 12  1  0  0  0
 12 13  2  0  0  0
 13 14  1  0  0  0
 14 15  2  0  0  0
 15 16  1  0  0  0
 16 17  2  0  0  0
 17 18  1  0  0  0
 18 19  1  0  0  0
 19 20  2  0  0  0
 18 21  2  0  0  0
 27 22  1  0  0  0
  6  1  1  0  0  0
 19  7  1  0  0  0
 21 10  1  0  0  0
 21 14  1  0  0  0
 30 33  1  0  0  0
 28 29  1  0  0  0
M  END
> <minimizedAffinity>
-8.11949

> <CNNscore>
0.4565814137

> <CNNaffinity>
6.5597281456

> <CNN_VS>
2.9950499535

> <CNNaffinity_variance>
0.2171744853

$$$$
[H]OC(=O)c1c([H])c([H])c(-c2c([H])c([H])c(N3C(=O)c4c([H])c([H])c([H])c5c([H])c([H])c([H])c(c45)C3=O)c([H])c2[H])c([H])c1O[H]


 33 37  0  0  0  0  0  0  0  0999 V2000
   13.5657   25.0097   -3.0655 C   0  0  0  0  0  0  0  0  0  0  0  0
   14.0397   23.8322   -2.5252 C   0  0  0  0  0  0  0  0  0  0  0  0
   13.3725   23.1809   -1.4836 C   0  0  0  0  0  0  0  0  0  0  0  0
   12.2087   23.7059   -0.9642 C   0  0  0  0  0  0  0  0  0  0  0  0
   11.7487   24.8930   -1.5235 C   0  0  0  0  0  0  0  0  0  0  0  0
   12.4053   25.5375   -2.5508 C   0  0  0  0  0  0  0  0  0  0  0  0
   11.5317   23.0468    0.0953 N   0  0  0  0  0  0  0  0  0  0  0  0
   12.1732   22.3963    1.1846 C   0  0  0  0  0  0  0  0  0  0  0  0
   13.4168   22.3977    1.2259 O   0  0  0  0  0  0  0  0  0  0  0  0
   11.4396   21.7278    2.2558 C   0  0  0  0  0  0  0  0  0  0  0  0
   12.0658   21.0998    3.3075 C   0  0  0  0  0  0  0  0  0  0  0  0
   11.4159   20.4592    4.3361 C   0  0  0  0  0  0  0  0  0  0  0  0
   10.0164   20.4603    4.2864 C   0  0  0  0  0  0  0  0  0  0  0  0
    9.3641   21.0814    3.2446 C   0  0  0  0  0  0  0  0  0  0  0  0
    7.9689   21.0574    3.2367 C   0  0  0  0  0  0  0  0  0  0  0  0
    7.2828   21.6642    2.2185 C   0  0  0  0  0  0  0  0  0  0  0  0
    7.9919   22.2937    1.2108 C   0  0  0  0  0  0  0  0  0  0  0  0
    9.3694   22.3367    1.1879 C   0  0  0  0  0  0  0  0  0  0  0  0
   10.0953   23.0058    0.1151 C   0  0  0  0  0  0  0  0  0  0  0  0
    9.4952   23.5724   -0.8329 O   0  0  0  0  0  0  0  0  0  0  0  0
   10.0430   21.7201    2.2206 C   0  0  0  0  0  0  0  0  0  0  0  0
   15.6373   27.0552   -6.2005 C   0  0  0  0  0  0  0  0  0  0  0  0
   15.1517   25.7773   -6.3779 C   0  0  0  0  0  0  0  0  0  0  0  0
   14.4791   25.0988   -5.3782 C   0  0  0  0  0  0  0  0  0  0  0  0
   14.2647   25.6828   -4.1465 C   0  0  0  0  0  0  0  0  0  0  0  0
   14.7461   26.9582   -3.9610 C   0  0  0  0  0  0  0  0  0  0  0  0
   15.4241   27.6394   -4.9727 C   0  0  0  0  0  0  0  0  0  0  0  0
   15.8923   28.9235   -4.7437 O   0  0  0  0  0  0  0  0  0  0  0  0
   15.7637   29.3995   -3.8592 H   0  0  0  0  0  0  0  0  0  0  0  0
   16.8816   27.1547   -8.3634 O   0  0  0  0  0  0  0  0  0  0  0  0
   16.3522   27.7809   -7.2507 C   0  0  0  0  0  0  0  0  0  0  0  0
   16.4984   29.0227   -7.1495 O   0  0  0  0  0  0  0  0  0  0  0  0
   17.6256   26.4528   -8.2576 H   0  0  0  0  0  0  0  0  0  0  0  0
 30 31  1  0  0  0
 31 32  2  0  0  0
 31 22  1  0  0  0
 22 23  2  0  0  0
 23 24  1  0  0  0
 24 25  2  0  0  0
 25 26  1  0  0  0
 26 27  2  0  0  0
 27 28  1  0  0  0
 25  1  1  0  0  0
  1  2  2  0  0  0
  2  3  1  0  0  0
  3  4  2  0  0  0
  4  5  1  0  0  0
  5  6  2  0  0  0
  4  7  1  0  0  0
  7  8  1  0  0  0
  8  9  2  0  0  0
  8 10  1  0  0  0
 10 11  2  0  0  0
 11 12  1  0  0  0
 12 13  2  0  0  0
 13 14  1  0  0  0
 14 15  2  0  0  0
 15 16  1  0  0  0
 16 17  2  0  0  0
 17 18  1  0  0  0
 18 19  1  0  0  0
 19 20  2  0  0  0
 18 21  2  0  0  0
 27 22  1  0  0  0
  6  1  1  0  0  0
 19  7  1  0  0  0
 21 10  1  0  0  0
 21 14  1  0  0  0
 30 33  1  0  0  0
 28 29  1  0  0  0
M  END
> <minimizedAffinity>
-3.94433

> <CNNscore>
0.4238239229

> <CNNaffinity>
6.5568213463

> <CNN_VS>
2.7789378166

> <CNNaffinity_variance>
0.5901100636

$$$$
[H]OC(=O)c1c([H])c([H])c(-c2c([H])c([H])c(N3C(=O)c4c([H])c([H])c([H])c5c([H])c([H])c([H])c(c45)C3=O)c([H])c2[H])c([H])c1O[H]


 33 37  0  0  0  0  0  0  0  0999 V2000
   11.4642   22.9517    0.5900 C   0  0  0  0  0  0  0  0  0  0  0  0
   10.8307   23.7556   -0.3350 C   0  0  0  0  0  0  0  0  0  0  0  0
   11.5281   24.3533   -1.3888 C   0  0  0  0  0  0  0  0  0  0  0  0
   12.8840   24.1509   -1.5319 C   0  0  0  0  0  0  0  0  0  0  0  0
   13.5024   23.3372   -0.5889 C   0  0  0  0  0  0  0  0  0  0  0  0
   12.8165   22.7468    0.4517 C   0  0  0  0  0  0  0  0  0  0  0  0
   13.5939   24.7595   -2.6001 N   0  0  0  0  0  0  0  0  0  0  0  0
   13.6616   26.1605   -2.8321 C   0  0  0  0  0  0  0  0  0  0  0  0
   13.0614   26.9199   -2.0503 O   0  0  0  0  0  0  0  0  0  0  0  0
   14.4030   26.7477   -3.9448 C   0  0  0  0  0  0  0  0  0  0  0  0
   14.4650   28.1043   -4.1644 C   0  0  0  0  0  0  0  0  0  0  0  0
   15.1500   28.6998   -5.1974 C   0  0  0  0  0  0  0  0  0  0  0  0
   15.8246   27.8419   -6.0749 C   0  0  0  0  0  0  0  0  0  0  0  0
   15.7789   26.4796   -5.8783 C   0  0  0  0  0  0  0  0  0  0  0  0
   16.4664   25.6636   -6.7775 C   0  0  0  0  0  0  0  0  0  0  0  0
   16.4461   24.3037   -6.6163 C   0  0  0  0  0  0  0  0  0  0  0  0
   15.7395   23.7622   -5.5571 C   0  0  0  0  0  0  0  0  0  0  0  0
   15.0502   24.5386   -4.6505 C   0  0  0  0  0  0  0  0  0  0  0  0
   14.3120   23.9455   -3.5420 C   0  0  0  0  0  0  0  0  0  0  0  0
   14.2744   22.7015   -3.3662 O   0  0  0  0  0  0  0  0  0  0  0  0
   15.0814   25.9053   -4.8291 C   0  0  0  0  0  0  0  0  0  0  0  0
    9.2454   21.1452    3.7708 C   0  0  0  0  0  0  0  0  0  0  0  0
   10.6185   21.2532    3.8268 C   0  0  0  0  0  0  0  0  0  0  0  0
   11.3544   21.8339    2.8102 C   0  0  0  0  0  0  0  0  0  0  0  0
   10.7342   22.3350    1.6840 C   0  0  0  0  0  0  0  0  0  0  0  0
    9.3638   22.2313    1.6201 C   0  0  0  0  0  0  0  0  0  0  0  0
    8.6249   21.6448    2.6484 C   0  0  0  0  0  0  0  0  0  0  0  0
    7.2456   21.5611    2.5437 O   0  0  0  0  0  0  0  0  0  0  0  0
    6.7390   21.9115    1.7400 H   0  0  0  0  0  0  0  0  0  0  0  0
    8.6371   19.2203    5.2409 O   0  0  0  0  0  0  0  0  0  0  0  0
    8.4576   20.5307    4.8397 C   0  0  0  0  0  0  0  0  0  0  0  0
    7.5794   21.2096    5.4241 O   0  0  0  0  0  0  0  0  0  0  0  0
    8.4604   18.4489    4.5842 H   0  0  0  0  0  0  0  0  0  0  0  0
 30 31  1  0  0  0
 31 32  2  0  0  0
 31 22  1  0  0  0
 22 23  2  0  0  0
 23 24  1  0  0  0
 24 25  2  0  0  0
 25 26  1  0  0  0
 26 27  2  0  0  0
 27 28  1  0  0  0
 25  1  1  0  0  0
  1  2  2  0  0  0
  2  3  1  0  0  0
  3  4  2  0  0  0
  4  5  1  0  0  0
  5  6  2  0  0  0
  4  7  1  0  0  0
  7  8  1  0  0  0
  8  9  2  0  0  0
  8 10  1  0  0  0
 10 11  2  0  0  0
 11 12  1  0  0  0
 12 13  2  0  0  0
 13 14  1  0  0  0
 14 15  2  0  0  0
 15 16  1  0  0  0
 16 17  2  0  0  0
 17 18  1  0  0  0
 18 19  1  0  0  0
 19 20  2  0  0  0
 18 21  2  0  0  0
 27 22  1  0  0  0
  6  1  1  0  0  0
 19  7  1  0  0  0
 21 10  1  0  0  0
 21 14  1  0  0  0
 30 33  1  0  0  0
 28 29  1  0  0  0
M  END
> <minimizedAffinity>
-0.85045

> <CNNscore>
0.4170512855

> <CNNaffinity>
6.3495283127

> <CNN_VS>
2.6480789185

> <CNNaffinity_variance>
1.0492318869

$$$$
[H]OC(=O)c1c([H])c([H])c(-c2c([H])c([H])c(N3C(=O)c4c([H])c([H])c([H])c5c([H])c([H])c([H])c(c45)C3=O)c([H])c2[H])c([H])c1O[H]


 33 37  0  0  0  0  0  0  0  0999 V2000
   14.6426   22.8490    0.4596 C   0  0  0  0  0  0  0  0  0  0  0  0
   14.3230   21.5275    0.2257 C   0  0  0  0  0  0  0  0  0  0  0  0
   12.9992   21.1099    0.0607 C   0  0  0  0  0  0  0  0  0  0  0  0
   11.9667   22.0205    0.1280 C   0  0  0  0  0  0  0  0  0  0  0  0
   12.3110   23.3469    0.3644 C   0  0  0  0  0  0  0  0  0  0  0  0
   13.6162   23.7612    0.5277 C   0  0  0  0  0  0  0  0  0  0  0  0
   10.6217   21.5972   -0.0366 N   0  0  0  0  0  0  0  0  0  0  0  0
   10.0968   21.0125   -1.2214 C   0  0  0  0  0  0  0  0  0  0  0  0
   10.8596   20.8530   -2.1912 O   0  0  0  0  0  0  0  0  0  0  0  0
    8.7047   20.5908   -1.3511 C   0  0  0  0  0  0  0  0  0  0  0  0
    8.2022   20.0254   -2.5002 C   0  0  0  0  0  0  0  0  0  0  0  0
    6.9006   19.6141   -2.6661 C   0  0  0  0  0  0  0  0  0  0  0  0
    6.0452   19.7947   -1.5722 C   0  0  0  0  0  0  0  0  0  0  0  0
    6.5221   20.3585   -0.4098 C   0  0  0  0  0  0  0  0  0  0  0  0
    5.6338   20.5188    0.6543 C   0  0  0  0  0  0  0  0  0  0  0  0
    6.0692   21.0749    1.8277 C   0  0  0  0  0  0  0  0  0  0  0  0
    7.3911   21.4693    1.9355 C   0  0  0  0  0  0  0  0  0  0  0  0
    8.2950   21.3252    0.9049 C   0  0  0  0  0  0  0  0  0  0  0  0
    9.6834   21.7486    1.0415 C   0  0  0  0  0  0  0  0  0  0  0  0
   10.1142   22.2616    2.1050 O   0  0  0  0  0  0  0  0  0  0  0  0
    7.8385   20.7641   -0.2687 C   0  0  0  0  0  0  0  0  0  0  0  0
   18.7246   24.0401    0.9310 C   0  0  0  0  0  0  0  0  0  0  0  0
   17.6896   24.8527    1.3415 C   0  0  0  0  0  0  0  0  0  0  0  0
   16.3637   24.4867    1.1989 C   0  0  0  0  0  0  0  0  0  0  0  0
   16.0201   23.2764    0.6321 C   0  0  0  0  0  0  0  0  0  0  0  0
   17.0472   22.4591    0.2197 C   0  0  0  0  0  0  0  0  0  0  0  0
   18.3838   22.8324    0.3657 C   0  0  0  0  0  0  0  0  0  0  0  0
   19.3877   21.9785   -0.0630 O   0  0  0  0  0  0  0  0  0  0  0  0
   19.1929   21.0794   -0.4864 H   0  0  0  0  0  0  0  0  0  0  0  0
   20.8860   24.9000    0.0225 O   0  0  0  0  0  0  0  0  0  0  0  0
   20.1304   24.4188    1.0752 C   0  0  0  0  0  0  0  0  0  0  0  0
   20.6856   24.3066    2.1945 O   0  0  0  0  0  0  0  0  0  0  0  0
   21.0667   24.3076   -0.7984 H   0  0  0  0  0  0  0  0  0  0  0  0
 30 31  1  0  0  0
 31 32  2  0  0  0
 31 22  1  0  0  0
 22 23  2  0  0  0
 23 24  1  0  0  0
 24 25  2  0  0  0
 25 26  1  0  0  0
 26 27  2  0  0  0
 27 28  1  0  0  0
 25  1  1  0  0  0
  1  2  2  0  0  0
  2  3  1  0  0  0
  3  4  2  0  0  0
  4  5  1  0  0  0
  5  6  2  0  0  0
  4  7  1  0  0  0
  7  8  1  0  0  0
  8  9  2  0  0  0
  8 10  1  0  0  0
 10 11  2  0  0  0
 11 12  1  0  0  0
 12 13  2  0  0  0
 13 14  1  0  0  0
 14 15  2  0  0  0
 15 16  1  0  0  0
 16 17  2  0  0  0
 17 18  1  0  0  0
 18 19  1  0  0  0
 19 20  2  0  0  0
 18 21  2  0  0  0
 27 22  1  0  0  0
  6  1  1  0  0  0
 19  7  1  0  0  0
 21 10  1  0  0  0
 21 14  1  0  0  0
 30 33  1  0  0  0
 28 29  1  0  0  0
M  END
> <minimizedAffinity>
19.11744

> <CNNscore>
0.4133692384

> <CNNaffinity>
5.9237813950

> <CNN_VS>
2.4487090111

> <CNNaffinity_variance>
0.6688320637

$$$$
[H]OC(=O)c1c([H])c([H])c(-c2c([H])c([H])c(N3C(=O)c4c([H])c([H])c([H])c5c([H])c([H])c([H])c(c45)C3=O)c([H])c2[H])c([H])c1O[H]


 33 37  0  0  0  0  0  0  0  0999 V2000
   12.7261   24.7461   -2.1275 C   0  0  0  0  0  0  0  0  0  0  0  0
   13.1739   23.8904   -1.1424 C   0  0  0  0  0  0  0  0  0  0  0  0
   12.3011   23.3252   -0.2079 C   0  0  0  0  0  0  0  0  0  0  0  0
   10.9537   23.6125   -0.2487 C   0  0  0  0  0  0  0  0  0  0  0  0
   10.5239   24.4769   -1.2496 C   0  0  0  0  0  0  0  0  0  0  0  0
   11.3830   25.0358   -2.1723 C   0  0  0  0  0  0  0  0  0  0  0  0
   10.0669   23.0414    0.7014 N   0  0  0  0  0  0  0  0  0  0  0  0
    9.0896   22.0528    0.4038 C   0  0  0  0  0  0  0  0  0  0  0  0
    8.9941   21.6487   -0.7691 O   0  0  0  0  0  0  0  0  0  0  0  0
    8.1942   21.4905    1.4112 C   0  0  0  0  0  0  0  0  0  0  0  0
    7.2503   20.5339    1.1174 C   0  0  0  0  0  0  0  0  0  0  0  0
    6.3881   19.9775    2.0327 C   0  0  0  0  0  0  0  0  0  0  0  0
    6.4989   20.4344    3.3518 C   0  0  0  0  0  0  0  0  0  0  0  0
    7.4353   21.3917    3.6735 C   0  0  0  0  0  0  0  0  0  0  0  0
    7.5100   21.8166    5.0004 C   0  0  0  0  0  0  0  0  0  0  0  0
    8.4282   22.7667    5.3611 C   0  0  0  0  0  0  0  0  0  0  0  0
    9.2697   23.2898    4.3953 C   0  0  0  0  0  0  0  0  0  0  0  0
    9.2232   22.8925    3.0763 C   0  0  0  0  0  0  0  0  0  0  0  0
   10.1202   23.4582    2.0758 C   0  0  0  0  0  0  0  0  0  0  0  0
   10.9740   24.3309    2.3746 O   0  0  0  0  0  0  0  0  0  0  0  0
    8.2923   21.9358    2.7318 C   0  0  0  0  0  0  0  0  0  0  0  0
   15.3796   26.5431   -4.9618 C   0  0  0  0  0  0  0  0  0  0  0  0
   15.4601   25.2013   -4.6564 C   0  0  0  0  0  0  0  0  0  0  0  0
   14.6120   24.6008   -3.7440 C   0  0  0  0  0  0  0  0  0  0  0  0
   13.6384   25.3317   -3.0945 C   0  0  0  0  0  0  0  0  0  0  0  0
   13.5512   26.6717   -3.3937 C   0  0  0  0  0  0  0  0  0  0  0  0
   14.4089   27.2737   -4.3152 C   0  0  0  0  0  0  0  0  0  0  0  0
   14.2863   28.6270   -4.5875 O   0  0  0  0  0  0  0  0  0  0  0  0
   13.5907   29.2110   -4.1398 H   0  0  0  0  0  0  0  0  0  0  0  0
   17.5623   26.7480   -6.1579 O   0  0  0  0  0  0  0  0  0  0  0  0
   16.2733   27.1887   -5.9237 C   0  0  0  0  0  0  0  0  0  0  0  0
   15.8660   28.1845   -6.5688 O   0  0  0  0  0  0  0  0  0  0  0  0
   18.2610   26.7670   -5.4038 H   0  0  0  0  0  0  0  0  0  0  0  0
 30 31  1  0  0  0
 31 32  2  0  0  0
 31 22  1  0  0  0
 22 23  2  0  0  0
 23 24  1  0  0  0
 24 25  2  0  0  0
 25 26  1  0  0  0
 26 27  2  0  0  0
 27 28  1  0  0  0
 25  1  1  0  0  0
  1  2  2  0  0  0
  2  3  1  0  0  0
  3  4  2  0  0  0
  4  5  1  0  0  0
  5  6  2  0  0  0
  4  7  1  0  0  0
  7  8  1  0  0  0
  8  9  2  0  0  0
  8 10  1  0  0  0
 10 11  2  0  0  0
 11 12  1  0  0  0
 12 13  2  0  0  0
 13 14  1  0  0  0
 14 15  2  0  0  0
 15 16  1  0  0  0
 16 17  2  0  0  0
 17 18  1  0  0  0
 18 19  1  0  0  0
 19 20  2  0  0  0
 18 21  2  0  0  0
 27 22  1  0  0  0
  6  1  1  0  0  0
 19  7  1  0  0  0
 21 10  1  0  0  0
 21 14  1  0  0  0
 30 33  1  0  0  0
 28 29  1  0  0  0
M  END
> <minimizedAffinity>
-2.15310

> <CNNscore>
0.4040394425

> <CNNaffinity>
6.1957139969

> <CNN_VS>
2.5033128262

> <CNNaffinity_variance>
0.3812103271

$$$$
[H]OC(=O)c1c([H])c([H])c(-c2c([H])c([H])c(N3C(=O)c4c([H])c([H])c([H])c5c([H])c([H])c([H])c(c45)C3=O)c([H])c2[H])c([H])c1O[H]


 33 37  0  0  0  0  0  0  0  0999 V2000
   13.5600   24.5623   -2.1679 C   0  0  0  0  0  0  0  0  0  0  0  0
   12.2580   24.1076   -2.2016 C   0  0  0  0  0  0  0  0  0  0  0  0
   11.6466   23.5460   -1.0768 C   0  0  0  0  0  0  0  0  0  0  0  0
   12.3388   23.4316    0.1096 C   0  0  0  0  0  0  0  0  0  0  0  0
   13.6494   23.8963    0.1215 C   0  0  0  0  0  0  0  0  0  0  0  0
   14.2546   24.4504   -0.9869 C   0  0  0  0  0  0  0  0  0  0  0  0
   11.7200   22.8590    1.2517 N   0  0  0  0  0  0  0  0  0  0  0  0
   10.6729   23.4684    1.9956 C   0  0  0  0  0  0  0  0  0  0  0  0
   10.2582   24.5831    1.6303 O   0  0  0  0  0  0  0  0  0  0  0  0
   10.0627   22.8458    3.1672 C   0  0  0  0  0  0  0  0  0  0  0  0
    9.0495   23.4402    3.8832 C   0  0  0  0  0  0  0  0  0  0  0  0
    8.4468   22.8912    4.9905 C   0  0  0  0  0  0  0  0  0  0  0  0
    8.9159   21.6363    5.3982 C   0  0  0  0  0  0  0  0  0  0  0  0
    9.9293   21.0188    4.6995 C   0  0  0  0  0  0  0  0  0  0  0  0
   10.3644   19.7691    5.1420 C   0  0  0  0  0  0  0  0  0  0  0  0
   11.3697   19.1218    4.4741 C   0  0  0  0  0  0  0  0  0  0  0  0
   11.9378   19.7243    3.3656 C   0  0  0  0  0  0  0  0  0  0  0  0
   11.5321   20.9571    2.9014 C   0  0  0  0  0  0  0  0  0  0  0  0
   12.1459   21.5728    1.7310 C   0  0  0  0  0  0  0  0  0  0  0  0
   13.0698   21.0045    1.0960 O   0  0  0  0  0  0  0  0  0  0  0  0
   10.5195   21.5939    3.5867 C   0  0  0  0  0  0  0  0  0  0  0  0
   15.4055   26.3467   -5.5904 C   0  0  0  0  0  0  0  0  0  0  0  0
   15.3049   24.9778   -5.4633 C   0  0  0  0  0  0  0  0  0  0  0  0
   14.7118   24.3809   -4.3659 C   0  0  0  0  0  0  0  0  0  0  0  0
   14.1903   25.1432   -3.3407 C   0  0  0  0  0  0  0  0  0  0  0  0
   14.2865   26.5104   -3.4597 C   0  0  0  0  0  0  0  0  0  0  0  0
   14.8856   27.1087   -4.5690 C   0  0  0  0  0  0  0  0  0  0  0  0
   14.9611   28.4901   -4.6490 O   0  0  0  0  0  0  0  0  0  0  0  0
   14.5957   29.0976   -3.9258 H   0  0  0  0  0  0  0  0  0  0  0  0
   16.2600   28.3500   -6.8124 O   0  0  0  0  0  0  0  0  0  0  0  0
   16.0329   26.9882   -6.7461 C   0  0  0  0  0  0  0  0  0  0  0  0
   16.3835   26.2852   -7.7241 O   0  0  0  0  0  0  0  0  0  0  0  0
   15.4699   29.0079   -6.7995 H   0  0  0  0  0  0  0  0  0  0  0  0
 30 31  1  0  0  0
 31 32  2  0  0  0
 31 22  1  0  0  0
 22 23  2  0  0  0
 23 24  1  0  0  0
 24 25  2  0  0  0
 25 26  1  0  0  0
 26 27  2  0  0  0
 27 28  1  0  0  0
 25  1  1  0  0  0
  1  2  2  0  0  0
  2  3  1  0  0  0
  3  4  2  0  0  0
  4  5  1  0  0  0
  5  6  2  0  0  0
  4  7  1  0  0  0
  7  8  1  0  0  0
  8  9  2  0  0  0
  8 10  1  0  0  0
 10 11  2  0  0  0
 11 12  1  0  0  0
 12 13  2  0  0  0
 13 14  1  0  0  0
 14 15  2  0  0  0
 15 16  1  0  0  0
 16 17  2  0  0  0
 17 18  1  0  0  0
 18 19  1  0  0  0
 19 20  2  0  0  0
 18 21  2  0  0  0
 27 22  1  0  0  0
  6  1  1  0  0  0
 19  7  1  0  0  0
 21 10  1  0  0  0
 21 14  1  0  0  0
 30 33  1  0  0  0
 28 29  1  0  0  0
M  END
> <minimizedAffinity>
-8.89561

> <CNNscore>
0.3952729702

> <CNNaffinity>
6.4408922195

> <CNN_VS>
2.5459105968

> <CNNaffinity_variance>
0.1802513003

$$$$
[H]OC(=O)c1c([H])c([H])c(-c2c([H])c([H])c(N3C(=O)c4c([H])c([H])c([H])c5c([H])c([H])c([H])c(c45)C3=O)c([H])c2[H])c([H])c1O[H]


 33 37  0  0  0  0  0  0  0  0999 V2000
   11.4851   27.5107   -3.4273 C   0  0  0  0  0  0  0  0  0  0  0  0
   10.6037   26.5241   -3.0362 C   0  0  0  0  0  0  0  0  0  0  0  0
   11.0352   25.3799   -2.3588 C   0  0  0  0  0  0  0  0  0  0  0  0
   12.3697   25.2074   -2.0604 C   0  0  0  0  0  0  0  0  0  0  0  0
   13.2406   26.2138   -2.4634 C   0  0  0  0  0  0  0  0  0  0  0  0
   12.8172   27.3432   -3.1320 C   0  0  0  0  0  0  0  0  0  0  0  0
   12.8096   24.0446   -1.3749 N   0  0  0  0  0  0  0  0  0  0  0  0
   12.2115   23.5270   -0.1936 C   0  0  0  0  0  0  0  0  0  0  0  0
   11.2307   24.1250    0.2846 O   0  0  0  0  0  0  0  0  0  0  0  0
   12.6954   22.3267    0.4830 C   0  0  0  0  0  0  0  0  0  0  0  0
   12.1126   21.8303    1.6260 C   0  0  0  0  0  0  0  0  0  0  0  0
   12.5343   20.7054    2.2949 C   0  0  0  0  0  0  0  0  0  0  0  0
   13.6381   20.0348    1.7535 C   0  0  0  0  0  0  0  0  0  0  0  0
   14.2407   20.5102    0.6100 C   0  0  0  0  0  0  0  0  0  0  0  0
   15.3372   19.8095    0.1064 C   0  0  0  0  0  0  0  0  0  0  0  0
   15.9640   20.2495   -1.0290 C   0  0  0  0  0  0  0  0  0  0  0  0
   15.4938   21.3882   -1.6589 C   0  0  0  0  0  0  0  0  0  0  0  0
   14.4135   22.1038   -1.1891 C   0  0  0  0  0  0  0  0  0  0  0  0
   13.9358   23.3014   -1.8696 C   0  0  0  0  0  0  0  0  0  0  0  0
   14.4885   23.7305   -2.9137 O   0  0  0  0  0  0  0  0  0  0  0  0
   13.7956   21.6463   -0.0447 C   0  0  0  0  0  0  0  0  0  0  0  0
   10.0858   30.9602   -5.5361 C   0  0  0  0  0  0  0  0  0  0  0  0
   11.1752   31.0286   -4.6942 C   0  0  0  0  0  0  0  0  0  0  0  0
   11.6439   29.9259   -4.0039 C   0  0  0  0  0  0  0  0  0  0  0  0
   11.0307   28.6965   -4.1327 C   0  0  0  0  0  0  0  0  0  0  0  0
    9.9426   28.6194   -4.9711 C   0  0  0  0  0  0  0  0  0  0  0  0
    9.4730   29.7347   -5.6660 C   0  0  0  0  0  0  0  0  0  0  0  0
    8.3736   29.6128   -6.5009 O   0  0  0  0  0  0  0  0  0  0  0  0
    7.8850   28.7356   -6.6322 H   0  0  0  0  0  0  0  0  0  0  0  0
    9.2266   33.3025   -5.6449 O   0  0  0  0  0  0  0  0  0  0  0  0
    9.5805   32.1212   -6.2691 C   0  0  0  0  0  0  0  0  0  0  0  0
    9.4578   32.0552   -7.5158 O   0  0  0  0  0  0  0  0  0  0  0  0
    8.4540   33.3183   -4.9664 H   0  0  0  0  0  0  0  0  0  0  0  0
 30 31  1  0  0  0
 31 32  2  0  0  0
 31 22  1  0  0  0
 22 23  2  0  0  0
 23 24  1  0  0  0
 24 25  2  0  0  0
 25 26  1  0  0  0
 26 27  2  0  0  0
 27 28  1  0  0  0
 25  1  1  0  0  0
  1  2  2  0  0  0
  2  3  1  0  0  0
  3  4  2  0  0  0
  4  5  1  0  0  0
  5  6  2  0  0  0
  4  7  1  0  0  0
  7  8  1  0  0  0
  8  9  2  0  0  0
  8 10  1  0  0  0
 10 11  2  0  0  0
 11 12  1  0  0  0
 12 13  2  0  0  0
 13 14  1  0  0  0
 14 15  2  0  0  0
 15 16  1  0  0  0
 16 17  2  0  0  0
 17 18  1  0  0  0
 18 19  1  0  0  0
 19 20  2  0  0  0
 18 21  2  0  0  0
 27 22  1  0  0  0
  6  1  1  0  0  0
 19  7  1  0  0  0
 21 10  1  0  0  0
 21 14  1  0  0  0
 30 33  1  0  0  0
 28 29  1  0  0  0
M  END
> <minimizedAffinity>
32.28144

> <CNNscore>
0.3848060966

> <CNNaffinity>
5.7160429955

> <CNN_VS>
2.1995682716

> <CNNaffinity_variance>
0.9359472990

$$$$
[H]OC(=O)c1c([H])c([H])c(-c2c([H])c([H])c(N3C(=O)c4c([H])c([H])c([H])c5c([H])c([H])c([H])c(c45)C3=O)c([H])c2[H])c([H])c1O[H]


 33 37  0  0  0  0  0  0  0  0999 V2000
   13.5167   24.7442   -1.4763 C   0  0  0  0  0  0  0  0  0  0  0  0
   14.2153   24.2992   -0.3731 C   0  0  0  0  0  0  0  0  0  0  0  0
   13.5864   23.6017    0.6625 C   0  0  0  0  0  0  0  0  0  0  0  0
   12.2348   23.3375    0.6058 C   0  0  0  0  0  0  0  0  0  0  0  0
   11.5501   23.7947   -0.5149 C   0  0  0  0  0  0  0  0  0  0  0  0
   12.1683   24.4832   -1.5375 C   0  0  0  0  0  0  0  0  0  0  0  0
   11.5946   22.6318    1.6580 N   0  0  0  0  0  0  0  0  0  0  0  0
   12.0358   21.3863    2.1827 C   0  0  0  0  0  0  0  0  0  0  0  0
   13.0555   20.8662    1.6951 O   0  0  0  0  0  0  0  0  0  0  0  0
   11.3473   20.6909    3.2667 C   0  0  0  0  0  0  0  0  0  0  0  0
   11.7789   19.4858    3.7705 C   0  0  0  0  0  0  0  0  0  0  0  0
   11.1629   18.7970    4.7888 C   0  0  0  0  0  0  0  0  0  0  0  0
   10.0158   19.3857    5.3353 C   0  0  0  0  0  0  0  0  0  0  0  0
    9.5617   20.5918    4.8496 C   0  0  0  0  0  0  0  0  0  0  0  0
    8.4152   21.1409    5.4247 C   0  0  0  0  0  0  0  0  0  0  0  0
    7.9318   22.3391    4.9704 C   0  0  0  0  0  0  0  0  0  0  0  0
    8.5952   22.9860    3.9428 C   0  0  0  0  0  0  0  0  0  0  0  0
    9.7300   22.4725    3.3527 C   0  0  0  0  0  0  0  0  0  0  0  0
   10.4122   23.1721    2.2708 C   0  0  0  0  0  0  0  0  0  0  0  0
    9.9945   24.2733    1.8318 O   0  0  0  0  0  0  0  0  0  0  0  0
   10.2015   21.2652    3.8227 C   0  0  0  0  0  0  0  0  0  0  0  0
   15.3858   26.8910   -4.6702 C   0  0  0  0  0  0  0  0  0  0  0  0
   16.1099   26.4519   -3.5824 C   0  0  0  0  0  0  0  0  0  0  0  0
   15.5254   25.7560   -2.5400 C   0  0  0  0  0  0  0  0  0  0  0  0
   14.1756   25.4701   -2.5482 C   0  0  0  0  0  0  0  0  0  0  0  0
   13.4455   25.9047   -3.6303 C   0  0  0  0  0  0  0  0  0  0  0  0
   14.0393   26.6064   -4.6802 C   0  0  0  0  0  0  0  0  0  0  0  0
   13.2669   27.0257   -5.7517 O   0  0  0  0  0  0  0  0  0  0  0  0
   12.2723   26.8440   -5.8092 H   0  0  0  0  0  0  0  0  0  0  0  0
   16.3443   28.9635   -5.6814 O   0  0  0  0  0  0  0  0  0  0  0  0
   15.9939   27.6299   -5.7770 C   0  0  0  0  0  0  0  0  0  0  0  0
   16.2111   27.0412   -6.8632 O   0  0  0  0  0  0  0  0  0  0  0  0
   15.6227   29.6782   -5.5207 H   0  0  0  0  0  0  0  0  0  0  0  0
 30 31  1  0  0  0
 31 32  2  0  0  0
 31 22  1  0  0  0
 22 23  2  0  0  0
 23 24  1  0  0  0
 24 25  2  0  0  0
 25 26  1  0  0  0
 26 27  2  0  0  0
 27 28  1  0  0  0
 25  1  1  0  0  0
  1  2  2  0  0  0
  2  3  1  0  0  0
  3  4  2  0  0  0
  4  5  1  0  0  0
  5  6  2  0  0  0
  4  7  1  0  0  0
  7  8  1  0  0  0
  8  9  2  0  0  0
  8 10  1  0  0  0
 10 11  2  0  0  0
 11 12  1  0  0  0
 12 13  2  0  0  0
 13 14  1  0  0  0
 14 15  2  0  0  0
 15 16  1  0  0  0
 16 17  2  0  0  0
 17 18  1  0  0  0
 18 19  1  0  0  0
 19 20  2  0  0  0
 18 21  2  0  0  0
 27 22  1  0  0  0
  6  1  1  0  0  0
 19  7  1  0  0  0
 21 10  1  0  0  0
 21 14  1  0  0  0
 30 33  1  0  0  0
 28 29  1  0  0  0
M  END
> <minimizedAffinity>
-10.19366

> <CNNscore>
0.3403394222

> <CNNaffinity>
6.3724455833

> <CNN_VS>
2.1687943935

> <CNNaffinity_variance>
0.1200192124

$$$$
[H]OC(=O)c1c([H])c([H])c(-c2c([H])c([H])c(N3C(=O)c4c([H])c([H])c([H])c5c([H])c([H])c([H])c(c45)C3=O)c([H])c2[H])c([H])c1O[H]


 33 37  0  0  0  0  0  0  0  0999 V2000
   13.0855   24.4827   -1.6985 C   0  0  0  0  0  0  0  0  0  0  0  0
   12.8918   25.1000   -0.4801 C   0  0  0  0  0  0  0  0  0  0  0  0
   12.2925   24.4348    0.5934 C   0  0  0  0  0  0  0  0  0  0  0  0
   11.8753   23.1280    0.4594 C   0  0  0  0  0  0  0  0  0  0  0  0
   12.0803   22.5250   -0.7767 C   0  0  0  0  0  0  0  0  0  0  0  0
   12.6710   23.1793   -1.8373 C   0  0  0  0  0  0  0  0  0  0  0  0
   11.2641   22.4523    1.5481 N   0  0  0  0  0  0  0  0  0  0  0  0
   10.0455   22.8477    2.1644 C   0  0  0  0  0  0  0  0  0  0  0  0
    9.4611   23.8558    1.7281 O   0  0  0  0  0  0  0  0  0  0  0  0
    9.4494   22.1250    3.2846 C   0  0  0  0  0  0  0  0  0  0  0  0
    8.2698   22.5123    3.8771 C   0  0  0  0  0  0  0  0  0  0  0  0
    7.6732   21.8627    4.9321 C   0  0  0  0  0  0  0  0  0  0  0  0
    8.3336   20.7283    5.4200 C   0  0  0  0  0  0  0  0  0  0  0  0
    9.5163   20.3186    4.8454 C   0  0  0  0  0  0  0  0  0  0  0  0
   10.1389   19.1828    5.3643 C   0  0  0  0  0  0  0  0  0  0  0  0
   11.3161   18.7425    4.8203 C   0  0  0  0  0  0  0  0  0  0  0  0
   11.8685   19.4377    3.7592 C   0  0  0  0  0  0  0  0  0  0  0  0
   11.2802   20.5625    3.2221 C   0  0  0  0  0  0  0  0  0  0  0  0
   11.8810   21.2792    2.1037 C   0  0  0  0  0  0  0  0  0  0  0  0
   12.9600   20.9005    1.5819 O   0  0  0  0  0  0  0  0  0  0  0  0
   10.0960   20.9912    3.7829 C   0  0  0  0  0  0  0  0  0  0  0  0
   14.9418   26.4655   -5.0041 C   0  0  0  0  0  0  0  0  0  0  0  0
   14.2222   27.1670   -4.0605 C   0  0  0  0  0  0  0  0  0  0  0  0
   13.6151   26.5458   -2.9846 C   0  0  0  0  0  0  0  0  0  0  0  0
   13.7071   25.1800   -2.8109 C   0  0  0  0  0  0  0  0  0  0  0  0
   14.4236   24.4722   -3.7482 C   0  0  0  0  0  0  0  0  0  0  0  0
   15.0349   25.1031   -4.8324 C   0  0  0  0  0  0  0  0  0  0  0  0
   15.7478   24.3520   -5.7534 O   0  0  0  0  0  0  0  0  0  0  0  0
   15.8470   23.3473   -5.6755 H   0  0  0  0  0  0  0  0  0  0  0  0
   16.5387   26.4807   -6.9240 O   0  0  0  0  0  0  0  0  0  0  0  0
   15.5859   27.1126   -6.1473 C   0  0  0  0  0  0  0  0  0  0  0  0
   15.2704   28.2896   -6.4455 O   0  0  0  0  0  0  0  0  0  0  0  0
   17.4325   26.1863   -6.5094 H   0  0  0  0  0  0  0  0  0  0  0  0
 30 31  1  0  0  0
 31 32  2  0  0  0
 31 22  1  0  0  0
 22 23  2  0  0  0
 23 24  1  0  0  0
 24 25  2  0  0  0
 25 26  1  0  0  0
 26 27  2  0  0  0
 27 28  1  0  0  0
 25  1  1  0  0  0
  1  2  2  0  0  0
  2  3  1  0  0  0
  3  4  2  0  0  0
  4  5  1  0  0  0
  5  6  2  0  0  0
  4  7  1  0  0  0
  7  8  1  0  0  0
  8  9  2  0  0  0
  8 10  1  0  0  0
 10 11  2  0  0  0
 11 12  1  0  0  0
 12 13  2  0  0  0
 13 14  1  0  0  0
 14 15  2  0  0  0
 15 16  1  0  0  0
 16 17  2  0  0  0
 17 18  1  0  0  0
 18 19  1  0  0  0
 19 20  2  0  0  0
 18 21  2  0  0  0
 27 22  1  0  0  0
  6  1  1  0  0  0
 19  7  1  0  0  0
 21 10  1  0  0  0
 21 14  1  0  0  0
 30 33  1  0  0  0
 28 29  1  0  0  0
M  END
> <minimizedAffinity>
-8.26414

> <CNNscore>
0.3278354704

> <CNNaffinity>
6.3489584923

> <CNN_VS>
2.0814137459

> <CNNaffinity_variance>
0.4403325021

$$$$
[H]OC(=O)c1c(N2C([H])([H])C([H])([H])N(c3nc4c([H])c([H])c([H])c(Cl)c4c(=O)n3[H])C([H])([H])C2([H])[H])nc([H])c([H])c1[H]


 29 32  0  0  0  0  0  0  0  0999 V2000
   11.2694   22.6674    0.3856 N   0  0  0  0  0  0  0  0  0  0  0  0
   11.0062   24.0492    0.0717 C   0  0  0  0  0  0  0  0  0  0  0  0
   12.4319   24.6666   -0.0337 C   0  0  0  0  0  0  0  0  0  0  0  0
   12.9674   24.1047   -1.2447 N   0  0  0  0  0  0  0  0  0  0  0  0
   12.7677   22.7263   -1.5691 C   0  0  0  0  0  0  0  0  0  0  0  0
   12.0609   21.9140   -0.5456 C   0  0  0  0  0  0  0  0  0  0  0  0
   13.7095   24.9460   -2.1097 C   0  0  0  0  0  0  0  0  0  0  0  0
   14.9502   25.2904   -1.7443 N   0  0  0  0  0  0  0  0  0  0  0  0
   15.7322   26.0919   -2.5151 C   0  0  0  0  0  0  0  0  0  0  0  0
   17.0193   26.4287   -2.1180 C   0  0  0  0  0  0  0  0  0  0  0  0
   17.8267   27.2425   -2.9050 C   0  0  0  0  0  0  0  0  0  0  0  0
   17.3107   27.7024   -4.0865 C   0  0  0  0  0  0  0  0  0  0  0  0
   16.0381   27.3881   -4.5116 C   0  0  0  0  0  0  0  0  0  0  0  0
   15.3509   27.9626   -6.0156 Cl  0  0  0  0  0  0  0  0  0  0  0  0
   15.2347   26.5740   -3.7223 C   0  0  0  0  0  0  0  0  0  0  0  0
   13.9544   26.2050   -4.0730 C   0  0  0  0  0  0  0  0  0  0  0  0
   13.5130   26.6467   -5.1654 O   0  0  0  0  0  0  0  0  0  0  0  0
   13.2307   25.4099   -3.2688 N   0  0  0  0  0  0  0  0  0  0  0  0
   12.2570   25.1651   -3.5964 H   0  0  0  0  0  0  0  0  0  0  0  0
    9.4842   21.9242    1.8985 C   0  0  0  0  0  0  0  0  0  0  0  0
    9.0963   21.4005    3.1532 C   0  0  0  0  0  0  0  0  0  0  0  0
   10.0461   21.0589    4.0701 C   0  0  0  0  0  0  0  0  0  0  0  0
   11.3576   21.2511    3.7094 C   0  0  0  0  0  0  0  0  0  0  0  0
   11.7278   21.7455    2.5291 N   0  0  0  0  0  0  0  0  0  0  0  0
   10.7925   22.1018    1.5777 C   0  0  0  0  0  0  0  0  0  0  0  0
    8.2328   21.4354   -0.1946 O   0  0  0  0  0  0  0  0  0  0  0  0
    8.4293   22.1819    0.9534 C   0  0  0  0  0  0  0  0  0  0  0  0
    7.6008   23.1218    1.1229 O   0  0  0  0  0  0  0  0  0  0  0  0
    7.5259   20.6857   -0.1233 H   0  0  0  0  0  0  0  0  0  0  0  0
 26 27  1  0  0  0
 27 28  2  0  0  0
 27 20  1  0  0  0
 20 21  2  0  0  0
 21 22  1  0  0  0
 22 23  2  0  0  0
 23 24  1  0  0  0
 24 25  2  0  0  0
 25  1  1  0  0  0
  1  2  1  0  0  0
  2  3  1  0  0  0
  3  4  1  0  0  0
  4  5  1  0  0  0
  5  6  1  0  0  0
  4  7  1  0  0  0
  7  8  2  0  0  0
  8  9  1  0  0  0
  9 10  2  0  0  0
 10 11  1  0  0  0
 11 12  2  0  0  0
 12 13  1  0  0  0
 13 14  1  0  0  0
 13 15  2  0  0  0
 15 16  1  0  0  0
 16 17  2  0  0  0
 16 18  1  0  0  0
 25 20  1  0  0  0
  6  1  1  0  0  0
 18  7  1  0  0  0
 15  9  1  0  0  0
 26 29  1  0  0  0
 18 19  1  0  0  0
M  END
> <minimizedAffinity>
-7.34796

> <CNNscore>
0.4433262944

> <CNNaffinity>
6.9294004440

> <CNN_VS>
3.0719854832

> <CNNaffinity_variance>
0.8877417445

$$$$
[H]OC(=O)c1c(N2C([H])([H])C([H])([H])N(c3nc4c([H])c([H])c([H])c(Cl)c4c(=O)n3[H])C([H])([H])C2([H])[H])nc([H])c([H])c1[H]


 29 32  0  0  0  0  0  0  0  0999 V2000
   11.2289   22.9729   -0.1900 N   0  0  0  0  0  0  0  0  0  0  0  0
   10.7757   23.9252   -1.1721 C   0  0  0  0  0  0  0  0  0  0  0  0
   11.8362   25.0617   -1.0798 C   0  0  0  0  0  0  0  0  0  0  0  0
   13.0232   24.4788   -1.6458 N   0  0  0  0  0  0  0  0  0  0  0  0
   13.4002   23.1330   -1.3428 C   0  0  0  0  0  0  0  0  0  0  0  0
   12.5465   22.4265   -0.3534 C   0  0  0  0  0  0  0  0  0  0  0  0
   13.8215   25.2720   -2.5063 C   0  0  0  0  0  0  0  0  0  0  0  0
   15.0269   25.6583   -2.0713 N   0  0  0  0  0  0  0  0  0  0  0  0
   15.8581   26.4186   -2.8324 C   0  0  0  0  0  0  0  0  0  0  0  0
   17.1073   26.8000   -2.3618 C   0  0  0  0  0  0  0  0  0  0  0  0
   17.9651   27.5719   -3.1378 C   0  0  0  0  0  0  0  0  0  0  0  0
   17.5371   27.9449   -4.3834 C   0  0  0  0  0  0  0  0  0  0  0  0
   16.3042   27.5842   -4.8822 C   0  0  0  0  0  0  0  0  0  0  0  0
   15.7293   28.0477   -6.4694 Cl  0  0  0  0  0  0  0  0  0  0  0  0
   15.4504   26.8123   -4.1036 C   0  0  0  0  0  0  0  0  0  0  0  0
   14.2045   26.4018   -4.5253 C   0  0  0  0  0  0  0  0  0  0  0  0
   13.8443   26.7636   -5.6754 O   0  0  0  0  0  0  0  0  0  0  0  0
   13.4288   25.6510   -3.7270 N   0  0  0  0  0  0  0  0  0  0  0  0
   12.4858   25.3705   -4.1108 H   0  0  0  0  0  0  0  0  0  0  0  0
    9.4972   21.6261    0.9125 C   0  0  0  0  0  0  0  0  0  0  0  0
    8.6770   21.3909    2.0399 C   0  0  0  0  0  0  0  0  0  0  0  0
    8.8018   22.1771    3.1470 C   0  0  0  0  0  0  0  0  0  0  0  0
    9.7414   23.1780    3.0973 C   0  0  0  0  0  0  0  0  0  0  0  0
   10.5154   23.4043    2.0370 N   0  0  0  0  0  0  0  0  0  0  0  0
   10.4153   22.6276    0.8996 C   0  0  0  0  0  0  0  0  0  0  0  0
    8.5454   20.9250   -1.2759 O   0  0  0  0  0  0  0  0  0  0  0  0
    9.3657   20.7029   -0.1842 C   0  0  0  0  0  0  0  0  0  0  0  0
   10.0089   19.6148   -0.2172 O   0  0  0  0  0  0  0  0  0  0  0  0
    9.0093   21.3227   -2.1085 H   0  0  0  0  0  0  0  0  0  0  0  0
 26 27  1  0  0  0
 27 28  2  0  0  0
 27 20  1  0  0  0
 20 21  2  0  0  0
 21 22  1  0  0  0
 22 23  2  0  0  0
 23 24  1  0  0  0
 24 25  2  0  0  0
 25  1  1  0  0  0
  1  2  1  0  0  0
  2  3  1  0  0  0
  3  4  1  0  0  0
  4  5  1  0  0  0
  5  6  1  0  0  0
  4  7  1  0  0  0
  7  8  2  0  0  0
  8  9  1  0  0  0
  9 10  2  0  0  0
 10 11  1  0  0  0
 11 12  2  0  0  0
 12 13  1  0  0  0
 13 14  1  0  0  0
 13 15  2  0  0  0
 15 16  1  0  0  0
 16 17  2  0  0  0
 16 18  1  0  0  0
 25 20  1  0  0  0
  6  1  1  0  0  0
 18  7  1  0  0  0
 15  9  1  0  0  0
 26 29  1  0  0  0
 18 19  1  0  0  0
M  END
> <minimizedAffinity>
-7.70085

> <CNNscore>
0.4239774346

> <CNNaffinity>
6.8301200867

> <CNN_VS>
2.8958168030

> <CNNaffinity_variance>
0.6184479594

$$$$
[H]OC(=O)c1c(N2C([H])([H])C([H])([H])N(c3nc4c([H])c([H])c([H])c(Cl)c4c(=O)n3[H])C([H])([H])C2([H])[H])nc([H])c([H])c1[H]


 29 32  0  0  0  0  0  0  0  0999 V2000
   10.8546   22.7772   -0.7876 N   0  0  0  0  0  0  0  0  0  0  0  0
   10.5090   23.7236   -1.8180 C   0  0  0  0  0  0  0  0  0  0  0  0
   11.4971   24.9001   -1.5648 C   0  0  0  0  0  0  0  0  0  0  0  0
   12.7765   24.3725   -1.9572 N   0  0  0  0  0  0  0  0  0  0  0  0
   13.1612   23.0390   -1.6126 C   0  0  0  0  0  0  0  0  0  0  0  0
   12.2034   22.2860   -0.7624 C   0  0  0  0  0  0  0  0  0  0  0  0
   13.6572   25.2081   -2.6871 C   0  0  0  0  0  0  0  0  0  0  0  0
   14.8536   25.4833   -2.1539 N   0  0  0  0  0  0  0  0  0  0  0  0
   15.7602   26.2742   -2.7870 C   0  0  0  0  0  0  0  0  0  0  0  0
   16.9981   26.5385   -2.2168 C   0  0  0  0  0  0  0  0  0  0  0  0
   17.9324   27.3411   -2.8621 C   0  0  0  0  0  0  0  0  0  0  0  0
   17.5917   27.8639   -4.0805 C   0  0  0  0  0  0  0  0  0  0  0  0
   16.3725   27.6223   -4.6757 C   0  0  0  0  0  0  0  0  0  0  0  0
   15.9081   28.2782   -6.2309 Cl  0  0  0  0  0  0  0  0  0  0  0  0
   15.4419   26.8191   -4.0275 C   0  0  0  0  0  0  0  0  0  0  0  0
   14.2033   26.5208   -4.5522 C   0  0  0  0  0  0  0  0  0  0  0  0
   13.9243   27.0189   -5.6735 O   0  0  0  0  0  0  0  0  0  0  0  0
   13.3505   25.7324   -3.8784 N   0  0  0  0  0  0  0  0  0  0  0  0
   12.4179   25.5434   -4.3363 H   0  0  0  0  0  0  0  0  0  0  0  0
    9.7294   22.9639    1.3866 C   0  0  0  0  0  0  0  0  0  0  0  0
    8.7879   22.4599    2.3133 C   0  0  0  0  0  0  0  0  0  0  0  0
    8.0325   21.3714    1.9908 C   0  0  0  0  0  0  0  0  0  0  0  0
    8.2391   20.8149    0.7519 C   0  0  0  0  0  0  0  0  0  0  0  0
    9.1259   21.2854   -0.1238 N   0  0  0  0  0  0  0  0  0  0  0  0
    9.9071   22.3854    0.1702 C   0  0  0  0  0  0  0  0  0  0  0  0
   11.7574   24.4017    1.4651 O   0  0  0  0  0  0  0  0  0  0  0  0
   10.4280   24.1641    1.7657 C   0  0  0  0  0  0  0  0  0  0  0  0
    9.8549   25.0926    2.4045 O   0  0  0  0  0  0  0  0  0  0  0  0
   11.9285   24.9726    0.6215 H   0  0  0  0  0  0  0  0  0  0  0  0
 26 27  1  0  0  0
 27 28  2  0  0  0
 27 20  1  0  0  0
 20 21  2  0  0  0
 21 22  1  0  0  0
 22 23  2  0  0  0
 23 24  1  0  0  0
 24 25  2  0  0  0
 25  1  1  0  0  0
  1  2  1  0  0  0
  2  3  1  0  0  0
  3  4  1  0  0  0
  4  5  1  0  0  0
  5  6  1  0  0  0
  4  7  1  0  0  0
  7  8  2  0  0  0
  8  9  1  0  0  0
  9 10  2  0  0  0
 10 11  1  0  0  0
 11 12  2  0  0  0
 12 13  1  0  0  0
 13 14  1  0  0  0
 13 15  2  0  0  0
 15 16  1  0  0  0
 16 17  2  0  0  0
 16 18  1  0  0  0
 25 20  1  0  0  0
  6  1  1  0  0  0
 18  7  1  0  0  0
 15  9  1  0  0  0
 26 29  1  0  0  0
 18 19  1  0  0  0
M  END
> <minimizedAffinity>
-6.29569

> <CNNscore>
0.4204089940

> <CNNaffinity>
6.6815657616

> <CNN_VS>
2.8089902401

> <CNNaffinity_variance>
0.5945125818

$$$$
[H]OC(=O)c1c(N2C([H])([H])C([H])([H])N(c3nc4c([H])c([H])c([H])c(Cl)c4c(=O)n3[H])C([H])([H])C2([H])[H])nc([H])c([H])c1[H]


 29 32  0  0  0  0  0  0  0  0999 V2000
   11.9083   24.2776   -0.3054 N   0  0  0  0  0  0  0  0  0  0  0  0
   13.1708   24.9638   -0.1946 C   0  0  0  0  0  0  0  0  0  0  0  0
   13.9057   24.5686   -1.5094 C   0  0  0  0  0  0  0  0  0  0  0  0
   13.1871   25.2737   -2.5368 N   0  0  0  0  0  0  0  0  0  0  0  0
   11.7590   25.3477   -2.5194 C   0  0  0  0  0  0  0  0  0  0  0  0
   11.0824   24.5854   -1.4386 C   0  0  0  0  0  0  0  0  0  0  0  0
   13.9255   25.8882   -3.5779 C   0  0  0  0  0  0  0  0  0  0  0  0
   14.2994   25.1328   -4.6177 N   0  0  0  0  0  0  0  0  0  0  0  0
   15.0082   25.6417   -5.6602 C   0  0  0  0  0  0  0  0  0  0  0  0
   15.3775   24.8394   -6.7314 C   0  0  0  0  0  0  0  0  0  0  0  0
   16.0966   25.3551   -7.8040 C   0  0  0  0  0  0  0  0  0  0  0  0
   16.4299   26.6824   -7.7698 C   0  0  0  0  0  0  0  0  0  0  0  0
   16.0797   27.5076   -6.7231 C   0  0  0  0  0  0  0  0  0  0  0  0
   16.4933   29.2070   -6.6507 Cl  0  0  0  0  0  0  0  0  0  0  0  0
   15.3606   26.9881   -5.6535 C   0  0  0  0  0  0  0  0  0  0  0  0
   14.9641   27.7418   -4.5703 C   0  0  0  0  0  0  0  0  0  0  0  0
   15.2884   28.9576   -4.5727 O   0  0  0  0  0  0  0  0  0  0  0  0
   14.2649   27.1815   -3.5704 N   0  0  0  0  0  0  0  0  0  0  0  0
   13.9925   27.8147   -2.7703 H   0  0  0  0  0  0  0  0  0  0  0  0
   12.2757   22.2548    1.0368 C   0  0  0  0  0  0  0  0  0  0  0  0
   11.7831   21.3063    1.9623 C   0  0  0  0  0  0  0  0  0  0  0  0
   10.5332   21.4543    2.4870 C   0  0  0  0  0  0  0  0  0  0  0  0
    9.8086   22.5450    2.0717 C   0  0  0  0  0  0  0  0  0  0  0  0
   10.2680   23.4405    1.1989 N   0  0  0  0  0  0  0  0  0  0  0  0
   11.5286   23.3210    0.6482 C   0  0  0  0  0  0  0  0  0  0  0  0
   14.6645   21.6811    1.4252 O   0  0  0  0  0  0  0  0  0  0  0  0
   13.6333   22.0769    0.5922 C   0  0  0  0  0  0  0  0  0  0  0  0
   13.9689   22.2714   -0.6112 O   0  0  0  0  0  0  0  0  0  0  0  0
   14.8854   20.6723    1.4126 H   0  0  0  0  0  0  0  0  0  0  0  0
 26 27  1  0  0  0
 27 28  2  0  0  0
 27 20  1  0  0  0
 20 21  2  0  0  0
 21 22  1  0  0  0
 22 23  2  0  0  0
 23 24  1  0  0  0
 24 25  2  0  0  0
 25  1  1  0  0  0
  1  2  1  0  0  0
  2  3  1  0  0  0
  3  4  1  0  0  0
  4  5  1  0  0  0
  5  6  1  0  0  0
  4  7  1  0  0  0
  7  8  2  0  0  0
  8  9  1  0  0  0
  9 10  2  0  0  0
 10 11  1  0  0  0
 11 12  2  0  0  0
 12 13  1  0  0  0
 13 14  1  0  0  0
 13 15  2  0  0  0
 15 16  1  0  0  0
 16 17  2  0  0  0
 16 18  1  0  0  0
 25 20  1  0  0  0
  6  1  1  0  0  0
 18  7  1  0  0  0
 15  9  1  0  0  0
 26 29  1  0  0  0
 18 19  1  0  0  0
M  END
> <minimizedAffinity>
-2.10039

> <CNNscore>
0.3942414522

> <CNNaffinity>
6.7054533958

> <CNN_VS>
2.6435678005

> <CNNaffinity_variance>
0.6731238961

$$$$
[H]OC(=O)c1c(N2C([H])([H])C([H])([H])N(c3nc4c([H])c([H])c([H])c(Cl)c4c(=O)n3[H])C([H])([H])C2([H])[H])nc([H])c([H])c1[H]


 29 32  0  0  0  0  0  0  0  0999 V2000
   11.4648   23.6042    0.5391 N   0  0  0  0  0  0  0  0  0  0  0  0
   12.3027   24.7479    0.7979 C   0  0  0  0  0  0  0  0  0  0  0  0
   13.5256   24.5100   -0.1363 C   0  0  0  0  0  0  0  0  0  0  0  0
   13.0018   24.7234   -1.4589 N   0  0  0  0  0  0  0  0  0  0  0  0
   11.7170   24.2192   -1.8332 C   0  0  0  0  0  0  0  0  0  0  0  0
   11.0173   23.4005   -0.8098 C   0  0  0  0  0  0  0  0  0  0  0  0
   13.7925   25.4383   -2.3919 C   0  0  0  0  0  0  0  0  0  0  0  0
   15.0119   25.8376   -2.0111 N   0  0  0  0  0  0  0  0  0  0  0  0
   15.8372   26.5267   -2.8432 C   0  0  0  0  0  0  0  0  0  0  0  0
   17.1011   26.9230   -2.4274 C   0  0  0  0  0  0  0  0  0  0  0  0
   17.9527   27.6221   -3.2758 C   0  0  0  0  0  0  0  0  0  0  0  0
   17.5038   27.9079   -4.5370 C   0  0  0  0  0  0  0  0  0  0  0  0
   16.2558   27.5299   -4.9827 C   0  0  0  0  0  0  0  0  0  0  0  0
   15.6540   27.8828   -6.5882 Cl  0  0  0  0  0  0  0  0  0  0  0  0
   15.4082   26.8309   -4.1318 C   0  0  0  0  0  0  0  0  0  0  0  0
   14.1483   26.4091   -4.4967 C   0  0  0  0  0  0  0  0  0  0  0  0
   13.7689   26.6899   -5.6632 O   0  0  0  0  0  0  0  0  0  0  0  0
   13.3794   25.7315   -3.6294 N   0  0  0  0  0  0  0  0  0  0  0  0
   12.4248   25.4376   -3.9722 H   0  0  0  0  0  0  0  0  0  0  0  0
   11.6711   21.4760    1.7457 C   0  0  0  0  0  0  0  0  0  0  0  0
   11.2304   20.6202    2.7814 C   0  0  0  0  0  0  0  0  0  0  0  0
   10.2481   21.0330    3.6323 C   0  0  0  0  0  0  0  0  0  0  0  0
    9.7315   22.2888    3.4246 C   0  0  0  0  0  0  0  0  0  0  0  0
   10.1424   23.0980    2.4495 N   0  0  0  0  0  0  0  0  0  0  0  0
   11.1347   22.7119    1.5702 C   0  0  0  0  0  0  0  0  0  0  0  0
   12.6073   20.4123   -0.2984 O   0  0  0  0  0  0  0  0  0  0  0  0
   12.7680   21.0035    0.9420 C   0  0  0  0  0  0  0  0  0  0  0  0
   13.9674   21.1074    1.3283 O   0  0  0  0  0  0  0  0  0  0  0  0
   12.7252   21.0401   -1.1100 H   0  0  0  0  0  0  0  0  0  0  0  0
 26 27  1  0  0  0
 27 28  2  0  0  0
 27 20  1  0  0  0
 20 21  2  0  0  0
 21 22  1  0  0  0
 22 23  2  0  0  0
 23 24  1  0  0  0
 24 25  2  0  0  0
 25  1  1  0  0  0
  1  2  1  0  0  0
  2  3  1  0  0  0
  3  4  1  0  0  0
  4  5  1  0  0  0
  5  6  1  0  0  0
  4  7  1  0  0  0
  7  8  2  0  0  0
  8  9  1  0  0  0
  9 10  2  0  0  0
 10 11  1  0  0  0
 11 12  2  0  0  0
 12 13  1  0  0  0
 13 14  1  0  0  0
 13 15  2  0  0  0
 15 16  1  0  0  0
 16 17  2  0  0  0
 16 18  1  0  0  0
 25 20  1  0  0  0
  6  1  1  0  0  0
 18  7  1  0  0  0
 15  9  1  0  0  0
 26 29  1  0  0  0
 18 19  1  0  0  0
M  END
> <minimizedAffinity>
-6.97960

> <CNNscore>
0.3757612109

> <CNNaffinity>
6.7691740990

> <CNN_VS>
2.5435931683

> <CNNaffinity_variance>
0.7142665386

$$$$
[H]OC(=O)c1c(N2C([H])([H])C([H])([H])N(c3nc4c([H])c([H])c([H])c(Cl)c4c(=O)n3[H])C([H])([H])C2([H])[H])nc([H])c([H])c1[H]


 29 32  0  0  0  0  0  0  0  0999 V2000
   14.4584   25.7848   -3.2793 N   0  0  0  0  0  0  0  0  0  0  0  0
   14.5815   24.3792   -2.9860 C   0  0  0  0  0  0  0  0  0  0  0  0
   14.0553   24.2746   -1.5242 C   0  0  0  0  0  0  0  0  0  0  0  0
   12.6410   24.5078   -1.6444 N   0  0  0  0  0  0  0  0  0  0  0  0
   12.1328   25.5283   -2.5079 C   0  0  0  0  0  0  0  0  0  0  0  0
   13.1508   26.3704   -3.1873 C   0  0  0  0  0  0  0  0  0  0  0  0
   11.7567   23.7090   -0.8785 C   0  0  0  0  0  0  0  0  0  0  0  0
   11.0824   22.7364   -1.5037 N   0  0  0  0  0  0  0  0  0  0  0  0
   10.2153   21.9223   -0.8451 C   0  0  0  0  0  0  0  0  0  0  0  0
    9.5335   20.9151   -1.5144 C   0  0  0  0  0  0  0  0  0  0  0  0
    8.6504   20.0747   -0.8454 C   0  0  0  0  0  0  0  0  0  0  0  0
    8.4743   20.2729    0.4975 C   0  0  0  0  0  0  0  0  0  0  0  0
    9.1344   21.2623    1.1934 C   0  0  0  0  0  0  0  0  0  0  0  0
    8.9280   21.5407    2.9093 Cl  0  0  0  0  0  0  0  0  0  0  0  0
   10.0165   22.0996    0.5210 C   0  0  0  0  0  0  0  0  0  0  0  0
   10.7222   23.1089    1.1388 C   0  0  0  0  0  0  0  0  0  0  0  0
   10.5349   23.2621    2.3736 O   0  0  0  0  0  0  0  0  0  0  0  0
   11.5650   23.8805    0.4337 N   0  0  0  0  0  0  0  0  0  0  0  0
   12.0745   24.6358    0.9676 H   0  0  0  0  0  0  0  0  0  0  0  0
   15.9951   26.8546   -4.8674 C   0  0  0  0  0  0  0  0  0  0  0  0
   17.1856   27.5800   -5.1033 C   0  0  0  0  0  0  0  0  0  0  0  0
   17.9510   27.9903   -4.0520 C   0  0  0  0  0  0  0  0  0  0  0  0
   17.5074   27.6635   -2.7937 C   0  0  0  0  0  0  0  0  0  0  0  0
   16.3873   26.9790   -2.5666 N   0  0  0  0  0  0  0  0  0  0  0  0
   15.5889   26.5482   -3.6076 C   0  0  0  0  0  0  0  0  0  0  0  0
   15.5715   25.5923   -6.9683 O   0  0  0  0  0  0  0  0  0  0  0  0
   15.1986   26.5299   -6.0218 C   0  0  0  0  0  0  0  0  0  0  0  0
   14.0867   27.0905   -6.2405 O   0  0  0  0  0  0  0  0  0  0  0  0
   15.1682   24.6496   -6.8449 H   0  0  0  0  0  0  0  0  0  0  0  0
 26 27  1  0  0  0
 27 28  2  0  0  0
 27 20  1  0  0  0
 20 21  2  0  0  0
 21 22  1  0  0  0
 22 23  2  0  0  0
 23 24  1  0  0  0
 24 25  2  0  0  0
 25  1  1  0  0  0
  1  2  1  0  0  0
  2  3  1  0  0  0
  3  4  1  0  0  0
  4  5  1  0  0  0
  5  6  1  0  0  0
  4  7  1  0  0  0
  7  8  2  0  0  0
  8  9  1  0  0  0
  9 10  2  0  0  0
 10 11  1  0  0  0
 11 12  2  0  0  0
 12 13  1  0  0  0
 13 14  1  0  0  0
 13 15  2  0  0  0
 15 16  1  0  0  0
 16 17  2  0  0  0
 16 18  1  0  0  0
 25 20  1  0  0  0
  6  1  1  0  0  0
 18  7  1  0  0  0
 15  9  1  0  0  0
 26 29  1  0  0  0
 18 19  1  0  0  0
M  END
> <minimizedAffinity>
-6.58132

> <CNNscore>
0.3358606398

> <CNNaffinity>
6.7294082642

> <CNN_VS>
2.2601432800

> <CNNaffinity_variance>
0.3704298139

$$$$
[H]OC(=O)c1c(N2C([H])([H])C([H])([H])N(c3nc4c([H])c([H])c([H])c(Cl)c4c(=O)n3[H])C([H])([H])C2([H])[H])nc([H])c([H])c1[H]


 29 32  0  0  0  0  0  0  0  0999 V2000
   14.8754   25.5509   -2.7719 N   0  0  0  0  0  0  0  0  0  0  0  0
   15.3380   24.2799   -2.2743 C   0  0  0  0  0  0  0  0  0  0  0  0
   14.9245   24.3151   -0.7734 C   0  0  0  0  0  0  0  0  0  0  0  0
   13.4907   24.2041   -0.8033 N   0  0  0  0  0  0  0  0  0  0  0  0
   12.7157   24.9215   -1.7676 C   0  0  0  0  0  0  0  0  0  0  0  0
   13.4735   25.8384   -2.6576 C   0  0  0  0  0  0  0  0  0  0  0  0
   12.8569   23.3734    0.1532 C   0  0  0  0  0  0  0  0  0  0  0  0
   11.7148   23.8022    0.7039 N   0  0  0  0  0  0  0  0  0  0  0  0
   11.0401   23.0680    1.6280 C   0  0  0  0  0  0  0  0  0  0  0  0
    9.8528   23.5310    2.1790 C   0  0  0  0  0  0  0  0  0  0  0  0
    9.1543   22.7820    3.1196 C   0  0  0  0  0  0  0  0  0  0  0  0
    9.6761   21.5707    3.4860 C   0  0  0  0  0  0  0  0  0  0  0  0
   10.8515   21.0803    2.9596 C   0  0  0  0  0  0  0  0  0  0  0  0
   11.5438   19.5369    3.4101 Cl  0  0  0  0  0  0  0  0  0  0  0  0
   11.5461   21.8319    2.0195 C   0  0  0  0  0  0  0  0  0  0  0  0
   12.7238   21.4159    1.4378 C   0  0  0  0  0  0  0  0  0  0  0  0
   13.1739   20.2977    1.7989 O   0  0  0  0  0  0  0  0  0  0  0  0
   13.3440   22.1865    0.5299 N   0  0  0  0  0  0  0  0  0  0  0  0
   14.2424   21.8089    0.1229 H   0  0  0  0  0  0  0  0  0  0  0  0
   15.8367   26.8516   -4.6191 C   0  0  0  0  0  0  0  0  0  0  0  0
   16.8240   27.7493   -5.0865 C   0  0  0  0  0  0  0  0  0  0  0  0
   17.7425   28.2614   -4.2184 C   0  0  0  0  0  0  0  0  0  0  0  0
   17.6508   27.8618   -2.9073 C   0  0  0  0  0  0  0  0  0  0  0  0
   16.7233   27.0153   -2.4627 N   0  0  0  0  0  0  0  0  0  0  0  0
   15.7784   26.4778   -3.3141 C   0  0  0  0  0  0  0  0  0  0  0  0
   15.0683   25.4024   -6.4888 O   0  0  0  0  0  0  0  0  0  0  0  0
   14.8524   26.4202   -5.5769 C   0  0  0  0  0  0  0  0  0  0  0  0
   13.7079   26.9538   -5.6393 O   0  0  0  0  0  0  0  0  0  0  0  0
   14.7133   24.4730   -6.2117 H   0  0  0  0  0  0  0  0  0  0  0  0
 26 27  1  0  0  0
 27 28  2  0  0  0
 27 20  1  0  0  0
 20 21  2  0  0  0
 21 22  1  0  0  0
 22 23  2  0  0  0
 23 24  1  0  0  0
 24 25  2  0  0  0
 25  1  1  0  0  0
  1  2  1  0  0  0
  2  3  1  0  0  0
  3  4  1  0  0  0
  4  5  1  0  0  0
  5  6  1  0  0  0
  4  7  1  0  0  0
  7  8  2  0  0  0
  8  9  1  0  0  0
  9 10  2  0  0  0
 10 11  1  0  0  0
 11 12  2  0  0  0
 12 13  1  0  0  0
 13 14  1  0  0  0
 13 15  2  0  0  0
 15 16  1  0  0  0
 16 17  2  0  0  0
 16 18  1  0  0  0
 25 20  1  0  0  0
  6  1  1  0  0  0
 18  7  1  0  0  0
 15  9  1  0  0  0
 26 29  1  0  0  0
 18 19  1  0  0  0
M  END
> <minimizedAffinity>
-7.74092

> <CNNscore>
0.3070747256

> <CNNaffinity>
6.8944945335

> <CNN_VS>
2.1171250343

> <CNNaffinity_variance>
0.5741533041

$$$$
[H]OC(=O)c1c(N2C([H])([H])C([H])([H])N(c3nc4c([H])c([H])c([H])c(Cl)c4c(=O)n3[H])C([H])([H])C2([H])[H])nc([H])c([H])c1[H]


 29 32  0  0  0  0  0  0  0  0999 V2000
   13.4763   24.7883   -1.8421 N   0  0  0  0  0  0  0  0  0  0  0  0
   12.0376   24.8278   -1.9161 C   0  0  0  0  0  0  0  0  0  0  0  0
   11.6010   23.7011   -0.9339 C   0  0  0  0  0  0  0  0  0  0  0  0
   11.9219   24.2270    0.3660 N   0  0  0  0  0  0  0  0  0  0  0  0
   13.1459   24.9302    0.5951 C   0  0  0  0  0  0  0  0  0  0  0  0
   14.0812   24.9985   -0.5571 C   0  0  0  0  0  0  0  0  0  0  0  0
   11.0011   24.0246    1.4233 C   0  0  0  0  0  0  0  0  0  0  0  0
   10.9262   22.8054    1.9705 N   0  0  0  0  0  0  0  0  0  0  0  0
   10.0719   22.5243    2.9901 C   0  0  0  0  0  0  0  0  0  0  0  0
   10.0183   21.2535    3.5465 C   0  0  0  0  0  0  0  0  0  0  0  0
    9.1518   20.9612    4.5940 C   0  0  0  0  0  0  0  0  0  0  0  0
    8.3510   21.9689    5.0600 C   0  0  0  0  0  0  0  0  0  0  0  0
    8.3781   23.2414    4.5316 C   0  0  0  0  0  0  0  0  0  0  0  0
    7.3652   24.5489    5.1050 Cl  0  0  0  0  0  0  0  0  0  0  0  0
    9.2461   23.5293    3.4852 C   0  0  0  0  0  0  0  0  0  0  0  0
    9.3430   24.7741    2.9026 C   0  0  0  0  0  0  0  0  0  0  0  0
    8.5916   25.6758    3.3562 O   0  0  0  0  0  0  0  0  0  0  0  0
   10.2070   24.9901    1.8978 N   0  0  0  0  0  0  0  0  0  0  0  0
   10.2313   25.9663    1.4958 H   0  0  0  0  0  0  0  0  0  0  0  0
   14.4433   25.3755   -4.0212 C   0  0  0  0  0  0  0  0  0  0  0  0
   15.1838   24.9929   -5.1632 C   0  0  0  0  0  0  0  0  0  0  0  0
   15.7181   23.7406   -5.2386 C   0  0  0  0  0  0  0  0  0  0  0  0
   15.4968   22.9039   -4.1718 C   0  0  0  0  0  0  0  0  0  0  0  0
   14.7986   23.2594   -3.0945 N   0  0  0  0  0  0  0  0  0  0  0  0
   14.2438   24.5191   -2.9853 C   0  0  0  0  0  0  0  0  0  0  0  0
   12.6468   27.0956   -4.0009 O   0  0  0  0  0  0  0  0  0  0  0  0
   13.9833   26.7390   -3.9781 C   0  0  0  0  0  0  0  0  0  0  0  0
   14.7900   27.7102   -3.9109 O   0  0  0  0  0  0  0  0  0  0  0  0
   12.2183   27.2776   -3.0789 H   0  0  0  0  0  0  0  0  0  0  0  0
 26 27  1  0  0  0
 27 28  2  0  0  0
 27 20  1  0  0  0
 20 21  2  0  0  0
 21 22  1  0  0  0
 22 23  2  0  0  0
 23 24  1  0  0  0
 24 25  2  0  0  0
 25  1  1  0  0  0
  1  2  1  0  0  0
  2  3  1  0  0  0
  3  4  1  0  0  0
  4  5  1  0  0  0
  5  6  1  0  0  0
  4  7  1  0  0  0
  7  8  2  0  0  0
  8  9  1  0  0  0
  9 10  2  0  0  0
 10 11  1  0  0  0
 11 12  2  0  0  0
 12 13  1  0  0  0
 13 14  1  0  0  0
 13 15  2  0  0  0
 15 16  1  0  0  0
 16 17  2  0  0  0
 16 18  1  0  0  0
 25 20  1  0  0  0
  6  1  1  0  0  0
 18  7  1  0  0  0
 15  9  1  0  0  0
 26 29  1  0  0  0
 18 19  1  0  0  0
M  END
> <minimizedAffinity>
-6.81376

> <CNNscore>
0.2868086398

> <CNNaffinity>
6.3915109634

> <CNN_VS>
1.8331406116

> <CNNaffinity_variance>
0.3111564517

$$$$
[H]OC(=O)c1c(N2C([H])([H])C([H])([H])N(c3nc4c([H])c([H])c([H])c(Cl)c4c(=O)n3[H])C([H])([H])C2([H])[H])nc([H])c([H])c1[H]


 29 32  0  0  0  0  0  0  0  0999 V2000
   11.6927   22.6310    0.4030 N   0  0  0  0  0  0  0  0  0  0  0  0
   11.5550   24.0480    0.1793 C   0  0  0  0  0  0  0  0  0  0  0  0
   13.0305   24.5387    0.0954 C   0  0  0  0  0  0  0  0  0  0  0  0
   13.5045   24.0083   -1.1548 N   0  0  0  0  0  0  0  0  0  0  0  0
   13.1775   22.6771   -1.5623 C   0  0  0  0  0  0  0  0  0  0  0  0
   12.4059   21.8692   -0.5830 C   0  0  0  0  0  0  0  0  0  0  0  0
   14.3149   24.8317   -1.9746 C   0  0  0  0  0  0  0  0  0  0  0  0
   13.8484   25.1760   -3.1809 N   0  0  0  0  0  0  0  0  0  0  0  0
   14.5592   25.9643   -4.0305 C   0  0  0  0  0  0  0  0  0  0  0  0
   14.0501   26.3143   -5.2738 C   0  0  0  0  0  0  0  0  0  0  0  0
   14.7690   27.1258   -6.1446 C   0  0  0  0  0  0  0  0  0  0  0  0
   15.9978   27.5694   -5.7359 C   0  0  0  0  0  0  0  0  0  0  0  0
   16.5335   27.2419   -4.5092 C   0  0  0  0  0  0  0  0  0  0  0  0
   18.1021   27.7921   -3.9604 Cl  0  0  0  0  0  0  0  0  0  0  0  0
   15.8114   26.4311   -3.6418 C   0  0  0  0  0  0  0  0  0  0  0  0
   16.2677   26.0601   -2.3958 C   0  0  0  0  0  0  0  0  0  0  0  0
   17.4012   26.4860   -2.0538 O   0  0  0  0  0  0  0  0  0  0  0  0
   15.5185   25.2789   -1.6013 N   0  0  0  0  0  0  0  0  0  0  0  0
   15.9268   25.0315   -0.6593 H   0  0  0  0  0  0  0  0  0  0  0  0
    9.8542   21.9003    1.8571 C   0  0  0  0  0  0  0  0  0  0  0  0
    9.4248   21.3415    3.0828 C   0  0  0  0  0  0  0  0  0  0  0  0
   10.3448   20.9232    3.9983 C   0  0  0  0  0  0  0  0  0  0  0  0
   11.6687   21.0757    3.6652 C   0  0  0  0  0  0  0  0  0  0  0  0
   12.0780   21.6028    2.5123 N   0  0  0  0  0  0  0  0  0  0  0  0
   11.1738   22.0367    1.5632 C   0  0  0  0  0  0  0  0  0  0  0  0
    8.5798   21.5155   -0.2439 O   0  0  0  0  0  0  0  0  0  0  0  0
    8.8263   22.2403    0.9084 C   0  0  0  0  0  0  0  0  0  0  0  0
    8.0699   23.2391    1.0782 O   0  0  0  0  0  0  0  0  0  0  0  0
    7.8184   20.8207   -0.1792 H   0  0  0  0  0  0  0  0  0  0  0  0
 26 27  1  0  0  0
 27 28  2  0  0  0
 27 20  1  0  0  0
 20 21  2  0  0  0
 21 22  1  0  0  0
 22 23  2  0  0  0
 23 24  1  0  0  0
 24 25  2  0  0  0
 25  1  1  0  0  0
  1  2  1  0  0  0
  2  3  1  0  0  0
  3  4  1  0  0  0
  4  5  1  0  0  0
  5  6  1  0  0  0
  4  7  1  0  0  0
  7  8  2  0  0  0
  8  9  1  0  0  0
  9 10  2  0  0  0
 10 11  1  0  0  0
 11 12  2  0  0  0
 12 13  1  0  0  0
 13 14  1  0  0  0
 13 15  2  0  0  0
 15 16  1  0  0  0
 16 17  2  0  0  0
 16 18  1  0  0  0
 25 20  1  0  0  0
  6  1  1  0  0  0
 18  7  1  0  0  0
 15  9  1  0  0  0
 26 29  1  0  0  0
 18 19  1  0  0  0
M  END
> <minimizedAffinity>
-8.43087

> <CNNscore>
0.2707196474

> <CNNaffinity>
6.7851514816

> <CNN_VS>
1.8368737698

> <CNNaffinity_variance>
0.4317949414

$$$$
[H]OC(=O)C([H])([H])N1C([H])([H])C([H])([H])C([H])([H])C([H])(N([H])C(=O)c2c(O[H])c(Cl)c([H])c3c([H])c([H])c([H])c([H])c23)C1([H])[H]


 28 30  0  0  0  0  0  0  0  0999 V2000
   14.2512   23.7341   -2.0554 N   0  0  0  0  0  0  0  0  0  0  0  0
   15.0357   23.8691   -3.1835 C   0  0  0  0  0  0  0  0  0  0  0  0
   15.5660   22.6930   -3.5694 O   0  0  0  0  0  0  0  0  0  0  0  0
   13.7280   24.4138   -1.5319 H   0  0  0  0  0  0  0  0  0  0  0  0
   15.4502   24.9034   -4.0654 C   0  0  0  0  0  0  0  0  0  0  0  0
   15.1872   24.7167   -5.4430 C   0  0  0  0  0  0  0  0  0  0  0  0
   14.5438   23.5662   -5.9129 O   0  0  0  0  0  0  0  0  0  0  0  0
   15.5327   25.6257   -6.4028 C   0  0  0  0  0  0  0  0  0  0  0  0
   15.2002   25.3790   -8.1032 Cl  0  0  0  0  0  0  0  0  0  0  0  0
   16.1649   26.7765   -6.0196 C   0  0  0  0  0  0  0  0  0  0  0  0
   16.4429   27.0046   -4.6909 C   0  0  0  0  0  0  0  0  0  0  0  0
   17.0859   28.2000   -4.3805 C   0  0  0  0  0  0  0  0  0  0  0  0
   17.3792   28.4679   -3.0662 C   0  0  0  0  0  0  0  0  0  0  0  0
   17.0302   27.5565   -2.1216 C   0  0  0  0  0  0  0  0  0  0  0  0
   16.3849   26.3497   -2.4039 C   0  0  0  0  0  0  0  0  0  0  0  0
   16.0913   26.0814   -3.7203 C   0  0  0  0  0  0  0  0  0  0  0  0
   14.3351   23.3823   -6.8638 H   0  0  0  0  0  0  0  0  0  0  0  0
   13.3138   22.1677    0.9076 N   0  0  0  0  0  0  0  0  0  0  0  0
   12.0970   22.7041    0.4314 C   0  0  0  0  0  0  0  0  0  0  0  0
   11.6633   22.0053   -0.8314 C   0  0  0  0  0  0  0  0  0  0  0  0
   12.7717   21.7944   -1.8115 C   0  0  0  0  0  0  0  0  0  0  0  0
   14.0893   22.3687   -1.4232 C   0  0  0  0  0  0  0  0  0  0  0  0
   14.3755   22.5036    0.0251 C   0  0  0  0  0  0  0  0  0  0  0  0
   13.2960   20.8447    1.4221 C   0  0  0  0  0  0  0  0  0  0  0  0
   12.2133   21.2504    3.6251 O   0  0  0  0  0  0  0  0  0  0  0  0
   12.2240   20.5824    2.3913 C   0  0  0  0  0  0  0  0  0  0  0  0
   11.3275   19.7698    2.1196 O   0  0  0  0  0  0  0  0  0  0  0  0
   11.3661   21.7698    3.8856 H   0  0  0  0  0  0  0  0  0  0  0  0
 25 26  1  0  0  0
 26 27  2  0  0  0
 26 24  1  0  0  0
 24 18  1  0  0  0
 18 19  1  0  0  0
 19 20  1  0  0  0
 20 21  1  0  0  0
 21 22  1  0  0  0
 22 23  1  0  0  0
 22  1  1  0  0  0
  1  2  1  0  0  0
  2  3  2  0  0  0
  2  5  1  0  0  0
  5  6  2  0  0  0
  6  7  1  0  0  0
  6  8  1  0  0  0
  8  9  1  0  0  0
  8 10  2  0  0  0
 10 11  1  0  0  0
 11 12  2  0  0  0
 12 13  1  0  0  0
 13 14  2  0  0  0
 14 15  1  0  0  0
 15 16  2  0  0  0
 23 18  1  0  0  0
 16  5  1  0  0  0
 16 11  1  0  0  0
 25 28  1  0  0  0
  1  4  1  0  0  0
  7 17  1  0  0  0
M  END
> <minimizedAffinity>
-4.06335

> <CNNscore>
0.6206704974

> <CNNaffinity>
6.7819433212

> <CNN_VS>
4.2093520164

> <CNNaffinity_variance>
0.7880105972

$$$$
[H]OC(=O)C([H])([H])N1C([H])([H])C([H])([H])C([H])([H])C([H])(N([H])C(=O)c2c(O[H])c(Cl)c([H])c3c([H])c([H])c([H])c([H])c23)C1([H])[H]


 28 30  0  0  0  0  0  0  0  0999 V2000
   13.7836   23.3435   -1.4515 N   0  0  0  0  0  0  0  0  0  0  0  0
   14.4559   24.5383   -1.6138 C   0  0  0  0  0  0  0  0  0  0  0  0
   15.3376   24.7569   -0.6198 O   0  0  0  0  0  0  0  0  0  0  0  0
   13.0757   22.9045   -2.0136 H   0  0  0  0  0  0  0  0  0  0  0  0
   14.4864   25.6173   -2.5382 C   0  0  0  0  0  0  0  0  0  0  0  0
   13.2509   26.0163   -3.1005 C   0  0  0  0  0  0  0  0  0  0  0  0
   12.0536   25.3783   -2.7571 O   0  0  0  0  0  0  0  0  0  0  0  0
   13.1316   27.0347   -4.0037 C   0  0  0  0  0  0  0  0  0  0  0  0
   11.5952   27.5155   -4.6902 Cl  0  0  0  0  0  0  0  0  0  0  0  0
   14.2593   27.7067   -4.3878 C   0  0  0  0  0  0  0  0  0  0  0  0
   15.4851   27.3561   -3.8689 C   0  0  0  0  0  0  0  0  0  0  0  0
   16.5849   28.0889   -4.3072 C   0  0  0  0  0  0  0  0  0  0  0  0
   17.8261   27.7732   -3.8121 C   0  0  0  0  0  0  0  0  0  0  0  0
   17.9313   26.7592   -2.9146 C   0  0  0  0  0  0  0  0  0  0  0  0
   16.8459   26.0074   -2.4576 C   0  0  0  0  0  0  0  0  0  0  0  0
   15.6028   26.3235   -2.9536 C   0  0  0  0  0  0  0  0  0  0  0  0
   11.1620   25.6142   -3.1189 H   0  0  0  0  0  0  0  0  0  0  0  0
   12.2737   21.3285    0.9510 N   0  0  0  0  0  0  0  0  0  0  0  0
   12.1037   20.5877   -0.2395 C   0  0  0  0  0  0  0  0  0  0  0  0
   13.4305   20.0919   -0.7540 C   0  0  0  0  0  0  0  0  0  0  0  0
   14.5126   21.1220   -0.7138 C   0  0  0  0  0  0  0  0  0  0  0  0
   14.0941   22.4743   -0.2522 C   0  0  0  0  0  0  0  0  0  0  0  0
   12.9400   22.5528    0.6748 C   0  0  0  0  0  0  0  0  0  0  0  0
   12.6750   20.6236    2.1161 C   0  0  0  0  0  0  0  0  0  0  0  0
   10.2661   20.6812    2.7355 O   0  0  0  0  0  0  0  0  0  0  0  0
   11.5735   20.2556    3.0152 C   0  0  0  0  0  0  0  0  0  0  0  0
   11.7984   19.5683    4.0226 O   0  0  0  0  0  0  0  0  0  0  0  0
    9.5281   19.9688    2.6790 H   0  0  0  0  0  0  0  0  0  0  0  0
 25 26  1  0  0  0
 26 27  2  0  0  0
 26 24  1  0  0  0
 24 18  1  0  0  0
 18 19  1  0  0  0
 19 20  1  0  0  0
 20 21  1  0  0  0
 21 22  1  0  0  0
 22 23  1  0  0  0
 22  1  1  0  0  0
  1  2  1  0  0  0
  2  3  2  0  0  0
  2  5  1  0  0  0
  5  6  2  0  0  0
  6  7  1  0  0  0
  6  8  1  0  0  0
  8  9  1  0  0  0
  8 10  2  0  0  0
 10 11  1  0  0  0
 11 12  2  0  0  0
 12 13  1  0  0  0
 13 14  2  0  0  0
 14 15  1  0  0  0
 15 16  2  0  0  0
 23 18  1  0  0  0
 16  5  1  0  0  0
 16 11  1  0  0  0
 25 28  1  0  0  0
  1  4  1  0  0  0
  7 17  1  0  0  0
M  END
> <minimizedAffinity>
-4.12074

> <CNNscore>
0.6015686989

> <CNNaffinity>
6.4717836380

> <CNN_VS>
3.8932225704

> <CNNaffinity_variance>
0.5965270400

$$$$
[H]OC(=O)C([H])([H])N1C([H])([H])C([H])([H])C([H])([H])C([H])(N([H])C(=O)c2c(O[H])c(Cl)c([H])c3c([H])c([H])c([H])c([H])c23)C1([H])[H]


 28 30  0  0  0  0  0  0  0  0999 V2000
   12.4225   22.5949   -0.3536 N   0  0  0  0  0  0  0  0  0  0  0  0
   13.0607   23.8190   -0.3401 C   0  0  0  0  0  0  0  0  0  0  0  0
   12.3489   24.7486    0.3251 O   0  0  0  0  0  0  0  0  0  0  0  0
   12.6913   21.7166   -0.7611 H   0  0  0  0  0  0  0  0  0  0  0  0
   14.2665   24.3882   -0.8317 C   0  0  0  0  0  0  0  0  0  0  0  0
   15.4414   24.1528   -0.0794 C   0  0  0  0  0  0  0  0  0  0  0  0
   15.4154   23.3899    1.0935 O   0  0  0  0  0  0  0  0  0  0  0  0
   16.6682   24.6408   -0.4314 C   0  0  0  0  0  0  0  0  0  0  0  0
   18.1119   24.3405    0.5110 Cl  0  0  0  0  0  0  0  0  0  0  0  0
   16.7729   25.3957   -1.5672 C   0  0  0  0  0  0  0  0  0  0  0  0
   15.6586   25.6527   -2.3333 C   0  0  0  0  0  0  0  0  0  0  0  0
   15.8471   26.4264   -3.4755 C   0  0  0  0  0  0  0  0  0  0  0  0
   14.7617   26.7040   -4.2693 C   0  0  0  0  0  0  0  0  0  0  0  0
   13.5479   26.2127   -3.9088 C   0  0  0  0  0  0  0  0  0  0  0  0
   13.3294   25.4345   -2.7691 C   0  0  0  0  0  0  0  0  0  0  0  0
   14.4166   25.1566   -1.9740 C   0  0  0  0  0  0  0  0  0  0  0  0
   16.2047   23.1937    1.6593 H   0  0  0  0  0  0  0  0  0  0  0  0
    9.3651   20.9511   -0.6032 N   0  0  0  0  0  0  0  0  0  0  0  0
   10.2641   19.9073   -0.2907 C   0  0  0  0  0  0  0  0  0  0  0  0
   10.7983   20.0641    1.1096 C   0  0  0  0  0  0  0  0  0  0  0  0
   11.1999   21.4639    1.4455 C   0  0  0  0  0  0  0  0  0  0  0  0
   11.0829   22.4488    0.3351 C   0  0  0  0  0  0  0  0  0  0  0  0
   10.0639   22.1839   -0.7084 C   0  0  0  0  0  0  0  0  0  0  0  0
    8.1168   20.9721    0.0725 C   0  0  0  0  0  0  0  0  0  0  0  0
    7.4482   23.3683    0.0365 O   0  0  0  0  0  0  0  0  0  0  0  0
    7.8221   22.2313    0.7687 C   0  0  0  0  0  0  0  0  0  0  0  0
    7.9037   22.2904    2.0047 O   0  0  0  0  0  0  0  0  0  0  0  0
    6.5693   23.8370    0.2878 H   0  0  0  0  0  0  0  0  0  0  0  0
 25 26  1  0  0  0
 26 27  2  0  0  0
 26 24  1  0  0  0
 24 18  1  0  0  0
 18 19  1  0  0  0
 19 20  1  0  0  0
 20 21  1  0  0  0
 21 22  1  0  0  0
 22 23  1  0  0  0
 22  1  1  0  0  0
  1  2  1  0  0  0
  2  3  2  0  0  0
  2  5  1  0  0  0
  5  6  2  0  0  0
  6  7  1  0  0  0
  6  8  1  0  0  0
  8  9  1  0  0  0
  8 10  2  0  0  0
 10 11  1  0  0  0
 11 12  2  0  0  0
 12 13  1  0  0  0
 13 14  2  0  0  0
 14 15  1  0  0  0
 15 16  2  0  0  0
 23 18  1  0  0  0
 16  5  1  0  0  0
 16 11  1  0  0  0
 25 28  1  0  0  0
  1  4  1  0  0  0
  7 17  1  0  0  0
M  END
> <minimizedAffinity>
-7.12760

> <CNNscore>
0.5892646313

> <CNNaffinity>
6.7333269119

> <CNN_VS>
3.9677114487

> <CNNaffinity_variance>
0.3435202539

$$$$
[H]OC(=O)C([H])([H])N1C([H])([H])C([H])([H])C([H])([H])C([H])(N([H])C(=O)c2c(O[H])c(Cl)c([H])c3c([H])c([H])c([H])c([H])c23)C1([H])[H]


 28 30  0  0  0  0  0  0  0  0999 V2000
   13.9523   24.1226   -2.0646 N   0  0  0  0  0  0  0  0  0  0  0  0
   14.9402   24.3257   -3.0074 C   0  0  0  0  0  0  0  0  0  0  0  0
   15.5500   23.1753   -3.3507 O   0  0  0  0  0  0  0  0  0  0  0  0
   13.3287   24.7693   -1.6144 H   0  0  0  0  0  0  0  0  0  0  0  0
   15.5063   25.4114   -3.7286 C   0  0  0  0  0  0  0  0  0  0  0  0
   16.1399   26.4248   -2.9714 C   0  0  0  0  0  0  0  0  0  0  0  0
   16.2085   26.3565   -1.5753 O   0  0  0  0  0  0  0  0  0  0  0  0
   16.7230   27.5263   -3.5314 C   0  0  0  0  0  0  0  0  0  0  0  0
   17.5026   28.7712   -2.5799 Cl  0  0  0  0  0  0  0  0  0  0  0  0
   16.6966   27.6626   -4.8921 C   0  0  0  0  0  0  0  0  0  0  0  0
   16.0920   26.7034   -5.6727 C   0  0  0  0  0  0  0  0  0  0  0  0
   16.1088   26.9124   -7.0492 C   0  0  0  0  0  0  0  0  0  0  0  0
   15.5190   25.9781   -7.8643 C   0  0  0  0  0  0  0  0  0  0  0  0
   14.9433   24.8874   -7.2954 C   0  0  0  0  0  0  0  0  0  0  0  0
   14.9114   24.6520   -5.9185 C   0  0  0  0  0  0  0  0  0  0  0  0
   15.5021   25.5879   -5.1021 C   0  0  0  0  0  0  0  0  0  0  0  0
   16.6377   27.0355   -0.9954 H   0  0  0  0  0  0  0  0  0  0  0  0
   13.3397   22.3206    0.8491 N   0  0  0  0  0  0  0  0  0  0  0  0
   12.1618   23.0842    0.6925 C   0  0  0  0  0  0  0  0  0  0  0  0
   11.3888   22.6312   -0.5192 C   0  0  0  0  0  0  0  0  0  0  0  0
   12.2428   22.3986   -1.7234 C   0  0  0  0  0  0  0  0  0  0  0  0
   13.6868   22.7216   -1.5578 C   0  0  0  0  0  0  0  0  0  0  0  0
   14.2580   22.6177   -0.1938 C   0  0  0  0  0  0  0  0  0  0  0  0
   13.1987   20.9565    1.2159 C   0  0  0  0  0  0  0  0  0  0  0  0
   10.9861   19.9251    1.6965 O   0  0  0  0  0  0  0  0  0  0  0  0
   12.0830   20.6841    2.1316 C   0  0  0  0  0  0  0  0  0  0  0  0
   12.1099   21.1251    3.2903 O   0  0  0  0  0  0  0  0  0  0  0  0
   10.7216   19.0992    2.2471 H   0  0  0  0  0  0  0  0  0  0  0  0
 25 26  1  0  0  0
 26 27  2  0  0  0
 26 24  1  0  0  0
 24 18  1  0  0  0
 18 19  1  0  0  0
 19 20  1  0  0  0
 20 21  1  0  0  0
 21 22  1  0  0  0
 22 23  1  0  0  0
 22  1  1  0  0  0
  1  2  1  0  0  0
  2  3  2  0  0  0
  2  5  1  0  0  0
  5  6  2  0  0  0
  6  7  1  0  0  0
  6  8  1  0  0  0
  8  9  1  0  0  0
  8 10  2  0  0  0
 10 11  1  0  0  0
 11 12  2  0  0  0
 12 13  1  0  0  0
 13 14  2  0  0  0
 14 15  1  0  0  0
 15 16  2  0  0  0
 23 18  1  0  0  0
 16  5  1  0  0  0
 16 11  1  0  0  0
 25 28  1  0  0  0
  1  4  1  0  0  0
  7 17  1  0  0  0
M  END
> <minimizedAffinity>
-4.19651

> <CNNscore>
0.5267425179

> <CNNaffinity>
6.6765823364

> <CNN_VS>
3.5168397427

> <CNNaffinity_variance>
0.7185281515

$$$$
[H]OC(=O)C([H])([H])N1C([H])([H])C([H])([H])C([H])([H])C([H])(N([H])C(=O)c2c(O[H])c(Cl)c([H])c3c([H])c([H])c([H])c([H])c23)C1([H])[H]


 28 30  0  0  0  0  0  0  0  0999 V2000
   15.0474   23.4568   -1.9804 N   0  0  0  0  0  0  0  0  0  0  0  0
   14.8196   24.6625   -2.6132 C   0  0  0  0  0  0  0  0  0  0  0  0
   13.7923   25.3337   -2.0589 O   0  0  0  0  0  0  0  0  0  0  0  0
   15.7298   22.7401   -2.1549 H   0  0  0  0  0  0  0  0  0  0  0  0
   15.3626   25.4086   -3.6939 C   0  0  0  0  0  0  0  0  0  0  0  0
   15.0608   24.9586   -5.0009 C   0  0  0  0  0  0  0  0  0  0  0  0
   14.2597   23.8316   -5.2170 O   0  0  0  0  0  0  0  0  0  0  0  0
   15.5173   25.5759   -6.1312 C   0  0  0  0  0  0  0  0  0  0  0  0
   15.1347   25.0058   -7.7410 Cl  0  0  0  0  0  0  0  0  0  0  0  0
   16.3063   26.6854   -5.9999 C   0  0  0  0  0  0  0  0  0  0  0  0
   16.6281   27.1625   -4.7494 C   0  0  0  0  0  0  0  0  0  0  0  0
   17.4331   28.2974   -4.6988 C   0  0  0  0  0  0  0  0  0  0  0  0
   17.7754   28.8076   -3.4709 C   0  0  0  0  0  0  0  0  0  0  0  0
   17.3149   28.1851   -2.3550 C   0  0  0  0  0  0  0  0  0  0  0  0
   16.5064   27.0458   -2.3758 C   0  0  0  0  0  0  0  0  0  0  0  0
   16.1637   26.5347   -3.6057 C   0  0  0  0  0  0  0  0  0  0  0  0
   14.0170   23.4716   -6.1075 H   0  0  0  0  0  0  0  0  0  0  0  0
   12.5543   21.2111   -1.0567 N   0  0  0  0  0  0  0  0  0  0  0  0
   13.6890   20.3837   -1.2080 C   0  0  0  0  0  0  0  0  0  0  0  0
   14.7132   20.6821   -0.1437 C   0  0  0  0  0  0  0  0  0  0  0  0
   14.9319   22.1426    0.0861 C   0  0  0  0  0  0  0  0  0  0  0  0
   14.1723   23.0542   -0.8132 C   0  0  0  0  0  0  0  0  0  0  0  0
   12.8870   22.5587   -1.3608 C   0  0  0  0  0  0  0  0  0  0  0  0
   11.7217   20.9906    0.0718 C   0  0  0  0  0  0  0  0  0  0  0  0
    9.4471   21.6093   -0.7242 O   0  0  0  0  0  0  0  0  0  0  0  0
   10.3358   20.6302   -0.2549 C   0  0  0  0  0  0  0  0  0  0  0  0
    9.9500   19.4598   -0.1158 O   0  0  0  0  0  0  0  0  0  0  0  0
    8.9628   21.4355   -1.6133 H   0  0  0  0  0  0  0  0  0  0  0  0
 25 26  1  0  0  0
 26 27  2  0  0  0
 26 24  1  0  0  0
 24 18  1  0  0  0
 18 19  1  0  0  0
 19 20  1  0  0  0
 20 21  1  0  0  0
 21 22  1  0  0  0
 22 23  1  0  0  0
 22  1  1  0  0  0
  1  2  1  0  0  0
  2  3  2  0  0  0
  2  5  1  0  0  0
  5  6  2  0  0  0
  6  7  1  0  0  0
  6  8  1  0  0  0
  8  9  1  0  0  0
  8 10  2  0  0  0
 10 11  1  0  0  0
 11 12  2  0  0  0
 12 13  1  0  0  0
 13 14  2  0  0  0
 14 15  1  0  0  0
 15 16  2  0  0  0
 23 18  1  0  0  0
 16  5  1  0  0  0
 16 11  1  0  0  0
 25 28  1  0  0  0
  1  4  1  0  0  0
  7 17  1  0  0  0
M  END
> <minimizedAffinity>
-2.62092

> <CNNscore>
0.4956004918

> <CNNaffinity>
6.5835089684

> <CNN_VS>
3.2627902031

> <CNNaffinity_variance>
0.7262493968

$$$$
[H]OC(=O)C([H])([H])N1C([H])([H])C([H])([H])C([H])([H])C([H])(N([H])C(=O)c2c(O[H])c(Cl)c([H])c3c([H])c([H])c([H])c([H])c23)C1([H])[H]


 28 30  0  0  0  0  0  0  0  0999 V2000
   12.2267   22.9441   -1.2903 N   0  0  0  0  0  0  0  0  0  0  0  0
   12.8466   24.1673   -1.4497 C   0  0  0  0  0  0  0  0  0  0  0  0
   11.9604   25.1810   -1.4621 O   0  0  0  0  0  0  0  0  0  0  0  0
   12.6061   22.0149   -1.2419 H   0  0  0  0  0  0  0  0  0  0  0  0
   14.1659   24.6716   -1.6066 C   0  0  0  0  0  0  0  0  0  0  0  0
   15.0925   24.3772   -0.5787 C   0  0  0  0  0  0  0  0  0  0  0  0
   14.7250   23.6198    0.5392 O   0  0  0  0  0  0  0  0  0  0  0  0
   16.3919   24.7997   -0.5962 C   0  0  0  0  0  0  0  0  0  0  0  0
   17.5253   24.4270    0.6841 Cl  0  0  0  0  0  0  0  0  0  0  0  0
   16.8254   25.5450   -1.6580 C   0  0  0  0  0  0  0  0  0  0  0  0
   15.9618   25.8578   -2.6833 C   0  0  0  0  0  0  0  0  0  0  0  0
   16.4788   26.6175   -3.7294 C   0  0  0  0  0  0  0  0  0  0  0  0
   15.6514   26.9492   -4.7737 C   0  0  0  0  0  0  0  0  0  0  0  0
   14.3622   26.5229   -4.7447 C   0  0  0  0  0  0  0  0  0  0  0  0
   13.8168   25.7601   -3.7088 C   0  0  0  0  0  0  0  0  0  0  0  0
   14.6455   25.4280   -2.6628 C   0  0  0  0  0  0  0  0  0  0  0  0
   15.3299   23.3843    1.2876 H   0  0  0  0  0  0  0  0  0  0  0  0
    9.6372   20.8983   -0.1854 N   0  0  0  0  0  0  0  0  0  0  0  0
   10.2840   21.2701    1.0139 C   0  0  0  0  0  0  0  0  0  0  0  0
   10.1024   22.7414    1.2846 C   0  0  0  0  0  0  0  0  0  0  0  0
   10.3031   23.6025    0.0797 C   0  0  0  0  0  0  0  0  0  0  0  0
   10.7202   22.8872   -1.1577 C   0  0  0  0  0  0  0  0  0  0  0  0
   10.3063   21.4710   -1.3004 C   0  0  0  0  0  0  0  0  0  0  0  0
    8.2178   20.9185   -0.2041 C   0  0  0  0  0  0  0  0  0  0  0  0
    7.2009   20.2200   -2.3647 O   0  0  0  0  0  0  0  0  0  0  0  0
    7.6052   19.8950   -1.0610 C   0  0  0  0  0  0  0  0  0  0  0  0
    7.4447   18.7423   -0.6325 O   0  0  0  0  0  0  0  0  0  0  0  0
    7.5636   19.6503   -3.1388 H   0  0  0  0  0  0  0  0  0  0  0  0
 25 26  1  0  0  0
 26 27  2  0  0  0
 26 24  1  0  0  0
 24 18  1  0  0  0
 18 19  1  0  0  0
 19 20  1  0  0  0
 20 21  1  0  0  0
 21 22  1  0  0  0
 22 23  1  0  0  0
 22  1  1  0  0  0
  1  2  1  0  0  0
  2  3  2  0  0  0
  2  5  1  0  0  0
  5  6  2  0  0  0
  6  7  1  0  0  0
  6  8  1  0  0  0
  8  9  1  0  0  0
  8 10  2  0  0  0
 10 11  1  0  0  0
 11 12  2  0  0  0
 12 13  1  0  0  0
 13 14  2  0  0  0
 14 15  1  0  0  0
 15 16  2  0  0  0
 23 18  1  0  0  0
 16  5  1  0  0  0
 16 11  1  0  0  0
 25 28  1  0  0  0
  1  4  1  0  0  0
  7 17  1  0  0  0
M  END
> <minimizedAffinity>
-8.91521

> <CNNscore>
0.4725986123

> <CNNaffinity>
6.5999746323

> <CNN_VS>
3.1191389561

> <CNNaffinity_variance>
0.1222249269

$$$$
[H]OC(=O)C([H])([H])N1C([H])([H])C([H])([H])C([H])([H])C([H])(N([H])C(=O)c2c(O[H])c(Cl)c([H])c3c([H])c([H])c([H])c([H])c23)C1([H])[H]


 28 30  0  0  0  0  0  0  0  0999 V2000
   13.5345   22.9843   -2.0892 N   0  0  0  0  0  0  0  0  0  0  0  0
   14.0529   24.2452   -2.3070 C   0  0  0  0  0  0  0  0  0  0  0  0
   14.8207   24.6561   -1.2799 O   0  0  0  0  0  0  0  0  0  0  0  0
   12.9353   22.4115   -2.6573 H   0  0  0  0  0  0  0  0  0  0  0  0
   14.0095   25.2467   -3.3142 C   0  0  0  0  0  0  0  0  0  0  0  0
   13.2038   26.3811   -3.0577 C   0  0  0  0  0  0  0  0  0  0  0  0
   12.4862   26.5106   -1.8633 O   0  0  0  0  0  0  0  0  0  0  0  0
   13.0661   27.4180   -3.9369 C   0  0  0  0  0  0  0  0  0  0  0  0
   12.0647   28.8141   -3.6041 Cl  0  0  0  0  0  0  0  0  0  0  0  0
   13.7383   27.3631   -5.1269 C   0  0  0  0  0  0  0  0  0  0  0  0
   14.5350   26.2803   -5.4230 C   0  0  0  0  0  0  0  0  0  0  0  0
   15.1882   26.2995   -6.6525 C   0  0  0  0  0  0  0  0  0  0  0  0
   15.9952   25.2398   -6.9860 C   0  0  0  0  0  0  0  0  0  0  0  0
   16.1241   24.2157   -6.1033 C   0  0  0  0  0  0  0  0  0  0  0  0
   15.4811   24.1697   -4.8637 C   0  0  0  0  0  0  0  0  0  0  0  0
   14.6728   25.2311   -4.5298 C   0  0  0  0  0  0  0  0  0  0  0  0
   11.9072   27.2802   -1.6309 H   0  0  0  0  0  0  0  0  0  0  0  0
   12.0668   21.5959    0.7445 N   0  0  0  0  0  0  0  0  0  0  0  0
   11.6483   20.7288   -0.2890 C   0  0  0  0  0  0  0  0  0  0  0  0
   12.8185   19.9621   -0.8492 C   0  0  0  0  0  0  0  0  0  0  0  0
   14.0308   20.8040   -1.0837 C   0  0  0  0  0  0  0  0  0  0  0  0
   13.8664   22.2572   -0.8042 C   0  0  0  0  0  0  0  0  0  0  0  0
   12.8586   22.6479    0.2103 C   0  0  0  0  0  0  0  0  0  0  0  0
   12.5067   21.0102    1.9606 C   0  0  0  0  0  0  0  0  0  0  0  0
   10.5847   22.1771    3.0256 O   0  0  0  0  0  0  0  0  0  0  0  0
   11.5961   21.2072    3.0960 C   0  0  0  0  0  0  0  0  0  0  0  0
   11.7208   20.5161    4.1182 O   0  0  0  0  0  0  0  0  0  0  0  0
    9.6176   21.8800    3.2036 H   0  0  0  0  0  0  0  0  0  0  0  0
 25 26  1  0  0  0
 26 27  2  0  0  0
 26 24  1  0  0  0
 24 18  1  0  0  0
 18 19  1  0  0  0
 19 20  1  0  0  0
 20 21  1  0  0  0
 21 22  1  0  0  0
 22 23  1  0  0  0
 22  1  1  0  0  0
  1  2  1  0  0  0
  2  3  2  0  0  0
  2  5  1  0  0  0
  5  6  2  0  0  0
  6  7  1  0  0  0
  6  8  1  0  0  0
  8  9  1  0  0  0
  8 10  2  0  0  0
 10 11  1  0  0  0
 11 12  2  0  0  0
 12 13  1  0  0  0
 13 14  2  0  0  0
 14 15  1  0  0  0
 15 16  2  0  0  0
 23 18  1  0  0  0
 16  5  1  0  0  0
 16 11  1  0  0  0
 25 28  1  0  0  0
  1  4  1  0  0  0
  7 17  1  0  0  0
M  END
> <minimizedAffinity>
-2.86540

> <CNNscore>
0.4541337788

> <CNNaffinity>
6.3396215439

> <CNN_VS>
2.8790361881

> <CNNaffinity_variance>
0.9272372127

$$$$
[H]OC(=O)C([H])([H])N1C([H])([H])C([H])([H])C([H])([H])C([H])(N([H])C(=O)c2c(O[H])c(Cl)c([H])c3c([H])c([H])c([H])c([H])c23)C1([H])[H]


 28 30  0  0  0  0  0  0  0  0999 V2000
   12.3899   22.8981   -0.2952 N   0  0  0  0  0  0  0  0  0  0  0  0
   13.1790   23.9452   -0.7276 C   0  0  0  0  0  0  0  0  0  0  0  0
   13.8040   24.5582    0.2955 O   0  0  0  0  0  0  0  0  0  0  0  0
   11.8081   22.2574   -0.8058 H   0  0  0  0  0  0  0  0  0  0  0  0
   13.5261   24.5704   -1.9557 C   0  0  0  0  0  0  0  0  0  0  0  0
   12.9806   25.8528   -2.2002 C   0  0  0  0  0  0  0  0  0  0  0  0
   12.1406   26.4770   -1.2710 O   0  0  0  0  0  0  0  0  0  0  0  0
   13.2259   26.5681   -3.3382 C   0  0  0  0  0  0  0  0  0  0  0  0
   12.5426   28.1534   -3.6252 Cl  0  0  0  0  0  0  0  0  0  0  0  0
   14.0392   26.0230   -4.2934 C   0  0  0  0  0  0  0  0  0  0  0  0
   14.5943   24.7780   -4.1022 C   0  0  0  0  0  0  0  0  0  0  0  0
   15.4127   24.2929   -5.1188 C   0  0  0  0  0  0  0  0  0  0  0  0
   15.9887   23.0558   -4.9667 C   0  0  0  0  0  0  0  0  0  0  0  0
   15.7373   22.3550   -3.8307 C   0  0  0  0  0  0  0  0  0  0  0  0
   14.9208   22.8165   -2.7950 C   0  0  0  0  0  0  0  0  0  0  0  0
   14.3438   24.0555   -2.9475 C   0  0  0  0  0  0  0  0  0  0  0  0
   11.7305   27.3711   -1.3892 H   0  0  0  0  0  0  0  0  0  0  0  0
   10.1397   22.2439    2.2779 N   0  0  0  0  0  0  0  0  0  0  0  0
   10.0332   21.0963    1.4613 C   0  0  0  0  0  0  0  0  0  0  0  0
   11.3074   20.2928    1.5006 C   0  0  0  0  0  0  0  0  0  0  0  0
   12.5446   21.1239    1.3898 C   0  0  0  0  0  0  0  0  0  0  0  0
   12.3219   22.5814    1.1831 C   0  0  0  0  0  0  0  0  0  0  0  0
   11.0653   23.1623    1.7132 C   0  0  0  0  0  0  0  0  0  0  0  0
   10.1968   22.0516    3.6833 C   0  0  0  0  0  0  0  0  0  0  0  0
    7.8822   22.0216    4.5952 O   0  0  0  0  0  0  0  0  0  0  0  0
    9.1050   22.6896    4.4303 C   0  0  0  0  0  0  0  0  0  0  0  0
    9.2632   23.8197    4.9158 O   0  0  0  0  0  0  0  0  0  0  0  0
    7.5249   21.8973    5.5503 H   0  0  0  0  0  0  0  0  0  0  0  0
 25 26  1  0  0  0
 26 27  2  0  0  0
 26 24  1  0  0  0
 24 18  1  0  0  0
 18 19  1  0  0  0
 19 20  1  0  0  0
 20 21  1  0  0  0
 21 22  1  0  0  0
 22 23  1  0  0  0
 22  1  1  0  0  0
  1  2  1  0  0  0
  2  3  2  0  0  0
  2  5  1  0  0  0
  5  6  2  0  0  0
  6  7  1  0  0  0
  6  8  1  0  0  0
  8  9  1  0  0  0
  8 10  2  0  0  0
 10 11  1  0  0  0
 11 12  2  0  0  0
 12 13  1  0  0  0
 13 14  2  0  0  0
 14 15  1  0  0  0
 15 16  2  0  0  0
 23 18  1  0  0  0
 16  5  1  0  0  0
 16 11  1  0  0  0
 25 28  1  0  0  0
  1  4  1  0  0  0
  7 17  1  0  0  0
M  END
> <minimizedAffinity>
-3.10869

> <CNNscore>
0.4517856836

> <CNNaffinity>
6.2759571075

> <CNN_VS>
2.8353874683

> <CNNaffinity_variance>
1.5387685299

$$$$
[H]OC(=O)C([H])([H])N1C([H])([H])C([H])([H])C([H])([H])C([H])(N([H])C(=O)c2c(O[H])c(Cl)c([H])c3c([H])c([H])c([H])c([H])c23)C1([H])[H]


 28 30  0  0  0  0  0  0  0  0999 V2000
   13.5016   23.3970   -1.7506 N   0  0  0  0  0  0  0  0  0  0  0  0
   12.8345   23.0372   -0.5966 C   0  0  0  0  0  0  0  0  0  0  0  0
   12.9537   23.9730    0.3642 O   0  0  0  0  0  0  0  0  0  0  0  0
   13.6002   22.9208   -2.6299 H   0  0  0  0  0  0  0  0  0  0  0  0
   12.0491   21.9511   -0.1243 C   0  0  0  0  0  0  0  0  0  0  0  0
   12.4447   21.3556    1.0966 C   0  0  0  0  0  0  0  0  0  0  0  0
   13.5572   21.8197    1.8074 O   0  0  0  0  0  0  0  0  0  0  0  0
   11.7854   20.3030    1.6663 C   0  0  0  0  0  0  0  0  0  0  0  0
   12.2884   19.5775    3.1774 Cl  0  0  0  0  0  0  0  0  0  0  0  0
   10.6868   19.7945    1.0296 C   0  0  0  0  0  0  0  0  0  0  0  0
   10.2621   20.3396   -0.1609 C   0  0  0  0  0  0  0  0  0  0  0  0
    9.1350   19.7685   -0.7459 C   0  0  0  0  0  0  0  0  0  0  0  0
    8.6764   20.2842   -1.9329 C   0  0  0  0  0  0  0  0  0  0  0  0
    9.3402   21.3307   -2.4887 C   0  0  0  0  0  0  0  0  0  0  0  0
   10.4729   21.9232   -1.9246 C   0  0  0  0  0  0  0  0  0  0  0  0
   10.9323   21.4065   -0.7357 C   0  0  0  0  0  0  0  0  0  0  0  0
   13.8799   21.4417    2.6644 H   0  0  0  0  0  0  0  0  0  0  0  0
   15.2053   25.5177   -3.9212 N   0  0  0  0  0  0  0  0  0  0  0  0
   13.8668   25.6195   -4.3606 C   0  0  0  0  0  0  0  0  0  0  0  0
   13.0155   26.3073   -3.3247 C   0  0  0  0  0  0  0  0  0  0  0  0
   13.2649   25.8306   -1.9303 C   0  0  0  0  0  0  0  0  0  0  0  0
   14.2427   24.7155   -1.7989 C   0  0  0  0  0  0  0  0  0  0  0  0
   15.2962   24.6050   -2.8360 C   0  0  0  0  0  0  0  0  0  0  0  0
   15.9611   26.7154   -3.8226 C   0  0  0  0  0  0  0  0  0  0  0  0
   15.9187   28.9037   -5.0057 O   0  0  0  0  0  0  0  0  0  0  0  0
   16.0156   27.5050   -5.0598 C   0  0  0  0  0  0  0  0  0  0  0  0
   16.1473   26.9355   -6.1537 O   0  0  0  0  0  0  0  0  0  0  0  0
   16.6630   29.4567   -5.4479 H   0  0  0  0  0  0  0  0  0  0  0  0
 25 26  1  0  0  0
 26 27  2  0  0  0
 26 24  1  0  0  0
 24 18  1  0  0  0
 18 19  1  0  0  0
 19 20  1  0  0  0
 20 21  1  0  0  0
 21 22  1  0  0  0
 22 23  1  0  0  0
 22  1  1  0  0  0
  1  2  1  0  0  0
  2  3  2  0  0  0
  2  5  1  0  0  0
  5  6  2  0  0  0
  6  7  1  0  0  0
  6  8  1  0  0  0
  8  9  1  0  0  0
  8 10  2  0  0  0
 10 11  1  0  0  0
 11 12  2  0  0  0
 12 13  1  0  0  0
 13 14  2  0  0  0
 14 15  1  0  0  0
 15 16  2  0  0  0
 23 18  1  0  0  0
 16  5  1  0  0  0
 16 11  1  0  0  0
 25 28  1  0  0  0
  1  4  1  0  0  0
  7 17  1  0  0  0
M  END
> <minimizedAffinity>
-6.36043

> <CNNscore>
0.4483673871

> <CNNaffinity>
6.7916107178

> <CNN_VS>
3.0451366901

> <CNNaffinity_variance>
0.5673206449

$$$$
[H]c1nc(C([H])([H])N2C(=O)C3(C(=O)N(c4c([H])c([H])c(-c5c([H])c6c([H])c(F)c([H])c([H])c6n5[H])c([H])c4[H])C([H])([H])C3([H])[H])C([H])([H])C2([H])[H])c(C([H])([H])[H])c([H])c1[H]


 36 41  0  0  0  0  0  0  0  0999 V2000
   15.5644   26.4429   -4.5512 N   0  0  0  0  0  0  0  0  0  0  0  0
   15.9099   25.0246   -4.5029 C   0  0  0  0  0  0  0  0  0  0  0  0
   14.5226   24.2975   -4.4039 C   0  0  0  0  0  0  0  0  0  0  0  0
   13.8180   25.3050   -3.5489 C   0  0  0  0  0  0  0  0  0  0  0  0
   12.3498   25.1825   -3.3379 C   0  0  0  0  0  0  0  0  0  0  0  0
   12.2379   25.9179   -1.9474 C   0  0  0  0  0  0  0  0  0  0  0  0
   13.2581   25.0281   -1.2912 N   0  0  0  0  0  0  0  0  0  0  0  0
   14.3734   25.2387   -2.1387 C   0  0  0  0  0  0  0  0  0  0  0  0
   15.5666   25.3497   -1.8208 O   0  0  0  0  0  0  0  0  0  0  0  0
   14.1518   26.5670   -4.2769 C   0  0  0  0  0  0  0  0  0  0  0  0
   13.3820   27.4690   -4.5666 O   0  0  0  0  0  0  0  0  0  0  0  0
   13.0453   24.1551   -0.2185 C   0  0  0  0  0  0  0  0  0  0  0  0
   11.9609   24.3663    0.5809 C   0  0  0  0  0  0  0  0  0  0  0  0
   11.6368   23.5064    1.5751 C   0  0  0  0  0  0  0  0  0  0  0  0
   12.3722   22.3293    1.8690 C   0  0  0  0  0  0  0  0  0  0  0  0
   13.4555   22.1466    1.0535 C   0  0  0  0  0  0  0  0  0  0  0  0
   13.7951   23.0309    0.0233 C   0  0  0  0  0  0  0  0  0  0  0  0
   11.8187   21.3925    2.8297 C   0  0  0  0  0  0  0  0  0  0  0  0
   10.7068   21.7897    3.5931 C   0  0  0  0  0  0  0  0  0  0  0  0
   10.2841   20.7370    4.3570 C   0  0  0  0  0  0  0  0  0  0  0  0
    9.2318   20.6097    5.2395 C   0  0  0  0  0  0  0  0  0  0  0  0
    9.0241   19.3987    5.8527 C   0  0  0  0  0  0  0  0  0  0  0  0
    7.9611   19.2960    6.7151 F   0  0  0  0  0  0  0  0  0  0  0  0
    9.8678   18.3068    5.5922 C   0  0  0  0  0  0  0  0  0  0  0  0
   10.9215   18.4595    4.6863 C   0  0  0  0  0  0  0  0  0  0  0  0
   11.1535   19.6747    4.0514 C   0  0  0  0  0  0  0  0  0  0  0  0
   12.0512   20.1425    3.1221 N   0  0  0  0  0  0  0  0  0  0  0  0
   12.8024   19.4858    2.7375 H   0  0  0  0  0  0  0  0  0  0  0  0
   16.3320   27.5435   -4.9529 C   0  0  0  0  0  0  0  0  0  0  0  0
   16.8565   27.7787   -1.9323 C   0  0  0  0  0  0  0  0  0  0  0  0
   17.9257   27.6810   -2.9793 C   0  0  0  0  0  0  0  0  0  0  0  0
   19.2685   27.6109   -2.5599 C   0  0  0  0  0  0  0  0  0  0  0  0
   20.3143   27.6758   -3.4273 C   0  0  0  0  0  0  0  0  0  0  0  0
   19.9703   27.8249   -4.7769 C   0  0  0  0  0  0  0  0  0  0  0  0
   18.7191   27.8983   -5.1787 N   0  0  0  0  0  0  0  0  0  0  0  0
   17.6180   27.8209   -4.2860 C   0  0  0  0  0  0  0  0  0  0  0  0
 30 31  1  0  0  0
 31 32  2  0  0  0
 32 33  1  0  0  0
 33 34  2  0  0  0
 34 35  1  0  0  0
 35 36  2  0  0  0
 36 29  1  0  0  0
 29  1  1  0  0  0
  1  2  1  0  0  0
  2  3  1  0  0  0
  3  4  1  0  0  0
  4  5  1  0  0  0
  5  6  1  0  0  0
  6  7  1  0  0  0
  7  8  1  0  0  0
  8  9  2  0  0  0
  7 12  1  0  0  0
 12 13  2  0  0  0
 13 14  1  0  0  0
 14 15  2  0  0  0
 15 16  1  0  0  0
 16 17  2  0  0  0
 15 18  1  0  0  0
 18 19  2  0  0  0
 19 20  1  0  0  0
 20 21  2  0  0  0
 21 22  1  0  0  0
 22 23  1  0  0  0
 22 24  2  0  0  0
 24 25  1  0  0  0
 25 26  2  0  0  0
 26 27  1  0  0  0
  4 10  1  0  0  0
 10 11  2  0  0  0
 36 31  1  0  0  0
 10  1  1  0  0  0
  8  4  1  0  0  0
 17 12  1  0  0  0
 27 18  1  0  0  0
 26 20  1  0  0  0
 27 28  1  0  0  0
M  END
> <minimizedAffinity>
8.46909

> <CNNscore>
0.5716682673

> <CNNaffinity>
7.3142867088

> <CNN_VS>
4.1813454628

> <CNNaffinity_variance>
0.4621939063

$$$$
[H]c1nc(C([H])([H])N2C(=O)C3(C(=O)N(c4c([H])c([H])c(-c5c([H])c6c([H])c(F)c([H])c([H])c6n5[H])c([H])c4[H])C([H])([H])C3([H])[H])C([H])([H])C2([H])[H])c(C([H])([H])[H])c([H])c1[H]


 36 41  0  0  0  0  0  0  0  0999 V2000
   11.5632   20.3397    2.3710 N   0  0  0  0  0  0  0  0  0  0  0  0
   10.7003   20.8309    1.2997 C   0  0  0  0  0  0  0  0  0  0  0  0
   11.2301   20.0980    0.0172 C   0  0  0  0  0  0  0  0  0  0  0  0
   12.6868   20.0936    0.3644 C   0  0  0  0  0  0  0  0  0  0  0  0
   13.6306   19.2922   -0.4615 C   0  0  0  0  0  0  0  0  0  0  0  0
   14.9494   20.1160   -0.1989 C   0  0  0  0  0  0  0  0  0  0  0  0
   14.3362   21.4148   -0.6461 N   0  0  0  0  0  0  0  0  0  0  0  0
   13.2340   21.5030    0.2394 C   0  0  0  0  0  0  0  0  0  0  0  0
   12.7875   22.5099    0.8086 O   0  0  0  0  0  0  0  0  0  0  0  0
   12.6347   19.5821    1.7679 C   0  0  0  0  0  0  0  0  0  0  0  0
   13.3419   18.7152    2.2565 O   0  0  0  0  0  0  0  0  0  0  0  0
   14.7278   22.1965   -1.7387 C   0  0  0  0  0  0  0  0  0  0  0  0
   14.0875   22.0106   -2.9284 C   0  0  0  0  0  0  0  0  0  0  0  0
   14.3438   22.7972   -4.0000 C   0  0  0  0  0  0  0  0  0  0  0  0
   15.2751   23.8674   -3.9866 C   0  0  0  0  0  0  0  0  0  0  0  0
   15.9037   24.0266   -2.7817 C   0  0  0  0  0  0  0  0  0  0  0  0
   15.6422   23.2180   -1.6699 C   0  0  0  0  0  0  0  0  0  0  0  0
   15.3224   24.7546   -5.1344 C   0  0  0  0  0  0  0  0  0  0  0  0
   16.3534   24.5836   -6.0750 C   0  0  0  0  0  0  0  0  0  0  0  0
   16.1602   25.4462   -7.1186 C   0  0  0  0  0  0  0  0  0  0  0  0
   16.8672   25.6444   -8.2862 C   0  0  0  0  0  0  0  0  0  0  0  0
   16.4127   26.5772   -9.1857 C   0  0  0  0  0  0  0  0  0  0  0  0
   17.1274   26.7436  -10.3458 F   0  0  0  0  0  0  0  0  0  0  0  0
   15.2511   27.3217   -8.9244 C   0  0  0  0  0  0  0  0  0  0  0  0
   14.5476   27.0947   -7.7379 C   0  0  0  0  0  0  0  0  0  0  0  0
   14.9859   26.1558   -6.8105 C   0  0  0  0  0  0  0  0  0  0  0  0
   14.5350   25.6842   -5.6010 N   0  0  0  0  0  0  0  0  0  0  0  0
   13.6359   26.0832   -5.1816 H   0  0  0  0  0  0  0  0  0  0  0  0
   11.3863   20.3803    3.7598 C   0  0  0  0  0  0  0  0  0  0  0  0
   11.2363   21.4785    6.6280 C   0  0  0  0  0  0  0  0  0  0  0  0
   10.3637   21.9291    5.4946 C   0  0  0  0  0  0  0  0  0  0  0  0
    9.4604   22.9851    5.7247 C   0  0  0  0  0  0  0  0  0  0  0  0
    8.5229   23.3625    4.8143 C   0  0  0  0  0  0  0  0  0  0  0  0
    8.5063   22.6242    3.6240 C   0  0  0  0  0  0  0  0  0  0  0  0
    9.3412   21.6313    3.4019 N   0  0  0  0  0  0  0  0  0  0  0  0
   10.3316   21.2340    4.3382 C   0  0  0  0  0  0  0  0  0  0  0  0
 30 31  1  0  0  0
 31 32  2  0  0  0
 32 33  1  0  0  0
 33 34  2  0  0  0
 34 35  1  0  0  0
 35 36  2  0  0  0
 36 29  1  0  0  0
 29  1  1  0  0  0
  1  2  1  0  0  0
  2  3  1  0  0  0
  3  4  1  0  0  0
  4  5  1  0  0  0
  5  6  1  0  0  0
  6  7  1  0  0  0
  7  8  1  0  0  0
  8  9  2  0  0  0
  7 12  1  0  0  0
 12 13  2  0  0  0
 13 14  1  0  0  0
 14 15  2  0  0  0
 15 16  1  0  0  0
 16 17  2  0  0  0
 15 18  1  0  0  0
 18 19  2  0  0  0
 19 20  1  0  0  0
 20 21  2  0  0  0
 21 22  1  0  0  0
 22 23  1  0  0  0
 22 24  2  0  0  0
 24 25  1  0  0  0
 25 26  2  0  0  0
 26 27  1  0  0  0
  4 10  1  0  0  0
 10 11  2  0  0  0
 36 31  1  0  0  0
 10  1  1  0  0  0
  8  4  1  0  0  0
 17 12  1  0  0  0
 27 18  1  0  0  0
 26 20  1  0  0  0
 27 28  1  0  0  0
M  END
> <minimizedAffinity>
28.79189

> <CNNscore>
0.5069500804

> <CNNaffinity>
7.1556577682

> <CNN_VS>
3.6275613308

> <CNNaffinity_variance>
0.6434364319

$$$$
[H]c1nc(C([H])([H])N2C(=O)C3(C(=O)N(c4c([H])c([H])c(-c5c([H])c6c([H])c(F)c([H])c([H])c6n5[H])c([H])c4[H])C([H])([H])C3([H])[H])C([H])([H])C2([H])[H])c(C([H])([H])[H])c([H])c1[H]


 36 41  0  0  0  0  0  0  0  0999 V2000
    8.4224   19.4831   -0.5236 N   0  0  0  0  0  0  0  0  0  0  0  0
    8.5275   20.1122    0.7904 C   0  0  0  0  0  0  0  0  0  0  0  0
    8.8599   21.6120    0.4694 C   0  0  0  0  0  0  0  0  0  0  0  0
    9.7247   21.3831   -0.7316 C   0  0  0  0  0  0  0  0  0  0  0  0
   10.1346   22.5449   -1.5667 C   0  0  0  0  0  0  0  0  0  0  0  0
   11.4709   21.9594   -2.1654 C   0  0  0  0  0  0  0  0  0  0  0  0
   12.0503   21.6517   -0.8117 N   0  0  0  0  0  0  0  0  0  0  0  0
   11.0510   20.7958   -0.2871 C   0  0  0  0  0  0  0  0  0  0  0  0
   11.2008   19.7724    0.3965 O   0  0  0  0  0  0  0  0  0  0  0  0
    8.8697   20.4371   -1.5114 C   0  0  0  0  0  0  0  0  0  0  0  0
    8.6189   20.4929   -2.7048 O   0  0  0  0  0  0  0  0  0  0  0  0
   13.2021   22.2086   -0.2446 C   0  0  0  0  0  0  0  0  0  0  0  0
   14.2162   21.3699    0.1132 C   0  0  0  0  0  0  0  0  0  0  0  0
   15.3971   21.8447    0.5746 C   0  0  0  0  0  0  0  0  0  0  0  0
   15.6878   23.2256    0.7205 C   0  0  0  0  0  0  0  0  0  0  0  0
   14.6509   24.0412    0.3575 C   0  0  0  0  0  0  0  0  0  0  0  0
   13.4284   23.5570   -0.1215 C   0  0  0  0  0  0  0  0  0  0  0  0
   17.0491   23.6133    1.0421 C   0  0  0  0  0  0  0  0  0  0  0  0
   17.9793   23.7351   -0.0053 C   0  0  0  0  0  0  0  0  0  0  0  0
   19.1637   24.2015    0.4946 C   0  0  0  0  0  0  0  0  0  0  0  0
   20.3588   24.5119   -0.1201 C   0  0  0  0  0  0  0  0  0  0  0  0
   21.3895   25.0012    0.6441 C   0  0  0  0  0  0  0  0  0  0  0  0
   22.5626   25.3154    0.0043 F   0  0  0  0  0  0  0  0  0  0  0  0
   21.2360   25.1807    2.0283 C   0  0  0  0  0  0  0  0  0  0  0  0
   20.0113   24.8675    2.6254 C   0  0  0  0  0  0  0  0  0  0  0  0
   18.9515   24.3709    1.8744 C   0  0  0  0  0  0  0  0  0  0  0  0
   17.6539   23.9988    2.1318 N   0  0  0  0  0  0  0  0  0  0  0  0
   17.2749   24.0631    3.1297 H   0  0  0  0  0  0  0  0  0  0  0  0
    7.8448   18.2619   -0.8937 C   0  0  0  0  0  0  0  0  0  0  0  0
    5.8577   20.1834   -2.2406 C   0  0  0  0  0  0  0  0  0  0  0  0
    5.5132   18.8129   -1.7386 C   0  0  0  0  0  0  0  0  0  0  0  0
    4.2108   18.3258   -1.9637 C   0  0  0  0  0  0  0  0  0  0  0  0
    3.7544   17.1668   -1.4171 C   0  0  0  0  0  0  0  0  0  0  0  0
    4.6666   16.4837   -0.6026 C   0  0  0  0  0  0  0  0  0  0  0  0
    5.8833   16.9337   -0.3802 N   0  0  0  0  0  0  0  0  0  0  0  0
    6.3764   18.1354   -0.9528 C   0  0  0  0  0  0  0  0  0  0  0  0
 30 31  1  0  0  0
 31 32  2  0  0  0
 32 33  1  0  0  0
 33 34  2  0  0  0
 34 35  1  0  0  0
 35 36  2  0  0  0
 36 29  1  0  0  0
 29  1  1  0  0  0
  1  2  1  0  0  0
  2  3  1  0  0  0
  3  4  1  0  0  0
  4  5  1  0  0  0
  5  6  1  0  0  0
  6  7  1  0  0  0
  7  8  1  0  0  0
  8  9  2  0  0  0
  7 12  1  0  0  0
 12 13  2  0  0  0
 13 14  1  0  0  0
 14 15  2  0  0  0
 15 16  1  0  0  0
 16 17  2  0  0  0
 15 18  1  0  0  0
 18 19  2  0  0  0
 19 20  1  0  0  0
 20 21  2  0  0  0
 21 22  1  0  0  0
 22 23  1  0  0  0
 22 24  2  0  0  0
 24 25  1  0  0  0
 25 26  2  0  0  0
 26 27  1  0  0  0
  4 10  1  0  0  0
 10 11  2  0  0  0
 36 31  1  0  0  0
 10  1  1  0  0  0
  8  4  1  0  0  0
 17 12  1  0  0  0
 27 18  1  0  0  0
 26 20  1  0  0  0
 27 28  1  0  0  0
M  END
> <minimizedAffinity>
22.15136

> <CNNscore>
0.4712775648

> <CNNaffinity>
6.8742837906

> <CNN_VS>
3.2396957874

> <CNNaffinity_variance>
0.3151493371

$$$$
[H]c1nc(C([H])([H])N2C(=O)C3(C(=O)N(c4c([H])c([H])c(-c5c([H])c6c([H])c(F)c([H])c([H])c6n5[H])c([H])c4[H])C([H])([H])C3([H])[H])C([H])([H])C2([H])[H])c(C([H])([H])[H])c([H])c1[H]


 36 41  0  0  0  0  0  0  0  0999 V2000
   10.3010   18.8300   -0.7244 N   0  0  0  0  0  0  0  0  0  0  0  0
   10.7226   20.0590   -1.3916 C   0  0  0  0  0  0  0  0  0  0  0  0
   11.5287   20.8333   -0.2901 C   0  0  0  0  0  0  0  0  0  0  0  0
   10.7051   20.4317    0.8944 C   0  0  0  0  0  0  0  0  0  0  0  0
   11.1974   20.7432    2.2639 C   0  0  0  0  0  0  0  0  0  0  0  0
    9.8129   20.8014    3.0168 C   0  0  0  0  0  0  0  0  0  0  0  0
    9.2407   21.8266    2.0764 N   0  0  0  0  0  0  0  0  0  0  0  0
    9.3691   21.1483    0.8394 C   0  0  0  0  0  0  0  0  0  0  0  0
    8.5707   21.1272   -0.1089 O   0  0  0  0  0  0  0  0  0  0  0  0
   10.6143   18.9553    0.6799 C   0  0  0  0  0  0  0  0  0  0  0  0
   10.7828   18.0835    1.5176 O   0  0  0  0  0  0  0  0  0  0  0  0
    8.8384   23.1281    2.3963 C   0  0  0  0  0  0  0  0  0  0  0  0
    7.6409   23.2975    3.0264 C   0  0  0  0  0  0  0  0  0  0  0  0
    7.2330   24.5154    3.4546 C   0  0  0  0  0  0  0  0  0  0  0  0
    7.9960   25.7012    3.2985 C   0  0  0  0  0  0  0  0  0  0  0  0
    9.1894   25.5003    2.6602 C   0  0  0  0  0  0  0  0  0  0  0  0
    9.6175   24.2440    2.2164 C   0  0  0  0  0  0  0  0  0  0  0  0
    7.5405   26.9070    3.9660 C   0  0  0  0  0  0  0  0  0  0  0  0
    6.1646   27.0612    4.2117 C   0  0  0  0  0  0  0  0  0  0  0  0
    5.9600   28.2063    4.9309 C   0  0  0  0  0  0  0  0  0  0  0  0
    4.8110   28.7768    5.4377 C   0  0  0  0  0  0  0  0  0  0  0  0
    4.9123   29.9381    6.1635 C   0  0  0  0  0  0  0  0  0  0  0  0
    3.7548   30.4761    6.6683 F   0  0  0  0  0  0  0  0  0  0  0  0
    6.1612   30.5406    6.3855 C   0  0  0  0  0  0  0  0  0  0  0  0
    7.3115   29.9369    5.8690 C   0  0  0  0  0  0  0  0  0  0  0  0
    7.2367   28.7607    5.1311 C   0  0  0  0  0  0  0  0  0  0  0  0
    8.1404   27.9223    4.5237 N   0  0  0  0  0  0  0  0  0  0  0  0
    9.1840   28.1517    4.5667 H   0  0  0  0  0  0  0  0  0  0  0  0
    9.8365   17.6249   -1.2665 C   0  0  0  0  0  0  0  0  0  0  0  0
    8.0673   15.3672   -0.1584 C   0  0  0  0  0  0  0  0  0  0  0  0
    7.5507   16.6103   -0.8194 C   0  0  0  0  0  0  0  0  0  0  0  0
    6.1574   16.8098   -0.8733 C   0  0  0  0  0  0  0  0  0  0  0  0
    5.5860   17.8205   -1.5820 C   0  0  0  0  0  0  0  0  0  0  0  0
    6.4775   18.6557   -2.2675 C   0  0  0  0  0  0  0  0  0  0  0  0
    7.7805   18.4739   -2.2295 N   0  0  0  0  0  0  0  0  0  0  0  0
    8.3908   17.4304   -1.4853 C   0  0  0  0  0  0  0  0  0  0  0  0
 30 31  1  0  0  0
 31 32  2  0  0  0
 32 33  1  0  0  0
 33 34  2  0  0  0
 34 35  1  0  0  0
 35 36  2  0  0  0
 36 29  1  0  0  0
 29  1  1  0  0  0
  1  2  1  0  0  0
  2  3  1  0  0  0
  3  4  1  0  0  0
  4  5  1  0  0  0
  5  6  1  0  0  0
  6  7  1  0  0  0
  7  8  1  0  0  0
  8  9  2  0  0  0
  7 12  1  0  0  0
 12 13  2  0  0  0
 13 14  1  0  0  0
 14 15  2  0  0  0
 15 16  1  0  0  0
 16 17  2  0  0  0
 15 18  1  0  0  0
 18 19  2  0  0  0
 19 20  1  0  0  0
 20 21  2  0  0  0
 21 22  1  0  0  0
 22 23  1  0  0  0
 22 24  2  0  0  0
 24 25  1  0  0  0
 25 26  2  0  0  0
 26 27  1  0  0  0
  4 10  1  0  0  0
 10 11  2  0  0  0
 36 31  1  0  0  0
 10  1  1  0  0  0
  8  4  1  0  0  0
 17 12  1  0  0  0
 27 18  1  0  0  0
 26 20  1  0  0  0
 27 28  1  0  0  0
M  END
> <minimizedAffinity>
23.69206

> <CNNscore>
0.4463474452

> <CNNaffinity>
5.7386307716

> <CNN_VS>
2.5614233017

> <CNNaffinity_variance>
0.2707148790

$$$$
[H]c1nc(C([H])([H])N2C(=O)C3(C(=O)N(c4c([H])c([H])c(-c5c([H])c6c([H])c(F)c([H])c([H])c6n5[H])c([H])c4[H])C([H])([H])C3([H])[H])C([H])([H])C2([H])[H])c(C([H])([H])[H])c([H])c1[H]


 36 41  0  0  0  0  0  0  0  0999 V2000
   16.5479   26.9792   -3.5674 N   0  0  0  0  0  0  0  0  0  0  0  0
   17.0213   26.2182   -2.4140 C   0  0  0  0  0  0  0  0  0  0  0  0
   16.4908   24.7642   -2.6730 C   0  0  0  0  0  0  0  0  0  0  0  0
   15.1862   25.1272   -3.3122 C   0  0  0  0  0  0  0  0  0  0  0  0
   14.3707   24.0637   -3.9596 C   0  0  0  0  0  0  0  0  0  0  0  0
   12.9459   24.7246   -3.8184 C   0  0  0  0  0  0  0  0  0  0  0  0
   13.0724   24.8970   -2.3293 N   0  0  0  0  0  0  0  0  0  0  0  0
   14.2496   25.6813   -2.2552 C   0  0  0  0  0  0  0  0  0  0  0  0
   14.4911   26.6299   -1.4944 O   0  0  0  0  0  0  0  0  0  0  0  0
   15.6414   26.1386   -4.3142 C   0  0  0  0  0  0  0  0  0  0  0  0
   15.3121   26.2041   -5.4878 O   0  0  0  0  0  0  0  0  0  0  0  0
   12.2792   24.2983   -1.3440 C   0  0  0  0  0  0  0  0  0  0  0  0
   12.9027   23.6786   -0.3014 C   0  0  0  0  0  0  0  0  0  0  0  0
   12.2023   23.1653    0.7373 C   0  0  0  0  0  0  0  0  0  0  0  0
   10.7888   23.2271    0.8412 C   0  0  0  0  0  0  0  0  0  0  0  0
   10.1919   23.8507   -0.2203 C   0  0  0  0  0  0  0  0  0  0  0  0
   10.9100   24.3845   -1.2963 C   0  0  0  0  0  0  0  0  0  0  0  0
   10.1704   22.8133    2.0875 C   0  0  0  0  0  0  0  0  0  0  0  0
   10.4250   21.5161    2.5668 C   0  0  0  0  0  0  0  0  0  0  0  0
    9.8346   21.3630    3.7908 C   0  0  0  0  0  0  0  0  0  0  0  0
    9.8158   20.3026    4.6728 C   0  0  0  0  0  0  0  0  0  0  0  0
    9.1552   20.4466    5.8680 C   0  0  0  0  0  0  0  0  0  0  0  0
    9.1648   19.3806    6.7328 F   0  0  0  0  0  0  0  0  0  0  0  0
    8.5053   21.6490    6.1901 C   0  0  0  0  0  0  0  0  0  0  0  0
    8.5475   22.7118    5.2829 C   0  0  0  0  0  0  0  0  0  0  0  0
    9.2098   22.5925    4.0660 C   0  0  0  0  0  0  0  0  0  0  0  0
    9.4564   23.4188    2.9960 N   0  0  0  0  0  0  0  0  0  0  0  0
    9.0785   24.4191    3.0043 H   0  0  0  0  0  0  0  0  0  0  0  0
   16.9618   28.2251   -4.0556 C   0  0  0  0  0  0  0  0  0  0  0  0
   14.4622   30.0154   -4.0927 C   0  0  0  0  0  0  0  0  0  0  0  0
   15.3648   29.7852   -5.2679 C   0  0  0  0  0  0  0  0  0  0  0  0
   15.1081   30.4941   -6.4577 C   0  0  0  0  0  0  0  0  0  0  0  0
   15.7685   30.2436   -7.6202 C   0  0  0  0  0  0  0  0  0  0  0  0
   16.7250   29.2218   -7.5625 C   0  0  0  0  0  0  0  0  0  0  0  0
   16.9676   28.5487   -6.4578 N   0  0  0  0  0  0  0  0  0  0  0  0
   16.2941   28.8069   -5.2352 C   0  0  0  0  0  0  0  0  0  0  0  0
 30 31  1  0  0  0
 31 32  2  0  0  0
 32 33  1  0  0  0
 33 34  2  0  0  0
 34 35  1  0  0  0
 35 36  2  0  0  0
 36 29  1  0  0  0
 29  1  1  0  0  0
  1  2  1  0  0  0
  2  3  1  0  0  0
  3  4  1  0  0  0
  4  5  1  0  0  0
  5  6  1  0  0  0
  6  7  1  0  0  0
  7  8  1  0  0  0
  8  9  2  0  0  0
  7 12  1  0  0  0
 12 13  2  0  0  0
 13 14  1  0  0  0
 14 15  2  0  0  0
 15 16  1  0  0  0
 16 17  2  0  0  0
 15 18  1  0  0  0
 18 19  2  0  0  0
 19 20  1  0  0  0
 20 21  2  0  0  0
 21 22  1  0  0  0
 22 23  1  0  0  0
 22 24  2  0  0  0
 24 25  1  0  0  0
 25 26  2  0  0  0
 26 27  1  0  0  0
  4 10  1  0  0  0
 10 11  2  0  0  0
 36 31  1  0  0  0
 10  1  1  0  0  0
  8  4  1  0  0  0
 17 12  1  0  0  0
 27 18  1  0  0  0
 26 20  1  0  0  0
 27 28  1  0  0  0
M  END
> <minimizedAffinity>
18.46642

> <CNNscore>
0.3710605204

> <CNNaffinity>
6.7290029526

> <CNN_VS>
2.4968674183

> <CNNaffinity_variance>
0.3288748860

$$$$
[H]c1nc(C([H])([H])N2C(=O)C3(C(=O)N(c4c([H])c([H])c(-c5c([H])c6c([H])c(F)c([H])c([H])c6n5[H])c([H])c4[H])C([H])([H])C3([H])[H])C([H])([H])C2([H])[H])c(C([H])([H])[H])c([H])c1[H]


 36 41  0  0  0  0  0  0  0  0999 V2000
   16.7347   25.5267   -2.4819 N   0  0  0  0  0  0  0  0  0  0  0  0
   16.5679   26.1625   -1.1775 C   0  0  0  0  0  0  0  0  0  0  0  0
   16.3118   24.9628   -0.1988 C   0  0  0  0  0  0  0  0  0  0  0  0
   15.5187   24.0981   -1.1292 C   0  0  0  0  0  0  0  0  0  0  0  0
   15.2062   22.6976   -0.7344 C   0  0  0  0  0  0  0  0  0  0  0  0
   13.8910   22.4904   -1.5795 C   0  0  0  0  0  0  0  0  0  0  0  0
   13.2144   23.6993   -0.9933 N   0  0  0  0  0  0  0  0  0  0  0  0
   14.1459   24.7112   -1.3322 C   0  0  0  0  0  0  0  0  0  0  0  0
   13.9151   25.8667   -1.7179 O   0  0  0  0  0  0  0  0  0  0  0  0
   16.3872   24.1315   -2.3452 C   0  0  0  0  0  0  0  0  0  0  0  0
   16.7165   23.1793   -3.0344 O   0  0  0  0  0  0  0  0  0  0  0  0
   12.0494   23.7168   -0.2182 C   0  0  0  0  0  0  0  0  0  0  0  0
   12.1765   23.7996    1.1371 C   0  0  0  0  0  0  0  0  0  0  0  0
   11.0953   23.9211    1.9427 C   0  0  0  0  0  0  0  0  0  0  0  0
    9.7604   23.9788    1.4658 C   0  0  0  0  0  0  0  0  0  0  0  0
    9.6648   23.8897    0.1039 C   0  0  0  0  0  0  0  0  0  0  0  0
   10.7784   23.7654   -0.7346 C   0  0  0  0  0  0  0  0  0  0  0  0
    8.7048   24.3007    2.4087 C   0  0  0  0  0  0  0  0  0  0  0  0
    8.1168   23.2557    3.1430 C   0  0  0  0  0  0  0  0  0  0  0  0
    7.2237   23.7788    4.0369 C   0  0  0  0  0  0  0  0  0  0  0  0
    6.4245   23.1818    4.9895 C   0  0  0  0  0  0  0  0  0  0  0  0
    5.6342   23.9759    5.7836 C   0  0  0  0  0  0  0  0  0  0  0  0
    4.8600   23.3565    6.7329 F   0  0  0  0  0  0  0  0  0  0  0  0
    5.6332   25.3717    5.6301 C   0  0  0  0  0  0  0  0  0  0  0  0
    6.4596   25.9525    4.6636 C   0  0  0  0  0  0  0  0  0  0  0  0
    7.2697   25.1714    3.8469 C   0  0  0  0  0  0  0  0  0  0  0  0
    8.1858   25.4127    2.8513 N   0  0  0  0  0  0  0  0  0  0  0  0
    8.3883   26.4197    2.5539 H   0  0  0  0  0  0  0  0  0  0  0  0
   17.2901   26.0307   -3.6648 C   0  0  0  0  0  0  0  0  0  0  0  0
   15.5625   23.9351   -5.1066 C   0  0  0  0  0  0  0  0  0  0  0  0
   15.4818   25.4144   -5.3394 C   0  0  0  0  0  0  0  0  0  0  0  0
   14.4953   25.9003   -6.2196 C   0  0  0  0  0  0  0  0  0  0  0  0
   14.4388   27.2004   -6.6154 C   0  0  0  0  0  0  0  0  0  0  0  0
   15.4365   28.0338   -6.0937 C   0  0  0  0  0  0  0  0  0  0  0  0
   16.3669   27.5884   -5.2762 N   0  0  0  0  0  0  0  0  0  0  0  0
   16.4313   26.2371   -4.8462 C   0  0  0  0  0  0  0  0  0  0  0  0
 30 31  1  0  0  0
 31 32  2  0  0  0
 32 33  1  0  0  0
 33 34  2  0  0  0
 34 35  1  0  0  0
 35 36  2  0  0  0
 36 29  1  0  0  0
 29  1  1  0  0  0
  1  2  1  0  0  0
  2  3  1  0  0  0
  3  4  1  0  0  0
  4  5  1  0  0  0
  5  6  1  0  0  0
  6  7  1  0  0  0
  7  8  1  0  0  0
  8  9  2  0  0  0
  7 12  1  0  0  0
 12 13  2  0  0  0
 13 14  1  0  0  0
 14 15  2  0  0  0
 15 16  1  0  0  0
 16 17  2  0  0  0
 15 18  1  0  0  0
 18 19  2  0  0  0
 19 20  1  0  0  0
 20 21  2  0  0  0
 21 22  1  0  0  0
 22 23  1  0  0  0
 22 24  2  0  0  0
 24 25  1  0  0  0
 25 26  2  0  0  0
 26 27  1  0  0  0
  4 10  1  0  0  0
 10 11  2  0  0  0
 36 31  1  0  0  0
 10  1  1  0  0  0
  8  4  1  0  0  0
 17 12  1  0  0  0
 27 18  1  0  0  0
 26 20  1  0  0  0
 27 28  1  0  0  0
M  END
> <minimizedAffinity>
0.07087

> <CNNscore>
0.3181729317

> <CNNaffinity>
6.9505820274

> <CNN_VS>
2.2114870548

> <CNNaffinity_variance>
0.3631413579

$$$$
[H]c1nc(C([H])([H])N2C(=O)C3(C(=O)N(c4c([H])c([H])c(-c5c([H])c6c([H])c(F)c([H])c([H])c6n5[H])c([H])c4[H])C([H])([H])C3([H])[H])C([H])([H])C2([H])[H])c(C([H])([H])[H])c([H])c1[H]


 36 41  0  0  0  0  0  0  0  0999 V2000
   10.7540   19.7235   -0.3966 N   0  0  0  0  0  0  0  0  0  0  0  0
   11.6871   19.2879   -1.4324 C   0  0  0  0  0  0  0  0  0  0  0  0
   13.0775   19.8277   -0.9442 C   0  0  0  0  0  0  0  0  0  0  0  0
   12.6029   21.1117   -0.3370 C   0  0  0  0  0  0  0  0  0  0  0  0
   13.5444   21.9223    0.4825 C   0  0  0  0  0  0  0  0  0  0  0  0
   12.8913   23.3429    0.2762 C   0  0  0  0  0  0  0  0  0  0  0  0
   12.9475   23.2521   -1.2243 N   0  0  0  0  0  0  0  0  0  0  0  0
   12.2008   22.0685   -1.4436 C   0  0  0  0  0  0  0  0  0  0  0  0
   11.3815   21.8357   -2.3445 O   0  0  0  0  0  0  0  0  0  0  0  0
   11.4587   20.6201    0.4896 C   0  0  0  0  0  0  0  0  0  0  0  0
   11.2120   20.9189    1.6472 O   0  0  0  0  0  0  0  0  0  0  0  0
   13.6762   24.0765   -2.0890 C   0  0  0  0  0  0  0  0  0  0  0  0
   12.9993   25.0168   -2.8083 C   0  0  0  0  0  0  0  0  0  0  0  0
   13.6482   25.9132   -3.5881 C   0  0  0  0  0  0  0  0  0  0  0  0
   15.0596   25.9631   -3.7234 C   0  0  0  0  0  0  0  0  0  0  0  0
   15.7103   25.0060   -2.9936 C   0  0  0  0  0  0  0  0  0  0  0  0
   15.0456   24.0775   -2.1846 C   0  0  0  0  0  0  0  0  0  0  0  0
   15.6448   27.0850   -4.4345 C   0  0  0  0  0  0  0  0  0  0  0  0
   14.7978   27.9268   -5.1769 C   0  0  0  0  0  0  0  0  0  0  0  0
   15.5261   28.9681   -5.6823 C   0  0  0  0  0  0  0  0  0  0  0  0
   15.1589   30.0598   -6.4412 C   0  0  0  0  0  0  0  0  0  0  0  0
   16.1177   30.9813   -6.7839 C   0  0  0  0  0  0  0  0  0  0  0  0
   15.7217   32.0653   -7.5271 F   0  0  0  0  0  0  0  0  0  0  0  0
   17.4509   30.8177   -6.3746 C   0  0  0  0  0  0  0  0  0  0  0  0
   17.7951   29.7074   -5.5980 C   0  0  0  0  0  0  0  0  0  0  0  0
   16.8436   28.7598   -5.2369 C   0  0  0  0  0  0  0  0  0  0  0  0
   16.8390   27.6072   -4.4886 N   0  0  0  0  0  0  0  0  0  0  0  0
   17.7474   27.2676   -4.0379 H   0  0  0  0  0  0  0  0  0  0  0  0
    9.4549   19.2836   -0.1122 C   0  0  0  0  0  0  0  0  0  0  0  0
    7.7300   21.8137    0.1680 C   0  0  0  0  0  0  0  0  0  0  0  0
    7.7340   20.9116   -1.0300 C   0  0  0  0  0  0  0  0  0  0  0  0
    6.9575   21.2785   -2.1464 C   0  0  0  0  0  0  0  0  0  0  0  0
    6.7720   20.4576   -3.2151 C   0  0  0  0  0  0  0  0  0  0  0  0
    7.4019   19.2092   -3.1333 C   0  0  0  0  0  0  0  0  0  0  0  0
    8.1238   18.8538   -2.0918 N   0  0  0  0  0  0  0  0  0  0  0  0
    8.3349   19.7043   -0.9750 C   0  0  0  0  0  0  0  0  0  0  0  0
 30 31  1  0  0  0
 31 32  2  0  0  0
 32 33  1  0  0  0
 33 34  2  0  0  0
 34 35  1  0  0  0
 35 36  2  0  0  0
 36 29  1  0  0  0
 29  1  1  0  0  0
  1  2  1  0  0  0
  2  3  1  0  0  0
  3  4  1  0  0  0
  4  5  1  0  0  0
  5  6  1  0  0  0
  6  7  1  0  0  0
  7  8  1  0  0  0
  8  9  2  0  0  0
  7 12  1  0  0  0
 12 13  2  0  0  0
 13 14  1  0  0  0
 14 15  2  0  0  0
 15 16  1  0  0  0
 16 17  2  0  0  0
 15 18  1  0  0  0
 18 19  2  0  0  0
 19 20  1  0  0  0
 20 21  2  0  0  0
 21 22  1  0  0  0
 22 23  1  0  0  0
 22 24  2  0  0  0
 24 25  1  0  0  0
 25 26  2  0  0  0
 26 27  1  0  0  0
  4 10  1  0  0  0
 10 11  2  0  0  0
 36 31  1  0  0  0
 10  1  1  0  0  0
  8  4  1  0  0  0
 17 12  1  0  0  0
 27 18  1  0  0  0
 26 20  1  0  0  0
 27 28  1  0  0  0
M  END
> <minimizedAffinity>
24.49138

> <CNNscore>
0.2782307565

> <CNNaffinity>
6.5183916092

> <CNN_VS>
1.8136169910

> <CNNaffinity_variance>
0.1838461459

$$$$
[H]c1nc(C([H])([H])N2C(=O)C3(C(=O)N(c4c([H])c([H])c(-c5c([H])c6c([H])c(F)c([H])c([H])c6n5[H])c([H])c4[H])C([H])([H])C3([H])[H])C([H])([H])C2([H])[H])c(C([H])([H])[H])c([H])c1[H]


 36 41  0  0  0  0  0  0  0  0999 V2000
   14.9800   24.0202   -2.6533 N   0  0  0  0  0  0  0  0  0  0  0  0
   15.1262   24.7728   -1.4101 C   0  0  0  0  0  0  0  0  0  0  0  0
   14.8390   23.7141   -0.2878 C   0  0  0  0  0  0  0  0  0  0  0  0
   13.7800   22.9326   -1.0021 C   0  0  0  0  0  0  0  0  0  0  0  0
   13.3131   21.6422   -0.4261 C   0  0  0  0  0  0  0  0  0  0  0  0
   11.8646   21.6036   -1.0485 C   0  0  0  0  0  0  0  0  0  0  0  0
   11.4926   22.9531   -0.4975 N   0  0  0  0  0  0  0  0  0  0  0  0
   12.5090   23.7583   -1.0676 C   0  0  0  0  0  0  0  0  0  0  0  0
   12.4087   24.9036   -1.5318 O   0  0  0  0  0  0  0  0  0  0  0  0
   14.4389   22.7215   -2.3270 C   0  0  0  0  0  0  0  0  0  0  0  0
   14.4975   21.6767   -2.9557 O   0  0  0  0  0  0  0  0  0  0  0  0
   10.4833   23.2323    0.4307 C   0  0  0  0  0  0  0  0  0  0  0  0
   10.8452   23.7243    1.6500 C   0  0  0  0  0  0  0  0  0  0  0  0
    9.9200   24.1100    2.5600 C   0  0  0  0  0  0  0  0  0  0  0  0
    8.5206   24.0470    2.3355 C   0  0  0  0  0  0  0  0  0  0  0  0
    8.1887   23.5463    1.1062 C   0  0  0  0  0  0  0  0  0  0  0  0
    9.1401   23.1471    0.1607 C   0  0  0  0  0  0  0  0  0  0  0  0
    7.6379   24.6650    3.3080 C   0  0  0  0  0  0  0  0  0  0  0  0
    7.6486   26.0656    3.4319 C   0  0  0  0  0  0  0  0  0  0  0  0
    6.6834   26.4475    4.3224 C   0  0  0  0  0  0  0  0  0  0  0  0
    6.2811   27.6924    4.7595 C   0  0  0  0  0  0  0  0  0  0  0  0
    5.2415   27.7769    5.6527 C   0  0  0  0  0  0  0  0  0  0  0  0
    4.8524   29.0288    6.0597 F   0  0  0  0  0  0  0  0  0  0  0  0
    4.5983   26.6191    6.1191 C   0  0  0  0  0  0  0  0  0  0  0  0
    5.0191   25.3700    5.6531 C   0  0  0  0  0  0  0  0  0  0  0  0
    6.0688   25.2565    4.7482 C   0  0  0  0  0  0  0  0  0  0  0  0
    6.6946   24.2231    4.0933 N   0  0  0  0  0  0  0  0  0  0  0  0
    6.3705   23.2182    4.2630 H   0  0  0  0  0  0  0  0  0  0  0  0
   15.4146   24.3281   -3.9488 C   0  0  0  0  0  0  0  0  0  0  0  0
   14.9909   26.1134   -6.4162 C   0  0  0  0  0  0  0  0  0  0  0  0
   15.6767   26.5483   -5.1554 C   0  0  0  0  0  0  0  0  0  0  0  0
   16.0916   27.8901   -5.0481 C   0  0  0  0  0  0  0  0  0  0  0  0
   16.8546   28.3439   -4.0175 C   0  0  0  0  0  0  0  0  0  0  0  0
   17.2118   27.3831   -3.0628 C   0  0  0  0  0  0  0  0  0  0  0  0
   16.8353   26.1255   -3.1573 N   0  0  0  0  0  0  0  0  0  0  0  0
   16.0300   25.6407   -4.2211 C   0  0  0  0  0  0  0  0  0  0  0  0
 30 31  1  0  0  0
 31 32  2  0  0  0
 32 33  1  0  0  0
 33 34  2  0  0  0
 34 35  1  0  0  0
 35 36  2  0  0  0
 36 29  1  0  0  0
 29  1  1  0  0  0
  1  2  1  0  0  0
  2  3  1  0  0  0
  3  4  1  0  0  0
  4  5  1  0  0  0
  5  6  1  0  0  0
  6  7  1  0  0  0
  7  8  1  0  0  0
  8  9  2  0  0  0
  7 12  1  0  0  0
 12 13  2  0  0  0
 13 14  1  0  0  0
 14 15  2  0  0  0
 15 16  1  0  0  0
 16 17  2  0  0  0
 15 18  1  0  0  0
 18 19  2  0  0  0
 19 20  1  0  0  0
 20 21  2  0  0  0
 21 22  1  0  0  0
 22 23  1  0  0  0
 22 24  2  0  0  0
 24 25  1  0  0  0
 25 26  2  0  0  0
 26 27  1  0  0  0
  4 10  1  0  0  0
 10 11  2  0  0  0
 36 31  1  0  0  0
 10  1  1  0  0  0
  8  4  1  0  0  0
 17 12  1  0  0  0
 27 18  1  0  0  0
 26 20  1  0  0  0
 27 28  1  0  0  0
M  END
> <minimizedAffinity>
-10.99945

> <CNNscore>
0.2076409012

> <CNNaffinity>
6.8063859940

> <CNN_VS>
1.4132840633

> <CNNaffinity_variance>
0.1455235928

$$$$
[H]c1nc(C([H])([H])N2C(=O)C3(C(=O)N(c4c([H])c([H])c(-c5c([H])c6c([H])c(F)c([H])c([H])c6n5[H])c([H])c4[H])C([H])([H])C3([H])[H])C([H])([H])C2([H])[H])c(C([H])([H])[H])c([H])c1[H]


 36 41  0  0  0  0  0  0  0  0999 V2000
   14.9874   25.0252   -1.3869 N   0  0  0  0  0  0  0  0  0  0  0  0
   15.0971   23.6229   -0.9931 C   0  0  0  0  0  0  0  0  0  0  0  0
   13.8725   22.9339   -1.6920 C   0  0  0  0  0  0  0  0  0  0  0  0
   12.8931   24.0586   -1.5564 C   0  0  0  0  0  0  0  0  0  0  0  0
   11.5939   23.9847   -2.2786 C   0  0  0  0  0  0  0  0  0  0  0  0
   10.7326   24.9066   -1.3324 C   0  0  0  0  0  0  0  0  0  0  0  0
   11.0570   24.1035   -0.1025 N   0  0  0  0  0  0  0  0  0  0  0  0
   12.4714   24.1809   -0.1043 C   0  0  0  0  0  0  0  0  0  0  0  0
   13.2320   24.3200    0.8649 O   0  0  0  0  0  0  0  0  0  0  0  0
   13.7171   25.2035   -2.0505 C   0  0  0  0  0  0  0  0  0  0  0  0
   13.3697   26.0664   -2.8411 O   0  0  0  0  0  0  0  0  0  0  0  0
   10.1566   23.3899    0.6964 C   0  0  0  0  0  0  0  0  0  0  0  0
   10.5132   22.1419    1.1150 C   0  0  0  0  0  0  0  0  0  0  0  0
    9.7378   21.4342    1.9698 C   0  0  0  0  0  0  0  0  0  0  0  0
    8.5137   21.9134    2.5034 C   0  0  0  0  0  0  0  0  0  0  0  0
    8.1810   23.1652    2.0627 C   0  0  0  0  0  0  0  0  0  0  0  0
    8.9787   23.9026    1.1805 C   0  0  0  0  0  0  0  0  0  0  0  0
    7.8714   21.1442    3.5536 C   0  0  0  0  0  0  0  0  0  0  0  0
    6.5570   20.6896    3.3466 C   0  0  0  0  0  0  0  0  0  0  0  0
    6.1776   19.9091    4.4036 C   0  0  0  0  0  0  0  0  0  0  0  0
    5.0126   19.2162    4.6592 C   0  0  0  0  0  0  0  0  0  0  0  0
    4.9219   18.4747    5.8114 C   0  0  0  0  0  0  0  0  0  0  0  0
    3.7568   17.7836    6.0333 F   0  0  0  0  0  0  0  0  0  0  0  0
    5.9922   18.4222    6.7188 C   0  0  0  0  0  0  0  0  0  0  0  0
    7.1656   19.1259    6.4315 C   0  0  0  0  0  0  0  0  0  0  0  0
    7.2836   19.8840    5.2717 C   0  0  0  0  0  0  0  0  0  0  0  0
    8.2681   20.6485    4.6932 N   0  0  0  0  0  0  0  0  0  0  0  0
    9.2111   20.7548    5.1860 H   0  0  0  0  0  0  0  0  0  0  0  0
   15.9412   26.0500   -1.3431 C   0  0  0  0  0  0  0  0  0  0  0  0
   16.6540   24.6452   -3.9839 C   0  0  0  0  0  0  0  0  0  0  0  0
   16.4730   26.1256   -3.8262 C   0  0  0  0  0  0  0  0  0  0  0  0
   16.5540   26.9357   -4.9756 C   0  0  0  0  0  0  0  0  0  0  0  0
   16.5586   28.2948   -4.9186 C   0  0  0  0  0  0  0  0  0  0  0  0
   16.4837   28.8449   -3.6326 C   0  0  0  0  0  0  0  0  0  0  0  0
   16.4147   28.0970   -2.5518 N   0  0  0  0  0  0  0  0  0  0  0  0
   16.3979   26.6782   -2.5971 C   0  0  0  0  0  0  0  0  0  0  0  0
 30 31  1  0  0  0
 31 32  2  0  0  0
 32 33  1  0  0  0
 33 34  2  0  0  0
 34 35  1  0  0  0
 35 36  2  0  0  0
 36 29  1  0  0  0
 29  1  1  0  0  0
  1  2  1  0  0  0
  2  3  1  0  0  0
  3  4  1  0  0  0
  4  5  1  0  0  0
  5  6  1  0  0  0
  6  7  1  0  0  0
  7  8  1  0  0  0
  8  9  2  0  0  0
  7 12  1  0  0  0
 12 13  2  0  0  0
 13 14  1  0  0  0
 14 15  2  0  0  0
 15 16  1  0  0  0
 16 17  2  0  0  0
 15 18  1  0  0  0
 18 19  2  0  0  0
 19 20  1  0  0  0
 20 21  2  0  0  0
 21 22  1  0  0  0
 22 23  1  0  0  0
 22 24  2  0  0  0
 24 25  1  0  0  0
 25 26  2  0  0  0
 26 27  1  0  0  0
  4 10  1  0  0  0
 10 11  2  0  0  0
 36 31  1  0  0  0
 10  1  1  0  0  0
  8  4  1  0  0  0
 17 12  1  0  0  0
 27 18  1  0  0  0
 26 20  1  0  0  0
 27 28  1  0  0  0
M  END
> <minimizedAffinity>
-0.87641

> <CNNscore>
0.2024591267

> <CNNaffinity>
6.7860283852

> <CNN_VS>
1.3738933802

> <CNNaffinity_variance>
0.3393539786

$$$$
